0:0:0
     RDKit          3D

 92100  0  0  1  0  0  0  0  0999 V2000
  -28.9290  -21.1600   19.8110 C   0  0  0  0  0  0  0  0  0  0  0  0
  -28.9480  -22.4240   20.3870 N   0  0  0  0  0  0  0  0  0  0  0  0
  -28.4870  -21.0130   18.6710 O   0  0  0  0  0  0  0  0  0  0  0  0
  -29.2810  -22.4480   21.3400 H   0  0  0  0  0  0  0  0  0  0  0  0
  -30.3630  -20.0890   21.6360 C   0  0  0  0  0  3  0  0  0  0  0  0
  -30.9440  -18.9960   22.3050 C   0  0  0  0  0  3  0  0  0  0  0  0
  -29.2620  -18.5110   20.1530 C   0  0  0  0  0  3  0  0  0  0  0  0
  -29.4880  -19.9010   20.5490 C   0  0  0  0  0  0  0  0  0  0  0  0
  -30.6970  -17.6560   21.9290 C   0  0  0  0  0  0  0  0  0  0  0  0
  -29.8670  -17.3540   20.8100 C   0  0  0  0  0  0  0  0  0  0  0  0
  -31.3180  -16.5840   22.8120 C   0  0  0  0  0  1  0  0  0  0  0  0
  -30.3370  -14.8440   20.1010 C   0  0  0  0  0  0  0  0  0  0  0  0
  -30.1030  -12.6400   18.9260 C   0  0  0  0  0  2  0  0  0  0  0  0
  -29.0680  -12.7680   17.7860 C   0  0  0  0  0  2  0  0  0  0  0  0
  -27.6410  -12.5270   18.3150 C   0  0  0  0  0  2  0  0  0  0  0  0
  -27.3450  -13.3060   19.6240 C   0  0  0  0  0  3  0  0  0  0  0  0
  -28.4960  -13.1770   20.6460 C   0  0  0  0  0  2  0  0  0  0  0  0
  -29.7250  -13.6160   19.9750 N   0  0  0  0  0  0  0  0  0  0  0  0
  -31.4900  -14.9930   19.6840 O   0  0  0  0  0  0  0  0  0  0  0  0
  -29.5500  -15.9370   20.4610 N   0  0  0  0  0  0  0  0  0  0  0  0
  -28.5710  -15.7070   20.5250 H   0  0  0  0  0  0  0  0  0  0  0  0
  -24.9980  -13.7760   20.5470 C   0  0  0  0  0  0  0  0  0  0  0  0
  -23.9900  -12.9500   20.9610 C   0  0  0  0  0  0  0  0  0  0  0  0
  -24.4960  -11.6190   20.8390 C   0  0  0  0  0  0  0  0  0  0  0  0
  -26.0530  -12.9460   20.1970 N   0  0  0  0  0  0  0  0  0  0  0  0
  -25.7600  -11.6420   20.4340 N   0  0  0  0  0  0  0  0  0  0  0  0
  -23.8260  -10.3250   21.0290 C   0  0  0  0  0  0  0  0  0  0  0  0
  -24.3010   -9.3780   21.9620 C   0  0  0  0  0  3  0  0  0  0  0  0
  -23.6310   -8.1490   22.1400 C   0  0  0  0  0  3  0  0  0  0  0  0
  -22.4720   -7.8560   21.3810 C   0  0  0  0  0  0  0  0  0  0  0  0
  -22.0170   -8.7920   20.4360 C   0  0  0  0  0  3  0  0  0  0  0  0
  -22.6890  -10.0130   20.2580 C   0  0  0  0  0  3  0  0  0  0  0  0
  -21.7700   -6.6780   21.4670 O   0  0  0  0  0  0  0  0  0  0  0  0
  -21.6980   -5.9660   22.6360 C   0  0  0  0  0  0  0  0  0  0  0  0
  -21.1450   -6.5170   23.8120 C   0  0  0  0  0  3  0  0  0  0  0  0
  -21.0290   -5.7280   24.9730 C   0  0  0  0  0  3  0  0  0  0  0  0
  -21.4540   -4.3860   24.9580 C   0  0  0  0  0  0  0  0  0  0  0  0
  -21.9980   -3.8320   23.7850 C   0  0  0  0  0  3  0  0  0  0  0  0
  -22.1180   -4.6200   22.6270 C   0  0  0  0  0  0  0  0  0  0  0  0
  -22.6230   -4.0750   21.4960 F   0  0  0  0  0  0  0  0  0  0  0  0
  -21.3350   -3.6250   26.0720 F   0  0  0  0  0  0  0  0  0  0  0  0
  -22.6010  -13.3640   21.3540 C   0  0  0  0  0  0  0  0  0  0  0  0
  -21.9670  -12.6140   22.2470 N   0  0  0  0  0  0  0  0  0  0  0  0
  -22.0900  -14.3900   20.9060 O   0  0  0  0  0  0  0  0  0  0  0  0
  -22.3930  -11.7840   22.6320 H   0  0  0  0  0  0  0  0  0  0  0  0
  -21.0380  -12.8750   22.5520 H   0  0  0  0  0  0  0  0  0  0  0  0
  -25.0990  -15.1580   20.4150 N   0  0  0  0  0  0  0  0  0  0  0  0
  -24.3130  -15.7730   20.5940 H   0  0  0  0  0  0  0  0  0  0  0  0
  -25.8920  -15.6420   20.0140 H   0  0  0  0  0  0  0  0  0  0  0  0
  -28.7730  -23.8010   19.7300 C   0  0  0  0  0  3  0  0  0  0  0  0
  -28.1800  -25.0620   20.5640 C   0  0  0  0  0  3  0  0  0  0  0  0
  -28.3090  -26.4890   20.0980 O   0  0  0  0  0  0  0  0  0  0  0  0
  -24.6010  -31.9350   23.2130 C   0  0  0  0  0  0  0  0  0  0  0  0
  -27.1930  -27.3550   20.1200 C   0  0  0  0  0  0  0  0  0  0  0  0
  -23.3900  -30.5460   21.5680 C   0  0  0  0  0  3  0  0  0  0  0  0
  -24.8340  -28.9910   20.1310 C   0  0  0  0  0  0  0  0  0  0  0  0
  -25.9300  -30.8530   21.3760 C   0  0  0  0  0  2  0  0  0  0  0  0
  -26.0080  -29.4710   20.7260 C   0  0  0  0  0  0  0  0  0  0  0  0
  -27.1930  -28.6660   20.7050 C   0  0  0  0  0  3  0  0  0  0  0  0
  -25.9980  -26.9380   19.4990 C   0  0  0  0  0  3  0  0  0  0  0  0
  -24.8330  -27.7330   19.5060 C   0  0  0  0  0  3  0  0  0  0  0  0
  -23.6010  -29.8730   20.1860 C   0  0  0  0  0  2  0  0  0  0  0  0
  -24.6610  -31.1300   22.1100 N   0  0  0  0  0  0  0  0  0  0  0  0
  -23.5190  -32.2120   23.7520 O   0  0  0  0  0  0  0  0  0  0  0  0
  -22.7250  -29.5290   22.5280 C   0  0  0  0  0  0  0  0  0  0  0  0
  -21.3980  -29.3540   22.4030 N   0  0  0  0  0  0  0  0  0  0  0  0
  -23.4030  -28.9010   23.3460 O   0  0  0  0  0  0  0  0  0  0  0  0
  -20.9090  -29.9120   21.7180 H   0  0  0  0  0  0  0  0  0  0  0  0
  -18.0180  -28.1670   22.9220 C   0  0  0  0  0  0  0  0  0  0  0  0
  -20.5800  -28.4120   23.1710 C   0  0  0  0  0  3  0  0  0  0  0  0
  -20.6700  -26.9850   22.5810 C   0  0  0  0  0  2  0  0  0  0  0  0
  -19.5580  -26.6790   21.5740 C   0  0  0  0  0  2  0  0  0  0  0  0
  -18.1830  -26.8240   22.2310 C   0  0  0  0  0  2  0  0  0  0  0  0
  -19.1440  -28.9190   23.3510 C   0  0  0  0  0  0  0  0  0  0  0  0
  -18.9360  -30.1760   23.9590 C   0  0  0  0  0  3  0  0  0  0  0  0
  -17.6350  -30.6810   24.1430 C   0  0  0  0  0  3  0  0  0  0  0  0
  -16.5230  -29.9260   23.7300 C   0  0  0  0  0  3  0  0  0  0  0  0
  -16.7150  -28.6710   23.1250 C   0  0  0  0  0  3  0  0  0  0  0  0
  -25.8870  -32.5630   23.8340 C   0  0  0  0  0  3  0  0  0  0  0  0
  -26.4130  -31.7760   25.0980 C   0  0  1  0  0  0  0  0  0  0  0  0
  -25.3250  -31.5130   26.1640 C   0  0  0  0  0  1  0  0  0  0  0  0
  -27.0000  -30.4090   24.6800 C   0  0  0  0  0  1  0  0  0  0  0  0
  -27.5650  -32.5640   25.7660 C   0  0  0  0  0  1  0  0  0  0  0  0
  -25.5790  -33.9580   24.1870 N   0  0  0  0  0  0  0  0  0  0  0  0
  -25.9080  -35.0220   23.4410 C   0  0  0  0  0  0  0  0  0  0  0  0
  -26.5730  -34.9320   22.4050 O   0  0  0  0  0  0  0  0  0  0  0  0
  -24.9950  -34.1030   24.9960 H   0  0  0  0  0  0  0  0  0  0  0  0
  -24.1980  -36.8320   23.1010 C   0  0  0  0  0  1  0  0  0  0  0  0
  -25.4270  -36.4040   23.9200 C   0  0  0  0  0  3  0  0  0  0  0  0
  -27.5540  -37.2610   24.7970 C   0  0  0  0  0  1  0  0  0  0  0  0
  -26.4670  -37.4540   23.8400 N   0  0  0  0  0  0  0  0  0  0  0  0
  -26.0640  -38.3740   23.9990 H   0  0  0  0  0  0  0  0  0  0  0  0
  1  2  1  0
  1  8  1  0
  2  4  1  0
  3  1  2  0
  5  6  1  0
  7  8  1  0
  7 10  2  0
  8  5  2  0
  9  6  2  0
  9 11  1  0
 10  9  1  0
 12 20  1  0
 13 18  1  0
 14 15  1  0
 14 13  1  0
 16 15  1  0
 16 25  1  0
 16 17  1  0
 18 12  1  0
 18 17  1  0
 19 12  2  0
 20 21  1  0
 20 10  1  0
 22 23  2  0
 23 42  1  0
 24 23  1  0
 24 27  1  0
 25 26  1  0
 25 22  1  0
 26 24  2  0
 27 28  1  0
 28 29  2  0
 30 33  1  0
 30 29  1  0
 31 30  2  0
 32 31  1  0
 32 27  2  0
 33 34  1  0
 34 35  1  0
 35 36  2  0
 37 36  1  0
 37 41  1  0
 38 37  2  0
 39 34  2  0
 39 38  1  0
 40 39  1  0
 42 43  1  0
 43 46  1  0
 43 45  1  0
 44 42  2  0
 47 22  1  0
 47 48  1  0
 49 47  1  0
 50  2  1  0
 50 51  2  0
 52 54  1  0
 52 51  1  0
 53 64  2  0
 54 59  1  0
 55 63  1  0
 55 65  1  0
 56 62  1  0
 56 58  1  0
 57 63  1  0
 58 57  1  0
 59 58  2  0
 60 61  1  0
 60 54  2  0
 61 56  2  0
 62 55  1  0
 63 53  1  0
 65 67  2  0
 66 65  1  0
 68 66  1  0
 69 78  2  0
 69 74  1  0
 70 66  1  0
 70 74  1  0
 71 70  1  0
 72 73  1  0
 72 71  1  0
 73 69  1  0
 74 75  2  0
 75 76  1  0
 77 76  2  0
 78 77  1  0
 79 53  1  0
 79 84  1  0
 79 80  1  0
 80 83  1  1
 80 81  1  0
 82 80  1  0
 84 87  1  0
 85 89  1  0
 85 84  1  0
 86 85  2  0
 89 88  1  0
 91 89  1  0
 91 92  1  0
 91 90  1  0
M  ISO  4  12 100  20 100  51 101  52 101
M  END
>  <TORSDO>  (1) 
F 19

>  <SCORE>  (1) 
-13.388

>  <name>  (1) 
0

>  <ligand_id>  (1) 
0

>  <original_smiles>  (1) 
[H]c1c([H])c([H])c2c(c1[H])C([H])([H])C([H])([H])C([H])([H])C2([H])N([H])C(=O)C1([H])N(C(=O)C([H])(N([H])C(=O)C([H])(N([H])C([H])([H])[H])C([H])([H])[H])C(C([H])([H])[H])(C([H])([H])[H])C([H])([H])[H])C([H])([H])c2c([H])c(OC([H])([H])C([H])([H])N([H])C(=O)c3c([H])c([H])c(C([H])([H])[H])c(N([H])C(=O)N4C([H])([H])C([H])([H])C([H])([H])C([H])(n5nc(-c6c([H])c([H])c(Oc7c([H])c([H])c(F)c([H])c7F)c([H])c6[H])c(C(=O)N([H])[H])c5N([H])[H])C4([H])[H])c3[H])c([H])c([H])c2C1([H])[H]

>  <smiles>  (1) 
[H]c1c([H])c([H])c2c(c1[H])C([H])([H])C([H])([H])C([H])([H])C2([H])N([H])C(=O)C1([H])N(C(=O)C([H])(N([H])C(=O)C([H])(N([H])C([H])([H])[H])C([H])([H])[H])C(C([H])([H])[H])(C([H])([H])[H])C([H])([H])[H])C([H])([H])c2c([H])c(OC([H])([H])C([H])([H])N([H])C(=O)c3c([H])c([H])c(C([H])([H])[H])c(N([H])C(=O)N4C([H])([H])C([H])([H])C([H])([H])C([H])(n5nc(-c6c([H])c([H])c(Oc7c([H])c([H])c(F)c([H])c7F)c([H])c6[H])c(C(=O)N([H])[H])c5N([H])[H])C4([H])[H])c3[H])c([H])c([H])c2C1([H])[H]

$$$$
1:0:0
     RDKit          3D

 93101  0  0  1  0  0  0  0  0999 V2000
  -31.1580  -17.5620   19.1760 C   0  0  0  0  0  3  0  0  0  0  0  0
  -30.8200  -19.9920   19.2620 C   0  0  0  0  0  3  0  0  0  0  0  0
  -29.5730  -18.5190   20.7400 C   0  0  0  0  0  3  0  0  0  0  0  0
  -31.4650  -18.8620   18.7150 C   0  0  0  0  0  0  0  0  0  0  0  0
  -30.2170  -17.3250   20.2090 C   0  0  0  0  0  0  0  0  0  0  0  0
  -29.8430  -19.8750   20.2740 C   0  0  0  0  0  0  0  0  0  0  0  0
  -30.6260  -14.7490   20.4170 C   0  0  0  0  0  0  0  0  0  0  0  0
  -30.3720  -12.4770   19.4300 C   0  0  0  0  0  2  0  0  0  0  0  0
  -29.4530  -12.5610   18.1930 C   0  0  0  0  0  2  0  0  0  0  0  0
  -27.9790  -12.4030   18.6070 C   0  0  0  0  0  2  0  0  0  0  0  0
  -27.6010  -13.2980   19.8190 C   0  0  0  0  0  3  0  0  0  0  0  0
  -28.6500  -13.2210   20.9510 C   0  0  0  0  0  2  0  0  0  0  0  0
  -29.9570  -13.5450   20.3680 N   0  0  0  0  0  0  0  0  0  0  0  0
  -31.8190  -14.7820   20.1140 O   0  0  0  0  0  0  0  0  0  0  0  0
  -29.9120  -15.9240   20.6300 N   0  0  0  0  0  0  0  0  0  0  0  0
  -28.9910  -15.7850   21.0180 H   0  0  0  0  0  0  0  0  0  0  0  0
  -25.2050  -13.8980   20.5110 C   0  0  0  0  0  0  0  0  0  0  0  0
  -24.1320  -13.1280   20.8700 C   0  0  0  0  0  0  0  0  0  0  0  0
  -24.5910  -11.7740   20.8550 C   0  0  0  0  0  0  0  0  0  0  0  0
  -26.2510  -13.0130   20.2960 N   0  0  0  0  0  0  0  0  0  0  0  0
  -25.8880  -11.7320   20.5660 N   0  0  0  0  0  0  0  0  0  0  0  0
  -23.8590  -10.5150   21.0410 C   0  0  0  0  0  0  0  0  0  0  0  0
  -24.2760   -9.5500   21.9830 C   0  0  0  0  0  3  0  0  0  0  0  0
  -23.5400   -8.3580   22.1600 C   0  0  0  0  0  3  0  0  0  0  0  0
  -22.3760   -8.1220   21.3920 C   0  0  0  0  0  0  0  0  0  0  0  0
  -21.9780   -9.0760   20.4410 C   0  0  0  0  0  3  0  0  0  0  0  0
  -22.7110  -10.2600   20.2630 C   0  0  0  0  0  3  0  0  0  0  0  0
  -21.6130   -6.9820   21.4760 O   0  0  0  0  0  0  0  0  0  0  0  0
  -21.5480   -6.2440   22.6310 C   0  0  0  0  0  0  0  0  0  0  0  0
  -21.1130   -6.8070   23.8510 C   0  0  0  0  0  3  0  0  0  0  0  0
  -20.9940   -5.9960   24.9980 C   0  0  0  0  0  3  0  0  0  0  0  0
  -21.2990   -4.6230   24.9260 C   0  0  0  0  0  0  0  0  0  0  0  0
  -21.7270   -4.0600   23.7110 C   0  0  0  0  0  3  0  0  0  0  0  0
  -21.8480   -4.8680   22.5660 C   0  0  0  0  0  0  0  0  0  0  0  0
  -22.2400   -4.3140   21.3930 F   0  0  0  0  0  0  0  0  0  0  0  0
  -21.1780   -3.8430   26.0260 F   0  0  0  0  0  0  0  0  0  0  0  0
  -22.7340  -13.6100   21.1170 C   0  0  0  0  0  0  0  0  0  0  0  0
  -21.9910  -12.9190   21.9740 N   0  0  0  0  0  0  0  0  0  0  0  0
  -22.3090  -14.6360   20.5870 O   0  0  0  0  0  0  0  0  0  0  0  0
  -22.3500  -12.0890   22.4200 H   0  0  0  0  0  0  0  0  0  0  0  0
  -21.0530  -13.2250   22.1860 H   0  0  0  0  0  0  0  0  0  0  0  0
  -25.3750  -15.2660   20.3260 N   0  0  0  0  0  0  0  0  0  0  0  0
  -24.6040  -15.9200   20.4140 H   0  0  0  0  0  0  0  0  0  0  0  0
  -26.2220  -15.6980   19.9790 H   0  0  0  0  0  0  0  0  0  0  0  0
  -32.5280  -19.0340   17.6350 C   0  0  1  0  0  0  0  0  0  0  0  0
  -32.4070  -18.0910   16.6980 F   0  0  0  0  0  0  0  0  0  0  0  0
  -32.4340  -20.2230   17.0360 F   0  0  0  0  0  0  0  0  0  0  0  0
  -33.7400  -18.9340   18.1810 F   0  0  0  0  0  0  0  0  0  0  0  0
  -29.2470  -21.0450   20.8340 O   0  0  0  0  0  0  0  0  0  0  0  0
  -28.9200  -22.2700   20.0370 C   0  0  0  0  0  3  0  0  0  0  0  0
  -28.9720  -23.7530   20.6870 C   0  0  0  0  0  3  0  0  0  0  0  0
  -28.1930  -24.9530   19.9360 C   0  0  0  0  0  2  0  0  0  0  0  0
  -28.3250  -26.4070   20.3080 O   0  0  0  0  0  0  0  0  0  0  0  0
  -24.5920  -31.8820   23.2400 C   0  0  0  0  0  0  0  0  0  0  0  0
  -27.2210  -27.2900   20.2010 C   0  0  0  0  0  0  0  0  0  0  0  0
  -23.4010  -30.4810   21.5930 C   0  0  0  0  0  3  0  0  0  0  0  0
  -24.8640  -28.9390   20.1650 C   0  0  0  0  0  0  0  0  0  0  0  0
  -25.9450  -30.7920   21.4330 C   0  0  0  0  0  2  0  0  0  0  0  0
  -26.0280  -29.4120   20.7810 C   0  0  0  0  0  0  0  0  0  0  0  0
  -27.2060  -28.5980   20.7950 C   0  0  0  0  0  3  0  0  0  0  0  0
  -26.0390  -26.8990   19.5280 C   0  0  0  0  0  3  0  0  0  0  0  0
  -24.8740  -27.6910   19.5260 C   0  0  0  0  0  3  0  0  0  0  0  0
  -23.6270  -29.8170   20.2090 C   0  0  0  0  0  2  0  0  0  0  0  0
  -24.6630  -31.0700   22.1440 N   0  0  0  0  0  0  0  0  0  0  0  0
  -23.5060  -32.1600   23.7680 O   0  0  0  0  0  0  0  0  0  0  0  0
  -22.7330  -29.4620   22.5470 C   0  0  0  0  0  0  0  0  0  0  0  0
  -21.4050  -29.2920   22.4200 N   0  0  0  0  0  0  0  0  0  0  0  0
  -23.4090  -28.8280   23.3620 O   0  0  0  0  0  0  0  0  0  0  0  0
  -20.9190  -29.8540   21.7370 H   0  0  0  0  0  0  0  0  0  0  0  0
  -18.0200  -28.1180   22.9310 C   0  0  0  0  0  0  0  0  0  0  0  0
  -20.5830  -28.3550   23.1890 C   0  0  0  0  0  3  0  0  0  0  0  0
  -20.6700  -26.9260   22.6040 C   0  0  0  0  0  2  0  0  0  0  0  0
  -19.5590  -26.6210   21.5940 C   0  0  0  0  0  2  0  0  0  0  0  0
  -18.1810  -26.7720   22.2440 C   0  0  0  0  0  2  0  0  0  0  0  0
  -19.1480  -28.8670   23.3600 C   0  0  0  0  0  0  0  0  0  0  0  0
  -18.9420  -30.1260   23.9640 C   0  0  0  0  0  3  0  0  0  0  0  0
  -17.6430  -30.6380   24.1410 C   0  0  0  0  0  3  0  0  0  0  0  0
  -16.5290  -29.8850   23.7300 C   0  0  0  0  0  3  0  0  0  0  0  0
  -16.7180  -28.6280   23.1300 C   0  0  0  0  0  3  0  0  0  0  0  0
  -25.8710  -32.5180   23.8670 C   0  0  0  0  0  3  0  0  0  0  0  0
  -25.5590  -33.9170   24.1940 N   0  0  0  0  0  0  0  0  0  0  0  0
  -25.8850  -34.9690   23.4320 C   0  0  0  0  0  0  0  0  0  0  0  0
  -26.5520  -34.8650   22.4000 O   0  0  0  0  0  0  0  0  0  0  0  0
  -24.9680  -34.0700   24.9990 H   0  0  0  0  0  0  0  0  0  0  0  0
  -24.1550  -36.7580   23.0780 C   0  0  0  0  0  1  0  0  0  0  0  0
  -25.3970  -36.3560   23.8880 C   0  0  0  0  0  3  0  0  0  0  0  0
  -27.5300  -37.2460   24.7180 C   0  0  0  0  0  1  0  0  0  0  0  0
  -26.4280  -37.4110   23.7720 N   0  0  0  0  0  0  0  0  0  0  0  0
  -26.0210  -38.3290   23.9230 H   0  0  0  0  0  0  0  0  0  0  0  0
  -26.3830  -31.7490   25.1470 C   0  0  1  0  0  0  0  0  0  0  0  0
  -25.2830  -31.5100   26.2090 C   0  0  0  0  0  1  0  0  0  0  0  0
  -26.9730  -30.3720   24.7630 C   0  0  0  0  0  1  0  0  0  0  0  0
  -27.5300  -32.5460   25.8110 C   0  0  0  0  0  1  0  0  0  0  0  0
  1  5  1  0
  2  6  2  0
  4  1  2  0
  4  2  1  0
  5 15  1  0
  5  3  2  0
  6  3  1  0
  6 49  1  0
  7 15  1  0
  8 13  1  0
  9 10  1  0
  9  8  1  0
 11 10  1  0
 11 20  1  0
 11 12  1  0
 13  7  1  0
 13 12  1  0
 14  7  2  0
 15 16  1  0
 17 18  2  0
 18 37  1  0
 19 18  1  0
 19 22  1  0
 20 17  1  0
 20 21  1  0
 21 19  2  0
 22 23  1  0
 23 24  2  0
 25 28  1  0
 25 24  1  0
 26 25  2  0
 27 26  1  0
 27 22  2  0
 28 29  1  0
 29 30  1  0
 30 31  2  0
 32 31  1  0
 32 36  1  0
 33 32  2  0
 34 29  2  0
 34 33  1  0
 35 34  1  0
 37 38  1  0
 38 41  1  0
 38 40  1  0
 39 37  2  0
 42 43  1  0
 42 17  1  0
 44 42  1  0
 45 48  1  1
 45  4  1  0
 46 45  1  0
 47 45  1  0
 50 51  2  0
 50 49  1  0
 52 53  1  0
 52 51  1  0
 54 65  2  0
 55 53  1  0
 55 60  1  0
 56 64  1  0
 56 66  1  0
 57 63  1  0
 57 59  1  0
 58 64  1  0
 59 60  2  0
 59 58  1  0
 61 55  2  0
 62 61  1  0
 62 57  2  0
 63 56  1  0
 64 54  1  0
 66 68  2  0
 67 66  1  0
 69 67  1  0
 70 79  2  0
 70 75  1  0
 71 67  1  0
 71 75  1  0
 72 71  1  0
 73 74  1  0
 73 72  1  0
 74 70  1  0
 75 76  2  0
 76 77  1  0
 78 77  2  0
 79 78  1  0
 80 54  1  0
 80 81  1  0
 80 90  1  0
 81 84  1  0
 82 86  1  0
 82 81  1  0
 83 82  2  0
 86 85  1  0
 88 86  1  0
 88 89  1  0
 88 87  1  0
 90 93  1  1
 90 91  1  0
 92 90  1  0
M  ISO  4   7 100  15 100  52 101  53 101
M  END
>  <TORSDO>  (2) 
F 21

>  <SCORE>  (2) 
-13.501

>  <name>  (2) 
1

>  <ligand_id>  (2) 
1

>  <original_smiles>  (2) 
[H]c1c([H])c([H])c2c(c1[H])C([H])([H])C([H])([H])C([H])([H])C2([H])N([H])C(=O)C1([H])N(C(=O)C([H])(N([H])C(=O)C([H])(N([H])C([H])([H])[H])C([H])([H])[H])C(C([H])([H])[H])(C([H])([H])[H])C([H])([H])[H])C([H])([H])c2c([H])c(OC([H])([H])C([H])([H])C([H])([H])Oc3c([H])c(N([H])C(=O)N4C([H])([H])C([H])([H])C([H])([H])C([H])(n5nc(-c6c([H])c([H])c(Oc7c([H])c([H])c(F)c([H])c7F)c([H])c6[H])c(C(=O)N([H])[H])c5N([H])[H])C4([H])[H])c([H])c(C(F)(F)F)c3[H])c([H])c([H])c2C1([H])[H]

>  <smiles>  (2) 
[H]c1c([H])c([H])c2c(c1[H])C([H])([H])C([H])([H])C([H])([H])C2([H])N([H])C(=O)C1([H])N(C(=O)C([H])(N([H])C(=O)C([H])(N([H])C([H])([H])[H])C([H])([H])[H])C(C([H])([H])[H])(C([H])([H])[H])C([H])([H])[H])C([H])([H])c2c([H])c(OC([H])([H])C([H])([H])C([H])([H])Oc3c([H])c(N([H])C(=O)N4C([H])([H])C([H])([H])C([H])([H])C([H])(n5nc(-c6c([H])c([H])c(Oc7c([H])c([H])c(F)c([H])c7F)c([H])c6[H])c(C(=O)N([H])[H])c5N([H])[H])C4([H])[H])c([H])c(C(F)(F)F)c3[H])c([H])c([H])c2C1([H])[H]

$$$$
2:0:0
     RDKit          3D

 91 99  0  0  1  0  0  0  0  0999 V2000
  -28.1920  -23.1110   20.2470 C   0  0  0  0  0  0  0  0  0  0  0  0
  -30.4120  -22.4310   21.0090 C   0  0  0  0  0  1  0  0  0  0  0  0
  -29.1220  -22.0100   20.4720 N   0  0  0  0  0  0  0  0  0  0  0  0
  -26.9950  -22.8730   20.4330 O   0  0  0  0  0  0  0  0  0  0  0  0
  -28.7600  -18.8970   18.2620 C   0  0  0  0  0  3  0  0  0  0  0  0
  -28.6600  -20.1880   18.8220 C   0  0  0  0  0  3  0  0  0  0  0  0
  -29.4670  -19.2130   20.8880 C   0  0  0  0  0  3  0  0  0  0  0  0
  -29.2030  -17.7480   18.9670 C   0  0  0  0  0  0  0  0  0  0  0  0
  -29.0460  -20.4700   20.1450 C   0  0  0  0  0  0  0  0  0  0  0  0
  -29.5460  -17.7930   20.3500 C   0  0  0  0  0  0  0  0  0  0  0  0
  -29.2480  -16.4560   18.1670 C   0  0  0  0  0  1  0  0  0  0  0  0
  -30.5160  -15.1980   20.9260 C   0  0  0  0  0  0  0  0  0  0  0  0
  -30.5730  -12.7490   20.1910 C   0  0  0  0  0  2  0  0  0  0  0  0
  -29.7860  -12.5660   18.8710 C   0  0  0  0  0  2  0  0  0  0  0  0
  -28.2930  -12.3280   19.1590 C   0  0  0  0  0  2  0  0  0  0  0  0
  -27.7370  -13.3090   20.2230 C   0  0  0  0  0  3  0  0  0  0  0  0
  -28.6640  -13.4560   21.4480 C   0  0  0  0  0  2  0  0  0  0  0  0
  -29.9740  -13.8980   20.9490 N   0  0  0  0  0  0  0  0  0  0  0  0
  -31.7310  -15.2520   20.6940 O   0  0  0  0  0  0  0  0  0  0  0  0
  -29.7230  -16.4050   21.0790 N   0  0  0  0  0  0  0  0  0  0  0  0
  -28.8940  -16.1770   21.6060 H   0  0  0  0  0  0  0  0  0  0  0  0
  -25.2930  -13.8770   20.6970 C   0  0  0  0  0  0  0  0  0  0  0  0
  -24.2030  -13.1010   20.9780 C   0  0  0  0  0  0  0  0  0  0  0  0
  -24.6800  -11.7550   21.0340 C   0  0  0  0  0  0  0  0  0  0  0  0
  -26.3610  -13.0040   20.5910 N   0  0  0  0  0  0  0  0  0  0  0  0
  -25.9970  -11.7240   20.8590 N   0  0  0  0  0  0  0  0  0  0  0  0
  -23.9490  -10.4900   21.1850 C   0  0  0  0  0  0  0  0  0  0  0  0
  -24.3180   -9.5350   22.1570 C   0  0  0  0  0  3  0  0  0  0  0  0
  -23.5850   -8.3360   22.2960 C   0  0  0  0  0  3  0  0  0  0  0  0
  -22.4700   -8.0850   21.4620 C   0  0  0  0  0  0  0  0  0  0  0  0
  -22.1210   -9.0290   20.4800 C   0  0  0  0  0  3  0  0  0  0  0  0
  -22.8550  -10.2190   20.3390 C   0  0  0  0  0  3  0  0  0  0  0  0
  -21.7150   -6.9380   21.5090 O   0  0  0  0  0  0  0  0  0  0  0  0
  -21.6120   -6.1910   22.6540 C   0  0  0  0  0  0  0  0  0  0  0  0
  -21.1380   -6.7440   23.8650 C   0  0  0  0  0  3  0  0  0  0  0  0
  -20.9800   -5.9250   25.0000 C   0  0  0  0  0  3  0  0  0  0  0  0
  -21.2860   -4.5530   24.9260 C   0  0  0  0  0  0  0  0  0  0  0  0
  -21.7520   -3.9980   23.7210 C   0  0  0  0  0  3  0  0  0  0  0  0
  -21.9110   -4.8150   22.5870 C   0  0  0  0  0  0  0  0  0  0  0  0
  -22.3400   -4.2720   21.4230 F   0  0  0  0  0  0  0  0  0  0  0  0
  -21.1270   -3.7630   26.0140 F   0  0  0  0  0  0  0  0  0  0  0  0
  -22.7820  -13.5710   21.0890 C   0  0  0  0  0  0  0  0  0  0  0  0
  -21.9760  -12.8980   21.9030 N   0  0  0  0  0  0  0  0  0  0  0  0
  -22.3910  -14.5710   20.4880 O   0  0  0  0  0  0  0  0  0  0  0  0
  -22.3030  -12.0900   22.4120 H   0  0  0  0  0  0  0  0  0  0  0  0
  -21.0180  -13.1970   22.0200 H   0  0  0  0  0  0  0  0  0  0  0  0
  -25.4610  -15.2450   20.4970 N   0  0  0  0  0  0  0  0  0  0  0  0
  -24.6770  -15.8900   20.5080 H   0  0  0  0  0  0  0  0  0  0  0  0
  -26.3310  -15.6870   20.2330 H   0  0  0  0  0  0  0  0  0  0  0  0
  -28.5050  -24.6790   19.6580 C   0  0  0  0  0  2  0  0  0  0  0  0
  -28.2720  -26.1070   20.3180 O   0  0  0  0  0  0  0  0  0  0  0  0
  -24.6470  -31.9030   23.1360 C   0  0  0  0  0  0  0  0  0  0  0  0
  -27.2280  -27.1120   20.1390 C   0  0  0  0  0  0  0  0  0  0  0  0
  -23.4450  -30.4810   21.5180 C   0  0  0  0  0  3  0  0  0  0  0  0
  -24.8950  -28.8880   20.0910 C   0  0  0  0  0  0  0  0  0  0  0  0
  -25.9990  -30.7400   21.3430 C   0  0  0  0  0  2  0  0  0  0  0  0
  -26.0730  -29.3350   20.7000 C   0  0  0  0  0  0  0  0  0  0  0  0
  -27.2300  -28.4590   20.7120 C   0  0  0  0  0  3  0  0  0  0  0  0
  -26.0280  -26.7830   19.4740 C   0  0  0  0  0  3  0  0  0  0  0  0
  -24.8890  -27.6300   19.4620 C   0  0  0  0  0  3  0  0  0  0  0  0
  -23.6630  -29.7850   20.1450 C   0  0  0  0  0  2  0  0  0  0  0  0
  -24.7180  -31.0670   22.0530 N   0  0  0  0  0  0  0  0  0  0  0  0
  -23.5620  -32.1900   23.6670 O   0  0  0  0  0  0  0  0  0  0  0  0
  -22.7730  -29.4880   22.4990 C   0  0  0  0  0  0  0  0  0  0  0  0
  -21.4420  -29.3280   22.3980 N   0  0  0  0  0  0  0  0  0  0  0  0
  -23.4530  -28.8630   23.3170 O   0  0  0  0  0  0  0  0  0  0  0  0
  -20.9470  -29.8830   21.7130 H   0  0  0  0  0  0  0  0  0  0  0  0
  -18.0630  -28.1460   22.9680 C   0  0  0  0  0  0  0  0  0  0  0  0
  -20.6280  -28.3990   23.1880 C   0  0  0  0  0  3  0  0  0  0  0  0
  -20.7120  -26.9630   22.6170 C   0  0  0  0  0  2  0  0  0  0  0  0
  -19.5900  -26.6420   21.6240 C   0  0  0  0  0  2  0  0  0  0  0  0
  -18.2220  -26.7950   22.2910 C   0  0  0  0  0  2  0  0  0  0  0  0
  -19.1920  -28.9050   23.3750 C   0  0  0  0  0  0  0  0  0  0  0  0
  -18.9870  -30.1690   23.9710 C   0  0  0  0  0  3  0  0  0  0  0  0
  -17.6870  -30.6720   24.1630 C   0  0  0  0  0  3  0  0  0  0  0  0
  -16.5730  -29.9100   23.7710 C   0  0  0  0  0  3  0  0  0  0  0  0
  -16.7620  -28.6490   23.1790 C   0  0  0  0  0  3  0  0  0  0  0  0
  -25.9230  -32.5550   23.7500 C   0  0  0  0  0  3  0  0  0  0  0  0
  -25.5910  -33.9430   24.1130 N   0  0  0  0  0  0  0  0  0  0  0  0
  -25.9050  -35.0220   23.3840 C   0  0  0  0  0  0  0  0  0  0  0  0
  -26.5710  -34.9540   22.3470 O   0  0  0  0  0  0  0  0  0  0  0  0
  -24.9970  -34.0680   24.9190 H   0  0  0  0  0  0  0  0  0  0  0  0
  -24.1570  -36.8100   23.0880 C   0  0  0  0  0  1  0  0  0  0  0  0
  -25.4060  -36.3940   23.8810 C   0  0  0  0  0  3  0  0  0  0  0  0
  -27.5350  -37.2800   24.7270 C   0  0  0  0  0  1  0  0  0  0  0  0
  -26.4260  -37.4620   23.7940 N   0  0  0  0  0  0  0  0  0  0  0  0
  -26.0110  -38.3720   23.9690 H   0  0  0  0  0  0  0  0  0  0  0  0
  -26.4700  -31.7790   25.0130 C   0  0  1  0  0  0  0  0  0  0  0  0
  -25.3980  -31.5180   26.0970 C   0  0  0  0  0  1  0  0  0  0  0  0
  -27.0650  -30.4120   24.6040 C   0  0  0  0  0  1  0  0  0  0  0  0
  -27.6210  -32.5820   25.6640 C   0  0  0  0  0  1  0  0  0  0  0  0
  1  4  2  0
  1  3  1  0
  3  2  1  0
  5  6  2  0
  5  8  1  0
  6  9  1  0
  8 10  2  0
  9  3  1  0
  9  7  2  0
 10  7  1  0
 10 20  1  0
 11  8  1  0
 12 18  1  0
 12 20  1  0
 13 18  1  0
 14 15  1  0
 14 13  1  0
 16 15  1  0
 16 25  1  0
 16 17  1  0
 18 17  1  0
 19 12  2  0
 20 21  1  0
 22 23  2  0
 23 24  1  0
 23 42  1  0
 24 27  1  0
 25 22  1  0
 25 26  1  0
 26 24  2  0
 27 28  1  0
 28 29  2  0
 30 33  1  0
 30 29  1  0
 31 30  2  0
 32 31  1  0
 32 27  2  0
 33 34  1  0
 34 35  1  0
 35 36  2  0
 37 36  1  0
 37 41  1  0
 38 37  2  0
 39 34  2  0
 39 38  1  0
 40 39  1  0
 42 43  1  0
 43 46  1  0
 43 45  1  0
 44 42  2  0
 47 48  1  0
 47 22  1  0
 49 47  1  0
 50  1  1  0
 50 51  1  0
 52 63  2  0
 53 51  1  0
 53 58  1  0
 54 62  1  0
 54 64  1  0
 55 61  1  0
 55 57  1  0
 56 62  1  0
 57 58  2  0
 57 56  1  0
 59 53  2  0
 60 59  1  0
 60 55  2  0
 61 54  1  0
 62 52  1  0
 64 66  2  0
 65 64  1  0
 67 65  1  0
 68 77  2  0
 68 73  1  0
 69 65  1  0
 69 73  1  0
 70 69  1  0
 71 72  1  0
 71 70  1  0
 72 68  1  0
 73 74  2  0
 74 75  1  0
 76 75  2  0
 77 76  1  0
 78 52  1  0
 78 79  1  0
 78 88  1  0
 79 82  1  0
 80 84  1  0
 80 79  1  0
 81 80  2  0
 84 83  1  0
 86 84  1  0
 86 87  1  0
 86 85  1  0
 88 91  1  1
 88 89  1  0
 90 88  1  0
M  ISO  4  12 100  20 100  50 101  51 101
M  END
>  <TORSDO>  (3) 
F 18

>  <SCORE>  (3) 
-14.377

>  <name>  (3) 
2

>  <ligand_id>  (3) 
2

>  <original_smiles>  (3) 
[H]c1c([H])c([H])c2c(c1[H])C([H])([H])C([H])([H])C([H])([H])C2([H])N([H])C(=O)C1([H])N(C(=O)C([H])(N([H])C(=O)C([H])(N([H])C([H])([H])[H])C([H])([H])[H])C(C([H])([H])[H])(C([H])([H])[H])C([H])([H])[H])C([H])([H])c2c([H])c(OC([H])([H])C(=O)N(c3c([H])c([H])c(C([H])([H])[H])c(N([H])C(=O)N4C([H])([H])C([H])([H])C([H])([H])C([H])(n5nc(-c6c([H])c([H])c(Oc7c([H])c([H])c(F)c([H])c7F)c([H])c6[H])c(C(=O)N([H])[H])c5N([H])[H])C4([H])[H])c3[H])C([H])([H])[H])c([H])c([H])c2C1([H])[H]

>  <smiles>  (3) 
[H]c1c([H])c([H])c2c(c1[H])C([H])([H])C([H])([H])C([H])([H])C2([H])N([H])C(=O)C1([H])N(C(=O)C([H])(N([H])C(=O)C([H])(N([H])C([H])([H])[H])C([H])([H])[H])C(C([H])([H])[H])(C([H])([H])[H])C([H])([H])[H])C([H])([H])c2c([H])c(OC([H])([H])C(=O)N(c3c([H])c([H])c(C([H])([H])[H])c(N([H])C(=O)N4C([H])([H])C([H])([H])C([H])([H])C([H])(n5nc(-c6c([H])c([H])c(Oc7c([H])c([H])c(F)c([H])c7F)c([H])c6[H])c(C(=O)N([H])[H])c5N([H])[H])C4([H])[H])c3[H])C([H])([H])[H])c([H])c([H])c2C1([H])[H]

$$$$
3:0:0
     RDKit          3D

 90 98  0  0  1  0  0  0  0  0999 V2000
  -28.2710  -19.5860   20.4890 C   0  0  0  0  0  3  0  0  0  0  0  0
  -30.3190  -20.0590   19.4470 C   0  0  0  0  0  3  0  0  0  0  0  0
  -28.5690  -18.1730   20.4990 C   0  0  0  0  0  0  0  0  0  0  0  0
  -30.6370  -18.6230   19.4270 C   0  0  0  0  0  0  0  0  0  0  0  0
  -29.7630  -17.5890   19.9480 C   0  0  0  0  0  0  0  0  0  0  0  0
  -29.1000  -20.6220   19.9660 C   0  0  0  0  0  0  0  0  0  0  0  0
  -27.5190  -17.2910   21.1620 C   0  0  0  0  0  1  0  0  0  0  0  0
  -31.9520  -18.2130   18.7940 C   0  0  0  0  0  1  0  0  0  0  0  0
  -30.6910  -14.9830   19.5000 C   0  0  0  0  0  0  0  0  0  0  0  0
  -30.4740  -12.6730   18.4830 C   0  0  0  0  0  2  0  0  0  0  0  0
  -29.3650  -12.6890   17.4030 C   0  0  0  0  0  2  0  0  0  0  0  0
  -27.9770  -12.4560   18.0310 C   0  0  0  0  0  2  0  0  0  0  0  0
  -27.7490  -13.3230   19.2960 C   0  0  0  0  0  3  0  0  0  0  0  0
  -28.9560  -13.2600   20.2570 C   0  0  0  0  0  2  0  0  0  0  0  0
  -30.1380  -13.7050   19.5010 N   0  0  0  0  0  0  0  0  0  0  0  0
  -31.8160  -15.1230   19.0060 O   0  0  0  0  0  0  0  0  0  0  0  0
  -29.8760  -16.0550   19.9330 N   0  0  0  0  0  0  0  0  0  0  0  0
  -29.0580  -15.6460   20.3560 H   0  0  0  0  0  0  0  0  0  0  0  0
  -25.5140  -13.8650   20.4270 C   0  0  0  0  0  0  0  0  0  0  0  0
  -24.5040  -13.0740   20.8990 C   0  0  0  0  0  0  0  0  0  0  0  0
  -24.9260  -11.7260   20.6830 C   0  0  0  0  0  0  0  0  0  0  0  0
  -26.4910  -13.0010   19.9630 N   0  0  0  0  0  0  0  0  0  0  0  0
  -26.1530  -11.7020   20.1750 N   0  0  0  0  0  0  0  0  0  0  0  0
  -24.2050  -10.4610   20.8720 C   0  0  0  0  0  0  0  0  0  0  0  0
  -24.6540   -9.4830   21.7870 C   0  0  0  0  0  3  0  0  0  0  0  0
  -23.9300   -8.2840   21.9660 C   0  0  0  0  0  3  0  0  0  0  0  0
  -22.7440   -8.0540   21.2300 C   0  0  0  0  0  0  0  0  0  0  0  0
  -22.3140   -9.0200   20.3030 C   0  0  0  0  0  3  0  0  0  0  0  0
  -23.0380  -10.2110   20.1220 C   0  0  0  0  0  3  0  0  0  0  0  0
  -21.9920   -6.9070   21.3190 O   0  0  0  0  0  0  0  0  0  0  0  0
  -21.8230   -6.2490   22.5120 C   0  0  0  0  0  0  0  0  0  0  0  0
  -21.2300   -6.8730   23.6310 C   0  0  0  0  0  3  0  0  0  0  0  0
  -21.0130   -6.1390   24.8130 C   0  0  0  0  0  3  0  0  0  0  0  0
  -21.3780   -4.7800   24.8770 C   0  0  0  0  0  0  0  0  0  0  0  0
  -21.9640   -4.1560   23.7620 C   0  0  0  0  0  3  0  0  0  0  0  0
  -22.1830   -4.8880   22.5820 C   0  0  0  0  0  0  0  0  0  0  0  0
  -22.7280   -4.2760   21.5040 F   0  0  0  0  0  0  0  0  0  0  0  0
  -21.1620   -4.0730   26.0100 F   0  0  0  0  0  0  0  0  0  0  0  0
  -23.1780  -13.5430   21.4220 C   0  0  0  0  0  0  0  0  0  0  0  0
  -22.5820  -12.7930   22.3430 N   0  0  0  0  0  0  0  0  0  0  0  0
  -22.6850  -14.6070   21.0500 O   0  0  0  0  0  0  0  0  0  0  0  0
  -22.9980  -11.9310   22.6640 H   0  0  0  0  0  0  0  0  0  0  0  0
  -21.6980  -13.0880   22.7350 H   0  0  0  0  0  0  0  0  0  0  0  0
  -25.6670  -15.2430   20.3240 N   0  0  0  0  0  0  0  0  0  0  0  0
  -24.8990  -15.8660   20.5480 H   0  0  0  0  0  0  0  0  0  0  0  0
  -26.3900  -15.6930   19.7790 H   0  0  0  0  0  0  0  0  0  0  0  0
  -28.5640  -21.9840   19.9810 O   0  0  0  0  0  0  0  0  0  0  0  0
  -29.1670  -23.3750   19.7680 C   0  0  0  0  0  3  0  0  0  0  0  0
  -28.1510  -24.7030   19.5720 C   0  0  0  0  0  3  0  0  0  0  0  0
  -28.4280  -26.2260   19.7140 O   0  0  0  0  0  0  0  0  0  0  0  0
  -24.6950  -31.6620   22.9960 C   0  0  0  0  0  0  0  0  0  0  0  0
  -27.3470  -27.1800   19.7080 C   0  0  0  0  0  0  0  0  0  0  0  0
  -23.5120  -30.3350   21.2890 C   0  0  0  0  0  3  0  0  0  0  0  0
  -24.9830  -28.8700   19.7780 C   0  0  0  0  0  0  0  0  0  0  0  0
  -26.0600  -30.6600   21.1300 C   0  0  0  0  0  2  0  0  0  0  0  0
  -26.1560  -29.3080   20.4040 C   0  0  0  0  0  0  0  0  0  0  0  0
  -27.3400  -28.4810   20.3530 C   0  0  0  0  0  3  0  0  0  0  0  0
  -26.1400  -26.8420   19.0520 C   0  0  0  0  0  3  0  0  0  0  0  0
  -24.9860  -27.6510   19.0880 C   0  0  0  0  0  3  0  0  0  0  0  0
  -23.7390  -29.7400   19.8750 C   0  0  0  0  0  2  0  0  0  0  0  0
  -24.7760  -30.9040   21.8600 N   0  0  0  0  0  0  0  0  0  0  0  0
  -23.6060  -31.8980   23.5430 O   0  0  0  0  0  0  0  0  0  0  0  0
  -22.8570  -29.2640   22.1960 C   0  0  0  0  0  0  0  0  0  0  0  0
  -21.5310  -29.0830   22.0720 N   0  0  0  0  0  0  0  0  0  0  0  0
  -23.5440  -28.6010   22.9770 O   0  0  0  0  0  0  0  0  0  0  0  0
  -21.0310  -29.6730   21.4220 H   0  0  0  0  0  0  0  0  0  0  0  0
  -18.1600  -27.8610   22.5880 C   0  0  0  0  0  0  0  0  0  0  0  0
  -20.7270  -28.0940   22.7970 C   0  0  0  0  0  3  0  0  0  0  0  0
  -20.8020  -26.7070   22.1160 C   0  0  0  0  0  2  0  0  0  0  0  0
  -19.6690  -26.4640   21.1140 C   0  0  0  0  0  2  0  0  0  0  0  0
  -18.3080  -26.5650   21.8090 C   0  0  0  0  0  2  0  0  0  0  0  0
  -19.2940  -28.5860   23.0390 C   0  0  0  0  0  0  0  0  0  0  0  0
  -19.0990  -29.8010   23.7310 C   0  0  0  0  0  3  0  0  0  0  0  0
  -17.8020  -30.2910   23.9750 C   0  0  0  0  0  3  0  0  0  0  0  0
  -16.6820  -29.5610   23.5380 C   0  0  0  0  0  3  0  0  0  0  0  0
  -16.8620  -28.3480   22.8510 C   0  0  0  0  0  3  0  0  0  0  0  0
  -25.9640  -32.2860   23.6510 C   0  0  0  0  0  3  0  0  0  0  0  0
  -26.4940  -31.4590   24.8870 C   0  0  1  0  0  0  0  0  0  0  0  0
  -25.4010  -31.1250   25.9290 C   0  0  0  0  0  1  0  0  0  0  0  0
  -27.1250  -30.1240   24.4260 C   0  0  0  0  0  1  0  0  0  0  0  0
  -27.6130  -32.2480   25.6050 C   0  0  0  0  0  1  0  0  0  0  0  0
  -25.6270  -33.6590   24.0610 N   0  0  0  0  0  0  0  0  0  0  0  0
  -25.9080  -34.7590   23.3500 C   0  0  0  0  0  0  0  0  0  0  0  0
  -26.5450  -34.7250   22.2930 O   0  0  0  0  0  0  0  0  0  0  0  0
  -25.0560  -33.7550   24.8870 H   0  0  0  0  0  0  0  0  0  0  0  0
  -24.1150  -36.5150   23.1640 C   0  0  0  0  0  1  0  0  0  0  0  0
  -25.4050  -36.1090   23.8960 C   0  0  0  0  0  3  0  0  0  0  0  0
  -27.5420  -37.0300   24.6790 C   0  0  0  0  0  1  0  0  0  0  0  0
  -26.4000  -37.1990   23.7850 N   0  0  0  0  0  0  0  0  0  0  0  0
  -25.9730  -38.0990   23.9830 H   0  0  0  0  0  0  0  0  0  0  0  0
  1  3  1  0
  2  6  1  0
  3  7  1  0
  4  2  2  0
  4  5  1  0
  5  3  2  0
  6 47  1  0
  6  1  2  0
  8  4  1  0
  9 15  1  0
  9 17  1  0
 10 15  1  0
 11 12  1  0
 11 10  1  0
 13 12  1  0
 13 22  1  0
 13 14  1  0
 15 14  1  0
 16  9  2  0
 17  5  1  0
 17 18  1  0
 19 20  2  0
 20 39  1  0
 21 24  1  0
 21 20  1  0
 22 23  1  0
 22 19  1  0
 23 21  2  0
 24 25  1  0
 25 26  2  0
 27 30  1  0
 27 26  1  0
 28 27  2  0
 29 28  1  0
 29 24  2  0
 30 31  1  0
 31 36  2  0
 31 32  1  0
 32 33  2  0
 33 34  1  0
 34 38  1  0
 35 34  2  0
 36 35  1  0
 37 36  1  0
 39 40  1  0
 40 42  1  0
 40 43  1  0
 41 39  2  0
 44 19  1  0
 44 45  1  0
 46 44  1  0
 48 47  1  0
 49 50  1  0
 49 48  2  0
 51 62  2  0
 52 50  1  0
 52 57  1  0
 53 61  1  0
 53 63  1  0
 54 60  1  0
 54 56  1  0
 55 61  1  0
 56 55  1  0
 57 56  2  0
 58 59  1  0
 58 52  2  0
 59 54  2  0
 60 53  1  0
 61 51  1  0
 63 65  2  0
 64 63  1  0
 66 64  1  0
 67 76  2  0
 67 72  1  0
 68 64  1  0
 68 72  1  0
 69 68  1  0
 70 71  1  0
 70 69  1  0
 71 67  1  0
 72 73  2  0
 73 74  1  0
 75 74  2  0
 76 75  1  0
 77 51  1  0
 77 82  1  0
 77 78  1  0
 78 81  1  1
 78 79  1  0
 80 78  1  0
 82 85  1  0
 83 87  1  0
 83 82  1  0
 84 83  2  0
 87 86  1  0
 89 87  1  0
 89 90  1  0
 89 88  1  0
M  ISO  4   9 100  17 100  49 101  50 101
M  END
>  <TORSDO>  (4) 
F 19

>  <SCORE>  (4) 
-11.565

>  <name>  (4) 
3

>  <ligand_id>  (4) 
3

>  <original_smiles>  (4) 
[H]c1c([H])c([H])c2c(c1[H])C([H])([H])C([H])([H])C([H])([H])C2([H])N([H])C(=O)C1([H])N(C(=O)C([H])(N([H])C(=O)C([H])(N([H])C([H])([H])[H])C([H])([H])[H])C(C([H])([H])[H])(C([H])([H])[H])C([H])([H])[H])C([H])([H])c2c([H])c(OC([H])([H])C([H])([H])Oc3c([H])c(C([H])([H])[H])c(N([H])C(=O)N4C([H])([H])C([H])([H])C([H])([H])C([H])(n5nc(-c6c([H])c([H])c(Oc7c([H])c([H])c(F)c([H])c7F)c([H])c6[H])c(C(=O)N([H])[H])c5N([H])[H])C4([H])[H])c(C([H])([H])[H])c3[H])c([H])c([H])c2C1([H])[H]

>  <smiles>  (4) 
[H]c1c([H])c([H])c2c(c1[H])C([H])([H])C([H])([H])C([H])([H])C2([H])N([H])C(=O)C1([H])N(C(=O)C([H])(N([H])C(=O)C([H])(N([H])C([H])([H])[H])C([H])([H])[H])C(C([H])([H])[H])(C([H])([H])[H])C([H])([H])[H])C([H])([H])c2c([H])c(OC([H])([H])C([H])([H])Oc3c([H])c(C([H])([H])[H])c(N([H])C(=O)N4C([H])([H])C([H])([H])C([H])([H])C([H])(n5nc(-c6c([H])c([H])c(Oc7c([H])c([H])c(F)c([H])c7F)c([H])c6[H])c(C(=O)N([H])[H])c5N([H])[H])C4([H])[H])c(C([H])([H])[H])c3[H])c([H])c([H])c2C1([H])[H]

$$$$
4:0:0
     RDKit          3D

 93101  0  0  1  0  0  0  0  0999 V2000
  -30.5600  -18.5690   19.7970 C   0  0  0  0  0  3  0  0  0  0  0  0
  -28.0570  -19.6070   20.3540 C   0  0  0  0  0  3  0  0  0  0  0  0
  -29.5780  -17.5760   20.1670 C   0  0  0  0  0  0  0  0  0  0  0  0
  -29.0050  -20.6110   19.9770 C   0  0  0  0  0  0  0  0  0  0  0  0
  -30.2960  -20.0210   19.6930 C   0  0  0  0  0  0  0  0  0  0  0  0
  -28.3210  -18.1930   20.4480 C   0  0  0  0  0  0  0  0  0  0  0  0
  -27.3000  -17.3790   20.8060 F   0  0  0  0  0  0  0  0  0  0  0  0
  -30.4550  -14.9450   19.8930 C   0  0  0  0  0  0  0  0  0  0  0  0
  -30.2790  -12.6110   18.9160 C   0  0  0  0  0  2  0  0  0  0  0  0
  -29.2480  -12.6060   17.7590 C   0  0  0  0  0  2  0  0  0  0  0  0
  -27.8170  -12.4080   18.2950 C   0  0  0  0  0  2  0  0  0  0  0  0
  -27.5130  -13.3080   19.5210 C   0  0  0  0  0  3  0  0  0  0  0  0
  -28.6490  -13.2590   20.5660 C   0  0  0  0  0  2  0  0  0  0  0  0
  -29.8850  -13.6740   19.8840 N   0  0  0  0  0  0  0  0  0  0  0  0
  -31.6070  -15.0680   19.4640 O   0  0  0  0  0  0  0  0  0  0  0  0
  -29.6420  -16.0440   20.2530 N   0  0  0  0  0  0  0  0  0  0  0  0
  -28.7870  -15.6930   20.6610 H   0  0  0  0  0  0  0  0  0  0  0  0
  -25.1960  -13.9020   20.4380 C   0  0  0  0  0  0  0  0  0  0  0  0
  -24.1490  -13.1310   20.8640 C   0  0  0  0  0  0  0  0  0  0  0  0
  -24.5920  -11.7770   20.7710 C   0  0  0  0  0  0  0  0  0  0  0  0
  -26.2090  -13.0170   20.1040 N   0  0  0  0  0  0  0  0  0  0  0  0
  -25.8580  -11.7320   20.3680 N   0  0  0  0  0  0  0  0  0  0  0  0
  -23.8640  -10.5190   20.9860 C   0  0  0  0  0  0  0  0  0  0  0  0
  -24.3430   -9.5290   21.8720 C   0  0  0  0  0  3  0  0  0  0  0  0
  -23.6120   -8.3370   22.0760 C   0  0  0  0  0  3  0  0  0  0  0  0
  -22.3900   -8.1290   21.3950 C   0  0  0  0  0  0  0  0  0  0  0  0
  -21.9300   -9.1080   20.4960 C   0  0  0  0  0  3  0  0  0  0  0  0
  -22.6600  -10.2900   20.2900 C   0  0  0  0  0  3  0  0  0  0  0  0
  -21.6280   -6.9920   21.5120 O   0  0  0  0  0  0  0  0  0  0  0  0
  -21.6360   -6.2330   22.6540 C   0  0  0  0  0  0  0  0  0  0  0  0
  -21.2870   -6.7730   23.9110 C   0  0  0  0  0  3  0  0  0  0  0  0
  -21.2420   -5.9410   25.0470 C   0  0  0  0  0  3  0  0  0  0  0  0
  -21.5370   -4.5690   24.9280 C   0  0  0  0  0  0  0  0  0  0  0  0
  -21.8810   -4.0290   23.6760 C   0  0  0  0  0  3  0  0  0  0  0  0
  -21.9270   -4.8570   22.5420 C   0  0  0  0  0  0  0  0  0  0  0  0
  -22.2370   -4.3270   21.3350 F   0  0  0  0  0  0  0  0  0  0  0  0
  -21.4870   -3.7680   26.0170 F   0  0  0  0  0  0  0  0  0  0  0  0
  -22.7820  -13.6200   21.2460 C   0  0  0  0  0  0  0  0  0  0  0  0
  -22.1130  -12.9210   22.1570 N   0  0  0  0  0  0  0  0  0  0  0  0
  -22.3180  -14.6560   20.7730 O   0  0  0  0  0  0  0  0  0  0  0  0
  -22.5020  -12.0810   22.5590 H   0  0  0  0  0  0  0  0  0  0  0  0
  -21.2000  -13.2310   22.4550 H   0  0  0  0  0  0  0  0  0  0  0  0
  -25.3620  -15.2740   20.2830 N   0  0  0  0  0  0  0  0  0  0  0  0
  -24.6270  -15.9320   20.5170 H   0  0  0  0  0  0  0  0  0  0  0  0
  -26.2110  -15.7290   19.9730 H   0  0  0  0  0  0  0  0  0  0  0  0
  -28.9580  -23.3930   19.9220 C   0  0  0  0  0  0  0  0  0  0  0  0
  -28.5150  -22.0550   19.7700 N   0  0  0  0  0  0  0  0  0  0  0  0
  -30.0830  -23.6290   20.3720 O   0  0  0  0  0  0  0  0  0  0  0  0
  -27.5450  -22.0700   19.4860 H   0  0  0  0  0  0  0  0  0  0  0  0
  -27.9950  -24.6780   19.5040 C   0  0  0  0  0  2  0  0  0  0  0  0
  -28.2890  -26.1760   19.8170 O   0  0  0  0  0  0  0  0  0  0  0  0
  -24.5210  -31.6630   23.0050 C   0  0  0  0  0  0  0  0  0  0  0  0
  -27.2150  -27.1440   19.7860 C   0  0  0  0  0  0  0  0  0  0  0  0
  -23.3560  -30.3080   21.3090 C   0  0  0  0  0  3  0  0  0  0  0  0
  -24.8420  -28.8310   19.8230 C   0  0  0  0  0  0  0  0  0  0  0  0
  -25.9030  -30.6420   21.1600 C   0  0  0  0  0  2  0  0  0  0  0  0
  -26.0110  -29.2800   20.4510 C   0  0  0  0  0  0  0  0  0  0  0  0
  -27.1980  -28.4530   20.4180 C   0  0  0  0  0  3  0  0  0  0  0  0
  -26.0150  -26.8030   19.1210 C   0  0  0  0  0  3  0  0  0  0  0  0
  -24.8570  -27.6070   19.1420 C   0  0  0  0  0  3  0  0  0  0  0  0
  -23.5920  -29.6930   19.9050 C   0  0  0  0  0  2  0  0  0  0  0  0
  -24.6130  -30.8900   21.8800 N   0  0  0  0  0  0  0  0  0  0  0  0
  -23.4290  -31.9020   23.5420 O   0  0  0  0  0  0  0  0  0  0  0  0
  -22.7010  -29.2460   22.2300 C   0  0  0  0  0  0  0  0  0  0  0  0
  -21.3710  -29.0730   22.1170 N   0  0  0  0  0  0  0  0  0  0  0  0
  -23.3900  -28.5830   23.0080 O   0  0  0  0  0  0  0  0  0  0  0  0
  -20.8700  -29.6610   21.4660 H   0  0  0  0  0  0  0  0  0  0  0  0
  -18.0000  -27.8630   22.6580 C   0  0  0  0  0  0  0  0  0  0  0  0
  -20.5690  -28.0930   22.8540 C   0  0  0  0  0  3  0  0  0  0  0  0
  -20.6390  -26.6990   22.1870 C   0  0  0  0  0  2  0  0  0  0  0  0
  -19.5010  -26.4490   21.1920 C   0  0  0  0  0  2  0  0  0  0  0  0
  -18.1430  -26.5600   21.8890 C   0  0  0  0  0  2  0  0  0  0  0  0
  -19.1380  -28.5910   23.0970 C   0  0  0  0  0  0  0  0  0  0  0  0
  -18.9480  -29.8130   23.7780 C   0  0  0  0  0  3  0  0  0  0  0  0
  -17.6520  -30.3070   24.0220 C   0  0  0  0  0  3  0  0  0  0  0  0
  -16.5290  -29.5760   23.5970 C   0  0  0  0  0  3  0  0  0  0  0  0
  -16.7050  -28.3560   22.9200 C   0  0  0  0  0  3  0  0  0  0  0  0
  -25.7850  -32.3020   23.6580 C   0  0  0  0  0  3  0  0  0  0  0  0
  -26.3040  -31.5020   24.9160 C   0  0  1  0  0  0  0  0  0  0  0  0
  -25.2080  -31.2230   25.9700 C   0  0  0  0  0  1  0  0  0  0  0  0
  -26.9070  -30.1430   24.4940 C   0  0  0  0  0  1  0  0  0  0  0  0
  -27.4390  -32.2930   25.6060 C   0  0  0  0  0  1  0  0  0  0  0  0
  -25.4440  -33.6840   24.0330 N   0  0  0  0  0  0  0  0  0  0  0  0
  -25.7470  -34.7700   23.3100 C   0  0  0  0  0  0  0  0  0  0  0  0
  -26.4110  -34.7160   22.2710 O   0  0  0  0  0  0  0  0  0  0  0  0
  -24.8510  -33.7980   24.8430 H   0  0  0  0  0  0  0  0  0  0  0  0
  -23.9690  -36.5300   23.0440 C   0  0  0  0  0  1  0  0  0  0  0  0
  -25.2350  -36.1320   23.8200 C   0  0  0  0  0  3  0  0  0  0  0  0
  -27.3620  -37.0480   24.6410 C   0  0  0  0  0  1  0  0  0  0  0  0
  -26.2390  -37.2140   23.7200 N   0  0  0  0  0  0  0  0  0  0  0  0
  -25.8120  -38.1180   23.9000 H   0  0  0  0  0  0  0  0  0  0  0  0
  -32.5480  -20.4300   18.9350 C   0  0  0  0  0  1  0  0  0  0  0  0
  -31.2530  -20.9170   19.2650 O   0  0  0  0  0  0  0  0  0  0  0  0
  1  3  1  0
  2  6  1  0
  3 16  1  0
  3  6  2  0
  4  2  2  0
  5  1  2  0
  5  4  1  0
  6  7  1  0
  8 16  1  0
  9 14  1  0
 10 11  1  0
 10  9  1  0
 12 11  1  0
 12 21  1  0
 12 13  1  0
 14  8  1  0
 14 13  1  0
 15  8  2  0
 16 17  1  0
 18 19  2  0
 19 38  1  0
 20 19  1  0
 20 23  1  0
 21 22  1  0
 21 18  1  0
 22 20  2  0
 23 24  1  0
 24 25  2  0
 26 29  1  0
 26 25  1  0
 27 26  2  0
 28 27  1  0
 28 23  2  0
 29 30  1  0
 30 31  1  0
 31 32  2  0
 33 32  1  0
 33 37  1  0
 34 33  2  0
 35 30  2  0
 35 34  1  0
 36 35  1  0
 38 39  1  0
 39 42  1  0
 39 41  1  0
 40 38  2  0
 43 18  1  0
 43 44  1  0
 45 43  1  0
 46 48  2  0
 47 46  1  0
 47  4  1  0
 49 47  1  0
 50 51  1  0
 50 46  1  0
 52 63  2  0
 53 51  1  0
 53 58  1  0
 54 62  1  0
 54 64  1  0
 55 61  1  0
 55 57  1  0
 56 62  1  0
 57 56  1  0
 58 57  2  0
 59 60  1  0
 59 53  2  0
 60 55  2  0
 61 54  1  0
 62 52  1  0
 64 66  2  0
 65 64  1  0
 67 65  1  0
 68 77  2  0
 68 73  1  0
 69 65  1  0
 69 73  1  0
 70 69  1  0
 71 72  1  0
 71 70  1  0
 72 68  1  0
 73 74  2  0
 74 75  1  0
 76 75  2  0
 77 76  1  0
 78 52  1  0
 78 83  1  0
 78 79  1  0
 79 82  1  1
 79 80  1  0
 81 79  1  0
 83 86  1  0
 84 88  1  0
 84 83  1  0
 85 84  2  0
 88 87  1  0
 90 88  1  0
 90 91  1  0
 90 89  1  0
 92 93  1  0
 93  5  1  0
M  ISO  4   8 100  16 100  50 101  51 101
M  END
>  <TORSDO>  (5) 
F 19

>  <SCORE>  (5) 
-13.836

>  <name>  (5) 
4

>  <ligand_id>  (5) 
4

>  <original_smiles>  (5) 
[H]c1c([H])c([H])c2c(c1[H])C([H])([H])C([H])([H])C([H])([H])C2([H])N([H])C(=O)C1([H])N(C(=O)C([H])(N([H])C(=O)C([H])(N([H])C([H])([H])[H])C([H])([H])[H])C(C([H])([H])[H])(C([H])([H])[H])C([H])([H])[H])C([H])([H])c2c([H])c(OC([H])([H])C(=O)N([H])c3c([H])c(F)c(N([H])C(=O)N4C([H])([H])C([H])([H])C([H])([H])C([H])(n5nc(-c6c([H])c([H])c(Oc7c([H])c([H])c(F)c([H])c7F)c([H])c6[H])c(C(=O)N([H])[H])c5N([H])[H])C4([H])[H])c([H])c3OC([H])([H])[H])c([H])c([H])c2C1([H])[H]

>  <smiles>  (5) 
[H]c1c([H])c([H])c2c(c1[H])C([H])([H])C([H])([H])C([H])([H])C2([H])N([H])C(=O)C1([H])N(C(=O)C([H])(N([H])C(=O)C([H])(N([H])C([H])([H])[H])C([H])([H])[H])C(C([H])([H])[H])(C([H])([H])[H])C([H])([H])[H])C([H])([H])c2c([H])c(OC([H])([H])C(=O)N([H])c3c([H])c(F)c(N([H])C(=O)N4C([H])([H])C([H])([H])C([H])([H])C([H])(n5nc(-c6c([H])c([H])c(Oc7c([H])c([H])c(F)c([H])c7F)c([H])c6[H])c(C(=O)N([H])[H])c5N([H])[H])C4([H])[H])c([H])c3OC([H])([H])[H])c([H])c([H])c2C1([H])[H]

$$$$
5:0:0
     RDKit          3D

113122  0  0  1  0  0  0  0  0999 V2000
  -31.2250  -18.5790   20.6830 C   0  0  0  0  0  3  0  0  0  0  0  0
  -30.7290  -19.3760   19.6380 C   0  0  0  0  0  3  0  0  0  0  0  0
  -29.3790  -17.5010   18.8700 C   0  0  0  0  0  3  0  0  0  0  0  0
  -30.8890  -17.2120   20.7930 C   0  0  0  0  0  0  0  0  0  0  0  0
  -29.8380  -18.8480   18.6830 C   0  0  0  0  0  0  0  0  0  0  0  0
  -29.8860  -16.6610   19.9210 C   0  0  0  0  0  0  0  0  0  0  0  0
  -30.0070  -14.1730   19.6400 C   0  0  0  0  0  3  0  0  0  0  0  0
  -29.7530  -11.8100   18.9610 C   0  0  0  0  0  2  0  0  0  0  0  0
  -28.7660  -11.7300   17.7780 C   0  0  0  0  0  2  0  0  0  0  0  0
  -27.3310  -11.5710   18.3070 C   0  0  0  0  0  2  0  0  0  0  0  0
  -26.9740  -12.6240   19.3880 C   0  0  0  0  0  3  0  0  0  0  0  0
  -28.0800  -12.7390   20.4650 C   0  0  0  0  0  2  0  0  0  0  0  0
  -29.3610  -12.9760   19.7820 N   0  0  0  0  0  0  0  0  0  0  0  0
  -31.0810  -14.2530   19.0510 O   0  0  0  0  0  0  0  0  0  0  0  0
  -29.3890  -15.3010   20.0690 N   0  0  0  0  0  0  0  0  0  0  0  0
  -28.4650  -15.1800   20.4590 H   0  0  0  0  0  0  0  0  0  0  0  0
  -24.6390  -13.2460   20.2700 C   0  0  0  0  0  0  0  0  0  0  0  0
  -23.6030  -12.4870   20.7360 C   0  0  0  0  0  0  0  0  0  0  0  0
  -24.0590  -11.1310   20.7020 C   0  0  0  0  0  0  0  0  0  0  0  0
  -25.6640  -12.3600   19.9780 N   0  0  0  0  0  0  0  0  0  0  0  0
  -25.3250  -11.0850   20.3020 N   0  0  0  0  0  0  0  0  0  0  0  0
  -23.3490   -9.8770   20.9790 C   0  0  0  0  0  0  0  0  0  0  0  0
  -23.5650   -9.1510   22.1710 C   0  0  0  0  0  3  0  0  0  0  0  0
  -22.8560   -7.9560   22.4190 C   0  0  0  0  0  3  0  0  0  0  0  0
  -21.9190   -7.4770   21.4730 C   0  0  0  0  0  0  0  0  0  0  0  0
  -21.7240   -8.1930   20.2780 C   0  0  0  0  0  3  0  0  0  0  0  0
  -22.4340   -9.3800   20.0300 C   0  0  0  0  0  3  0  0  0  0  0  0
  -21.2040   -6.3120   21.6170 O   0  0  0  0  0  0  0  0  0  0  0  0
  -20.6560   -5.9460   22.8190 C   0  0  0  0  0  0  0  0  0  0  0  0
  -19.6920   -6.7460   23.4720 C   0  0  0  0  0  3  0  0  0  0  0  0
  -19.1030   -6.2990   24.6710 C   0  0  0  0  0  3  0  0  0  0  0  0
  -19.4690   -5.0530   25.2160 C   0  0  0  0  0  0  0  0  0  0  0  0
  -20.4290   -4.2560   24.5680 C   0  0  0  0  0  3  0  0  0  0  0  0
  -21.0180   -4.7010   23.3710 C   0  0  0  0  0  0  0  0  0  0  0  0
  -21.9240   -3.9170   22.7360 F   0  0  0  0  0  0  0  0  0  0  0  0
  -18.9010   -4.6230   26.3670 F   0  0  0  0  0  0  0  0  0  0  0  0
  -22.2310  -12.9740   21.1060 C   0  0  0  0  0  0  0  0  0  0  0  0
  -21.5990  -12.3520   22.0940 N   0  0  0  0  0  0  0  0  0  0  0  0
  -21.7280  -13.9480   20.5460 O   0  0  0  0  0  0  0  0  0  0  0  0
  -22.0190  -11.5690   22.5720 H   0  0  0  0  0  0  0  0  0  0  0  0
  -20.6840  -12.6720   22.3810 H   0  0  0  0  0  0  0  0  0  0  0  0
  -24.7910  -14.6150   20.0510 N   0  0  0  0  0  0  0  0  0  0  0  0
  -24.0260  -15.2650   20.1850 H   0  0  0  0  0  0  0  0  0  0  0  0
  -25.6150  -15.0480   19.6530 H   0  0  0  0  0  0  0  0  0  0  0  0
  -31.7370  -16.4270   21.7240 C   0  0  0  0  0  3  0  0  0  0  0  0
  -32.9160  -14.9540   20.0010 C   0  0  0  0  0  0  0  0  0  0  0  0
  -32.2450  -15.4720   18.7260 C   0  0  0  0  0  2  0  0  0  0  0  0
  -32.6080  -15.4720   21.3130 N   0  0  0  0  0  0  0  0  0  0  0  0
  -31.7320  -16.6590   23.0580 N   0  0  0  0  0  0  0  0  0  0  0  0
  -33.7730  -14.0700   19.9260 O   0  0  0  0  0  0  0  0  0  0  0  0
  -33.1040  -15.0610   22.0820 H   0  0  0  0  0  0  0  0  0  0  0  0
  -32.3440  -16.0980   23.6370 H   0  0  0  0  0  0  0  0  0  0  0  0
  -31.0400  -17.6950   23.8450 C   0  0  0  0  0  2  0  0  0  0  0  0
  -31.7120  -19.0720   23.6680 C   0  0  0  0  0  2  0  0  0  0  0  0
  -30.9490  -20.2770   24.2730 C   0  0  0  0  0  2  0  0  0  0  0  0
  -29.3150  -22.0710   23.8430 C   0  0  0  0  0  1  0  0  0  0  0  0
  -31.4660  -22.0990   22.6750 C   0  0  0  0  0  1  0  0  0  0  0  0
  -30.4140  -21.2500   23.2830 N   0  0  1  0  0  4  0  0  0  0  0  0
  -29.9860  -20.7300   22.5330 H   0  0  0  0  0  0  0  0  0  0  0  0
  -28.7490  -20.7940   17.6500 C   0  0  0  0  0  0  0  0  0  0  0  0
  -29.5490  -19.6780   17.5230 N   0  0  0  0  0  0  0  0  0  0  0  0
  -28.0910  -20.9850   18.6770 O   0  0  0  0  0  0  0  0  0  0  0  0
  -30.5310  -19.5640   16.4120 C   0  0  0  0  0  2  0  0  0  0  0  0
  -29.9530  -19.2730   14.9940 C   0  0  0  0  0  2  0  0  0  0  0  0
  -30.8690  -19.7670   13.8420 C   0  0  0  0  0  2  0  0  0  0  0  0
  -30.4640  -20.8810   11.6710 C   0  0  0  0  0  1  0  0  0  0  0  0
  -30.4570  -18.4320   11.7920 C   0  0  0  0  0  1  0  0  0  0  0  0
  -30.1980  -19.6950   12.5150 N   0  0  1  0  0  4  0  0  0  0  0  0
  -29.2060  -19.7180   12.6880 H   0  0  0  0  0  0  0  0  0  0  0  0
  -28.5610  -21.8280   16.4850 C   0  0  0  0  0  2  0  0  0  0  0  0
  -28.8890  -23.3440   16.7480 C   0  0  0  0  0  3  0  0  0  0  0  0
  -27.6720  -24.3140   16.6280 C   0  0  0  0  0  3  0  0  0  0  0  0
  -27.9120  -25.7050   16.9890 O   0  0  0  0  0  0  0  0  0  0  0  0
  -25.1040  -29.4260   22.4410 C   0  0  0  0  0  0  0  0  0  0  0  0
  -26.8270  -26.4340   17.4740 C   0  0  0  0  0  0  0  0  0  0  0  0
  -23.5350  -28.7440   20.6600 C   0  0  0  0  0  3  0  0  0  0  0  0
  -24.6010  -27.8670   18.5160 C   0  0  0  0  0  0  0  0  0  0  0  0
  -26.0100  -29.1400   20.1320 C   0  0  0  0  0  2  0  0  0  0  0  0
  -25.8840  -28.1120   19.0230 C   0  0  0  0  0  0  0  0  0  0  0  0
  -26.9990  -27.3980   18.5080 C   0  0  0  0  0  3  0  0  0  0  0  0
  -25.5180  -26.2280   16.9760 C   0  0  0  0  0  3  0  0  0  0  0  0
  -24.4150  -26.9260   17.4930 C   0  0  0  0  0  3  0  0  0  0  0  0
  -23.4520  -28.6470   19.1160 C   0  0  0  0  0  2  0  0  0  0  0  0
  -24.9130  -29.0930   21.1340 N   0  0  0  0  0  0  0  0  0  0  0  0
  -24.1570  -29.4700   23.2380 O   0  0  0  0  0  0  0  0  0  0  0  0
  -22.9930  -27.4330   21.2740 C   0  0  0  0  0  0  0  0  0  0  0  0
  -21.6590  -27.2760   21.2740 N   0  0  0  0  0  0  0  0  0  0  0  0
  -23.7630  -26.5810   21.7230 O   0  0  0  0  0  0  0  0  0  0  0  0
  -21.0920  -28.0180   20.8910 H   0  0  0  0  0  0  0  0  0  0  0  0
  -18.3680  -25.8240   21.6120 C   0  0  0  0  0  0  0  0  0  0  0  0
  -20.9330  -26.1060   21.7680 C   0  0  0  0  0  3  0  0  0  0  0  0
  -21.0200  -24.9340   20.7610 C   0  0  0  0  0  2  0  0  0  0  0  0
  -19.8450  -24.8920   19.7810 C   0  0  0  0  0  2  0  0  0  0  0  0
  -18.5180  -24.7630   20.5340 C   0  0  0  0  0  2  0  0  0  0  0  0
  -19.5010  -26.4670   22.1790 C   0  0  0  0  0  0  0  0  0  0  0  0
  -19.3000  -27.4720   23.1500 C   0  0  0  0  0  3  0  0  0  0  0  0
  -18.0040  -27.8350   23.5530 C   0  0  0  0  0  3  0  0  0  0  0  0
  -16.8870  -27.1820   23.0040 C   0  0  0  0  0  3  0  0  0  0  0  0
  -17.0710  -26.1780   22.0380 C   0  0  0  0  0  3  0  0  0  0  0  0
  -26.5180  -29.7840   22.9960 C   0  0  0  0  0  3  0  0  0  0  0  0
  -26.3590  -30.9140   23.9210 N   0  0  0  0  0  0  0  0  0  0  0  0
  -26.6960  -32.1790   23.6440 C   0  0  0  0  0  0  0  0  0  0  0  0
  -27.2440  -32.5100   22.5880 O   0  0  0  0  0  0  0  0  0  0  0  0
  -25.8450  -30.7290   24.7720 H   0  0  0  0  0  0  0  0  0  0  0  0
  -25.1010  -34.0150   24.2960 C   0  0  0  0  0  1  0  0  0  0  0  0
  -26.3710  -33.2490   24.7050 C   0  0  0  0  0  3  0  0  0  0  0  0
  -28.6330  -33.6040   25.5910 C   0  0  0  0  0  1  0  0  0  0  0  0
  -27.4770  -34.2060   24.9350 N   0  0  0  0  0  0  0  0  0  0  0  0
  -27.1630  -34.9930   25.4970 H   0  0  0  0  0  0  0  0  0  0  0  0
  -27.2250  -28.5690   23.7140 C   0  0  1  0  0  0  0  0  0  0  0  0
  -26.3520  -27.8990   24.8000 C   0  0  0  0  0  1  0  0  0  0  0  0
  -27.6210  -27.4830   22.6880 C   0  0  0  0  0  1  0  0  0  0  0  0
  -28.5350  -29.0440   24.3810 C   0  0  0  0  0  1  0  0  0  0  0  0
  1  4  1  0
  2  1  2  0
  3  6  1  0
  4 45  1  0
  5  3  2  0
  5  2  1  0
  6 15  1  0
  6  4  2  0
  7 14  1  0
  7 13  1  0
  7 15  1  0
  9 10  1  0
  9  8  1  0
 11 10  1  0
 11 20  1  0
 11 12  1  0
 13  8  1  0
 13 12  1  0
 15 16  1  0
 17 18  2  0
 18 37  1  0
 19 18  1  0
 19 22  1  0
 20 17  1  0
 20 21  1  0
 21 19  2  0
 22 23  1  0
 23 24  2  0
 25 28  1  0
 25 24  1  0
 26 25  2  0
 27 26  1  0
 27 22  2  0
 28 29  1  0
 29 34  2  0
 29 30  1  0
 30 31  2  0
 31 32  1  0
 32 36  1  0
 33 32  2  0
 34 33  1  0
 35 34  1  0
 37 38  1  0
 38 41  1  0
 38 40  1  0
 39 37  2  0
 42 43  1  0
 42 17  1  0
 44 42  1  0
 45 49  1  0
 46 48  1  0
 47 14  1  0
 47 46  1  0
 48 45  1  0
 48 51  1  0
 49 52  1  0
 49 53  1  0
 50 46  2  0
 54 53  1  0
 54 55  1  0
 57 58  1  0
 58 56  1  0
 58 55  1  0
 58 59  1  6
 60 62  2  0
 61 60  1  0
 61  5  1  0
 63 61  1  0
 64 63  1  0
 65 64  1  0
 66 68  1  0
 67 68  1  0
 68 69  1  1
 68 65  1  0
 70 71  1  0
 70 60  1  0
 72 71  2  0
 72 73  1  0
 73 75  1  0
 74 85  2  0
 75 80  1  0
 76 84  1  0
 76 86  1  0
 77 79  1  0
 77 83  1  0
 78 84  1  0
 79 78  1  0
 80 79  2  0
 81 75  2  0
 81 82  1  0
 82 77  2  0
 83 76  1  0
 84 74  1  0
 86 87  1  0
 86 88  2  0
 89 87  1  0
 90 99  2  0
 90 95  1  0
 91 87  1  0
 91 95  1  0
 92 91  1  0
 93 94  1  0
 93 92  1  0
 94 90  1  0
 95 96  2  0
 96 97  1  0
 98 97  2  0
 99 98  1  0
100 74  1  0
100110  1  0
100101  1  0
101104  1  0
102101  1  0
102106  1  0
103102  2  0
106105  1  0
106108  1  0
108109  1  0
108107  1  0
110113  1  1
110111  1  0
112110  1  0
M  ISO  4   7 100  15 100  72 101  73 101
M  END
>  <TORSDO>  (6) 
F 29

>  <SCORE>  (6) 
-2.267

>  <name>  (6) 
5

>  <ligand_id>  (6) 
5

>  <original_smiles>  (6) 
[H]c1c([H])c([H])c2c(c1[H])C([H])([H])C([H])([H])C([H])([H])C2([H])N([H])C(=O)C1([H])N(C(=O)C([H])(N([H])C(=O)C([H])(N([H])C([H])([H])[H])C([H])([H])[H])C(C([H])([H])[H])(C([H])([H])[H])C([H])([H])[H])C([H])([H])c2c([H])c(OC([H])([H])C([H])([H])C([H])([H])C(=O)N(c3c([H])c([H])c(C(N([H])C(=O)C([H])([H])[H])=[N+]([H])C([H])([H])C([H])([H])C([H])([H])[N+]([H])(C([H])([H])[H])C([H])([H])[H])c(N([H])C(=O)N4C([H])([H])C([H])([H])C([H])([H])C([H])(n5nc(-c6c([H])c([H])c(Oc7c([H])c([H])c(F)c([H])c7F)c([H])c6[H])c(C(=O)N([H])[H])c5N([H])[H])C4([H])[H])c3[H])C([H])([H])C([H])([H])C([H])([H])[N+]([H])(C([H])([H])[H])C([H])([H])[H])c([H])c([H])c2C1([H])[H]

>  <smiles>  (6) 
[H]c1c([H])c([H])c2c(c1[H])C([H])([H])C([H])([H])C([H])([H])C2([H])N([H])C(=O)C1([H])N(C(=O)C([H])(N([H])C(=O)C([H])(N([H])C([H])([H])[H])C([H])([H])[H])C(C([H])([H])[H])(C([H])([H])[H])C([H])([H])[H])C([H])([H])c2c([H])c(OC([H])([H])C([H])([H])C([H])([H])C(=O)N(c3c([H])c([H])c(C(N([H])C(=O)C([H])([H])[H])=[N+]([H])C([H])([H])C([H])([H])C([H])([H])[N+]([H])(C([H])([H])[H])C([H])([H])[H])c(N([H])C(=O)N4C([H])([H])C([H])([H])C([H])([H])C([H])(n5nc(-c6c([H])c([H])c(Oc7c([H])c([H])c(F)c([H])c7F)c([H])c6[H])c(C(=O)N([H])[H])c5N([H])[H])C4([H])[H])c3[H])C([H])([H])C([H])([H])C([H])([H])[N+]([H])(C([H])([H])[H])C([H])([H])[H])c([H])c([H])c2C1([H])[H]

$$$$
6:0:0
     RDKit          3D

 92100  0  0  1  0  0  0  0  0999 V2000
  -28.5560  -19.7120   20.6000 C   0  0  0  0  0  3  0  0  0  0  0  0
  -30.6210  -18.5850   19.1470 C   0  0  0  0  0  3  0  0  0  0  0  0
  -28.8320  -18.2900   20.6630 C   0  0  0  0  0  0  0  0  0  0  0  0
  -30.3510  -20.0300   19.0980 C   0  0  0  0  0  0  0  0  0  0  0  0
  -29.2730  -20.6730   19.8180 C   0  0  0  0  0  0  0  0  0  0  0  0
  -29.8600  -17.6260   19.9080 C   0  0  0  0  0  0  0  0  0  0  0  0
  -27.9630  -17.4560   21.5930 C   0  0  0  0  0  1  0  0  0  0  0  0
  -31.2250  -20.8860   18.2020 C   0  0  0  0  0  1  0  0  0  0  0  0
  -30.7230  -15.0130   19.4570 C   0  0  0  0  0  0  0  0  0  0  0  0
  -30.5030  -12.6890   18.4640 C   0  0  0  0  0  2  0  0  0  0  0  0
  -29.3930  -12.6860   17.3850 C   0  0  0  0  0  2  0  0  0  0  0  0
  -28.0080  -12.4550   18.0190 C   0  0  0  0  0  2  0  0  0  0  0  0
  -27.7810  -13.3400   19.2710 C   0  0  0  0  0  3  0  0  0  0  0  0
  -28.9900  -13.2960   20.2330 C   0  0  0  0  0  2  0  0  0  0  0  0
  -30.1700  -13.7350   19.4710 N   0  0  0  0  0  0  0  0  0  0  0  0
  -31.8300  -15.1610   18.9260 O   0  0  0  0  0  0  0  0  0  0  0  0
  -29.9390  -16.0900   19.9360 N   0  0  0  0  0  0  0  0  0  0  0  0
  -29.1490  -15.7010   20.4260 H   0  0  0  0  0  0  0  0  0  0  0  0
  -25.5630  -13.8960   20.4290 C   0  0  0  0  0  0  0  0  0  0  0  0
  -24.5470  -13.1130   20.8980 C   0  0  0  0  0  0  0  0  0  0  0  0
  -24.9500  -11.7620   20.6670 C   0  0  0  0  0  0  0  0  0  0  0  0
  -26.5260  -13.0260   19.9460 N   0  0  0  0  0  0  0  0  0  0  0  0
  -26.1730  -11.7280   20.1480 N   0  0  0  0  0  0  0  0  0  0  0  0
  -24.2170  -10.5040   20.8520 C   0  0  0  0  0  0  0  0  0  0  0  0
  -24.6490   -9.5250   21.7740 C   0  0  0  0  0  3  0  0  0  0  0  0
  -23.9140   -8.3320   21.9480 C   0  0  0  0  0  3  0  0  0  0  0  0
  -22.7340   -8.1100   21.2000 C   0  0  0  0  0  0  0  0  0  0  0  0
  -22.3210   -9.0770   20.2670 C   0  0  0  0  0  3  0  0  0  0  0  0
  -23.0560  -10.2600   20.0900 C   0  0  0  0  0  3  0  0  0  0  0  0
  -21.9710   -6.9710   21.2850 O   0  0  0  0  0  0  0  0  0  0  0  0
  -21.7520   -6.3380   22.4820 C   0  0  0  0  0  0  0  0  0  0  0  0
  -21.1220   -6.9890   23.5660 C   0  0  0  0  0  3  0  0  0  0  0  0
  -20.8540   -6.2810   24.7540 C   0  0  0  0  0  3  0  0  0  0  0  0
  -21.2060   -4.9230   24.8580 C   0  0  0  0  0  0  0  0  0  0  0  0
  -21.8290   -4.2700   23.7800 C   0  0  0  0  0  3  0  0  0  0  0  0
  -22.0980   -4.9760   22.5940 C   0  0  0  0  0  0  0  0  0  0  0  0
  -22.6780   -4.3380   21.5500 F   0  0  0  0  0  0  0  0  0  0  0  0
  -20.9420   -4.2400   25.9970 F   0  0  0  0  0  0  0  0  0  0  0  0
  -23.2290  -13.5920   21.4360 C   0  0  0  0  0  0  0  0  0  0  0  0
  -22.6320  -12.8400   22.3540 N   0  0  0  0  0  0  0  0  0  0  0  0
  -22.7460  -14.6640   21.0800 O   0  0  0  0  0  0  0  0  0  0  0  0
  -23.0390  -11.9710   22.6640 H   0  0  0  0  0  0  0  0  0  0  0  0
  -21.7550  -13.1410   22.7550 H   0  0  0  0  0  0  0  0  0  0  0  0
  -25.7380  -15.2750   20.3450 N   0  0  0  0  0  0  0  0  0  0  0  0
  -24.9960  -15.9170   20.6050 H   0  0  0  0  0  0  0  0  0  0  0  0
  -26.4930  -15.7260   19.8460 H   0  0  0  0  0  0  0  0  0  0  0  0
  -29.1680  -23.4520   19.7630 C   0  0  0  0  0  0  0  0  0  0  0  0
  -28.7250  -22.1050   19.6950 N   0  0  0  0  0  0  0  0  0  0  0  0
  -30.3490  -23.7040   20.0080 O   0  0  0  0  0  0  0  0  0  0  0  0
  -27.7190  -22.1000   19.5940 H   0  0  0  0  0  0  0  0  0  0  0  0
  -28.1340  -24.7250   19.5020 C   0  0  0  0  0  2  0  0  0  0  0  0
  -28.4420  -26.2210   19.8060 O   0  0  0  0  0  0  0  0  0  0  0  0
  -24.7340  -31.6590   23.1430 C   0  0  0  0  0  0  0  0  0  0  0  0
  -27.3710  -27.1930   19.8060 C   0  0  0  0  0  0  0  0  0  0  0  0
  -23.5420  -30.3400   21.4370 C   0  0  0  0  0  3  0  0  0  0  0  0
  -25.0050  -28.8860   19.9040 C   0  0  0  0  0  0  0  0  0  0  0  0
  -26.0880  -30.6700   21.2590 C   0  0  0  0  0  2  0  0  0  0  0  0
  -26.1830  -29.3200   20.5260 C   0  0  0  0  0  0  0  0  0  0  0  0
  -27.3660  -28.4910   20.4620 C   0  0  0  0  0  3  0  0  0  0  0  0
  -26.1620  -26.8680   19.1480 C   0  0  0  0  0  3  0  0  0  0  0  0
  -25.0060  -27.6740   19.2020 C   0  0  0  0  0  3  0  0  0  0  0  0
  -23.7600  -29.7500   20.0180 C   0  0  0  0  0  2  0  0  0  0  0  0
  -24.8090  -30.9080   22.0030 N   0  0  0  0  0  0  0  0  0  0  0  0
  -23.6490  -31.8890   23.6990 O   0  0  0  0  0  0  0  0  0  0  0  0
  -22.8950  -29.2620   22.3440 C   0  0  0  0  0  0  0  0  0  0  0  0
  -21.5740  -29.0550   22.2040 N   0  0  0  0  0  0  0  0  0  0  0  0
  -23.5860  -28.6180   23.1370 O   0  0  0  0  0  0  0  0  0  0  0  0
  -21.0710  -29.6320   21.5440 H   0  0  0  0  0  0  0  0  0  0  0  0
  -18.2290  -27.7340   22.6470 C   0  0  0  0  0  0  0  0  0  0  0  0
  -20.7810  -28.0540   22.9240 C   0  0  0  0  0  3  0  0  0  0  0  0
  -20.9210  -26.6580   22.2740 C   0  0  0  0  0  2  0  0  0  0  0  0
  -19.8260  -26.3580   21.2450 C   0  0  0  0  0  2  0  0  0  0  0  0
  -18.4420  -26.4290   21.8970 C   0  0  0  0  0  2  0  0  0  0  0  0
  -19.3260  -28.5050   23.1140 C   0  0  0  0  0  0  0  0  0  0  0  0
  -19.0720  -29.7260   23.7750 C   0  0  0  0  0  3  0  0  0  0  0  0
  -17.7520  -30.1770   23.9710 C   0  0  0  0  0  3  0  0  0  0  0  0
  -16.6700  -29.4030   23.5180 C   0  0  0  0  0  3  0  0  0  0  0  0
  -16.9090  -28.1830   22.8610 C   0  0  0  0  0  3  0  0  0  0  0  0
  -26.0070  -32.2820   23.7930 C   0  0  0  0  0  3  0  0  0  0  0  0
  -25.6850  -33.6650   24.1770 N   0  0  0  0  0  0  0  0  0  0  0  0
  -25.9580  -34.7470   23.4350 C   0  0  0  0  0  0  0  0  0  0  0  0
  -26.5770  -34.6880   22.3690 O   0  0  0  0  0  0  0  0  0  0  0  0
  -25.1320  -33.7850   25.0130 H   0  0  0  0  0  0  0  0  0  0  0  0
  -24.1580  -36.4960   23.2560 C   0  0  0  0  0  1  0  0  0  0  0  0
  -25.4700  -36.1130   23.9580 C   0  0  0  0  0  3  0  0  0  0  0  0
  -27.6290  -37.0570   24.6500 C   0  0  0  0  0  1  0  0  0  0  0  0
  -26.4600  -37.1990   23.7860 N   0  0  0  0  0  0  0  0  0  0  0  0
  -26.0370  -38.1040   23.9710 H   0  0  0  0  0  0  0  0  0  0  0  0
  -26.5250  -31.4710   25.0450 C   0  0  1  0  0  0  0  0  0  0  0  0
  -25.4280  -31.1770   26.0930 C   0  0  0  0  0  1  0  0  0  0  0  0
  -27.1330  -30.1170   24.6090 C   0  0  0  0  0  1  0  0  0  0  0  0
  -27.6560  -32.2580   25.7460 C   0  0  0  0  0  1  0  0  0  0  0  0
  1  3  1  0
  2  6  1  0
  3  7  1  0
  4  2  2  0
  4  5  1  0
  5  1  2  0
  6 17  1  0
  6  3  2  0
  8  4  1  0
  9 15  1  0
  9 17  1  0
 10 15  1  0
 11 12  1  0
 11 10  1  0
 13 12  1  0
 13 22  1  0
 13 14  1  0
 15 14  1  0
 16  9  2  0
 17 18  1  0
 19 20  2  0
 20 39  1  0
 21 24  1  0
 21 20  1  0
 22 23  1  0
 22 19  1  0
 23 21  2  0
 24 25  1  0
 25 26  2  0
 27 30  1  0
 27 26  1  0
 28 27  2  0
 29 28  1  0
 29 24  2  0
 30 31  1  0
 31 36  2  0
 31 32  1  0
 32 33  2  0
 33 34  1  0
 34 38  1  0
 35 34  2  0
 36 35  1  0
 37 36  1  0
 39 40  1  0
 40 42  1  0
 40 43  1  0
 41 39  2  0
 44 19  1  0
 44 45  1  0
 46 44  1  0
 47 49  2  0
 48 47  1  0
 48  5  1  0
 50 48  1  0
 51 47  1  0
 51 52  1  0
 52 54  1  0
 53 64  2  0
 54 59  1  0
 55 63  1  0
 55 65  1  0
 56 62  1  0
 56 58  1  0
 57 63  1  0
 58 57  1  0
 59 58  2  0
 60 61  1  0
 60 54  2  0
 61 56  2  0
 62 55  1  0
 63 53  1  0
 65 67  2  0
 66 65  1  0
 68 66  1  0
 69 78  2  0
 69 74  1  0
 70 66  1  0
 70 74  1  0
 71 70  1  0
 72 73  1  0
 72 71  1  0
 73 69  1  0
 74 75  2  0
 75 76  1  0
 77 76  2  0
 78 77  1  0
 79 53  1  0
 79 80  1  0
 79 89  1  0
 80 83  1  0
 81 85  1  0
 81 80  1  0
 82 81  2  0
 85 84  1  0
 87 85  1  0
 87 88  1  0
 87 86  1  0
 89 92  1  1
 89 90  1  0
 91 89  1  0
M  ISO  4   9 100  17 100  51 101  52 101
M  END
>  <TORSDO>  (7) 
F 18

>  <SCORE>  (7) 
-10.836

>  <name>  (7) 
6

>  <ligand_id>  (7) 
6

>  <original_smiles>  (7) 
[H]c1c([H])c([H])c2c(c1[H])C([H])([H])C([H])([H])C([H])([H])C2([H])N([H])C(=O)C1([H])N(C(=O)C([H])(N([H])C(=O)C([H])(N([H])C([H])([H])[H])C([H])([H])[H])C(C([H])([H])[H])(C([H])([H])[H])C([H])([H])[H])C([H])([H])c2c([H])c(OC([H])([H])C(=O)N([H])c3c([H])c(C([H])([H])[H])c(N([H])C(=O)N4C([H])([H])C([H])([H])C([H])([H])C([H])(n5nc(-c6c([H])c([H])c(Oc7c([H])c([H])c(F)c([H])c7F)c([H])c6[H])c(C(=O)N([H])[H])c5N([H])[H])C4([H])[H])c([H])c3C([H])([H])[H])c([H])c([H])c2C1([H])[H]

>  <smiles>  (7) 
[H]c1c([H])c([H])c2c(c1[H])C([H])([H])C([H])([H])C([H])([H])C2([H])N([H])C(=O)C1([H])N(C(=O)C([H])(N([H])C(=O)C([H])(N([H])C([H])([H])[H])C([H])([H])[H])C(C([H])([H])[H])(C([H])([H])[H])C([H])([H])[H])C([H])([H])c2c([H])c(OC([H])([H])C(=O)N([H])c3c([H])c(C([H])([H])[H])c(N([H])C(=O)N4C([H])([H])C([H])([H])C([H])([H])C([H])(n5nc(-c6c([H])c([H])c(Oc7c([H])c([H])c(F)c([H])c7F)c([H])c6[H])c(C(=O)N([H])[H])c5N([H])[H])C4([H])[H])c([H])c3C([H])([H])[H])c([H])c([H])c2C1([H])[H]

$$$$
7:0:0
     RDKit          3D

 89 96  0  0  1  0  0  0  0  0999 V2000
  -28.6140  -21.5720   19.7180 C   0  0  0  0  0  3  0  0  0  0  0  0
  -30.1170  -21.8800   21.7780 C   0  0  0  0  0  3  0  0  0  0  0  0
  -29.3340  -20.0320   20.1750 C   0  0  0  0  0  3  0  0  0  0  0  0
  -29.4710  -23.1060   21.3300 C   0  0  0  0  0  0  0  0  0  0  0  0
  -28.5720  -23.2590   20.2150 C   0  0  0  0  0  0  0  0  0  0  0  0
  -30.0830  -20.5140   21.2850 C   0  0  0  0  0  0  0  0  0  0  0  0
  -30.8170  -19.6000   21.9660 F   0  0  0  0  0  0  0  0  0  0  0  0
  -30.1670  -16.5500   20.1030 C   0  0  0  0  0  0  0  0  0  0  0  0
  -30.4640  -13.8090   19.4170 C   0  0  0  0  0  2  0  0  0  0  0  0
  -29.6750  -13.0110   18.3110 C   0  0  0  0  0  2  0  0  0  0  0  0
  -28.3100  -12.5270   18.8100 C   0  0  0  0  0  2  0  0  0  0  0  0
  -27.6860  -13.6090   19.7050 C   0  0  0  0  0  3  0  0  0  0  0  0
  -28.6550  -14.2610   20.7430 C   0  0  0  0  0  2  0  0  0  0  0  0
  -29.7050  -15.0700   20.0060 N   0  0  0  0  0  0  0  0  0  0  0  0
  -31.4160  -16.3470   20.1120 O   0  0  0  0  0  0  0  0  0  0  0  0
  -29.4400  -18.1050   19.9290 N   0  0  0  0  0  2  0  0  0  0  0  0
  -28.5370  -17.8430   19.5620 H   0  0  0  0  0  0  0  0  0  0  0  0
  -25.3480  -14.1180   20.5070 C   0  0  0  0  0  0  0  0  0  0  0  0
  -24.2790  -13.3470   20.8620 C   0  0  0  0  0  0  0  0  0  0  0  0
  -24.7310  -11.9920   20.8060 C   0  0  0  0  0  0  0  0  0  0  0  0
  -26.3830  -13.2440   20.2500 N   0  0  0  0  0  0  0  0  0  0  0  0
  -26.0260  -11.9500   20.4880 N   0  0  0  0  0  0  0  0  0  0  0  0
  -23.9760  -10.7400   20.9800 C   0  0  0  0  0  0  0  0  0  0  0  0
  -24.3720   -9.7570   21.9140 C   0  0  0  0  0  3  0  0  0  0  0  0
  -23.6100   -8.5790   22.0810 C   0  0  0  0  0  3  0  0  0  0  0  0
  -22.4380   -8.3740   21.3140 C   0  0  0  0  0  0  0  0  0  0  0  0
  -22.0600   -9.3440   20.3700 C   0  0  0  0  0  3  0  0  0  0  0  0
  -22.8220  -10.5140   20.2010 C   0  0  0  0  0  3  0  0  0  0  0  0
  -21.6520   -7.2480   21.3900 O   0  0  0  0  0  0  0  0  0  0  0  0
  -21.5570   -6.5120   22.5440 C   0  0  0  0  0  0  0  0  0  0  0  0
  -21.0890   -7.0750   23.7500 C   0  0  0  0  0  3  0  0  0  0  0  0
  -20.9420   -6.2640   24.8950 C   0  0  0  0  0  3  0  0  0  0  0  0
  -21.2540   -4.8920   24.8320 C   0  0  0  0  0  0  0  0  0  0  0  0
  -21.7150   -4.3290   23.6290 C   0  0  0  0  0  3  0  0  0  0  0  0
  -21.8640   -5.1370   22.4870 C   0  0  0  0  0  0  0  0  0  0  0  0
  -22.2880   -4.5840   21.3260 F   0  0  0  0  0  0  0  0  0  0  0  0
  -21.1070   -4.1120   25.9280 F   0  0  0  0  0  0  0  0  0  0  0  0
  -22.8910  -13.8450   21.1310 C   0  0  0  0  0  0  0  0  0  0  0  0
  -22.1550  -13.1670   22.0040 N   0  0  0  0  0  0  0  0  0  0  0  0
  -22.4710  -14.8760   20.6060 O   0  0  0  0  0  0  0  0  0  0  0  0
  -22.5090  -12.3340   22.4490 H   0  0  0  0  0  0  0  0  0  0  0  0
  -21.2240  -13.4870   22.2310 H   0  0  0  0  0  0  0  0  0  0  0  0
  -25.5250  -15.4890   20.3450 N   0  0  0  0  0  0  0  0  0  0  0  0
  -24.7700  -16.1540   20.4740 H   0  0  0  0  0  0  0  0  0  0  0  0
  -26.3820  -15.9180   20.0230 H   0  0  0  0  0  0  0  0  0  0  0  0
  -28.7750  -24.7580   22.9390 C   0  0  0  0  0  1  0  0  0  0  0  0
  -30.7040  -25.1980   21.3830 C   0  0  0  0  0  1  0  0  0  0  0  0
  -29.8300  -24.2490   22.0690 N   0  0  0  0  0  0  0  0  0  0  0  0
  -28.1940  -24.9780   19.8420 O   0  0  0  0  0  0  0  0  0  0  0  0
  -24.5480  -31.7370   23.0130 C   0  0  0  0  0  0  0  0  0  0  0  0
  -27.2130  -26.3540   20.0180 C   0  0  0  0  0  0  0  0  0  0  0  0
  -23.4130  -30.2960   21.3870 C   0  0  0  0  0  3  0  0  0  0  0  0
  -24.9090  -28.6090   19.9910 C   0  0  0  0  0  0  0  0  0  0  0  0
  -26.0080  -30.3880   21.2980 C   0  0  0  0  0  2  0  0  0  0  0  0
  -26.1110  -28.9080   20.6410 C   0  0  0  0  0  0  0  0  0  0  0  0
  -27.2230  -27.8270   20.6080 C   0  0  0  0  0  3  0  0  0  0  0  0
  -25.9600  -26.3960   19.3070 C   0  0  0  0  0  3  0  0  0  0  0  0
  -24.8990  -27.3830   19.2980 C   0  0  0  0  0  3  0  0  0  0  0  0
  -23.6900  -29.5750   20.0290 C   0  0  0  0  0  2  0  0  0  0  0  0
  -24.6860  -30.8520   21.9500 N   0  0  0  0  0  0  0  0  0  0  0  0
  -23.4380  -32.0160   23.5080 O   0  0  0  0  0  0  0  0  0  0  0  0
  -22.6940  -29.3290   22.3710 C   0  0  0  0  0  0  0  0  0  0  0  0
  -21.3630  -29.1460   22.2500 N   0  0  0  0  0  0  0  0  0  0  0  0
  -23.3550  -28.7340   23.2240 O   0  0  0  0  0  0  0  0  0  0  0  0
  -20.8700  -29.6730   21.5440 H   0  0  0  0  0  0  0  0  0  0  0  0
  -18.0200  -27.7860   22.7760 C   0  0  0  0  0  0  0  0  0  0  0  0
  -20.5670  -28.1810   23.0270 C   0  0  0  0  0  3  0  0  0  0  0  0
  -20.7310  -26.7490   22.4650 C   0  0  0  0  0  2  0  0  0  0  0  0
  -19.6460  -26.3730   21.4500 C   0  0  0  0  0  2  0  0  0  0  0  0
  -18.2600  -26.4500   22.0950 C   0  0  0  0  0  2  0  0  0  0  0  0
  -19.1020  -28.6060   23.1980 C   0  0  0  0  0  0  0  0  0  0  0  0
  -18.8170  -29.8490   23.8060 C   0  0  0  0  0  3  0  0  0  0  0  0
  -17.4870  -30.2760   23.9860 C   0  0  0  0  0  3  0  0  0  0  0  0
  -16.4230  -29.4560   23.5750 C   0  0  0  0  0  3  0  0  0  0  0  0
  -16.6890  -28.2110   22.9760 C   0  0  0  0  0  3  0  0  0  0  0  0
  -25.7700  -32.4530   23.6670 C   0  0  0  0  0  3  0  0  0  0  0  0
  -25.3780  -33.8380   24.0280 N   0  0  0  0  0  0  0  0  0  0  0  0
  -25.6720  -34.9430   23.3260 C   0  0  0  0  0  0  0  0  0  0  0  0
  -26.3460  -34.9080   22.2950 O   0  0  0  0  0  0  0  0  0  0  0  0
  -24.7740  -33.9330   24.8310 H   0  0  0  0  0  0  0  0  0  0  0  0
  -23.8770  -36.6990   23.0610 C   0  0  0  0  0  1  0  0  0  0  0  0
  -25.1390  -36.3000   23.8430 C   0  0  0  0  0  3  0  0  0  0  0  0
  -27.2430  -37.2440   24.6980 C   0  0  0  0  0  1  0  0  0  0  0  0
  -26.1320  -37.3960   23.7630 N   0  0  0  0  0  0  0  0  0  0  0  0
  -25.6920  -38.2950   23.9380 H   0  0  0  0  0  0  0  0  0  0  0  0
  -26.2970  -31.7110   24.9580 C   0  0  1  0  0  0  0  0  0  0  0  0
  -25.2030  -31.4410   26.0190 C   0  0  0  0  0  1  0  0  0  0  0  0
  -26.9350  -30.3500   24.6030 C   0  0  0  0  0  1  0  0  0  0  0  0
  -27.4140  -32.5490   25.6270 C   0  0  0  0  0  1  0  0  0  0  0  0
  1  3  2  0
  1  5  1  0
  3  6  1  0
  4  2  1  0
  4 48  1  0
  5  4  2  0
  6  2  2  0
  6  7  1  0
  8 15  2  0
  9 14  1  0
 10 11  1  0
 10  9  1  0
 12 11  1  0
 12 21  1  0
 12 13  1  0
 14  8  1  0
 14 13  1  0
 16  8  1  0
 17 16  1  0
 18 19  2  0
 19 38  1  0
 20 19  1  0
 20 23  1  0
 21 22  1  0
 21 18  1  0
 22 20  2  0
 23 24  1  0
 24 25  2  0
 26 29  1  0
 26 25  1  0
 27 26  2  0
 28 27  1  0
 28 23  2  0
 29 30  1  0
 30 31  1  0
 31 32  2  0
 33 32  1  0
 33 37  1  0
 34 33  2  0
 35 30  2  0
 35 34  1  0
 36 35  1  0
 38 39  1  0
 39 42  1  0
 39 41  1  0
 40 38  2  0
 43 44  1  0
 43 18  1  0
 45 43  1  0
 47 48  1  0
 48 46  1  0
 49 51  1  0
 49  5  1  0
 50 61  2  0
 51 56  1  0
 52 60  1  0
 52 62  1  0
 53 59  1  0
 53 55  1  0
 54 60  1  0
 55 54  1  0
 56 55  2  0
 57 51  2  0
 58 57  1  0
 58 53  2  0
 59 52  1  0
 60 50  1  0
 62 64  2  0
 63 62  1  0
 65 63  1  0
 66 75  2  0
 66 71  1  0
 67 63  1  0
 67 71  1  0
 68 67  1  0
 69 70  1  0
 69 68  1  0
 70 66  1  0
 71 72  2  0
 72 73  1  0
 74 73  2  0
 75 74  1  0
 76 50  1  0
 76 77  1  0
 76 86  1  0
 77 80  1  0
 78 82  1  0
 78 77  1  0
 79 78  2  0
 82 81  1  0
 84 82  1  0
 84 85  1  0
 84 83  1  0
 86 89  1  1
 86 87  1  0
 88 86  1  0
M  ISO  4   5 101   8 100  16 100  49 101
M  END
>  <TORSDO>  (8) 
F 17

>  <SCORE>  (8) 
-16.117

>  <name>  (8) 
7

>  <ligand_id>  (8) 
7

>  <original_smiles>  (8) 
[H]c1c([H])c([H])c2c(c1[H])C([H])([H])C([H])([H])C([H])([H])C2([H])N([H])C(=O)C1([H])N(C(=O)C([H])(N([H])C(=O)C([H])(N([H])C([H])([H])[H])C([H])([H])[H])C(C([H])([H])[H])(C([H])([H])[H])C([H])([H])[H])C([H])([H])c2c([H])c(Oc3c([H])c(N([H])C(=O)N4C([H])([H])C([H])([H])C([H])([H])C([H])(n5nc(-c6c([H])c([H])c(Oc7c([H])c([H])c(F)c([H])c7F)c([H])c6[H])c(C(=O)N([H])[H])c5N([H])[H])C4([H])[H])c(F)c([H])c3N(C([H])([H])[H])C([H])([H])[H])c([H])c([H])c2C1([H])[H]

>  <smiles>  (8) 
[H]c1c([H])c([H])c2c(c1[H])C([H])([H])C([H])([H])C([H])([H])C2([H])N([H])C(=O)C1([H])N(C(=O)C([H])(N([H])C(=O)C([H])(N([H])C([H])([H])[H])C([H])([H])[H])C(C([H])([H])[H])(C([H])([H])[H])C([H])([H])[H])C([H])([H])c2c([H])c(Oc3c([H])c(N([H])C(=O)N4C([H])([H])C([H])([H])C([H])([H])C([H])(n5nc(-c6c([H])c([H])c(Oc7c([H])c([H])c(F)c([H])c7F)c([H])c6[H])c(C(=O)N([H])[H])c5N([H])[H])C4([H])[H])c(F)c([H])c3N(C([H])([H])[H])C([H])([H])[H])c([H])c([H])c2C1([H])[H]

$$$$
8:0:0
     RDKit          3D

 92100  0  0  1  0  0  0  0  0999 V2000
  -30.5550  -19.8470   19.4090 C   0  0  0  0  0  3  0  0  0  0  0  0
  -30.7100  -18.4150   19.6150 C   0  0  0  0  0  3  0  0  0  0  0  0
  -28.3210  -19.7570   20.1280 C   0  0  0  0  0  3  0  0  0  0  0  0
  -29.3570  -20.6260   19.6390 C   0  0  0  0  0  0  0  0  0  0  0  0
  -29.6610  -17.5530   20.0650 C   0  0  0  0  0  0  0  0  0  0  0  0
  -28.4510  -18.3040   20.3080 C   0  0  0  0  0  0  0  0  0  0  0  0
  -30.4840  -14.9130   19.8720 C   0  0  0  0  0  0  0  0  0  0  0  0
  -30.3460  -12.5640   18.9290 C   0  0  0  0  0  2  0  0  0  0  0  0
  -29.3300  -12.5440   17.7620 C   0  0  0  0  0  2  0  0  0  0  0  0
  -27.8940  -12.3260   18.2780 C   0  0  0  0  0  2  0  0  0  0  0  0
  -27.5660  -13.2250   19.5000 C   0  0  0  0  0  3  0  0  0  0  0  0
  -28.6950  -13.2060   20.5550 C   0  0  0  0  0  2  0  0  0  0  0  0
  -29.9290  -13.6330   19.8810 N   0  0  0  0  0  0  0  0  0  0  0  0
  -31.6370  -15.0350   19.4470 O   0  0  0  0  0  0  0  0  0  0  0  0
  -29.6720  -16.0240   20.2130 N   0  0  0  0  0  0  0  0  0  0  0  0
  -28.8240  -15.7030   20.6540 H   0  0  0  0  0  0  0  0  0  0  0  0
  -25.2470  -13.7830   20.4300 C   0  0  0  0  0  0  0  0  0  0  0  0
  -24.2050  -13.0000   20.8460 C   0  0  0  0  0  0  0  0  0  0  0  0
  -24.6550  -11.6490   20.7260 C   0  0  0  0  0  0  0  0  0  0  0  0
  -26.2630  -12.9120   20.0780 N   0  0  0  0  0  0  0  0  0  0  0  0
  -25.9200  -11.6200   20.3200 N   0  0  0  0  0  0  0  0  0  0  0  0
  -23.9330  -10.3840   20.9160 C   0  0  0  0  0  0  0  0  0  0  0  0
  -24.3510   -9.4310   21.8720 C   0  0  0  0  0  3  0  0  0  0  0  0
  -23.6290   -8.2300   22.0500 C   0  0  0  0  0  3  0  0  0  0  0  0
  -22.4750   -7.9750   21.2730 C   0  0  0  0  0  0  0  0  0  0  0  0
  -22.0760   -8.9150   20.3070 C   0  0  0  0  0  3  0  0  0  0  0  0
  -22.7990  -10.1060   20.1270 C   0  0  0  0  0  3  0  0  0  0  0  0
  -21.7260   -6.8260   21.3610 O   0  0  0  0  0  0  0  0  0  0  0  0
  -21.5790   -6.1500   22.5460 C   0  0  0  0  0  0  0  0  0  0  0  0
  -21.0190   -6.7620   23.6890 C   0  0  0  0  0  3  0  0  0  0  0  0
  -20.8250   -6.0110   24.8650 C   0  0  0  0  0  3  0  0  0  0  0  0
  -21.1780   -4.6480   24.8980 C   0  0  0  0  0  0  0  0  0  0  0  0
  -21.7270   -4.0350   23.7590 C   0  0  0  0  0  3  0  0  0  0  0  0
  -21.9260   -4.7850   22.5860 C   0  0  0  0  0  0  0  0  0  0  0  0
  -22.4380   -4.1830   21.4850 F   0  0  0  0  0  0  0  0  0  0  0  0
  -20.9820   -3.9250   26.0250 F   0  0  0  0  0  0  0  0  0  0  0  0
  -22.8350  -13.4710   21.2380 C   0  0  0  0  0  0  0  0  0  0  0  0
  -22.1780  -12.7610   22.1480 N   0  0  0  0  0  0  0  0  0  0  0  0
  -22.3610  -14.5050   20.7720 O   0  0  0  0  0  0  0  0  0  0  0  0
  -22.5750  -11.9220   22.5440 H   0  0  0  0  0  0  0  0  0  0  0  0
  -21.2600  -13.0580   22.4510 H   0  0  0  0  0  0  0  0  0  0  0  0
  -25.4050  -15.1600   20.2940 N   0  0  0  0  0  0  0  0  0  0  0  0
  -24.6490  -15.8080   20.4800 H   0  0  0  0  0  0  0  0  0  0  0  0
  -26.2180  -15.6030   19.8870 H   0  0  0  0  0  0  0  0  0  0  0  0
  -28.6350  -23.2590   19.8960 C   0  0  0  0  0  0  0  0  0  0  0  0
  -30.0340  -22.4810   18.0740 C   0  0  0  0  0  1  0  0  0  0  0  0
  -29.2300  -22.1270   19.2530 N   0  0  0  0  0  0  0  0  0  0  0  0
  -28.4790  -23.2180   21.1210 O   0  0  0  0  0  0  0  0  0  0  0  0
  -28.0290  -24.6160   19.1330 C   0  0  0  0  0  2  0  0  0  0  0  0
  -28.3000  -26.1060   19.5060 O   0  0  0  0  0  0  0  0  0  0  0  0
  -24.6420  -31.5540   22.8490 C   0  0  0  0  0  0  0  0  0  0  0  0
  -27.2380  -27.0910   19.4810 C   0  0  0  0  0  0  0  0  0  0  0  0
  -23.4300  -30.2410   21.1530 C   0  0  0  0  0  3  0  0  0  0  0  0
  -24.8760  -28.7920   19.5990 C   0  0  0  0  0  0  0  0  0  0  0  0
  -25.9750  -30.5680   20.9510 C   0  0  0  0  0  2  0  0  0  0  0  0
  -26.0610  -29.2210   20.2120 C   0  0  0  0  0  0  0  0  0  0  0  0
  -27.2380  -28.3850   20.1440 C   0  0  0  0  0  3  0  0  0  0  0  0
  -26.0300  -26.7830   18.8130 C   0  0  0  0  0  3  0  0  0  0  0  0
  -24.8730  -27.5870   18.8840 C   0  0  0  0  0  3  0  0  0  0  0  0
  -23.6330  -29.6570   19.7290 C   0  0  0  0  0  2  0  0  0  0  0  0
  -24.7030  -30.8060   21.7060 N   0  0  0  0  0  0  0  0  0  0  0  0
  -23.5640  -31.7830   23.4180 O   0  0  0  0  0  0  0  0  0  0  0  0
  -22.7920  -29.1600   22.0630 C   0  0  0  0  0  0  0  0  0  0  0  0
  -21.4560  -29.0110   21.9970 N   0  0  0  0  0  0  0  0  0  0  0  0
  -23.5000  -28.4610   22.7930 O   0  0  0  0  0  0  0  0  0  0  0  0
  -20.9400  -29.6260   21.3820 H   0  0  0  0  0  0  0  0  0  0  0  0
  -18.0880  -27.8370   22.6290 C   0  0  0  0  0  0  0  0  0  0  0  0
  -20.6660  -28.0220   22.7350 C   0  0  0  0  0  3  0  0  0  0  0  0
  -20.6890  -26.6480   22.0250 C   0  0  0  0  0  2  0  0  0  0  0  0
  -19.5110  -26.4450   21.0670 C   0  0  0  0  0  2  0  0  0  0  0  0
  -18.1820  -26.5550   21.8190 C   0  0  0  0  0  2  0  0  0  0  0  0
  -19.2540  -28.5320   23.0470 C   0  0  0  0  0  0  0  0  0  0  0  0
  -19.1090  -29.7360   23.7710 C   0  0  0  0  0  3  0  0  0  0  0  0
  -17.8310  -30.2410   24.0790 C   0  0  0  0  0  3  0  0  0  0  0  0
  -16.6810  -29.5400   23.6750 C   0  0  0  0  0  3  0  0  0  0  0  0
  -16.8120  -28.3400   22.9570 C   0  0  0  0  0  3  0  0  0  0  0  0
  -25.9220  -32.1740   23.4850 C   0  0  0  0  0  3  0  0  0  0  0  0
  -26.5120  -31.3040   24.6630 C   0  0  1  0  0  0  0  0  0  0  0  0
  -25.4730  -30.9420   25.7490 C   0  0  0  0  0  1  0  0  0  0  0  0
  -27.1070  -29.9810   24.1270 C   0  0  0  0  0  1  0  0  0  0  0  0
  -27.6770  -32.0640   25.3410 C   0  0  0  0  0  1  0  0  0  0  0  0
  -25.5780  -33.5230   23.9650 N   0  0  0  0  0  0  0  0  0  0  0  0
  -25.8790  -34.6610   23.3240 C   0  0  0  0  0  0  0  0  0  0  0  0
  -26.5440  -34.6850   22.2860 O   0  0  0  0  0  0  0  0  0  0  0  0
  -24.9840  -33.5730   24.7790 H   0  0  0  0  0  0  0  0  0  0  0  0
  -24.1100  -36.4420   23.1720 C   0  0  0  0  0  1  0  0  0  0  0  0
  -25.3630  -35.9800   23.9330 C   0  0  0  0  0  3  0  0  0  0  0  0
  -27.4750  -36.8220   24.8600 C   0  0  0  0  0  1  0  0  0  0  0  0
  -26.3710  -37.0630   23.9340 N   0  0  0  0  0  0  0  0  0  0  0  0
  -25.9450  -37.9530   24.1760 H   0  0  0  0  0  0  0  0  0  0  0  0
  -26.0750  -17.9390   20.4040 C   0  0  0  0  0  1  0  0  0  0  0  0
  -27.3940  -17.5140   20.7110 O   0  0  0  0  0  0  0  0  0  0  0  0
  1  2  2  0
  1  4  1  0
  2  5  1  0
  3  6  1  0
  4  3  2  0
  5 15  1  0
  5  6  2  0
  6 92  1  0
  7 13  1  0
  7 15  1  0
  8 13  1  0
  9 10  1  0
  9  8  1  0
 11 10  1  0
 11 20  1  0
 11 12  1  0
 13 12  1  0
 14  7  2  0
 15 16  1  0
 17 18  2  0
 18 37  1  0
 19 18  1  0
 19 22  1  0
 20 21  1  0
 20 17  1  0
 21 19  2  0
 22 23  1  0
 23 24  2  0
 25 28  1  0
 25 24  1  0
 26 25  2  0
 27 26  1  0
 27 22  2  0
 28 29  1  0
 29 34  2  0
 29 30  1  0
 30 31  2  0
 31 32  1  0
 32 36  1  0
 33 32  2  0
 34 33  1  0
 35 34  1  0
 37 38  1  0
 38 41  1  0
 38 40  1  0
 39 37  2  0
 42 17  1  0
 42 43  1  0
 44 42  1  0
 45 48  2  0
 46 47  1  0
 47  4  1  0
 47 45  1  0
 49 50  1  0
 49 45  1  0
 51 62  2  0
 52 50  1  0
 52 57  1  0
 53 61  1  0
 53 63  1  0
 54 60  1  0
 54 56  1  0
 55 61  1  0
 56 55  1  0
 57 56  2  0
 58 59  1  0
 58 52  2  0
 59 54  2  0
 60 53  1  0
 61 51  1  0
 63 65  2  0
 64 63  1  0
 66 64  1  0
 67 76  2  0
 67 72  1  0
 68 64  1  0
 68 72  1  0
 69 68  1  0
 70 71  1  0
 70 69  1  0
 71 67  1  0
 72 73  2  0
 73 74  1  0
 75 74  2  0
 76 75  1  0
 77 51  1  0
 77 82  1  0
 77 78  1  0
 78 81  1  1
 78 79  1  0
 80 78  1  0
 82 85  1  0
 83 87  1  0
 83 82  1  0
 84 83  2  0
 87 86  1  0
 87 89  1  0
 89 90  1  0
 89 88  1  0
 91 92  1  0
M  ISO  4   7 100  15 100  49 101  50 101
M  END
>  <TORSDO>  (9) 
F 19

>  <SCORE>  (9) 
-12.906

>  <name>  (9) 
8

>  <ligand_id>  (9) 
8

>  <original_smiles>  (9) 
[H]c1c([H])c([H])c2c(c1[H])C([H])([H])C([H])([H])C([H])([H])C2([H])N([H])C(=O)C1([H])N(C(=O)C([H])(N([H])C(=O)C([H])(N([H])C([H])([H])[H])C([H])([H])[H])C(C([H])([H])[H])(C([H])([H])[H])C([H])([H])[H])C([H])([H])c2c([H])c(OC([H])([H])C(=O)N(c3c([H])c([H])c(N([H])C(=O)N4C([H])([H])C([H])([H])C([H])([H])C([H])(n5nc(-c6c([H])c([H])c(Oc7c([H])c([H])c(F)c([H])c7F)c([H])c6[H])c(C(=O)N([H])[H])c5N([H])[H])C4([H])[H])c(OC([H])([H])[H])c3[H])C([H])([H])[H])c([H])c([H])c2C1([H])[H]

>  <smiles>  (9) 
[H]c1c([H])c([H])c2c(c1[H])C([H])([H])C([H])([H])C([H])([H])C2([H])N([H])C(=O)C1([H])N(C(=O)C([H])(N([H])C(=O)C([H])(N([H])C([H])([H])[H])C([H])([H])[H])C(C([H])([H])[H])(C([H])([H])[H])C([H])([H])[H])C([H])([H])c2c([H])c(OC([H])([H])C(=O)N(c3c([H])c([H])c(N([H])C(=O)N4C([H])([H])C([H])([H])C([H])([H])C([H])(n5nc(-c6c([H])c([H])c(Oc7c([H])c([H])c(F)c([H])c7F)c([H])c6[H])c(C(=O)N([H])[H])c5N([H])[H])C4([H])[H])c(OC([H])([H])[H])c3[H])C([H])([H])[H])c([H])c([H])c2C1([H])[H]

$$$$
9:0:0
     RDKit          3D

 93100  0  0  1  0  0  0  0  0999 V2000
  -28.1430  -21.6350   20.0390 C   0  0  0  0  0  2  0  0  0  0  0  0
  -28.3900  -24.1390   20.1300 C   0  0  0  0  0  0  0  0  0  0  0  0
  -27.7100  -22.9040   22.1550 C   0  0  0  0  0  1  0  0  0  0  0  0
  -28.1680  -22.9420   20.7600 N   0  0  0  0  0  0  0  0  0  0  0  0
  -28.6230  -24.2040   18.9180 O   0  0  0  0  0  0  0  0  0  0  0  0
  -28.3700  -25.4650   20.9510 C   0  0  0  0  0  2  0  0  0  0  0  0
  -28.4590  -26.6590   20.1330 O   0  0  0  0  0  0  0  0  0  0  0  0
  -24.6740  -31.8790   23.1920 C   0  0  0  0  0  0  0  0  0  0  0  0
  -27.3120  -27.4250   20.1190 C   0  0  0  0  0  0  0  0  0  0  0  0
  -23.4630  -30.4620   21.5660 C   0  0  0  0  0  3  0  0  0  0  0  0
  -24.9140  -28.9250   20.1340 C   0  0  0  0  0  0  0  0  0  0  0  0
  -25.9850  -30.8340   21.3430 C   0  0  0  0  0  2  0  0  0  0  0  0
  -26.0760  -29.4590   20.7080 C   0  0  0  0  0  0  0  0  0  0  0  0
  -27.2810  -28.7190   20.6930 C   0  0  0  0  0  3  0  0  0  0  0  0
  -26.1370  -26.9060   19.5380 C   0  0  0  0  0  3  0  0  0  0  0  0
  -24.9410  -27.6480   19.5450 C   0  0  0  0  0  3  0  0  0  0  0  0
  -23.6650  -29.7750   20.1880 C   0  0  0  0  0  2  0  0  0  0  0  0
  -24.7260  -31.0730   22.0920 N   0  0  0  0  0  0  0  0  0  0  0  0
  -23.5960  -32.1470   23.7400 O   0  0  0  0  0  0  0  0  0  0  0  0
  -22.8250  -29.4430   22.5370 C   0  0  0  0  0  0  0  0  0  0  0  0
  -21.4990  -29.2560   22.4240 N   0  0  0  0  0  0  0  0  0  0  0  0
  -23.5180  -28.8220   23.3470 O   0  0  0  0  0  0  0  0  0  0  0  0
  -21.0000  -29.8100   21.7420 H   0  0  0  0  0  0  0  0  0  0  0  0
  -18.1340  -28.0520   22.9590 C   0  0  0  0  0  0  0  0  0  0  0  0
  -20.6930  -28.3190   23.2050 C   0  0  0  0  0  3  0  0  0  0  0  0
  -20.7950  -26.8860   22.6330 C   0  0  0  0  0  2  0  0  0  0  0  0
  -19.6850  -26.5560   21.6300 C   0  0  0  0  0  2  0  0  0  0  0  0
  -18.3090  -26.7010   22.2860 C   0  0  0  0  0  2  0  0  0  0  0  0
  -19.2540  -28.8190   23.3760 C   0  0  0  0  0  0  0  0  0  0  0  0
  -19.0380  -30.0840   23.9630 C   0  0  0  0  0  3  0  0  0  0  0  0
  -17.7330  -30.5830   24.1390 C   0  0  0  0  0  3  0  0  0  0  0  0
  -16.6270  -29.8130   23.7380 C   0  0  0  0  0  3  0  0  0  0  0  0
  -16.8290  -28.5490   23.1540 C   0  0  0  0  0  3  0  0  0  0  0  0
  -25.9620  -32.5200   23.7980 C   0  0  0  0  0  3  0  0  0  0  0  0
  -25.6430  -33.9120   24.1430 N   0  0  0  0  0  0  0  0  0  0  0  0
  -25.9560  -34.9730   23.3890 C   0  0  0  0  0  0  0  0  0  0  0  0
  -26.6140  -34.8850   22.3480 O   0  0  0  0  0  0  0  0  0  0  0  0
  -25.0590  -34.0530   24.9540 H   0  0  0  0  0  0  0  0  0  0  0  0
  -24.2100  -36.7530   23.0600 C   0  0  0  0  0  1  0  0  0  0  0  0
  -25.4580  -36.3520   23.8620 C   0  0  0  0  0  3  0  0  0  0  0  0
  -27.5900  -37.2460   24.6890 C   0  0  0  0  0  1  0  0  0  0  0  0
  -26.4800  -37.4160   23.7560 N   0  0  0  0  0  0  0  0  0  0  0  0
  -26.0680  -38.3300   23.9170 H   0  0  0  0  0  0  0  0  0  0  0  0
  -26.5100  -31.7430   25.0570 C   0  0  1  0  0  0  0  0  0  0  0  0
  -25.4380  -31.4780   26.1400 C   0  0  0  0  0  1  0  0  0  0  0  0
  -27.1070  -30.3790   24.6390 C   0  0  0  0  0  1  0  0  0  0  0  0
  -27.6590  -32.5470   25.7090 C   0  0  0  0  0  1  0  0  0  0  0  0
  -28.8870  -20.4310   20.7120 C   0  0  0  0  0  2  0  0  0  0  0  0
  -28.9340  -19.1590   19.8190 C   0  0  0  0  0  2  0  0  0  0  0  0
  -29.8640  -16.9220   19.8630 C   0  0  0  0  0  0  0  0  0  0  0  0
  -29.6640  -16.8160   18.3440 C   0  0  0  0  0  1  0  0  0  0  0  0
  -29.5110  -17.9910   20.5080 N   0  0  0  0  0  0  0  0  0  0  0  0
  -30.5400  -15.7420   20.5650 C   0  0  0  0  0  0  0  0  0  0  0  0
  -30.7620  -15.7150   21.9130 C   0  0  0  0  0  0  0  0  0  0  0  0
  -31.4860  -14.6350   22.7120 C   0  0  0  0  0  1  0  0  0  0  0  0
  -31.0290  -14.6050   19.7530 C   0  0  0  0  0  0  0  0  0  0  0  0
  -30.4590  -12.5280   18.5360 C   0  0  0  0  0  2  0  0  0  0  0  0
  -29.4300  -12.8300   17.4260 C   0  0  0  0  0  2  0  0  0  0  0  0
  -27.9950  -12.7520   17.9820 C   0  0  0  0  0  2  0  0  0  0  0  0
  -27.8200  -13.5390   19.3060 C   0  0  0  0  0  3  0  0  0  0  0  0
  -28.9580  -13.2340   20.3000 C   0  0  0  0  0  2  0  0  0  0  0  0
  -30.2440  -13.4920   19.6330 N   0  0  0  0  0  0  0  0  0  0  0  0
  -32.0840  -14.7050   19.1170 O   0  0  0  0  0  0  0  0  0  0  0  0
  -25.5380  -14.2180   20.2760 C   0  0  0  0  0  0  0  0  0  0  0  0
  -24.4740  -13.4790   20.7190 C   0  0  0  0  0  0  0  0  0  0  0  0
  -24.8660  -12.1100   20.5940 C   0  0  0  0  0  0  0  0  0  0  0  0
  -26.5100  -13.3020   19.9060 N   0  0  0  0  0  0  0  0  0  0  0  0
  -26.1160  -12.0270   20.1580 N   0  0  0  0  0  0  0  0  0  0  0  0
  -24.1010  -10.8750   20.8090 C   0  0  0  0  0  0  0  0  0  0  0  0
  -24.5560   -9.8660   21.6860 C   0  0  0  0  0  3  0  0  0  0  0  0
  -23.7940   -8.6960   21.8880 C   0  0  0  0  0  3  0  0  0  0  0  0
  -22.5610   -8.5260   21.2140 C   0  0  0  0  0  0  0  0  0  0  0  0
  -22.1230   -9.5240   20.3260 C   0  0  0  0  0  3  0  0  0  0  0  0
  -22.8860  -10.6850   20.1210 C   0  0  0  0  0  3  0  0  0  0  0  0
  -21.7660   -7.4120   21.3300 O   0  0  0  0  0  0  0  0  0  0  0  0
  -21.7410   -6.6610   22.4780 C   0  0  0  0  0  0  0  0  0  0  0  0
  -21.4280   -7.2280   23.7330 C   0  0  0  0  0  3  0  0  0  0  0  0
  -21.3450   -6.4070   24.8750 C   0  0  0  0  0  3  0  0  0  0  0  0
  -21.5650   -5.0220   24.7640 C   0  0  0  0  0  0  0  0  0  0  0  0
  -21.8700   -4.4540   23.5150 C   0  0  0  0  0  3  0  0  0  0  0  0
  -21.9540   -5.2710   22.3750 C   0  0  0  0  0  0  0  0  0  0  0  0
  -22.2290   -4.7170   21.1690 F   0  0  0  0  0  0  0  0  0  0  0  0
  -21.4770   -4.2310   25.8610 F   0  0  0  0  0  0  0  0  0  0  0  0
  -23.1340  -14.0070   21.1440 C   0  0  0  0  0  0  0  0  0  0  0  0
  -22.4780  -13.3280   22.0780 N   0  0  0  0  0  0  0  0  0  0  0  0
  -22.6830  -15.0550   20.6820 O   0  0  0  0  0  0  0  0  0  0  0  0
  -22.8570  -12.4790   22.4710 H   0  0  0  0  0  0  0  0  0  0  0  0
  -21.5820  -13.6620   22.4050 H   0  0  0  0  0  0  0  0  0  0  0  0
  -25.7530  -15.5860   20.1350 N   0  0  0  0  0  0  0  0  0  0  0  0
  -25.0400  -16.2720   20.3560 H   0  0  0  0  0  0  0  0  0  0  0  0
  -26.6010  -16.0010   19.7700 H   0  0  0  0  0  0  0  0  0  0  0  0
  -30.3720  -16.6810   22.7600 O   0  0  0  0  0  0  0  0  0  0  0  0
  -29.9690  -17.3650   22.2220 H   0  0  0  0  0  0  0  0  0  0  0  0
  1 48  1  0
  1  4  1  0
  2  4  1  0
  2  6  1  0
  4  3  1  0
  5  2  2  0
  7  6  1  0
  8 19  2  0
  9  7  1  0
  9 14  1  0
 10 18  1  0
 10 20  1  0
 11 17  1  0
 11 13  1  0
 12 18  1  0
 13 12  1  0
 14 13  2  0
 15 16  1  0
 15  9  2  0
 16 11  2  0
 17 10  1  0
 18  8  1  0
 20 22  2  0
 21 20  1  0
 23 21  1  0
 24 33  2  0
 24 29  1  0
 25 21  1  0
 25 29  1  0
 26 25  1  0
 27 28  1  0
 27 26  1  0
 28 24  1  0
 29 30  2  0
 30 31  1  0
 32 31  2  0
 33 32  1  0
 34  8  1  0
 34 35  1  0
 34 44  1  0
 35 38  1  0
 36 40  1  0
 36 35  1  0
 37 36  2  0
 40 39  1  0
 42 40  1  0
 42 43  1  0
 42 41  1  0
 44 47  1  1
 44 45  1  0
 46 44  1  0
 49 52  1  0
 49 48  1  0
 50 52  2  0
 50 53  1  0
 51 50  1  0
 53 54  2  0
 54 55  1  0
 54 92  1  0
 56 53  1  0
 57 62  1  0
 58 59  1  0
 58 57  1  0
 60 59  1  0
 60 67  1  0
 60 61  1  0
 62 56  1  0
 62 61  1  0
 63 56  2  0
 64 65  2  0
 65 84  1  0
 66 65  1  0
 66 69  1  0
 67 68  1  0
 67 64  1  0
 68 66  2  0
 69 70  1  0
 70 71  2  0
 72 75  1  0
 72 71  1  0
 73 72  2  0
 74 73  1  0
 74 69  2  0
 75 76  1  0
 76 77  1  0
 77 78  2  0
 79 78  1  0
 79 83  1  0
 80 79  2  0
 81 76  2  0
 81 80  1  0
 82 81  1  0
 84 85  1  0
 85 88  1  0
 85 87  1  0
 86 84  2  0
 89 64  1  0
 89 90  1  0
 91 89  1  0
 93 92  1  0
M  ISO  4   6 101   7 101  53 100  56 100
M  END
>  <TORSDO>  (10) 
F 23

>  <SCORE>  (10) 
-10.478

>  <name>  (10) 
9

>  <ligand_id>  (10) 
9

>  <original_smiles>  (10) 
[H]OC(=C(C(=O)N1C([H])([H])C([H])([H])C([H])([H])C([H])(n2nc(-c3c([H])c([H])c(Oc4c([H])c([H])c(F)c([H])c4F)c([H])c3[H])c(C(=O)N([H])[H])c2N([H])[H])C1([H])[H])C(=NC([H])([H])C([H])([H])C([H])([H])N(C(=O)C([H])([H])Oc1c([H])c([H])c2c(c1[H])C([H])([H])N(C(=O)C([H])(N([H])C(=O)C([H])(N([H])C([H])([H])[H])C([H])([H])[H])C(C([H])([H])[H])(C([H])([H])[H])C([H])([H])[H])C([H])(C(=O)N([H])C1([H])c3c([H])c([H])c([H])c([H])c3C([H])([H])C([H])([H])C1([H])[H])C2([H])[H])C([H])([H])[H])C([H])([H])[H])C([H])([H])[H]

>  <smiles>  (10) 
[H]OC(=C(C(=O)N1C([H])([H])C([H])([H])C([H])([H])C([H])(n2nc(-c3c([H])c([H])c(Oc4c([H])c([H])c(F)c([H])c4F)c([H])c3[H])c(C(=O)N([H])[H])c2N([H])[H])C1([H])[H])C(=NC([H])([H])C([H])([H])C([H])([H])N(C(=O)C([H])([H])Oc1c([H])c([H])c2c(c1[H])C([H])([H])N(C(=O)C([H])(N([H])C(=O)C([H])(N([H])C([H])([H])[H])C([H])([H])[H])C(C([H])([H])[H])(C([H])([H])[H])C([H])([H])[H])C([H])(C(=O)N([H])C1([H])c3c([H])c([H])c([H])c([H])c3C([H])([H])C([H])([H])C1([H])[H])C2([H])[H])C([H])([H])[H])C([H])([H])[H])C([H])([H])[H]

$$$$
10:0:0
     RDKit          3D

115122  0  0  1  0  0  0  0  0999 V2000
  -35.8710  -25.0970   20.1190 C   0  0  0  0  0  2  0  0  0  0  0  0
  -37.1720  -25.8280   20.4670 C   0  0  0  0  0  0  0  0  0  0  0  0
  -37.2090  -27.1240   20.1420 N   0  0  0  0  0  0  0  0  0  0  0  0
  -38.1030  -25.2510   21.0310 O   0  0  0  0  0  0  0  0  0  0  0  0
  -36.3990  -27.5010   19.6660 H   0  0  0  0  0  0  0  0  0  0  0  0
  -38.2600  -28.0770   20.4840 C   0  0  0  0  0  2  0  0  0  0  0  0
  -37.9070  -28.9090   21.7350 C   0  0  0  0  0  2  0  0  0  0  0  0
  -36.4490  -29.4150   21.7760 C   0  0  0  0  0  2  0  0  0  0  0  0
  -35.4830  -28.4480   22.4850 C   0  0  0  0  0  2  0  0  0  0  0  0
  -34.0050  -28.7740   22.2310 C   0  0  0  0  0  2  0  0  0  0  0  0
  -33.0700  -27.9010   23.0880 C   0  0  0  0  0  2  0  0  0  0  0  0
  -31.5730  -28.2120   22.9170 C   0  0  0  0  0  2  0  0  0  0  0  0
  -29.8990  -27.5000   21.2230 C   0  0  0  0  0  0  0  0  0  0  0  0
  -31.1250  -27.9200   21.5580 N   0  0  0  0  0  0  0  0  0  0  0  0
  -28.9970  -27.3660   22.0550 O   0  0  0  0  0  0  0  0  0  0  0  0
  -31.8040  -28.0200   20.8160 H   0  0  0  0  0  0  0  0  0  0  0  0
  -29.6720  -27.1690   19.7370 C   0  0  0  0  0  2  0  0  0  0  0  0
  -28.3790  -26.5900   19.5190 O   0  0  0  0  0  0  0  0  0  0  0  0
  -24.7490  -31.6300   23.0600 C   0  0  0  0  0  0  0  0  0  0  0  0
  -27.2440  -27.3590   19.6740 C   0  0  0  0  0  0  0  0  0  0  0  0
  -23.4490  -30.2940   21.4260 C   0  0  0  0  0  3  0  0  0  0  0  0
  -24.8270  -28.8160   19.8700 C   0  0  0  0  0  0  0  0  0  0  0  0
  -25.9500  -30.6810   21.0990 C   0  0  0  0  0  2  0  0  0  0  0  0
  -26.0060  -29.3330   20.4170 C   0  0  0  0  0  0  0  0  0  0  0  0
  -27.2120  -28.6120   20.3300 C   0  0  0  0  0  3  0  0  0  0  0  0
  -26.0480  -26.8460   19.1320 C   0  0  0  0  0  3  0  0  0  0  0  0
  -24.8390  -27.5640   19.2280 C   0  0  0  0  0  3  0  0  0  0  0  0
  -23.5830  -29.6620   20.0130 C   0  0  0  0  0  2  0  0  0  0  0  0
  -24.7380  -30.8800   21.9220 N   0  0  0  0  0  0  0  0  0  0  0  0
  -23.6990  -31.8800   23.6700 O   0  0  0  0  0  0  0  0  0  0  0  0
  -22.8520  -29.2370   22.3810 C   0  0  0  0  0  0  0  0  0  0  0  0
  -21.5300  -29.0260   22.2810 N   0  0  0  0  0  0  0  0  0  0  0  0
  -23.5710  -28.6100   23.1640 O   0  0  0  0  0  0  0  0  0  0  0  0
  -21.0130  -29.5860   21.6180 H   0  0  0  0  0  0  0  0  0  0  0  0
  -18.2110  -27.6940   22.7650 C   0  0  0  0  0  0  0  0  0  0  0  0
  -20.7540  -28.0540   23.0470 C   0  0  0  0  0  3  0  0  0  0  0  0
  -20.9170  -26.6310   22.4650 C   0  0  0  0  0  2  0  0  0  0  0  0
  -19.8320  -26.2680   21.4480 C   0  0  0  0  0  2  0  0  0  0  0  0
  -18.4440  -26.3550   22.0880 C   0  0  0  0  0  2  0  0  0  0  0  0
  -19.2960  -28.4990   23.2020 C   0  0  0  0  0  0  0  0  0  0  0  0
  -19.0240  -29.7520   23.7920 C   0  0  0  0  0  3  0  0  0  0  0  0
  -17.6990  -30.2010   23.9550 C   0  0  0  0  0  3  0  0  0  0  0  0
  -16.6290  -29.3920   23.5370 C   0  0  0  0  0  3  0  0  0  0  0  0
  -16.8850  -28.1420   22.9470 C   0  0  0  0  0  3  0  0  0  0  0  0
  -26.0710  -32.2300   23.6350 C   0  0  0  0  0  3  0  0  0  0  0  0
  -26.6660  -31.3910   24.8320 C   0  0  1  0  0  0  0  0  0  0  0  0
  -25.6390  -31.0780   25.9440 C   0  0  0  0  0  1  0  0  0  0  0  0
  -27.2360  -30.0470   24.3200 C   0  0  0  0  0  1  0  0  0  0  0  0
  -27.8470  -32.1580   25.4740 C   0  0  0  0  0  1  0  0  0  0  0  0
  -25.7850  -33.6070   24.0540 N   0  0  0  0  0  0  0  0  0  0  0  0
  -26.1250  -34.6990   23.3560 C   0  0  0  0  0  0  0  0  0  0  0  0
  -26.7830  -34.6500   22.3130 O   0  0  0  0  0  0  0  0  0  0  0  0
  -25.1990  -33.7210   24.8680 H   0  0  0  0  0  0  0  0  0  0  0  0
  -24.4210  -36.5320   23.1180 C   0  0  0  0  0  1  0  0  0  0  0  0
  -25.6580  -36.0620   23.8990 C   0  0  0  0  0  3  0  0  0  0  0  0
  -27.8140  -36.8580   24.7660 C   0  0  0  0  0  1  0  0  0  0  0  0
  -26.7060  -37.1050   23.8460 N   0  0  0  0  0  0  0  0  0  0  0  0
  -26.3150  -38.0190   24.0600 H   0  0  0  0  0  0  0  0  0  0  0  0
  -35.9960  -23.5630   20.0320 C   0  0  0  0  0  2  0  0  0  0  0  0
  -34.6380  -22.8930   19.7740 C   0  0  0  0  0  2  0  0  0  0  0  0
  -34.7560  -21.3890   19.4770 C   0  0  0  0  0  2  0  0  0  0  0  0
  -32.7840  -20.2190   20.4390 C   0  0  0  0  0  0  0  0  0  0  0  0
  -33.4370  -20.7680   19.4060 N   0  0  0  0  0  0  0  0  0  0  0  0
  -33.2900  -20.1570   21.5640 O   0  0  0  0  0  0  0  0  0  0  0  0
  -32.9720  -20.7570   18.5070 H   0  0  0  0  0  0  0  0  0  0  0  0
  -31.1820  -19.2440   18.7030 C   0  0  0  0  0  1  0  0  0  0  0  0
  -31.3690  -19.6230   20.2000 C   0  0  1  0  0  0  0  0  0  0  0  0
  -30.4410  -17.4320   21.1270 C   0  0  0  0  0  0  0  0  0  0  0  0
  -31.3630  -18.3920   21.0010 N   0  0  0  0  0  0  0  0  0  0  0  0
  -29.3650  -17.4310   20.5260 O   0  0  0  0  0  0  0  0  0  0  0  0
  -32.2040  -18.2980   21.5620 H   0  0  0  0  0  0  0  0  0  0  0  0
  -30.7780  -16.2990   22.1030 C   0  0  0  0  0  2  0  0  0  0  0  0
  -30.6830  -14.3060   20.6250 C   0  0  0  0  0  0  0  0  0  0  0  0
  -30.3060  -12.3310   19.1980 C   0  0  0  0  0  2  0  0  0  0  0  0
  -29.3480  -12.6580   18.0380 C   0  0  0  0  0  2  0  0  0  0  0  0
  -27.8810  -12.4860   18.4760 C   0  0  0  0  0  2  0  0  0  0  0  0
  -27.5700  -13.2140   19.8090 C   0  0  0  0  0  3  0  0  0  0  0  0
  -28.6290  -12.8650   20.8780 C   0  0  0  0  0  2  0  0  0  0  0  0
  -29.9620  -13.1940   20.3370 N   0  0  0  0  0  0  0  0  0  0  0  0
  -31.6980  -14.6420   20.0070 O   0  0  0  0  0  0  0  0  0  0  0  0
  -30.2300  -15.0200   21.6610 N   0  0  0  0  0  0  0  0  0  0  0  0
  -29.3900  -14.6940   22.1140 H   0  0  0  0  0  0  0  0  0  0  0  0
  -25.1480  -13.7730   20.4850 C   0  0  0  0  0  0  0  0  0  0  0  0
  -24.0950  -12.9790   20.8540 C   0  0  0  0  0  0  0  0  0  0  0  0
  -24.5890  -11.6380   20.8420 C   0  0  0  0  0  0  0  0  0  0  0  0
  -26.2160  -12.9160   20.2740 N   0  0  0  0  0  0  0  0  0  0  0  0
  -25.8820  -11.6270   20.5440 N   0  0  0  0  0  0  0  0  0  0  0  0
  -23.8930  -10.3610   21.0420 C   0  0  0  0  0  0  0  0  0  0  0  0
  -24.3440   -9.4140   21.9880 C   0  0  0  0  0  3  0  0  0  0  0  0
  -23.6480   -8.2010   22.1730 C   0  0  0  0  0  3  0  0  0  0  0  0
  -22.4870   -7.9250   21.4130 C   0  0  0  0  0  0  0  0  0  0  0  0
  -22.0560   -8.8600   20.4560 C   0  0  0  0  0  3  0  0  0  0  0  0
  -22.7530  -10.0650   20.2690 C   0  0  0  0  0  3  0  0  0  0  0  0
  -21.7620   -6.7620   21.5070 O   0  0  0  0  0  0  0  0  0  0  0  0
  -21.7250   -6.0290   22.6660 C   0  0  0  0  0  0  0  0  0  0  0  0
  -21.2830   -6.5850   23.8860 C   0  0  0  0  0  3  0  0  0  0  0  0
  -21.1950   -5.7770   25.0380 C   0  0  0  0  0  3  0  0  0  0  0  0
  -21.5370   -4.4140   24.9690 C   0  0  0  0  0  0  0  0  0  0  0  0
  -21.9730   -3.8560   23.7540 C   0  0  0  0  0  3  0  0  0  0  0  0
  -22.0630   -4.6610   22.6050 C   0  0  0  0  0  0  0  0  0  0  0  0
  -22.4620   -4.1150   21.4310 F   0  0  0  0  0  0  0  0  0  0  0  0
  -21.4460   -3.6350   26.0730 F   0  0  0  0  0  0  0  0  0  0  0  0
  -22.6840  -13.4240   21.1120 C   0  0  0  0  0  0  0  0  0  0  0  0
  -21.9710  -12.7260   21.9880 N   0  0  0  0  0  0  0  0  0  0  0  0
  -22.2210  -14.4270   20.5710 O   0  0  0  0  0  0  0  0  0  0  0  0
  -22.3580  -11.9140   22.4480 H   0  0  0  0  0  0  0  0  0  0  0  0
  -21.0260  -13.0060   22.2050 H   0  0  0  0  0  0  0  0  0  0  0  0
  -25.2810  -15.1450   20.2940 N   0  0  0  0  0  0  0  0  0  0  0  0
  -24.5020  -15.7870   20.3950 H   0  0  0  0  0  0  0  0  0  0  0  0
  -26.1340  -15.6030   19.9940 H   0  0  0  0  0  0  0  0  0  0  0  0
  -30.1790  -21.9310   19.9000 C   0  0  0  0  0  1  0  0  0  0  0  0
  -30.2500  -20.6110   20.7050 C   0  0  0  0  0  3  0  0  0  0  0  0
  -30.3290  -20.9270   22.2240 C   0  0  0  0  0  2  0  0  0  0  0  0
  -29.1530  -21.5790   22.6730 O   0  0  0  0  0  0  0  0  0  0  0  0
  -29.0900  -22.4130   22.2200 H   0  0  0  0  0  0  0  0  0  0  0  0
  1  2  1  0
  2  4  2  0
  3  2  1  0
  3  6  1  0
  5  3  1  0
  6  7  1  0
  7  8  1  0
  8  9  1  0
 10  9  1  0
 10 11  1  0
 12 11  1  0
 13 14  1  0
 13 15  2  0
 14 12  1  0
 16 14  1  0
 17 13  1  0
 18 20  1  0
 18 17  1  0
 19 30  2  0
 20 25  1  0
 21 29  1  0
 21 31  1  0
 22 28  1  0
 22 24  1  0
 23 29  1  0
 24 23  1  0
 25 24  2  0
 26 27  1  0
 26 20  2  0
 27 22  2  0
 28 21  1  0
 29 19  1  0
 31 33  2  0
 32 31  1  0
 34 32  1  0
 35 44  2  0
 35 40  1  0
 36 32  1  0
 36 40  1  0
 37 36  1  0
 38 39  1  0
 38 37  1  0
 39 35  1  0
 40 41  2  0
 41 42  1  0
 43 42  2  0
 44 43  1  0
 45 19  1  0
 45 50  1  0
 45 46  1  0
 46 49  1  1
 46 47  1  0
 48 46  1  0
 50 53  1  0
 51 55  1  0
 51 50  1  0
 52 51  2  0
 55 54  1  0
 57 55  1  0
 57 58  1  0
 57 56  1  0
 59  1  1  0
 60 59  1  0
 61 60  1  0
 62 64  2  0
 63 61  1  0
 63 62  1  0
 65 63  1  0
 67 66  1  6
 67 62  1  0
 67112  1  0
 67 69  1  0
 68 72  1  0
 69 68  1  0
 69 71  1  0
 70 68  2  0
 73 81  1  0
 74 79  1  0
 75 76  1  0
 75 74  1  0
 77 76  1  0
 77 86  1  0
 77 78  1  0
 79 73  1  0
 79 78  1  0
 80 73  2  0
 81 72  1  0
 81 82  1  0
 83 84  2  0
 84103  1  0
 85 84  1  0
 85 88  1  0
 86 83  1  0
 86 87  1  0
 87 85  2  0
 88 89  1  0
 89 90  2  0
 91 94  1  0
 91 90  1  0
 92 91  2  0
 93 92  1  0
 93 88  2  0
 94 95  1  0
 95 96  1  0
 96 97  2  0
 98 97  1  0
 98102  1  0
 99 98  2  0
100 95  2  0
100 99  1  0
101100  1  0
103104  1  0
104107  1  0
104106  1  0
105103  2  0
108109  1  0
108 83  1  0
110108  1  0
112111  1  0
112113  1  0
113114  1  0
115114  1  0
M  ISO  4  17 101  18 101  73 100  81 100
M  END
>  <TORSDO>  (11) 
F 36

>  <SCORE>  (11) 
-9.591

>  <name>  (11) 
10

>  <ligand_id>  (11) 
10

>  <original_smiles>  (11) 
[H]OC([H])([H])C([H])(C([H])([H])[H])C(C(=O)N([H])C([H])([H])C([H])([H])C([H])([H])C([H])([H])C(=O)N([H])C([H])([H])C([H])([H])C([H])([H])C([H])([H])C([H])([H])C([H])([H])C([H])([H])N([H])C(=O)C([H])([H])Oc1c([H])c([H])c2c(c1[H])C([H])([H])N(C(=O)C([H])(N([H])C(=O)C([H])(N([H])C([H])([H])[H])C([H])([H])[H])C(C([H])([H])[H])(C([H])([H])[H])C([H])([H])[H])C([H])(C(=O)N([H])C1([H])c3c([H])c([H])c([H])c([H])c3C([H])([H])C([H])([H])C1([H])[H])C2([H])[H])(N([H])C(=O)C([H])([H])N([H])C(=O)N1C([H])([H])C([H])([H])C([H])([H])C([H])(n2nc(-c3c([H])c([H])c(Oc4c([H])c([H])c(F)c([H])c4F)c([H])c3[H])c(C(=O)N([H])[H])c2N([H])[H])C1([H])[H])C([H])([H])[H]

>  <smiles>  (11) 
[H]OC([H])([H])C([H])(C([H])([H])[H])C(C(=O)N([H])C([H])([H])C([H])([H])C([H])([H])C([H])([H])C(=O)N([H])C([H])([H])C([H])([H])C([H])([H])C([H])([H])C([H])([H])C([H])([H])C([H])([H])N([H])C(=O)C([H])([H])Oc1c([H])c([H])c2c(c1[H])C([H])([H])N(C(=O)C([H])(N([H])C(=O)C([H])(N([H])C([H])([H])[H])C([H])([H])[H])C(C([H])([H])[H])(C([H])([H])[H])C([H])([H])[H])C([H])(C(=O)N([H])C1([H])c3c([H])c([H])c([H])c([H])c3C([H])([H])C([H])([H])C1([H])[H])C2([H])[H])(N([H])C(=O)C([H])([H])N([H])C(=O)N1C([H])([H])C([H])([H])C([H])([H])C([H])(n2nc(-c3c([H])c([H])c(Oc4c([H])c([H])c(F)c([H])c4F)c([H])c3[H])c(C(=O)N([H])[H])c2N([H])[H])C1([H])[H])C([H])([H])[H]

$$$$
11:0:0
     RDKit          3D

 95103  0  0  1  0  0  0  0  0999 V2000
  -29.6290  -22.4630   20.3130 C   0  0  0  0  0  0  0  0  0  0  0  0
  -30.0050  -21.3970   19.5910 N   0  0  0  0  0  0  0  0  0  0  0  0
  -28.6790  -22.4460   21.0990 O   0  0  0  0  0  0  0  0  0  0  0  0
  -30.8470  -21.4940   19.0380 H   0  0  0  0  0  0  0  0  0  0  0  0
  -29.2910  -20.1300   19.4740 C   0  0  0  0  0  2  0  0  0  0  0  0
  -30.2360  -19.2000   21.6100 C   0  0  0  0  0  3  0  0  0  0  0  0
  -30.8800  -16.8770   21.8830 C   0  0  0  0  0  3  0  0  0  0  0  0
  -30.7010  -18.1540   22.4280 C   0  0  0  0  0  0  0  0  0  0  0  0
  -29.9440  -18.9790   20.2480 C   0  0  0  0  0  0  0  0  0  0  0  0
  -30.1510  -17.6880   19.6890 C   0  0  0  0  0  0  0  0  0  0  0  0
  -30.6130  -16.6390   20.5250 C   0  0  0  0  0  0  0  0  0  0  0  0
  -30.9330  -18.3430   23.9070 C   0  0  0  0  0  1  0  0  0  0  0  0
  -29.8350  -17.4180   18.2220 C   0  0  0  0  0  1  0  0  0  0  0  0
  -31.3450  -14.2910   20.0060 C   0  0  0  0  0  0  0  0  0  0  0  0
  -30.9310  -12.1160   18.9350 C   0  0  0  0  0  2  0  0  0  0  0  0
  -29.9570  -12.4110   17.7710 C   0  0  0  0  0  2  0  0  0  0  0  0
  -28.4810  -12.4020   18.2320 C   0  0  0  0  0  2  0  0  0  0  0  0
  -28.2480  -13.2560   19.5100 C   0  0  0  0  0  3  0  0  0  0  0  0
  -29.3260  -12.9100   20.5730 C   0  0  0  0  0  2  0  0  0  0  0  0
  -30.6680  -13.1140   19.9740 N   0  0  0  0  0  0  0  0  0  0  0  0
  -32.5070  -14.4580   19.6150 O   0  0  0  0  0  0  0  0  0  0  0  0
  -30.4750  -15.2870   20.1840 N   0  0  0  0  0  0  0  0  0  0  0  0
  -29.5830  -14.8850   20.4130 H   0  0  0  0  0  0  0  0  0  0  0  0
  -25.9230  -14.0850   20.2800 C   0  0  0  0  0  0  0  0  0  0  0  0
  -24.8010  -13.4070   20.6830 C   0  0  0  0  0  0  0  0  0  0  0  0
  -25.1470  -12.0260   20.6380 C   0  0  0  0  0  0  0  0  0  0  0  0
  -26.8890  -13.1160   20.0320 N   0  0  0  0  0  0  0  0  0  0  0  0
  -26.4250  -11.8700   20.2990 N   0  0  0  0  0  0  0  0  0  0  0  0
  -24.3220  -10.8260   20.8390 C   0  0  0  0  0  0  0  0  0  0  0  0
  -24.6850   -9.8380   21.7790 C   0  0  0  0  0  3  0  0  0  0  0  0
  -23.8680   -8.7040   21.9750 C   0  0  0  0  0  3  0  0  0  0  0  0
  -22.6680   -8.5570   21.2380 C   0  0  0  0  0  0  0  0  0  0  0  0
  -22.3290   -9.5340   20.2850 C   0  0  0  0  0  3  0  0  0  0  0  0
  -23.1460  -10.6610   20.0880 C   0  0  0  0  0  3  0  0  0  0  0  0
  -21.8320   -7.4750   21.3380 O   0  0  0  0  0  0  0  0  0  0  0  0
  -21.7160   -6.7580   22.5020 C   0  0  0  0  0  0  0  0  0  0  0  0
  -21.3520   -7.3720   23.7190 C   0  0  0  0  0  3  0  0  0  0  0  0
  -21.1820   -6.5910   24.8800 C   0  0  0  0  0  3  0  0  0  0  0  0
  -21.3550   -5.1950   24.8240 C   0  0  0  0  0  0  0  0  0  0  0  0
  -21.7100   -4.5810   23.6090 C   0  0  0  0  0  3  0  0  0  0  0  0
  -21.8810   -5.3610   22.4530 C   0  0  0  0  0  0  0  0  0  0  0  0
  -22.1970   -4.7590   21.2820 F   0  0  0  0  0  0  0  0  0  0  0  0
  -21.1840   -4.4430   25.9360 F   0  0  0  0  0  0  0  0  0  0  0  0
  -23.4540  -14.0040   20.9880 C   0  0  0  0  0  0  0  0  0  0  0  0
  -22.7000  -13.3980   21.8950 N   0  0  0  0  0  0  0  0  0  0  0  0
  -23.0830  -15.0500   20.4580 O   0  0  0  0  0  0  0  0  0  0  0  0
  -23.0070  -12.5530   22.3520 H   0  0  0  0  0  0  0  0  0  0  0  0
  -21.8000  -13.7940   22.1350 H   0  0  0  0  0  0  0  0  0  0  0  0
  -26.1950  -15.4450   20.1040 N   0  0  0  0  0  0  0  0  0  0  0  0
  -25.4930  -16.1520   20.2890 H   0  0  0  0  0  0  0  0  0  0  0  0
  -27.0720  -15.8540   19.8160 H   0  0  0  0  0  0  0  0  0  0  0  0
  -30.4470  -23.7320   20.0940 C   0  0  0  0  0  2  0  0  0  0  0  0
  -29.7520  -25.0150   20.5690 C   0  0  0  0  0  2  0  0  0  0  0  0
  -28.5130  -25.4270   19.7460 C   0  0  0  0  0  2  0  0  0  0  0  0
  -28.3590  -26.8050   20.0550 O   0  0  0  0  0  0  0  0  0  0  0  0
  -24.5560  -31.8620   23.1940 C   0  0  0  0  0  0  0  0  0  0  0  0
  -27.1330  -27.4210   20.0760 C   0  0  0  0  0  0  0  0  0  0  0  0
  -23.3110  -30.4560   21.5800 C   0  0  0  0  0  3  0  0  0  0  0  0
  -24.7300  -28.8930   20.1440 C   0  0  0  0  0  0  0  0  0  0  0  0
  -25.8270  -30.8100   21.3250 C   0  0  0  0  0  2  0  0  0  0  0  0
  -25.8940  -29.4320   20.7000 C   0  0  0  0  0  0  0  0  0  0  0  0
  -27.0930  -28.7010   20.6640 C   0  0  0  0  0  3  0  0  0  0  0  0
  -25.9480  -26.8770   19.5310 C   0  0  0  0  0  3  0  0  0  0  0  0
  -24.7440  -27.6060   19.5740 C   0  0  0  0  0  3  0  0  0  0  0  0
  -23.4900  -29.7550   20.2060 C   0  0  0  0  0  2  0  0  0  0  0  0
  -24.5850  -31.0600   22.0930 N   0  0  0  0  0  0  0  0  0  0  0  0
  -23.4880  -32.1410   23.7570 O   0  0  0  0  0  0  0  0  0  0  0  0
  -22.6750  -29.4480   22.5630 C   0  0  0  0  0  0  0  0  0  0  0  0
  -21.3450  -29.2660   22.4500 N   0  0  0  0  0  0  0  0  0  0  0  0
  -23.3680  -28.8220   23.3690 O   0  0  0  0  0  0  0  0  0  0  0  0
  -20.8510  -29.8230   21.7690 H   0  0  0  0  0  0  0  0  0  0  0  0
  -17.9830  -28.0650   22.9840 C   0  0  0  0  0  0  0  0  0  0  0  0
  -20.5400  -28.3370   23.2390 C   0  0  0  0  0  3  0  0  0  0  0  0
  -20.6460  -26.8990   22.6840 C   0  0  0  0  0  2  0  0  0  0  0  0
  -19.5430  -26.5540   21.6790 C   0  0  0  0  0  2  0  0  0  0  0  0
  -18.1620  -26.7060   22.3260 C   0  0  0  0  0  2  0  0  0  0  0  0
  -19.1000  -28.8360   23.3960 C   0  0  0  0  0  0  0  0  0  0  0  0
  -18.8790  -30.1080   23.9690 C   0  0  0  0  0  3  0  0  0  0  0  0
  -17.5740  -30.6090   24.1310 C   0  0  0  0  0  3  0  0  0  0  0  0
  -16.4710  -29.8330   23.7360 C   0  0  0  0  0  3  0  0  0  0  0  0
  -16.6750  -28.5620   23.1680 C   0  0  0  0  0  3  0  0  0  0  0  0
  -25.8570  -32.4880   23.7880 C   0  0  0  0  0  3  0  0  0  0  0  0
  -25.5570  -33.8840   24.1390 N   0  0  0  0  0  0  0  0  0  0  0  0
  -25.8890  -34.9450   23.3940 C   0  0  0  0  0  0  0  0  0  0  0  0
  -26.5540  -34.8560   22.3590 O   0  0  0  0  0  0  0  0  0  0  0  0
  -24.9700  -34.0280   24.9480 H   0  0  0  0  0  0  0  0  0  0  0  0
  -24.1640  -36.7520   23.0800 C   0  0  0  0  0  1  0  0  0  0  0  0
  -25.4070  -36.3290   23.8780 C   0  0  0  0  0  3  0  0  0  0  0  0
  -27.5530  -37.1890   24.7080 C   0  0  0  0  0  1  0  0  0  0  0  0
  -26.4430  -37.3790   23.7770 N   0  0  0  0  0  0  0  0  0  0  0  0
  -26.0420  -38.2960   23.9480 H   0  0  0  0  0  0  0  0  0  0  0  0
  -26.4160  -31.7060   25.0400 C   0  0  1  0  0  0  0  0  0  0  0  0
  -25.3570  -31.4560   26.1380 C   0  0  0  0  0  1  0  0  0  0  0  0
  -26.9910  -30.3380   24.6090 C   0  0  0  0  0  1  0  0  0  0  0  0
  -27.5820  -32.5000   25.6800 C   0  0  0  0  0  1  0  0  0  0  0  0
  1  3  2  0
  2  1  1  0
  4  2  1  0
  5  2  1  0
  5  9  1  0
  6  8  1  0
  7  8  2  0
  8 12  1  0
  9  6  2  0
 10  9  1  0
 10 11  2  0
 11  7  1  0
 13 10  1  0
 14 22  1  0
 15 20  1  0
 16 17  1  0
 16 15  1  0
 18 17  1  0
 18 27  1  0
 18 19  1  0
 20 14  1  0
 20 19  1  0
 21 14  2  0
 22 23  1  0
 22 11  1  0
 24 25  2  0
 25 44  1  0
 26 25  1  0
 26 29  1  0
 27 24  1  0
 27 28  1  0
 28 26  2  0
 29 30  1  0
 30 31  2  0
 32 35  1  0
 32 31  1  0
 33 32  2  0
 34 33  1  0
 34 29  2  0
 35 36  1  0
 36 37  1  0
 37 38  2  0
 39 38  1  0
 39 43  1  0
 40 39  2  0
 41 36  2  0
 41 40  1  0
 42 41  1  0
 44 45  1  0
 45 48  1  0
 45 47  1  0
 46 44  2  0
 49 24  1  0
 49 50  1  0
 51 49  1  0
 52  1  1  0
 52 53  1  0
 54 55  1  0
 54 53  1  0
 55 57  1  0
 56 67  2  0
 57 62  1  0
 58 66  1  0
 58 68  1  0
 59 65  1  0
 59 61  1  0
 60 66  1  0
 61 60  1  0
 62 61  2  0
 63 64  1  0
 63 57  2  0
 64 59  2  0
 65 58  1  0
 66 56  1  0
 68 70  2  0
 69 68  1  0
 71 69  1  0
 72 81  2  0
 72 77  1  0
 73 69  1  0
 73 77  1  0
 74 73  1  0
 75 76  1  0
 75 74  1  0
 76 72  1  0
 77 78  2  0
 78 79  1  0
 80 79  2  0
 81 80  1  0
 82 56  1  0
 82 83  1  0
 82 92  1  0
 83 86  1  0
 84 88  1  0
 84 83  1  0
 85 84  2  0
 88 87  1  0
 90 88  1  0
 90 91  1  0
 90 89  1  0
 92 95  1  1
 92 93  1  0
 94 92  1  0
M  ISO  4  14 100  22 100  54 101  55 101
M  END
>  <TORSDO>  (12) 
F 21

>  <SCORE>  (12) 
-12.262

>  <name>  (12) 
11

>  <ligand_id>  (12) 
11

>  <original_smiles>  (12) 
[H]c1c([H])c([H])c2c(c1[H])C([H])([H])C([H])([H])C([H])([H])C2([H])N([H])C(=O)C1([H])N(C(=O)C([H])(N([H])C(=O)C([H])(N([H])C([H])([H])[H])C([H])([H])[H])C(C([H])([H])[H])(C([H])([H])[H])C([H])([H])[H])C([H])([H])c2c([H])c(OC([H])([H])C([H])([H])C([H])([H])C(=O)N([H])C([H])([H])c3c([H])c(C([H])([H])[H])c([H])c(N([H])C(=O)N4C([H])([H])C([H])([H])C([H])([H])C([H])(n5nc(-c6c([H])c([H])c(Oc7c([H])c([H])c(F)c([H])c7F)c([H])c6[H])c(C(=O)N([H])[H])c5N([H])[H])C4([H])[H])c3C([H])([H])[H])c([H])c([H])c2C1([H])[H]

>  <smiles>  (12) 
[H]c1c([H])c([H])c2c(c1[H])C([H])([H])C([H])([H])C([H])([H])C2([H])N([H])C(=O)C1([H])N(C(=O)C([H])(N([H])C(=O)C([H])(N([H])C([H])([H])[H])C([H])([H])[H])C(C([H])([H])[H])(C([H])([H])[H])C([H])([H])[H])C([H])([H])c2c([H])c(OC([H])([H])C([H])([H])C([H])([H])C(=O)N([H])C([H])([H])c3c([H])c(C([H])([H])[H])c([H])c(N([H])C(=O)N4C([H])([H])C([H])([H])C([H])([H])C([H])(n5nc(-c6c([H])c([H])c(Oc7c([H])c([H])c(F)c([H])c7F)c([H])c6[H])c(C(=O)N([H])[H])c5N([H])[H])C4([H])[H])c3C([H])([H])[H])c([H])c([H])c2C1([H])[H]

$$$$
12:0:0
     RDKit          3D

 90 98  0  0  1  0  0  0  0  0999 V2000
  -31.0930  -17.9190   20.5650 C   0  0  0  0  0  3  0  0  0  0  0  0
  -31.0950  -19.3450   20.5020 C   0  0  0  0  0  3  0  0  0  0  0  0
  -28.7000  -19.3790   20.3330 C   0  0  0  0  0  3  0  0  0  0  0  0
  -29.8810  -17.1820   20.5250 C   0  0  0  0  0  0  0  0  0  0  0  0
  -29.9090  -20.1220   20.3880 C   0  0  0  0  0  0  0  0  0  0  0  0
  -28.6910  -17.9520   20.4070 C   0  0  0  0  0  0  0  0  0  0  0  0
  -27.5060  -17.2970   20.3610 F   0  0  0  0  0  0  0  0  0  0  0  0
  -30.5680  -14.6790   20.3110 C   0  0  0  0  0  0  0  0  0  0  0  0
  -30.3460  -12.4480   19.2340 C   0  0  0  0  0  2  0  0  0  0  0  0
  -29.3930  -12.5890   18.0260 C   0  0  0  0  0  2  0  0  0  0  0  0
  -27.9220  -12.4340   18.4630 C   0  0  0  0  0  2  0  0  0  0  0  0
  -27.5740  -13.2900   19.7100 C   0  0  0  0  0  3  0  0  0  0  0  0
  -28.6390  -13.1200   20.8180 C   0  0  0  0  0  2  0  0  0  0  0  0
  -29.9480  -13.4590   20.2340 N   0  0  0  0  0  0  0  0  0  0  0  0
  -31.7320  -14.8330   19.9340 O   0  0  0  0  0  0  0  0  0  0  0  0
  -29.7540  -15.7290   20.6430 N   0  0  0  0  0  0  0  0  0  0  0  0
  -28.8180  -15.4350   20.8750 H   0  0  0  0  0  0  0  0  0  0  0  0
  -25.1820  -13.8950   20.4320 C   0  0  0  0  0  0  0  0  0  0  0  0
  -24.1150  -13.1250   20.8040 C   0  0  0  0  0  0  0  0  0  0  0  0
  -24.5760  -11.7720   20.7780 C   0  0  0  0  0  0  0  0  0  0  0  0
  -26.2260  -13.0130   20.2010 N   0  0  0  0  0  0  0  0  0  0  0  0
  -25.8660  -11.7310   20.4680 N   0  0  0  0  0  0  0  0  0  0  0  0
  -23.8480  -10.5130   20.9740 C   0  0  0  0  0  0  0  0  0  0  0  0
  -24.2760   -9.5510   21.9150 C   0  0  0  0  0  3  0  0  0  0  0  0
  -23.5480   -8.3540   22.0980 C   0  0  0  0  0  3  0  0  0  0  0  0
  -22.3770   -8.1130   21.3420 C   0  0  0  0  0  0  0  0  0  0  0  0
  -21.9680   -9.0640   20.3910 C   0  0  0  0  0  3  0  0  0  0  0  0
  -22.6970  -10.2510   20.2050 C   0  0  0  0  0  3  0  0  0  0  0  0
  -21.6220   -6.9700   21.4330 O   0  0  0  0  0  0  0  0  0  0  0  0
  -21.5600   -6.2390   22.5930 C   0  0  0  0  0  0  0  0  0  0  0  0
  -21.1070   -6.8040   23.8060 C   0  0  0  0  0  3  0  0  0  0  0  0
  -20.9940   -6.0000   24.9580 C   0  0  0  0  0  3  0  0  0  0  0  0
  -21.3220   -4.6320   24.8980 C   0  0  0  0  0  0  0  0  0  0  0  0
  -21.7670   -4.0660   23.6900 C   0  0  0  0  0  3  0  0  0  0  0  0
  -21.8820   -4.8680   22.5400 C   0  0  0  0  0  0  0  0  0  0  0  0
  -22.2920   -4.3140   21.3730 F   0  0  0  0  0  0  0  0  0  0  0  0
  -21.2050   -3.8570   26.0010 F   0  0  0  0  0  0  0  0  0  0  0  0
  -22.7190  -13.6050   21.0780 C   0  0  0  0  0  0  0  0  0  0  0  0
  -21.9920  -12.9140   21.9490 N   0  0  0  0  0  0  0  0  0  0  0  0
  -22.2810  -14.6300   20.5560 O   0  0  0  0  0  0  0  0  0  0  0  0
  -22.3580  -12.0850   22.3930 H   0  0  0  0  0  0  0  0  0  0  0  0
  -21.0560  -13.2180   22.1750 H   0  0  0  0  0  0  0  0  0  0  0  0
  -25.3430  -15.2660   20.2560 N   0  0  0  0  0  0  0  0  0  0  0  0
  -24.5770  -15.9130   20.3970 H   0  0  0  0  0  0  0  0  0  0  0  0
  -26.2090  -15.7380   20.0180 H   0  0  0  0  0  0  0  0  0  0  0  0
  -30.0250  -21.5300   20.3580 O   0  0  0  0  0  0  0  0  0  0  0  0
  -28.8960  -22.4420   20.1650 C   0  0  0  0  0  2  0  0  0  0  0  0
  -29.2560  -23.9960   20.2800 C   0  0  0  0  0  3  0  0  0  0  0  0
  -28.1150  -25.0540   19.9510 C   0  0  0  0  0  3  0  0  0  0  0  0
  -28.3390  -26.5060   20.1590 O   0  0  0  0  0  0  0  0  0  0  0  0
  -24.6140  -31.8650   23.2520 C   0  0  0  0  0  0  0  0  0  0  0  0
  -27.2190  -27.3560   20.1210 C   0  0  0  0  0  0  0  0  0  0  0  0
  -23.4060  -30.4950   21.5920 C   0  0  0  0  0  3  0  0  0  0  0  0
  -24.8530  -28.9680   20.1410 C   0  0  0  0  0  0  0  0  0  0  0  0
  -25.9460  -30.8150   21.4110 C   0  0  0  0  0  2  0  0  0  0  0  0
  -26.0230  -29.4470   20.7430 C   0  0  0  0  0  0  0  0  0  0  0  0
  -27.2090  -28.6530   20.7210 C   0  0  0  0  0  3  0  0  0  0  0  0
  -26.0200  -26.9330   19.4980 C   0  0  0  0  0  3  0  0  0  0  0  0
  -24.8540  -27.7170   19.5100 C   0  0  0  0  0  3  0  0  0  0  0  0
  -23.6170  -29.8420   20.2020 C   0  0  0  0  0  2  0  0  0  0  0  0
  -24.6750  -31.0740   22.1420 N   0  0  0  0  0  0  0  0  0  0  0  0
  -23.5310  -32.1370   23.7920 O   0  0  0  0  0  0  0  0  0  0  0  0
  -22.7430  -29.4640   22.5360 C   0  0  0  0  0  0  0  0  0  0  0  0
  -21.4170  -29.2900   22.4050 N   0  0  0  0  0  0  0  0  0  0  0  0
  -23.4200  -28.8240   23.3450 O   0  0  0  0  0  0  0  0  0  0  0  0
  -20.9300  -29.8560   21.7250 H   0  0  0  0  0  0  0  0  0  0  0  0
  -18.0360  -28.0990   22.8910 C   0  0  0  0  0  0  0  0  0  0  0  0
  -20.5950  -28.3430   23.1610 C   0  0  0  0  0  3  0  0  0  0  0  0
  -20.6890  -26.9200   22.5620 C   0  0  0  0  0  2  0  0  0  0  0  0
  -19.5850  -26.6200   21.5440 C   0  0  0  0  0  2  0  0  0  0  0  0
  -18.2040  -26.7600   22.1930 C   0  0  0  0  0  2  0  0  0  0  0  0
  -19.1580  -28.8490   23.3310 C   0  0  0  0  0  0  0  0  0  0  0  0
  -18.9450  -30.1030   23.9450 C   0  0  0  0  0  3  0  0  0  0  0  0
  -17.6430  -30.6080   24.1200 C   0  0  0  0  0  3  0  0  0  0  0  0
  -16.5350  -29.8550   23.6960 C   0  0  0  0  0  3  0  0  0  0  0  0
  -16.7310  -28.6020   23.0870 C   0  0  0  0  0  3  0  0  0  0  0  0
  -25.8970  -32.4860   23.8840 C   0  0  0  0  0  3  0  0  0  0  0  0
  -26.4020  -31.7040   25.1580 C   0  0  1  0  0  0  0  0  0  0  0  0
  -25.3030  -31.4670   26.2190 C   0  0  0  0  0  1  0  0  0  0  0  0
  -26.9780  -30.3240   24.7620 C   0  0  0  0  0  1  0  0  0  0  0  0
  -27.5540  -32.4870   25.8300 C   0  0  0  0  0  1  0  0  0  0  0  0
  -25.5960  -33.8840   24.2200 N   0  0  0  0  0  0  0  0  0  0  0  0
  -25.9130  -34.9370   23.4560 C   0  0  0  0  0  0  0  0  0  0  0  0
  -26.5620  -34.8340   22.4100 O   0  0  0  0  0  0  0  0  0  0  0  0
  -25.0160  -34.0380   25.0330 H   0  0  0  0  0  0  0  0  0  0  0  0
  -24.1680  -36.7240   23.1540 C   0  0  0  0  0  1  0  0  0  0  0  0
  -25.4370  -36.3260   23.9240 C   0  0  0  0  0  3  0  0  0  0  0  0
  -27.5930  -37.2240   24.6820 C   0  0  0  0  0  1  0  0  0  0  0  0
  -26.4620  -37.3820   23.7720 N   0  0  0  0  0  0  0  0  0  0  0  0
  -26.0580  -38.3010   23.9250 H   0  0  0  0  0  0  0  0  0  0  0  0
  2  1  2  0
  3  5  2  0
  3  6  1  0
  4  1  1  0
  4 16  1  0
  5  2  1  0
  6  4  2  0
  7  6  1  0
  8 16  1  0
  9 14  1  0
 10 11  1  0
 10  9  1  0
 12 11  1  0
 12 21  1  0
 12 13  1  0
 14  8  1  0
 14 13  1  0
 15  8  2  0
 16 17  1  0
 18 19  2  0
 19 38  1  0
 20 19  1  0
 20 23  1  0
 21 18  1  0
 21 22  1  0
 22 20  2  0
 23 24  1  0
 24 25  2  0
 26 29  1  0
 26 25  1  0
 27 26  2  0
 28 27  1  0
 28 23  2  0
 29 30  1  0
 30 31  1  0
 31 32  2  0
 33 32  1  0
 33 37  1  0
 34 33  2  0
 35 30  2  0
 35 34  1  0
 36 35  1  0
 38 39  1  0
 39 42  1  0
 39 41  1  0
 40 38  2  0
 43 44  1  0
 43 18  1  0
 45 43  1  0
 46  5  1  0
 47 48  1  0
 47 46  1  0
 49 50  1  0
 49 48  2  0
 51 62  2  0
 52 50  1  0
 52 57  1  0
 53 61  1  0
 53 63  1  0
 54 60  1  0
 54 56  1  0
 55 61  1  0
 56 55  1  0
 57 56  2  0
 58 59  1  0
 58 52  2  0
 59 54  2  0
 60 53  1  0
 61 51  1  0
 63 65  2  0
 64 63  1  0
 66 64  1  0
 67 76  2  0
 67 72  1  0
 68 64  1  0
 68 72  1  0
 69 68  1  0
 70 71  1  0
 70 69  1  0
 71 67  1  0
 72 73  2  0
 73 74  1  0
 75 74  2  0
 76 75  1  0
 77 51  1  0
 77 82  1  0
 77 78  1  0
 78 81  1  1
 78 79  1  0
 80 78  1  0
 82 85  1  0
 83 87  1  0
 83 82  1  0
 84 83  2  0
 87 86  1  0
 89 87  1  0
 89 90  1  0
 89 88  1  0
M  ISO  4   8 100  16 100  49 101  50 101
M  END
>  <TORSDO>  (13) 
F 20

>  <SCORE>  (13) 
-14.070

>  <name>  (13) 
12

>  <ligand_id>  (13) 
12

>  <original_smiles>  (13) 
[H]c1c([H])c([H])c2c(c1[H])C([H])([H])C([H])([H])C([H])([H])C2([H])N([H])C(=O)C1([H])N(C(=O)C([H])(N([H])C(=O)C([H])(N([H])C([H])([H])[H])C([H])([H])[H])C(C([H])([H])[H])(C([H])([H])[H])C([H])([H])[H])C([H])([H])c2c([H])c(OC([H])([H])C([H])([H])C([H])([H])Oc3c([H])c([H])c(N([H])C(=O)N4C([H])([H])C([H])([H])C([H])([H])C([H])(n5nc(-c6c([H])c([H])c(Oc7c([H])c([H])c(F)c([H])c7F)c([H])c6[H])c(C(=O)N([H])[H])c5N([H])[H])C4([H])[H])c(F)c3[H])c([H])c([H])c2C1([H])[H]

>  <smiles>  (13) 
[H]c1c([H])c([H])c2c(c1[H])C([H])([H])C([H])([H])C([H])([H])C2([H])N([H])C(=O)C1([H])N(C(=O)C([H])(N([H])C(=O)C([H])(N([H])C([H])([H])[H])C([H])([H])[H])C(C([H])([H])[H])(C([H])([H])[H])C([H])([H])[H])C([H])([H])c2c([H])c(OC([H])([H])C([H])([H])C([H])([H])Oc3c([H])c([H])c(N([H])C(=O)N4C([H])([H])C([H])([H])C([H])([H])C([H])(n5nc(-c6c([H])c([H])c(Oc7c([H])c([H])c(F)c([H])c7F)c([H])c6[H])c(C(=O)N([H])[H])c5N([H])[H])C4([H])[H])c(F)c3[H])c([H])c([H])c2C1([H])[H]

$$$$
13:0:0
     RDKit          3D

 91 99  0  0  1  0  0  0  0  0999 V2000
  -28.8990  -23.4310   20.3970 C   0  0  0  0  0  0  0  0  0  0  0  0
  -28.5490  -22.1080   20.0260 N   0  0  0  0  0  0  0  0  0  0  0  0
  -29.9170  -23.6420   21.0610 O   0  0  0  0  0  0  0  0  0  0  0  0
  -27.7080  -22.1510   19.4660 H   0  0  0  0  0  0  0  0  0  0  0  0
  -30.0760  -20.0850   21.0000 C   0  0  0  0  0  3  0  0  0  0  0  0
  -30.3520  -18.6470   21.1050 C   0  0  0  0  0  3  0  0  0  0  0  0
  -28.3200  -19.6150   19.5050 C   0  0  0  0  0  3  0  0  0  0  0  0
  -29.0200  -20.6550   20.2000 C   0  0  0  0  0  0  0  0  0  0  0  0
  -29.6120  -17.6140   20.4180 C   0  0  0  0  0  0  0  0  0  0  0  0
  -28.5860  -18.1950   19.6030 C   0  0  0  0  0  0  0  0  0  0  0  0
  -27.5740  -17.1360   18.6880 Cl  0  0  0  0  0  0  0  0  0  0  0  0
  -30.5020  -14.9910   20.4450 C   0  0  0  0  0  0  0  0  0  0  0  0
  -30.4260  -12.6410   19.4990 C   0  0  0  0  0  2  0  0  0  0  0  0
  -29.5020  -12.6120   18.2590 C   0  0  0  0  0  2  0  0  0  0  0  0
  -28.0300  -12.4040   18.6690 C   0  0  0  0  0  2  0  0  0  0  0  0
  -27.6120  -13.3210   19.8480 C   0  0  0  0  0  3  0  0  0  0  0  0
  -28.6550  -13.3050   20.9870 C   0  0  0  0  0  2  0  0  0  0  0  0
  -29.9410  -13.7170   20.4050 N   0  0  0  0  0  0  0  0  0  0  0  0
  -31.7000  -15.1080   20.1590 O   0  0  0  0  0  0  0  0  0  0  0  0
  -29.6420  -16.0960   20.6400 N   0  0  0  0  0  0  0  0  0  0  0  0
  -28.7080  -15.7410   20.7710 H   0  0  0  0  0  0  0  0  0  0  0  0
  -25.2190  -13.9050   20.5540 C   0  0  0  0  0  0  0  0  0  0  0  0
  -24.1480  -13.1310   20.9070 C   0  0  0  0  0  0  0  0  0  0  0  0
  -24.6120  -11.7810   20.8790 C   0  0  0  0  0  0  0  0  0  0  0  0
  -26.2650  -13.0260   20.3240 N   0  0  0  0  0  0  0  0  0  0  0  0
  -25.9070  -11.7430   20.5860 N   0  0  0  0  0  0  0  0  0  0  0  0
  -23.8800  -10.5200   21.0560 C   0  0  0  0  0  0  0  0  0  0  0  0
  -24.2960   -9.5500   21.9950 C   0  0  0  0  0  3  0  0  0  0  0  0
  -23.5630   -8.3540   22.1600 C   0  0  0  0  0  3  0  0  0  0  0  0
  -22.4020   -8.1210   21.3860 C   0  0  0  0  0  0  0  0  0  0  0  0
  -22.0040   -9.0790   20.4380 C   0  0  0  0  0  3  0  0  0  0  0  0
  -22.7380  -10.2670   20.2710 C   0  0  0  0  0  3  0  0  0  0  0  0
  -21.6430   -6.9780   21.4620 O   0  0  0  0  0  0  0  0  0  0  0  0
  -21.5690   -6.2360   22.6140 C   0  0  0  0  0  0  0  0  0  0  0  0
  -21.1020   -6.7890   23.8260 C   0  0  0  0  0  3  0  0  0  0  0  0
  -20.9780   -5.9740   24.9700 C   0  0  0  0  0  3  0  0  0  0  0  0
  -21.3080   -4.6070   24.9010 C   0  0  0  0  0  0  0  0  0  0  0  0
  -21.7680   -4.0550   23.6920 C   0  0  0  0  0  3  0  0  0  0  0  0
  -21.8950   -4.8670   22.5510 C   0  0  0  0  0  0  0  0  0  0  0  0
  -22.3180   -4.3250   21.3840 F   0  0  0  0  0  0  0  0  0  0  0  0
  -21.1820   -3.8230   25.9960 F   0  0  0  0  0  0  0  0  0  0  0  0
  -22.7480  -13.6120   21.1570 C   0  0  0  0  0  0  0  0  0  0  0  0
  -22.0080  -12.9200   22.0150 N   0  0  0  0  0  0  0  0  0  0  0  0
  -22.3190  -14.6350   20.6250 O   0  0  0  0  0  0  0  0  0  0  0  0
  -22.3680  -12.0930   22.4680 H   0  0  0  0  0  0  0  0  0  0  0  0
  -21.0670  -13.2230   22.2250 H   0  0  0  0  0  0  0  0  0  0  0  0
  -25.3800  -15.2750   20.3800 N   0  0  0  0  0  0  0  0  0  0  0  0
  -24.5900  -15.9070   20.4560 H   0  0  0  0  0  0  0  0  0  0  0  0
  -26.1850  -15.7090   19.9460 H   0  0  0  0  0  0  0  0  0  0  0  0
  -27.9550  -24.7220   19.9610 C   0  0  0  0  0  2  0  0  0  0  0  0
  -28.2620  -26.2160   20.2760 O   0  0  0  0  0  0  0  0  0  0  0  0
  -24.6250  -31.8940   23.2590 C   0  0  0  0  0  0  0  0  0  0  0  0
  -27.2120  -27.2050   20.2000 C   0  0  0  0  0  0  0  0  0  0  0  0
  -23.4260  -30.5030   21.6160 C   0  0  0  0  0  3  0  0  0  0  0  0
  -24.8770  -28.9420   20.1810 C   0  0  0  0  0  0  0  0  0  0  0  0
  -25.9800  -30.7750   21.4500 C   0  0  0  0  0  2  0  0  0  0  0  0
  -26.0560  -29.3880   20.7910 C   0  0  0  0  0  0  0  0  0  0  0  0
  -27.2230  -28.5340   20.7880 C   0  0  0  0  0  3  0  0  0  0  0  0
  -26.0060  -26.8690   19.5420 C   0  0  0  0  0  3  0  0  0  0  0  0
  -24.8640  -27.6960   19.5410 C   0  0  0  0  0  3  0  0  0  0  0  0
  -23.6470  -29.8350   20.2340 C   0  0  0  0  0  2  0  0  0  0  0  0
  -24.6970  -31.0780   22.1630 N   0  0  0  0  0  0  0  0  0  0  0  0
  -23.5390  -32.1740   23.7880 O   0  0  0  0  0  0  0  0  0  0  0  0
  -22.7510  -29.4900   22.5740 C   0  0  0  0  0  0  0  0  0  0  0  0
  -21.4240  -29.3110   22.4420 N   0  0  0  0  0  0  0  0  0  0  0  0
  -23.4230  -28.8660   23.4000 O   0  0  0  0  0  0  0  0  0  0  0  0
  -20.9380  -29.8640   21.7510 H   0  0  0  0  0  0  0  0  0  0  0  0
  -18.0490  -28.0860   22.9260 C   0  0  0  0  0  0  0  0  0  0  0  0
  -20.6050  -28.3690   23.2090 C   0  0  0  0  0  3  0  0  0  0  0  0
  -20.7210  -26.9370   22.6400 C   0  0  0  0  0  2  0  0  0  0  0  0
  -19.6290  -26.6010   21.6200 C   0  0  0  0  0  2  0  0  0  0  0  0
  -18.2410  -26.7360   22.2530 C   0  0  0  0  0  2  0  0  0  0  0  0
  -19.1580  -28.8590   23.3610 C   0  0  0  0  0  0  0  0  0  0  0  0
  -18.9240  -30.1200   23.9500 C   0  0  0  0  0  3  0  0  0  0  0  0
  -17.6130  -30.6090   24.1080 C   0  0  0  0  0  3  0  0  0  0  0  0
  -16.5190  -29.8330   23.6890 C   0  0  0  0  0  3  0  0  0  0  0  0
  -16.7370  -28.5730   23.1030 C   0  0  0  0  0  3  0  0  0  0  0  0
  -25.9040  -32.5290   23.8860 C   0  0  0  0  0  3  0  0  0  0  0  0
  -25.5930  -33.9300   24.2140 N   0  0  0  0  0  0  0  0  0  0  0  0
  -25.9170  -34.9830   23.4510 C   0  0  0  0  0  0  0  0  0  0  0  0
  -26.5770  -34.8790   22.4140 O   0  0  0  0  0  0  0  0  0  0  0  0
  -25.0050  -34.0850   25.0190 H   0  0  0  0  0  0  0  0  0  0  0  0
  -24.1810  -36.7760   23.1210 C   0  0  0  0  0  1  0  0  0  0  0  0
  -25.4350  -36.3730   23.9130 C   0  0  0  0  0  3  0  0  0  0  0  0
  -27.5810  -37.2690   24.7090 C   0  0  0  0  0  1  0  0  0  0  0  0
  -26.4650  -37.4280   23.7790 N   0  0  0  0  0  0  0  0  0  0  0  0
  -26.0590  -38.3490   23.9260 H   0  0  0  0  0  0  0  0  0  0  0  0
  -26.4090  -31.7640   25.1710 C   0  0  1  0  0  0  0  0  0  0  0  0
  -25.3080  -31.5370   26.2340 C   0  0  0  0  0  1  0  0  0  0  0  0
  -26.9910  -30.3810   24.7950 C   0  0  0  0  0  1  0  0  0  0  0  0
  -27.5570  -32.5590   25.8350 C   0  0  0  0  0  1  0  0  0  0  0  0
  1  3  2  0
  2  8  1  0
  2  1  1  0
  4  2  1  0
  5  6  1  0
  7 10  2  0
  7  8  1  0
  8  5  2  0
  9 20  1  0
  9  6  2  0
 10  9  1  0
 11 10  1  0
 12 20  1  0
 13 18  1  0
 14 15  1  0
 14 13  1  0
 16 15  1  0
 16 25  1  0
 16 17  1  0
 18 12  1  0
 18 17  1  0
 19 12  2  0
 20 21  1  0
 22 23  2  0
 23 42  1  0
 24 23  1  0
 24 27  1  0
 25 22  1  0
 25 26  1  0
 26 24  2  0
 27 28  1  0
 28 29  2  0
 30 33  1  0
 30 29  1  0
 31 30  2  0
 32 31  1  0
 32 27  2  0
 33 34  1  0
 34 35  1  0
 35 36  2  0
 37 36  1  0
 37 41  1  0
 38 37  2  0
 39 34  2  0
 39 38  1  0
 40 39  1  0
 42 43  1  0
 43 46  1  0
 43 45  1  0
 44 42  2  0
 47 48  1  0
 47 22  1  0
 49 47  1  0
 50 51  1  0
 50  1  1  0
 52 63  2  0
 53 51  1  0
 53 58  1  0
 54 62  1  0
 54 64  1  0
 55 61  1  0
 55 57  1  0
 56 62  1  0
 57 56  1  0
 58 57  2  0
 59 53  2  0
 60 59  1  0
 60 55  2  0
 61 54  1  0
 62 52  1  0
 64 66  2  0
 65 64  1  0
 67 65  1  0
 68 77  2  0
 68 73  1  0
 69 65  1  0
 69 73  1  0
 70 69  1  0
 71 72  1  0
 71 70  1  0
 72 68  1  0
 73 74  2  0
 74 75  1  0
 76 75  2  0
 77 76  1  0
 78 52  1  0
 78 79  1  0
 78 88  1  0
 79 82  1  0
 80 84  1  0
 80 79  1  0
 81 80  2  0
 84 83  1  0
 86 84  1  0
 86 87  1  0
 86 85  1  0
 88 91  1  1
 88 89  1  0
 90 88  1  0
M  ISO  4  12 100  20 100  50 101  51 101
M  END
>  <TORSDO>  (14) 
F 18

>  <SCORE>  (14) 
-14.808

>  <name>  (14) 
13

>  <ligand_id>  (14) 
13

>  <original_smiles>  (14) 
[H]c1c([H])c([H])c2c(c1[H])C([H])([H])C([H])([H])C([H])([H])C2([H])N([H])C(=O)C1([H])N(C(=O)C([H])(N([H])C(=O)C([H])(N([H])C([H])([H])[H])C([H])([H])[H])C(C([H])([H])[H])(C([H])([H])[H])C([H])([H])[H])C([H])([H])c2c([H])c(OC([H])([H])C(=O)N([H])c3c([H])c([H])c(N([H])C(=O)N4C([H])([H])C([H])([H])C([H])([H])C([H])(n5nc(-c6c([H])c([H])c(Oc7c([H])c([H])c(F)c([H])c7F)c([H])c6[H])c(C(=O)N([H])[H])c5N([H])[H])C4([H])[H])c(Cl)c3[H])c([H])c([H])c2C1([H])[H]

>  <smiles>  (14) 
[H]c1c([H])c([H])c2c(c1[H])C([H])([H])C([H])([H])C([H])([H])C2([H])N([H])C(=O)C1([H])N(C(=O)C([H])(N([H])C(=O)C([H])(N([H])C([H])([H])[H])C([H])([H])[H])C(C([H])([H])[H])(C([H])([H])[H])C([H])([H])[H])C([H])([H])c2c([H])c(OC([H])([H])C(=O)N([H])c3c([H])c([H])c(N([H])C(=O)N4C([H])([H])C([H])([H])C([H])([H])C([H])(n5nc(-c6c([H])c([H])c(Oc7c([H])c([H])c(F)c([H])c7F)c([H])c6[H])c(C(=O)N([H])[H])c5N([H])[H])C4([H])[H])c(Cl)c3[H])c([H])c([H])c2C1([H])[H]

$$$$
14:0:0
     RDKit          3D

 92100  0  0  1  0  0  0  0  0999 V2000
  -28.3600  -22.2410   20.0490 C   0  0  0  0  0  0  0  0  0  0  0  0
  -28.7620  -20.9080   20.0590 N   0  0  0  0  0  0  0  0  0  0  0  0
  -27.1600  -22.3470   19.7970 O   0  0  0  0  0  0  0  0  0  0  0  0
  -27.9110  -20.3910   19.9060 H   0  0  0  0  0  0  0  0  0  0  0  0
  -32.1930  -19.1740   20.0980 C   0  0  0  0  0  3  0  0  0  0  0  0
  -31.8160  -17.8140   20.2090 C   0  0  0  0  0  3  0  0  0  0  0  0
  -29.5230  -18.5340   20.2400 C   0  0  0  0  0  3  0  0  0  0  0  0
  -31.2530  -20.2360   20.0720 C   0  0  0  0  0  0  0  0  0  0  0  0
  -30.4590  -17.4210   20.2870 C   0  0  0  0  0  0  0  0  0  0  0  0
  -29.8720  -19.9420   20.1450 C   0  0  0  0  0  0  0  0  0  0  0  0
  -31.7680  -21.6520   19.9500 C   0  0  0  0  0  1  0  0  0  0  0  0
  -30.6860  -14.8150   20.0600 C   0  0  0  0  0  0  0  0  0  0  0  0
  -30.4010  -12.5900   18.9110 C   0  0  0  0  0  2  0  0  0  0  0  0
  -29.3610  -12.6990   17.7740 C   0  0  0  0  0  2  0  0  0  0  0  0
  -27.9260  -12.4880   18.2930 C   0  0  0  0  0  2  0  0  0  0  0  0
  -27.6560  -13.2930   19.5870 C   0  0  0  0  0  3  0  0  0  0  0  0
  -28.8050  -13.0750   20.5990 C   0  0  0  0  0  2  0  0  0  0  0  0
  -30.0350  -13.5830   19.9610 N   0  0  0  0  0  0  0  0  0  0  0  0
  -31.8000  -14.8890   19.5350 O   0  0  0  0  0  0  0  0  0  0  0  0
  -29.0070  -15.9220   21.5670 C   0  0  0  0  0  1  0  0  0  0  0  0
  -30.0540  -15.9930   20.5350 N   0  0  0  0  0  0  0  0  0  0  0  0
  -25.3190  -13.8620   20.4890 C   0  0  0  0  0  0  0  0  0  0  0  0
  -24.2820  -13.0740   20.9040 C   0  0  0  0  0  0  0  0  0  0  0  0
  -24.7400  -11.7260   20.7820 C   0  0  0  0  0  0  0  0  0  0  0  0
  -26.3450  -12.9940   20.1530 N   0  0  0  0  0  0  0  0  0  0  0  0
  -26.0050  -11.7010   20.3820 N   0  0  0  0  0  0  0  0  0  0  0  0
  -24.0290  -10.4570   20.9670 C   0  0  0  0  0  0  0  0  0  0  0  0
  -24.4850   -9.4820   21.8830 C   0  0  0  0  0  3  0  0  0  0  0  0
  -23.7710   -8.2780   22.0610 C   0  0  0  0  0  3  0  0  0  0  0  0
  -22.5910   -8.0370   21.3180 C   0  0  0  0  0  0  0  0  0  0  0  0
  -22.1540   -9.0000   20.3900 C   0  0  0  0  0  3  0  0  0  0  0  0
  -22.8680  -10.1970   20.2140 C   0  0  0  0  0  3  0  0  0  0  0  0
  -21.8480   -6.8850   21.4050 O   0  0  0  0  0  0  0  0  0  0  0  0
  -21.7560   -6.1750   22.5730 C   0  0  0  0  0  0  0  0  0  0  0  0
  -21.2590   -6.7550   23.7600 C   0  0  0  0  0  3  0  0  0  0  0  0
  -21.1110   -5.9670   24.9190 C   0  0  0  0  0  3  0  0  0  0  0  0
  -21.4580   -4.6030   24.8930 C   0  0  0  0  0  0  0  0  0  0  0  0
  -21.9470   -4.0230   23.7100 C   0  0  0  0  0  3  0  0  0  0  0  0
  -22.0950   -4.8070   22.5520 C   0  0  0  0  0  0  0  0  0  0  0  0
  -22.5480   -4.2380   21.4080 F   0  0  0  0  0  0  0  0  0  0  0  0
  -21.3110   -3.8460   26.0050 F   0  0  0  0  0  0  0  0  0  0  0  0
  -22.9080  -13.5380   21.2980 C   0  0  0  0  0  0  0  0  0  0  0  0
  -22.2580  -12.8110   22.1950 N   0  0  0  0  0  0  0  0  0  0  0  0
  -22.4290  -14.5800   20.8510 O   0  0  0  0  0  0  0  0  0  0  0  0
  -22.6680  -11.9670   22.5670 H   0  0  0  0  0  0  0  0  0  0  0  0
  -21.3460  -13.1050   22.5180 H   0  0  0  0  0  0  0  0  0  0  0  0
  -25.4630  -15.2390   20.3560 N   0  0  0  0  0  0  0  0  0  0  0  0
  -24.7120  -15.8790   20.5850 H   0  0  0  0  0  0  0  0  0  0  0  0
  -26.2780  -15.7080   19.9870 H   0  0  0  0  0  0  0  0  0  0  0  0
  -29.0870  -23.6510   20.2940 C   0  0  0  0  0  2  0  0  0  0  0  0
  -28.0680  -24.9310   20.1800 C   0  0  0  0  0  2  0  0  0  0  0  0
  -28.3380  -26.4110   20.3010 O   0  0  0  0  0  0  0  0  0  0  0  0
  -24.6080  -31.9000   23.2960 C   0  0  0  0  0  0  0  0  0  0  0  0
  -27.2300  -27.3060   20.2450 C   0  0  0  0  0  0  0  0  0  0  0  0
  -23.4080  -30.5170   21.6390 C   0  0  0  0  0  3  0  0  0  0  0  0
  -24.8650  -28.9640   20.2170 C   0  0  0  0  0  0  0  0  0  0  0  0
  -25.9570  -30.8180   21.4750 C   0  0  0  0  0  2  0  0  0  0  0  0
  -26.0380  -29.4360   20.8250 C   0  0  0  0  0  0  0  0  0  0  0  0
  -27.2220  -28.6230   20.8220 C   0  0  0  0  0  3  0  0  0  0  0  0
  -26.0240  -26.9030   19.6200 C   0  0  0  0  0  3  0  0  0  0  0  0
  -24.8660  -27.7040   19.6030 C   0  0  0  0  0  3  0  0  0  0  0  0
  -23.6310  -29.8460   20.2600 C   0  0  0  0  0  2  0  0  0  0  0  0
  -24.6770  -31.0990   22.1920 N   0  0  0  0  0  0  0  0  0  0  0  0
  -23.5200  -32.1820   23.8210 O   0  0  0  0  0  0  0  0  0  0  0  0
  -22.7310  -29.5030   22.5920 C   0  0  0  0  0  0  0  0  0  0  0  0
  -21.4050  -29.3320   22.4530 N   0  0  0  0  0  0  0  0  0  0  0  0
  -23.3980  -28.8720   23.4150 O   0  0  0  0  0  0  0  0  0  0  0  0
  -20.9260  -29.8950   21.7660 H   0  0  0  0  0  0  0  0  0  0  0  0
  -18.0190  -28.1380   22.9270 C   0  0  0  0  0  0  0  0  0  0  0  0
  -20.5770  -28.3910   23.2120 C   0  0  0  0  0  3  0  0  0  0  0  0
  -20.6760  -26.9610   22.6310 C   0  0  0  0  0  2  0  0  0  0  0  0
  -19.5780  -26.6480   21.6080 C   0  0  0  0  0  2  0  0  0  0  0  0
  -18.1950  -26.7900   22.2460 C   0  0  0  0  0  2  0  0  0  0  0  0
  -19.1380  -28.8940   23.3680 C   0  0  0  0  0  0  0  0  0  0  0  0
  -18.9170  -30.1550   23.9680 C   0  0  0  0  0  3  0  0  0  0  0  0
  -17.6100  -30.6560   24.1260 C   0  0  0  0  0  3  0  0  0  0  0  0
  -16.5080  -29.8970   23.6960 C   0  0  0  0  0  3  0  0  0  0  0  0
  -16.7130  -28.6390   23.1040 C   0  0  0  0  0  3  0  0  0  0  0  0
  -25.8890  -32.5230   23.9330 C   0  0  0  0  0  3  0  0  0  0  0  0
  -26.3810  -31.7510   25.2170 C   0  0  1  0  0  0  0  0  0  0  0  0
  -25.2730  -31.5260   26.2740 C   0  0  0  0  0  1  0  0  0  0  0  0
  -26.9580  -30.3670   24.8390 C   0  0  0  0  0  1  0  0  0  0  0  0
  -27.5310  -32.5380   25.8870 C   0  0  0  0  0  1  0  0  0  0  0  0
  -25.5840  -33.9250   24.2550 N   0  0  0  0  0  0  0  0  0  0  0  0
  -25.9080  -34.9720   23.4840 C   0  0  0  0  0  0  0  0  0  0  0  0
  -26.5610  -34.8570   22.4420 O   0  0  0  0  0  0  0  0  0  0  0  0
  -24.9960  -34.0880   25.0600 H   0  0  0  0  0  0  0  0  0  0  0  0
  -24.1590  -36.7570   23.1700 C   0  0  0  0  0  1  0  0  0  0  0  0
  -25.4320  -36.3660   23.9370 C   0  0  0  0  0  3  0  0  0  0  0  0
  -27.5930  -37.2750   24.6710 C   0  0  0  0  0  1  0  0  0  0  0  0
  -26.4570  -37.4180   23.7650 N   0  0  0  0  0  0  0  0  0  0  0  0
  -26.0540  -38.3400   23.9020 H   0  0  0  0  0  0  0  0  0  0  0  0
  1  2  1  0
  1 50  1  0
  2 10  1  0
  3  1  2  0
  4  2  1  0
  5  6  1  0
  6  9  2  0
  7  9  1  0
  8  5  2  0
  8 10  1  0
  9 21  1  0
 10  7  2  0
 11  8  1  0
 12 21  1  0
 13 18  1  0
 14 15  1  0
 14 13  1  0
 16 15  1  0
 16 25  1  0
 16 17  1  0
 18 12  1  0
 18 17  1  0
 19 12  2  0
 21 20  1  0
 22 23  2  0
 23 42  1  0
 24 23  1  0
 24 27  1  0
 25 26  1  0
 25 22  1  0
 26 24  2  0
 27 28  1  0
 28 29  2  0
 30 33  1  0
 30 29  1  0
 31 30  2  0
 32 31  1  0
 32 27  2  0
 33 34  1  0
 34 35  1  0
 35 36  2  0
 37 36  1  0
 37 41  1  0
 38 37  2  0
 39 34  2  0
 39 38  1  0
 40 39  1  0
 42 43  1  0
 43 46  1  0
 43 45  1  0
 44 42  2  0
 47 22  1  0
 47 48  1  0
 49 47  1  0
 51 50  1  0
 51 52  1  0
 53 64  2  0
 54 52  1  0
 54 59  1  0
 55 63  1  0
 55 65  1  0
 56 62  1  0
 56 58  1  0
 57 63  1  0
 58 57  1  0
 59 58  2  0
 60 54  2  0
 61 60  1  0
 61 56  2  0
 62 55  1  0
 63 53  1  0
 65 67  2  0
 66 65  1  0
 68 66  1  0
 69 78  2  0
 69 74  1  0
 70 66  1  0
 70 74  1  0
 71 70  1  0
 72 73  1  0
 72 71  1  0
 73 69  1  0
 74 75  2  0
 75 76  1  0
 77 76  2  0
 78 77  1  0
 79 53  1  0
 79 84  1  0
 79 80  1  0
 80 83  1  1
 80 81  1  0
 82 80  1  0
 84 87  1  0
 85 89  1  0
 85 84  1  0
 86 85  2  0
 89 88  1  0
 91 92  1  0
 91 89  1  0
 91 90  1  0
M  ISO  4  12 100  21 100  51 101  52 101
M  END
>  <TORSDO>  (15) 
F 19

>  <SCORE>  (15) 
-13.712

>  <name>  (15) 
14

>  <ligand_id>  (15) 
14

>  <original_smiles>  (15) 
[H]c1c([H])c([H])c2c(c1[H])C([H])([H])C([H])([H])C([H])([H])C2([H])N([H])C(=O)C1([H])N(C(=O)C([H])(N([H])C(=O)C([H])(N([H])C([H])([H])[H])C([H])([H])[H])C(C([H])([H])[H])(C([H])([H])[H])C([H])([H])[H])C([H])([H])c2c([H])c(OC([H])([H])C([H])([H])C(=O)N([H])c3c([H])c(N(C(=O)N4C([H])([H])C([H])([H])C([H])([H])C([H])(n5nc(-c6c([H])c([H])c(Oc7c([H])c([H])c(F)c([H])c7F)c([H])c6[H])c(C(=O)N([H])[H])c5N([H])[H])C4([H])[H])C([H])([H])[H])c([H])c([H])c3C([H])([H])[H])c([H])c([H])c2C1([H])[H]

>  <smiles>  (15) 
[H]c1c([H])c([H])c2c(c1[H])C([H])([H])C([H])([H])C([H])([H])C2([H])N([H])C(=O)C1([H])N(C(=O)C([H])(N([H])C(=O)C([H])(N([H])C([H])([H])[H])C([H])([H])[H])C(C([H])([H])[H])(C([H])([H])[H])C([H])([H])[H])C([H])([H])c2c([H])c(OC([H])([H])C([H])([H])C(=O)N([H])c3c([H])c(N(C(=O)N4C([H])([H])C([H])([H])C([H])([H])C([H])(n5nc(-c6c([H])c([H])c(Oc7c([H])c([H])c(F)c([H])c7F)c([H])c6[H])c(C(=O)N([H])[H])c5N([H])[H])C4([H])[H])C([H])([H])[H])c([H])c([H])c3C([H])([H])[H])c([H])c([H])c2C1([H])[H]

$$$$
15:0:0
     RDKit          3D

 92100  0  0  1  0  0  0  0  0999 V2000
  -29.0740  -22.4630   20.1690 C   0  0  0  0  0  0  0  0  0  0  0  0
  -31.3330  -22.1050   21.0150 C   0  0  0  0  0  1  0  0  0  0  0  0
  -30.0710  -21.5580   20.4960 N   0  0  0  0  0  0  0  0  0  0  0  0
  -27.9770  -22.0820   19.7470 O   0  0  0  0  0  0  0  0  0  0  0  0
  -31.2030  -19.3120   20.2500 C   0  0  0  0  0  3  0  0  0  0  0  0
  -31.2030  -17.8850   20.2720 C   0  0  0  0  0  3  0  0  0  0  0  0
  -28.8180  -19.3380   20.5130 C   0  0  0  0  0  3  0  0  0  0  0  0
  -28.8070  -17.9090   20.5540 C   0  0  0  0  0  0  0  0  0  0  0  0
  -30.0150  -20.0870   20.3800 C   0  0  0  0  0  0  0  0  0  0  0  0
  -30.0060  -17.1370   20.4340 C   0  0  0  0  0  0  0  0  0  0  0  0
  -27.4560  -17.2420   20.7660 C   0  0  0  0  0  1  0  0  0  0  0  0
  -30.6840  -14.6550   19.9570 C   0  0  0  0  0  0  0  0  0  0  0  0
  -30.3850  -12.4550   18.8290 C   0  0  0  0  0  2  0  0  0  0  0  0
  -29.3630  -12.6270   17.6830 C   0  0  0  0  0  2  0  0  0  0  0  0
  -27.9160  -12.4820   18.2010 C   0  0  0  0  0  2  0  0  0  0  0  0
  -27.6510  -13.3040   19.4900 C   0  0  0  0  0  3  0  0  0  0  0  0
  -28.7790  -13.0860   20.5250 C   0  0  0  0  0  2  0  0  0  0  0  0
  -30.0530  -13.4400   19.8770 N   0  0  0  0  0  0  0  0  0  0  0  0
  -31.8080  -14.8240   19.4740 O   0  0  0  0  0  0  0  0  0  0  0  0
  -29.9310  -15.6740   20.4750 N   0  0  0  0  0  0  0  0  0  0  0  0
  -29.0750  -15.3270   20.8810 H   0  0  0  0  0  0  0  0  0  0  0  0
  -25.3060  -13.9050   20.3620 C   0  0  0  0  0  0  0  0  0  0  0  0
  -24.2590  -13.1330   20.7850 C   0  0  0  0  0  0  0  0  0  0  0  0
  -24.7050  -11.7800   20.6940 C   0  0  0  0  0  0  0  0  0  0  0  0
  -26.3290  -13.0230   20.0490 N   0  0  0  0  0  0  0  0  0  0  0  0
  -25.9730  -11.7370   20.3060 N   0  0  0  0  0  0  0  0  0  0  0  0
  -23.9770  -10.5200   20.8980 C   0  0  0  0  0  0  0  0  0  0  0  0
  -24.4050   -9.5670   21.8490 C   0  0  0  0  0  3  0  0  0  0  0  0
  -23.6760   -8.3720   22.0420 C   0  0  0  0  0  3  0  0  0  0  0  0
  -22.5090   -8.1220   21.2840 C   0  0  0  0  0  0  0  0  0  0  0  0
  -22.1010   -9.0640   20.3220 C   0  0  0  0  0  3  0  0  0  0  0  0
  -22.8300  -10.2490   20.1270 C   0  0  0  0  0  3  0  0  0  0  0  0
  -21.7550   -6.9780   21.3850 O   0  0  0  0  0  0  0  0  0  0  0  0
  -21.6290   -6.3010   22.5720 C   0  0  0  0  0  0  0  0  0  0  0  0
  -21.1120   -6.9210   23.7300 C   0  0  0  0  0  3  0  0  0  0  0  0
  -20.9330   -6.1710   24.9100 C   0  0  0  0  0  3  0  0  0  0  0  0
  -21.2620   -4.8020   24.9310 C   0  0  0  0  0  0  0  0  0  0  0  0
  -21.7730   -4.1820   23.7770 C   0  0  0  0  0  3  0  0  0  0  0  0
  -21.9530   -4.9300   22.5990 C   0  0  0  0  0  0  0  0  0  0  0  0
  -22.4250   -4.3220   21.4840 F   0  0  0  0  0  0  0  0  0  0  0  0
  -21.0830   -4.0780   26.0610 F   0  0  0  0  0  0  0  0  0  0  0  0
  -22.8850  -13.6160   21.1530 C   0  0  0  0  0  0  0  0  0  0  0  0
  -22.2120  -12.9190   22.0630 N   0  0  0  0  0  0  0  0  0  0  0  0
  -22.4200  -14.6470   20.6700 O   0  0  0  0  0  0  0  0  0  0  0  0
  -22.6040  -12.0870   22.4790 H   0  0  0  0  0  0  0  0  0  0  0  0
  -21.2940  -13.2260   22.3510 H   0  0  0  0  0  0  0  0  0  0  0  0
  -25.4630  -15.2750   20.1920 N   0  0  0  0  0  0  0  0  0  0  0  0
  -24.6950  -15.9190   20.3380 H   0  0  0  0  0  0  0  0  0  0  0  0
  -26.2580  -15.7080   19.7420 H   0  0  0  0  0  0  0  0  0  0  0  0
  -29.3060  -24.0300   20.3130 C   0  0  0  0  0  3  0  0  0  0  0  0
  -28.1540  -25.0170   19.8470 C   0  0  0  0  0  3  0  0  0  0  0  0
  -28.3190  -26.4740   20.0630 O   0  0  0  0  0  0  0  0  0  0  0  0
  -24.4410  -31.6960   23.1530 C   0  0  0  0  0  0  0  0  0  0  0  0
  -27.1720  -27.2800   20.0120 C   0  0  0  0  0  0  0  0  0  0  0  0
  -23.2700  -30.2940   21.4900 C   0  0  0  0  0  3  0  0  0  0  0  0
  -24.7600  -28.8170   20.0280 C   0  0  0  0  0  0  0  0  0  0  0  0
  -25.7980  -30.6900   21.3070 C   0  0  0  0  0  2  0  0  0  0  0  0
  -25.9150  -29.3300   20.6330 C   0  0  0  0  0  0  0  0  0  0  0  0
  -27.1230  -28.5730   20.6160 C   0  0  0  0  0  3  0  0  0  0  0  0
  -25.9930  -26.8200   19.3810 C   0  0  0  0  0  3  0  0  0  0  0  0
  -24.8020  -27.5680   19.3910 C   0  0  0  0  0  3  0  0  0  0  0  0
  -23.4990  -29.6540   20.0950 C   0  0  0  0  0  2  0  0  0  0  0  0
  -24.5210  -30.9100   22.0400 N   0  0  0  0  0  0  0  0  0  0  0  0
  -23.3510  -31.9350   23.6960 O   0  0  0  0  0  0  0  0  0  0  0  0
  -22.6410  -29.2410   22.4320 C   0  0  0  0  0  0  0  0  0  0  0  0
  -21.3260  -29.0040   22.2810 N   0  0  0  0  0  0  0  0  0  0  0  0
  -23.3330  -28.6400   23.2570 O   0  0  0  0  0  0  0  0  0  0  0  0
  -20.8260  -29.5400   21.5850 H   0  0  0  0  0  0  0  0  0  0  0  0
  -17.9950  -27.6700   22.7250 C   0  0  0  0  0  0  0  0  0  0  0  0
  -20.5370  -28.0300   23.0350 C   0  0  0  0  0  3  0  0  0  0  0  0
  -20.7050  -26.6080   22.4530 C   0  0  0  0  0  2  0  0  0  0  0  0
  -19.6320  -26.2500   21.4180 C   0  0  0  0  0  2  0  0  0  0  0  0
  -18.2360  -26.3350   22.0410 C   0  0  0  0  0  2  0  0  0  0  0  0
  -19.0760  -28.4730   23.1780 C   0  0  0  0  0  0  0  0  0  0  0  0
  -18.7980  -29.7210   23.7770 C   0  0  0  0  0  3  0  0  0  0  0  0
  -17.4710  -30.1670   23.9290 C   0  0  0  0  0  3  0  0  0  0  0  0
  -16.4050  -29.3610   23.4920 C   0  0  0  0  0  3  0  0  0  0  0  0
  -16.6680  -28.1140   22.8980 C   0  0  0  0  0  3  0  0  0  0  0  0
  -25.7080  -32.3510   23.7820 C   0  0  0  0  0  3  0  0  0  0  0  0
  -26.2200  -31.6030   25.0740 C   0  0  1  0  0  0  0  0  0  0  0  0
  -25.1160  -31.3620   26.1310 C   0  0  0  0  0  1  0  0  0  0  0  0
  -26.8300  -30.2300   24.7080 C   0  0  0  0  0  1  0  0  0  0  0  0
  -27.3490  -32.4220   25.7410 C   0  0  0  0  0  1  0  0  0  0  0  0
  -25.3780  -33.7500   24.0900 N   0  0  0  0  0  0  0  0  0  0  0  0
  -25.6790  -34.7930   23.3070 C   0  0  0  0  0  0  0  0  0  0  0  0
  -26.3350  -34.6840   22.2680 O   0  0  0  0  0  0  0  0  0  0  0  0
  -24.7900  -33.9090   24.8960 H   0  0  0  0  0  0  0  0  0  0  0  0
  -23.8980  -36.5360   22.9660 C   0  0  0  0  0  1  0  0  0  0  0  0
  -25.1720  -36.1810   23.7470 C   0  0  0  0  0  3  0  0  0  0  0  0
  -27.3080  -37.1370   24.4910 C   0  0  0  0  0  1  0  0  0  0  0  0
  -26.1760  -37.2550   23.5780 N   0  0  0  0  0  0  0  0  0  0  0  0
  -25.7510  -38.1670   23.7170 H   0  0  0  0  0  0  0  0  0  0  0  0
  1 50  1  0
  1  3  1  0
  3  2  1  0
  4  1  2  0
  5  6  2  0
  5  9  1  0
  6 10  1  0
  7  8  1  0
  8 11  1  0
  9  3  1  0
  9  7  2  0
 10 20  1  0
 10  8  2  0
 12 20  1  0
 13 18  1  0
 14 15  1  0
 14 13  1  0
 16 15  1  0
 16 25  1  0
 16 17  1  0
 18 12  1  0
 18 17  1  0
 19 12  2  0
 20 21  1  0
 22 23  2  0
 23 42  1  0
 24 23  1  0
 24 27  1  0
 25 26  1  0
 25 22  1  0
 26 24  2  0
 27 28  1  0
 28 29  2  0
 30 33  1  0
 30 29  1  0
 31 30  2  0
 32 31  1  0
 32 27  2  0
 33 34  1  0
 34 39  2  0
 34 35  1  0
 35 36  2  0
 36 37  1  0
 37 41  1  0
 38 37  2  0
 39 38  1  0
 40 39  1  0
 42 43  1  0
 43 46  1  0
 43 45  1  0
 44 42  2  0
 47 48  1  0
 47 22  1  0
 49 47  1  0
 51 52  1  0
 51 50  2  0
 53 64  2  0
 54 52  1  0
 54 59  1  0
 55 63  1  0
 55 65  1  0
 56 62  1  0
 56 58  1  0
 57 63  1  0
 58 57  1  0
 59 58  2  0
 60 61  1  0
 60 54  2  0
 61 56  2  0
 62 55  1  0
 63 53  1  0
 65 67  2  0
 66 65  1  0
 68 66  1  0
 69 78  2  0
 69 74  1  0
 70 66  1  0
 70 74  1  0
 71 70  1  0
 72 73  1  0
 72 71  1  0
 73 69  1  0
 74 75  2  0
 75 76  1  0
 77 76  2  0
 78 77  1  0
 79 53  1  0
 79 84  1  0
 79 80  1  0
 80 83  1  1
 80 81  1  0
 82 80  1  0
 84 87  1  0
 85 89  1  0
 85 84  1  0
 86 85  2  0
 89 88  1  0
 91 92  1  0
 91 89  1  0
 91 90  1  0
M  ISO  4  12 100  20 100  51 101  52 101
M  END
>  <TORSDO>  (16) 
F 19

>  <SCORE>  (16) 
-13.485

>  <name>  (16) 
15

>  <ligand_id>  (16) 
15

>  <original_smiles>  (16) 
[H]c1c([H])c([H])c2c(c1[H])C([H])([H])C([H])([H])C([H])([H])C2([H])N([H])C(=O)C1([H])N(C(=O)C([H])(N([H])C(=O)C([H])(N([H])C([H])([H])[H])C([H])([H])[H])C(C([H])([H])[H])(C([H])([H])[H])C([H])([H])[H])C([H])([H])c2c([H])c(OC([H])([H])C([H])([H])C(=O)N(c3c([H])c([H])c(N([H])C(=O)N4C([H])([H])C([H])([H])C([H])([H])C([H])(n5nc(-c6c([H])c([H])c(Oc7c([H])c([H])c(F)c([H])c7F)c([H])c6[H])c(C(=O)N([H])[H])c5N([H])[H])C4([H])[H])c(C([H])([H])[H])c3[H])C([H])([H])[H])c([H])c([H])c2C1([H])[H]

>  <smiles>  (16) 
[H]c1c([H])c([H])c2c(c1[H])C([H])([H])C([H])([H])C([H])([H])C2([H])N([H])C(=O)C1([H])N(C(=O)C([H])(N([H])C(=O)C([H])(N([H])C([H])([H])[H])C([H])([H])[H])C(C([H])([H])[H])(C([H])([H])[H])C([H])([H])[H])C([H])([H])c2c([H])c(OC([H])([H])C([H])([H])C(=O)N(c3c([H])c([H])c(N([H])C(=O)N4C([H])([H])C([H])([H])C([H])([H])C([H])(n5nc(-c6c([H])c([H])c(Oc7c([H])c([H])c(F)c([H])c7F)c([H])c6[H])c(C(=O)N([H])[H])c5N([H])[H])C4([H])[H])c(C([H])([H])[H])c3[H])C([H])([H])[H])c([H])c([H])c2C1([H])[H]

$$$$
16:0:0
     RDKit          3D

114122  0  0  1  0  0  0  0  0999 V2000
  -24.8780  -25.3830   24.5170 N   0  0  0  0  0  4  0  0  0  0  0  0
  -24.2440  -25.3310   23.7340 H   0  0  0  0  0  0  0  0  0  0  0  0
  -24.4510  -24.8810   25.2780 H   0  0  0  0  0  0  0  0  0  0  0  0
  -27.2140  -24.6080   25.2460 C   0  0  0  0  0  1  0  0  0  0  0  0
  -26.1670  -24.5400   24.1150 C   0  0  0  0  0  3  0  0  0  0  0  0
  -26.0110  -22.9250   23.6620 C   0  0  0  0  0  2  0  0  0  0  0  0
  -27.4650  -20.6460   23.3280 C   0  0  0  0  0  0  0  0  0  0  0  0
  -27.3310  -22.3700   21.5650 C   0  0  0  0  0  1  0  0  0  0  0  0
  -27.0650  -21.9630   22.9510 N   0  0  0  0  0  0  0  0  0  0  0  0
  -27.5020  -20.3990   24.5360 O   0  0  0  0  0  0  0  0  0  0  0  0
  -25.7530  -17.9620   23.3810 C   0  0  0  0  0  0  0  0  0  0  0  0
  -29.0960  -18.6240   21.8240 C   0  0  0  0  0  2  0  0  0  0  0  0
  -27.8210  -16.8330   22.7310 C   0  0  0  0  0  2  0  0  0  0  0  0
  -27.6960  -19.3100   22.3280 C   0  0  0  0  0  3  0  0  0  0  0  0
  -29.2240  -17.0230   22.0920 C   0  0  0  0  0  3  0  0  0  0  0  0
  -26.9930  -18.0880   22.8100 N   0  0  0  0  0  0  0  0  0  0  0  0
  -25.5360  -16.9660   24.0860 O   0  0  0  0  0  0  0  0  0  0  0  0
  -30.4190  -14.8440   20.7260 C   0  0  0  0  0  0  0  0  0  0  0  0
  -30.4530  -12.5850   19.5080 C   0  0  0  0  0  2  0  0  0  0  0  0
  -29.5280  -12.5600   18.2640 C   0  0  0  0  0  2  0  0  0  0  0  0
  -28.0540  -12.3310   18.6600 C   0  0  0  0  0  2  0  0  0  0  0  0
  -27.6320  -13.2090   19.8680 C   0  0  0  0  0  3  0  0  0  0  0  0
  -28.6480  -13.0920   21.0150 C   0  0  0  0  0  2  0  0  0  0  0  0
  -29.9150  -13.5810   20.4780 N   0  0  0  0  0  0  0  0  0  0  0  0
  -31.6180  -15.0530   20.4630 O   0  0  0  0  0  0  0  0  0  0  0  0
  -29.4720  -15.8540   21.0510 N   0  0  0  0  0  0  0  0  0  0  0  0
  -28.5760  -15.4900   20.7670 H   0  0  0  0  0  0  0  0  0  0  0  0
  -25.2430  -13.8050   20.5530 C   0  0  0  0  0  0  0  0  0  0  0  0
  -24.1800  -13.0390   20.9140 C   0  0  0  0  0  0  0  0  0  0  0  0
  -24.6360  -11.6800   20.8780 C   0  0  0  0  0  0  0  0  0  0  0  0
  -26.2850  -12.9240   20.3220 N   0  0  0  0  0  0  0  0  0  0  0  0
  -25.9280  -11.6400   20.5780 N   0  0  0  0  0  0  0  0  0  0  0  0
  -23.9040  -10.4230   21.0470 C   0  0  0  0  0  0  0  0  0  0  0  0
  -24.3620   -9.4130   21.9240 C   0  0  0  0  0  3  0  0  0  0  0  0
  -23.6300   -8.2170   22.0760 C   0  0  0  0  0  3  0  0  0  0  0  0
  -22.4280   -8.0230   21.3540 C   0  0  0  0  0  0  0  0  0  0  0  0
  -21.9910   -9.0210   20.4640 C   0  0  0  0  0  3  0  0  0  0  0  0
  -22.7220  -10.2090   20.3090 C   0  0  0  0  0  3  0  0  0  0  0  0
  -21.6600   -6.8880   21.4250 O   0  0  0  0  0  0  0  0  0  0  0  0
  -21.6820   -6.0730   22.5280 C   0  0  0  0  0  0  0  0  0  0  0  0
  -21.4000   -6.5650   23.8210 C   0  0  0  0  0  3  0  0  0  0  0  0
  -21.3680   -5.6810   24.9190 C   0  0  0  0  0  3  0  0  0  0  0  0
  -21.6040   -4.3060   24.7230 C   0  0  0  0  0  0  0  0  0  0  0  0
  -21.8810   -3.8150   23.4350 C   0  0  0  0  0  3  0  0  0  0  0  0
  -21.9160   -4.6960   22.3410 C   0  0  0  0  0  0  0  0  0  0  0  0
  -22.1650   -4.2140   21.0990 F   0  0  0  0  0  0  0  0  0  0  0  0
  -21.5620   -3.4550   25.7750 F   0  0  0  0  0  0  0  0  0  0  0  0
  -22.7830  -13.5170   21.1840 C   0  0  0  0  0  0  0  0  0  0  0  0
  -22.0480  -12.8220   22.0370 N   0  0  0  0  0  0  0  0  0  0  0  0
  -22.3600  -14.5530   20.6660 O   0  0  0  0  0  0  0  0  0  0  0  0
  -22.4080  -11.9820   22.4690 H   0  0  0  0  0  0  0  0  0  0  0  0
  -21.1150  -13.1320   22.2740 H   0  0  0  0  0  0  0  0  0  0  0  0
  -25.4010  -15.1810   20.3700 N   0  0  0  0  0  0  0  0  0  0  0  0
  -24.5570  -15.7370   20.3090 H   0  0  0  0  0  0  0  0  0  0  0  0
  -26.1960  -15.6160   19.9270 H   0  0  0  0  0  0  0  0  0  0  0  0
  -24.1600  -19.6200   24.5160 C   0  0  0  0  0  1  0  0  0  0  0  0
  -23.3310  -17.9800   22.7990 C   0  0  0  0  0  1  0  0  0  0  0  0
  -24.4990  -19.9890   22.0500 C   0  0  0  0  0  1  0  0  0  0  0  0
  -24.5080  -18.9150   23.1780 C   0  0  2  0  0  0  0  0  0  0  0  0
  -24.8830  -26.9070   24.9440 C   0  0  0  0  0  2  0  0  0  0  0  0
  -23.4930  -27.8050   25.3250 C   0  0  0  0  0  2  0  0  0  0  0  0
  -23.3700  -29.5000   25.1460 C   0  0  0  0  0  2  0  0  0  0  0  0
  -22.0900  -30.6020   24.7730 C   0  0  0  0  0  2  0  0  0  0  0  0
  -21.5550  -31.6960   23.4510 C   0  0  0  0  0  2  0  0  0  0  0  0
  -22.1590  -32.9460   22.3880 C   0  0  0  0  0  2  0  0  0  0  0  0
  -22.7210  -32.9750   20.7740 C   0  0  0  0  0  2  0  0  0  0  0  0
  -24.2500  -33.1150   20.0800 C   0  0  0  0  0  2  0  0  0  0  0  0
  -25.7880  -31.5200   18.3600 C   0  0  0  0  0  0  0  0  0  0  0  0
  -25.2460  -32.0090   19.5620 N   0  0  0  0  0  0  0  0  0  0  0  0
  -25.4290  -32.1140   17.3410 O   0  0  0  0  0  0  0  0  0  0  0  0
  -25.6510  -31.5120   20.3430 H   0  0  0  0  0  0  0  0  0  0  0  0
  -26.7110  -30.1520   18.0720 C   0  0  0  0  0  2  0  0  0  0  0  0
  -28.0510  -29.4820   18.8080 C   0  0  0  0  0  2  0  0  0  0  0  0
  -28.2220  -27.9830   19.1840 O   0  0  0  0  0  0  0  0  0  0  0  0
  -24.8250  -31.8260   23.2730 C   0  0  0  0  0  0  0  0  0  0  0  0
  -27.2300  -27.5690   19.9970 C   0  0  0  0  0  3  0  0  0  0  0  0
  -23.4140  -30.3030   21.5670 C   0  0  0  0  0  3  0  0  0  0  0  0
  -24.8230  -28.8460   20.1400 C   0  0  0  0  0  0  0  0  0  0  0  0
  -25.9500  -30.5060   21.7170 C   0  0  0  0  0  2  0  0  0  0  0  0
  -25.9100  -29.2530   20.9330 C   0  0  0  0  0  0  0  0  0  0  0  0
  -27.0600  -28.4840   21.0210 C   0  0  0  0  0  2  0  0  0  0  0  0
  -26.1290  -26.9690   19.3600 C   0  0  0  0  0  3  0  0  0  0  0  0
  -24.8900  -27.6310   19.4240 C   0  0  0  0  0  3  0  0  0  0  0  0
  -23.5950  -29.6980   20.1570 C   0  0  0  0  0  2  0  0  0  0  0  0
  -24.6730  -30.9590   22.2030 N   0  0  0  0  0  0  0  0  0  0  0  0
  -23.9430  -32.1870   23.9920 O   0  0  0  0  0  0  0  0  0  0  0  0
  -22.7390  -29.1570   22.2760 C   0  0  0  0  0  0  0  0  0  0  0  0
  -21.3880  -29.0990   22.2460 N   0  0  0  0  0  0  0  0  0  0  0  0
  -23.4410  -28.3010   22.7660 O   0  0  0  0  0  0  0  0  0  0  0  0
  -20.9230  -29.8240   21.7140 H   0  0  0  0  0  0  0  0  0  0  0  0
  -17.9760  -28.0810   22.7740 C   0  0  0  0  0  0  0  0  0  0  0  0
  -20.5220  -28.2820   23.0910 C   0  0  0  0  0  3  0  0  0  0  0  0
  -20.5610  -26.8270   22.6180 C   0  0  0  0  0  2  0  0  0  0  0  0
  -19.5710  -26.5860   21.4890 C   0  0  0  0  0  2  0  0  0  0  0  0
  -18.1690  -26.7390   22.0790 C   0  0  0  0  0  2  0  0  0  0  0  0
  -19.0850  -28.8310   23.2340 C   0  0  0  0  0  0  0  0  0  0  0  0
  -18.8160  -30.0560   23.8890 C   0  0  0  0  0  3  0  0  0  0  0  0
  -17.5230  -30.5770   24.0210 C   0  0  0  0  0  3  0  0  0  0  0  0
  -16.4390  -29.8190   23.5620 C   0  0  0  0  0  3  0  0  0  0  0  0
  -16.6630  -28.5650   22.9620 C   0  0  0  0  0  3  0  0  0  0  0  0
  -26.1270  -32.4580   23.8310 C   0  0  0  0  0  3  0  0  0  0  0  0
  -26.6350  -31.6750   25.1270 C   0  0  1  0  0  0  0  0  0  0  0  0
  -25.6100  -31.4800   26.2850 C   0  0  0  0  0  1  0  0  0  0  0  0
  -27.2070  -30.2710   24.8080 C   0  0  0  0  0  1  0  0  0  0  0  0
  -27.8370  -32.4500   25.7140 C   0  0  0  0  0  1  0  0  0  0  0  0
  -25.7670  -33.8580   24.2200 N   0  0  0  0  0  0  0  0  0  0  0  0
  -25.9630  -34.9460   23.4730 C   0  0  0  0  0  0  0  0  0  0  0  0
  -26.5930  -34.9000   22.4200 O   0  0  0  0  0  0  0  0  0  0  0  0
  -25.1530  -33.9590   25.0180 H   0  0  0  0  0  0  0  0  0  0  0  0
  -24.1570  -36.7160   23.2220 C   0  0  0  0  0  1  0  0  0  0  0  0
  -25.4170  -36.2980   23.9950 C   0  0  0  0  0  3  0  0  0  0  0  0
  -27.5520  -37.2080   24.8150 C   0  0  0  0  0  1  0  0  0  0  0  0
  -26.4070  -37.3950   23.9280 N   0  0  0  0  0  0  0  0  0  0  0  0
  -25.9660  -38.2790   24.1700 H   0  0  0  0  0  0  0  0  0  0  0  0
  1 60  1  0
  1  3  1  0
  2  1  1  0
  5  1  1  0
  5  4  1  0
  6  5  1  0
  7 10  2  0
  8  9  1  0
  9  7  1  0
  9  6  1  0
 11 17  2  0
 12 15  1  0
 12 14  1  0
 13 16  1  0
 14 16  1  0
 14  7  1  0
 15 26  1  0
 15 13  1  0
 16 11  1  0
 18 26  1  0
 19 24  1  0
 20 21  1  0
 20 19  1  0
 22 21  1  0
 22 31  1  0
 22 23  1  0
 24 18  1  0
 24 23  1  0
 25 18  2  0
 27 26  1  0
 28 29  2  0
 29 48  1  0
 30 29  1  0
 30 33  1  0
 31 28  1  0
 31 32  1  0
 32 30  2  0
 33 34  1  0
 34 35  2  0
 36 39  1  0
 36 35  1  0
 37 36  2  0
 38 37  1  0
 38 33  2  0
 39 40  1  0
 40 41  1  0
 41 42  2  0
 43 42  1  0
 43 47  1  0
 44 43  2  0
 45 40  2  0
 45 44  1  0
 46 45  1  0
 48 49  1  0
 49 52  1  0
 49 51  1  0
 50 48  2  0
 53 28  1  0
 54 53  1  0
 55 53  1  0
 59 57  1  6
 58 59  1  0
 59 11  1  0
 59 56  1  0
 60 61  1  0
 62 61  1  0
 63 62  1  0
 64 63  1  0
 65 64  1  0
 66 65  1  0
 67 66  1  0
 68 69  1  0
 69 67  1  0
 69 71  1  0
 70 68  2  0
 72 68  1  0
 72 73  1  0
 73 74  1  0
 75 86  2  0
 76 74  1  0
 76 81  1  0
 77 85  1  0
 77 87  1  0
 78 84  1  0
 78 80  2  0
 79 85  1  0
 80 81  1  0
 80 79  1  0
 82 83  2  0
 82 76  1  0
 83 78  1  0
 84 77  1  0
 85 75  1  0
 87 89  2  0
 88 87  1  0
 90 88  1  0
 91100  2  0
 91 96  1  0
 92 88  1  0
 92 96  1  0
 93 92  1  0
 94 95  1  0
 94 93  1  0
 95 91  1  0
 96 97  2  0
 97 98  1  0
 99 98  2  0
100 99  1  0
101 75  1  0
101106  1  0
101102  1  0
102105  1  1
102103  1  0
104102  1  0
106109  1  0
107111  1  0
107106  1  0
108107  2  0
111110  1  0
113111  1  0
113114  1  0
113112  1  0
M  ISO  4  18 100  26 100  73 101  74 101
M  END
>  <TORSDO>  (17) 
F 32

>  <SCORE>  (17) 
114.728

>  <name>  (17) 
16

>  <ligand_id>  (17) 
16

>  <original_smiles>  (17) 
[H]c1c([H])c([H])c2c(c1[H])C([H])([H])C([H])([H])C([H])([H])C2([H])N([H])C(=O)C1([H])N(C(=O)C([H])(N([H])C(=O)C([H])(N([H])C([H])([H])[H])C([H])([H])[H])C(C([H])([H])[H])(C([H])([H])[H])C([H])([H])[H])C([H])([H])c2c([H])c(OC([H])([H])C([H])([H])C(=O)N([H])C([H])([H])C([H])([H])C([H])([H])C([H])([H])C([H])([H])C([H])([H])C([H])([H])C([H])([H])[N+]([H])([H])C([H])(C([H])([H])[H])C([H])([H])N(C(=O)C3([H])N(C(=O)C(C([H])([H])[H])(C([H])([H])[H])C([H])([H])[H])C([H])([H])C([H])(N([H])C(=O)N4C([H])([H])C([H])([H])C([H])([H])C([H])(n5nc(-c6c([H])c([H])c(Oc7c([H])c([H])c(F)c([H])c7F)c([H])c6[H])c(C(=O)N([H])[H])c5N([H])[H])C4([H])[H])C3([H])[H])C([H])([H])[H])c([H])c([H])c2C1([H])[H]

>  <smiles>  (17) 
[H]c1c([H])c([H])c2c(c1[H])C([H])([H])C([H])([H])C([H])([H])C2([H])N([H])C(=O)C1([H])N(C(=O)C([H])(N([H])C(=O)C([H])(N([H])C([H])([H])[H])C([H])([H])[H])C(C([H])([H])[H])(C([H])([H])[H])C([H])([H])[H])C([H])([H])c2c([H])c(OC([H])([H])C([H])([H])C(=O)N([H])C([H])([H])C([H])([H])C([H])([H])C([H])([H])C([H])([H])C([H])([H])C([H])([H])C([H])([H])[N+]([H])([H])C([H])(C([H])([H])[H])C([H])([H])N(C(=O)C3([H])N(C(=O)C(C([H])([H])[H])(C([H])([H])[H])C([H])([H])[H])C([H])([H])C([H])(N([H])C(=O)N4C([H])([H])C([H])([H])C([H])([H])C([H])(n5nc(-c6c([H])c([H])c(Oc7c([H])c([H])c(F)c([H])c7F)c([H])c6[H])c(C(=O)N([H])[H])c5N([H])[H])C4([H])[H])C3([H])[H])C([H])([H])[H])c([H])c([H])c2C1([H])[H]

$$$$
17:0:0
     RDKit          3D

 95103  0  0  1  0  0  0  0  0999 V2000
  -29.0930  -19.2370   20.0470 C   0  0  0  0  0  3  0  0  0  0  0  0
  -31.3430  -18.4860   20.5430 C   0  0  0  0  0  3  0  0  0  0  0  0
  -30.7780  -20.9080   20.4660 C   0  0  0  0  0  3  0  0  0  0  0  0
  -30.0280  -18.0680   20.2320 C   0  0  0  0  0  0  0  0  0  0  0  0
  -29.4140  -20.7150   20.1400 C   0  0  0  0  0  0  0  0  0  0  0  0
  -31.7070  -19.8540   20.6680 C   0  0  0  0  0  0  0  0  0  0  0  0
  -30.5520  -15.3240   20.2290 C   0  0  0  0  0  0  0  0  0  0  0  0
  -30.5280  -12.8870   19.4550 C   0  0  0  0  0  2  0  0  0  0  0  0
  -29.6360  -12.6790   18.2080 C   0  0  0  0  0  2  0  0  0  0  0  0
  -28.1710  -12.4430   18.6180 C   0  0  0  0  0  2  0  0  0  0  0  0
  -27.6930  -13.4530   19.6940 C   0  0  0  0  0  3  0  0  0  0  0  0
  -28.7130  -13.6190   20.8420 C   0  0  0  0  0  2  0  0  0  0  0  0
  -29.9770  -14.0450   20.2260 N   0  0  0  0  0  0  0  0  0  0  0  0
  -31.7720  -15.3600   20.0300 O   0  0  0  0  0  0  0  0  0  0  0  0
  -29.7500  -16.5280   20.2020 N   0  0  0  0  0  0  0  0  0  0  0  0
  -28.7670  -16.3040   20.1710 H   0  0  0  0  0  0  0  0  0  0  0  0
  -25.3200  -14.0360   20.4420 C   0  0  0  0  0  0  0  0  0  0  0  0
  -24.2430  -13.2640   20.7790 C   0  0  0  0  0  0  0  0  0  0  0  0
  -24.6880  -11.9080   20.7060 C   0  0  0  0  0  0  0  0  0  0  0  0
  -26.3520  -13.1520   20.1790 N   0  0  0  0  0  0  0  0  0  0  0  0
  -25.9820  -11.8650   20.4060 N   0  0  0  0  0  0  0  0  0  0  0  0
  -23.9420  -10.6510   20.8470 C   0  0  0  0  0  0  0  0  0  0  0  0
  -24.3500   -9.6460   21.7500 C   0  0  0  0  0  3  0  0  0  0  0  0
  -23.6020   -8.4560   21.8830 C   0  0  0  0  0  3  0  0  0  0  0  0
  -22.4310   -8.2630   21.1120 C   0  0  0  0  0  0  0  0  0  0  0  0
  -22.0410   -9.2580   20.1980 C   0  0  0  0  0  3  0  0  0  0  0  0
  -22.7900  -10.4390   20.0640 C   0  0  0  0  0  3  0  0  0  0  0  0
  -21.6560   -7.1290   21.1550 O   0  0  0  0  0  0  0  0  0  0  0  0
  -21.5930   -6.3430   22.2780 C   0  0  0  0  0  0  0  0  0  0  0  0
  -21.1710   -6.8550   23.5240 C   0  0  0  0  0  3  0  0  0  0  0  0
  -21.0540   -5.9970   24.6350 C   0  0  0  0  0  3  0  0  0  0  0  0
  -21.3500   -4.6260   24.5010 C   0  0  0  0  0  0  0  0  0  0  0  0
  -21.7660   -4.1130   23.2600 C   0  0  0  0  0  3  0  0  0  0  0  0
  -21.8840   -4.9700   22.1510 C   0  0  0  0  0  0  0  0  0  0  0  0
  -22.2650   -4.4660   20.9520 F   0  0  0  0  0  0  0  0  0  0  0  0
  -21.2310   -3.8000   25.5670 F   0  0  0  0  0  0  0  0  0  0  0  0
  -22.8510  -13.7540   21.0500 C   0  0  0  0  0  0  0  0  0  0  0  0
  -22.1090  -13.0530   21.9000 N   0  0  0  0  0  0  0  0  0  0  0  0
  -22.4290  -14.7930   20.5430 O   0  0  0  0  0  0  0  0  0  0  0  0
  -22.4640  -12.2120   22.3300 H   0  0  0  0  0  0  0  0  0  0  0  0
  -21.1740  -13.3620   22.1230 H   0  0  0  0  0  0  0  0  0  0  0  0
  -25.5010  -15.4090   20.3100 N   0  0  0  0  0  0  0  0  0  0  0  0
  -24.7360  -16.0640   20.4310 H   0  0  0  0  0  0  0  0  0  0  0  0
  -26.3440  -15.8490   19.9660 H   0  0  0  0  0  0  0  0  0  0  0  0
  -28.7450  -23.4310   20.1010 C   0  0  0  0  0  0  0  0  0  0  0  0
  -27.1640  -21.7190   19.4170 C   0  0  0  0  0  1  0  0  0  0  0  0
  -28.5090  -21.9970   19.9220 N   0  0  0  0  0  0  0  0  0  0  0  0
  -29.8200  -23.8160   20.5680 O   0  0  0  0  0  0  0  0  0  0  0  0
  -27.6710  -24.6960   19.7590 C   0  0  0  0  0  2  0  0  0  0  0  0
  -27.9940  -26.2490   19.8580 O   0  0  0  0  0  0  0  0  0  0  0  0
  -24.5030  -31.9510   23.0870 C   0  0  0  0  0  0  0  0  0  0  0  0
  -26.9550  -27.2720   19.8450 C   0  0  0  0  0  0  0  0  0  0  0  0
  -23.2340  -30.5750   21.4860 C   0  0  0  0  0  3  0  0  0  0  0  0
  -24.6230  -29.0380   19.9550 C   0  0  0  0  0  0  0  0  0  0  0  0
  -25.7780  -30.8540   21.2000 C   0  0  0  0  0  2  0  0  0  0  0  0
  -25.8310  -29.4710   20.5160 C   0  0  0  0  0  0  0  0  0  0  0  0
  -26.9940  -28.6050   20.4450 C   0  0  0  0  0  3  0  0  0  0  0  0
  -25.7180  -26.9620   19.2370 C   0  0  0  0  0  3  0  0  0  0  0  0
  -24.5830  -27.8000   19.2950 C   0  0  0  0  0  3  0  0  0  0  0  0
  -23.3920  -29.9270   20.0840 C   0  0  0  0  0  2  0  0  0  0  0  0
  -24.5280  -31.1480   21.9790 N   0  0  0  0  0  0  0  0  0  0  0  0
  -23.4420  -32.2190   23.6730 O   0  0  0  0  0  0  0  0  0  0  0  0
  -22.6100  -29.5460   22.4630 C   0  0  0  0  0  0  0  0  0  0  0  0
  -21.2850  -29.3380   22.3770 N   0  0  0  0  0  0  0  0  0  0  0  0
  -23.3230  -28.9370   23.2650 O   0  0  0  0  0  0  0  0  0  0  0  0
  -20.7600  -29.8830   21.7070 H   0  0  0  0  0  0  0  0  0  0  0  0
  -17.9710  -27.9770   22.9250 C   0  0  0  0  0  0  0  0  0  0  0  0
  -20.5150  -28.3730   23.1700 C   0  0  0  0  0  3  0  0  0  0  0  0
  -20.6850  -26.9400   22.6170 C   0  0  0  0  0  2  0  0  0  0  0  0
  -19.5950  -26.5450   21.6160 C   0  0  0  0  0  2  0  0  0  0  0  0
  -18.2120  -26.6300   22.2670 C   0  0  0  0  0  2  0  0  0  0  0  0
  -19.0520  -28.8020   23.3340 C   0  0  0  0  0  0  0  0  0  0  0  0
  -18.7720  -30.0590   23.9150 C   0  0  0  0  0  3  0  0  0  0  0  0
  -17.4460  -30.4950   24.0850 C   0  0  0  0  0  3  0  0  0  0  0  0
  -16.3780  -29.6690   23.6910 C   0  0  0  0  0  3  0  0  0  0  0  0
  -16.6420  -28.4110   23.1180 C   0  0  0  0  0  3  0  0  0  0  0  0
  -25.8030  -32.5930   23.6600 C   0  0  0  0  0  3  0  0  0  0  0  0
  -25.4930  -33.9820   24.0370 N   0  0  0  0  0  0  0  0  0  0  0  0
  -25.8500  -35.0640   23.3300 C   0  0  0  0  0  0  0  0  0  0  0  0
  -26.5360  -34.9950   22.3080 O   0  0  0  0  0  0  0  0  0  0  0  0
  -24.8870  -34.1090   24.8330 H   0  0  0  0  0  0  0  0  0  0  0  0
  -24.1600  -36.9020   23.0080 C   0  0  0  0  0  1  0  0  0  0  0  0
  -25.3670  -36.4380   23.8380 C   0  0  0  0  0  3  0  0  0  0  0  0
  -27.4820  -37.2540   24.7800 C   0  0  0  0  0  1  0  0  0  0  0  0
  -26.4170  -37.4790   23.8080 N   0  0  0  0  0  0  0  0  0  0  0  0
  -26.0210  -38.3990   23.9810 H   0  0  0  0  0  0  0  0  0  0  0  0
  -26.3860  -31.8060   24.9000 C   0  0  1  0  0  0  0  0  0  0  0  0
  -25.3500  -31.5530   26.0200 C   0  0  0  0  0  1  0  0  0  0  0  0
  -26.9510  -30.4350   24.4670 C   0  0  0  0  0  1  0  0  0  0  0  0
  -27.5680  -32.5940   25.5110 C   0  0  0  0  0  1  0  0  0  0  0  0
  -33.0210  -20.2090   21.0310 N   0  0  0  0  0  0  0  0  0  0  0  0
  -35.2900  -19.9240   20.0760 C   0  0  0  0  0  1  0  0  0  0  0  0
  -34.1010  -19.2560   20.7780 C   0  0  0  0  0  2  0  0  0  0  0  0
  -32.6210  -20.6040   23.4630 C   0  0  0  0  0  1  0  0  0  0  0  0
  -33.1310  -21.1690   22.1290 C   0  0  0  0  0  2  0  0  0  0  0  0
  1  5  2  0
  1  4  1  0
  2  6  1  0
  3  6  2  0
  4  2  2  0
  5  3  1  0
  6 91  1  0
  8 13  1  0
  9 10  1  0
  9  8  1  0
 11 10  1  0
 11 20  1  0
 11 12  1  0
 13  7  1  0
 13 12  1  0
 14  7  2  0
 15  7  1  0
 15  4  1  0
 16 15  1  0
 17 18  2  0
 18 37  1  0
 19 18  1  0
 19 22  1  0
 20 21  1  0
 20 17  1  0
 21 19  2  0
 22 23  1  0
 23 24  2  0
 25 28  1  0
 25 24  1  0
 26 25  2  0
 27 26  1  0
 27 22  2  0
 28 29  1  0
 29 30  1  0
 30 31  2  0
 32 31  1  0
 32 36  1  0
 33 32  2  0
 34 29  2  0
 34 33  1  0
 35 34  1  0
 37 38  1  0
 38 41  1  0
 38 40  1  0
 39 37  2  0
 42 43  1  0
 42 17  1  0
 44 42  1  0
 45 48  2  0
 46 47  1  0
 47 45  1  0
 47  5  1  0
 49 50  1  0
 49 45  1  0
 51 62  2  0
 52 50  1  0
 52 57  1  0
 53 61  1  0
 53 63  1  0
 54 60  1  0
 54 56  1  0
 55 61  1  0
 56 55  1  0
 57 56  2  0
 58 59  1  0
 58 52  2  0
 59 54  2  0
 60 53  1  0
 61 51  1  0
 63 65  2  0
 64 63  1  0
 66 64  1  0
 67 76  2  0
 67 72  1  0
 68 64  1  0
 68 72  1  0
 69 68  1  0
 70 71  1  0
 70 69  1  0
 71 67  1  0
 72 73  2  0
 73 74  1  0
 75 74  2  0
 76 75  1  0
 77 51  1  0
 77 78  1  0
 77 87  1  0
 78 81  1  0
 79 83  1  0
 79 78  1  0
 80 79  2  0
 83 82  1  0
 85 83  1  0
 85 86  1  0
 85 84  1  0
 87 90  1  1
 87 88  1  0
 89 87  1  0
 91 95  1  0
 92 93  1  0
 93 91  1  0
 95 94  1  0
M  ISO  4   7 100  15 100  49 101  50 101
M  END
>  <TORSDO>  (18) 
F 21

>  <SCORE>  (18) 
-13.344

>  <name>  (18) 
17

>  <ligand_id>  (18) 
17

>  <original_smiles>  (18) 
[H]c1c([H])c([H])c2c(c1[H])C([H])([H])C([H])([H])C([H])([H])C2([H])N([H])C(=O)C1([H])N(C(=O)C([H])(N([H])C(=O)C([H])(N([H])C([H])([H])[H])C([H])([H])[H])C(C([H])([H])[H])(C([H])([H])[H])C([H])([H])[H])C([H])([H])c2c([H])c(OC([H])([H])C(=O)N(c3c([H])c(N([H])C(=O)N4C([H])([H])C([H])([H])C([H])([H])C([H])(n5nc(-c6c([H])c([H])c(Oc7c([H])c([H])c(F)c([H])c7F)c([H])c6[H])c(C(=O)N([H])[H])c5N([H])[H])C4([H])[H])c([H])c(N(C([H])([H])C([H])([H])[H])C([H])([H])C([H])([H])[H])c3[H])C([H])([H])[H])c([H])c([H])c2C1([H])[H]

>  <smiles>  (18) 
[H]c1c([H])c([H])c2c(c1[H])C([H])([H])C([H])([H])C([H])([H])C2([H])N([H])C(=O)C1([H])N(C(=O)C([H])(N([H])C(=O)C([H])(N([H])C([H])([H])[H])C([H])([H])[H])C(C([H])([H])[H])(C([H])([H])[H])C([H])([H])[H])C([H])([H])c2c([H])c(OC([H])([H])C(=O)N(c3c([H])c(N([H])C(=O)N4C([H])([H])C([H])([H])C([H])([H])C([H])(n5nc(-c6c([H])c([H])c(Oc7c([H])c([H])c(F)c([H])c7F)c([H])c6[H])c(C(=O)N([H])[H])c5N([H])[H])C4([H])[H])c([H])c(N(C([H])([H])C([H])([H])[H])C([H])([H])C([H])([H])[H])c3[H])C([H])([H])[H])c([H])c([H])c2C1([H])[H]

$$$$
18:0:0
     RDKit          3D

 91 99  0  0  1  0  0  0  0  0999 V2000
  -28.8640  -23.4360   20.4200 C   0  0  0  0  0  0  0  0  0  0  0  0
  -28.5660  -22.1230   19.9750 N   0  0  0  0  0  0  0  0  0  0  0  0
  -29.8230  -23.6340   21.1690 O   0  0  0  0  0  0  0  0  0  0  0  0
  -27.7870  -22.1740   19.3320 H   0  0  0  0  0  0  0  0  0  0  0  0
  -29.9680  -20.0950   21.0900 C   0  0  0  0  0  3  0  0  0  0  0  0
  -30.2410  -18.6590   21.2010 C   0  0  0  0  0  3  0  0  0  0  0  0
  -28.4700  -19.6430   19.3310 C   0  0  0  0  0  3  0  0  0  0  0  0
  -28.7380  -18.2200   19.4300 C   0  0  0  0  0  0  0  0  0  0  0  0
  -29.0390  -20.6720   20.1540 C   0  0  0  0  0  0  0  0  0  0  0  0
  -29.6360  -17.6320   20.3850 C   0  0  0  0  0  0  0  0  0  0  0  0
  -27.9880  -17.3060   18.4760 C   0  0  0  0  0  1  0  0  0  0  0  0
  -30.5120  -15.0110   20.4260 C   0  0  0  0  0  0  0  0  0  0  0  0
  -30.4420  -12.6530   19.5020 C   0  0  0  0  0  2  0  0  0  0  0  0
  -29.5160  -12.6120   18.2620 C   0  0  0  0  0  2  0  0  0  0  0  0
  -28.0470  -12.4000   18.6790 C   0  0  0  0  0  2  0  0  0  0  0  0
  -27.6280  -13.3220   19.8530 C   0  0  0  0  0  3  0  0  0  0  0  0
  -28.6730  -13.3200   20.9900 C   0  0  0  0  0  2  0  0  0  0  0  0
  -29.9550  -13.7350   20.4020 N   0  0  0  0  0  0  0  0  0  0  0  0
  -31.7030  -15.1280   20.1210 O   0  0  0  0  0  0  0  0  0  0  0  0
  -29.6580  -16.1200   20.6440 N   0  0  0  0  0  0  0  0  0  0  0  0
  -28.7370  -15.7720   20.8630 H   0  0  0  0  0  0  0  0  0  0  0  0
  -25.2330  -13.8960   20.5660 C   0  0  0  0  0  0  0  0  0  0  0  0
  -24.1680  -13.1180   20.9240 C   0  0  0  0  0  0  0  0  0  0  0  0
  -24.6370  -11.7690   20.8970 C   0  0  0  0  0  0  0  0  0  0  0  0
  -26.2830  -13.0210   20.3370 N   0  0  0  0  0  0  0  0  0  0  0  0
  -25.9320  -11.7360   20.6010 N   0  0  0  0  0  0  0  0  0  0  0  0
  -23.9120  -10.5040   21.0800 C   0  0  0  0  0  0  0  0  0  0  0  0
  -24.3390   -9.5370   22.0160 C   0  0  0  0  0  3  0  0  0  0  0  0
  -23.6130   -8.3380   22.1880 C   0  0  0  0  0  3  0  0  0  0  0  0
  -22.4460   -8.1000   21.4240 C   0  0  0  0  0  0  0  0  0  0  0  0
  -22.0390   -9.0560   20.4770 C   0  0  0  0  0  3  0  0  0  0  0  0
  -22.7650  -10.2460   20.3030 C   0  0  0  0  0  3  0  0  0  0  0  0
  -21.6920   -6.9540   21.5040 O   0  0  0  0  0  0  0  0  0  0  0  0
  -21.6370   -6.2070   22.6540 C   0  0  0  0  0  0  0  0  0  0  0  0
  -21.1860   -6.7540   23.8750 C   0  0  0  0  0  3  0  0  0  0  0  0
  -21.0800   -5.9340   25.0170 C   0  0  0  0  0  3  0  0  0  0  0  0
  -21.4140   -4.5690   24.9370 C   0  0  0  0  0  0  0  0  0  0  0  0
  -21.8580   -4.0220   23.7200 C   0  0  0  0  0  3  0  0  0  0  0  0
  -21.9660   -4.8390   22.5810 C   0  0  0  0  0  0  0  0  0  0  0  0
  -22.3740   -4.3030   21.4060 F   0  0  0  0  0  0  0  0  0  0  0  0
  -21.3050   -3.7790   26.0310 F   0  0  0  0  0  0  0  0  0  0  0  0
  -22.7670  -13.5910   21.1790 C   0  0  0  0  0  0  0  0  0  0  0  0
  -22.0340  -12.8980   22.0440 N   0  0  0  0  0  0  0  0  0  0  0  0
  -22.3300  -14.6110   20.6490 O   0  0  0  0  0  0  0  0  0  0  0  0
  -22.3990  -12.0730   22.4940 H   0  0  0  0  0  0  0  0  0  0  0  0
  -21.0920  -13.1980   22.2570 H   0  0  0  0  0  0  0  0  0  0  0  0
  -25.3910  -15.2670   20.3940 N   0  0  0  0  0  0  0  0  0  0  0  0
  -24.6150  -15.9110   20.5050 H   0  0  0  0  0  0  0  0  0  0  0  0
  -26.2350  -15.7180   20.0710 H   0  0  0  0  0  0  0  0  0  0  0  0
  -27.9360  -24.7350   19.9640 C   0  0  0  0  0  2  0  0  0  0  0  0
  -28.2350  -26.2250   20.3050 O   0  0  0  0  0  0  0  0  0  0  0  0
  -24.6230  -31.9270   23.2730 C   0  0  0  0  0  0  0  0  0  0  0  0
  -27.1900  -27.2200   20.2250 C   0  0  0  0  0  0  0  0  0  0  0  0
  -23.4170  -30.5340   21.6370 C   0  0  0  0  0  3  0  0  0  0  0  0
  -24.8610  -28.9650   20.2030 C   0  0  0  0  0  0  0  0  0  0  0  0
  -25.9710  -30.7980   21.4670 C   0  0  0  0  0  2  0  0  0  0  0  0
  -26.0420  -29.4070   20.8110 C   0  0  0  0  0  0  0  0  0  0  0  0
  -27.2060  -28.5490   20.8100 C   0  0  0  0  0  3  0  0  0  0  0  0
  -25.9830  -26.8860   19.5660 C   0  0  0  0  0  3  0  0  0  0  0  0
  -24.8440  -27.7170   19.5660 C   0  0  0  0  0  3  0  0  0  0  0  0
  -23.6330  -29.8600   20.2570 C   0  0  0  0  0  2  0  0  0  0  0  0
  -24.6910  -31.1070   22.1800 N   0  0  0  0  0  0  0  0  0  0  0  0
  -23.5390  -32.2120   23.8050 O   0  0  0  0  0  0  0  0  0  0  0  0
  -22.7410  -29.5250   22.6000 C   0  0  0  0  0  0  0  0  0  0  0  0
  -21.4140  -29.3490   22.4720 N   0  0  0  0  0  0  0  0  0  0  0  0
  -23.4130  -28.9030   23.4270 O   0  0  0  0  0  0  0  0  0  0  0  0
  -20.9270  -29.9030   21.7790 H   0  0  0  0  0  0  0  0  0  0  0  0
  -18.0360  -28.1340   22.9650 C   0  0  0  0  0  0  0  0  0  0  0  0
  -20.5930  -28.4120   23.2430 C   0  0  0  0  0  3  0  0  0  0  0  0
  -20.7060  -26.9760   22.6790 C   0  0  0  0  0  2  0  0  0  0  0  0
  -19.6110  -26.6410   21.6610 C   0  0  0  0  0  2  0  0  0  0  0  0
  -18.2240  -26.7820   22.2970 C   0  0  0  0  0  2  0  0  0  0  0  0
  -19.1480  -28.9060   23.3950 C   0  0  0  0  0  0  0  0  0  0  0  0
  -18.9180  -30.1690   23.9810 C   0  0  0  0  0  3  0  0  0  0  0  0
  -17.6080  -30.6610   24.1400 C   0  0  0  0  0  3  0  0  0  0  0  0
  -16.5120  -29.8870   23.7250 C   0  0  0  0  0  3  0  0  0  0  0  0
  -16.7260  -28.6240   23.1440 C   0  0  0  0  0  3  0  0  0  0  0  0
  -25.9040  -32.5610   23.8960 C   0  0  0  0  0  3  0  0  0  0  0  0
  -25.6010  -33.9650   24.2100 N   0  0  0  0  0  0  0  0  0  0  0  0
  -25.9210  -35.0090   23.4320 C   0  0  0  0  0  0  0  0  0  0  0  0
  -26.5700  -34.8890   22.3900 O   0  0  0  0  0  0  0  0  0  0  0  0
  -25.0230  -34.1320   25.0200 H   0  0  0  0  0  0  0  0  0  0  0  0
  -24.1810  -36.7980   23.1060 C   0  0  0  0  0  1  0  0  0  0  0  0
  -25.4500  -36.4060   23.8830 C   0  0  0  0  0  3  0  0  0  0  0  0
  -27.6080  -37.3090   24.6280 C   0  0  0  0  0  1  0  0  0  0  0  0
  -26.4770  -37.4580   23.7160 N   0  0  0  0  0  0  0  0  0  0  0  0
  -26.0740  -38.3800   23.8570 H   0  0  0  0  0  0  0  0  0  0  0  0
  -26.4040  -31.8050   25.1890 C   0  0  1  0  0  0  0  0  0  0  0  0
  -25.3010  -31.5930   26.2520 C   0  0  0  0  0  1  0  0  0  0  0  0
  -26.9790  -30.4150   24.8270 C   0  0  0  0  0  1  0  0  0  0  0  0
  -27.5560  -32.6000   25.8470 C   0  0  0  0  0  1  0  0  0  0  0  0
  1  3  2  0
  2  9  1  0
  2  1  1  0
  4  2  1  0
  5  6  1  0
  7  8  2  0
  7  9  1  0
  8 10  1  0
  9  5  2  0
 10 20  1  0
 10  6  2  0
 11  8  1  0
 12 20  1  0
 13 18  1  0
 14 15  1  0
 14 13  1  0
 16 15  1  0
 16 25  1  0
 16 17  1  0
 18 12  1  0
 18 17  1  0
 19 12  2  0
 20 21  1  0
 22 23  2  0
 23 42  1  0
 24 23  1  0
 24 27  1  0
 25 22  1  0
 25 26  1  0
 26 24  2  0
 27 28  1  0
 28 29  2  0
 30 33  1  0
 30 29  1  0
 31 30  2  0
 32 31  1  0
 32 27  2  0
 33 34  1  0
 34 35  1  0
 35 36  2  0
 37 36  1  0
 37 41  1  0
 38 37  2  0
 39 34  2  0
 39 38  1  0
 40 39  1  0
 42 43  1  0
 43 46  1  0
 43 45  1  0
 44 42  2  0
 47 48  1  0
 47 22  1  0
 49 47  1  0
 50 51  1  0
 50  1  1  0
 52 63  2  0
 53 51  1  0
 53 58  1  0
 54 62  1  0
 54 64  1  0
 55 61  1  0
 55 57  1  0
 56 62  1  0
 57 56  1  0
 58 57  2  0
 59 60  1  0
 59 53  2  0
 60 55  2  0
 61 54  1  0
 62 52  1  0
 64 66  2  0
 65 64  1  0
 67 65  1  0
 68 77  2  0
 68 73  1  0
 69 65  1  0
 69 73  1  0
 70 69  1  0
 71 72  1  0
 71 70  1  0
 72 68  1  0
 73 74  2  0
 74 75  1  0
 76 75  2  0
 77 76  1  0
 78 52  1  0
 78 79  1  0
 78 88  1  0
 79 82  1  0
 80 84  1  0
 80 79  1  0
 81 80  2  0
 84 83  1  0
 86 87  1  0
 86 84  1  0
 86 85  1  0
 88 91  1  1
 88 89  1  0
 90 88  1  0
M  ISO  4  12 100  20 100  50 101  51 101
M  END
>  <TORSDO>  (19) 
F 18

>  <SCORE>  (19) 
-14.712

>  <name>  (19) 
18

>  <ligand_id>  (19) 
18

>  <original_smiles>  (19) 
[H]c1c([H])c([H])c2c(c1[H])C([H])([H])C([H])([H])C([H])([H])C2([H])N([H])C(=O)C1([H])N(C(=O)C([H])(N([H])C(=O)C([H])(N([H])C([H])([H])[H])C([H])([H])[H])C(C([H])([H])[H])(C([H])([H])[H])C([H])([H])[H])C([H])([H])c2c([H])c(OC([H])([H])C(=O)N([H])c3c([H])c([H])c(N([H])C(=O)N4C([H])([H])C([H])([H])C([H])([H])C([H])(n5nc(-c6c([H])c([H])c(Oc7c([H])c([H])c(F)c([H])c7F)c([H])c6[H])c(C(=O)N([H])[H])c5N([H])[H])C4([H])[H])c(C([H])([H])[H])c3[H])c([H])c([H])c2C1([H])[H]

>  <smiles>  (19) 
[H]c1c([H])c([H])c2c(c1[H])C([H])([H])C([H])([H])C([H])([H])C2([H])N([H])C(=O)C1([H])N(C(=O)C([H])(N([H])C(=O)C([H])(N([H])C([H])([H])[H])C([H])([H])[H])C(C([H])([H])[H])(C([H])([H])[H])C([H])([H])[H])C([H])([H])c2c([H])c(OC([H])([H])C(=O)N([H])c3c([H])c([H])c(N([H])C(=O)N4C([H])([H])C([H])([H])C([H])([H])C([H])(n5nc(-c6c([H])c([H])c(Oc7c([H])c([H])c(F)c([H])c7F)c([H])c6[H])c(C(=O)N([H])[H])c5N([H])[H])C4([H])[H])c(C([H])([H])[H])c3[H])c([H])c([H])c2C1([H])[H]

$$$$
19:0:0
     RDKit          3D

 90 98  0  0  1  0  0  0  0  0999 V2000
  -30.6490  -19.8080   19.2030 C   0  0  0  0  0  3  0  0  0  0  0  0
  -30.7840  -18.3780   19.4130 C   0  0  0  0  0  3  0  0  0  0  0  0
  -28.4570  -19.7800   20.0310 C   0  0  0  0  0  3  0  0  0  0  0  0
  -28.5690  -18.3360   20.2200 C   0  0  0  0  0  0  0  0  0  0  0  0
  -29.4880  -20.6240   19.5030 C   0  0  0  0  0  0  0  0  0  0  0  0
  -29.7460  -17.5450   19.9240 C   0  0  0  0  0  0  0  0  0  0  0  0
  -27.3430  -17.6150   20.7520 C   0  0  0  0  0  1  0  0  0  0  0  0
  -30.5790  -14.9230   19.6700 C   0  0  0  0  0  0  0  0  0  0  0  0
  -30.4270  -12.5870   18.6990 C   0  0  0  0  0  2  0  0  0  0  0  0
  -29.3770  -12.5700   17.5620 C   0  0  0  0  0  2  0  0  0  0  0  0
  -27.9660  -12.3270   18.1270 C   0  0  0  0  0  2  0  0  0  0  0  0
  -27.6660  -13.2210   19.3590 C   0  0  0  0  0  3  0  0  0  0  0  0
  -28.8220  -13.2010   20.3830 C   0  0  0  0  0  2  0  0  0  0  0  0
  -30.0340  -13.6410   19.6760 N   0  0  0  0  0  0  0  0  0  0  0  0
  -31.7140  -15.0630   19.2030 O   0  0  0  0  0  0  0  0  0  0  0  0
  -29.7730  -16.0190   20.0730 N   0  0  0  0  0  0  0  0  0  0  0  0
  -28.9500  -15.6730   20.5410 H   0  0  0  0  0  0  0  0  0  0  0  0
  -25.3660  -13.7610   20.3470 C   0  0  0  0  0  0  0  0  0  0  0  0
  -24.3460  -12.9680   20.7940 C   0  0  0  0  0  0  0  0  0  0  0  0
  -24.8020  -11.6210   20.6550 C   0  0  0  0  0  0  0  0  0  0  0  0
  -26.3810  -12.8980   19.9700 N   0  0  0  0  0  0  0  0  0  0  0  0
  -26.0560  -11.6030   20.2150 N   0  0  0  0  0  0  0  0  0  0  0  0
  -24.0960  -10.3490   20.8580 C   0  0  0  0  0  0  0  0  0  0  0  0
  -24.5430   -9.3970   21.8000 C   0  0  0  0  0  3  0  0  0  0  0  0
  -23.8350   -8.1910   21.9920 C   0  0  0  0  0  3  0  0  0  0  0  0
  -22.6650   -7.9290   21.2390 C   0  0  0  0  0  0  0  0  0  0  0  0
  -22.2380   -8.8690   20.2850 C   0  0  0  0  0  3  0  0  0  0  0  0
  -22.9470  -10.0650   20.0920 C   0  0  0  0  0  3  0  0  0  0  0  0
  -21.9280   -6.7730   21.3380 O   0  0  0  0  0  0  0  0  0  0  0  0
  -21.7930   -6.1070   22.5290 C   0  0  0  0  0  0  0  0  0  0  0  0
  -21.2070   -6.7150   23.6610 C   0  0  0  0  0  3  0  0  0  0  0  0
  -21.0250   -5.9710   24.8440 C   0  0  0  0  0  3  0  0  0  0  0  0
  -21.4180   -4.6210   24.8950 C   0  0  0  0  0  0  0  0  0  0  0  0
  -21.9960   -4.0110   23.7670 C   0  0  0  0  0  3  0  0  0  0  0  0
  -22.1800   -4.7530   22.5860 C   0  0  0  0  0  0  0  0  0  0  0  0
  -22.7180   -4.1560   21.4960 F   0  0  0  0  0  0  0  0  0  0  0  0
  -21.2350   -3.9030   26.0280 F   0  0  0  0  0  0  0  0  0  0  0  0
  -22.9840  -13.4290   21.2260 C   0  0  0  0  0  0  0  0  0  0  0  0
  -22.3490  -12.6970   22.1350 N   0  0  0  0  0  0  0  0  0  0  0  0
  -22.4960  -14.4730   20.7940 O   0  0  0  0  0  0  0  0  0  0  0  0
  -22.7590  -11.8520   22.5020 H   0  0  0  0  0  0  0  0  0  0  0  0
  -21.4420  -12.9880   22.4700 H   0  0  0  0  0  0  0  0  0  0  0  0
  -25.5080  -15.1360   20.2020 N   0  0  0  0  0  0  0  0  0  0  0  0
  -24.7270  -15.7670   20.3540 H   0  0  0  0  0  0  0  0  0  0  0  0
  -26.2790  -15.5750   19.7180 H   0  0  0  0  0  0  0  0  0  0  0  0
  -30.6580  -22.5940   18.6320 C   0  0  0  0  0  1  0  0  0  0  0  0
  -29.4240  -22.1050   19.2510 N   0  0  0  0  0  0  0  0  0  0  0  0
  -28.5940  -23.2780   19.8620 C   0  0  0  0  0  2  0  0  0  0  0  0
  -28.3320  -24.7350   19.0470 C   0  0  0  0  0  2  0  0  0  0  0  0
  -28.3270  -26.1820   19.6090 O   0  0  0  0  0  0  0  0  0  0  0  0
  -24.6100  -31.5850   22.9000 C   0  0  0  0  0  0  0  0  0  0  0  0
  -27.2320  -27.1180   19.5660 C   0  0  0  0  0  0  0  0  0  0  0  0
  -23.4170  -30.2750   21.1890 C   0  0  0  0  0  3  0  0  0  0  0  0
  -24.8740  -28.8140   19.6610 C   0  0  0  0  0  0  0  0  0  0  0  0
  -25.9650  -30.5880   21.0260 C   0  0  0  0  0  2  0  0  0  0  0  0
  -26.0490  -29.2420   20.2880 C   0  0  0  0  0  0  0  0  0  0  0  0
  -27.2240  -28.4070   20.2310 C   0  0  0  0  0  3  0  0  0  0  0  0
  -26.0260  -26.7900   18.9040 C   0  0  0  0  0  3  0  0  0  0  0  0
  -24.8720  -27.5990   18.9610 C   0  0  0  0  0  3  0  0  0  0  0  0
  -23.6370  -29.6900   19.7690 C   0  0  0  0  0  2  0  0  0  0  0  0
  -24.6830  -30.8330   21.7610 N   0  0  0  0  0  0  0  0  0  0  0  0
  -23.5250  -31.8220   23.4530 O   0  0  0  0  0  0  0  0  0  0  0  0
  -22.7650  -29.1980   22.0930 C   0  0  0  0  0  0  0  0  0  0  0  0
  -21.4310  -29.0510   22.0040 N   0  0  0  0  0  0  0  0  0  0  0  0
  -23.4580  -28.5050   22.8420 O   0  0  0  0  0  0  0  0  0  0  0  0
  -20.9280  -29.6660   21.3810 H   0  0  0  0  0  0  0  0  0  0  0  0
  -18.0460  -27.8980   22.5890 C   0  0  0  0  0  0  0  0  0  0  0  0
  -20.6230  -28.0670   22.7320 C   0  0  0  0  0  3  0  0  0  0  0  0
  -20.6490  -26.6930   22.0250 C   0  0  0  0  0  2  0  0  0  0  0  0
  -19.4830  -26.4950   21.0510 C   0  0  0  0  0  2  0  0  0  0  0  0
  -18.1430  -26.6140   21.7830 C   0  0  0  0  0  2  0  0  0  0  0  0
  -19.2100  -28.5880   23.0200 C   0  0  0  0  0  0  0  0  0  0  0  0
  -19.0630  -29.7920   23.7410 C   0  0  0  0  0  3  0  0  0  0  0  0
  -17.7860  -30.3060   24.0340 C   0  0  0  0  0  3  0  0  0  0  0  0
  -16.6370  -29.6120   23.6170 C   0  0  0  0  0  3  0  0  0  0  0  0
  -16.7680  -28.4100   22.8980 C   0  0  0  0  0  3  0  0  0  0  0  0
  -25.8860  -32.2010   23.5510 C   0  0  0  0  0  3  0  0  0  0  0  0
  -26.4310  -31.3560   24.7670 C   0  0  1  0  0  0  0  0  0  0  0  0
  -25.3570  -31.0350   25.8320 C   0  0  0  0  0  1  0  0  0  0  0  0
  -27.0320  -30.0150   24.2830 C   0  0  0  0  0  1  0  0  0  0  0  0
  -27.5770  -32.1240   25.4640 C   0  0  0  0  0  1  0  0  0  0  0  0
  -25.5520  -33.5670   23.9850 N   0  0  0  0  0  0  0  0  0  0  0  0
  -25.8540  -34.6820   23.3070 C   0  0  0  0  0  0  0  0  0  0  0  0
  -26.5120  -34.6700   22.2620 O   0  0  0  0  0  0  0  0  0  0  0  0
  -24.9650  -33.6490   24.8010 H   0  0  0  0  0  0  0  0  0  0  0  0
  -24.0830  -36.4610   23.1190 C   0  0  0  0  0  1  0  0  0  0  0  0
  -25.3480  -36.0230   23.8750 C   0  0  0  0  0  3  0  0  0  0  0  0
  -27.4730  -36.8980   24.7380 C   0  0  0  0  0  1  0  0  0  0  0  0
  -26.3550  -37.1040   23.8210 N   0  0  0  0  0  0  0  0  0  0  0  0
  -25.9310  -38.0030   24.0350 H   0  0  0  0  0  0  0  0  0  0  0  0
  1  2  2  0
  1  5  1  0
  2  6  1  0
  3  4  1  0
  4  7  1  0
  5  3  2  0
  6 16  1  0
  6  4  2  0
  8 14  1  0
  8 16  1  0
  9 14  1  0
 10 11  1  0
 10  9  1  0
 12 11  1  0
 12 21  1  0
 12 13  1  0
 14 13  1  0
 15  8  2  0
 16 17  1  0
 18 19  2  0
 19 38  1  0
 20 19  1  0
 20 23  1  0
 21 22  1  0
 21 18  1  0
 22 20  2  0
 23 24  1  0
 24 25  2  0
 26 29  1  0
 26 25  1  0
 27 26  2  0
 28 27  1  0
 28 23  2  0
 29 30  1  0
 30 35  2  0
 30 31  1  0
 31 32  2  0
 32 33  1  0
 33 37  1  0
 34 33  2  0
 35 34  1  0
 36 35  1  0
 38 39  1  0
 39 42  1  0
 39 41  1  0
 40 38  2  0
 43 18  1  0
 43 44  1  0
 45 43  1  0
 46 47  1  0
 47  5  1  0
 47 48  1  0
 49 50  1  0
 49 48  1  0
 51 62  2  0
 52 50  1  0
 52 57  1  0
 53 61  1  0
 53 63  1  0
 54 60  1  0
 54 56  1  0
 55 61  1  0
 56 55  1  0
 57 56  2  0
 58 59  1  0
 58 52  2  0
 59 54  2  0
 60 53  1  0
 61 51  1  0
 63 65  2  0
 64 63  1  0
 66 64  1  0
 67 76  2  0
 67 72  1  0
 68 64  1  0
 68 72  1  0
 69 68  1  0
 70 71  1  0
 70 69  1  0
 71 67  1  0
 72 73  2  0
 73 74  1  0
 75 74  2  0
 76 75  1  0
 77 51  1  0
 77 82  1  0
 77 78  1  0
 78 81  1  1
 78 79  1  0
 80 78  1  0
 82 85  1  0
 83 87  1  0
 83 82  1  0
 84 83  2  0
 87 86  1  0
 89 87  1  0
 89 90  1  0
 89 88  1  0
M  ISO  4   8 100  16 100  49 101  50 101
M  END
>  <TORSDO>  (20) 
F 19

>  <SCORE>  (20) 
-12.632

>  <name>  (20) 
19

>  <ligand_id>  (20) 
19

>  <original_smiles>  (20) 
[H]c1c([H])c([H])c2c(c1[H])C([H])([H])C([H])([H])C([H])([H])C2([H])N([H])C(=O)C1([H])N(C(=O)C([H])(N([H])C(=O)C([H])(N([H])C([H])([H])[H])C([H])([H])[H])C(C([H])([H])[H])(C([H])([H])[H])C([H])([H])[H])C([H])([H])c2c([H])c(OC([H])([H])C([H])([H])N(c3c([H])c([H])c(N([H])C(=O)N4C([H])([H])C([H])([H])C([H])([H])C([H])(n5nc(-c6c([H])c([H])c(Oc7c([H])c([H])c(F)c([H])c7F)c([H])c6[H])c(C(=O)N([H])[H])c5N([H])[H])C4([H])[H])c(C([H])([H])[H])c3[H])C([H])([H])[H])c([H])c([H])c2C1([H])[H]

>  <smiles>  (20) 
[H]c1c([H])c([H])c2c(c1[H])C([H])([H])C([H])([H])C([H])([H])C2([H])N([H])C(=O)C1([H])N(C(=O)C([H])(N([H])C(=O)C([H])(N([H])C([H])([H])[H])C([H])([H])[H])C(C([H])([H])[H])(C([H])([H])[H])C([H])([H])[H])C([H])([H])c2c([H])c(OC([H])([H])C([H])([H])N(c3c([H])c([H])c(N([H])C(=O)N4C([H])([H])C([H])([H])C([H])([H])C([H])(n5nc(-c6c([H])c([H])c(Oc7c([H])c([H])c(F)c([H])c7F)c([H])c6[H])c(C(=O)N([H])[H])c5N([H])[H])C4([H])[H])c(C([H])([H])[H])c3[H])C([H])([H])[H])c([H])c([H])c2C1([H])[H]

$$$$
20:0:0
     RDKit          3D

 93101  0  0  1  0  0  0  0  0999 V2000
  -30.5370  -18.9300   21.3270 C   0  0  0  0  0  3  0  0  0  0  0  0
  -28.8410  -19.6420   19.8610 C   0  0  0  0  0  3  0  0  0  0  0  0
  -30.6240  -20.2030   21.8150 C   0  0  0  0  0  0  0  0  0  0  0  0
  -29.6040  -18.4680   20.3250 C   0  0  0  0  0  0  0  0  0  0  0  0
  -29.8130  -21.3640   21.3090 C   0  0  0  0  0  0  0  0  0  0  0  0
  -28.9210  -21.1670   20.2880 N   0  0  0  0  0  0  0  0  0  0  0  0
  -29.9720  -22.5000   21.7700 O   0  0  0  0  0  0  0  0  0  0  0  0
  -30.3560  -15.6310   20.2470 C   0  0  0  0  0  0  0  0  0  0  0  0
  -30.4960  -13.1230   19.4920 C   0  0  0  0  0  2  0  0  0  0  0  0
  -29.6030  -12.7260   18.2870 C   0  0  0  0  0  2  0  0  0  0  0  0
  -28.1690  -12.4020   18.7450 C   0  0  0  0  0  2  0  0  0  0  0  0
  -27.6470  -13.4250   19.7820 C   0  0  0  0  0  3  0  0  0  0  0  0
  -28.6730  -13.7290   20.8920 C   0  0  0  0  0  2  0  0  0  0  0  0
  -29.8560  -14.2890   20.2130 N   0  0  0  0  0  0  0  0  0  0  0  0
  -31.5950  -15.6510   20.1830 O   0  0  0  0  0  0  0  0  0  0  0  0
  -29.5220  -16.8820   20.1010 N   0  0  0  0  0  0  0  0  0  0  0  0
  -28.5820  -16.6100   19.8540 H   0  0  0  0  0  0  0  0  0  0  0  0
  -25.2780  -13.9410   20.5640 C   0  0  0  0  0  0  0  0  0  0  0  0
  -24.2270  -13.1470   20.9230 C   0  0  0  0  0  0  0  0  0  0  0  0
  -24.7120  -11.8030   20.8730 C   0  0  0  0  0  0  0  0  0  0  0  0
  -26.3310  -13.0840   20.3040 N   0  0  0  0  0  0  0  0  0  0  0  0
  -26.0040  -11.7890   20.5590 N   0  0  0  0  0  0  0  0  0  0  0  0
  -24.0010  -10.5290   21.0460 C   0  0  0  0  0  0  0  0  0  0  0  0
  -24.4140   -9.5760   22.0030 C   0  0  0  0  0  3  0  0  0  0  0  0
  -23.6980   -8.3690   22.1650 C   0  0  0  0  0  3  0  0  0  0  0  0
  -22.5580   -8.1070   21.3680 C   0  0  0  0  0  0  0  0  0  0  0  0
  -22.1670   -9.0500   20.4020 C   0  0  0  0  0  3  0  0  0  0  0  0
  -22.8830  -10.2470   20.2380 C   0  0  0  0  0  3  0  0  0  0  0  0
  -21.8170   -6.9530   21.4380 O   0  0  0  0  0  0  0  0  0  0  0  0
  -21.6960   -6.2440   22.6060 C   0  0  0  0  0  0  0  0  0  0  0  0
  -21.1270   -6.8120   23.7660 C   0  0  0  0  0  3  0  0  0  0  0  0
  -20.9570   -6.0280   24.9240 C   0  0  0  0  0  3  0  0  0  0  0  0
  -21.3480   -4.6760   24.9220 C   0  0  0  0  0  0  0  0  0  0  0  0
  -21.9110   -4.1060   23.7660 C   0  0  0  0  0  3  0  0  0  0  0  0
  -22.0820   -4.8880   22.6110 C   0  0  0  0  0  0  0  0  0  0  0  0
  -22.6050   -4.3300   21.4930 F   0  0  0  0  0  0  0  0  0  0  0  0
  -21.1790   -3.9190   26.0320 F   0  0  0  0  0  0  0  0  0  0  0  0
  -22.8260  -13.6020   21.1980 C   0  0  0  0  0  0  0  0  0  0  0  0
  -22.1060  -12.8900   22.0560 N   0  0  0  0  0  0  0  0  0  0  0  0
  -22.3770  -14.6290   20.6860 O   0  0  0  0  0  0  0  0  0  0  0  0
  -22.4830  -12.0620   22.4940 H   0  0  0  0  0  0  0  0  0  0  0  0
  -21.1660  -13.1790   22.2850 H   0  0  0  0  0  0  0  0  0  0  0  0
  -25.4200  -15.3170   20.4060 N   0  0  0  0  0  0  0  0  0  0  0  0
  -24.6390  -15.9540   20.5270 H   0  0  0  0  0  0  0  0  0  0  0  0
  -26.2590  -15.7790   20.0840 H   0  0  0  0  0  0  0  0  0  0  0  0
  -29.2820  -22.9730   18.5040 C   0  0  0  0  0  1  0  0  0  0  0  0
  -26.9720  -22.1680   18.9220 C   0  0  0  0  0  1  0  0  0  0  0  0
  -28.2740  -22.6140   19.6140 C   0  0  1  0  0  0  0  0  0  0  0  0
  -27.8370  -24.2810   20.3080 C   0  0  0  0  0  2  0  0  0  0  0  0
  -27.8830  -25.9090   19.8610 O   0  0  0  0  0  0  0  0  0  0  0  0
  -24.5010  -31.9350   23.1440 C   0  0  0  0  0  0  0  0  0  0  0  0
  -26.8700  -27.0240   19.9570 C   0  0  0  0  0  0  0  0  0  0  0  0
  -23.2300  -30.5810   21.5310 C   0  0  0  0  0  3  0  0  0  0  0  0
  -24.6010  -28.9710   20.0320 C   0  0  0  0  0  0  0  0  0  0  0  0
  -25.7950  -30.7480   21.2910 C   0  0  0  0  0  2  0  0  0  0  0  0
  -25.8200  -29.3410   20.6100 C   0  0  0  0  0  0  0  0  0  0  0  0
  -26.9490  -28.3940   20.5390 C   0  0  0  0  0  3  0  0  0  0  0  0
  -25.6130  -26.8160   19.3450 C   0  0  0  0  0  3  0  0  0  0  0  0
  -24.5250  -27.7300   19.3760 C   0  0  0  0  0  3  0  0  0  0  0  0
  -23.4020  -29.9160   20.1360 C   0  0  0  0  0  2  0  0  0  0  0  0
  -24.5340  -31.1170   22.0410 N   0  0  0  0  0  0  0  0  0  0  0  0
  -23.4360  -32.2280   23.7110 O   0  0  0  0  0  0  0  0  0  0  0  0
  -22.5580  -29.5810   22.5070 C   0  0  0  0  0  0  0  0  0  0  0  0
  -21.2260  -29.4080   22.4080 N   0  0  0  0  0  0  0  0  0  0  0  0
  -23.2410  -28.9590   23.3240 O   0  0  0  0  0  0  0  0  0  0  0  0
  -20.7250  -29.9590   21.7250 H   0  0  0  0  0  0  0  0  0  0  0  0
  -17.8690  -28.1350   22.9500 C   0  0  0  0  0  0  0  0  0  0  0  0
  -20.4250  -28.4600   23.1920 C   0  0  0  0  0  3  0  0  0  0  0  0
  -20.5530  -27.0240   22.6280 C   0  0  0  0  0  2  0  0  0  0  0  0
  -19.4500  -26.6710   21.6240 C   0  0  0  0  0  2  0  0  0  0  0  0
  -18.0700  -26.7870   22.2770 C   0  0  0  0  0  2  0  0  0  0  0  0
  -18.9730  -28.9260   23.3640 C   0  0  0  0  0  0  0  0  0  0  0  0
  -18.7270  -30.1840   23.9590 C   0  0  0  0  0  3  0  0  0  0  0  0
  -17.4110  -30.6500   24.1380 C   0  0  0  0  0  3  0  0  0  0  0  0
  -16.3220  -29.8570   23.7370 C   0  0  0  0  0  3  0  0  0  0  0  0
  -16.5520  -28.6010   23.1480 C   0  0  0  0  0  3  0  0  0  0  0  0
  -25.8010  -32.5560   23.7400 C   0  0  0  0  0  3  0  0  0  0  0  0
  -26.3500  -31.7590   24.9880 C   0  0  1  0  0  0  0  0  0  0  0  0
  -25.2920  -31.5140   26.0900 C   0  0  0  0  0  1  0  0  0  0  0  0
  -26.9070  -30.3820   24.5640 C   0  0  0  0  0  1  0  0  0  0  0  0
  -27.5320  -32.5300   25.6230 C   0  0  0  0  0  1  0  0  0  0  0  0
  -25.5080  -33.9500   24.1220 N   0  0  0  0  0  0  0  0  0  0  0  0
  -25.8570  -35.0320   23.4140 C   0  0  0  0  0  0  0  0  0  0  0  0
  -26.5230  -34.9600   22.3780 O   0  0  0  0  0  0  0  0  0  0  0  0
  -24.9170  -34.0780   24.9310 H   0  0  0  0  0  0  0  0  0  0  0  0
  -24.1850  -36.8930   23.1290 C   0  0  0  0  0  1  0  0  0  0  0  0
  -25.4020  -36.4100   23.9350 C   0  0  0  0  0  3  0  0  0  0  0  0
  -27.5400  -37.2050   24.8470 C   0  0  0  0  0  1  0  0  0  0  0  0
  -26.4640  -37.4410   23.8880 N   0  0  0  0  0  0  0  0  0  0  0  0
  -26.0790  -38.3640   24.0660 H   0  0  0  0  0  0  0  0  0  0  0  0
  -31.1600  -20.9180   24.1740 C   0  0  0  0  0  1  0  0  0  0  0  0
  -32.9550  -20.0730   22.7350 C   0  0  0  0  0  1  0  0  0  0  0  0
  -31.5490  -20.4640   22.8380 N   0  0  0  0  0  0  0  0  0  0  0  0
  1  3  2  0
  2  6  1  0
  2  4  2  0
  3 93  1  0
  4  1  1  0
  5  7  2  0
  5  3  1  0
  6  5  1  0
  9 14  1  0
 10 11  1  0
 10  9  1  0
 12 11  1  0
 12 21  1  0
 12 13  1  0
 14  8  1  0
 14 13  1  0
 15  8  2  0
 16  8  1  0
 16  4  1  0
 17 16  1  0
 18 19  2  0
 19 38  1  0
 20 19  1  0
 20 23  1  0
 21 22  1  0
 21 18  1  0
 22 20  2  0
 23 24  1  0
 24 25  2  0
 26 29  1  0
 26 25  1  0
 27 26  2  0
 28 27  1  0
 28 23  2  0
 29 30  1  0
 30 35  2  0
 30 31  1  0
 31 32  2  0
 33 32  1  0
 33 37  1  0
 34 33  2  0
 35 34  1  0
 36 35  1  0
 38 39  1  0
 39 42  1  0
 39 41  1  0
 40 38  2  0
 43 44  1  0
 43 18  1  0
 45 43  1  0
 48 46  1  6
 47 48  1  0
 48  6  1  0
 48 49  1  0
 50 52  1  0
 50 49  1  0
 51 62  2  0
 52 57  1  0
 53 61  1  0
 53 63  1  0
 54 60  1  0
 54 56  1  0
 55 61  1  0
 56 55  1  0
 57 56  2  0
 58 59  1  0
 58 52  2  0
 59 54  2  0
 60 53  1  0
 61 51  1  0
 63 65  2  0
 64 63  1  0
 66 64  1  0
 67 76  2  0
 67 72  1  0
 68 64  1  0
 68 72  1  0
 69 68  1  0
 70 71  1  0
 70 69  1  0
 71 67  1  0
 72 73  2  0
 73 74  1  0
 75 74  2  0
 76 75  1  0
 77 51  1  0
 77 82  1  0
 77 78  1  0
 78 81  1  1
 78 79  1  0
 80 78  1  0
 82 85  1  0
 83 87  1  0
 83 82  1  0
 84 83  2  0
 87 86  1  0
 89 87  1  0
 89 90  1  0
 89 88  1  0
 92 93  1  0
 93 91  1  0
M  ISO  4   8 100  16 100  49 101  50 101
M  END
>  <TORSDO>  (21) 
F 19

>  <SCORE>  (21) 
-16.201

>  <name>  (21) 
20

>  <ligand_id>  (21) 
20

>  <original_smiles>  (21) 
[H]c1c([H])c([H])c2c(c1[H])C([H])([H])C([H])([H])C([H])([H])C2([H])N([H])C(=O)C1([H])N(C(=O)C([H])(N([H])C(=O)C([H])(N([H])C([H])([H])[H])C([H])([H])[H])C(C([H])([H])[H])(C([H])([H])[H])C([H])([H])[H])C([H])([H])c2c([H])c(OC([H])([H])C(n3c([H])c(N([H])C(=O)N4C([H])([H])C([H])([H])C([H])([H])C([H])(n5nc(-c6c([H])c([H])c(Oc7c([H])c([H])c(F)c([H])c7F)c([H])c6[H])c(C(=O)N([H])[H])c5N([H])[H])C4([H])[H])c([H])c(N(C([H])([H])[H])C([H])([H])[H])c3=O)(C([H])([H])[H])C([H])([H])[H])c([H])c([H])c2C1([H])[H]

>  <smiles>  (21) 
[H]c1c([H])c([H])c2c(c1[H])C([H])([H])C([H])([H])C([H])([H])C2([H])N([H])C(=O)C1([H])N(C(=O)C([H])(N([H])C(=O)C([H])(N([H])C([H])([H])[H])C([H])([H])[H])C(C([H])([H])[H])(C([H])([H])[H])C([H])([H])[H])C([H])([H])c2c([H])c(OC([H])([H])C(n3c([H])c(N([H])C(=O)N4C([H])([H])C([H])([H])C([H])([H])C([H])(n5nc(-c6c([H])c([H])c(Oc7c([H])c([H])c(F)c([H])c7F)c([H])c6[H])c(C(=O)N([H])[H])c5N([H])[H])C4([H])[H])c([H])c(N(C([H])([H])[H])C([H])([H])[H])c3=O)(C([H])([H])[H])C([H])([H])[H])c([H])c([H])c2C1([H])[H]

$$$$
21:0:0
     RDKit          3D

 89 97  0  0  1  0  0  0  0  0999 V2000
  -30.9020  -18.0110   22.0380 C   0  0  0  0  0  3  0  0  0  0  0  0
  -31.4520  -18.8400   23.0120 C   0  0  0  0  0  3  0  0  0  0  0  0
  -30.4940  -20.7330   21.9000 C   0  0  0  0  0  3  0  0  0  0  0  0
  -30.1100  -18.4110   20.9170 C   0  0  0  0  0  0  0  0  0  0  0  0
  -29.8260  -20.0150   20.8570 C   0  0  0  0  0  0  0  0  0  0  0  0
  -31.2580  -20.2030   22.9390 C   0  0  0  0  0  0  0  0  0  0  0  0
  -31.9720  -21.2270   24.1350 Cl  0  0  0  0  0  0  0  0  0  0  0  0
  -30.5040  -15.6080   20.1910 C   0  0  0  0  0  0  0  0  0  0  0  0
  -30.5130  -13.1400   19.2810 C   0  0  0  0  0  2  0  0  0  0  0  0
  -29.5850  -12.8610   18.0700 C   0  0  0  0  0  2  0  0  0  0  0  0
  -28.1530  -12.5470   18.5400 C   0  0  0  0  0  2  0  0  0  0  0  0
  -27.6890  -13.5210   19.6520 C   0  0  0  0  0  3  0  0  0  0  0  0
  -28.7520  -13.7230   20.7510 C   0  0  0  0  0  2  0  0  0  0  0  0
  -29.9330  -14.2930   20.0790 N   0  0  0  0  0  0  0  0  0  0  0  0
  -31.7310  -15.5620   20.0090 O   0  0  0  0  0  0  0  0  0  0  0  0
  -29.7920  -16.9480   20.2600 N   0  0  0  0  0  0  0  0  0  0  0  0
  -28.8280  -16.8780   19.9670 H   0  0  0  0  0  0  0  0  0  0  0  0
  -25.3260  -14.0400   20.4480 C   0  0  0  0  0  0  0  0  0  0  0  0
  -24.2790  -13.2500   20.8280 C   0  0  0  0  0  0  0  0  0  0  0  0
  -24.7570  -11.9050   20.7700 C   0  0  0  0  0  0  0  0  0  0  0  0
  -26.3750  -13.1830   20.1840 N   0  0  0  0  0  0  0  0  0  0  0  0
  -26.0460  -11.8880   20.4410 N   0  0  0  0  0  0  0  0  0  0  0  0
  -24.0450  -10.6320   20.9560 C   0  0  0  0  0  0  0  0  0  0  0  0
  -24.4670   -9.6810   21.9130 C   0  0  0  0  0  3  0  0  0  0  0  0
  -23.7530   -8.4770   22.0880 C   0  0  0  0  0  3  0  0  0  0  0  0
  -22.6000   -8.2150   21.3120 C   0  0  0  0  0  0  0  0  0  0  0  0
  -22.1980   -9.1520   20.3480 C   0  0  0  0  0  3  0  0  0  0  0  0
  -22.9110  -10.3490   20.1680 C   0  0  0  0  0  3  0  0  0  0  0  0
  -21.8600   -7.0630   21.4020 O   0  0  0  0  0  0  0  0  0  0  0  0
  -21.7530   -6.3620   22.5760 C   0  0  0  0  0  0  0  0  0  0  0  0
  -21.1890   -6.9370   23.7370 C   0  0  0  0  0  3  0  0  0  0  0  0
  -21.0360   -6.1590   24.9030 C   0  0  0  0  0  3  0  0  0  0  0  0
  -21.4310   -4.8090   24.9050 C   0  0  0  0  0  0  0  0  0  0  0  0
  -21.9860   -4.2340   23.7480 C   0  0  0  0  0  3  0  0  0  0  0  0
  -22.1390   -5.0080   22.5850 C   0  0  0  0  0  0  0  0  0  0  0  0
  -22.6530   -4.4420   21.4660 F   0  0  0  0  0  0  0  0  0  0  0  0
  -21.2760   -4.0580   26.0230 F   0  0  0  0  0  0  0  0  0  0  0  0
  -22.8810  -13.7070   21.1220 C   0  0  0  0  0  0  0  0  0  0  0  0
  -22.1700  -12.9910   21.9870 N   0  0  0  0  0  0  0  0  0  0  0  0
  -22.4300  -14.7390   20.6270 O   0  0  0  0  0  0  0  0  0  0  0  0
  -22.5490  -12.1540   22.4060 H   0  0  0  0  0  0  0  0  0  0  0  0
  -21.2350  -13.2750   22.2340 H   0  0  0  0  0  0  0  0  0  0  0  0
  -25.4630  -15.4180   20.2830 N   0  0  0  0  0  0  0  0  0  0  0  0
  -24.6840  -16.0540   20.4230 H   0  0  0  0  0  0  0  0  0  0  0  0
  -26.2810  -15.8740   19.9050 H   0  0  0  0  0  0  0  0  0  0  0  0
  -29.0850  -21.1390   20.0860 O   0  0  0  0  0  0  0  0  0  0  0  0
  -29.0190  -22.8100   20.3980 C   0  0  0  0  0  3  0  0  0  0  0  0
  -28.1620  -24.3460   19.8600 C   0  0  0  0  0  3  0  0  0  0  0  0
  -28.2940  -25.9980   20.1400 O   0  0  0  0  0  0  0  0  0  0  0  0
  -24.5750  -31.8750   23.1390 C   0  0  0  0  0  0  0  0  0  0  0  0
  -27.2640  -27.0960   20.0540 C   0  0  0  0  0  0  0  0  0  0  0  0
  -23.4230  -30.4930   21.4510 C   0  0  0  0  0  3  0  0  0  0  0  0
  -24.9200  -28.9410   20.0130 C   0  0  0  0  0  0  0  0  0  0  0  0
  -25.9810  -30.7660   21.3290 C   0  0  0  0  0  2  0  0  0  0  0  0
  -26.0920  -29.3610   20.6560 C   0  0  0  0  0  0  0  0  0  0  0  0
  -27.2550  -28.4580   20.6560 C   0  0  0  0  0  3  0  0  0  0  0  0
  -26.0620  -26.8400   19.3610 C   0  0  0  0  0  3  0  0  0  0  0  0
  -24.9340  -27.7070   19.3380 C   0  0  0  0  0  3  0  0  0  0  0  0
  -23.6840  -29.8390   20.0640 C   0  0  0  0  0  2  0  0  0  0  0  0
  -24.6780  -31.0740   22.0270 N   0  0  0  0  0  0  0  0  0  0  0  0
  -23.4740  -32.1260   23.6620 O   0  0  0  0  0  0  0  0  0  0  0  0
  -22.7400  -29.4670   22.3980 C   0  0  0  0  0  0  0  0  0  0  0  0
  -21.4120  -29.2880   22.2760 N   0  0  0  0  0  0  0  0  0  0  0  0
  -23.4180  -28.8280   23.2060 O   0  0  0  0  0  0  0  0  0  0  0  0
  -20.9150  -29.8550   21.6050 H   0  0  0  0  0  0  0  0  0  0  0  0
  -18.0440  -28.0380   22.8070 C   0  0  0  0  0  0  0  0  0  0  0  0
  -20.6080  -28.3140   23.0260 C   0  0  0  0  0  3  0  0  0  0  0  0
  -20.7060  -26.9070   22.3910 C   0  0  0  0  0  2  0  0  0  0  0  0
  -19.5840  -26.6180   21.3880 C   0  0  0  0  0  2  0  0  0  0  0  0
  -18.2150  -26.7210   22.0650 C   0  0  0  0  0  2  0  0  0  0  0  0
  -19.1660  -28.7940   23.2410 C   0  0  0  0  0  0  0  0  0  0  0  0
  -18.9450  -30.0240   23.8980 C   0  0  0  0  0  3  0  0  0  0  0  0
  -17.6400  -30.5000   24.1180 C   0  0  0  0  0  3  0  0  0  0  0  0
  -16.5330  -29.7450   23.6910 C   0  0  0  0  0  3  0  0  0  0  0  0
  -16.7370  -28.5140   23.0410 C   0  0  0  0  0  3  0  0  0  0  0  0
  -25.8290  -32.5390   23.7900 C   0  0  0  0  0  3  0  0  0  0  0  0
  -26.3210  -31.7790   25.0850 C   0  0  1  0  0  0  0  0  0  0  0  0
  -25.2050  -31.5400   26.1260 C   0  0  0  0  0  1  0  0  0  0  0  0
  -26.9270  -30.4030   24.7260 C   0  0  0  0  0  1  0  0  0  0  0  0
  -27.4490  -32.5850   25.7700 C   0  0  0  0  0  1  0  0  0  0  0  0
  -25.4870  -33.9340   24.1190 N   0  0  0  0  0  0  0  0  0  0  0  0
  -25.8340  -35.0030   23.3900 C   0  0  0  0  0  0  0  0  0  0  0  0
  -26.5300  -34.9170   22.3740 O   0  0  0  0  0  0  0  0  0  0  0  0
  -24.8890  -34.0730   24.9210 H   0  0  0  0  0  0  0  0  0  0  0  0
  -24.1230  -36.8060   22.9870 C   0  0  0  0  0  1  0  0  0  0  0  0
  -25.3250  -36.3830   23.8510 C   0  0  0  0  0  3  0  0  0  0  0  0
  -27.4070  -37.2620   24.8130 C   0  0  0  0  0  1  0  0  0  0  0  0
  -26.3610  -37.4410   23.8120 N   0  0  0  0  0  0  0  0  0  0  0  0
  -25.9400  -38.3550   23.9470 H   0  0  0  0  0  0  0  0  0  0  0  0
  1  2  1  0
  3  6  1  0
  4  1  2  0
  5  4  1  0
  5  3  2  0
  6  2  2  0
  6  7  1  0
  8 16  1  0
  9 14  1  0
 10 11  1  0
 10  9  1  0
 12 11  1  0
 12 21  1  0
 12 13  1  0
 14  8  1  0
 14 13  1  0
 15  8  2  0
 16  4  1  0
 17 16  1  0
 18 19  2  0
 19 38  1  0
 20 19  1  0
 20 23  1  0
 21 22  1  0
 21 18  1  0
 22 20  2  0
 23 24  1  0
 24 25  2  0
 26 29  1  0
 26 25  1  0
 27 26  2  0
 28 27  1  0
 28 23  2  0
 29 30  1  0
 30 35  2  0
 30 31  1  0
 31 32  2  0
 32 33  1  0
 33 37  1  0
 34 33  2  0
 35 34  1  0
 36 35  1  0
 38 39  1  0
 39 42  1  0
 39 41  1  0
 40 38  2  0
 43 44  1  0
 43 18  1  0
 45 43  1  0
 46 47  1  0
 46  5  1  0
 48 49  1  0
 48 47  2  0
 50 61  2  0
 51 49  1  0
 51 56  1  0
 52 60  1  0
 52 62  1  0
 53 59  1  0
 53 55  1  0
 54 60  1  0
 55 54  1  0
 56 55  2  0
 57 51  2  0
 58 57  1  0
 58 53  2  0
 59 52  1  0
 60 50  1  0
 62 64  2  0
 63 62  1  0
 65 63  1  0
 66 75  2  0
 66 71  1  0
 67 63  1  0
 67 71  1  0
 68 67  1  0
 69 70  1  0
 69 68  1  0
 70 66  1  0
 71 72  2  0
 72 73  1  0
 74 73  2  0
 75 74  1  0
 76 50  1  0
 76 81  1  0
 76 77  1  0
 77 80  1  1
 77 78  1  0
 79 77  1  0
 81 84  1  0
 82 86  1  0
 82 81  1  0
 83 82  2  0
 86 85  1  0
 88 86  1  0
 88 89  1  0
 88 87  1  0
M  ISO  4   8 100  16 100  48 101  49 101
M  END
>  <TORSDO>  (22) 
F 19

>  <SCORE>  (22) 
-16.098

>  <name>  (22) 
21

>  <ligand_id>  (22) 
21

>  <original_smiles>  (22) 
[H]c1c([H])c([H])c2c(c1[H])C([H])([H])C([H])([H])C([H])([H])C2([H])N([H])C(=O)C1([H])N(C(=O)C([H])(N([H])C(=O)C([H])(N([H])C([H])([H])[H])C([H])([H])[H])C(C([H])([H])[H])(C([H])([H])[H])C([H])([H])[H])C([H])([H])c2c([H])c(OC([H])([H])C([H])([H])Oc3c([H])c(Cl)c([H])c([H])c3N([H])C(=O)N3C([H])([H])C([H])([H])C([H])([H])C([H])(n4nc(-c5c([H])c([H])c(Oc6c([H])c([H])c(F)c([H])c6F)c([H])c5[H])c(C(=O)N([H])[H])c4N([H])[H])C3([H])[H])c([H])c([H])c2C1([H])[H]

>  <smiles>  (22) 
[H]c1c([H])c([H])c2c(c1[H])C([H])([H])C([H])([H])C([H])([H])C2([H])N([H])C(=O)C1([H])N(C(=O)C([H])(N([H])C(=O)C([H])(N([H])C([H])([H])[H])C([H])([H])[H])C(C([H])([H])[H])(C([H])([H])[H])C([H])([H])[H])C([H])([H])c2c([H])c(OC([H])([H])C([H])([H])Oc3c([H])c(Cl)c([H])c([H])c3N([H])C(=O)N3C([H])([H])C([H])([H])C([H])([H])C([H])(n4nc(-c5c([H])c([H])c(Oc6c([H])c([H])c(F)c([H])c6F)c([H])c5[H])c(C(=O)N([H])[H])c4N([H])[H])C3([H])[H])c([H])c([H])c2C1([H])[H]

$$$$
22:0:0
     RDKit          3D

 92 99  0  0  1  0  0  0  0  0999 V2000
  -29.1350  -20.6380   20.9480 C   0  0  0  0  0  0  0  0  0  0  0  0
  -28.7500  -21.7260   20.2030 N   0  0  0  0  0  0  0  0  0  0  0  0
  -29.9230  -20.7610   21.8930 O   0  0  0  0  0  0  0  0  0  0  0  0
  -26.5090  -21.8540   19.0990 C   0  0  0  0  0  1  0  0  0  0  0  0
  -28.0150  -21.6070   18.9170 C   0  0  2  0  0  0  0  0  0  0  0  0
  -28.2030  -20.4060   18.3690 F   0  0  0  0  0  0  0  0  0  0  0  0
  -28.4800  -22.4640   18.0120 F   0  0  0  0  0  0  0  0  0  0  0  0
  -28.5470  -19.2090   20.7500 C   0  0  0  0  0  2  0  0  0  0  0  0
  -29.5660  -18.1590   20.2140 C   0  0  0  0  0  2  0  0  0  0  0  0
  -29.3320  -16.6750   20.6460 C   0  0  0  0  0  2  0  0  0  0  0  0
  -30.8020  -14.6900   20.0120 C   0  0  0  0  0  0  0  0  0  0  0  0
  -30.4910  -12.4650   19.0290 C   0  0  0  0  0  2  0  0  0  0  0  0
  -29.5180  -12.6000   17.8400 C   0  0  0  0  0  2  0  0  0  0  0  0
  -28.0590  -12.4650   18.3190 C   0  0  0  0  0  2  0  0  0  0  0  0
  -27.7440  -13.3610   19.5490 C   0  0  0  0  0  3  0  0  0  0  0  0
  -28.8360  -13.2460   20.6350 C   0  0  0  0  0  2  0  0  0  0  0  0
  -30.1280  -13.5120   19.9940 N   0  0  0  0  0  0  0  0  0  0  0  0
  -31.9830  -14.7820   19.6810 O   0  0  0  0  0  0  0  0  0  0  0  0
  -30.0450  -15.7690   19.7360 N   0  0  0  0  0  0  0  0  0  0  0  0
  -30.5100  -16.3070   19.0200 H   0  0  0  0  0  0  0  0  0  0  0  0
  -25.3880  -13.9780   20.3690 C   0  0  0  0  0  0  0  0  0  0  0  0
  -24.3300  -13.2110   20.7740 C   0  0  0  0  0  0  0  0  0  0  0  0
  -24.7790  -11.8560   20.7130 C   0  0  0  0  0  0  0  0  0  0  0  0
  -26.4130  -13.0900   20.0850 N   0  0  0  0  0  0  0  0  0  0  0  0
  -26.0540  -11.8080   20.3520 N   0  0  0  0  0  0  0  0  0  0  0  0
  -24.0500  -10.5980   20.9210 C   0  0  0  0  0  0  0  0  0  0  0  0
  -24.4980   -9.6300   21.8450 C   0  0  0  0  0  3  0  0  0  0  0  0
  -23.7720   -8.4350   22.0380 C   0  0  0  0  0  3  0  0  0  0  0  0
  -22.5850   -8.2010   21.3050 C   0  0  0  0  0  0  0  0  0  0  0  0
  -22.1570   -9.1570   20.3670 C   0  0  0  0  0  3  0  0  0  0  0  0
  -22.8830  -10.3440   20.1730 C   0  0  0  0  0  3  0  0  0  0  0  0
  -21.8270   -7.0600   21.4090 O   0  0  0  0  0  0  0  0  0  0  0  0
  -21.7780   -6.3310   22.5700 C   0  0  0  0  0  0  0  0  0  0  0  0
  -21.3480   -6.8990   23.7890 C   0  0  0  0  0  3  0  0  0  0  0  0
  -21.2470   -6.0960   24.9430 C   0  0  0  0  0  3  0  0  0  0  0  0
  -21.5670   -4.7260   24.8790 C   0  0  0  0  0  0  0  0  0  0  0  0
  -21.9900   -4.1580   23.6650 C   0  0  0  0  0  3  0  0  0  0  0  0
  -22.0930   -4.9580   22.5130 C   0  0  0  0  0  0  0  0  0  0  0  0
  -22.4810   -4.4000   21.3410 F   0  0  0  0  0  0  0  0  0  0  0  0
  -21.4620   -3.9540   25.9860 F   0  0  0  0  0  0  0  0  0  0  0  0
  -22.9490  -13.6960   21.1050 C   0  0  0  0  0  0  0  0  0  0  0  0
  -22.2520  -13.0010   21.9960 N   0  0  0  0  0  0  0  0  0  0  0  0
  -22.5000  -14.7300   20.6110 O   0  0  0  0  0  0  0  0  0  0  0  0
  -22.6310  -12.1650   22.4170 H   0  0  0  0  0  0  0  0  0  0  0  0
  -21.3270  -13.3090   22.2600 H   0  0  0  0  0  0  0  0  0  0  0  0
  -25.5600  -15.3490   20.1980 N   0  0  0  0  0  0  0  0  0  0  0  0
  -24.8100  -16.0160   20.3410 H   0  0  0  0  0  0  0  0  0  0  0  0
  -26.4010  -15.7720   19.8260 H   0  0  0  0  0  0  0  0  0  0  0  0
  -29.0220  -23.0840   20.7910 C   0  0  0  0  0  2  0  0  0  0  0  0
  -28.6420  -24.4050   20.0390 C   0  0  0  0  0  2  0  0  0  0  0  0
  -28.8800  -25.6860   20.8940 C   0  0  0  0  0  2  0  0  0  0  0  0
  -28.8400  -26.9410   20.1870 O   0  0  0  0  0  0  0  0  0  0  0  0
  -24.6240  -31.8240   23.2520 C   0  0  0  0  0  0  0  0  0  0  0  0
  -27.6370  -27.6120   20.1910 C   0  0  0  0  0  0  0  0  0  0  0  0
  -23.5690  -30.4050   21.5220 C   0  0  0  0  0  3  0  0  0  0  0  0
  -25.1680  -28.9860   20.1280 C   0  0  0  0  0  0  0  0  0  0  0  0
  -26.0770  -30.9070   21.4440 C   0  0  0  0  0  2  0  0  0  0  0  0
  -26.2680  -29.5580   20.7780 C   0  0  0  0  0  0  0  0  0  0  0  0
  -27.5090  -28.8800   20.8040 C   0  0  0  0  0  3  0  0  0  0  0  0
  -26.5230  -27.0520   19.5340 C   0  0  0  0  0  3  0  0  0  0  0  0
  -25.2900  -27.7320   19.5020 C   0  0  0  0  0  3  0  0  0  0  0  0
  -23.8750  -29.7740   20.1370 C   0  0  0  0  0  2  0  0  0  0  0  0
  -24.7720  -31.0600   22.1320 N   0  0  0  0  0  0  0  0  0  0  0  0
  -23.5070  -32.0220   23.7510 O   0  0  0  0  0  0  0  0  0  0  0  0
  -22.9380  -29.3230   22.4270 C   0  0  0  0  0  0  0  0  0  0  0  0
  -21.6270  -29.0860   22.2490 N   0  0  0  0  0  0  0  0  0  0  0  0
  -23.6220  -28.7000   23.2420 O   0  0  0  0  0  0  0  0  0  0  0  0
  -21.1340  -29.6430   21.5660 H   0  0  0  0  0  0  0  0  0  0  0  0
  -18.2890  -27.7600   22.6330 C   0  0  0  0  0  0  0  0  0  0  0  0
  -20.8330  -28.0840   22.9590 C   0  0  0  0  0  3  0  0  0  0  0  0
  -20.9910  -26.6880   22.3140 C   0  0  0  0  0  2  0  0  0  0  0  0
  -19.9150  -26.3810   21.2680 C   0  0  0  0  0  2  0  0  0  0  0  0
  -18.5200  -26.4510   21.8960 C   0  0  0  0  0  2  0  0  0  0  0  0
  -19.3770  -28.5340   23.1190 C   0  0  0  0  0  0  0  0  0  0  0  0
  -19.1090  -29.7590   23.7660 C   0  0  0  0  0  3  0  0  0  0  0  0
  -17.7870  -30.2120   23.9320 C   0  0  0  0  0  3  0  0  0  0  0  0
  -16.7140  -29.4340   23.4640 C   0  0  0  0  0  3  0  0  0  0  0  0
  -16.9660  -28.2090   22.8220 C   0  0  0  0  0  3  0  0  0  0  0  0
  -25.8450  -32.5070   23.9440 C   0  0  0  0  0  3  0  0  0  0  0  0
  -25.4710  -33.9000   24.2240 N   0  0  0  0  0  0  0  0  0  0  0  0
  -25.8130  -34.9470   23.4620 C   0  0  0  0  0  0  0  0  0  0  0  0
  -26.5460  -34.8460   22.4750 O   0  0  0  0  0  0  0  0  0  0  0  0
  -24.8250  -34.0500   24.9840 H   0  0  0  0  0  0  0  0  0  0  0  0
  -24.0430  -36.6640   22.9730 C   0  0  0  0  0  1  0  0  0  0  0  0
  -25.2520  -36.3250   23.8580 C   0  0  0  0  0  3  0  0  0  0  0  0
  -27.3030  -37.3110   24.7820 C   0  0  0  0  0  1  0  0  0  0  0  0
  -26.2510  -37.4130   23.7750 N   0  0  0  0  0  0  0  0  0  0  0  0
  -25.8040  -38.3210   23.8730 H   0  0  0  0  0  0  0  0  0  0  0  0
  -26.3010  -31.7750   25.2650 C   0  0  1  0  0  0  0  0  0  0  0  0
  -25.1460  -31.5130   26.2600 C   0  0  0  0  0  1  0  0  0  0  0  0
  -26.9570  -30.4140   24.9340 C   0  0  0  0  0  1  0  0  0  0  0  0
  -27.3740  -32.6200   25.9900 C   0  0  0  0  0  1  0  0  0  0  0  0
  1  3  2  0
  2 49  1  0
  2  1  1  0
  5  4  1  1
  5  2  1  0
  6  5  1  0
  7  5  1  0
  8  1  1  0
  9 10  1  0
  9  8  1  0
 12 17  1  0
 13 14  1  0
 13 12  1  0
 15 14  1  0
 15 24  1  0
 15 16  1  0
 17 11  1  0
 17 16  1  0
 18 11  2  0
 19 11  1  0
 19 10  1  0
 20 19  1  0
 21 22  2  0
 22 41  1  0
 23 22  1  0
 23 26  1  0
 24 25  1  0
 24 21  1  0
 25 23  2  0
 26 27  1  0
 27 28  2  0
 29 32  1  0
 29 28  1  0
 30 29  2  0
 31 30  1  0
 31 26  2  0
 32 33  1  0
 33 34  1  0
 34 35  2  0
 36 35  1  0
 36 40  1  0
 37 36  2  0
 38 33  2  0
 38 37  1  0
 39 38  1  0
 41 42  1  0
 42 45  1  0
 42 44  1  0
 43 41  2  0
 46 47  1  0
 46 21  1  0
 48 46  1  0
 50 49  1  0
 50 51  1  0
 52 54  1  0
 52 51  1  0
 53 64  2  0
 54 59  1  0
 55 63  1  0
 55 65  1  0
 56 62  1  0
 56 58  1  0
 57 63  1  0
 58 59  2  0
 58 57  1  0
 60 54  2  0
 61 60  1  0
 61 56  2  0
 62 55  1  0
 63 53  1  0
 65 67  2  0
 66 65  1  0
 68 66  1  0
 69 78  2  0
 69 74  1  0
 70 66  1  0
 70 74  1  0
 71 70  1  0
 72 73  1  0
 72 71  1  0
 73 69  1  0
 74 75  2  0
 75 76  1  0
 77 76  2  0
 78 77  1  0
 79 53  1  0
 79 80  1  0
 79 89  1  0
 80 83  1  0
 81 85  1  0
 81 80  1  0
 82 81  2  0
 85 84  1  0
 87 85  1  0
 87 88  1  0
 87 86  1  0
 89 92  1  1
 89 90  1  0
 91 89  1  0
M  ISO  4  11 100  19 100  51 101  52 101
M  END
>  <TORSDO>  (23) 
F 23

>  <SCORE>  (23) 
-12.522

>  <name>  (23) 
22

>  <ligand_id>  (23) 
22

>  <original_smiles>  (23) 
[H]c1c([H])c([H])c2c(c1[H])C([H])([H])C([H])([H])C([H])([H])C2([H])N([H])C(=O)C1([H])N(C(=O)C([H])(N([H])C(=O)C([H])(N([H])C([H])([H])[H])C([H])([H])[H])C(C([H])([H])[H])(C([H])([H])[H])C([H])([H])[H])C([H])([H])c2c([H])c(OC([H])([H])C([H])([H])C([H])([H])N(C(=O)C([H])([H])C([H])([H])C([H])([H])N([H])C(=O)N3C([H])([H])C([H])([H])C([H])([H])C([H])(n4nc(-c5c([H])c([H])c(Oc6c([H])c([H])c(F)c([H])c6F)c([H])c5[H])c(C(=O)N([H])[H])c4N([H])[H])C3([H])[H])C(F)(F)C([H])([H])[H])c([H])c([H])c2C1([H])[H]

>  <smiles>  (23) 
[H]c1c([H])c([H])c2c(c1[H])C([H])([H])C([H])([H])C([H])([H])C2([H])N([H])C(=O)C1([H])N(C(=O)C([H])(N([H])C(=O)C([H])(N([H])C([H])([H])[H])C([H])([H])[H])C(C([H])([H])[H])(C([H])([H])[H])C([H])([H])[H])C([H])([H])c2c([H])c(OC([H])([H])C([H])([H])C([H])([H])N(C(=O)C([H])([H])C([H])([H])C([H])([H])N([H])C(=O)N3C([H])([H])C([H])([H])C([H])([H])C([H])(n4nc(-c5c([H])c([H])c(Oc6c([H])c([H])c(F)c([H])c6F)c([H])c5[H])c(C(=O)N([H])[H])c4N([H])[H])C3([H])[H])C(F)(F)C([H])([H])[H])c([H])c([H])c2C1([H])[H]

$$$$
23:0:0
     RDKit          3D

 92100  0  0  1  0  0  0  0  0999 V2000
  -30.9890  -17.9210   21.0230 C   0  0  0  0  0  3  0  0  0  0  0  0
  -30.9780  -19.3480   21.0220 C   0  0  0  0  0  3  0  0  0  0  0  0
  -28.7590  -19.3690   20.0970 C   0  0  0  0  0  3  0  0  0  0  0  0
  -29.8740  -17.1790   20.5630 C   0  0  0  0  0  0  0  0  0  0  0  0
  -28.7680  -17.9370   20.0850 C   0  0  0  0  0  0  0  0  0  0  0  0
  -29.8680  -20.1170   20.5770 C   0  0  0  0  0  0  0  0  0  0  0  0
  -30.5780  -14.6820   20.4130 C   0  0  0  0  0  0  0  0  0  0  0  0
  -30.3790  -12.4460   19.3460 C   0  0  0  0  0  2  0  0  0  0  0  0
  -29.4230  -12.5780   18.1380 C   0  0  0  0  0  2  0  0  0  0  0  0
  -27.9530  -12.4150   18.5760 C   0  0  0  0  0  2  0  0  0  0  0  0
  -27.5990  -13.2700   19.8220 C   0  0  0  0  0  3  0  0  0  0  0  0
  -28.6670  -13.1100   20.9270 C   0  0  0  0  0  2  0  0  0  0  0  0
  -29.9710  -13.4560   20.3380 N   0  0  0  0  0  0  0  0  0  0  0  0
  -31.7540  -14.8440   20.0730 O   0  0  0  0  0  0  0  0  0  0  0  0
  -29.7340  -15.7300   20.6580 N   0  0  0  0  0  0  0  0  0  0  0  0
  -28.7740  -15.4430   20.7730 H   0  0  0  0  0  0  0  0  0  0  0  0
  -25.2070  -13.8650   20.5530 C   0  0  0  0  0  0  0  0  0  0  0  0
  -24.1430  -13.0880   20.9200 C   0  0  0  0  0  0  0  0  0  0  0  0
  -24.6080  -11.7370   20.8860 C   0  0  0  0  0  0  0  0  0  0  0  0
  -26.2540  -12.9870   20.3120 N   0  0  0  0  0  0  0  0  0  0  0  0
  -25.8980  -11.7030   20.5740 N   0  0  0  0  0  0  0  0  0  0  0  0
  -23.8850  -10.4740   21.0760 C   0  0  0  0  0  0  0  0  0  0  0  0
  -24.3330   -9.4970   21.9930 C   0  0  0  0  0  3  0  0  0  0  0  0
  -23.6090   -8.2980   22.1720 C   0  0  0  0  0  3  0  0  0  0  0  0
  -22.4240   -8.0670   21.4320 C   0  0  0  0  0  0  0  0  0  0  0  0
  -21.9950   -9.0330   20.5060 C   0  0  0  0  0  3  0  0  0  0  0  0
  -22.7190  -10.2230   20.3250 C   0  0  0  0  0  3  0  0  0  0  0  0
  -21.6720   -6.9210   21.5210 O   0  0  0  0  0  0  0  0  0  0  0  0
  -21.6500   -6.1610   22.6630 C   0  0  0  0  0  0  0  0  0  0  0  0
  -21.2570   -6.6970   23.9080 C   0  0  0  0  0  3  0  0  0  0  0  0
  -21.1810   -5.8630   25.0410 C   0  0  0  0  0  3  0  0  0  0  0  0
  -21.4890   -4.4940   24.9310 C   0  0  0  0  0  0  0  0  0  0  0  0
  -21.8760   -3.9560   23.6910 C   0  0  0  0  0  3  0  0  0  0  0  0
  -21.9530   -4.7880   22.5590 C   0  0  0  0  0  0  0  0  0  0  0  0
  -22.3060   -4.2610   21.3620 F   0  0  0  0  0  0  0  0  0  0  0  0
  -21.4090   -3.6920   26.0180 F   0  0  0  0  0  0  0  0  0  0  0  0
  -22.7450  -13.5610   21.1980 C   0  0  0  0  0  0  0  0  0  0  0  0
  -22.0230  -12.8660   22.0700 N   0  0  0  0  0  0  0  0  0  0  0  0
  -22.3020  -14.5850   20.6800 O   0  0  0  0  0  0  0  0  0  0  0  0
  -22.3940  -12.0380   22.5130 H   0  0  0  0  0  0  0  0  0  0  0  0
  -21.0860  -13.1650   22.2970 H   0  0  0  0  0  0  0  0  0  0  0  0
  -25.3590  -15.2390   20.3890 N   0  0  0  0  0  0  0  0  0  0  0  0
  -24.5820  -15.8740   20.5290 H   0  0  0  0  0  0  0  0  0  0  0  0
  -26.2130  -15.7350   20.1410 H   0  0  0  0  0  0  0  0  0  0  0  0
  -27.6730  -17.2460   19.5650 N   0  0  0  0  0  0  0  0  0  0  0  0
  -26.9950  -17.8320   19.0900 H   0  0  0  0  0  0  0  0  0  0  0  0
  -27.9420  -16.4830   18.9550 H   0  0  0  0  0  0  0  0  0  0  0  0
  -29.9600  -21.5260   20.6420 O   0  0  0  0  0  0  0  0  0  0  0  0
  -28.8820  -22.4380   20.2570 C   0  0  0  0  0  2  0  0  0  0  0  0
  -29.2100  -23.9900   20.4660 C   0  0  0  0  0  3  0  0  0  0  0  0
  -28.1010  -25.0550   20.0610 C   0  0  0  0  0  3  0  0  0  0  0  0
  -28.3230  -26.5030   20.2960 O   0  0  0  0  0  0  0  0  0  0  0  0
  -24.6170  -31.9400   23.2740 C   0  0  0  0  0  0  0  0  0  0  0  0
  -27.2080  -27.3600   20.2340 C   0  0  0  0  0  0  0  0  0  0  0  0
  -23.4080  -30.5470   21.6350 C   0  0  0  0  0  3  0  0  0  0  0  0
  -24.8520  -28.9860   20.2160 C   0  0  0  0  0  0  0  0  0  0  0  0
  -25.9500  -30.8460   21.4600 C   0  0  0  0  0  2  0  0  0  0  0  0
  -26.0230  -29.4670   20.8150 C   0  0  0  0  0  0  0  0  0  0  0  0
  -27.2030  -28.6660   20.8160 C   0  0  0  0  0  3  0  0  0  0  0  0
  -26.0120  -26.9350   19.6080 C   0  0  0  0  0  3  0  0  0  0  0  0
  -24.8480  -27.7250   19.6040 C   0  0  0  0  0  3  0  0  0  0  0  0
  -23.6210  -29.8680   20.2570 C   0  0  0  0  0  2  0  0  0  0  0  0
  -24.6770  -31.1280   22.1790 N   0  0  0  0  0  0  0  0  0  0  0  0
  -23.5330  -32.2280   23.8030 O   0  0  0  0  0  0  0  0  0  0  0  0
  -22.7350  -29.5360   22.5940 C   0  0  0  0  0  0  0  0  0  0  0  0
  -21.4070  -29.3720   22.4650 N   0  0  0  0  0  0  0  0  0  0  0  0
  -23.4060  -28.9040   23.4140 O   0  0  0  0  0  0  0  0  0  0  0  0
  -20.9260  -29.9330   21.7750 H   0  0  0  0  0  0  0  0  0  0  0  0
  -18.0160  -28.2170   22.9620 C   0  0  0  0  0  0  0  0  0  0  0  0
  -20.5770  -28.4460   23.2350 C   0  0  0  0  0  3  0  0  0  0  0  0
  -20.6620  -27.0120   22.6620 C   0  0  0  0  0  2  0  0  0  0  0  0
  -19.5570  -26.7010   21.6470 C   0  0  0  0  0  2  0  0  0  0  0  0
  -18.1760  -26.8640   22.2880 C   0  0  0  0  0  2  0  0  0  0  0  0
  -19.1430  -28.9660   23.3930 C   0  0  0  0  0  0  0  0  0  0  0  0
  -18.9380  -30.2320   23.9830 C   0  0  0  0  0  3  0  0  0  0  0  0
  -17.6400  -30.7490   24.1460 C   0  0  0  0  0  3  0  0  0  0  0  0
  -16.5270  -29.9970   23.7320 C   0  0  0  0  0  3  0  0  0  0  0  0
  -16.7160  -28.7320   23.1460 C   0  0  0  0  0  3  0  0  0  0  0  0
  -25.9010  -32.5640   23.8990 C   0  0  0  0  0  3  0  0  0  0  0  0
  -25.6000  -33.9640   24.2300 N   0  0  0  0  0  0  0  0  0  0  0  0
  -25.9210  -35.0140   23.4620 C   0  0  0  0  0  0  0  0  0  0  0  0
  -26.5730  -34.9060   22.4190 O   0  0  0  0  0  0  0  0  0  0  0  0
  -25.0190  -34.1220   25.0390 H   0  0  0  0  0  0  0  0  0  0  0  0
  -24.1800  -36.8010   23.1440 C   0  0  0  0  0  1  0  0  0  0  0  0
  -25.4440  -36.4050   23.9230 C   0  0  0  0  0  3  0  0  0  0  0  0
  -27.6000  -37.3000   24.6860 C   0  0  0  0  0  1  0  0  0  0  0  0
  -26.4710  -37.4580   23.7720 N   0  0  0  0  0  0  0  0  0  0  0  0
  -26.0680  -38.3790   23.9220 H   0  0  0  0  0  0  0  0  0  0  0  0
  -26.4100  -31.7900   25.1770 C   0  0  1  0  0  0  0  0  0  0  0  0
  -25.3120  -31.5600   26.2420 C   0  0  0  0  0  1  0  0  0  0  0  0
  -26.9840  -30.4080   24.7880 C   0  0  0  0  0  1  0  0  0  0  0  0
  -27.5650  -32.5760   25.8410 C   0  0  0  0  0  1  0  0  0  0  0  0
  2  1  1  0
  3  6  1  0
  4 15  1  0
  4  1  2  0
  5  3  2  0
  5  4  1  0
  6 48  1  0
  6  2  2  0
  7 15  1  0
  8 13  1  0
  9 10  1  0
  9  8  1  0
 11 10  1  0
 11 20  1  0
 11 12  1  0
 13  7  1  0
 13 12  1  0
 14  7  2  0
 15 16  1  0
 17 18  2  0
 18 37  1  0
 19 18  1  0
 19 22  1  0
 20 17  1  0
 20 21  1  0
 21 19  2  0
 22 23  1  0
 23 24  2  0
 25 28  1  0
 25 24  1  0
 26 25  2  0
 27 26  1  0
 27 22  2  0
 28 29  1  0
 29 30  1  0
 30 31  2  0
 32 31  1  0
 32 36  1  0
 33 32  2  0
 34 29  2  0
 34 33  1  0
 35 34  1  0
 37 38  1  0
 38 41  1  0
 38 40  1  0
 39 37  2  0
 42 43  1  0
 42 17  1  0
 44 42  1  0
 45  5  1  0
 46 45  1  0
 47 45  1  0
 49 50  1  0
 49 48  1  0
 51 52  1  0
 51 50  2  0
 53 64  2  0
 54 52  1  0
 54 59  1  0
 55 63  1  0
 55 65  1  0
 56 62  1  0
 56 58  1  0
 57 63  1  0
 58 59  2  0
 58 57  1  0
 60 54  2  0
 61 60  1  0
 61 56  2  0
 62 55  1  0
 63 53  1  0
 65 67  2  0
 66 65  1  0
 68 66  1  0
 69 78  2  0
 69 74  1  0
 70 66  1  0
 70 74  1  0
 71 70  1  0
 72 73  1  0
 72 71  1  0
 73 69  1  0
 74 75  2  0
 75 76  1  0
 77 76  2  0
 78 77  1  0
 79 53  1  0
 79 80  1  0
 79 89  1  0
 80 83  1  0
 81 85  1  0
 81 80  1  0
 82 81  2  0
 85 84  1  0
 87 88  1  0
 87 85  1  0
 87 86  1  0
 89 92  1  1
 89 90  1  0
 91 89  1  0
M  ISO  4   7 100  15 100  51 101  52 101
M  END
>  <TORSDO>  (24) 
F 21

>  <SCORE>  (24) 
-13.942

>  <name>  (24) 
23

>  <ligand_id>  (24) 
23

>  <original_smiles>  (24) 
[H]c1c([H])c([H])c2c(c1[H])C([H])([H])C([H])([H])C([H])([H])C2([H])N([H])C(=O)C1([H])N(C(=O)C([H])(N([H])C(=O)C([H])(N([H])C([H])([H])[H])C([H])([H])[H])C(C([H])([H])[H])(C([H])([H])[H])C([H])([H])[H])C([H])([H])c2c([H])c(OC([H])([H])C([H])([H])C([H])([H])Oc3c([H])c([H])c(N([H])C(=O)N4C([H])([H])C([H])([H])C([H])([H])C([H])(n5nc(-c6c([H])c([H])c(Oc7c([H])c([H])c(F)c([H])c7F)c([H])c6[H])c(C(=O)N([H])[H])c5N([H])[H])C4([H])[H])c(N([H])[H])c3[H])c([H])c([H])c2C1([H])[H]

>  <smiles>  (24) 
[H]c1c([H])c([H])c2c(c1[H])C([H])([H])C([H])([H])C([H])([H])C2([H])N([H])C(=O)C1([H])N(C(=O)C([H])(N([H])C(=O)C([H])(N([H])C([H])([H])[H])C([H])([H])[H])C(C([H])([H])[H])(C([H])([H])[H])C([H])([H])[H])C([H])([H])c2c([H])c(OC([H])([H])C([H])([H])C([H])([H])Oc3c([H])c([H])c(N([H])C(=O)N4C([H])([H])C([H])([H])C([H])([H])C([H])(n5nc(-c6c([H])c([H])c(Oc7c([H])c([H])c(F)c([H])c7F)c([H])c6[H])c(C(=O)N([H])[H])c5N([H])[H])C4([H])[H])c(N([H])[H])c3[H])c([H])c([H])c2C1([H])[H]

$$$$
24:0:0
     RDKit          3D

 90 98  0  0  1  0  0  0  0  0999 V2000
  -30.6490  -19.8080   19.2030 C   0  0  0  0  0  3  0  0  0  0  0  0
  -30.7840  -18.3780   19.4130 C   0  0  0  0  0  3  0  0  0  0  0  0
  -28.4570  -19.7800   20.0310 C   0  0  0  0  0  3  0  0  0  0  0  0
  -28.5690  -18.3360   20.2200 C   0  0  0  0  0  0  0  0  0  0  0  0
  -29.4880  -20.6240   19.5030 C   0  0  0  0  0  0  0  0  0  0  0  0
  -29.7460  -17.5450   19.9240 C   0  0  0  0  0  0  0  0  0  0  0  0
  -27.3430  -17.6150   20.7520 C   0  0  0  0  0  1  0  0  0  0  0  0
  -30.5790  -14.9230   19.6700 C   0  0  0  0  0  0  0  0  0  0  0  0
  -30.4270  -12.5870   18.6990 C   0  0  0  0  0  2  0  0  0  0  0  0
  -29.3770  -12.5700   17.5620 C   0  0  0  0  0  2  0  0  0  0  0  0
  -27.9660  -12.3270   18.1270 C   0  0  0  0  0  2  0  0  0  0  0  0
  -27.6660  -13.2210   19.3590 C   0  0  0  0  0  3  0  0  0  0  0  0
  -28.8220  -13.2010   20.3830 C   0  0  0  0  0  2  0  0  0  0  0  0
  -30.0340  -13.6410   19.6760 N   0  0  0  0  0  0  0  0  0  0  0  0
  -31.7140  -15.0630   19.2030 O   0  0  0  0  0  0  0  0  0  0  0  0
  -29.7730  -16.0190   20.0730 N   0  0  0  0  0  0  0  0  0  0  0  0
  -28.9500  -15.6730   20.5410 H   0  0  0  0  0  0  0  0  0  0  0  0
  -25.3660  -13.7610   20.3470 C   0  0  0  0  0  0  0  0  0  0  0  0
  -24.3460  -12.9680   20.7940 C   0  0  0  0  0  0  0  0  0  0  0  0
  -24.8020  -11.6210   20.6550 C   0  0  0  0  0  0  0  0  0  0  0  0
  -26.3810  -12.8980   19.9700 N   0  0  0  0  0  0  0  0  0  0  0  0
  -26.0560  -11.6030   20.2150 N   0  0  0  0  0  0  0  0  0  0  0  0
  -24.0960  -10.3490   20.8580 C   0  0  0  0  0  0  0  0  0  0  0  0
  -24.5430   -9.3970   21.8000 C   0  0  0  0  0  3  0  0  0  0  0  0
  -23.8350   -8.1910   21.9920 C   0  0  0  0  0  3  0  0  0  0  0  0
  -22.6650   -7.9290   21.2390 C   0  0  0  0  0  0  0  0  0  0  0  0
  -22.2380   -8.8690   20.2850 C   0  0  0  0  0  3  0  0  0  0  0  0
  -22.9470  -10.0650   20.0920 C   0  0  0  0  0  3  0  0  0  0  0  0
  -21.9280   -6.7730   21.3380 O   0  0  0  0  0  0  0  0  0  0  0  0
  -21.7930   -6.1070   22.5290 C   0  0  0  0  0  0  0  0  0  0  0  0
  -21.2070   -6.7150   23.6610 C   0  0  0  0  0  3  0  0  0  0  0  0
  -21.0250   -5.9710   24.8440 C   0  0  0  0  0  3  0  0  0  0  0  0
  -21.4180   -4.6210   24.8950 C   0  0  0  0  0  0  0  0  0  0  0  0
  -21.9960   -4.0110   23.7670 C   0  0  0  0  0  3  0  0  0  0  0  0
  -22.1800   -4.7530   22.5860 C   0  0  0  0  0  0  0  0  0  0  0  0
  -22.7180   -4.1560   21.4960 F   0  0  0  0  0  0  0  0  0  0  0  0
  -21.2350   -3.9030   26.0280 F   0  0  0  0  0  0  0  0  0  0  0  0
  -22.9840  -13.4290   21.2260 C   0  0  0  0  0  0  0  0  0  0  0  0
  -22.3490  -12.6970   22.1350 N   0  0  0  0  0  0  0  0  0  0  0  0
  -22.4960  -14.4730   20.7940 O   0  0  0  0  0  0  0  0  0  0  0  0
  -22.7590  -11.8520   22.5020 H   0  0  0  0  0  0  0  0  0  0  0  0
  -21.4420  -12.9880   22.4700 H   0  0  0  0  0  0  0  0  0  0  0  0
  -25.5080  -15.1360   20.2020 N   0  0  0  0  0  0  0  0  0  0  0  0
  -24.7270  -15.7670   20.3540 H   0  0  0  0  0  0  0  0  0  0  0  0
  -26.2790  -15.5750   19.7180 H   0  0  0  0  0  0  0  0  0  0  0  0
  -30.6580  -22.5940   18.6320 C   0  0  0  0  0  1  0  0  0  0  0  0
  -29.4240  -22.1050   19.2510 N   0  0  0  0  0  0  0  0  0  0  0  0
  -28.5940  -23.2780   19.8620 C   0  0  0  0  0  2  0  0  0  0  0  0
  -28.3320  -24.7350   19.0470 C   0  0  0  0  0  2  0  0  0  0  0  0
  -28.3270  -26.1820   19.6090 O   0  0  0  0  0  0  0  0  0  0  0  0
  -24.6100  -31.5850   22.9000 C   0  0  0  0  0  0  0  0  0  0  0  0
  -27.2320  -27.1180   19.5660 C   0  0  0  0  0  0  0  0  0  0  0  0
  -23.4170  -30.2750   21.1890 C   0  0  0  0  0  3  0  0  0  0  0  0
  -24.8740  -28.8140   19.6610 C   0  0  0  0  0  0  0  0  0  0  0  0
  -25.9650  -30.5880   21.0260 C   0  0  0  0  0  2  0  0  0  0  0  0
  -26.0490  -29.2420   20.2880 C   0  0  0  0  0  0  0  0  0  0  0  0
  -27.2240  -28.4070   20.2310 C   0  0  0  0  0  3  0  0  0  0  0  0
  -26.0260  -26.7900   18.9040 C   0  0  0  0  0  3  0  0  0  0  0  0
  -24.8720  -27.5990   18.9610 C   0  0  0  0  0  3  0  0  0  0  0  0
  -23.6370  -29.6900   19.7690 C   0  0  0  0  0  2  0  0  0  0  0  0
  -24.6830  -30.8330   21.7610 N   0  0  0  0  0  0  0  0  0  0  0  0
  -23.5250  -31.8220   23.4530 O   0  0  0  0  0  0  0  0  0  0  0  0
  -22.7650  -29.1980   22.0930 C   0  0  0  0  0  0  0  0  0  0  0  0
  -21.4310  -29.0510   22.0040 N   0  0  0  0  0  0  0  0  0  0  0  0
  -23.4580  -28.5050   22.8420 O   0  0  0  0  0  0  0  0  0  0  0  0
  -20.9280  -29.6660   21.3810 H   0  0  0  0  0  0  0  0  0  0  0  0
  -18.0460  -27.8980   22.5890 C   0  0  0  0  0  0  0  0  0  0  0  0
  -20.6230  -28.0670   22.7320 C   0  0  0  0  0  3  0  0  0  0  0  0
  -20.6490  -26.6930   22.0250 C   0  0  0  0  0  2  0  0  0  0  0  0
  -19.4830  -26.4950   21.0510 C   0  0  0  0  0  2  0  0  0  0  0  0
  -18.1430  -26.6140   21.7830 C   0  0  0  0  0  2  0  0  0  0  0  0
  -19.2100  -28.5880   23.0200 C   0  0  0  0  0  0  0  0  0  0  0  0
  -19.0630  -29.7920   23.7410 C   0  0  0  0  0  3  0  0  0  0  0  0
  -17.7860  -30.3060   24.0340 C   0  0  0  0  0  3  0  0  0  0  0  0
  -16.6370  -29.6120   23.6170 C   0  0  0  0  0  3  0  0  0  0  0  0
  -16.7680  -28.4100   22.8980 C   0  0  0  0  0  3  0  0  0  0  0  0
  -25.8860  -32.2010   23.5510 C   0  0  0  0  0  3  0  0  0  0  0  0
  -26.4310  -31.3560   24.7670 C   0  0  1  0  0  0  0  0  0  0  0  0
  -25.3570  -31.0350   25.8320 C   0  0  0  0  0  1  0  0  0  0  0  0
  -27.0320  -30.0150   24.2830 C   0  0  0  0  0  1  0  0  0  0  0  0
  -27.5770  -32.1240   25.4640 C   0  0  0  0  0  1  0  0  0  0  0  0
  -25.5520  -33.5670   23.9850 N   0  0  0  0  0  0  0  0  0  0  0  0
  -25.8540  -34.6820   23.3070 C   0  0  0  0  0  0  0  0  0  0  0  0
  -26.5120  -34.6700   22.2620 O   0  0  0  0  0  0  0  0  0  0  0  0
  -24.9650  -33.6490   24.8010 H   0  0  0  0  0  0  0  0  0  0  0  0
  -24.0830  -36.4610   23.1190 C   0  0  0  0  0  1  0  0  0  0  0  0
  -25.3480  -36.0230   23.8750 C   0  0  0  0  0  3  0  0  0  0  0  0
  -27.4730  -36.8980   24.7380 C   0  0  0  0  0  1  0  0  0  0  0  0
  -26.3550  -37.1040   23.8210 N   0  0  0  0  0  0  0  0  0  0  0  0
  -25.9310  -38.0030   24.0350 H   0  0  0  0  0  0  0  0  0  0  0  0
  1  2  2  0
  1  5  1  0
  2  6  1  0
  3  4  1  0
  4  7  1  0
  5  3  2  0
  6 16  1  0
  6  4  2  0
  8 14  1  0
  8 16  1  0
  9 14  1  0
 10 11  1  0
 10  9  1  0
 12 11  1  0
 12 21  1  0
 12 13  1  0
 14 13  1  0
 15  8  2  0
 16 17  1  0
 18 19  2  0
 19 38  1  0
 20 19  1  0
 20 23  1  0
 21 22  1  0
 21 18  1  0
 22 20  2  0
 23 24  1  0
 24 25  2  0
 26 29  1  0
 26 25  1  0
 27 26  2  0
 28 27  1  0
 28 23  2  0
 29 30  1  0
 30 35  2  0
 30 31  1  0
 31 32  2  0
 32 33  1  0
 33 37  1  0
 34 33  2  0
 35 34  1  0
 36 35  1  0
 38 39  1  0
 39 42  1  0
 39 41  1  0
 40 38  2  0
 43 18  1  0
 43 44  1  0
 45 43  1  0
 46 47  1  0
 47  5  1  0
 47 48  1  0
 49 50  1  0
 49 48  1  0
 51 62  2  0
 52 50  1  0
 52 57  1  0
 53 61  1  0
 53 63  1  0
 54 60  1  0
 54 56  1  0
 55 61  1  0
 56 55  1  0
 57 56  2  0
 58 59  1  0
 58 52  2  0
 59 54  2  0
 60 53  1  0
 61 51  1  0
 63 65  2  0
 64 63  1  0
 66 64  1  0
 67 76  2  0
 67 72  1  0
 68 64  1  0
 68 72  1  0
 69 68  1  0
 70 71  1  0
 70 69  1  0
 71 67  1  0
 72 73  2  0
 73 74  1  0
 75 74  2  0
 76 75  1  0
 77 51  1  0
 77 82  1  0
 77 78  1  0
 78 81  1  1
 78 79  1  0
 80 78  1  0
 82 85  1  0
 83 87  1  0
 83 82  1  0
 84 83  2  0
 87 86  1  0
 89 87  1  0
 89 90  1  0
 89 88  1  0
M  ISO  4   8 100  16 100  49 101  50 101
M  END
>  <TORSDO>  (25) 
F 19

>  <SCORE>  (25) 
-12.632

>  <name>  (25) 
24

>  <ligand_id>  (25) 
24

>  <original_smiles>  (25) 
[H]c1c([H])c([H])c2c(c1[H])C([H])([H])C([H])([H])C([H])([H])C2([H])N([H])C(=O)C1([H])N(C(=O)C([H])(N([H])C(=O)C([H])(N([H])C([H])([H])[H])C([H])([H])[H])C(C([H])([H])[H])(C([H])([H])[H])C([H])([H])[H])C([H])([H])c2c([H])c(OC([H])([H])C([H])([H])N(c3c([H])c([H])c(N([H])C(=O)N4C([H])([H])C([H])([H])C([H])([H])C([H])(n5nc(-c6c([H])c([H])c(Oc7c([H])c([H])c(F)c([H])c7F)c([H])c6[H])c(C(=O)N([H])[H])c5N([H])[H])C4([H])[H])c(C([H])([H])[H])c3[H])C([H])([H])[H])c([H])c([H])c2C1([H])[H]

>  <smiles>  (25) 
[H]c1c([H])c([H])c2c(c1[H])C([H])([H])C([H])([H])C([H])([H])C2([H])N([H])C(=O)C1([H])N(C(=O)C([H])(N([H])C(=O)C([H])(N([H])C([H])([H])[H])C([H])([H])[H])C(C([H])([H])[H])(C([H])([H])[H])C([H])([H])[H])C([H])([H])c2c([H])c(OC([H])([H])C([H])([H])N(c3c([H])c([H])c(N([H])C(=O)N4C([H])([H])C([H])([H])C([H])([H])C([H])(n5nc(-c6c([H])c([H])c(Oc7c([H])c([H])c(F)c([H])c7F)c([H])c6[H])c(C(=O)N([H])[H])c5N([H])[H])C4([H])[H])c(C([H])([H])[H])c3[H])C([H])([H])[H])c([H])c([H])c2C1([H])[H]

$$$$
25:0:0
     RDKit          3D

 89 97  0  0  1  0  0  0  0  0999 V2000
  -31.8640  -19.4860   20.7210 C   0  0  0  0  0  3  0  0  0  0  0  0
  -31.4230  -18.1510   20.6510 C   0  0  0  0  0  3  0  0  0  0  0  0
  -29.1940  -19.0350   20.3760 C   0  0  0  0  0  3  0  0  0  0  0  0
  -31.0180  -20.6210   20.6250 C   0  0  0  0  0  0  0  0  0  0  0  0
  -30.0700  -17.8100   20.4730 C   0  0  0  0  0  0  0  0  0  0  0  0
  -29.6040  -20.4890   20.4380 C   0  0  0  0  0  0  0  0  0  0  0  0
  -31.7410  -21.9540   20.7310 C   0  0  0  0  0  1  0  0  0  0  0  0
  -30.4900  -15.0680   20.3220 C   0  0  0  0  0  0  0  0  0  0  0  0
  -30.3750  -12.7040   19.3740 C   0  0  0  0  0  2  0  0  0  0  0  0
  -29.4320  -12.6240   18.1520 C   0  0  0  0  0  2  0  0  0  0  0  0
  -27.9780  -12.3930   18.6020 C   0  0  0  0  0  2  0  0  0  0  0  0
  -27.5690  -13.3160   19.7800 C   0  0  0  0  0  3  0  0  0  0  0  0
  -28.6370  -13.3630   20.8920 C   0  0  0  0  0  2  0  0  0  0  0  0
  -29.8870  -13.8050   20.2600 N   0  0  0  0  0  0  0  0  0  0  0  0
  -31.6980  -15.0870   20.0590 O   0  0  0  0  0  0  0  0  0  0  0  0
  -29.7250  -16.2870   20.4420 N   0  0  0  0  0  0  0  0  0  0  0  0
  -28.7370  -16.0980   20.5190 H   0  0  0  0  0  0  0  0  0  0  0  0
  -25.1940  -13.8630   20.5500 C   0  0  0  0  0  0  0  0  0  0  0  0
  -24.1400  -13.0760   20.9240 C   0  0  0  0  0  0  0  0  0  0  0  0
  -24.6170  -11.7300   20.8810 C   0  0  0  0  0  0  0  0  0  0  0  0
  -26.2430  -12.9970   20.2950 N   0  0  0  0  0  0  0  0  0  0  0  0
  -25.9070  -11.7080   20.5610 N   0  0  0  0  0  0  0  0  0  0  0  0
  -23.9030  -10.4600   21.0680 C   0  0  0  0  0  0  0  0  0  0  0  0
  -24.3500   -9.4880   21.9910 C   0  0  0  0  0  3  0  0  0  0  0  0
  -23.6320   -8.2850   22.1660 C   0  0  0  0  0  3  0  0  0  0  0  0
  -22.4550   -8.0450   21.4210 C   0  0  0  0  0  0  0  0  0  0  0  0
  -22.0260   -9.0060   20.4870 C   0  0  0  0  0  3  0  0  0  0  0  0
  -22.7450  -10.2000   20.3100 C   0  0  0  0  0  3  0  0  0  0  0  0
  -21.7070   -6.8950   21.5070 O   0  0  0  0  0  0  0  0  0  0  0  0
  -21.6720   -6.1450   22.6550 C   0  0  0  0  0  0  0  0  0  0  0  0
  -21.2370   -6.6830   23.8860 C   0  0  0  0  0  3  0  0  0  0  0  0
  -21.1510   -5.8580   25.0250 C   0  0  0  0  0  3  0  0  0  0  0  0
  -21.4910   -4.4940   24.9330 C   0  0  0  0  0  0  0  0  0  0  0  0
  -21.9200   -3.9550   23.7080 C   0  0  0  0  0  3  0  0  0  0  0  0
  -22.0070   -4.7770   22.5710 C   0  0  0  0  0  0  0  0  0  0  0  0
  -22.4000   -4.2480   21.3880 F   0  0  0  0  0  0  0  0  0  0  0  0
  -21.4020   -3.6990   26.0250 F   0  0  0  0  0  0  0  0  0  0  0  0
  -22.7410  -13.5400   21.2050 C   0  0  0  0  0  0  0  0  0  0  0  0
  -22.0250  -12.8360   22.0740 N   0  0  0  0  0  0  0  0  0  0  0  0
  -22.2920  -14.5620   20.6900 O   0  0  0  0  0  0  0  0  0  0  0  0
  -22.4020  -12.0090   22.5130 H   0  0  0  0  0  0  0  0  0  0  0  0
  -21.0870  -13.1300   22.3060 H   0  0  0  0  0  0  0  0  0  0  0  0
  -25.3400  -15.2370   20.3780 N   0  0  0  0  0  0  0  0  0  0  0  0
  -24.5630  -15.8770   20.4960 H   0  0  0  0  0  0  0  0  0  0  0  0
  -26.1660  -15.6860   20.0040 H   0  0  0  0  0  0  0  0  0  0  0  0
  -28.7020  -21.6740   20.3190 O   0  0  0  0  0  0  0  0  0  0  0  0
  -28.9920  -23.2290   20.4210 C   0  0  0  0  0  3  0  0  0  0  0  0
  -27.9420  -24.5690   20.1980 C   0  0  0  0  0  3  0  0  0  0  0  0
  -28.2190  -26.1220   20.3370 O   0  0  0  0  0  0  0  0  0  0  0  0
  -24.6420  -31.9290   23.2510 C   0  0  0  0  0  0  0  0  0  0  0  0
  -27.1800  -27.1370   20.2620 C   0  0  0  0  0  0  0  0  0  0  0  0
  -23.4340  -30.5330   21.6190 C   0  0  0  0  0  3  0  0  0  0  0  0
  -24.8720  -28.9310   20.2070 C   0  0  0  0  0  0  0  0  0  0  0  0
  -25.9940  -30.7650   21.4610 C   0  0  0  0  0  2  0  0  0  0  0  0
  -26.0560  -29.3640   20.8160 C   0  0  0  0  0  0  0  0  0  0  0  0
  -27.2110  -28.4850   20.8220 C   0  0  0  0  0  3  0  0  0  0  0  0
  -25.9670  -26.8160   19.6150 C   0  0  0  0  0  3  0  0  0  0  0  0
  -24.8430  -27.6730   19.5890 C   0  0  0  0  0  3  0  0  0  0  0  0
  -23.6540  -29.8440   20.2450 C   0  0  0  0  0  2  0  0  0  0  0  0
  -24.7110  -31.0990   22.1640 N   0  0  0  0  0  0  0  0  0  0  0  0
  -23.5570  -32.2270   23.7740 O   0  0  0  0  0  0  0  0  0  0  0  0
  -22.7420  -29.5410   22.5870 C   0  0  0  0  0  0  0  0  0  0  0  0
  -21.4130  -29.3830   22.4600 N   0  0  0  0  0  0  0  0  0  0  0  0
  -23.4060  -28.9140   23.4180 O   0  0  0  0  0  0  0  0  0  0  0  0
  -20.9340  -29.9370   21.7640 H   0  0  0  0  0  0  0  0  0  0  0  0
  -18.0190  -28.2180   22.9700 C   0  0  0  0  0  0  0  0  0  0  0  0
  -20.5800  -28.4580   23.2360 C   0  0  0  0  0  3  0  0  0  0  0  0
  -20.6680  -27.0220   22.6720 C   0  0  0  0  0  2  0  0  0  0  0  0
  -19.5640  -26.7030   21.6590 C   0  0  0  0  0  2  0  0  0  0  0  0
  -18.1830  -26.8640   22.3010 C   0  0  0  0  0  2  0  0  0  0  0  0
  -19.1450  -28.9740   23.3950 C   0  0  0  0  0  0  0  0  0  0  0  0
  -18.9350  -30.2390   23.9840 C   0  0  0  0  0  3  0  0  0  0  0  0
  -17.6340  -30.7510   24.1500 C   0  0  0  0  0  3  0  0  0  0  0  0
  -16.5240  -29.9930   23.7390 C   0  0  0  0  0  3  0  0  0  0  0  0
  -16.7170  -28.7290   23.1550 C   0  0  0  0  0  3  0  0  0  0  0  0
  -25.9230  -32.5590   23.8780 C   0  0  0  0  0  3  0  0  0  0  0  0
  -26.4260  -31.7920   25.1630 C   0  0  1  0  0  0  0  0  0  0  0  0
  -25.3270  -31.5680   26.2270 C   0  0  0  0  0  1  0  0  0  0  0  0
  -27.0020  -30.4060   24.7870 C   0  0  0  0  0  1  0  0  0  0  0  0
  -27.5800  -32.5820   25.8240 C   0  0  0  0  0  1  0  0  0  0  0  0
  -25.6170  -33.9610   24.2080 N   0  0  0  0  0  0  0  0  0  0  0  0
  -25.9300  -35.0140   23.4410 C   0  0  0  0  0  0  0  0  0  0  0  0
  -26.5720  -34.9080   22.3930 O   0  0  0  0  0  0  0  0  0  0  0  0
  -25.0410  -34.1160   25.0210 H   0  0  0  0  0  0  0  0  0  0  0  0
  -24.1820  -36.8020   23.1520 C   0  0  0  0  0  1  0  0  0  0  0  0
  -25.4580  -36.4050   23.9100 C   0  0  0  0  0  3  0  0  0  0  0  0
  -27.6220  -37.3090   24.6430 C   0  0  0  0  0  1  0  0  0  0  0  0
  -26.4820  -37.4610   23.7440 N   0  0  0  0  0  0  0  0  0  0  0  0
  -26.0780  -38.3810   23.8980 H   0  0  0  0  0  0  0  0  0  0  0  0
  2  1  1  0
  3  6  2  0
  3  5  1  0
  4  1  2  0
  4  7  1  0
  5  2  2  0
  6  4  1  0
  8 16  1  0
  9 14  1  0
 10 11  1  0
 10  9  1  0
 12 11  1  0
 12 21  1  0
 12 13  1  0
 14  8  1  0
 14 13  1  0
 15  8  2  0
 16  5  1  0
 16 17  1  0
 18 19  2  0
 19 38  1  0
 20 19  1  0
 20 23  1  0
 21 18  1  0
 21 22  1  0
 22 20  2  0
 23 24  1  0
 24 25  2  0
 26 29  1  0
 26 25  1  0
 27 26  2  0
 28 27  1  0
 28 23  2  0
 29 30  1  0
 30 31  1  0
 31 32  2  0
 33 32  1  0
 33 37  1  0
 34 33  2  0
 35 30  2  0
 35 34  1  0
 36 35  1  0
 38 39  1  0
 39 42  1  0
 39 41  1  0
 40 38  2  0
 43 44  1  0
 43 18  1  0
 45 43  1  0
 46 47  1  0
 46  6  1  0
 48 49  1  0
 48 47  2  0
 50 61  2  0
 51 49  1  0
 51 56  1  0
 52 60  1  0
 52 62  1  0
 53 59  1  0
 53 55  1  0
 54 60  1  0
 55 56  2  0
 55 54  1  0
 57 51  2  0
 58 57  1  0
 58 53  2  0
 59 52  1  0
 60 50  1  0
 62 64  2  0
 63 62  1  0
 65 63  1  0
 66 75  2  0
 66 71  1  0
 67 63  1  0
 67 71  1  0
 68 67  1  0
 69 70  1  0
 69 68  1  0
 70 66  1  0
 71 72  2  0
 72 73  1  0
 74 73  2  0
 75 74  1  0
 76 50  1  0
 76 81  1  0
 76 77  1  0
 77 80  1  1
 77 78  1  0
 79 77  1  0
 81 84  1  0
 82 86  1  0
 82 81  1  0
 83 82  2  0
 86 85  1  0
 88 89  1  0
 88 86  1  0
 88 87  1  0
M  ISO  4   8 100  16 100  48 101  49 101
M  END
>  <TORSDO>  (26) 
F 19

>  <SCORE>  (26) 
-15.133

>  <name>  (26) 
25

>  <ligand_id>  (26) 
25

>  <original_smiles>  (26) 
[H]c1c([H])c([H])c2c(c1[H])C([H])([H])C([H])([H])C([H])([H])C2([H])N([H])C(=O)C1([H])N(C(=O)C([H])(N([H])C(=O)C([H])(N([H])C([H])([H])[H])C([H])([H])[H])C(C([H])([H])[H])(C([H])([H])[H])C([H])([H])[H])C([H])([H])c2c([H])c(OC([H])([H])C([H])([H])Oc3c([H])c(N([H])C(=O)N4C([H])([H])C([H])([H])C([H])([H])C([H])(n5nc(-c6c([H])c([H])c(Oc7c([H])c([H])c(F)c([H])c7F)c([H])c6[H])c(C(=O)N([H])[H])c5N([H])[H])C4([H])[H])c([H])c([H])c3C([H])([H])[H])c([H])c([H])c2C1([H])[H]

>  <smiles>  (26) 
[H]c1c([H])c([H])c2c(c1[H])C([H])([H])C([H])([H])C([H])([H])C2([H])N([H])C(=O)C1([H])N(C(=O)C([H])(N([H])C(=O)C([H])(N([H])C([H])([H])[H])C([H])([H])[H])C(C([H])([H])[H])(C([H])([H])[H])C([H])([H])[H])C([H])([H])c2c([H])c(OC([H])([H])C([H])([H])Oc3c([H])c(N([H])C(=O)N4C([H])([H])C([H])([H])C([H])([H])C([H])(n5nc(-c6c([H])c([H])c(Oc7c([H])c([H])c(F)c([H])c7F)c([H])c6[H])c(C(=O)N([H])[H])c5N([H])[H])C4([H])[H])c([H])c([H])c3C([H])([H])[H])c([H])c([H])c2C1([H])[H]

$$$$
26:0:0
     RDKit          3D

 93101  0  0  1  0  0  0  0  0999 V2000
  -29.0580  -19.7890   19.1730 C   0  0  0  0  0  3  0  0  0  0  0  0
  -29.9260  -20.2560   21.3050 C   0  0  0  0  0  3  0  0  0  0  0  0
  -29.3140  -18.3640   19.3310 C   0  0  0  0  0  0  0  0  0  0  0  0
  -29.8960  -17.7980   20.5180 C   0  0  0  0  0  0  0  0  0  0  0  0
  -29.3190  -20.8210   20.1340 C   0  0  0  0  0  0  0  0  0  0  0  0
  -30.1840  -18.8280   21.4880 C   0  0  0  0  0  0  0  0  0  0  0  0
  -30.6920  -18.4360   22.6830 F   0  0  0  0  0  0  0  0  0  0  0  0
  -30.7500  -15.1850   20.5980 C   0  0  0  0  0  0  0  0  0  0  0  0
  -30.7270  -12.8060   19.7310 C   0  0  0  0  0  2  0  0  0  0  0  0
  -29.8560  -12.7350   18.4540 C   0  0  0  0  0  2  0  0  0  0  0  0
  -28.3750  -12.5100   18.8130 C   0  0  0  0  0  2  0  0  0  0  0  0
  -27.8980  -13.4550   19.9470 C   0  0  0  0  0  3  0  0  0  0  0  0
  -28.8920  -13.5020   21.1270 C   0  0  0  0  0  2  0  0  0  0  0  0
  -30.1990  -13.9070   20.5860 N   0  0  0  0  0  0  0  0  0  0  0  0
  -31.9420  -15.3020   20.2920 O   0  0  0  0  0  0  0  0  0  0  0  0
  -29.9160  -16.2990   20.8480 N   0  0  0  0  0  0  0  0  0  0  0  0
  -29.0360  -15.9930   21.2340 H   0  0  0  0  0  0  0  0  0  0  0  0
  -25.4820  -14.0290   20.5730 C   0  0  0  0  0  0  0  0  0  0  0  0
  -24.4060  -13.2490   20.9020 C   0  0  0  0  0  0  0  0  0  0  0  0
  -24.8780  -11.9010   20.8960 C   0  0  0  0  0  0  0  0  0  0  0  0
  -26.5390  -13.1540   20.3800 N   0  0  0  0  0  0  0  0  0  0  0  0
  -26.1810  -11.8690   20.6400 N   0  0  0  0  0  0  0  0  0  0  0  0
  -24.1510  -10.6370   21.0630 C   0  0  0  0  0  0  0  0  0  0  0  0
  -24.5280   -9.6870   22.0380 C   0  0  0  0  0  3  0  0  0  0  0  0
  -23.7990   -8.4890   22.1920 C   0  0  0  0  0  3  0  0  0  0  0  0
  -22.6770   -8.2290   21.3700 C   0  0  0  0  0  0  0  0  0  0  0  0
  -22.3190   -9.1670   20.3840 C   0  0  0  0  0  3  0  0  0  0  0  0
  -23.0500  -10.3570   20.2290 C   0  0  0  0  0  3  0  0  0  0  0  0
  -21.9260   -7.0800   21.4280 O   0  0  0  0  0  0  0  0  0  0  0  0
  -21.7830   -6.3740   22.5970 C   0  0  0  0  0  0  0  0  0  0  0  0
  -21.2150   -6.9530   23.7530 C   0  0  0  0  0  3  0  0  0  0  0  0
  -21.0210   -6.1710   24.9080 C   0  0  0  0  0  3  0  0  0  0  0  0
  -21.3830   -4.8110   24.9100 C   0  0  0  0  0  0  0  0  0  0  0  0
  -21.9450   -4.2320   23.7590 C   0  0  0  0  0  3  0  0  0  0  0  0
  -22.1410   -5.0110   22.6040 C   0  0  0  0  0  0  0  0  0  0  0  0
  -22.6630   -4.4420   21.4900 F   0  0  0  0  0  0  0  0  0  0  0  0
  -21.1900   -4.0590   26.0180 F   0  0  0  0  0  0  0  0  0  0  0  0
  -22.9950  -13.7210   21.1090 C   0  0  0  0  0  0  0  0  0  0  0  0
  -22.2350  -13.0340   21.9540 N   0  0  0  0  0  0  0  0  0  0  0  0
  -22.5760  -14.7370   20.5550 O   0  0  0  0  0  0  0  0  0  0  0  0
  -22.5880  -12.2150   22.4250 H   0  0  0  0  0  0  0  0  0  0  0  0
  -21.2880  -13.3350   22.1370 H   0  0  0  0  0  0  0  0  0  0  0  0
  -25.6450  -15.4000   20.3990 N   0  0  0  0  0  0  0  0  0  0  0  0
  -24.8680  -16.0470   20.4840 H   0  0  0  0  0  0  0  0  0  0  0  0
  -26.4820  -15.8380   20.0390 H   0  0  0  0  0  0  0  0  0  0  0  0
  -28.8520  -17.4310   18.2120 C   0  0  1  0  0  0  0  0  0  0  0  0
  -28.4020  -18.0960   17.1470 F   0  0  0  0  0  0  0  0  0  0  0  0
  -29.8510  -16.6500   17.8040 F   0  0  0  0  0  0  0  0  0  0  0  0
  -27.8640  -16.6620   18.6670 F   0  0  0  0  0  0  0  0  0  0  0  0
  -28.8780  -22.1880   19.8330 O   0  0  0  0  0  0  0  0  0  0  0  0
  -29.1350  -23.5550   20.4800 C   0  0  0  0  0  3  0  0  0  0  0  0
  -28.1870  -24.8950   20.0860 C   0  0  0  0  0  3  0  0  0  0  0  0
  -28.4150  -26.4090   20.3590 O   0  0  0  0  0  0  0  0  0  0  0  0
  -24.6780  -31.9960   23.3460 C   0  0  0  0  0  0  0  0  0  0  0  0
  -27.3420  -27.3680   20.2770 C   0  0  0  0  0  0  0  0  0  0  0  0
  -23.5060  -30.6010   21.6860 C   0  0  0  0  0  3  0  0  0  0  0  0
  -24.9840  -29.0680   20.2470 C   0  0  0  0  0  0  0  0  0  0  0  0
  -26.0550  -30.9110   21.5340 C   0  0  0  0  0  2  0  0  0  0  0  0
  -26.1520  -29.5290   20.8690 C   0  0  0  0  0  0  0  0  0  0  0  0
  -27.3300  -28.6930   20.8700 C   0  0  0  0  0  3  0  0  0  0  0  0
  -26.1480  -27.0100   19.6100 C   0  0  0  0  0  3  0  0  0  0  0  0
  -24.9950  -27.8230   19.6010 C   0  0  0  0  0  3  0  0  0  0  0  0
  -23.7420  -29.9450   20.2990 C   0  0  0  0  0  2  0  0  0  0  0  0
  -24.7660  -31.1910   22.2440 N   0  0  0  0  0  0  0  0  0  0  0  0
  -23.5860  -32.2600   23.8720 O   0  0  0  0  0  0  0  0  0  0  0  0
  -22.8400  -29.5720   22.6330 C   0  0  0  0  0  0  0  0  0  0  0  0
  -21.5200  -29.3610   22.4790 N   0  0  0  0  0  0  0  0  0  0  0  0
  -23.5130  -28.9670   23.4720 O   0  0  0  0  0  0  0  0  0  0  0  0
  -21.0340  -29.9040   21.7800 H   0  0  0  0  0  0  0  0  0  0  0  0
  -18.1720  -28.0430   22.8960 C   0  0  0  0  0  0  0  0  0  0  0  0
  -20.7110  -28.4000   23.2330 C   0  0  0  0  0  3  0  0  0  0  0  0
  -20.8790  -26.9680   22.6750 C   0  0  0  0  0  2  0  0  0  0  0  0
  -19.8190  -26.5980   21.6330 C   0  0  0  0  0  2  0  0  0  0  0  0
  -18.4160  -26.6970   22.2350 C   0  0  0  0  0  2  0  0  0  0  0  0
  -19.2490  -28.8490   23.3510 C   0  0  0  0  0  0  0  0  0  0  0  0
  -18.9650  -30.1050   23.9290 C   0  0  0  0  0  3  0  0  0  0  0  0
  -17.6380  -30.5580   24.0550 C   0  0  0  0  0  3  0  0  0  0  0  0
  -16.5760  -29.7490   23.6140 C   0  0  0  0  0  3  0  0  0  0  0  0
  -16.8430  -28.4930   23.0410 C   0  0  0  0  0  3  0  0  0  0  0  0
  -25.9450  -32.6440   23.9860 C   0  0  0  0  0  3  0  0  0  0  0  0
  -26.4280  -31.9000   25.2910 C   0  0  1  0  0  0  0  0  0  0  0  0
  -25.3080  -31.6820   26.3360 C   0  0  0  0  0  1  0  0  0  0  0  0
  -27.0230  -30.5140   24.9460 C   0  0  0  0  0  1  0  0  0  0  0  0
  -27.5610  -32.7080   25.9640 C   0  0  0  0  0  1  0  0  0  0  0  0
  -25.6280  -34.0490   24.2840 N   0  0  0  0  0  0  0  0  0  0  0  0
  -25.9500  -35.0880   23.5010 C   0  0  0  0  0  0  0  0  0  0  0  0
  -26.6110  -34.9640   22.4670 O   0  0  0  0  0  0  0  0  0  0  0  0
  -25.0380  -34.2180   25.0860 H   0  0  0  0  0  0  0  0  0  0  0  0
  -24.2040  -36.8630   23.1300 C   0  0  0  0  0  1  0  0  0  0  0  0
  -25.4600  -36.4860   23.9310 C   0  0  0  0  0  3  0  0  0  0  0  0
  -27.6000  -37.4130   24.7050 C   0  0  0  0  0  1  0  0  0  0  0  0
  -26.4850  -37.5420   23.7720 N   0  0  0  0  0  0  0  0  0  0  0  0
  -26.0740  -38.4640   23.8920 H   0  0  0  0  0  0  0  0  0  0  0  0
  1  3  2  0
  1  5  1  0
  2  6  1  0
  3  4  1  0
  4 16  1  0
  4  6  2  0
  5  2  2  0
  6  7  1  0
  8 16  1  0
  9 14  1  0
 10 11  1  0
 10  9  1  0
 12 11  1  0
 12 21  1  0
 12 13  1  0
 14  8  1  0
 14 13  1  0
 15  8  2  0
 16 17  1  0
 18 19  2  0
 19 38  1  0
 20 19  1  0
 20 23  1  0
 21 18  1  0
 21 22  1  0
 22 20  2  0
 23 24  1  0
 24 25  2  0
 26 29  1  0
 26 25  1  0
 27 26  2  0
 28 27  1  0
 28 23  2  0
 29 30  1  0
 30 35  2  0
 30 31  1  0
 31 32  2  0
 32 33  1  0
 33 37  1  0
 34 33  2  0
 35 34  1  0
 36 35  1  0
 38 39  1  0
 39 42  1  0
 39 41  1  0
 40 38  2  0
 43 44  1  0
 43 18  1  0
 45 43  1  0
 46 49  1  1
 46  3  1  0
 47 46  1  0
 48 46  1  0
 50  5  1  0
 50 51  1  0
 52 53  1  0
 52 51  2  0
 54 65  2  0
 55 53  1  0
 55 60  1  0
 56 64  1  0
 56 66  1  0
 57 63  1  0
 57 59  1  0
 58 64  1  0
 59 60  2  0
 59 58  1  0
 61 55  2  0
 62 61  1  0
 62 57  2  0
 63 56  1  0
 64 54  1  0
 66 68  2  0
 67 66  1  0
 69 67  1  0
 70 79  2  0
 70 75  1  0
 71 67  1  0
 71 75  1  0
 72 71  1  0
 73 74  1  0
 73 72  1  0
 74 70  1  0
 75 76  2  0
 76 77  1  0
 78 77  2  0
 79 78  1  0
 80 54  1  0
 80 85  1  0
 80 81  1  0
 81 84  1  1
 81 82  1  0
 83 81  1  0
 85 88  1  0
 86 90  1  0
 86 85  1  0
 87 86  2  0
 90 89  1  0
 92 93  1  0
 92 90  1  0
 92 91  1  0
M  ISO  4   8 100  16 100  52 101  53 101
M  END
>  <TORSDO>  (27) 
F 20

>  <SCORE>  (27) 
-13.356

>  <name>  (27) 
26

>  <ligand_id>  (27) 
26

>  <original_smiles>  (27) 
[H]c1c([H])c([H])c2c(c1[H])C([H])([H])C([H])([H])C([H])([H])C2([H])N([H])C(=O)C1([H])N(C(=O)C([H])(N([H])C(=O)C([H])(N([H])C([H])([H])[H])C([H])([H])[H])C(C([H])([H])[H])(C([H])([H])[H])C([H])([H])[H])C([H])([H])c2c([H])c(OC([H])([H])C([H])([H])Oc3c([H])c(F)c(N([H])C(=O)N4C([H])([H])C([H])([H])C([H])([H])C([H])(n5nc(-c6c([H])c([H])c(Oc7c([H])c([H])c(F)c([H])c7F)c([H])c6[H])c(C(=O)N([H])[H])c5N([H])[H])C4([H])[H])c(C(F)(F)F)c3[H])c([H])c([H])c2C1([H])[H]

>  <smiles>  (27) 
[H]c1c([H])c([H])c2c(c1[H])C([H])([H])C([H])([H])C([H])([H])C2([H])N([H])C(=O)C1([H])N(C(=O)C([H])(N([H])C(=O)C([H])(N([H])C([H])([H])[H])C([H])([H])[H])C(C([H])([H])[H])(C([H])([H])[H])C([H])([H])[H])C([H])([H])c2c([H])c(OC([H])([H])C([H])([H])Oc3c([H])c(F)c(N([H])C(=O)N4C([H])([H])C([H])([H])C([H])([H])C([H])(n5nc(-c6c([H])c([H])c(Oc7c([H])c([H])c(F)c([H])c7F)c([H])c6[H])c(C(=O)N([H])[H])c5N([H])[H])C4([H])[H])c(C(F)(F)F)c3[H])c([H])c([H])c2C1([H])[H]

$$$$
27:0:0
     RDKit          3D

107115  0  0  1  0  0  0  0  0999 V2000
  -23.3840  -18.6120   19.4280 C   0  0  0  0  0  1  0  0  0  0  0  0
  -23.9880  -19.7700   18.7100 N   0  0  1  0  0  4  0  0  0  0  0  0
  -23.2750  -20.1130   18.0850 H   0  0  0  0  0  0  0  0  0  0  0  0
  -24.2710  -20.9010   19.6470 C   0  0  0  0  0  2  0  0  0  0  0  0
  -23.0470  -21.7480   20.0520 C   0  0  0  0  0  2  0  0  0  0  0  0
  -23.3400  -23.2610   20.1540 C   0  0  0  0  0  2  0  0  0  0  0  0
  -24.4800  -23.6610   21.1140 C   0  0  0  0  0  2  0  0  0  0  0  0
  -25.9100  -23.4080   20.5990 C   0  0  0  0  0  2  0  0  0  0  0  0
  -26.9820  -23.5300   21.7010 C   0  0  0  0  0  2  0  0  0  0  0  0
  -27.4050  -24.9730   22.0470 C   0  0  0  0  0  2  0  0  0  0  0  0
  -29.1220  -25.5490   20.3350 C   0  0  0  0  0  0  0  0  0  0  0  0
  -27.8990  -25.6670   20.8680 N   0  0  0  0  0  0  0  0  0  0  0  0
  -30.0260  -24.9090   20.8760 O   0  0  0  0  0  0  0  0  0  0  0  0
  -27.2510  -26.2760   20.3860 H   0  0  0  0  0  0  0  0  0  0  0  0
  -29.3550  -26.2290   18.9820 C   0  0  0  0  0  2  0  0  0  0  0  0
  -29.0400  -27.6200   19.0530 O   0  0  0  0  0  0  0  0  0  0  0  0
  -24.4420  -31.1550   23.1200 C   0  0  0  0  0  0  0  0  0  0  0  0
  -27.7300  -28.0300   19.1740 C   0  0  0  0  0  0  0  0  0  0  0  0
  -23.4450  -29.9030   21.2330 C   0  0  0  0  0  3  0  0  0  0  0  0
  -25.0920  -28.9870   19.5150 C   0  0  0  0  0  0  0  0  0  0  0  0
  -25.8420  -30.7740   21.0960 C   0  0  0  0  0  2  0  0  0  0  0  0
  -26.1540  -29.5990   20.1940 C   0  0  0  0  0  0  0  0  0  0  0  0
  -27.4730  -29.1280   20.0210 C   0  0  0  0  0  3  0  0  0  0  0  0
  -26.6480  -27.4260   18.4860 C   0  0  0  0  0  3  0  0  0  0  0  0
  -25.3350  -27.8950   18.6620 C   0  0  0  0  0  3  0  0  0  0  0  0
  -23.7140  -29.5600   19.7430 C   0  0  0  0  0  2  0  0  0  0  0  0
  -24.5960  -30.6130   21.8790 N   0  0  0  0  0  0  0  0  0  0  0  0
  -23.3560  -31.1060   23.7120 O   0  0  0  0  0  0  0  0  0  0  0  0
  -23.0370  -28.6050   21.9670 C   0  0  0  0  0  0  0  0  0  0  0  0
  -21.8530  -28.0710   21.6190 N   0  0  0  0  0  0  0  0  0  0  0  0
  -23.7800  -28.0880   22.8020 O   0  0  0  0  0  0  0  0  0  0  0  0
  -21.2940  -28.5620   20.9340 H   0  0  0  0  0  0  0  0  0  0  0  0
  -19.1290  -25.7270   21.2420 C   0  0  0  0  0  0  0  0  0  0  0  0
  -21.2800  -26.8370   22.1520 C   0  0  0  0  0  3  0  0  0  0  0  0
  -22.0220  -25.5960   21.6100 C   0  0  0  0  0  2  0  0  0  0  0  0
  -21.3840  -25.0110   20.3480 C   0  0  0  0  0  2  0  0  0  0  0  0
  -19.9350  -24.5950   20.6250 C   0  0  0  0  0  2  0  0  0  0  0  0
  -19.7640  -26.7850   21.9470 C   0  0  0  0  0  0  0  0  0  0  0  0
  -18.9740  -27.8310   22.4690 C   0  0  0  0  0  3  0  0  0  0  0  0
  -17.5780  -27.8280   22.3000 C   0  0  0  0  0  3  0  0  0  0  0  0
  -16.9520  -26.7720   21.6150 C   0  0  0  0  0  3  0  0  0  0  0  0
  -17.7270  -25.7220   21.0920 C   0  0  0  0  0  3  0  0  0  0  0  0
  -25.6190  -31.8800   23.8460 C   0  0  0  0  0  3  0  0  0  0  0  0
  -25.1820  -33.2520   24.1350 N   0  0  0  0  0  0  0  0  0  0  0  0
  -25.5590  -34.3300   23.4350 C   0  0  0  0  0  0  0  0  0  0  0  0
  -26.3800  -34.2800   22.5140 O   0  0  0  0  0  0  0  0  0  0  0  0
  -24.4720  -33.3590   24.8450 H   0  0  0  0  0  0  0  0  0  0  0  0
  -23.8250  -36.0380   22.7980 C   0  0  0  0  0  1  0  0  0  0  0  0
  -24.9190  -35.6780   23.8150 C   0  0  0  0  0  3  0  0  0  0  0  0
  -26.8260  -36.6470   25.0280 C   0  0  0  0  0  1  0  0  0  0  0  0
  -25.8960  -36.7850   23.9090 N   0  0  0  0  0  0  0  0  0  0  0  0
  -25.4210  -37.6790   23.9990 H   0  0  0  0  0  0  0  0  0  0  0  0
  -26.0760  -31.1510   25.1680 C   0  0  1  0  0  0  0  0  0  0  0  0
  -24.9120  -30.8370   26.1360 C   0  0  0  0  0  1  0  0  0  0  0  0
  -26.7940  -29.8230   24.8390 C   0  0  0  0  0  1  0  0  0  0  0  0
  -27.1020  -32.0290   25.9220 C   0  0  0  0  0  1  0  0  0  0  0  0
  -25.0960  -19.3570   17.7660 C   0  0  0  0  0  3  0  0  0  0  0  0
  -26.4840  -20.0480   18.0200 C   0  0  0  0  0  0  0  0  0  0  0  0
  -29.6310  -18.3190   19.0400 C   0  0  0  0  0  2  0  0  0  0  0  0
  -28.8070  -19.4710   21.0210 C   0  0  0  0  0  2  0  0  0  0  0  0
  -28.3800  -18.5920   18.2050 C   0  0  0  0  0  2  0  0  0  0  0  0
  -27.5440  -19.9500   20.2360 C   0  0  0  0  0  2  0  0  0  0  0  0
  -29.2920  -18.1090   20.5260 C   0  0  0  0  0  3  0  0  0  0  0  0
  -27.3740  -19.4530   18.8450 N   0  0  0  0  0  0  0  0  0  0  0  0
  -26.7750  -21.1060   17.4540 O   0  0  0  0  0  0  0  0  0  0  0  0
  -31.1330  -16.4510   20.8550 C   0  0  0  0  0  0  0  0  0  0  0  0
  -31.0680  -14.3500   19.5550 C   0  0  0  0  0  2  0  0  0  0  0  0
  -30.2600  -14.4970   18.2500 C   0  0  0  0  0  2  0  0  0  0  0  0
  -28.7640  -14.2300   18.5080 C   0  0  0  0  0  2  0  0  0  0  0  0
  -28.2250  -15.0200   19.7220 C   0  0  0  0  0  3  0  0  0  0  0  0
  -29.1530  -14.8830   20.9550 C   0  0  0  0  0  2  0  0  0  0  0  0
  -30.5070  -15.2810   20.5470 N   0  0  0  0  0  0  0  0  0  0  0  0
  -32.3320  -16.6380   20.6340 O   0  0  0  0  0  0  0  0  0  0  0  0
  -30.3850  -17.4850   21.2940 N   0  0  0  0  0  0  0  0  0  0  0  0
  -30.9470  -18.1710   21.7760 H   0  0  0  0  0  0  0  0  0  0  0  0
  -25.7240  -15.5120   20.0920 C   0  0  0  0  0  0  0  0  0  0  0  0
  -24.6640  -14.6800   20.3330 C   0  0  0  0  0  0  0  0  0  0  0  0
  -25.2190  -13.3700   20.4440 C   0  0  0  0  0  0  0  0  0  0  0  0
  -26.8430  -14.6930   20.0380 N   0  0  0  0  0  0  0  0  0  0  0  0
  -26.5360  -13.4070   20.3220 N   0  0  0  0  0  0  0  0  0  0  0  0
  -24.5680  -12.0700   20.5960 C   0  0  0  0  0  0  0  0  0  0  0  0
  -24.9020  -11.1990   21.6570 C   0  0  0  0  0  3  0  0  0  0  0  0
  -24.2500   -9.9570   21.7890 C   0  0  0  0  0  3  0  0  0  0  0  0
  -23.2540   -9.5780   20.8590 C   0  0  0  0  0  0  0  0  0  0  0  0
  -22.9440  -10.4400   19.7930 C   0  0  0  0  0  3  0  0  0  0  0  0
  -23.5960  -11.6760   19.6580 C   0  0  0  0  0  3  0  0  0  0  0  0
  -22.5860   -8.3780   20.8960 O   0  0  0  0  0  0  0  0  0  0  0  0
  -22.3140   -7.7410   22.0810 C   0  0  0  0  0  0  0  0  0  0  0  0
  -21.5860   -8.3730   23.1130 C   0  0  0  0  0  3  0  0  0  0  0  0
  -21.2650   -7.6620   24.2850 C   0  0  0  0  0  3  0  0  0  0  0  0
  -21.6640   -6.3190   24.4260 C   0  0  0  0  0  0  0  0  0  0  0  0
  -22.3870   -5.6870   23.3980 C   0  0  0  0  0  3  0  0  0  0  0  0
  -22.7080   -6.3960   22.2270 C   0  0  0  0  0  0  0  0  0  0  0  0
  -23.3850   -5.7770   21.2300 F   0  0  0  0  0  0  0  0  0  0  0  0
  -21.3510   -5.6320   25.5490 F   0  0  0  0  0  0  0  0  0  0  0  0
  -23.2140  -15.0620   20.3760 C   0  0  0  0  0  0  0  0  0  0  0  0
  -22.4160  -14.3630   21.1750 N   0  0  0  0  0  0  0  0  0  0  0  0
  -22.7880  -16.0220   19.7380 O   0  0  0  0  0  0  0  0  0  0  0  0
  -22.7670  -13.5860   21.7170 H   0  0  0  0  0  0  0  0  0  0  0  0
  -21.4430  -14.6190   21.2480 H   0  0  0  0  0  0  0  0  0  0  0  0
  -25.8160  -16.8850   19.9100 N   0  0  0  0  0  0  0  0  0  0  0  0
  -25.0450  -17.4350   20.2700 H   0  0  0  0  0  0  0  0  0  0  0  0
  -26.7070  -17.3490   20.0090 H   0  0  0  0  0  0  0  0  0  0  0  0
  -23.4760  -18.3810   15.9970 C   0  0  0  0  0  1  0  0  0  0  0  0
  -25.7190  -19.0700   15.2580 C   0  0  0  0  0  1  0  0  0  0  0  0
  -24.0280  -20.8150   15.8910 C   0  0  0  0  0  1  0  0  0  0  0  0
  -24.5940  -19.4220   16.2610 C   0  0  2  0  0  0  0  0  0  0  0  0
  2  1  1  0
  2  4  1  0
  2  3  1  6
  4  5  1  0
  5  6  1  0
  6  7  1  0
  8  7  1  0
  8  9  1  0
  9 10  1  0
 11 12  1  0
 11 13  2  0
 12 10  1  0
 14 12  1  0
 15 16  1  0
 15 11  1  0
 16 18  1  0
 17 28  2  0
 18 23  1  0
 19 27  1  0
 19 29  1  0
 20 26  1  0
 20 22  1  0
 21 27  1  0
 22 21  1  0
 23 22  2  0
 24 25  1  0
 24 18  2  0
 25 20  2  0
 26 19  1  0
 27 17  1  0
 29 31  2  0
 30 29  1  0
 32 30  1  0
 33 38  1  0
 34 30  1  0
 35 34  1  0
 36 37  1  0
 36 35  1  0
 37 33  1  0
 38 34  1  0
 38 39  2  0
 40 39  1  0
 41 40  2  0
 42 33  2  0
 42 41  1  0
 43 17  1  0
 43 44  1  0
 43 53  1  0
 44 47  1  0
 45 49  1  0
 45 44  1  0
 46 45  2  0
 49 48  1  0
 49 51  1  0
 51 52  1  0
 51 50  1  0
 53 56  1  1
 53 54  1  0
 55 53  1  0
 57 58  1  0
 57  2  1  0
 58 64  1  0
 59 63  1  0
 61 64  1  0
 61 59  1  0
 62 60  1  0
 63 60  1  0
 63 74  1  0
 64 62  1  0
 65 58  2  0
 66 74  1  0
 67 72  1  0
 68 69  1  0
 68 67  1  0
 70 69  1  0
 70 79  1  0
 70 71  1  0
 72 66  1  0
 72 71  1  0
 73 66  2  0
 74 75  1  0
 76 77  2  0
 77 96  1  0
 77 78  1  0
 78 81  1  0
 79 76  1  0
 79 80  1  0
 80 78  2  0
 81 82  1  0
 82 83  2  0
 84 87  1  0
 84 83  1  0
 85 84  2  0
 86 85  1  0
 86 81  2  0
 87 88  1  0
 88 93  2  0
 88 89  1  0
 89 90  2  0
 90 91  1  0
 91 95  1  0
 92 91  2  0
 93 92  1  0
 94 93  1  0
 96 97  1  0
 97100  1  0
 97 99  1  0
 98 96  2  0
101103  1  0
101 76  1  0
101102  1  0
107104  1  1
105107  1  0
106107  1  0
107 57  1  0
M  ISO  4  15 101  16 101  66 100  74 100
M  END
>  <TORSDO>  (28) 
F 28

>  <SCORE>  (28) 
5.010

>  <name>  (28) 
27

>  <ligand_id>  (28) 
27

>  <original_smiles>  (28) 
[H]c1c([H])c([H])c2c(c1[H])C([H])([H])C([H])([H])C([H])([H])C2([H])N([H])C(=O)C1([H])N(C(=O)C([H])(N([H])C(=O)C([H])(N([H])C([H])([H])[H])C([H])([H])[H])C(C([H])([H])[H])(C([H])([H])[H])C([H])([H])[H])C([H])([H])c2c([H])c(OC([H])([H])C(=O)N([H])C([H])([H])C([H])([H])C([H])([H])C([H])([H])C([H])([H])C([H])([H])C([H])([H])[N+]([H])(C([H])([H])[H])C([H])(C(=O)N3C([H])([H])C([H])([H])C([H])(N([H])C(=O)N4C([H])([H])C([H])([H])C([H])([H])C([H])(n5nc(-c6c([H])c([H])c(Oc7c([H])c([H])c(F)c([H])c7F)c([H])c6[H])c(C(=O)N([H])[H])c5N([H])[H])C4([H])[H])C([H])([H])C3([H])[H])C(C([H])([H])[H])(C([H])([H])[H])C([H])([H])[H])c([H])c([H])c2C1([H])[H]

>  <smiles>  (28) 
[H]c1c([H])c([H])c2c(c1[H])C([H])([H])C([H])([H])C([H])([H])C2([H])N([H])C(=O)C1([H])N(C(=O)C([H])(N([H])C(=O)C([H])(N([H])C([H])([H])[H])C([H])([H])[H])C(C([H])([H])[H])(C([H])([H])[H])C([H])([H])[H])C([H])([H])c2c([H])c(OC([H])([H])C(=O)N([H])C([H])([H])C([H])([H])C([H])([H])C([H])([H])C([H])([H])C([H])([H])C([H])([H])[N+]([H])(C([H])([H])[H])C([H])(C(=O)N3C([H])([H])C([H])([H])C([H])(N([H])C(=O)N4C([H])([H])C([H])([H])C([H])([H])C([H])(n5nc(-c6c([H])c([H])c(Oc7c([H])c([H])c(F)c([H])c7F)c([H])c6[H])c(C(=O)N([H])[H])c5N([H])[H])C4([H])[H])C([H])([H])C3([H])[H])C(C([H])([H])[H])(C([H])([H])[H])C([H])([H])[H])c([H])c([H])c2C1([H])[H]

$$$$
28:0:0
     RDKit          3D

 95103  0  0  1  0  0  0  0  0999 V2000
  -30.7420  -17.4310   22.0790 C   0  0  0  0  0  3  0  0  0  0  0  0
  -30.1410  -19.8130   22.0300 C   0  0  0  0  0  3  0  0  0  0  0  0
  -30.0710  -18.5110   20.0020 C   0  0  0  0  0  3  0  0  0  0  0  0
  -30.5630  -18.6660   22.7380 C   0  0  0  0  0  0  0  0  0  0  0  0
  -30.4880  -17.3020   20.7010 C   0  0  0  0  0  0  0  0  0  0  0  0
  -29.8960  -19.8270   20.6290 C   0  0  0  0  0  0  0  0  0  0  0  0
  -31.2080  -14.7950   20.3150 C   0  0  0  0  0  0  0  0  0  0  0  0
  -30.9580  -12.4650   19.4250 C   0  0  0  0  0  2  0  0  0  0  0  0
  -30.0170  -12.4530   18.2010 C   0  0  0  0  0  2  0  0  0  0  0  0
  -28.5390  -12.3680   18.6370 C   0  0  0  0  0  2  0  0  0  0  0  0
  -28.1880  -13.3560   19.7810 C   0  0  0  0  0  3  0  0  0  0  0  0
  -29.2420  -13.3200   20.9060 C   0  0  0  0  0  2  0  0  0  0  0  0
  -30.5440  -13.5920   20.2850 N   0  0  0  0  0  0  0  0  0  0  0  0
  -32.4260  -14.8450   20.1210 O   0  0  0  0  0  0  0  0  0  0  0  0
  -30.4220  -15.9270   20.1570 N   0  0  0  0  0  0  0  0  0  0  0  0
  -29.4990  -15.6840   19.8350 H   0  0  0  0  0  0  0  0  0  0  0  0
  -25.8670  -14.1020   20.5820 C   0  0  0  0  0  0  0  0  0  0  0  0
  -24.7470  -13.3980   20.9300 C   0  0  0  0  0  0  0  0  0  0  0  0
  -25.0970  -12.0170   20.8220 C   0  0  0  0  0  0  0  0  0  0  0  0
  -26.8330  -13.1540   20.2830 N   0  0  0  0  0  0  0  0  0  0  0  0
  -26.3780  -11.8920   20.4900 N   0  0  0  0  0  0  0  0  0  0  0  0
  -24.2710  -10.8100   20.9560 C   0  0  0  0  0  0  0  0  0  0  0  0
  -24.6330   -9.7620   21.8310 C   0  0  0  0  0  3  0  0  0  0  0  0
  -23.8150   -8.6190   21.9540 C   0  0  0  0  0  3  0  0  0  0  0  0
  -22.6180   -8.5180   21.2050 C   0  0  0  0  0  0  0  0  0  0  0  0
  -22.2740   -9.5540   20.3180 C   0  0  0  0  0  3  0  0  0  0  0  0
  -23.0930  -10.6890   20.1920 C   0  0  0  0  0  3  0  0  0  0  0  0
  -21.7730   -7.4370   21.2440 O   0  0  0  0  0  0  0  0  0  0  0  0
  -21.6920   -6.6260   22.3480 C   0  0  0  0  0  0  0  0  0  0  0  0
  -21.3090   -7.1250   23.6120 C   0  0  0  0  0  3  0  0  0  0  0  0
  -21.1710   -6.2450   24.7040 C   0  0  0  0  0  3  0  0  0  0  0  0
  -21.4040   -4.8680   24.5330 C   0  0  0  0  0  0  0  0  0  0  0  0
  -21.7800   -4.3670   23.2740 C   0  0  0  0  0  3  0  0  0  0  0  0
  -21.9200   -5.2440   22.1840 C   0  0  0  0  0  0  0  0  0  0  0  0
  -22.2610   -4.7540   20.9680 F   0  0  0  0  0  0  0  0  0  0  0  0
  -21.2620   -4.0210   25.5790 F   0  0  0  0  0  0  0  0  0  0  0  0
  -23.3960  -13.9740   21.2440 C   0  0  0  0  0  0  0  0  0  0  0  0
  -22.6290  -13.3130   22.1040 N   0  0  0  0  0  0  0  0  0  0  0  0
  -23.0290  -15.0440   20.7590 O   0  0  0  0  0  0  0  0  0  0  0  0
  -22.9340  -12.4480   22.5220 H   0  0  0  0  0  0  0  0  0  0  0  0
  -21.7200  -13.6810   22.3480 H   0  0  0  0  0  0  0  0  0  0  0  0
  -26.1360  -15.4630   20.4710 N   0  0  0  0  0  0  0  0  0  0  0  0
  -25.4190  -16.1630   20.6190 H   0  0  0  0  0  0  0  0  0  0  0  0
  -27.0060  -15.8540   20.1330 H   0  0  0  0  0  0  0  0  0  0  0  0
  -30.7690  -18.7700   24.2440 C   0  0  1  0  0  0  0  0  0  0  0  0
  -31.4800  -17.7460   24.7180 F   0  0  0  0  0  0  0  0  0  0  0  0
  -31.4200  -19.8950   24.5410 F   0  0  0  0  0  0  0  0  0  0  0  0
  -29.5870  -18.7840   24.8600 F   0  0  0  0  0  0  0  0  0  0  0  0
  -29.3580  -22.4130   20.4810 C   0  0  0  0  0  0  0  0  0  0  0  0
  -29.0550  -21.0230   18.5300 C   0  0  0  0  0  1  0  0  0  0  0  0
  -29.4480  -21.1090   19.9430 N   0  0  0  0  0  0  0  0  0  0  0  0
  -29.7380  -22.6710   21.6250 O   0  0  0  0  0  0  0  0  0  0  0  0
  -28.8270  -23.6980   19.6700 C   0  0  0  0  0  2  0  0  0  0  0  0
  -28.3090  -25.0010   20.4750 C   0  0  0  0  0  2  0  0  0  0  0  0
  -28.4000  -26.3860   19.9110 O   0  0  0  0  0  0  0  0  0  0  0  0
  -24.6030  -31.6960   23.0740 C   0  0  0  0  0  0  0  0  0  0  0  0
  -27.2670  -27.2200   19.9330 C   0  0  0  0  0  0  0  0  0  0  0  0
  -23.4080  -30.3110   21.4150 C   0  0  0  0  0  3  0  0  0  0  0  0
  -24.8750  -28.8010   19.9550 C   0  0  0  0  0  0  0  0  0  0  0  0
  -25.9420  -30.6690   21.2200 C   0  0  0  0  0  2  0  0  0  0  0  0
  -26.0400  -29.3010   20.5510 C   0  0  0  0  0  0  0  0  0  0  0  0
  -27.2380  -28.5230   20.5270 C   0  0  0  0  0  3  0  0  0  0  0  0
  -26.0800  -26.7730   19.3150 C   0  0  0  0  0  3  0  0  0  0  0  0
  -24.8990  -27.5450   19.3270 C   0  0  0  0  0  3  0  0  0  0  0  0
  -23.6240  -29.6570   20.0230 C   0  0  0  0  0  2  0  0  0  0  0  0
  -24.6700  -30.9100   21.9590 N   0  0  0  0  0  0  0  0  0  0  0  0
  -23.5190  -31.9460   23.6230 O   0  0  0  0  0  0  0  0  0  0  0  0
  -22.7650  -29.2690   22.3620 C   0  0  0  0  0  0  0  0  0  0  0  0
  -21.4380  -29.0860   22.2510 N   0  0  0  0  0  0  0  0  0  0  0  0
  -23.4610  -28.6280   23.1530 O   0  0  0  0  0  0  0  0  0  0  0  0
  -20.9360  -29.6570   21.5860 H   0  0  0  0  0  0  0  0  0  0  0  0
  -18.0770  -27.8660   22.7910 C   0  0  0  0  0  0  0  0  0  0  0  0
  -20.6390  -28.1250   23.0120 C   0  0  0  0  0  3  0  0  0  0  0  0
  -20.7310  -26.7100   22.3920 C   0  0  0  0  0  2  0  0  0  0  0  0
  -19.6070  -26.4180   21.3910 C   0  0  0  0  0  2  0  0  0  0  0  0
  -18.2390  -26.5390   22.0690 C   0  0  0  0  0  2  0  0  0  0  0  0
  -19.2030  -28.6180   23.2190 C   0  0  0  0  0  0  0  0  0  0  0  0
  -18.9950  -29.8620   23.8540 C   0  0  0  0  0  3  0  0  0  0  0  0
  -17.6930  -30.3540   24.0650 C   0  0  0  0  0  3  0  0  0  0  0  0
  -16.5810  -29.6000   23.6520 C   0  0  0  0  0  3  0  0  0  0  0  0
  -16.7740  -28.3570   23.0210 C   0  0  0  0  0  3  0  0  0  0  0  0
  -25.8800  -32.3340   23.7020 C   0  0  0  0  0  3  0  0  0  0  0  0
  -26.4320  -31.5310   24.9430 C   0  0  1  0  0  0  0  0  0  0  0  0
  -25.3590  -31.2240   26.0140 C   0  0  0  0  0  1  0  0  0  0  0  0
  -27.0480  -30.1850   24.4960 C   0  0  0  0  0  1  0  0  0  0  0  0
  -27.5720  -32.3300   25.6180 C   0  0  0  0  0  1  0  0  0  0  0  0
  -25.5450  -33.7140   24.0850 N   0  0  0  0  0  0  0  0  0  0  0  0
  -25.8420  -34.8000   23.3590 C   0  0  0  0  0  0  0  0  0  0  0  0
  -26.4960  -34.7480   22.3130 O   0  0  0  0  0  0  0  0  0  0  0  0
  -24.9630  -33.8290   24.9020 H   0  0  0  0  0  0  0  0  0  0  0  0
  -24.0690  -36.5650   23.1000 C   0  0  0  0  0  1  0  0  0  0  0  0
  -25.3340  -36.1620   23.8730 C   0  0  0  0  0  3  0  0  0  0  0  0
  -27.4620  -37.0690   24.6960 C   0  0  0  0  0  1  0  0  0  0  0  0
  -26.3430  -37.2410   23.7740 N   0  0  0  0  0  0  0  0  0  0  0  0
  -25.9190  -38.1470   23.9550 H   0  0  0  0  0  0  0  0  0  0  0  0
  1  4  1  0
  2  4  2  0
  3  6  2  0
  3  5  1  0
  4 45  1  0
  5  1  2  0
  6  2  1  0
  8 13  1  0
  9 10  1  0
  9  8  1  0
 11 10  1  0
 11 20  1  0
 11 12  1  0
 13  7  1  0
 13 12  1  0
 14  7  2  0
 15  7  1  0
 15  5  1  0
 16 15  1  0
 17 18  2  0
 18 37  1  0
 19 18  1  0
 19 22  1  0
 20 21  1  0
 20 17  1  0
 21 19  2  0
 22 23  1  0
 23 24  2  0
 25 28  1  0
 25 24  1  0
 26 25  2  0
 27 26  1  0
 27 22  2  0
 28 29  1  0
 29 30  1  0
 30 31  2  0
 32 31  1  0
 32 36  1  0
 33 32  2  0
 34 29  2  0
 34 33  1  0
 35 34  1  0
 37 38  1  0
 38 41  1  0
 38 40  1  0
 39 37  2  0
 42 17  1  0
 42 43  1  0
 44 42  1  0
 45 47  1  6
 45 46  1  0
 45 48  1  0
 49 52  2  0
 50 51  1  0
 51 49  1  0
 51  6  1  0
 53 54  1  0
 53 49  1  0
 55 57  1  0
 55 54  1  0
 56 67  2  0
 57 62  1  0
 58 66  1  0
 58 68  1  0
 59 65  1  0
 59 61  1  0
 60 66  1  0
 61 60  1  0
 62 61  2  0
 63 64  1  0
 63 57  2  0
 64 59  2  0
 65 58  1  0
 66 56  1  0
 68 70  2  0
 69 68  1  0
 71 69  1  0
 72 81  2  0
 72 77  1  0
 73 69  1  0
 73 77  1  0
 74 73  1  0
 75 76  1  0
 75 74  1  0
 76 72  1  0
 77 78  2  0
 78 79  1  0
 80 79  2  0
 81 80  1  0
 82 56  1  0
 82 87  1  0
 82 83  1  0
 83 86  1  1
 83 84  1  0
 85 83  1  0
 87 90  1  0
 88 92  1  0
 88 87  1  0
 89 88  2  0
 92 91  1  0
 94 92  1  0
 94 95  1  0
 94 93  1  0
M  ISO  4   7 100  15 100  54 101  55 101
M  END
>  <TORSDO>  (29) 
F 20

>  <SCORE>  (29) 
-10.221

>  <name>  (29) 
28

>  <ligand_id>  (29) 
28

>  <original_smiles>  (29) 
[H]c1c([H])c([H])c2c(c1[H])C([H])([H])C([H])([H])C([H])([H])C2([H])N([H])C(=O)C1([H])N(C(=O)C([H])(N([H])C(=O)C([H])(N([H])C([H])([H])[H])C([H])([H])[H])C(C([H])([H])[H])(C([H])([H])[H])C([H])([H])[H])C([H])([H])c2c([H])c(OC([H])([H])C([H])([H])C(=O)N(c3c([H])c(N([H])C(=O)N4C([H])([H])C([H])([H])C([H])([H])C([H])(n5nc(-c6c([H])c([H])c(Oc7c([H])c([H])c(F)c([H])c7F)c([H])c6[H])c(C(=O)N([H])[H])c5N([H])[H])C4([H])[H])c([H])c(C(F)(F)F)c3[H])C([H])([H])[H])c([H])c([H])c2C1([H])[H]

>  <smiles>  (29) 
[H]c1c([H])c([H])c2c(c1[H])C([H])([H])C([H])([H])C([H])([H])C2([H])N([H])C(=O)C1([H])N(C(=O)C([H])(N([H])C(=O)C([H])(N([H])C([H])([H])[H])C([H])([H])[H])C(C([H])([H])[H])(C([H])([H])[H])C([H])([H])[H])C([H])([H])c2c([H])c(OC([H])([H])C([H])([H])C(=O)N(c3c([H])c(N([H])C(=O)N4C([H])([H])C([H])([H])C([H])([H])C([H])(n5nc(-c6c([H])c([H])c(Oc7c([H])c([H])c(F)c([H])c7F)c([H])c6[H])c(C(=O)N([H])[H])c5N([H])[H])C4([H])[H])c([H])c(C(F)(F)F)c3[H])C([H])([H])[H])c([H])c([H])c2C1([H])[H]

$$$$
29:0:0
     RDKit          3D

 91 99  0  0  1  0  0  0  0  0999 V2000
  -29.9870  -21.2380   19.1950 C   0  0  0  0  0  0  0  0  0  0  0  0
  -29.2840  -22.3190   19.7660 N   0  0  0  0  0  0  0  0  0  0  0  0
  -30.6220  -21.5010   18.1700 O   0  0  0  0  0  0  0  0  0  0  0  0
  -31.0990  -15.1920   20.1400 C   0  0  0  0  0  0  0  0  0  0  0  0
  -30.9950  -12.8130   19.3240 C   0  0  0  0  0  2  0  0  0  0  0  0
  -30.0550  -12.6740   18.1080 C   0  0  0  0  0  2  0  0  0  0  0  0
  -28.6050  -12.4470   18.5720 C   0  0  0  0  0  2  0  0  0  0  0  0
  -28.1740  -13.4340   19.6880 C   0  0  0  0  0  3  0  0  0  0  0  0
  -29.2340  -13.5550   20.7990 C   0  0  0  0  0  2  0  0  0  0  0  0
  -30.4930  -13.9420   20.1520 N   0  0  0  0  0  0  0  0  0  0  0  0
  -32.3030  -15.2430   19.8740 O   0  0  0  0  0  0  0  0  0  0  0  0
  -29.7670  -18.9260   20.9610 C   0  0  0  0  0  2  0  0  0  0  0  0
  -30.1040  -18.5580   18.5390 C   0  0  0  0  0  2  0  0  0  0  0  0
  -30.5080  -17.5040   21.1860 C   0  0  0  0  0  2  0  0  0  0  0  0
  -29.8100  -17.0170   18.9110 C   0  0  0  0  0  2  0  0  0  0  0  0
  -30.2020  -19.6650   19.6560 C   0  0  0  0  0  3  0  0  0  0  0  0
  -30.3380  -16.3950   20.1710 N   0  0  0  0  0  0  0  0  0  0  0  0
  -25.8210  -13.9910   20.5350 C   0  0  0  0  0  0  0  0  0  0  0  0
  -24.7660  -13.2040   20.9080 C   0  0  0  0  0  0  0  0  0  0  0  0
  -25.2240  -11.8540   20.8100 C   0  0  0  0  0  0  0  0  0  0  0  0
  -26.8510  -13.1190   20.2210 N   0  0  0  0  0  0  0  0  0  0  0  0
  -26.5020  -11.8270   20.4510 N   0  0  0  0  0  0  0  0  0  0  0  0
  -24.5000  -10.5870   20.9750 C   0  0  0  0  0  0  0  0  0  0  0  0
  -24.9140   -9.6130   21.9110 C   0  0  0  0  0  3  0  0  0  0  0  0
  -24.1880   -8.4130   22.0660 C   0  0  0  0  0  3  0  0  0  0  0  0
  -23.0340   -8.1760   21.2820 C   0  0  0  0  0  0  0  0  0  0  0  0
  -22.6390   -9.1380   20.3350 C   0  0  0  0  0  3  0  0  0  0  0  0
  -23.3660  -10.3300   20.1800 C   0  0  0  0  0  3  0  0  0  0  0  0
  -22.2830   -7.0270   21.3450 O   0  0  0  0  0  0  0  0  0  0  0  0
  -22.1380   -6.3250   22.5140 C   0  0  0  0  0  0  0  0  0  0  0  0
  -21.5660   -6.9050   23.6650 C   0  0  0  0  0  3  0  0  0  0  0  0
  -21.3720   -6.1270   24.8250 C   0  0  0  0  0  3  0  0  0  0  0  0
  -21.7390   -4.7680   24.8310 C   0  0  0  0  0  0  0  0  0  0  0  0
  -22.3060   -4.1870   23.6850 C   0  0  0  0  0  3  0  0  0  0  0  0
  -22.5010   -4.9620   22.5270 C   0  0  0  0  0  0  0  0  0  0  0  0
  -23.0260   -4.3910   21.4170 F   0  0  0  0  0  0  0  0  0  0  0  0
  -21.5470   -4.0190   25.9420 F   0  0  0  0  0  0  0  0  0  0  0  0
  -23.3810  -13.6760   21.2430 C   0  0  0  0  0  0  0  0  0  0  0  0
  -22.6780  -12.9550   22.1100 N   0  0  0  0  0  0  0  0  0  0  0  0
  -22.9310  -14.7190   20.7710 O   0  0  0  0  0  0  0  0  0  0  0  0
  -23.0530  -12.1130   22.5200 H   0  0  0  0  0  0  0  0  0  0  0  0
  -21.7490  -13.2600   22.3720 H   0  0  0  0  0  0  0  0  0  0  0  0
  -25.9920  -15.3670   20.4130 N   0  0  0  0  0  0  0  0  0  0  0  0
  -25.2540  -16.0350   20.6090 H   0  0  0  0  0  0  0  0  0  0  0  0
  -26.8590  -15.8080   20.1340 H   0  0  0  0  0  0  0  0  0  0  0  0
  -28.3270  -22.1160   20.8490 C   0  0  0  0  0  2  0  0  0  0  0  0
  -27.6020  -23.1740   23.0400 C   0  0  0  0  0  1  0  0  0  0  0  0
  -28.7900  -22.8010   22.1470 C   0  0  0  0  0  2  0  0  0  0  0  0
  -29.4510  -23.8190   19.3240 C   0  0  0  0  0  3  0  0  0  0  0  0
  -28.3100  -25.0020   19.4960 C   0  0  0  0  0  3  0  0  0  0  0  0
  -28.5790  -26.5100   19.4150 O   0  0  0  0  0  0  0  0  0  0  0  0
  -25.0010  -31.6530   23.2260 C   0  0  0  0  0  0  0  0  0  0  0  0
  -27.5010  -27.4440   19.5300 C   0  0  0  0  0  0  0  0  0  0  0  0
  -23.7630  -30.5080   21.4300 C   0  0  0  0  0  3  0  0  0  0  0  0
  -25.1750  -29.1460   19.7820 C   0  0  0  0  0  0  0  0  0  0  0  0
  -26.3120  -30.7960   21.2580 C   0  0  0  0  0  2  0  0  0  0  0  0
  -26.3640  -29.5100   20.4220 C   0  0  0  0  0  0  0  0  0  0  0  0
  -27.5330  -28.6820   20.2780 C   0  0  0  0  0  3  0  0  0  0  0  0
  -26.2840  -27.1750   18.8650 C   0  0  0  0  0  3  0  0  0  0  0  0
  -25.1420  -27.9900   18.9890 C   0  0  0  0  0  3  0  0  0  0  0  0
  -23.9560  -30.0330   19.9670 C   0  0  0  0  0  2  0  0  0  0  0  0
  -25.0460  -30.9940   22.0290 N   0  0  0  0  0  0  0  0  0  0  0  0
  -23.9260  -31.8710   23.8050 O   0  0  0  0  0  0  0  0  0  0  0  0
  -23.0930  -29.3770   22.2490 C   0  0  0  0  0  0  0  0  0  0  0  0
  -21.7640  -29.2330   22.1150 N   0  0  0  0  0  0  0  0  0  0  0  0
  -23.7720  -28.6360   22.9660 O   0  0  0  0  0  0  0  0  0  0  0  0
  -21.2720  -29.8900   21.5250 H   0  0  0  0  0  0  0  0  0  0  0  0
  -18.3700  -28.0440   22.5430 C   0  0  0  0  0  0  0  0  0  0  0  0
  -20.9420  -28.2070   22.7620 C   0  0  0  0  0  3  0  0  0  0  0  0
  -20.9880  -26.8760   21.9770 C   0  0  0  0  0  2  0  0  0  0  0  0
  -19.8490  -26.7330   20.9610 C   0  0  0  0  0  2  0  0  0  0  0  0
  -18.4920  -26.8090   21.6650 C   0  0  0  0  0  2  0  0  0  0  0  0
  -19.5220  -28.7090   23.0440 C   0  0  0  0  0  0  0  0  0  0  0  0
  -19.3510  -29.8710   23.8260 C   0  0  0  0  0  3  0  0  0  0  0  0
  -18.0660  -30.3720   24.1080 C   0  0  0  0  0  3  0  0  0  0  0  0
  -16.9300  -29.7020   23.6190 C   0  0  0  0  0  3  0  0  0  0  0  0
  -17.0840  -28.5380   22.8440 C   0  0  0  0  0  3  0  0  0  0  0  0
  -26.2970  -32.1860   23.9110 C   0  0  0  0  0  3  0  0  0  0  0  0
  -26.7900  -31.2700   25.0990 C   0  0  1  0  0  0  0  0  0  0  0  0
  -25.6920  -30.9500   26.1400 C   0  0  0  0  0  1  0  0  0  0  0  0
  -27.3360  -29.9270   24.5640 C   0  0  0  0  0  1  0  0  0  0  0  0
  -27.9580  -31.9600   25.8410 C   0  0  0  0  0  1  0  0  0  0  0  0
  -26.0210  -33.5480   24.3940 N   0  0  0  0  0  0  0  0  0  0  0  0
  -26.3510  -34.6700   23.7410 C   0  0  0  0  0  0  0  0  0  0  0  0
  -26.9950  -34.6650   22.6880 O   0  0  0  0  0  0  0  0  0  0  0  0
  -25.4520  -33.6270   25.2240 H   0  0  0  0  0  0  0  0  0  0  0  0
  -24.6410  -36.5130   23.6280 C   0  0  0  0  0  1  0  0  0  0  0  0
  -25.9000  -36.0120   24.3540 C   0  0  0  0  0  3  0  0  0  0  0  0
  -28.0690  -36.7840   25.2080 C   0  0  0  0  0  1  0  0  0  0  0  0
  -26.9450  -37.0570   24.3170 N   0  0  0  0  0  0  0  0  0  0  0  0
  -26.5570  -37.9640   24.5660 H   0  0  0  0  0  0  0  0  0  0  0  0
  1  2  1  0
  2 46  1  0
  3  1  2  0
  4 10  1  0
  4 17  1  0
  5 10  1  0
  6  7  1  0
  6  5  1  0
  8  7  1  0
  8 21  1  0
  8  9  1  0
 10  9  1  0
 11  4  2  0
 12 14  1  0
 13 15  1  0
 13 16  1  0
 15 17  1  0
 16  1  1  0
 16 12  1  0
 17 14  1  0
 18 19  2  0
 19 38  1  0
 20 19  1  0
 20 23  1  0
 21 22  1  0
 21 18  1  0
 22 20  2  0
 23 24  1  0
 24 25  2  0
 26 29  1  0
 26 25  1  0
 27 26  2  0
 28 27  1  0
 28 23  2  0
 29 30  1  0
 30 35  2  0
 30 31  1  0
 31 32  2  0
 32 33  1  0
 33 37  1  0
 34 33  2  0
 35 34  1  0
 36 35  1  0
 38 39  1  0
 39 42  1  0
 39 41  1  0
 40 38  2  0
 43 18  1  0
 43 44  1  0
 45 43  1  0
 46 48  1  0
 48 47  1  0
 49 50  2  0
 49  2  1  0
 51 50  1  0
 51 53  1  0
 52 63  2  0
 53 58  1  0
 54 62  1  0
 54 64  1  0
 55 61  1  0
 55 57  1  0
 56 62  1  0
 57 56  1  0
 58 57  2  0
 59 60  1  0
 59 53  2  0
 60 55  2  0
 61 54  1  0
 62 52  1  0
 64 66  2  0
 65 64  1  0
 67 65  1  0
 68 77  2  0
 68 73  1  0
 69 65  1  0
 69 73  1  0
 70 69  1  0
 71 72  1  0
 71 70  1  0
 72 68  1  0
 73 74  2  0
 74 75  1  0
 76 75  2  0
 77 76  1  0
 78 52  1  0
 78 83  1  0
 78 79  1  0
 79 82  1  1
 79 80  1  0
 81 79  1  0
 83 86  1  0
 84 88  1  0
 84 83  1  0
 85 84  2  0
 88 87  1  0
 90 88  1  0
 90 91  1  0
 90 89  1  0
M  ISO  4   4 100  17 100  50 101  51 101
M  END
>  <TORSDO>  (30) 
F 20

>  <SCORE>  (30) 
-10.465

>  <name>  (30) 
29

>  <ligand_id>  (30) 
29

>  <original_smiles>  (30) 
[H]c1c([H])c([H])c2c(c1[H])C([H])([H])C([H])([H])C([H])([H])C2([H])N([H])C(=O)C1([H])N(C(=O)C([H])(N([H])C(=O)C([H])(N([H])C([H])([H])[H])C([H])([H])[H])C(C([H])([H])[H])(C([H])([H])[H])C([H])([H])[H])C([H])([H])c2c([H])c(OC([H])([H])C([H])([H])N(C(=O)C3([H])C([H])([H])C([H])([H])N(C(=O)N4C([H])([H])C([H])([H])C([H])([H])C([H])(n5nc(-c6c([H])c([H])c(Oc7c([H])c([H])c(F)c([H])c7F)c([H])c6[H])c(C(=O)N([H])[H])c5N([H])[H])C4([H])[H])C([H])([H])C3([H])[H])C([H])([H])C([H])([H])C([H])([H])[H])c([H])c([H])c2C1([H])[H]

>  <smiles>  (30) 
[H]c1c([H])c([H])c2c(c1[H])C([H])([H])C([H])([H])C([H])([H])C2([H])N([H])C(=O)C1([H])N(C(=O)C([H])(N([H])C(=O)C([H])(N([H])C([H])([H])[H])C([H])([H])[H])C(C([H])([H])[H])(C([H])([H])[H])C([H])([H])[H])C([H])([H])c2c([H])c(OC([H])([H])C([H])([H])N(C(=O)C3([H])C([H])([H])C([H])([H])N(C(=O)N4C([H])([H])C([H])([H])C([H])([H])C([H])(n5nc(-c6c([H])c([H])c(Oc7c([H])c([H])c(F)c([H])c7F)c([H])c6[H])c(C(=O)N([H])[H])c5N([H])[H])C4([H])[H])C([H])([H])C3([H])[H])C([H])([H])C([H])([H])C([H])([H])[H])c([H])c([H])c2C1([H])[H]

$$$$
30:0:0
     RDKit          3D

108115  0  0  1  0  0  0  0  0999 V2000
  -32.7900  -24.8770   17.4550 C   0  0  0  0  0  0  0  0  0  0  0  0
  -33.5490  -23.7980   17.6840 N   0  0  0  0  0  0  0  0  0  0  0  0
  -32.1260  -25.0090   16.4220 O   0  0  0  0  0  0  0  0  0  0  0  0
  -34.0350  -23.7520   18.5700 H   0  0  0  0  0  0  0  0  0  0  0  0
  -34.6300  -21.7020   16.9910 C   0  0  0  0  0  1  0  0  0  0  0  0
  -33.3320  -22.5270   17.0060 C   0  0  0  0  0  3  0  0  0  0  0  0
  -32.2960  -21.7830   17.8580 C   0  0  0  0  0  0  0  0  0  0  0  0
  -31.1980  -21.3600   17.2290 N   0  0  0  0  0  0  0  0  0  0  0  0
  -32.4840  -21.6160   19.0670 O   0  0  0  0  0  0  0  0  0  0  0  0
  -31.1380  -21.5240   16.2350 H   0  0  0  0  0  0  0  0  0  0  0  0
  -28.9590  -20.5170   16.8310 C   0  0  0  0  0  1  0  0  0  0  0  0
  -30.1110  -20.6140   17.8500 C   0  0  0  0  0  3  0  0  0  0  0  0
  -30.5650  -19.1880   18.2010 C   0  0  0  0  0  0  0  0  0  0  0  0
  -30.0840  -18.6520   19.3300 N   0  0  0  0  0  0  0  0  0  0  0  0
  -31.2850  -18.5630   17.4160 O   0  0  0  0  0  0  0  0  0  0  0  0
  -29.5390  -19.2470   19.9420 H   0  0  0  0  0  0  0  0  0  0  0  0
  -28.7650  -16.6490   18.9890 C   0  0  0  0  0  1  0  0  0  0  0  0
  -30.0650  -17.2180   19.5880 C   0  0  0  0  0  3  0  0  0  0  0  0
  -30.2320  -16.8760   21.0960 C   0  0  0  0  0  2  0  0  0  0  0  0
  -30.6760  -14.4680   20.7370 C   0  0  0  0  0  0  0  0  0  0  0  0
  -30.3950  -12.3420   19.5380 C   0  0  0  0  0  2  0  0  0  0  0  0
  -29.4940  -12.5360   18.3030 C   0  0  0  0  0  2  0  0  0  0  0  0
  -28.0040  -12.4080   18.6810 C   0  0  0  0  0  2  0  0  0  0  0  0
  -27.6250  -13.2390   19.9350 C   0  0  0  0  0  3  0  0  0  0  0  0
  -28.6430  -13.0140   21.0800 C   0  0  0  0  0  2  0  0  0  0  0  0
  -29.9910  -13.3120   20.5650 N   0  0  0  0  0  0  0  0  0  0  0  0
  -31.7830  -14.6810   20.2330 O   0  0  0  0  0  0  0  0  0  0  0  0
  -29.9910  -15.4510   21.3360 N   0  0  0  0  0  0  0  0  0  0  0  0
  -29.1160  -15.1960   21.7760 H   0  0  0  0  0  0  0  0  0  0  0  0
  -25.1990  -13.8660   20.5310 C   0  0  0  0  0  0  0  0  0  0  0  0
  -24.1170  -13.0960   20.8710 C   0  0  0  0  0  0  0  0  0  0  0  0
  -24.5830  -11.7450   20.8850 C   0  0  0  0  0  0  0  0  0  0  0  0
  -26.2540  -12.9800   20.3640 N   0  0  0  0  0  0  0  0  0  0  0  0
  -25.8860  -11.7030   20.6300 N   0  0  0  0  0  0  0  0  0  0  0  0
  -23.8610  -10.4820   21.0650 C   0  0  0  0  0  0  0  0  0  0  0  0
  -24.2840   -9.5250   22.0100 C   0  0  0  0  0  3  0  0  0  0  0  0
  -23.5630   -8.3240   22.1810 C   0  0  0  0  0  3  0  0  0  0  0  0
  -22.4080   -8.0750   21.4070 C   0  0  0  0  0  0  0  0  0  0  0  0
  -22.0010   -9.0240   20.4500 C   0  0  0  0  0  3  0  0  0  0  0  0
  -22.7240  -10.2160   20.2790 C   0  0  0  0  0  3  0  0  0  0  0  0
  -21.6570   -6.9280   21.4860 O   0  0  0  0  0  0  0  0  0  0  0  0
  -21.6020   -6.1820   22.6340 C   0  0  0  0  0  0  0  0  0  0  0  0
  -21.1840   -6.7330   23.8670 C   0  0  0  0  0  3  0  0  0  0  0  0
  -21.0790   -5.9120   25.0050 C   0  0  0  0  0  3  0  0  0  0  0  0
  -21.3830   -4.5400   24.9150 C   0  0  0  0  0  0  0  0  0  0  0  0
  -21.7960   -3.9900   23.6900 C   0  0  0  0  0  3  0  0  0  0  0  0
  -21.9010   -4.8070   22.5510 C   0  0  0  0  0  0  0  0  0  0  0  0
  -22.2770   -4.2670   21.3670 F   0  0  0  0  0  0  0  0  0  0  0  0
  -21.2770   -3.7490   26.0090 F   0  0  0  0  0  0  0  0  0  0  0  0
  -22.7070  -13.5720   21.0840 C   0  0  0  0  0  0  0  0  0  0  0  0
  -21.9490  -12.8870   21.9320 N   0  0  0  0  0  0  0  0  0  0  0  0
  -22.2840  -14.5860   20.5290 O   0  0  0  0  0  0  0  0  0  0  0  0
  -22.3020  -12.0610   22.3920 H   0  0  0  0  0  0  0  0  0  0  0  0
  -21.0050  -13.1890   22.1280 H   0  0  0  0  0  0  0  0  0  0  0  0
  -25.3570  -15.2370   20.3360 N   0  0  0  0  0  0  0  0  0  0  0  0
  -24.5690  -15.8660   20.4250 H   0  0  0  0  0  0  0  0  0  0  0  0
  -26.1980  -15.6940   20.0050 H   0  0  0  0  0  0  0  0  0  0  0  0
  -32.7010  -25.9280   18.5900 C   0  0  0  0  0  3  0  0  0  0  0  0
  -35.1620  -26.6140   18.3930 C   0  0  0  0  0  1  0  0  0  0  0  0
  -33.4540  -27.9410   17.1320 C   0  0  0  0  0  1  0  0  0  0  0  0
  -33.5810  -28.0630   19.6440 C   0  0  0  0  0  1  0  0  0  0  0  0
  -33.7020  -27.1260   18.4220 C   0  0  1  0  0  0  0  0  0  0  0  0
  -30.2790  -25.6110   19.0840 C   0  0  0  0  0  0  0  0  0  0  0  0
  -31.3080  -26.3920   18.7120 N   0  0  0  0  0  0  0  0  0  0  0  0
  -30.4480  -24.4750   19.5380 O   0  0  0  0  0  0  0  0  0  0  0  0
  -31.1010  -27.3200   18.3720 H   0  0  0  0  0  0  0  0  0  0  0  0
  -28.8540  -26.1540   18.9330 C   0  0  0  0  0  2  0  0  0  0  0  0
  -28.4820  -26.8200   20.1350 O   0  0  0  0  0  0  0  0  0  0  0  0
  -24.6200  -31.8970   23.2260 C   0  0  0  0  0  0  0  0  0  0  0  0
  -27.2770  -27.4840   20.1340 C   0  0  0  0  0  0  0  0  0  0  0  0
  -23.4020  -30.4750   21.6040 C   0  0  0  0  0  3  0  0  0  0  0  0
  -24.8520  -28.9360   20.1770 C   0  0  0  0  0  0  0  0  0  0  0  0
  -25.9190  -30.8540   21.3800 C   0  0  0  0  0  2  0  0  0  0  0  0
  -26.0050  -29.4800   20.7530 C   0  0  0  0  0  0  0  0  0  0  0  0
  -27.2150  -28.7530   20.7400 C   0  0  0  0  0  3  0  0  0  0  0  0
  -26.1030  -26.9370   19.5660 C   0  0  0  0  0  3  0  0  0  0  0  0
  -24.8920  -27.6570   19.5890 C   0  0  0  0  0  3  0  0  0  0  0  0
  -23.6000  -29.7830   20.2280 C   0  0  0  0  0  2  0  0  0  0  0  0
  -24.6660  -31.0900   22.1300 N   0  0  0  0  0  0  0  0  0  0  0  0
  -23.5440  -32.1720   23.7720 O   0  0  0  0  0  0  0  0  0  0  0  0
  -22.7640  -29.4620   22.5820 C   0  0  0  0  0  0  0  0  0  0  0  0
  -21.4400  -29.2700   22.4600 N   0  0  0  0  0  0  0  0  0  0  0  0
  -23.4540  -28.8520   23.4010 O   0  0  0  0  0  0  0  0  0  0  0  0
  -20.9440  -29.8180   21.7690 H   0  0  0  0  0  0  0  0  0  0  0  0
  -18.0790  -28.0560   22.9710 C   0  0  0  0  0  0  0  0  0  0  0  0
  -20.6330  -28.3380   23.2420 C   0  0  0  0  0  3  0  0  0  0  0  0
  -20.7490  -26.8990   22.6850 C   0  0  0  0  0  2  0  0  0  0  0  0
  -19.6510  -26.5540   21.6740 C   0  0  0  0  0  2  0  0  0  0  0  0
  -18.2660  -26.6980   22.3130 C   0  0  0  0  0  2  0  0  0  0  0  0
  -19.1910  -28.8310   23.3910 C   0  0  0  0  0  0  0  0  0  0  0  0
  -18.9610  -30.1030   23.9620 C   0  0  0  0  0  3  0  0  0  0  0  0
  -17.6520  -30.5970   24.1180 C   0  0  0  0  0  3  0  0  0  0  0  0
  -16.5550  -29.8160   23.7150 C   0  0  0  0  0  3  0  0  0  0  0  0
  -16.7690  -28.5480   23.1450 C   0  0  0  0  0  3  0  0  0  0  0  0
  -25.9110  -32.5350   23.8300 C   0  0  0  0  0  3  0  0  0  0  0  0
  -26.4490  -31.7680   25.1000 C   0  0  1  0  0  0  0  0  0  0  0  0
  -25.3740  -31.5280   26.1850 C   0  0  0  0  0  1  0  0  0  0  0  0
  -27.0280  -30.3920   24.6980 C   0  0  0  0  0  1  0  0  0  0  0  0
  -27.6080  -32.5660   25.7400 C   0  0  0  0  0  1  0  0  0  0  0  0
  -25.6030  -33.9340   24.1540 N   0  0  0  0  0  0  0  0  0  0  0  0
  -25.9330  -34.9820   23.3890 C   0  0  0  0  0  0  0  0  0  0  0  0
  -26.5970  -34.8730   22.3540 O   0  0  0  0  0  0  0  0  0  0  0  0
  -25.0150  -34.0940   24.9610 H   0  0  0  0  0  0  0  0  0  0  0  0
  -24.2010  -36.7670   23.0290 C   0  0  0  0  0  1  0  0  0  0  0  0
  -25.4450  -36.3710   23.8390 C   0  0  0  0  0  3  0  0  0  0  0  0
  -27.5850  -37.2570   24.6560 C   0  0  0  0  0  1  0  0  0  0  0  0
  -26.4770  -37.4230   23.7190 N   0  0  0  0  0  0  0  0  0  0  0  0
  -26.0730  -38.3430   23.8670 H   0  0  0  0  0  0  0  0  0  0  0  0
  1  2  1  0
  2  4  1  0
  3  1  2  0
  6  5  1  0
  6  2  1  0
  6  7  1  0
  7  9  2  0
  8 12  1  0
  8  7  1  0
 10  8  1  0
 12 11  1  0
 12 13  1  0
 13 14  1  0
 14 18  1  0
 14 16  1  0
 15 13  2  0
 18 17  1  0
 18 19  1  0
 19 28  1  0
 20 28  1  0
 21 26  1  0
 22 23  1  0
 22 21  1  0
 24 23  1  0
 24 33  1  0
 24 25  1  0
 26 20  1  0
 26 25  1  0
 27 20  2  0
 28 29  1  0
 30 31  2  0
 31 32  1  0
 31 50  1  0
 32 35  1  0
 33 30  1  0
 33 34  1  0
 34 32  2  0
 35 36  1  0
 36 37  2  0
 38 41  1  0
 38 37  1  0
 39 38  2  0
 40 39  1  0
 40 35  2  0
 41 42  1  0
 42 43  1  0
 43 44  2  0
 45 44  1  0
 45 49  1  0
 46 45  2  0
 47 42  2  0
 47 46  1  0
 48 47  1  0
 50 51  1  0
 51 54  1  0
 51 53  1  0
 52 50  2  0
 55 56  1  0
 55 30  1  0
 57 55  1  0
 58  1  1  0
 58 64  1  0
 62 59  1  6
 60 62  1  0
 62 58  1  0
 62 61  1  0
 63 65  2  0
 64 63  1  0
 66 64  1  0
 67 63  1  0
 67 68  1  0
 69 80  2  0
 70 68  1  0
 70 75  1  0
 71 79  1  0
 71 81  1  0
 72 78  1  0
 72 74  1  0
 73 79  1  0
 74 73  1  0
 75 74  2  0
 76 77  1  0
 76 70  2  0
 77 72  2  0
 78 71  1  0
 79 69  1  0
 81 83  2  0
 82 81  1  0
 84 82  1  0
 85 94  2  0
 85 90  1  0
 86 82  1  0
 86 90  1  0
 87 86  1  0
 88 89  1  0
 88 87  1  0
 89 85  1  0
 90 91  2  0
 91 92  1  0
 93 92  2  0
 94 93  1  0
 95 69  1  0
 95100  1  0
 95 96  1  0
 96 99  1  1
 96 97  1  0
 98 96  1  0
100103  1  0
101105  1  0
101100  1  0
102101  2  0
105104  1  0
107105  1  0
107108  1  0
107106  1  0
M  ISO  4  20 100  28 100  67 101  68 101
M  END
>  <TORSDO>  (31) 
F 26

>  <SCORE>  (31) 
-11.968

>  <name>  (31) 
30

>  <ligand_id>  (31) 
30

>  <original_smiles>  (31) 
[H]c1c([H])c([H])c2c(c1[H])C([H])([H])C([H])([H])C([H])([H])C2([H])N([H])C(=O)C1([H])N(C(=O)C([H])(N([H])C(=O)C([H])(N([H])C([H])([H])[H])C([H])([H])[H])C(C([H])([H])[H])(C([H])([H])[H])C([H])([H])[H])C([H])([H])c2c([H])c(OC([H])([H])C(=O)N([H])C([H])(C(=O)N([H])C([H])(C(=O)N([H])C([H])(C(=O)N([H])C([H])(C([H])([H])[H])C([H])([H])N([H])C(=O)N3C([H])([H])C([H])([H])C([H])([H])C([H])(n4nc(-c5c([H])c([H])c(Oc6c([H])c([H])c(F)c([H])c6F)c([H])c5[H])c(C(=O)N([H])[H])c4N([H])[H])C3([H])[H])C([H])([H])[H])C([H])([H])[H])C(C([H])([H])[H])(C([H])([H])[H])C([H])([H])[H])c([H])c([H])c2C1([H])[H]

>  <smiles>  (31) 
[H]c1c([H])c([H])c2c(c1[H])C([H])([H])C([H])([H])C([H])([H])C2([H])N([H])C(=O)C1([H])N(C(=O)C([H])(N([H])C(=O)C([H])(N([H])C([H])([H])[H])C([H])([H])[H])C(C([H])([H])[H])(C([H])([H])[H])C([H])([H])[H])C([H])([H])c2c([H])c(OC([H])([H])C(=O)N([H])C([H])(C(=O)N([H])C([H])(C(=O)N([H])C([H])(C(=O)N([H])C([H])(C([H])([H])[H])C([H])([H])N([H])C(=O)N3C([H])([H])C([H])([H])C([H])([H])C([H])(n4nc(-c5c([H])c([H])c(Oc6c([H])c([H])c(F)c([H])c6F)c([H])c5[H])c(C(=O)N([H])[H])c4N([H])[H])C3([H])[H])C([H])([H])[H])C([H])([H])[H])C(C([H])([H])[H])(C([H])([H])[H])C([H])([H])[H])c([H])c([H])c2C1([H])[H]

$$$$
31:0:0
     RDKit          3D

 94102  0  0  1  0  0  0  0  0999 V2000
  -28.9790  -18.4060   21.1340 C   0  0  0  0  0  3  0  0  0  0  0  0
  -28.8110  -19.8400   21.1550 C   0  0  0  0  0  3  0  0  0  0  0  0
  -30.3540  -18.6050   19.2380 C   0  0  0  0  0  3  0  0  0  0  0  0
  -30.1770  -20.0690   19.2320 C   0  0  0  0  0  0  0  0  0  0  0  0
  -29.7810  -17.6880   20.1930 C   0  0  0  0  0  0  0  0  0  0  0  0
  -29.3910  -20.7800   20.2320 C   0  0  0  0  0  0  0  0  0  0  0  0
  -30.6290  -15.0550   19.8890 C   0  0  0  0  0  0  0  0  0  0  0  0
  -30.4960  -12.7210   18.9200 C   0  0  0  0  0  2  0  0  0  0  0  0
  -29.4870  -12.7000   17.7470 C   0  0  0  0  0  2  0  0  0  0  0  0
  -28.0430  -12.5000   18.2470 C   0  0  0  0  0  2  0  0  0  0  0  0
  -27.7100  -13.4070   19.4590 C   0  0  0  0  0  3  0  0  0  0  0  0
  -28.8210  -13.3550   20.5250 C   0  0  0  0  0  2  0  0  0  0  0  0
  -30.0690  -13.7790   19.8730 N   0  0  0  0  0  0  0  0  0  0  0  0
  -31.7910  -15.1820   19.4870 O   0  0  0  0  0  0  0  0  0  0  0  0
  -29.7910  -16.1520   20.2210 N   0  0  0  0  0  0  0  0  0  0  0  0
  -28.9290  -15.7890   20.6010 H   0  0  0  0  0  0  0  0  0  0  0  0
  -25.3840  -14.0080   20.3450 C   0  0  0  0  0  0  0  0  0  0  0  0
  -24.3310  -13.2400   20.7660 C   0  0  0  0  0  0  0  0  0  0  0  0
  -24.7730  -11.8860   20.6800 C   0  0  0  0  0  0  0  0  0  0  0  0
  -26.3970  -13.1200   20.0240 N   0  0  0  0  0  0  0  0  0  0  0  0
  -26.0410  -11.8370   20.2880 N   0  0  0  0  0  0  0  0  0  0  0  0
  -24.0400  -10.6290   20.8830 C   0  0  0  0  0  0  0  0  0  0  0  0
  -24.4850   -9.6560   21.8040 C   0  0  0  0  0  3  0  0  0  0  0  0
  -23.7520   -8.4650   21.9970 C   0  0  0  0  0  3  0  0  0  0  0  0
  -22.5600   -8.2380   21.2710 C   0  0  0  0  0  0  0  0  0  0  0  0
  -22.1340   -9.1990   20.3370 C   0  0  0  0  0  3  0  0  0  0  0  0
  -22.8670  -10.3820   20.1410 C   0  0  0  0  0  3  0  0  0  0  0  0
  -21.7970   -7.1020   21.3760 O   0  0  0  0  0  0  0  0  0  0  0  0
  -21.7340   -6.3810   22.5430 C   0  0  0  0  0  0  0  0  0  0  0  0
  -21.2550   -6.9470   23.7440 C   0  0  0  0  0  3  0  0  0  0  0  0
  -21.1430   -6.1500   24.9020 C   0  0  0  0  0  3  0  0  0  0  0  0
  -21.5020   -4.7890   24.8580 C   0  0  0  0  0  0  0  0  0  0  0  0
  -21.9750   -4.2230   23.6610 C   0  0  0  0  0  3  0  0  0  0  0  0
  -22.0890   -5.0180   22.5070 C   0  0  0  0  0  0  0  0  0  0  0  0
  -22.5250   -4.4630   21.3510 F   0  0  0  0  0  0  0  0  0  0  0  0
  -21.3880   -4.0220   25.9670 F   0  0  0  0  0  0  0  0  0  0  0  0
  -22.9610  -13.7310   21.1300 C   0  0  0  0  0  0  0  0  0  0  0  0
  -22.2770  -13.0330   22.0300 N   0  0  0  0  0  0  0  0  0  0  0  0
  -22.5070  -14.7690   20.6490 O   0  0  0  0  0  0  0  0  0  0  0  0
  -22.6560  -12.1940   22.4410 H   0  0  0  0  0  0  0  0  0  0  0  0
  -21.3580  -13.3430   22.3120 H   0  0  0  0  0  0  0  0  0  0  0  0
  -25.5610  -15.3790   20.1850 N   0  0  0  0  0  0  0  0  0  0  0  0
  -24.8130  -16.0470   20.3430 H   0  0  0  0  0  0  0  0  0  0  0  0
  -26.3730  -15.7980   19.7500 H   0  0  0  0  0  0  0  0  0  0  0  0
  -30.8710  -20.8540   18.1120 C   0  0  1  0  0  0  0  0  0  0  0  0
  -31.7890  -20.1220   17.4800 F   0  0  0  0  0  0  0  0  0  0  0  0
  -29.9700  -21.2250   17.2030 F   0  0  0  0  0  0  0  0  0  0  0  0
  -31.4890  -21.9350   18.5860 F   0  0  0  0  0  0  0  0  0  0  0  0
  -28.7440  -23.4420   19.8250 C   0  0  0  0  0  0  0  0  0  0  0  0
  -29.7610  -22.6270   21.8730 C   0  0  0  0  0  1  0  0  0  0  0  0
  -29.2690  -22.3010   20.5260 N   0  0  0  0  0  0  0  0  0  0  0  0
  -28.4860  -23.3570   18.6220 O   0  0  0  0  0  0  0  0  0  0  0  0
  -28.3560  -24.9010   20.5510 C   0  0  0  0  0  2  0  0  0  0  0  0
  -28.4430  -26.3000   19.8800 O   0  0  0  0  0  0  0  0  0  0  0  0
  -24.5650  -31.7120   23.0990 C   0  0  0  0  0  0  0  0  0  0  0  0
  -27.3420  -27.2260   19.9160 C   0  0  0  0  0  0  0  0  0  0  0  0
  -23.4280  -30.3300   21.4060 C   0  0  0  0  0  3  0  0  0  0  0  0
  -24.9400  -28.8600   19.9380 C   0  0  0  0  0  0  0  0  0  0  0  0
  -25.9700  -30.7040   21.2600 C   0  0  0  0  0  2  0  0  0  0  0  0
  -26.1010  -29.3400   20.5590 C   0  0  0  0  0  0  0  0  0  0  0  0
  -27.3080  -28.5470   20.5160 C   0  0  0  0  0  3  0  0  0  0  0  0
  -26.1540  -26.8430   19.2590 C   0  0  0  0  0  3  0  0  0  0  0  0
  -24.9790  -27.6260   19.2700 C   0  0  0  0  0  3  0  0  0  0  0  0
  -23.6810  -29.7080   20.0080 C   0  0  0  0  0  2  0  0  0  0  0  0
  -24.6740  -30.9370   21.9770 N   0  0  0  0  0  0  0  0  0  0  0  0
  -23.4670  -31.9350   23.6300 O   0  0  0  0  0  0  0  0  0  0  0  0
  -22.7810  -29.2650   22.3260 C   0  0  0  0  0  0  0  0  0  0  0  0
  -21.4580  -29.0610   22.1880 N   0  0  0  0  0  0  0  0  0  0  0  0
  -23.4700  -28.6280   23.1260 O   0  0  0  0  0  0  0  0  0  0  0  0
  -20.9580  -29.6280   21.5170 H   0  0  0  0  0  0  0  0  0  0  0  0
  -18.1040  -27.7690   22.6590 C   0  0  0  0  0  0  0  0  0  0  0  0
  -20.6610  -28.0680   22.9160 C   0  0  0  0  0  3  0  0  0  0  0  0
  -20.7840  -26.6720   22.2650 C   0  0  0  0  0  2  0  0  0  0  0  0
  -19.6770  -26.3790   21.2460 C   0  0  0  0  0  2  0  0  0  0  0  0
  -18.3010  -26.4610   21.9120 C   0  0  0  0  0  2  0  0  0  0  0  0
  -19.2120  -28.5310   23.1160 C   0  0  0  0  0  0  0  0  0  0  0  0
  -18.9740  -29.7560   23.7790 C   0  0  0  0  0  3  0  0  0  0  0  0
  -17.6610  -30.2180   23.9860 C   0  0  0  0  0  3  0  0  0  0  0  0
  -16.5680  -29.4520   23.5460 C   0  0  0  0  0  3  0  0  0  0  0  0
  -16.7900  -28.2280   22.8900 C   0  0  0  0  0  3  0  0  0  0  0  0
  -25.8130  -32.3700   23.7610 C   0  0  0  0  0  3  0  0  0  0  0  0
  -26.3180  -31.5940   25.0400 C   0  0  1  0  0  0  0  0  0  0  0  0
  -25.2060  -31.3160   26.0790 C   0  0  0  0  0  1  0  0  0  0  0  0
  -26.9420  -30.2340   24.6470 C   0  0  0  0  0  1  0  0  0  0  0  0
  -27.4330  -32.4070   25.7400 C   0  0  0  0  0  1  0  0  0  0  0  0
  -25.4600  -33.7560   24.1080 N   0  0  0  0  0  0  0  0  0  0  0  0
  -25.7780  -34.8310   23.3760 C   0  0  0  0  0  0  0  0  0  0  0  0
  -26.4670  -34.7640   22.3550 O   0  0  0  0  0  0  0  0  0  0  0  0
  -24.8460  -33.8810   24.8990 H   0  0  0  0  0  0  0  0  0  0  0  0
  -24.0150  -36.5950   23.0280 C   0  0  0  0  0  1  0  0  0  0  0  0
  -25.2520  -36.1990   23.8530 C   0  0  0  0  0  3  0  0  0  0  0  0
  -27.3410  -37.1250   24.7530 C   0  0  0  0  0  1  0  0  0  0  0  0
  -26.2620  -37.2780   23.7810 N   0  0  0  0  0  0  0  0  0  0  0  0
  -25.8290  -38.1860   23.9290 H   0  0  0  0  0  0  0  0  0  0  0  0
  1  2  1  0
  3  5  1  0
  4  3  2  0
  4  6  1  0
  5 15  1  0
  5  1  2  0
  6 51  1  0
  6  2  2  0
  7 15  1  0
  8 13  1  0
  9 10  1  0
  9  8  1  0
 11 10  1  0
 11 20  1  0
 11 12  1  0
 13  7  1  0
 13 12  1  0
 14  7  2  0
 15 16  1  0
 17 18  2  0
 18 37  1  0
 19 18  1  0
 19 22  1  0
 20 21  1  0
 20 17  1  0
 21 19  2  0
 22 23  1  0
 23 24  2  0
 25 28  1  0
 25 24  1  0
 26 25  2  0
 27 26  1  0
 27 22  2  0
 28 29  1  0
 29 30  1  0
 30 31  2  0
 32 31  1  0
 32 36  1  0
 33 32  2  0
 34 29  2  0
 34 33  1  0
 35 34  1  0
 37 38  1  0
 38 41  1  0
 38 40  1  0
 39 37  2  0
 42 43  1  0
 42 17  1  0
 44 42  1  0
 45 48  1  1
 45  4  1  0
 46 45  1  0
 47 45  1  0
 49 51  1  0
 49 53  1  0
 51 50  1  0
 52 49  2  0
 54 56  1  0
 54 53  1  0
 55 66  2  0
 56 61  1  0
 57 65  1  0
 57 67  1  0
 58 64  1  0
 58 60  1  0
 59 65  1  0
 60 59  1  0
 61 60  2  0
 62 63  1  0
 62 56  2  0
 63 58  2  0
 64 57  1  0
 65 55  1  0
 67 69  2  0
 68 67  1  0
 70 68  1  0
 71 80  2  0
 71 76  1  0
 72 68  1  0
 72 76  1  0
 73 72  1  0
 74 75  1  0
 74 73  1  0
 75 71  1  0
 76 77  2  0
 77 78  1  0
 79 78  2  0
 80 79  1  0
 81 55  1  0
 81 86  1  0
 81 82  1  0
 82 85  1  1
 82 83  1  0
 84 82  1  0
 86 89  1  0
 87 91  1  0
 87 86  1  0
 88 87  2  0
 91 90  1  0
 93 91  1  0
 93 94  1  0
 93 92  1  0
M  ISO  4   7 100  15 100  53 101  54 101
M  END
>  <TORSDO>  (32) 
F 19

>  <SCORE>  (32) 
-13.374

>  <name>  (32) 
31

>  <ligand_id>  (32) 
31

>  <original_smiles>  (32) 
[H]c1c([H])c([H])c2c(c1[H])C([H])([H])C([H])([H])C([H])([H])C2([H])N([H])C(=O)C1([H])N(C(=O)C([H])(N([H])C(=O)C([H])(N([H])C([H])([H])[H])C([H])([H])[H])C(C([H])([H])[H])(C([H])([H])[H])C([H])([H])[H])C([H])([H])c2c([H])c(OC([H])([H])C(=O)N(c3c([H])c([H])c(N([H])C(=O)N4C([H])([H])C([H])([H])C([H])([H])C([H])(n5nc(-c6c([H])c([H])c(Oc7c([H])c([H])c(F)c([H])c7F)c([H])c6[H])c(C(=O)N([H])[H])c5N([H])[H])C4([H])[H])c([H])c3C(F)(F)F)C([H])([H])[H])c([H])c([H])c2C1([H])[H]

>  <smiles>  (32) 
[H]c1c([H])c([H])c2c(c1[H])C([H])([H])C([H])([H])C([H])([H])C2([H])N([H])C(=O)C1([H])N(C(=O)C([H])(N([H])C(=O)C([H])(N([H])C([H])([H])[H])C([H])([H])[H])C(C([H])([H])[H])(C([H])([H])[H])C([H])([H])[H])C([H])([H])c2c([H])c(OC([H])([H])C(=O)N(c3c([H])c([H])c(N([H])C(=O)N4C([H])([H])C([H])([H])C([H])([H])C([H])(n5nc(-c6c([H])c([H])c(Oc7c([H])c([H])c(F)c([H])c7F)c([H])c6[H])c(C(=O)N([H])[H])c5N([H])[H])C4([H])[H])c([H])c3C(F)(F)F)C([H])([H])[H])c([H])c([H])c2C1([H])[H]

$$$$
32:0:0
     RDKit          3D

 95103  0  0  1  0  0  0  0  0999 V2000
  -29.3470  -22.0400   20.5870 C   0  0  0  0  0  2  0  0  0  0  0  0
  -28.7450  -23.3960   20.1160 C   0  0  0  0  0  2  0  0  0  0  0  0
  -29.4170  -24.6250   20.7850 C   0  0  0  0  0  2  0  0  0  0  0  0
  -28.4790  -25.6930   21.1790 N   0  0  0  0  0  0  0  0  0  0  0  0
  -28.6050  -25.3750   23.6360 C   0  0  0  0  0  1  0  0  0  0  0  0
  -30.2630  -26.9380   22.4620 C   0  0  0  0  0  1  0  0  0  0  0  0
  -28.8420  -26.3330   22.4570 C   0  0  0  0  0  3  0  0  0  0  0  0
  -28.5610  -26.7360   20.1530 O   0  0  0  0  0  0  0  0  0  0  0  0
  -24.6320  -31.8750   23.1430 C   0  0  0  0  0  0  0  0  0  0  0  0
  -27.3990  -27.4790   20.1120 C   0  0  0  0  0  0  0  0  0  0  0  0
  -23.4770  -30.4530   21.4810 C   0  0  0  0  0  3  0  0  0  0  0  0
  -24.9800  -28.9410   20.0770 C   0  0  0  0  0  0  0  0  0  0  0  0
  -25.9980  -30.8570   21.3220 C   0  0  0  0  0  2  0  0  0  0  0  0
  -26.1180  -29.4890   20.6820 C   0  0  0  0  0  0  0  0  0  0  0  0
  -27.3340  -28.7690   20.6890 C   0  0  0  0  0  3  0  0  0  0  0  0
  -26.2500  -26.9440   19.4990 C   0  0  0  0  0  3  0  0  0  0  0  0
  -25.0420  -27.6680   19.4790 C   0  0  0  0  0  3  0  0  0  0  0  0
  -23.7180  -29.7740   20.1070 C   0  0  0  0  0  2  0  0  0  0  0  0
  -24.7200  -31.0750   22.0420 N   0  0  0  0  0  0  0  0  0  0  0  0
  -23.5380  -32.1340   23.6620 O   0  0  0  0  0  0  0  0  0  0  0  0
  -22.8240  -29.4230   22.4310 C   0  0  0  0  0  0  0  0  0  0  0  0
  -21.5040  -29.2240   22.2820 N   0  0  0  0  0  0  0  0  0  0  0  0
  -23.5040  -28.8060   23.2570 O   0  0  0  0  0  0  0  0  0  0  0  0
  -21.0160  -29.7780   21.5940 H   0  0  0  0  0  0  0  0  0  0  0  0
  -18.1360  -27.9970   22.7340 C   0  0  0  0  0  0  0  0  0  0  0  0
  -20.6870  -28.2750   23.0380 C   0  0  0  0  0  3  0  0  0  0  0  0
  -20.8090  -26.8480   22.4560 C   0  0  0  0  0  2  0  0  0  0  0  0
  -19.7240  -26.5210   21.4260 C   0  0  0  0  0  2  0  0  0  0  0  0
  -18.3320  -26.6520   22.0550 C   0  0  0  0  0  2  0  0  0  0  0  0
  -19.2420  -28.7670   23.1810 C   0  0  0  0  0  0  0  0  0  0  0  0
  -19.0070  -30.0250   23.7730 C   0  0  0  0  0  3  0  0  0  0  0  0
  -17.6960  -30.5150   23.9250 C   0  0  0  0  0  3  0  0  0  0  0  0
  -16.6040  -29.7420   23.4950 C   0  0  0  0  0  3  0  0  0  0  0  0
  -16.8250  -28.4860   22.9050 C   0  0  0  0  0  3  0  0  0  0  0  0
  -25.8980  -32.5270   23.7850 C   0  0  0  0  0  3  0  0  0  0  0  0
  -25.5570  -33.9130   24.1290 N   0  0  0  0  0  0  0  0  0  0  0  0
  -25.8730  -34.9800   23.3830 C   0  0  0  0  0  0  0  0  0  0  0  0
  -26.5560  -34.9020   22.3570 O   0  0  0  0  0  0  0  0  0  0  0  0
  -24.9600  -34.0460   24.9320 H   0  0  0  0  0  0  0  0  0  0  0  0
  -24.1190  -36.7480   23.0170 C   0  0  0  0  0  1  0  0  0  0  0  0
  -25.3500  -36.3530   23.8500 C   0  0  0  0  0  3  0  0  0  0  0  0
  -27.4490  -37.2650   24.7380 C   0  0  0  0  0  1  0  0  0  0  0  0
  -26.3650  -37.4250   23.7740 N   0  0  0  0  0  0  0  0  0  0  0  0
  -25.9380  -38.3360   23.9220 H   0  0  0  0  0  0  0  0  0  0  0  0
  -26.4210  -31.7510   25.0570 C   0  0  1  0  0  0  0  0  0  0  0  0
  -25.3250  -31.4750   26.1120 C   0  0  0  0  0  1  0  0  0  0  0  0
  -27.0410  -30.3930   24.6510 C   0  0  0  0  0  1  0  0  0  0  0  0
  -27.5450  -32.5630   25.7410 C   0  0  0  0  0  1  0  0  0  0  0  0
  -29.0470  -20.9750   19.6770 O   0  0  0  0  0  0  0  0  0  0  0  0
  -30.0040  -17.8470   21.5470 C   0  0  0  0  0  3  0  0  0  0  0  0
  -29.7680  -19.2190   21.2920 C   0  0  0  0  0  3  0  0  0  0  0  0
  -29.8920  -16.8820   20.5200 C   0  0  0  0  0  0  0  0  0  0  0  0
  -29.3790  -19.6630   20.0000 C   0  0  0  0  0  0  0  0  0  0  0  0
  -29.5310  -17.3240   19.2210 C   0  0  0  0  0  0  0  0  0  0  0  0
  -29.2760  -18.6950   18.9730 C   0  0  0  0  0  0  0  0  0  0  0  0
  -29.3630  -16.4320   18.2120 F   0  0  0  0  0  0  0  0  0  0  0  0
  -28.9070  -19.0840   17.7280 F   0  0  0  0  0  0  0  0  0  0  0  0
  -30.6870  -14.5450   20.1780 C   0  0  0  0  0  0  0  0  0  0  0  0
  -30.3820  -12.4000   18.9980 C   0  0  0  0  0  2  0  0  0  0  0  0
  -29.3810  -12.6400   17.8450 C   0  0  0  0  0  2  0  0  0  0  0  0
  -27.9260  -12.4930   18.3360 C   0  0  0  0  0  2  0  0  0  0  0  0
  -27.6490  -13.2910   19.6380 C   0  0  0  0  0  3  0  0  0  0  0  0
  -28.7520  -13.0140   20.6860 C   0  0  0  0  0  2  0  0  0  0  0  0
  -30.0530  -13.3450   20.0770 N   0  0  0  0  0  0  0  0  0  0  0  0
  -31.7740  -14.7770   19.6390 O   0  0  0  0  0  0  0  0  0  0  0  0
  -30.0050  -15.4940   20.8480 N   0  0  0  0  0  0  0  0  0  0  0  0
  -29.2590  -15.1340   21.4240 H   0  0  0  0  0  0  0  0  0  0  0  0
  -25.2800  -13.8930   20.4520 C   0  0  0  0  0  0  0  0  0  0  0  0
  -24.2290  -13.1160   20.8610 C   0  0  0  0  0  0  0  0  0  0  0  0
  -24.6870  -11.7660   20.7930 C   0  0  0  0  0  0  0  0  0  0  0  0
  -26.3160  -13.0150   20.1680 N   0  0  0  0  0  0  0  0  0  0  0  0
  -25.9630  -11.7300   20.4280 N   0  0  0  0  0  0  0  0  0  0  0  0
  -23.9690  -10.5010   20.9980 C   0  0  0  0  0  0  0  0  0  0  0  0
  -24.4210   -9.5360   21.9250 C   0  0  0  0  0  3  0  0  0  0  0  0
  -23.7030   -8.3360   22.1180 C   0  0  0  0  0  3  0  0  0  0  0  0
  -22.5190   -8.0910   21.3830 C   0  0  0  0  0  0  0  0  0  0  0  0
  -22.0880   -9.0430   20.4430 C   0  0  0  0  0  3  0  0  0  0  0  0
  -22.8060  -10.2340   20.2480 C   0  0  0  0  0  3  0  0  0  0  0  0
  -21.7700   -6.9430   21.4870 O   0  0  0  0  0  0  0  0  0  0  0  0
  -21.7140   -6.2240   22.6520 C   0  0  0  0  0  0  0  0  0  0  0  0
  -21.2520   -6.7930   23.8600 C   0  0  0  0  0  3  0  0  0  0  0  0
  -21.1450   -5.9970   25.0180 C   0  0  0  0  0  3  0  0  0  0  0  0
  -21.4890   -4.6330   24.9700 C   0  0  0  0  0  0  0  0  0  0  0  0
  -21.9450   -4.0630   23.7670 C   0  0  0  0  0  3  0  0  0  0  0  0
  -22.0540   -4.8570   22.6120 C   0  0  0  0  0  0  0  0  0  0  0  0
  -22.4720   -4.2990   21.4500 F   0  0  0  0  0  0  0  0  0  0  0  0
  -21.3820   -3.8650   26.0780 F   0  0  0  0  0  0  0  0  0  0  0  0
  -22.8430  -13.5880   21.1960 C   0  0  0  0  0  0  0  0  0  0  0  0
  -22.1490  -12.8830   22.0840 N   0  0  0  0  0  0  0  0  0  0  0  0
  -22.3840  -14.6180   20.7060 O   0  0  0  0  0  0  0  0  0  0  0  0
  -22.5300  -12.0480   22.5050 H   0  0  0  0  0  0  0  0  0  0  0  0
  -21.2210  -13.1840   22.3450 H   0  0  0  0  0  0  0  0  0  0  0  0
  -25.4380  -15.2660   20.2830 N   0  0  0  0  0  0  0  0  0  0  0  0
  -24.6810  -15.9190   20.4500 H   0  0  0  0  0  0  0  0  0  0  0  0
  -26.2750  -15.7110   19.9300 H   0  0  0  0  0  0  0  0  0  0  0  0
  2  1  1  0
  2  3  1  0
  3  4  1  0
  4  7  1  0
  7  6  1  0
  7  5  1  0
  8  4  1  0
  9 20  2  0
 10  8  1  0
 10 15  1  0
 11 19  1  0
 11 21  1  0
 12 18  1  0
 12 14  1  0
 13 19  1  0
 14 15  2  0
 14 13  1  0
 16 10  2  0
 17 16  1  0
 17 12  2  0
 18 11  1  0
 19  9  1  0
 21 23  2  0
 22 21  1  0
 24 22  1  0
 25 34  2  0
 25 30  1  0
 26 22  1  0
 26 30  1  0
 27 26  1  0
 28 29  1  0
 28 27  1  0
 29 25  1  0
 30 31  2  0
 31 32  1  0
 33 32  2  0
 34 33  1  0
 35  9  1  0
 35 36  1  0
 35 45  1  0
 36 39  1  0
 37 41  1  0
 37 36  1  0
 38 37  2  0
 41 40  1  0
 43 41  1  0
 43 44  1  0
 43 42  1  0
 45 48  1  1
 45 46  1  0
 47 45  1  0
 49 53  1  0
 49  1  1  0
 51 50  1  0
 52 66  1  0
 52 50  2  0
 53 51  2  0
 54 52  1  0
 55 54  2  0
 55 53  1  0
 56 54  1  0
 57 55  1  0
 58 66  1  0
 59 64  1  0
 60 61  1  0
 60 59  1  0
 62 61  1  0
 62 71  1  0
 62 63  1  0
 64 58  1  0
 64 63  1  0
 65 58  2  0
 66 67  1  0
 68 69  2  0
 69 88  1  0
 70 69  1  0
 70 73  1  0
 71 72  1  0
 71 68  1  0
 72 70  2  0
 73 74  1  0
 74 75  2  0
 76 79  1  0
 76 75  1  0
 77 76  2  0
 78 77  1  0
 78 73  2  0
 79 80  1  0
 80 81  1  0
 81 82  2  0
 83 82  1  0
 83 87  1  0
 84 83  2  0
 85 80  2  0
 85 84  1  0
 86 85  1  0
 88 89  1  0
 89 92  1  0
 89 91  1  0
 90 88  2  0
 93 94  1  0
 93 68  1  0
 95 93  1  0
M  ISO  4   4 101   8 101  58 100  66 100
M  END
>  <TORSDO>  (33) 
F 22

>  <SCORE>  (33) 
-12.815

>  <name>  (33) 
32

>  <ligand_id>  (33) 
32

>  <original_smiles>  (33) 
[H]c1c([H])c([H])c2c(c1[H])C([H])([H])C([H])([H])C([H])([H])C2([H])N([H])C(=O)C1([H])N(C(=O)C([H])(N([H])C(=O)C([H])(N([H])C([H])([H])[H])C([H])([H])[H])C(C([H])([H])[H])(C([H])([H])[H])C([H])([H])[H])C([H])([H])c2c([H])c(ON(C([H])([H])C([H])([H])C([H])([H])Oc3c([H])c([H])c(N([H])C(=O)N4C([H])([H])C([H])([H])C([H])([H])C([H])(n5nc(-c6c([H])c([H])c(Oc7c([H])c([H])c(F)c([H])c7F)c([H])c6[H])c(C(=O)N([H])[H])c5N([H])[H])C4([H])[H])c(F)c3F)C([H])(C([H])([H])[H])C([H])([H])[H])c([H])c([H])c2C1([H])[H]

>  <smiles>  (33) 
[H]c1c([H])c([H])c2c(c1[H])C([H])([H])C([H])([H])C([H])([H])C2([H])N([H])C(=O)C1([H])N(C(=O)C([H])(N([H])C(=O)C([H])(N([H])C([H])([H])[H])C([H])([H])[H])C(C([H])([H])[H])(C([H])([H])[H])C([H])([H])[H])C([H])([H])c2c([H])c(ON(C([H])([H])C([H])([H])C([H])([H])Oc3c([H])c([H])c(N([H])C(=O)N4C([H])([H])C([H])([H])C([H])([H])C([H])(n5nc(-c6c([H])c([H])c(Oc7c([H])c([H])c(F)c([H])c7F)c([H])c6[H])c(C(=O)N([H])[H])c5N([H])[H])C4([H])[H])c(F)c3F)C([H])(C([H])([H])[H])C([H])([H])[H])c([H])c([H])c2C1([H])[H]

$$$$
33:0:0
     RDKit          3D

 97105  0  0  1  0  0  0  0  0999 V2000
  -30.8020  -18.2500   19.2810 C   0  0  0  0  0  3  0  0  0  0  0  0
  -30.7760  -19.6800   19.3220 C   0  0  0  0  0  3  0  0  0  0  0  0
  -30.8610  -18.2050   21.6810 C   0  0  0  0  0  3  0  0  0  0  0  0
  -30.8580  -17.4700   20.4670 C   0  0  0  0  0  0  0  0  0  0  0  0
  -30.8080  -20.4160   20.5400 C   0  0  0  0  0  0  0  0  0  0  0  0
  -30.8360  -19.6310   21.7400 C   0  0  0  0  0  0  0  0  0  0  0  0
  -31.4550  -15.0090   19.8840 C   0  0  0  0  0  0  0  0  0  0  0  0
  -31.1300  -12.8210   18.7430 C   0  0  0  0  0  2  0  0  0  0  0  0
  -30.0870  -13.0080   17.6180 C   0  0  0  0  0  2  0  0  0  0  0  0
  -28.6500  -12.8620   18.1600 C   0  0  0  0  0  2  0  0  0  0  0  0
  -28.4180  -13.6720   19.4630 C   0  0  0  0  0  3  0  0  0  0  0  0
  -29.5610  -13.4350   20.4760 C   0  0  0  0  0  2  0  0  0  0  0  0
  -30.8250  -13.7920   19.8130 N   0  0  0  0  0  0  0  0  0  0  0  0
  -32.5470  -15.2000   19.3390 O   0  0  0  0  0  0  0  0  0  0  0  0
  -30.7560  -16.0110   20.5050 N   0  0  0  0  0  0  0  0  0  0  0  0
  -29.9740  -15.6640   21.0410 H   0  0  0  0  0  0  0  0  0  0  0  0
  -26.1320  -14.2920   20.4630 C   0  0  0  0  0  0  0  0  0  0  0  0
  -25.0660  -13.5290   20.8610 C   0  0  0  0  0  0  0  0  0  0  0  0
  -25.4560  -12.1710   20.6580 C   0  0  0  0  0  0  0  0  0  0  0  0
  -27.1050  -13.3980   20.0460 N   0  0  0  0  0  0  0  0  0  0  0  0
  -26.7070  -12.1110   20.2200 N   0  0  0  0  0  0  0  0  0  0  0  0
  -24.6880  -10.9270   20.7980 C   0  0  0  0  0  0  0  0  0  0  0  0
  -25.1100   -9.8940   21.6640 C   0  0  0  0  0  3  0  0  0  0  0  0
  -24.3450   -8.7150   21.7980 C   0  0  0  0  0  3  0  0  0  0  0  0
  -23.1450   -8.5610   21.0650 C   0  0  0  0  0  0  0  0  0  0  0  0
  -22.7410   -9.5820   20.1870 C   0  0  0  0  0  3  0  0  0  0  0  0
  -23.5060  -10.7520   20.0500 C   0  0  0  0  0  3  0  0  0  0  0  0
  -22.3520   -7.4400   21.1100 O   0  0  0  0  0  0  0  0  0  0  0  0
  -22.1970   -6.7120   22.2630 C   0  0  0  0  0  0  0  0  0  0  0  0
  -21.7070   -7.2950   23.4510 C   0  0  0  0  0  3  0  0  0  0  0  0
  -21.4980   -6.4970   24.5930 C   0  0  0  0  0  3  0  0  0  0  0  0
  -21.7700   -5.1160   24.5460 C   0  0  0  0  0  0  0  0  0  0  0  0
  -22.2550   -4.5330   23.3630 C   0  0  0  0  0  3  0  0  0  0  0  0
  -22.4650   -5.3290   22.2230 C   0  0  0  0  0  0  0  0  0  0  0  0
  -22.9100   -4.7570   21.0780 F   0  0  0  0  0  0  0  0  0  0  0  0
  -21.5640   -4.3470   25.6410 F   0  0  0  0  0  0  0  0  0  0  0  0
  -23.7290  -14.0350   21.3150 C   0  0  0  0  0  0  0  0  0  0  0  0
  -23.0610  -13.2980   22.1970 N   0  0  0  0  0  0  0  0  0  0  0  0
  -23.2860  -15.1140   20.9240 O   0  0  0  0  0  0  0  0  0  0  0  0
  -23.4330  -12.4240   22.5380 H   0  0  0  0  0  0  0  0  0  0  0  0
  -22.1640  -13.6150   22.5370 H   0  0  0  0  0  0  0  0  0  0  0  0
  -26.3450  -15.6660   20.4020 N   0  0  0  0  0  0  0  0  0  0  0  0
  -25.6250  -16.3350   20.6510 H   0  0  0  0  0  0  0  0  0  0  0  0
  -27.1800  -16.1020   20.0310 H   0  0  0  0  0  0  0  0  0  0  0  0
  -30.9770  -21.8420   20.5540 N   0  0  0  0  0  0  0  0  0  0  0  0
  -31.8150  -22.1080   20.0440 H   0  0  0  0  0  0  0  0  0  0  0  0
  -29.8770  -22.8330   20.3330 C   0  0  0  0  0  2  0  0  0  0  0  0
  -30.2340  -24.3500   20.7010 C   0  0  0  0  0  3  0  0  0  0  0  0
  -29.0360  -25.3430   21.0340 C   0  0  0  0  0  3  0  0  0  0  0  0
  -29.3030  -26.7810   21.2870 O   0  0  0  0  0  0  0  0  0  0  0  0
  -28.3510  -32.0920   26.0810 C   0  0  0  0  0  0  0  0  0  0  0  0
  -28.4150  -27.4840   22.1210 C   0  0  0  0  0  0  0  0  0  0  0  0
  -26.5810  -30.3740   25.9730 C   0  0  0  0  0  3  0  0  0  0  0  0
  -26.6610  -28.8160   23.9480 C   0  0  0  0  0  0  0  0  0  0  0  0
  -27.9700  -30.9360   23.8910 C   0  0  0  0  0  2  0  0  0  0  0  0
  -27.7620  -29.5020   23.4200 C   0  0  0  0  0  0  0  0  0  0  0  0
  -28.6300  -28.8460   22.4980 C   0  0  0  0  0  3  0  0  0  0  0  0
  -27.2700  -26.8460   22.6550 C   0  0  0  0  0  3  0  0  0  0  0  0
  -26.4090  -27.4940   23.5590 C   0  0  0  0  0  3  0  0  0  0  0  0
  -25.7760  -29.5490   24.9340 C   0  0  0  0  0  2  0  0  0  0  0  0
  -27.6860  -31.1600   25.3370 N   0  0  0  0  0  0  0  0  0  0  0  0
  -28.0350  -32.3230   27.2560 O   0  0  0  0  0  0  0  0  0  0  0  0
  -27.0670  -29.4300   27.0970 C   0  0  0  0  0  0  0  0  0  0  0  0
  -26.1960  -29.1670   28.0860 N   0  0  0  0  0  0  0  0  0  0  0  0
  -28.1930  -28.9280   27.0530 O   0  0  0  0  0  0  0  0  0  0  0  0
  -25.2960  -29.6260   28.0540 H   0  0  0  0  0  0  0  0  0  0  0  0
  -24.7550  -27.9370   31.1670 C   0  0  0  0  0  0  0  0  0  0  0  0
  -26.4230  -28.2710   29.2200 C   0  0  0  0  0  3  0  0  0  0  0  0
  -26.1160  -26.8040   28.8400 C   0  0  0  0  0  2  0  0  0  0  0  0
  -24.6800  -26.3830   29.1700 C   0  0  0  0  0  2  0  0  0  0  0  0
  -24.4040  -26.5450   30.6680 C   0  0  0  0  0  2  0  0  0  0  0  0
  -25.6910  -28.7540   30.4770 C   0  0  0  0  0  0  0  0  0  0  0  0
  -25.9560  -30.0510   30.9650 C   0  0  0  0  0  3  0  0  0  0  0  0
  -25.3080  -30.5340   32.1170 C   0  0  0  0  0  3  0  0  0  0  0  0
  -24.3950  -29.7170   32.8040 C   0  0  0  0  0  3  0  0  0  0  0  0
  -24.1230  -28.4200   32.3320 C   0  0  0  0  0  3  0  0  0  0  0  0
  -29.5230  -32.9300   25.4810 C   0  0  0  0  0  3  0  0  0  0  0  0
  -29.2840  -34.3380   25.8270 N   0  0  0  0  0  0  0  0  0  0  0  0
  -28.7560  -35.2470   24.9980 C   0  0  0  0  0  0  0  0  0  0  0  0
  -28.4760  -34.9960   23.8210 O   0  0  0  0  0  0  0  0  0  0  0  0
  -29.4310  -34.5970   26.7920 H   0  0  0  0  0  0  0  0  0  0  0  0
  -27.0120  -36.8050   25.9260 C   0  0  0  0  0  1  0  0  0  0  0  0
  -28.4980  -36.6570   25.5610 C   0  0  0  0  0  3  0  0  0  0  0  0
  -30.3370  -37.8480   24.4520 C   0  0  0  0  0  1  0  0  0  0  0  0
  -28.8920  -37.7430   24.6360 N   0  0  0  0  0  0  0  0  0  0  0  0
  -28.5510  -38.6410   24.9700 H   0  0  0  0  0  0  0  0  0  0  0  0
  -30.9410  -32.4640   25.9940 C   0  0  1  0  0  0  0  0  0  0  0  0
  -31.0340  -32.3330   27.5320 C   0  0  0  0  0  1  0  0  0  0  0  0
  -31.3200  -31.0930   25.3820 C   0  0  0  0  0  1  0  0  0  0  0  0
  -32.0230  -33.4700   25.5340 C   0  0  0  0  0  1  0  0  0  0  0  0
  -30.9180  -20.1620   23.0120 O   0  0  0  0  0  0  0  0  0  0  0  0
  -32.0080  -21.0240   23.3340 C   0  0  0  0  0  2  0  0  0  0  0  0
  -33.2570  -20.1640   23.6180 C   0  0  0  0  0  2  0  0  0  0  0  0
  -35.1510  -21.7400   23.2320 C   0  0  0  0  0  1  0  0  0  0  0  0
  -35.3810  -19.3730   22.6500 C   0  0  0  0  0  1  0  0  0  0  0  0
  -34.4450  -20.5150   22.7900 N   0  0  1  0  0  4  0  0  0  0  0  0
  -34.1030  -20.7060   21.8600 H   0  0  0  0  0  0  0  0  0  0  0  0
  1  2  2  0
  1  4  1  0
  2  5  1  0
  3  6  1  0
  4 15  1  0
  4  3  2  0
  5 45  1  0
  5  6  2  0
  6 91  1  0
  7 15  1  0
  8 13  1  0
  9 10  1  0
  9  8  1  0
 11 10  1  0
 11 20  1  0
 11 12  1  0
 13  7  1  0
 13 12  1  0
 14  7  2  0
 15 16  1  0
 17 18  2  0
 18 37  1  0
 19 22  1  0
 19 18  1  0
 20 21  1  0
 20 17  1  0
 21 19  2  0
 22 23  1  0
 23 24  2  0
 25 28  1  0
 25 24  1  0
 26 25  2  0
 27 26  1  0
 27 22  2  0
 28 29  1  0
 29 30  1  0
 30 31  2  0
 32 31  1  0
 32 36  1  0
 33 32  2  0
 34 29  2  0
 34 33  1  0
 35 34  1  0
 37 38  1  0
 38 41  1  0
 38 40  1  0
 39 37  2  0
 42 17  1  0
 42 43  1  0
 44 42  1  0
 46 45  1  0
 47 45  1  0
 47 48  1  0
 48 49  2  0
 49 50  1  0
 50 52  1  0
 51 62  2  0
 52 57  2  0
 52 58  1  0
 53 63  1  0
 54 60  1  0
 55 61  1  0
 56 55  1  0
 56 54  2  0
 57 56  1  0
 58 59  2  0
 59 54  1  0
 60 53  1  0
 61 53  1  0
 61 51  1  0
 63 64  1  0
 65 63  2  0
 66 64  1  0
 67 76  1  0
 68 64  1  0
 68 72  1  0
 69 70  1  0
 69 68  1  0
 70 71  1  0
 71 67  1  0
 72 73  1  0
 72 67  2  0
 73 74  2  0
 74 75  1  0
 76 75  2  0
 77 78  1  0
 77 87  1  0
 77 51  1  0
 78 81  1  0
 79 83  1  0
 79 78  1  0
 80 79  2  0
 83 82  1  0
 84 85  1  0
 85 86  1  0
 85 83  1  0
 87 88  1  1
 89 87  1  0
 90 87  1  0
 91 92  1  0
 92 93  1  0
 95 96  1  0
 96 94  1  0
 96 93  1  0
 96 97  1  6
M  ISO  4   7 100  15 100  49 101  50 101
M  END
>  <TORSDO>  (34) 
F 24

>  <SCORE>  (34) 
-6.568

>  <name>  (34) 
33

>  <ligand_id>  (34) 
33

>  <original_smiles>  (34) 
[H]c1c([H])c([H])c2c(c1[H])C([H])([H])C([H])([H])C([H])([H])C2([H])N([H])C(=O)C1([H])N(C(=O)C([H])(N([H])C(=O)C([H])(N([H])C([H])([H])[H])C([H])([H])[H])C(C([H])([H])[H])(C([H])([H])[H])C([H])([H])[H])C([H])([H])c2c([H])c(OC([H])([H])C([H])([H])C([H])([H])N([H])c3c([H])c([H])c(N([H])C(=O)N4C([H])([H])C([H])([H])C([H])([H])C([H])(n5nc(-c6c([H])c([H])c(Oc7c([H])c([H])c(F)c([H])c7F)c([H])c6[H])c(C(=O)N([H])[H])c5N([H])[H])C4([H])[H])c([H])c3OC([H])([H])C([H])([H])[N+]([H])(C([H])([H])[H])C([H])([H])[H])c([H])c([H])c2C1([H])[H]

>  <smiles>  (34) 
[H]c1c([H])c([H])c2c(c1[H])C([H])([H])C([H])([H])C([H])([H])C2([H])N([H])C(=O)C1([H])N(C(=O)C([H])(N([H])C(=O)C([H])(N([H])C([H])([H])[H])C([H])([H])[H])C(C([H])([H])[H])(C([H])([H])[H])C([H])([H])[H])C([H])([H])c2c([H])c(OC([H])([H])C([H])([H])C([H])([H])N([H])c3c([H])c([H])c(N([H])C(=O)N4C([H])([H])C([H])([H])C([H])([H])C([H])(n5nc(-c6c([H])c([H])c(Oc7c([H])c([H])c(F)c([H])c7F)c([H])c6[H])c(C(=O)N([H])[H])c5N([H])[H])C4([H])[H])c([H])c3OC([H])([H])C([H])([H])[N+]([H])(C([H])([H])[H])C([H])([H])[H])c([H])c([H])c2C1([H])[H]

$$$$
34:0:0
     RDKit          3D

 90 98  0  0  1  0  0  0  0  0999 V2000
  -28.2710  -19.5860   20.4890 C   0  0  0  0  0  3  0  0  0  0  0  0
  -30.3190  -20.0590   19.4470 C   0  0  0  0  0  3  0  0  0  0  0  0
  -28.5690  -18.1730   20.4990 C   0  0  0  0  0  0  0  0  0  0  0  0
  -30.6370  -18.6230   19.4270 C   0  0  0  0  0  0  0  0  0  0  0  0
  -29.7630  -17.5890   19.9480 C   0  0  0  0  0  0  0  0  0  0  0  0
  -29.1000  -20.6220   19.9660 C   0  0  0  0  0  0  0  0  0  0  0  0
  -27.5190  -17.2910   21.1620 C   0  0  0  0  0  1  0  0  0  0  0  0
  -31.9520  -18.2130   18.7940 C   0  0  0  0  0  1  0  0  0  0  0  0
  -30.6910  -14.9830   19.5000 C   0  0  0  0  0  0  0  0  0  0  0  0
  -30.4740  -12.6730   18.4830 C   0  0  0  0  0  2  0  0  0  0  0  0
  -29.3650  -12.6890   17.4030 C   0  0  0  0  0  2  0  0  0  0  0  0
  -27.9770  -12.4560   18.0310 C   0  0  0  0  0  2  0  0  0  0  0  0
  -27.7490  -13.3230   19.2960 C   0  0  0  0  0  3  0  0  0  0  0  0
  -28.9560  -13.2600   20.2570 C   0  0  0  0  0  2  0  0  0  0  0  0
  -30.1380  -13.7050   19.5010 N   0  0  0  0  0  0  0  0  0  0  0  0
  -31.8160  -15.1230   19.0060 O   0  0  0  0  0  0  0  0  0  0  0  0
  -29.8760  -16.0550   19.9330 N   0  0  0  0  0  0  0  0  0  0  0  0
  -29.0580  -15.6460   20.3560 H   0  0  0  0  0  0  0  0  0  0  0  0
  -25.5140  -13.8650   20.4270 C   0  0  0  0  0  0  0  0  0  0  0  0
  -24.5040  -13.0740   20.8990 C   0  0  0  0  0  0  0  0  0  0  0  0
  -24.9260  -11.7260   20.6830 C   0  0  0  0  0  0  0  0  0  0  0  0
  -26.4910  -13.0010   19.9630 N   0  0  0  0  0  0  0  0  0  0  0  0
  -26.1530  -11.7020   20.1750 N   0  0  0  0  0  0  0  0  0  0  0  0
  -24.2050  -10.4610   20.8720 C   0  0  0  0  0  0  0  0  0  0  0  0
  -24.6540   -9.4830   21.7870 C   0  0  0  0  0  3  0  0  0  0  0  0
  -23.9300   -8.2840   21.9660 C   0  0  0  0  0  3  0  0  0  0  0  0
  -22.7440   -8.0540   21.2300 C   0  0  0  0  0  0  0  0  0  0  0  0
  -22.3140   -9.0200   20.3030 C   0  0  0  0  0  3  0  0  0  0  0  0
  -23.0380  -10.2110   20.1220 C   0  0  0  0  0  3  0  0  0  0  0  0
  -21.9920   -6.9070   21.3190 O   0  0  0  0  0  0  0  0  0  0  0  0
  -21.8230   -6.2490   22.5120 C   0  0  0  0  0  0  0  0  0  0  0  0
  -21.2300   -6.8730   23.6310 C   0  0  0  0  0  3  0  0  0  0  0  0
  -21.0130   -6.1390   24.8130 C   0  0  0  0  0  3  0  0  0  0  0  0
  -21.3780   -4.7800   24.8770 C   0  0  0  0  0  0  0  0  0  0  0  0
  -21.9640   -4.1560   23.7620 C   0  0  0  0  0  3  0  0  0  0  0  0
  -22.1830   -4.8880   22.5820 C   0  0  0  0  0  0  0  0  0  0  0  0
  -22.7280   -4.2760   21.5040 F   0  0  0  0  0  0  0  0  0  0  0  0
  -21.1620   -4.0730   26.0100 F   0  0  0  0  0  0  0  0  0  0  0  0
  -23.1780  -13.5430   21.4220 C   0  0  0  0  0  0  0  0  0  0  0  0
  -22.5820  -12.7930   22.3430 N   0  0  0  0  0  0  0  0  0  0  0  0
  -22.6850  -14.6070   21.0500 O   0  0  0  0  0  0  0  0  0  0  0  0
  -22.9980  -11.9310   22.6640 H   0  0  0  0  0  0  0  0  0  0  0  0
  -21.6980  -13.0880   22.7350 H   0  0  0  0  0  0  0  0  0  0  0  0
  -25.6670  -15.2430   20.3240 N   0  0  0  0  0  0  0  0  0  0  0  0
  -24.8990  -15.8660   20.5480 H   0  0  0  0  0  0  0  0  0  0  0  0
  -26.3900  -15.6930   19.7790 H   0  0  0  0  0  0  0  0  0  0  0  0
  -28.5640  -21.9840   19.9810 O   0  0  0  0  0  0  0  0  0  0  0  0
  -29.1670  -23.3750   19.7680 C   0  0  0  0  0  3  0  0  0  0  0  0
  -28.1510  -24.7030   19.5720 C   0  0  0  0  0  3  0  0  0  0  0  0
  -28.4280  -26.2260   19.7140 O   0  0  0  0  0  0  0  0  0  0  0  0
  -24.6950  -31.6620   22.9960 C   0  0  0  0  0  0  0  0  0  0  0  0
  -27.3470  -27.1800   19.7080 C   0  0  0  0  0  0  0  0  0  0  0  0
  -23.5120  -30.3350   21.2890 C   0  0  0  0  0  3  0  0  0  0  0  0
  -24.9830  -28.8700   19.7780 C   0  0  0  0  0  0  0  0  0  0  0  0
  -26.0600  -30.6600   21.1300 C   0  0  0  0  0  2  0  0  0  0  0  0
  -26.1560  -29.3080   20.4040 C   0  0  0  0  0  0  0  0  0  0  0  0
  -27.3400  -28.4810   20.3530 C   0  0  0  0  0  3  0  0  0  0  0  0
  -26.1400  -26.8420   19.0520 C   0  0  0  0  0  3  0  0  0  0  0  0
  -24.9860  -27.6510   19.0880 C   0  0  0  0  0  3  0  0  0  0  0  0
  -23.7390  -29.7400   19.8750 C   0  0  0  0  0  2  0  0  0  0  0  0
  -24.7760  -30.9040   21.8600 N   0  0  0  0  0  0  0  0  0  0  0  0
  -23.6060  -31.8980   23.5430 O   0  0  0  0  0  0  0  0  0  0  0  0
  -22.8570  -29.2640   22.1960 C   0  0  0  0  0  0  0  0  0  0  0  0
  -21.5310  -29.0830   22.0720 N   0  0  0  0  0  0  0  0  0  0  0  0
  -23.5440  -28.6010   22.9770 O   0  0  0  0  0  0  0  0  0  0  0  0
  -21.0310  -29.6730   21.4220 H   0  0  0  0  0  0  0  0  0  0  0  0
  -18.1600  -27.8610   22.5880 C   0  0  0  0  0  0  0  0  0  0  0  0
  -20.7270  -28.0940   22.7970 C   0  0  0  0  0  3  0  0  0  0  0  0
  -20.8020  -26.7070   22.1160 C   0  0  0  0  0  2  0  0  0  0  0  0
  -19.6690  -26.4640   21.1140 C   0  0  0  0  0  2  0  0  0  0  0  0
  -18.3080  -26.5650   21.8090 C   0  0  0  0  0  2  0  0  0  0  0  0
  -19.2940  -28.5860   23.0390 C   0  0  0  0  0  0  0  0  0  0  0  0
  -19.0990  -29.8010   23.7310 C   0  0  0  0  0  3  0  0  0  0  0  0
  -17.8020  -30.2910   23.9750 C   0  0  0  0  0  3  0  0  0  0  0  0
  -16.6820  -29.5610   23.5380 C   0  0  0  0  0  3  0  0  0  0  0  0
  -16.8620  -28.3480   22.8510 C   0  0  0  0  0  3  0  0  0  0  0  0
  -25.9640  -32.2860   23.6510 C   0  0  0  0  0  3  0  0  0  0  0  0
  -26.4940  -31.4590   24.8870 C   0  0  1  0  0  0  0  0  0  0  0  0
  -25.4010  -31.1250   25.9290 C   0  0  0  0  0  1  0  0  0  0  0  0
  -27.1250  -30.1240   24.4260 C   0  0  0  0  0  1  0  0  0  0  0  0
  -27.6130  -32.2480   25.6050 C   0  0  0  0  0  1  0  0  0  0  0  0
  -25.6270  -33.6590   24.0610 N   0  0  0  0  0  0  0  0  0  0  0  0
  -25.9080  -34.7590   23.3500 C   0  0  0  0  0  0  0  0  0  0  0  0
  -26.5450  -34.7250   22.2930 O   0  0  0  0  0  0  0  0  0  0  0  0
  -25.0560  -33.7550   24.8870 H   0  0  0  0  0  0  0  0  0  0  0  0
  -24.1150  -36.5150   23.1640 C   0  0  0  0  0  1  0  0  0  0  0  0
  -25.4050  -36.1090   23.8960 C   0  0  0  0  0  3  0  0  0  0  0  0
  -27.5420  -37.0300   24.6790 C   0  0  0  0  0  1  0  0  0  0  0  0
  -26.4000  -37.1990   23.7850 N   0  0  0  0  0  0  0  0  0  0  0  0
  -25.9730  -38.0990   23.9830 H   0  0  0  0  0  0  0  0  0  0  0  0
  1  3  1  0
  2  6  1  0
  3  7  1  0
  4  2  2  0
  4  5  1  0
  5  3  2  0
  6 47  1  0
  6  1  2  0
  8  4  1  0
  9 15  1  0
  9 17  1  0
 10 15  1  0
 11 12  1  0
 11 10  1  0
 13 12  1  0
 13 22  1  0
 13 14  1  0
 15 14  1  0
 16  9  2  0
 17  5  1  0
 17 18  1  0
 19 20  2  0
 20 39  1  0
 21 24  1  0
 21 20  1  0
 22 23  1  0
 22 19  1  0
 23 21  2  0
 24 25  1  0
 25 26  2  0
 27 30  1  0
 27 26  1  0
 28 27  2  0
 29 28  1  0
 29 24  2  0
 30 31  1  0
 31 36  2  0
 31 32  1  0
 32 33  2  0
 33 34  1  0
 34 38  1  0
 35 34  2  0
 36 35  1  0
 37 36  1  0
 39 40  1  0
 40 42  1  0
 40 43  1  0
 41 39  2  0
 44 19  1  0
 44 45  1  0
 46 44  1  0
 48 47  1  0
 49 50  1  0
 49 48  2  0
 51 62  2  0
 52 50  1  0
 52 57  1  0
 53 61  1  0
 53 63  1  0
 54 60  1  0
 54 56  1  0
 55 61  1  0
 56 55  1  0
 57 56  2  0
 58 59  1  0
 58 52  2  0
 59 54  2  0
 60 53  1  0
 61 51  1  0
 63 65  2  0
 64 63  1  0
 66 64  1  0
 67 76  2  0
 67 72  1  0
 68 64  1  0
 68 72  1  0
 69 68  1  0
 70 71  1  0
 70 69  1  0
 71 67  1  0
 72 73  2  0
 73 74  1  0
 75 74  2  0
 76 75  1  0
 77 51  1  0
 77 82  1  0
 77 78  1  0
 78 81  1  1
 78 79  1  0
 80 78  1  0
 82 85  1  0
 83 87  1  0
 83 82  1  0
 84 83  2  0
 87 86  1  0
 89 87  1  0
 89 90  1  0
 89 88  1  0
M  ISO  4   9 100  17 100  49 101  50 101
M  END
>  <TORSDO>  (35) 
F 19

>  <SCORE>  (35) 
-11.565

>  <name>  (35) 
34

>  <ligand_id>  (35) 
34

>  <original_smiles>  (35) 
[H]c1c([H])c([H])c2c(c1[H])C([H])([H])C([H])([H])C([H])([H])C2([H])N([H])C(=O)C1([H])N(C(=O)C([H])(N([H])C(=O)C([H])(N([H])C([H])([H])[H])C([H])([H])[H])C(C([H])([H])[H])(C([H])([H])[H])C([H])([H])[H])C([H])([H])c2c([H])c(OC([H])([H])C([H])([H])Oc3c([H])c(C([H])([H])[H])c(N([H])C(=O)N4C([H])([H])C([H])([H])C([H])([H])C([H])(n5nc(-c6c([H])c([H])c(Oc7c([H])c([H])c(F)c([H])c7F)c([H])c6[H])c(C(=O)N([H])[H])c5N([H])[H])C4([H])[H])c(C([H])([H])[H])c3[H])c([H])c([H])c2C1([H])[H]

>  <smiles>  (35) 
[H]c1c([H])c([H])c2c(c1[H])C([H])([H])C([H])([H])C([H])([H])C2([H])N([H])C(=O)C1([H])N(C(=O)C([H])(N([H])C(=O)C([H])(N([H])C([H])([H])[H])C([H])([H])[H])C(C([H])([H])[H])(C([H])([H])[H])C([H])([H])[H])C([H])([H])c2c([H])c(OC([H])([H])C([H])([H])Oc3c([H])c(C([H])([H])[H])c(N([H])C(=O)N4C([H])([H])C([H])([H])C([H])([H])C([H])(n5nc(-c6c([H])c([H])c(Oc7c([H])c([H])c(F)c([H])c7F)c([H])c6[H])c(C(=O)N([H])[H])c5N([H])[H])C4([H])[H])c(C([H])([H])[H])c3[H])c([H])c([H])c2C1([H])[H]

$$$$
35:0:0
     RDKit          3D

 96104  0  0  1  0  0  0  0  0999 V2000
  -29.6910  -21.8900   20.6570 C   0  0  0  0  0  0  0  0  0  0  0  0
  -29.0760  -20.7470   20.2100 N   0  0  0  0  0  0  0  0  0  0  0  0
  -30.7380  -21.8920   21.3100 O   0  0  0  0  0  0  0  0  0  0  0  0
  -30.7710  -17.4870   19.3080 C   0  0  0  0  0  3  0  0  0  0  0  0
  -29.5310  -18.7100   21.5030 C   0  0  0  0  0  3  0  0  0  0  0  0
  -30.3120  -18.8180   19.1930 C   0  0  0  0  0  0  0  0  0  0  0  0
  -29.9520  -17.3660   21.5980 C   0  0  0  0  0  0  0  0  0  0  0  0
  -30.5740  -16.7390   20.4940 C   0  0  0  0  0  0  0  0  0  0  0  0
  -29.6830  -19.4490   20.3040 C   0  0  0  0  0  0  0  0  0  0  0  0
  -30.4560  -19.4980   17.8390 C   0  0  0  0  0  1  0  0  0  0  0  0
  -29.7000  -16.5930   22.8860 C   0  0  0  0  0  1  0  0  0  0  0  0
  -31.3070  -14.5060   19.6480 C   0  0  0  0  0  0  0  0  0  0  0  0
  -30.8980  -12.3220   18.5730 C   0  0  0  0  0  2  0  0  0  0  0  0
  -29.8130  -12.4720   17.4850 C   0  0  0  0  0  2  0  0  0  0  0  0
  -28.4000  -12.3490   18.0870 C   0  0  0  0  0  2  0  0  0  0  0  0
  -28.2070  -13.2310   19.3470 C   0  0  0  0  0  3  0  0  0  0  0  0
  -29.3820  -13.0330   20.3320 C   0  0  0  0  0  2  0  0  0  0  0  0
  -30.6470  -13.3190   19.6260 N   0  0  0  0  0  0  0  0  0  0  0  0
  -32.2480  -14.7770   18.8940 O   0  0  0  0  0  0  0  0  0  0  0  0
  -30.8890  -15.3520   20.6040 N   0  0  0  0  0  0  0  0  0  0  0  0
  -30.4060  -14.8830   21.3560 H   0  0  0  0  0  0  0  0  0  0  0  0
  -25.9540  -13.8680   20.4210 C   0  0  0  0  0  0  0  0  0  0  0  0
  -24.9120  -13.1090   20.8840 C   0  0  0  0  0  0  0  0  0  0  0  0
  -25.3010  -11.7480   20.6890 C   0  0  0  0  0  0  0  0  0  0  0  0
  -26.9160  -12.9710   19.9840 N   0  0  0  0  0  0  0  0  0  0  0  0
  -26.5320  -11.6850   20.1980 N   0  0  0  0  0  0  0  0  0  0  0  0
  -24.5470  -10.5020   20.8880 C   0  0  0  0  0  0  0  0  0  0  0  0
  -24.9760   -9.5180   21.8040 C   0  0  0  0  0  3  0  0  0  0  0  0
  -24.2280   -8.3360   21.9910 C   0  0  0  0  0  3  0  0  0  0  0  0
  -23.0330   -8.1320   21.2610 C   0  0  0  0  0  0  0  0  0  0  0  0
  -22.6220   -9.1030   20.3330 C   0  0  0  0  0  3  0  0  0  0  0  0
  -23.3710  -10.2770   20.1440 C   0  0  0  0  0  3  0  0  0  0  0  0
  -22.2520   -7.0060   21.3580 O   0  0  0  0  0  0  0  0  0  0  0  0
  -22.0720   -6.3580   22.5530 C   0  0  0  0  0  0  0  0  0  0  0  0
  -21.5580   -7.0190   23.6910 C   0  0  0  0  0  3  0  0  0  0  0  0
  -21.3220   -6.2980   24.8780 C   0  0  0  0  0  3  0  0  0  0  0  0
  -21.5910   -4.9170   24.9270 C   0  0  0  0  0  0  0  0  0  0  0  0
  -22.0970   -4.2550   23.7940 C   0  0  0  0  0  3  0  0  0  0  0  0
  -22.3340   -4.9740   22.6110 C   0  0  0  0  0  0  0  0  0  0  0  0
  -22.8020   -4.3300   21.5150 F   0  0  0  0  0  0  0  0  0  0  0  0
  -21.3550   -4.2220   26.0640 F   0  0  0  0  0  0  0  0  0  0  0  0
  -23.5930  -13.6150   21.3890 C   0  0  0  0  0  0  0  0  0  0  0  0
  -22.9760  -12.8970   22.3240 N   0  0  0  0  0  0  0  0  0  0  0  0
  -23.1200  -14.6790   20.9960 O   0  0  0  0  0  0  0  0  0  0  0  0
  -23.3680  -12.0340   22.6660 H   0  0  0  0  0  0  0  0  0  0  0  0
  -22.0980  -13.2260   22.6960 H   0  0  0  0  0  0  0  0  0  0  0  0
  -26.1530  -15.2410   20.3180 N   0  0  0  0  0  0  0  0  0  0  0  0
  -25.4340  -15.9130   20.5640 H   0  0  0  0  0  0  0  0  0  0  0  0
  -26.9840  -15.6770   19.9360 H   0  0  0  0  0  0  0  0  0  0  0  0
  -29.0420  -23.2330   20.2870 C   0  0  0  0  0  2  0  0  0  0  0  0
  -29.7250  -24.5870   20.5960 C   0  0  0  0  0  2  0  0  0  0  0  0
  -28.9330  -25.6160   19.7690 C   0  0  0  0  0  2  0  0  0  0  0  0
  -28.9790  -26.9840   20.1600 O   0  0  0  0  0  0  0  0  0  0  0  0
  -24.7740  -31.7330   23.2970 C   0  0  0  0  0  0  0  0  0  0  0  0
  -27.7640  -27.6440   20.0890 C   0  0  0  0  0  0  0  0  0  0  0  0
  -23.6950  -30.3620   21.5450 C   0  0  0  0  0  3  0  0  0  0  0  0
  -25.2750  -28.9910   20.0910 C   0  0  0  0  0  0  0  0  0  0  0  0
  -26.1980  -30.8800   21.4450 C   0  0  0  0  0  2  0  0  0  0  0  0
  -26.3800  -29.5490   20.7450 C   0  0  0  0  0  0  0  0  0  0  0  0
  -27.6240  -28.8840   20.7450 C   0  0  0  0  0  3  0  0  0  0  0  0
  -26.6440  -27.1160   19.3950 C   0  0  0  0  0  3  0  0  0  0  0  0
  -25.4010  -27.7700   19.4090 C   0  0  0  0  0  3  0  0  0  0  0  0
  -23.9810  -29.7710   20.1380 C   0  0  0  0  0  2  0  0  0  0  0  0
  -24.9040  -31.0040   22.1550 N   0  0  0  0  0  0  0  0  0  0  0  0
  -23.6640  -31.9200   23.8150 O   0  0  0  0  0  0  0  0  0  0  0  0
  -23.0700  -29.2560   22.4270 C   0  0  0  0  0  0  0  0  0  0  0  0
  -21.7620  -29.0130   22.2400 N   0  0  0  0  0  0  0  0  0  0  0  0
  -23.7580  -28.6220   23.2330 O   0  0  0  0  0  0  0  0  0  0  0  0
  -21.2670  -29.5780   21.5650 H   0  0  0  0  0  0  0  0  0  0  0  0
  -18.4340  -27.6390   22.5660 C   0  0  0  0  0  0  0  0  0  0  0  0
  -20.9680  -27.9960   22.9320 C   0  0  0  0  0  3  0  0  0  0  0  0
  -21.1550  -26.6040   22.2830 C   0  0  0  0  0  2  0  0  0  0  0  0
  -20.0940  -26.2890   21.2220 C   0  0  0  0  0  2  0  0  0  0  0  0
  -18.6890  -26.3390   21.8270 C   0  0  0  0  0  2  0  0  0  0  0  0
  -19.5020  -28.4240   23.0750 C   0  0  0  0  0  0  0  0  0  0  0  0
  -19.2070  -29.6440   23.7200 C   0  0  0  0  0  3  0  0  0  0  0  0
  -17.8750  -30.0750   23.8730 C   0  0  0  0  0  3  0  0  0  0  0  0
  -16.8210  -29.2850   23.3790 C   0  0  0  0  0  3  0  0  0  0  0  0
  -17.1010  -28.0700   22.7300 C   0  0  0  0  0  3  0  0  0  0  0  0
  -26.0060  -32.3880   23.9980 C   0  0  0  0  0  3  0  0  0  0  0  0
  -25.6570  -33.7830   24.3020 N   0  0  0  0  0  0  0  0  0  0  0  0
  -25.9930  -34.8290   23.5360 C   0  0  0  0  0  0  0  0  0  0  0  0
  -26.7050  -34.7250   22.5330 O   0  0  0  0  0  0  0  0  0  0  0  0
  -25.0400  -33.9450   25.0850 H   0  0  0  0  0  0  0  0  0  0  0  0
  -24.2240  -36.5570   23.1020 C   0  0  0  0  0  1  0  0  0  0  0  0
  -25.4550  -36.2110   23.9520 C   0  0  0  0  0  3  0  0  0  0  0  0
  -27.5410  -37.1660   24.8170 C   0  0  0  0  0  1  0  0  0  0  0  0
  -26.4590  -37.2900   23.8450 N   0  0  0  0  0  0  0  0  0  0  0  0
  -26.0250  -38.2000   23.9670 H   0  0  0  0  0  0  0  0  0  0  0  0
  -26.4640  -31.6210   25.3000 C   0  0  1  0  0  0  0  0  0  0  0  0
  -25.3120  -31.3470   26.2940 C   0  0  0  0  0  1  0  0  0  0  0  0
  -27.1060  -30.2620   24.9340 C   0  0  0  0  0  1  0  0  0  0  0  0
  -27.5490  -32.4410   26.0330 C   0  0  0  0  0  1  0  0  0  0  0  0
  -27.7080  -20.7520   19.6430 C   0  0  0  0  0  2  0  0  0  0  0  0
  -26.3920  -20.6740   17.4590 C   0  0  0  0  0  1  0  0  0  0  0  0
  -27.6610  -21.1700   18.1580 C   0  0  0  0  0  2  0  0  0  0  0  0
  1  3  2  0
  2  9  1  0
  2  1  1  0
  4  8  1  0
  5  7  1  0
  6  4  2  0
  6  9  1  0
  7 11  1  0
  8 20  1  0
  8  7  2  0
  9  5  2  0
 10  6  1  0
 12 20  1  0
 13 18  1  0
 14 15  1  0
 14 13  1  0
 16 15  1  0
 16 25  1  0
 16 17  1  0
 18 12  1  0
 18 17  1  0
 19 12  2  0
 20 21  1  0
 22 23  2  0
 23 42  1  0
 24 23  1  0
 24 27  1  0
 25 26  1  0
 25 22  1  0
 26 24  2  0
 27 28  1  0
 28 29  2  0
 30 33  1  0
 30 29  1  0
 31 30  2  0
 32 31  1  0
 32 27  2  0
 33 34  1  0
 34 39  2  0
 34 35  1  0
 35 36  2  0
 36 37  1  0
 37 41  1  0
 38 37  2  0
 39 38  1  0
 40 39  1  0
 42 43  1  0
 43 45  1  0
 43 46  1  0
 44 42  2  0
 47 22  1  0
 47 48  1  0
 49 47  1  0
 50 51  1  0
 50  1  1  0
 52 53  1  0
 52 51  1  0
 54 65  2  0
 55 53  1  0
 55 60  1  0
 56 64  1  0
 56 66  1  0
 57 63  1  0
 57 59  1  0
 58 64  1  0
 59 58  1  0
 60 59  2  0
 61 62  1  0
 61 55  2  0
 62 57  2  0
 63 56  1  0
 64 54  1  0
 66 68  2  0
 67 66  1  0
 69 67  1  0
 70 79  2  0
 70 75  1  0
 71 67  1  0
 71 75  1  0
 72 71  1  0
 73 74  1  0
 73 72  1  0
 74 70  1  0
 75 76  2  0
 76 77  1  0
 78 77  2  0
 79 78  1  0
 80 54  1  0
 80 81  1  0
 80 90  1  0
 81 84  1  0
 82 86  1  0
 82 81  1  0
 83 82  2  0
 86 85  1  0
 88 86  1  0
 88 89  1  0
 88 87  1  0
 90 93  1  1
 90 91  1  0
 92 90  1  0
 94  2  1  0
 95 96  1  0
 96 94  1  0
M  ISO  4  12 100  20 100  52 101  53 101
M  END
>  <TORSDO>  (36) 
F 22

>  <SCORE>  (36) 
-9.976

>  <name>  (36) 
35

>  <ligand_id>  (36) 
35

>  <original_smiles>  (36) 
[H]c1c([H])c([H])c2c(c1[H])C([H])([H])C([H])([H])C([H])([H])C2([H])N([H])C(=O)C1([H])N(C(=O)C([H])(N([H])C(=O)C([H])(N([H])C([H])([H])[H])C([H])([H])[H])C(C([H])([H])[H])(C([H])([H])[H])C([H])([H])[H])C([H])([H])c2c([H])c(OC([H])([H])C([H])([H])C([H])([H])C(=O)N(c3c([H])c(C([H])([H])[H])c(N([H])C(=O)N4C([H])([H])C([H])([H])C([H])([H])C([H])(n5nc(-c6c([H])c([H])c(Oc7c([H])c([H])c(F)c([H])c7F)c([H])c6[H])c(C(=O)N([H])[H])c5N([H])[H])C4([H])[H])c([H])c3C([H])([H])[H])C([H])([H])C([H])([H])C([H])([H])[H])c([H])c([H])c2C1([H])[H]

>  <smiles>  (36) 
[H]c1c([H])c([H])c2c(c1[H])C([H])([H])C([H])([H])C([H])([H])C2([H])N([H])C(=O)C1([H])N(C(=O)C([H])(N([H])C(=O)C([H])(N([H])C([H])([H])[H])C([H])([H])[H])C(C([H])([H])[H])(C([H])([H])[H])C([H])([H])[H])C([H])([H])c2c([H])c(OC([H])([H])C([H])([H])C([H])([H])C(=O)N(c3c([H])c(C([H])([H])[H])c(N([H])C(=O)N4C([H])([H])C([H])([H])C([H])([H])C([H])(n5nc(-c6c([H])c([H])c(Oc7c([H])c([H])c(F)c([H])c7F)c([H])c6[H])c(C(=O)N([H])[H])c5N([H])[H])C4([H])[H])c([H])c3C([H])([H])[H])C([H])([H])C([H])([H])C([H])([H])[H])c([H])c([H])c2C1([H])[H]

$$$$
36:0:0
     RDKit          3D

 93101  0  0  1  0  0  0  0  0999 V2000
  -30.2520  -21.7050   20.2370 C   0  0  0  0  0  0  0  0  0  0  0  0
  -29.2330  -22.6190   20.2040 N   0  0  0  0  0  0  0  0  0  0  0  0
  -31.4130  -22.1230   20.2620 O   0  0  0  0  0  0  0  0  0  0  0  0
  -28.2910  -22.2510   20.1710 H   0  0  0  0  0  0  0  0  0  0  0  0
  -31.0910  -19.3560   20.8450 C   0  0  0  0  0  3  0  0  0  0  0  0
  -31.0370  -17.9360   20.9130 C   0  0  0  0  0  3  0  0  0  0  0  0
  -28.8500  -18.0200   19.9240 C   0  0  0  0  0  3  0  0  0  0  0  0
  -30.0450  -20.1670   20.3100 C   0  0  0  0  0  0  0  0  0  0  0  0
  -29.9060  -17.2200   20.4550 C   0  0  0  0  0  0  0  0  0  0  0  0
  -28.9050  -19.4600   19.8260 C   0  0  0  0  0  0  0  0  0  0  0  0
  -30.5780  -14.7030   20.2810 C   0  0  0  0  0  0  0  0  0  0  0  0
  -30.3310  -12.4770   19.2020 C   0  0  0  0  0  2  0  0  0  0  0  0
  -29.3500  -12.6330   18.0190 C   0  0  0  0  0  2  0  0  0  0  0  0
  -27.8890  -12.4780   18.4900 C   0  0  0  0  0  2  0  0  0  0  0  0
  -27.5760  -13.3230   19.7540 C   0  0  0  0  0  3  0  0  0  0  0  0
  -28.6680  -13.1430   20.8330 C   0  0  0  0  0  2  0  0  0  0  0  0
  -29.9590  -13.4820   20.2160 N   0  0  0  0  0  0  0  0  0  0  0  0
  -31.7470  -14.8480   19.9100 O   0  0  0  0  0  0  0  0  0  0  0  0
  -29.7500  -15.7630   20.5560 N   0  0  0  0  0  0  0  0  0  0  0  0
  -28.8100  -15.4590   20.7510 H   0  0  0  0  0  0  0  0  0  0  0  0
  -25.2140  -13.9390   20.5570 C   0  0  0  0  0  0  0  0  0  0  0  0
  -24.1490  -13.1720   20.9440 C   0  0  0  0  0  0  0  0  0  0  0  0
  -24.5930  -11.8160   20.8740 C   0  0  0  0  0  0  0  0  0  0  0  0
  -26.2390  -13.0500   20.2740 N   0  0  0  0  0  0  0  0  0  0  0  0
  -25.8740  -11.7660   20.5250 N   0  0  0  0  0  0  0  0  0  0  0  0
  -23.8570  -10.5590   21.0600 C   0  0  0  0  0  0  0  0  0  0  0  0
  -24.2970   -9.5720   21.9700 C   0  0  0  0  0  3  0  0  0  0  0  0
  -23.5600   -8.3810   22.1440 C   0  0  0  0  0  3  0  0  0  0  0  0
  -22.3710   -8.1680   21.4070 C   0  0  0  0  0  0  0  0  0  0  0  0
  -21.9510   -9.1430   20.4850 C   0  0  0  0  0  3  0  0  0  0  0  0
  -22.6880  -10.3260   20.3090 C   0  0  0  0  0  3  0  0  0  0  0  0
  -21.6050   -7.0310   21.4920 O   0  0  0  0  0  0  0  0  0  0  0  0
  -21.5490   -6.2840   22.6410 C   0  0  0  0  0  0  0  0  0  0  0  0
  -21.0780   -6.8250   23.8590 C   0  0  0  0  0  3  0  0  0  0  0  0
  -20.9730   -6.0040   24.9990 C   0  0  0  0  0  3  0  0  0  0  0  0
  -21.3270   -4.6440   24.9240 C   0  0  0  0  0  0  0  0  0  0  0  0
  -21.7920   -4.1020   23.7120 C   0  0  0  0  0  3  0  0  0  0  0  0
  -21.8990   -4.9200   22.5730 C   0  0  0  0  0  0  0  0  0  0  0  0
  -22.3260   -4.3890   21.4020 F   0  0  0  0  0  0  0  0  0  0  0  0
  -21.2200   -3.8530   26.0170 F   0  0  0  0  0  0  0  0  0  0  0  0
  -22.7670  -13.6620   21.2640 C   0  0  0  0  0  0  0  0  0  0  0  0
  -22.0570  -12.9620   22.1420 N   0  0  0  0  0  0  0  0  0  0  0  0
  -22.3250  -14.6990   20.7720 O   0  0  0  0  0  0  0  0  0  0  0  0
  -22.4280  -12.1220   22.5610 H   0  0  0  0  0  0  0  0  0  0  0  0
  -21.1300  -13.2720   22.4010 H   0  0  0  0  0  0  0  0  0  0  0  0
  -25.3880  -15.3110   20.3950 N   0  0  0  0  0  0  0  0  0  0  0  0
  -24.6180  -15.9600   20.5200 H   0  0  0  0  0  0  0  0  0  0  0  0
  -26.2020  -15.7380   19.9780 H   0  0  0  0  0  0  0  0  0  0  0  0
  -26.8880  -19.5610   18.4990 C   0  0  0  0  0  1  0  0  0  0  0  0
  -27.8860  -20.2130   19.2740 O   0  0  0  0  0  0  0  0  0  0  0  0
  -29.4220  -24.1190   20.3080 C   0  0  0  0  0  3  0  0  0  0  0  0
  -28.2180  -25.0780   19.9300 C   0  0  0  0  0  3  0  0  0  0  0  0
  -28.3880  -26.5330   20.1670 O   0  0  0  0  0  0  0  0  0  0  0  0
  -24.5680  -31.8320   23.2380 C   0  0  0  0  0  0  0  0  0  0  0  0
  -27.2550  -27.3610   20.1220 C   0  0  0  0  0  0  0  0  0  0  0  0
  -23.3980  -30.4660   21.5470 C   0  0  0  0  0  3  0  0  0  0  0  0
  -24.8780  -28.9550   20.1130 C   0  0  0  0  0  0  0  0  0  0  0  0
  -25.9380  -30.8010   21.4130 C   0  0  0  0  0  2  0  0  0  0  0  0
  -26.0350  -29.4390   20.7360 C   0  0  0  0  0  0  0  0  0  0  0  0
  -27.2260  -28.6540   20.7290 C   0  0  0  0  0  3  0  0  0  0  0  0
  -26.0720  -26.9270   19.4790 C   0  0  0  0  0  3  0  0  0  0  0  0
  -24.8980  -27.7040   19.4770 C   0  0  0  0  0  3  0  0  0  0  0  0
  -23.6370  -29.8220   20.1570 C   0  0  0  0  0  2  0  0  0  0  0  0
  -24.6520  -31.0490   22.1230 N   0  0  0  0  0  0  0  0  0  0  0  0
  -23.4740  -32.0940   23.7600 O   0  0  0  0  0  0  0  0  0  0  0  0
  -22.7240  -29.4250   22.4730 C   0  0  0  0  0  0  0  0  0  0  0  0
  -21.3970  -29.2660   22.3370 N   0  0  0  0  0  0  0  0  0  0  0  0
  -23.3940  -28.7660   23.2720 O   0  0  0  0  0  0  0  0  0  0  0  0
  -20.9170  -29.8520   21.6680 H   0  0  0  0  0  0  0  0  0  0  0  0
  -17.9960  -28.1330   22.8320 C   0  0  0  0  0  0  0  0  0  0  0  0
  -20.5640  -28.3140   23.0740 C   0  0  0  0  0  3  0  0  0  0  0  0
  -20.6200  -26.9090   22.4290 C   0  0  0  0  0  2  0  0  0  0  0  0
  -19.4950  -26.6630   21.4190 C   0  0  0  0  0  2  0  0  0  0  0  0
  -18.1260  -26.8140   22.0900 C   0  0  0  0  0  2  0  0  0  0  0  0
  -19.1410  -28.8450   23.2800 C   0  0  0  0  0  0  0  0  0  0  0  0
  -18.9630  -30.0840   23.9320 C   0  0  0  0  0  3  0  0  0  0  0  0
  -17.6740  -30.6100   24.1430 C   0  0  0  0  0  3  0  0  0  0  0  0
  -16.5460  -29.8930   23.7100 C   0  0  0  0  0  3  0  0  0  0  0  0
  -16.7070  -28.6570   23.0600 C   0  0  0  0  0  3  0  0  0  0  0  0
  -25.8370  -32.4540   23.8970 C   0  0  0  0  0  3  0  0  0  0  0  0
  -26.3020  -31.6870   25.1950 C   0  0  1  0  0  0  0  0  0  0  0  0
  -25.1700  -31.4630   26.2240 C   0  0  0  0  0  1  0  0  0  0  0  0
  -26.8900  -30.3030   24.8320 C   0  0  0  0  0  1  0  0  0  0  0  0
  -27.4320  -32.4790   25.8930 C   0  0  0  0  0  1  0  0  0  0  0  0
  -25.5330  -33.8580   24.2070 N   0  0  0  0  0  0  0  0  0  0  0  0
  -25.8800  -34.9000   23.4420 C   0  0  0  0  0  0  0  0  0  0  0  0
  -26.5600  -34.7820   22.4180 O   0  0  0  0  0  0  0  0  0  0  0  0
  -24.9290  -34.0250   25.0000 H   0  0  0  0  0  0  0  0  0  0  0  0
  -24.1670  -36.7010   23.0520 C   0  0  0  0  0  1  0  0  0  0  0  0
  -25.3970  -36.2970   23.8800 C   0  0  0  0  0  3  0  0  0  0  0  0
  -27.5220  -37.1870   24.7310 C   0  0  0  0  0  1  0  0  0  0  0  0
  -26.4380  -37.3430   23.7650 N   0  0  0  0  0  0  0  0  0  0  0  0
  -26.0340  -38.2670   23.8870 H   0  0  0  0  0  0  0  0  0  0  0  0
  1  3  2  0
  1  8  1  0
  2  1  1  0
  2 51  1  0
  4  2  1  0
  5  6  1  0
  7  9  1  0
  8  5  2  0
  9 19  1  0
  9  6  2  0
 10  7  2  0
 10  8  1  0
 11 19  1  0
 12 17  1  0
 13 14  1  0
 13 12  1  0
 15 14  1  0
 15 24  1  0
 15 16  1  0
 17 11  1  0
 17 16  1  0
 18 11  2  0
 19 20  1  0
 21 22  2  0
 22 41  1  0
 23 22  1  0
 23 26  1  0
 24 25  1  0
 24 21  1  0
 25 23  2  0
 26 27  1  0
 27 28  2  0
 29 32  1  0
 29 28  1  0
 30 29  2  0
 31 30  1  0
 31 26  2  0
 32 33  1  0
 33 34  1  0
 34 35  2  0
 36 35  1  0
 36 40  1  0
 37 36  2  0
 38 33  2  0
 38 37  1  0
 39 38  1  0
 41 42  1  0
 42 45  1  0
 42 44  1  0
 43 41  2  0
 46 47  1  0
 46 21  1  0
 48 46  1  0
 49 50  1  0
 50 10  1  0
 52 53  1  0
 52 51  2  0
 54 65  2  0
 55 53  1  0
 55 60  1  0
 56 64  1  0
 56 66  1  0
 57 63  1  0
 57 59  1  0
 58 64  1  0
 59 58  1  0
 60 59  2  0
 61 55  2  0
 62 61  1  0
 62 57  2  0
 63 56  1  0
 64 54  1  0
 66 68  2  0
 67 66  1  0
 69 67  1  0
 70 79  2  0
 70 75  1  0
 71 67  1  0
 71 75  1  0
 72 71  1  0
 73 74  1  0
 73 72  1  0
 74 70  1  0
 75 76  2  0
 76 77  1  0
 78 77  2  0
 79 78  1  0
 80 54  1  0
 80 85  1  0
 80 81  1  0
 81 84  1  1
 81 82  1  0
 83 81  1  0
 85 88  1  0
 86 90  1  0
 86 85  1  0
 87 86  2  0
 90 89  1  0
 92 90  1  0
 92 93  1  0
 92 91  1  0
M  ISO  4  11 100  19 100  52 101  53 101
M  END
>  <TORSDO>  (37) 
F 20

>  <SCORE>  (37) 
-14.027

>  <name>  (37) 
36

>  <ligand_id>  (37) 
36

>  <original_smiles>  (37) 
[H]c1c([H])c([H])c2c(c1[H])C([H])([H])C([H])([H])C([H])([H])C2([H])N([H])C(=O)C1([H])N(C(=O)C([H])(N([H])C(=O)C([H])(N([H])C([H])([H])[H])C([H])([H])[H])C(C([H])([H])[H])(C([H])([H])[H])C([H])([H])[H])C([H])([H])c2c([H])c(OC([H])([H])C([H])([H])N([H])C(=O)c3c([H])c([H])c(N([H])C(=O)N4C([H])([H])C([H])([H])C([H])([H])C([H])(n5nc(-c6c([H])c([H])c(Oc7c([H])c([H])c(F)c([H])c7F)c([H])c6[H])c(C(=O)N([H])[H])c5N([H])[H])C4([H])[H])c([H])c3OC([H])([H])[H])c([H])c([H])c2C1([H])[H]

>  <smiles>  (37) 
[H]c1c([H])c([H])c2c(c1[H])C([H])([H])C([H])([H])C([H])([H])C2([H])N([H])C(=O)C1([H])N(C(=O)C([H])(N([H])C(=O)C([H])(N([H])C([H])([H])[H])C([H])([H])[H])C(C([H])([H])[H])(C([H])([H])[H])C([H])([H])[H])C([H])([H])c2c([H])c(OC([H])([H])C([H])([H])N([H])C(=O)c3c([H])c([H])c(N([H])C(=O)N4C([H])([H])C([H])([H])C([H])([H])C([H])(n5nc(-c6c([H])c([H])c(Oc7c([H])c([H])c(F)c([H])c7F)c([H])c6[H])c(C(=O)N([H])[H])c5N([H])[H])C4([H])[H])c([H])c3OC([H])([H])[H])c([H])c([H])c2C1([H])[H]

$$$$
37:0:0
     RDKit          3D

 93101  0  0  1  0  0  0  0  0999 V2000
  -28.7720  -21.0870   20.7840 C   0  0  0  0  0  2  0  0  0  0  0  0
  -31.0390  -20.1550   20.0080 C   0  0  0  0  0  3  0  0  0  0  0  0
  -31.6240  -17.7680   19.9380 C   0  0  0  0  0  3  0  0  0  0  0  0
  -31.9820  -19.1260   19.7950 C   0  0  0  0  0  0  0  0  0  0  0  0
  -29.7190  -19.8630   20.4070 C   0  0  0  0  0  0  0  0  0  0  0  0
  -30.3170  -17.3630   20.3060 C   0  0  0  0  0  0  0  0  0  0  0  0
  -29.3770  -18.4470   20.5520 C   0  0  0  0  0  0  0  0  0  0  0  0
  -33.4140  -19.4680   19.4240 C   0  0  0  0  0  1  0  0  0  0  0  0
  -27.7820  -18.0120   21.0620 Cl  0  0  0  0  0  0  0  0  0  0  0  0
  -30.6570  -14.7620   20.0790 C   0  0  0  0  0  0  0  0  0  0  0  0
  -30.3230  -12.5630   18.9540 C   0  0  0  0  0  2  0  0  0  0  0  0
  -29.3320  -12.7330   17.7840 C   0  0  0  0  0  2  0  0  0  0  0  0
  -27.8850  -12.5530   18.2800 C   0  0  0  0  0  2  0  0  0  0  0  0
  -27.5880  -13.3740   19.5650 C   0  0  0  0  0  3  0  0  0  0  0  0
  -28.7010  -13.2200   20.6240 C   0  0  0  0  0  2  0  0  0  0  0  0
  -29.9720  -13.5720   19.9820 N   0  0  0  0  0  0  0  0  0  0  0  0
  -31.8240  -14.8010   19.6910 O   0  0  0  0  0  0  0  0  0  0  0  0
  -29.9630  -15.9150   20.4250 N   0  0  0  0  0  0  0  0  0  0  0  0
  -29.0190  -15.7460   20.7370 H   0  0  0  0  0  0  0  0  0  0  0  0
  -25.2290  -13.9350   20.3950 C   0  0  0  0  0  0  0  0  0  0  0  0
  -24.1860  -13.1480   20.8010 C   0  0  0  0  0  0  0  0  0  0  0  0
  -24.6600  -11.8010   20.7410 C   0  0  0  0  0  0  0  0  0  0  0  0
  -26.2690  -13.0670   20.1090 N   0  0  0  0  0  0  0  0  0  0  0  0
  -25.9380  -11.7780   20.3800 N   0  0  0  0  0  0  0  0  0  0  0  0
  -23.9540  -10.5290   20.9490 C   0  0  0  0  0  0  0  0  0  0  0  0
  -24.4120   -9.5730   21.8820 C   0  0  0  0  0  3  0  0  0  0  0  0
  -23.7030   -8.3690   22.0780 C   0  0  0  0  0  3  0  0  0  0  0  0
  -22.5240   -8.1120   21.3390 C   0  0  0  0  0  0  0  0  0  0  0  0
  -22.0850   -9.0560   20.3950 C   0  0  0  0  0  3  0  0  0  0  0  0
  -22.7950  -10.2530   20.1980 C   0  0  0  0  0  3  0  0  0  0  0  0
  -21.7860   -6.9570   21.4430 O   0  0  0  0  0  0  0  0  0  0  0  0
  -21.7330   -6.2390   22.6120 C   0  0  0  0  0  0  0  0  0  0  0  0
  -21.2810   -6.8130   23.8200 C   0  0  0  0  0  3  0  0  0  0  0  0
  -21.1740   -6.0210   24.9800 C   0  0  0  0  0  3  0  0  0  0  0  0
  -21.5140   -4.6560   24.9340 C   0  0  0  0  0  0  0  0  0  0  0  0
  -21.9590   -4.0790   23.7300 C   0  0  0  0  0  3  0  0  0  0  0  0
  -22.0650   -4.8700   22.5720 C   0  0  0  0  0  0  0  0  0  0  0  0
  -22.4730   -4.3050   21.4110 F   0  0  0  0  0  0  0  0  0  0  0  0
  -21.4050   -3.8920   26.0460 F   0  0  0  0  0  0  0  0  0  0  0  0
  -22.7970  -13.6100   21.1340 C   0  0  0  0  0  0  0  0  0  0  0  0
  -22.1110  -12.8990   22.0210 N   0  0  0  0  0  0  0  0  0  0  0  0
  -22.3330  -14.6380   20.6440 O   0  0  0  0  0  0  0  0  0  0  0  0
  -22.5010  -12.0660   22.4350 H   0  0  0  0  0  0  0  0  0  0  0  0
  -21.1810  -13.1910   22.2870 H   0  0  0  0  0  0  0  0  0  0  0  0
  -25.3720  -15.3080   20.2230 N   0  0  0  0  0  0  0  0  0  0  0  0
  -24.5980  -15.9470   20.3720 H   0  0  0  0  0  0  0  0  0  0  0  0
  -26.2030  -15.7690   19.8780 H   0  0  0  0  0  0  0  0  0  0  0  0
  -28.7610  -23.7190   20.6410 C   0  0  0  0  0  0  0  0  0  0  0  0
  -28.8200  -22.4500   20.0870 N   0  0  0  0  0  0  0  0  0  0  0  0
  -29.0290  -23.8680   21.8390 O   0  0  0  0  0  0  0  0  0  0  0  0
  -28.6470  -22.4150   19.0910 H   0  0  0  0  0  0  0  0  0  0  0  0
  -28.2930  -24.9990   19.7770 C   0  0  0  0  0  2  0  0  0  0  0  0
  -28.3640  -26.4330   20.2350 O   0  0  0  0  0  0  0  0  0  0  0  0
  -24.6060  -31.8630   23.1940 C   0  0  0  0  0  0  0  0  0  0  0  0
  -27.2560  -27.3050   20.1340 C   0  0  0  0  0  0  0  0  0  0  0  0
  -23.4240  -30.4750   21.5260 C   0  0  0  0  0  3  0  0  0  0  0  0
  -24.8940  -28.9340   20.1050 C   0  0  0  0  0  0  0  0  0  0  0  0
  -25.9660  -30.7910   21.3810 C   0  0  0  0  0  2  0  0  0  0  0  0
  -26.0550  -29.4160   20.7190 C   0  0  0  0  0  0  0  0  0  0  0  0
  -27.2360  -28.6120   20.7260 C   0  0  0  0  0  3  0  0  0  0  0  0
  -26.0730  -26.8900   19.4840 C   0  0  0  0  0  3  0  0  0  0  0  0
  -24.9040  -27.6780   19.4800 C   0  0  0  0  0  3  0  0  0  0  0  0
  -23.6550  -29.8040   20.1450 C   0  0  0  0  0  2  0  0  0  0  0  0
  -24.6850  -31.0610   22.0920 N   0  0  0  0  0  0  0  0  0  0  0  0
  -23.5170  -32.1330   23.7190 O   0  0  0  0  0  0  0  0  0  0  0  0
  -22.7500  -29.4540   22.4770 C   0  0  0  0  0  0  0  0  0  0  0  0
  -21.4260  -29.2800   22.3400 N   0  0  0  0  0  0  0  0  0  0  0  0
  -23.4230  -28.8240   23.2980 O   0  0  0  0  0  0  0  0  0  0  0  0
  -20.9420  -29.8390   21.6500 H   0  0  0  0  0  0  0  0  0  0  0  0
  -18.0440  -28.0790   22.8020 C   0  0  0  0  0  0  0  0  0  0  0  0
  -20.6010  -28.3340   23.0970 C   0  0  0  0  0  3  0  0  0  0  0  0
  -20.7080  -26.9060   22.5130 C   0  0  0  0  0  2  0  0  0  0  0  0
  -19.6160  -26.5910   21.4880 C   0  0  0  0  0  2  0  0  0  0  0  0
  -18.2280  -26.7350   22.1200 C   0  0  0  0  0  2  0  0  0  0  0  0
  -19.1590  -28.8370   23.2500 C   0  0  0  0  0  0  0  0  0  0  0  0
  -18.9360  -30.0970   23.8460 C   0  0  0  0  0  3  0  0  0  0  0  0
  -17.6290  -30.5950   24.0110 C   0  0  0  0  0  3  0  0  0  0  0  0
  -16.5280  -29.8310   23.5860 C   0  0  0  0  0  3  0  0  0  0  0  0
  -16.7350  -28.5770   22.9840 C   0  0  0  0  0  3  0  0  0  0  0  0
  -25.8810  -32.4980   23.8320 C   0  0  0  0  0  3  0  0  0  0  0  0
  -26.3890  -31.7220   25.1090 C   0  0  1  0  0  0  0  0  0  0  0  0
  -25.2860  -31.4740   26.1640 C   0  0  0  0  0  1  0  0  0  0  0  0
  -26.9850  -30.3510   24.7170 C   0  0  0  0  0  1  0  0  0  0  0  0
  -27.5330  -32.5140   25.7840 C   0  0  0  0  0  1  0  0  0  0  0  0
  -25.5650  -33.8920   24.1710 N   0  0  0  0  0  0  0  0  0  0  0  0
  -25.8980  -34.9520   23.4260 C   0  0  0  0  0  0  0  0  0  0  0  0
  -26.5710  -34.8630   22.3960 O   0  0  0  0  0  0  0  0  0  0  0  0
  -24.9720  -34.0350   24.9760 H   0  0  0  0  0  0  0  0  0  0  0  0
  -24.1660  -36.7410   23.0870 C   0  0  0  0  0  1  0  0  0  0  0  0
  -25.4060  -36.3340   23.8960 C   0  0  0  0  0  3  0  0  0  0  0  0
  -27.5370  -37.2170   24.7380 C   0  0  0  0  0  1  0  0  0  0  0  0
  -26.4330  -37.3930   23.7980 N   0  0  0  0  0  0  0  0  0  0  0  0
  -26.0210  -38.3080   23.9660 H   0  0  0  0  0  0  0  0  0  0  0  0
  2  5  1  0
  3  6  2  0
  4  3  1  0
  4  2  2  0
  5  7  2  0
  5  1  1  0
  6 18  1  0
  6  7  1  0
  7  9  1  0
  8  4  1  0
 10 18  1  0
 11 16  1  0
 12 13  1  0
 12 11  1  0
 14 13  1  0
 14 23  1  0
 14 15  1  0
 16 10  1  0
 16 15  1  0
 17 10  2  0
 18 19  1  0
 20 21  2  0
 21 40  1  0
 22 21  1  0
 22 25  1  0
 23 24  1  0
 23 20  1  0
 24 22  2  0
 25 26  1  0
 26 27  2  0
 28 31  1  0
 28 27  1  0
 29 28  2  0
 30 29  1  0
 30 25  2  0
 31 32  1  0
 32 33  1  0
 33 34  2  0
 35 34  1  0
 35 39  1  0
 36 35  2  0
 37 32  2  0
 37 36  1  0
 38 37  1  0
 40 41  1  0
 41 44  1  0
 41 43  1  0
 42 40  2  0
 45 46  1  0
 45 20  1  0
 47 45  1  0
 48 50  2  0
 49 48  1  0
 49  1  1  0
 51 49  1  0
 52 53  1  0
 52 48  1  0
 54 65  2  0
 55 53  1  0
 55 60  1  0
 56 64  1  0
 56 66  1  0
 57 63  1  0
 57 59  1  0
 58 64  1  0
 59 60  2  0
 59 58  1  0
 61 55  2  0
 62 61  1  0
 62 57  2  0
 63 56  1  0
 64 54  1  0
 66 68  2  0
 67 66  1  0
 69 67  1  0
 70 79  2  0
 70 75  1  0
 71 67  1  0
 71 75  1  0
 72 71  1  0
 73 74  1  0
 73 72  1  0
 74 70  1  0
 75 76  2  0
 76 77  1  0
 78 77  2  0
 79 78  1  0
 80 54  1  0
 80 85  1  0
 80 81  1  0
 81 84  1  1
 81 82  1  0
 83 81  1  0
 85 88  1  0
 86 90  1  0
 86 85  1  0
 87 86  2  0
 90 89  1  0
 92 90  1  0
 92 93  1  0
 92 91  1  0
M  ISO  4  10 100  18 100  52 101  53 101
M  END
>  <TORSDO>  (38) 
F 19

>  <SCORE>  (38) 
-13.693

>  <name>  (38) 
37

>  <ligand_id>  (38) 
37

>  <original_smiles>  (38) 
[H]c1c([H])c([H])c2c(c1[H])C([H])([H])C([H])([H])C([H])([H])C2([H])N([H])C(=O)C1([H])N(C(=O)C([H])(N([H])C(=O)C([H])(N([H])C([H])([H])[H])C([H])([H])[H])C(C([H])([H])[H])(C([H])([H])[H])C([H])([H])[H])C([H])([H])c2c([H])c(OC([H])([H])C(=O)N([H])C([H])([H])c3c([H])c(C([H])([H])[H])c([H])c(N([H])C(=O)N4C([H])([H])C([H])([H])C([H])([H])C([H])(n5nc(-c6c([H])c([H])c(Oc7c([H])c([H])c(F)c([H])c7F)c([H])c6[H])c(C(=O)N([H])[H])c5N([H])[H])C4([H])[H])c3Cl)c([H])c([H])c2C1([H])[H]

>  <smiles>  (38) 
[H]c1c([H])c([H])c2c(c1[H])C([H])([H])C([H])([H])C([H])([H])C2([H])N([H])C(=O)C1([H])N(C(=O)C([H])(N([H])C(=O)C([H])(N([H])C([H])([H])[H])C([H])([H])[H])C(C([H])([H])[H])(C([H])([H])[H])C([H])([H])[H])C([H])([H])c2c([H])c(OC([H])([H])C(=O)N([H])C([H])([H])c3c([H])c(C([H])([H])[H])c([H])c(N([H])C(=O)N4C([H])([H])C([H])([H])C([H])([H])C([H])(n5nc(-c6c([H])c([H])c(Oc7c([H])c([H])c(F)c([H])c7F)c([H])c6[H])c(C(=O)N([H])[H])c5N([H])[H])C4([H])[H])c3Cl)c([H])c([H])c2C1([H])[H]

$$$$
38:0:0
     RDKit          3D

 94102  0  0  1  0  0  0  0  0999 V2000
  -30.9430  -20.7130   20.7370 C   0  0  0  0  0  3  0  0  0  0  0  0
  -31.3830  -18.2670   20.7470 C   0  0  0  0  0  3  0  0  0  0  0  0
  -29.1580  -19.1300   20.3490 C   0  0  0  0  0  3  0  0  0  0  0  0
  -31.8210  -19.6080   20.8830 C   0  0  0  0  0  0  0  0  0  0  0  0
  -29.5600  -20.5830   20.4640 C   0  0  0  0  0  0  0  0  0  0  0  0
  -30.0460  -17.9130   20.4770 C   0  0  0  0  0  0  0  0  0  0  0  0
  -30.5000  -15.1640   20.3000 C   0  0  0  0  0  0  0  0  0  0  0  0
  -30.4080  -12.7870   19.3620 C   0  0  0  0  0  2  0  0  0  0  0  0
  -29.4590  -12.6670   18.1460 C   0  0  0  0  0  2  0  0  0  0  0  0
  -28.0150  -12.4120   18.6120 C   0  0  0  0  0  2  0  0  0  0  0  0
  -27.5960  -13.3610   19.7640 C   0  0  0  0  0  3  0  0  0  0  0  0
  -28.6640  -13.4430   20.8750 C   0  0  0  0  0  2  0  0  0  0  0  0
  -29.9080  -13.8940   20.2370 N   0  0  0  0  0  0  0  0  0  0  0  0
  -31.7110  -15.1910   20.0490 O   0  0  0  0  0  0  0  0  0  0  0  0
  -29.7240  -16.3820   20.4040 N   0  0  0  0  0  0  0  0  0  0  0  0
  -28.7360  -16.1780   20.4400 H   0  0  0  0  0  0  0  0  0  0  0  0
  -25.2290  -13.9090   20.5540 C   0  0  0  0  0  0  0  0  0  0  0  0
  -24.1790  -13.1230   20.9350 C   0  0  0  0  0  0  0  0  0  0  0  0
  -24.6530  -11.7750   20.8830 C   0  0  0  0  0  0  0  0  0  0  0  0
  -26.2740  -13.0410   20.2880 N   0  0  0  0  0  0  0  0  0  0  0  0
  -25.9390  -11.7530   20.5540 N   0  0  0  0  0  0  0  0  0  0  0  0
  -23.9390  -10.5050   21.0670 C   0  0  0  0  0  0  0  0  0  0  0  0
  -24.3850   -9.5330   21.9890 C   0  0  0  0  0  3  0  0  0  0  0  0
  -23.6680   -8.3290   22.1620 C   0  0  0  0  0  3  0  0  0  0  0  0
  -22.4920   -8.0890   21.4130 C   0  0  0  0  0  0  0  0  0  0  0  0
  -22.0650   -9.0510   20.4800 C   0  0  0  0  0  3  0  0  0  0  0  0
  -22.7830  -10.2460   20.3060 C   0  0  0  0  0  3  0  0  0  0  0  0
  -21.7450   -6.9390   21.4980 O   0  0  0  0  0  0  0  0  0  0  0  0
  -21.7010   -6.1930   22.6480 C   0  0  0  0  0  0  0  0  0  0  0  0
  -21.2430   -6.7320   23.8710 C   0  0  0  0  0  3  0  0  0  0  0  0
  -21.1500   -5.9100   25.0100 C   0  0  0  0  0  3  0  0  0  0  0  0
  -21.5030   -4.5500   24.9310 C   0  0  0  0  0  0  0  0  0  0  0  0
  -21.9520   -4.0100   23.7130 C   0  0  0  0  0  3  0  0  0  0  0  0
  -22.0490   -4.8290   22.5750 C   0  0  0  0  0  0  0  0  0  0  0  0
  -22.4640   -4.2980   21.3990 F   0  0  0  0  0  0  0  0  0  0  0  0
  -21.4050   -3.7580   26.0250 F   0  0  0  0  0  0  0  0  0  0  0  0
  -22.7810  -13.5860   21.2270 C   0  0  0  0  0  0  0  0  0  0  0  0
  -22.0660  -12.8740   22.0910 N   0  0  0  0  0  0  0  0  0  0  0  0
  -22.3320  -14.6140   20.7230 O   0  0  0  0  0  0  0  0  0  0  0  0
  -22.4430  -12.0410   22.5180 H   0  0  0  0  0  0  0  0  0  0  0  0
  -21.1290  -13.1660   22.3270 H   0  0  0  0  0  0  0  0  0  0  0  0
  -25.3760  -15.2830   20.3830 N   0  0  0  0  0  0  0  0  0  0  0  0
  -24.5910  -15.9180   20.4780 H   0  0  0  0  0  0  0  0  0  0  0  0
  -26.1890  -15.7210   19.9720 H   0  0  0  0  0  0  0  0  0  0  0  0
  -33.2960  -19.8390   21.1910 C   0  0  1  0  0  0  0  0  0  0  0  0
  -33.5630  -21.1130   21.4820 F   0  0  0  0  0  0  0  0  0  0  0  0
  -33.6700  -19.0930   22.2310 F   0  0  0  0  0  0  0  0  0  0  0  0
  -34.0300  -19.4860   20.1340 F   0  0  0  0  0  0  0  0  0  0  0  0
  -28.9670  -23.3240   20.4390 C   0  0  0  0  0  0  0  0  0  0  0  0
  -28.7090  -21.8990   20.3330 N   0  0  0  0  0  0  0  0  0  0  0  0
  -30.1090  -23.6960   20.7180 O   0  0  0  0  0  0  0  0  0  0  0  0
  -27.7350  -21.7250   20.1220 H   0  0  0  0  0  0  0  0  0  0  0  0
  -27.8650  -24.5850   20.2320 C   0  0  0  0  0  2  0  0  0  0  0  0
  -28.1970  -26.1370   20.3500 O   0  0  0  0  0  0  0  0  0  0  0  0
  -24.6280  -31.9770   23.2500 C   0  0  0  0  0  0  0  0  0  0  0  0
  -27.1690  -27.1720   20.2690 C   0  0  0  0  0  0  0  0  0  0  0  0
  -23.4200  -30.5750   21.6230 C   0  0  0  0  0  3  0  0  0  0  0  0
  -24.8580  -28.9730   20.2110 C   0  0  0  0  0  0  0  0  0  0  0  0
  -25.9770  -30.8140   21.4510 C   0  0  0  0  0  2  0  0  0  0  0  0
  -26.0440  -29.4050   20.8190 C   0  0  0  0  0  0  0  0  0  0  0  0
  -27.2000  -28.5230   20.8290 C   0  0  0  0  0  3  0  0  0  0  0  0
  -25.9560  -26.8620   19.6120 C   0  0  0  0  0  3  0  0  0  0  0  0
  -24.8320  -27.7170   19.5880 C   0  0  0  0  0  3  0  0  0  0  0  0
  -23.6400  -29.8870   20.2490 C   0  0  0  0  0  2  0  0  0  0  0  0
  -24.6970  -31.1450   22.1640 N   0  0  0  0  0  0  0  0  0  0  0  0
  -23.5430  -32.2710   23.7780 O   0  0  0  0  0  0  0  0  0  0  0  0
  -22.7320  -29.5830   22.5940 C   0  0  0  0  0  0  0  0  0  0  0  0
  -21.4050  -29.4080   22.4570 N   0  0  0  0  0  0  0  0  0  0  0  0
  -23.3950  -28.9730   23.4360 O   0  0  0  0  0  0  0  0  0  0  0  0
  -20.9240  -29.9540   21.7550 H   0  0  0  0  0  0  0  0  0  0  0  0
  -18.0280  -28.1760   22.9270 C   0  0  0  0  0  0  0  0  0  0  0  0
  -20.5790  -28.4770   23.2320 C   0  0  0  0  0  3  0  0  0  0  0  0
  -20.7070  -27.0320   22.6910 C   0  0  0  0  0  2  0  0  0  0  0  0
  -19.6270  -26.6760   21.6660 C   0  0  0  0  0  2  0  0  0  0  0  0
  -18.2330  -26.8160   22.2820 C   0  0  0  0  0  2  0  0  0  0  0  0
  -19.1290  -28.9620   23.3600 C   0  0  0  0  0  0  0  0  0  0  0  0
  -18.8840  -30.2310   23.9250 C   0  0  0  0  0  3  0  0  0  0  0  0
  -17.5700  -30.7190   24.0590 C   0  0  0  0  0  3  0  0  0  0  0  0
  -16.4830  -29.9330   23.6410 C   0  0  0  0  0  3  0  0  0  0  0  0
  -16.7120  -28.6620   23.0810 C   0  0  0  0  0  3  0  0  0  0  0  0
  -25.9100  -32.6130   23.8740 C   0  0  0  0  0  3  0  0  0  0  0  0
  -26.4230  -31.8400   25.1510 C   0  0  1  0  0  0  0  0  0  0  0  0
  -25.3260  -31.5990   26.2160 C   0  0  0  0  0  1  0  0  0  0  0  0
  -27.0070  -30.4640   24.7600 C   0  0  0  0  0  1  0  0  0  0  0  0
  -27.5710  -32.6320   25.8170 C   0  0  0  0  0  1  0  0  0  0  0  0
  -25.6000  -34.0110   24.2100 N   0  0  0  0  0  0  0  0  0  0  0  0
  -25.9080  -35.0690   23.4480 C   0  0  0  0  0  0  0  0  0  0  0  0
  -26.5510  -34.9680   22.4010 O   0  0  0  0  0  0  0  0  0  0  0  0
  -25.0250  -34.1600   25.0270 H   0  0  0  0  0  0  0  0  0  0  0  0
  -24.1600  -36.8560   23.1620 C   0  0  0  0  0  1  0  0  0  0  0  0
  -25.4330  -36.4580   23.9230 C   0  0  0  0  0  3  0  0  0  0  0  0
  -27.5920  -37.3610   24.6690 C   0  0  0  0  0  1  0  0  0  0  0  0
  -26.4560  -37.5150   23.7650 N   0  0  0  0  0  0  0  0  0  0  0  0
  -26.0520  -38.4350   23.9210 H   0  0  0  0  0  0  0  0  0  0  0  0
  1  4  1  0
  2  4  2  0
  3  5  1  0
  3  6  2  0
  4 45  1  0
  5  1  2  0
  6  2  1  0
  7 15  1  0
  8 13  1  0
  9 10  1  0
  9  8  1  0
 11 10  1  0
 11 20  1  0
 11 12  1  0
 13  7  1  0
 13 12  1  0
 14  7  2  0
 15 16  1  0
 15  6  1  0
 17 18  2  0
 18 37  1  0
 19 18  1  0
 19 22  1  0
 20 21  1  0
 20 17  1  0
 21 19  2  0
 22 23  1  0
 23 24  2  0
 25 28  1  0
 25 24  1  0
 26 25  2  0
 27 26  1  0
 27 22  2  0
 28 29  1  0
 29 30  1  0
 30 31  2  0
 32 31  1  0
 32 36  1  0
 33 32  2  0
 34 29  2  0
 34 33  1  0
 35 34  1  0
 37 38  1  0
 38 41  1  0
 38 40  1  0
 39 37  2  0
 42 43  1  0
 42 17  1  0
 44 42  1  0
 45 46  1  1
 45 47  1  0
 48 45  1  0
 49 51  2  0
 50 49  1  0
 50  5  1  0
 52 50  1  0
 53 54  1  0
 53 49  1  0
 55 66  2  0
 56 54  1  0
 56 61  1  0
 57 65  1  0
 57 67  1  0
 58 64  1  0
 58 60  1  0
 59 65  1  0
 60 61  2  0
 60 59  1  0
 62 56  2  0
 63 62  1  0
 63 58  2  0
 64 57  1  0
 65 55  1  0
 67 69  2  0
 68 67  1  0
 70 68  1  0
 71 80  2  0
 71 76  1  0
 72 68  1  0
 72 76  1  0
 73 72  1  0
 74 75  1  0
 74 73  1  0
 75 71  1  0
 76 77  2  0
 77 78  1  0
 79 78  2  0
 80 79  1  0
 81 55  1  0
 81 86  1  0
 81 82  1  0
 82 85  1  1
 82 83  1  0
 84 82  1  0
 86 89  1  0
 87 91  1  0
 87 86  1  0
 88 87  2  0
 91 90  1  0
 93 94  1  0
 93 91  1  0
 93 92  1  0
M  ISO  4   7 100  15 100  53 101  54 101
M  END
>  <TORSDO>  (39) 
F 19

>  <SCORE>  (39) 
-14.478

>  <name>  (39) 
38

>  <ligand_id>  (39) 
38

>  <original_smiles>  (39) 
[H]c1c([H])c([H])c2c(c1[H])C([H])([H])C([H])([H])C([H])([H])C2([H])N([H])C(=O)C1([H])N(C(=O)C([H])(N([H])C(=O)C([H])(N([H])C([H])([H])[H])C([H])([H])[H])C(C([H])([H])[H])(C([H])([H])[H])C([H])([H])[H])C([H])([H])c2c([H])c(OC([H])([H])C(=O)N([H])c3c([H])c(N([H])C(=O)N4C([H])([H])C([H])([H])C([H])([H])C([H])(n5nc(-c6c([H])c([H])c(Oc7c([H])c([H])c(F)c([H])c7F)c([H])c6[H])c(C(=O)N([H])[H])c5N([H])[H])C4([H])[H])c([H])c(C(F)(F)F)c3[H])c([H])c([H])c2C1([H])[H]

>  <smiles>  (39) 
[H]c1c([H])c([H])c2c(c1[H])C([H])([H])C([H])([H])C([H])([H])C2([H])N([H])C(=O)C1([H])N(C(=O)C([H])(N([H])C(=O)C([H])(N([H])C([H])([H])[H])C([H])([H])[H])C(C([H])([H])[H])(C([H])([H])[H])C([H])([H])[H])C([H])([H])c2c([H])c(OC([H])([H])C(=O)N([H])c3c([H])c(N([H])C(=O)N4C([H])([H])C([H])([H])C([H])([H])C([H])(n5nc(-c6c([H])c([H])c(Oc7c([H])c([H])c(F)c([H])c7F)c([H])c6[H])c(C(=O)N([H])[H])c5N([H])[H])C4([H])[H])c([H])c(C(F)(F)F)c3[H])c([H])c([H])c2C1([H])[H]

$$$$
39:0:0
     RDKit          3D

 92100  0  0  1  0  0  0  0  0999 V2000
  -28.7150  -19.7330   20.3260 C   0  0  0  0  0  3  0  0  0  0  0  0
  -31.0500  -19.7980   20.0850 C   0  0  0  0  0  3  0  0  0  0  0  0
  -29.8460  -20.6020   20.1500 C   0  0  0  0  0  0  0  0  0  0  0  0
  -30.0140  -17.5090   20.3830 C   0  0  0  0  0  0  0  0  0  0  0  0
  -28.7850  -18.2680   20.4270 C   0  0  0  0  0  0  0  0  0  0  0  0
  -31.1450  -18.3570   20.1950 C   0  0  0  0  0  0  0  0  0  0  0  0
  -32.3710  -17.7940   20.0750 F   0  0  0  0  0  0  0  0  0  0  0  0
  -30.7860  -14.8870   20.0430 C   0  0  0  0  0  0  0  0  0  0  0  0
  -30.5880  -12.6150   18.9500 C   0  0  0  0  0  2  0  0  0  0  0  0
  -29.5670  -12.6890   17.7890 C   0  0  0  0  0  2  0  0  0  0  0  0
  -28.1310  -12.4750   18.3060 C   0  0  0  0  0  2  0  0  0  0  0  0
  -27.8290  -13.3150   19.5740 C   0  0  0  0  0  3  0  0  0  0  0  0
  -28.9560  -13.1950   20.6210 C   0  0  0  0  0  2  0  0  0  0  0  0
  -30.2000  -13.6280   19.9690 N   0  0  0  0  0  0  0  0  0  0  0  0
  -31.9470  -15.0040   19.6400 O   0  0  0  0  0  0  0  0  0  0  0  0
  -29.9900  -15.9820   20.4490 N   0  0  0  0  0  0  0  0  0  0  0  0
  -29.1320  -15.6530   20.8670 H   0  0  0  0  0  0  0  0  0  0  0  0
  -25.4990  -13.8780   20.4790 C   0  0  0  0  0  0  0  0  0  0  0  0
  -24.4540  -13.0930   20.8810 C   0  0  0  0  0  0  0  0  0  0  0  0
  -24.9070  -11.7430   20.7670 C   0  0  0  0  0  0  0  0  0  0  0  0
  -26.5200  -13.0070   20.1380 N   0  0  0  0  0  0  0  0  0  0  0  0
  -26.1760  -11.7130   20.3770 N   0  0  0  0  0  0  0  0  0  0  0  0
  -24.1870  -10.4770   20.9500 C   0  0  0  0  0  0  0  0  0  0  0  0
  -24.6050   -9.5180   21.8990 C   0  0  0  0  0  3  0  0  0  0  0  0
  -23.8830   -8.3160   22.0700 C   0  0  0  0  0  3  0  0  0  0  0  0
  -22.7280   -8.0660   21.2910 C   0  0  0  0  0  0  0  0  0  0  0  0
  -22.3300   -9.0120   20.3310 C   0  0  0  0  0  3  0  0  0  0  0  0
  -23.0530  -10.2050   20.1580 C   0  0  0  0  0  3  0  0  0  0  0  0
  -21.9790   -6.9160   21.3700 O   0  0  0  0  0  0  0  0  0  0  0  0
  -21.8170   -6.2430   22.5550 C   0  0  0  0  0  0  0  0  0  0  0  0
  -21.2370   -6.8560   23.6860 C   0  0  0  0  0  3  0  0  0  0  0  0
  -21.0260   -6.1070   24.8620 C   0  0  0  0  0  3  0  0  0  0  0  0
  -21.3840   -4.7460   24.9050 C   0  0  0  0  0  0  0  0  0  0  0  0
  -21.9580   -4.1330   23.7760 C   0  0  0  0  0  3  0  0  0  0  0  0
  -22.1710   -4.8790   22.6040 C   0  0  0  0  0  0  0  0  0  0  0  0
  -22.7040   -4.2790   21.5130 F   0  0  0  0  0  0  0  0  0  0  0  0
  -21.1750   -4.0240   26.0300 F   0  0  0  0  0  0  0  0  0  0  0  0
  -23.0790  -13.5640   21.2560 C   0  0  0  0  0  0  0  0  0  0  0  0
  -22.4170  -12.8590   22.1680 N   0  0  0  0  0  0  0  0  0  0  0  0
  -22.6030  -14.5910   20.7760 O   0  0  0  0  0  0  0  0  0  0  0  0
  -22.8160  -12.0280   22.5770 H   0  0  0  0  0  0  0  0  0  0  0  0
  -21.4980  -13.1560   22.4620 H   0  0  0  0  0  0  0  0  0  0  0  0
  -25.6580  -15.2550   20.3500 N   0  0  0  0  0  0  0  0  0  0  0  0
  -24.9000  -15.9020   20.5370 H   0  0  0  0  0  0  0  0  0  0  0  0
  -26.4900  -15.7120   19.9960 H   0  0  0  0  0  0  0  0  0  0  0  0
  -31.2320  -22.6110   19.9830 C   0  0  0  0  0  1  0  0  0  0  0  0
  -29.8570  -22.1030   20.0320 N   0  0  0  0  0  0  0  0  0  0  0  0
  -28.8740  -23.2470   20.4340 C   0  0  0  0  0  2  0  0  0  0  0  0
  -28.7740  -24.7080   19.5840 C   0  0  0  0  0  2  0  0  0  0  0  0
  -28.6740  -26.1630   20.1260 O   0  0  0  0  0  0  0  0  0  0  0  0
  -24.7140  -31.6480   22.9850 C   0  0  0  0  0  0  0  0  0  0  0  0
  -27.5640  -27.0720   19.9910 C   0  0  0  0  0  0  0  0  0  0  0  0
  -23.6200  -30.2240   21.2970 C   0  0  0  0  0  3  0  0  0  0  0  0
  -25.1690  -28.7220   19.9040 C   0  0  0  0  0  0  0  0  0  0  0  0
  -26.1640  -30.5890   21.2150 C   0  0  0  0  0  2  0  0  0  0  0  0
  -26.3100  -29.2070   20.5540 C   0  0  0  0  0  0  0  0  0  0  0  0
  -27.5030  -28.3970   20.5830 C   0  0  0  0  0  3  0  0  0  0  0  0
  -26.3920  -26.6840   19.3000 C   0  0  0  0  0  3  0  0  0  0  0  0
  -25.2240  -27.4740   19.2650 C   0  0  0  0  0  3  0  0  0  0  0  0
  -23.9100  -29.5710   19.9190 C   0  0  0  0  0  2  0  0  0  0  0  0
  -24.8500  -30.8430   21.8880 N   0  0  0  0  0  0  0  0  0  0  0  0
  -23.6010  -31.8870   23.4800 O   0  0  0  0  0  0  0  0  0  0  0  0
  -22.9500  -29.1830   22.2270 C   0  0  0  0  0  0  0  0  0  0  0  0
  -21.6220  -29.0110   22.1000 N   0  0  0  0  0  0  0  0  0  0  0  0
  -23.6270  -28.5320   23.0270 O   0  0  0  0  0  0  0  0  0  0  0  0
  -21.1330  -29.5920   21.4340 H   0  0  0  0  0  0  0  0  0  0  0  0
  -18.2330  -27.8620   22.6590 C   0  0  0  0  0  0  0  0  0  0  0  0
  -20.8060  -28.0470   22.8430 C   0  0  0  0  0  3  0  0  0  0  0  0
  -20.8480  -26.6510   22.1790 C   0  0  0  0  0  2  0  0  0  0  0  0
  -19.7020  -26.4180   21.1890 C   0  0  0  0  0  2  0  0  0  0  0  0
  -18.3490  -26.5550   21.8940 C   0  0  0  0  0  2  0  0  0  0  0  0
  -19.3850  -28.5710   23.0910 C   0  0  0  0  0  0  0  0  0  0  0  0
  -19.2200  -29.7960   23.7710 C   0  0  0  0  0  3  0  0  0  0  0  0
  -17.9350  -30.3150   24.0210 C   0  0  0  0  0  3  0  0  0  0  0  0
  -16.7970  -29.6020   23.6030 C   0  0  0  0  0  3  0  0  0  0  0  0
  -16.9470  -28.3770   22.9290 C   0  0  0  0  0  3  0  0  0  0  0  0
  -25.9450  -32.3250   23.6590 C   0  0  0  0  0  3  0  0  0  0  0  0
  -26.4720  -31.5390   24.9230 C   0  0  1  0  0  0  0  0  0  0  0  0
  -25.3680  -31.2040   25.9530 C   0  0  0  0  0  1  0  0  0  0  0  0
  -27.1400  -30.2100   24.5030 C   0  0  0  0  0  1  0  0  0  0  0  0
  -27.5580  -32.3710   25.6440 C   0  0  0  0  0  1  0  0  0  0  0  0
  -25.5550  -33.6940   24.0350 N   0  0  0  0  0  0  0  0  0  0  0  0
  -25.8500  -34.7940   23.3290 C   0  0  0  0  0  0  0  0  0  0  0  0
  -26.5480  -34.7660   22.3120 O   0  0  0  0  0  0  0  0  0  0  0  0
  -24.9360  -33.7840   24.8270 H   0  0  0  0  0  0  0  0  0  0  0  0
  -24.0380  -36.5120   23.0180 C   0  0  0  0  0  1  0  0  0  0  0  0
  -25.2860  -36.1380   23.8340 C   0  0  0  0  0  3  0  0  0  0  0  0
  -27.3530  -37.1050   24.7400 C   0  0  0  0  0  1  0  0  0  0  0  0
  -26.2630  -37.2460   23.7780 N   0  0  0  0  0  0  0  0  0  0  0  0
  -25.8070  -38.1380   23.9480 H   0  0  0  0  0  0  0  0  0  0  0  0
  -26.4660  -17.8590   19.8960 C   0  0  0  0  0  1  0  0  0  0  0  0
  -27.6590  -17.4800   20.5690 O   0  0  0  0  0  0  0  0  0  0  0  0
  1  5  1  0
  2  3  1  0
  2  6  2  0
  3  1  2  0
  4  5  2  0
  4 16  1  0
  5 92  1  0
  6  4  1  0
  7  6  1  0
  8 16  1  0
  9 14  1  0
 10 11  1  0
 10  9  1  0
 12 11  1  0
 12 21  1  0
 12 13  1  0
 14  8  1  0
 14 13  1  0
 15  8  2  0
 16 17  1  0
 18 19  2  0
 19 38  1  0
 20 19  1  0
 20 23  1  0
 21 22  1  0
 21 18  1  0
 22 20  2  0
 23 24  1  0
 24 25  2  0
 26 29  1  0
 26 25  1  0
 27 26  2  0
 28 27  1  0
 28 23  2  0
 29 30  1  0
 30 35  2  0
 30 31  1  0
 31 32  2  0
 32 33  1  0
 33 37  1  0
 34 33  2  0
 35 34  1  0
 36 35  1  0
 38 39  1  0
 39 42  1  0
 39 41  1  0
 40 38  2  0
 43 18  1  0
 43 44  1  0
 45 43  1  0
 46 47  1  0
 47  3  1  0
 47 48  1  0
 49 50  1  0
 49 48  1  0
 51 62  2  0
 52 50  1  0
 52 57  1  0
 53 61  1  0
 53 63  1  0
 54 60  1  0
 54 56  1  0
 55 61  1  0
 56 57  2  0
 56 55  1  0
 58 52  2  0
 59 58  1  0
 59 54  2  0
 60 53  1  0
 61 51  1  0
 63 65  2  0
 64 63  1  0
 66 64  1  0
 67 76  2  0
 67 72  1  0
 68 64  1  0
 68 72  1  0
 69 68  1  0
 70 71  1  0
 70 69  1  0
 71 67  1  0
 72 73  2  0
 73 74  1  0
 75 74  2  0
 76 75  1  0
 77 51  1  0
 77 82  1  0
 77 78  1  0
 78 81  1  1
 78 79  1  0
 80 78  1  0
 82 85  1  0
 83 87  1  0
 83 82  1  0
 84 83  2  0
 87 86  1  0
 89 87  1  0
 89 90  1  0
 89 88  1  0
 91 92  1  0
M  ISO  4   8 100  16 100  49 101  50 101
M  END
>  <TORSDO>  (40) 
F 20

>  <SCORE>  (40) 
-13.470

>  <name>  (40) 
39

>  <ligand_id>  (40) 
39

>  <original_smiles>  (40) 
[H]c1c([H])c([H])c2c(c1[H])C([H])([H])C([H])([H])C([H])([H])C2([H])N([H])C(=O)C1([H])N(C(=O)C([H])(N([H])C(=O)C([H])(N([H])C([H])([H])[H])C([H])([H])[H])C(C([H])([H])[H])(C([H])([H])[H])C([H])([H])[H])C([H])([H])c2c([H])c(OC([H])([H])C([H])([H])N(c3c([H])c(F)c(N([H])C(=O)N4C([H])([H])C([H])([H])C([H])([H])C([H])(n5nc(-c6c([H])c([H])c(Oc7c([H])c([H])c(F)c([H])c7F)c([H])c6[H])c(C(=O)N([H])[H])c5N([H])[H])C4([H])[H])c(OC([H])([H])[H])c3[H])C([H])([H])[H])c([H])c([H])c2C1([H])[H]

>  <smiles>  (40) 
[H]c1c([H])c([H])c2c(c1[H])C([H])([H])C([H])([H])C([H])([H])C2([H])N([H])C(=O)C1([H])N(C(=O)C([H])(N([H])C(=O)C([H])(N([H])C([H])([H])[H])C([H])([H])[H])C(C([H])([H])[H])(C([H])([H])[H])C([H])([H])[H])C([H])([H])c2c([H])c(OC([H])([H])C([H])([H])N(c3c([H])c(F)c(N([H])C(=O)N4C([H])([H])C([H])([H])C([H])([H])C([H])(n5nc(-c6c([H])c([H])c(Oc7c([H])c([H])c(F)c([H])c7F)c([H])c6[H])c(C(=O)N([H])[H])c5N([H])[H])C4([H])[H])c(OC([H])([H])[H])c3[H])C([H])([H])[H])c([H])c([H])c2C1([H])[H]

$$$$
40:0:0
     RDKit          3D

 92100  0  0  1  0  0  0  0  0999 V2000
  -28.8420  -22.4870   20.2950 C   0  0  0  0  0  0  0  0  0  0  0  0
  -29.8270  -21.5380   20.2380 N   0  0  0  0  0  0  0  0  0  0  0  0
  -27.6480  -22.1760   20.3090 O   0  0  0  0  0  0  0  0  0  0  0  0
  -30.7590  -21.9100   20.1150 H   0  0  0  0  0  0  0  0  0  0  0  0
  -28.7710  -17.8840   20.8620 C   0  0  0  0  0  3  0  0  0  0  0  0
  -28.7030  -19.3060   20.7850 C   0  0  0  0  0  3  0  0  0  0  0  0
  -30.9980  -17.9180   19.9510 C   0  0  0  0  0  3  0  0  0  0  0  0
  -29.9130  -17.1460   20.4490 C   0  0  0  0  0  0  0  0  0  0  0  0
  -29.7860  -20.0750   20.2900 C   0  0  0  0  0  0  0  0  0  0  0  0
  -30.9350  -19.3430   19.8820 C   0  0  0  0  0  0  0  0  0  0  0  0
  -32.0070  -20.0270   19.4140 F   0  0  0  0  0  0  0  0  0  0  0  0
  -30.6520  -14.6790   20.0620 C   0  0  0  0  0  0  0  0  0  0  0  0
  -30.3890  -12.4810   18.9320 C   0  0  0  0  0  2  0  0  0  0  0  0
  -29.3680  -12.6530   17.7830 C   0  0  0  0  0  2  0  0  0  0  0  0
  -27.9250  -12.4760   18.2950 C   0  0  0  0  0  2  0  0  0  0  0  0
  -27.6440  -13.2940   19.5840 C   0  0  0  0  0  3  0  0  0  0  0  0
  -28.7680  -13.0870   20.6250 C   0  0  0  0  0  2  0  0  0  0  0  0
  -30.0430  -13.4540   19.9870 N   0  0  0  0  0  0  0  0  0  0  0  0
  -31.7750  -14.8710   19.5830 O   0  0  0  0  0  0  0  0  0  0  0  0
  -29.8740  -15.6870   20.5620 N   0  0  0  0  0  0  0  0  0  0  0  0
  -29.0280  -15.3310   20.9780 H   0  0  0  0  0  0  0  0  0  0  0  0
  -25.2960  -13.8690   20.4620 C   0  0  0  0  0  0  0  0  0  0  0  0
  -24.2530  -13.0820   20.8710 C   0  0  0  0  0  0  0  0  0  0  0  0
  -24.7120  -11.7330   20.7690 C   0  0  0  0  0  0  0  0  0  0  0  0
  -26.3240  -12.9980   20.1360 N   0  0  0  0  0  0  0  0  0  0  0  0
  -25.9810  -11.7070   20.3800 N   0  0  0  0  0  0  0  0  0  0  0  0
  -23.9990  -10.4650   20.9620 C   0  0  0  0  0  0  0  0  0  0  0  0
  -24.4480   -9.4990   21.8890 C   0  0  0  0  0  3  0  0  0  0  0  0
  -23.7350   -8.2940   22.0690 C   0  0  0  0  0  3  0  0  0  0  0  0
  -22.5580   -8.0470   21.3220 C   0  0  0  0  0  0  0  0  0  0  0  0
  -22.1280   -9.0020   20.3850 C   0  0  0  0  0  3  0  0  0  0  0  0
  -22.8420  -10.1990   20.2020 C   0  0  0  0  0  3  0  0  0  0  0  0
  -21.8150   -6.8950   21.4130 O   0  0  0  0  0  0  0  0  0  0  0  0
  -21.7260   -6.1870   22.5850 C   0  0  0  0  0  0  0  0  0  0  0  0
  -21.2300   -6.7680   23.7720 C   0  0  0  0  0  3  0  0  0  0  0  0
  -21.0900   -5.9850   24.9350 C   0  0  0  0  0  3  0  0  0  0  0  0
  -21.4350   -4.6200   24.9110 C   0  0  0  0  0  0  0  0  0  0  0  0
  -21.9240   -4.0380   23.7290 C   0  0  0  0  0  3  0  0  0  0  0  0
  -22.0660   -4.8190   22.5690 C   0  0  0  0  0  0  0  0  0  0  0  0
  -22.5170   -4.2470   21.4250 F   0  0  0  0  0  0  0  0  0  0  0  0
  -21.2940   -3.8640   26.0250 F   0  0  0  0  0  0  0  0  0  0  0  0
  -22.8750  -13.5490   21.2420 C   0  0  0  0  0  0  0  0  0  0  0  0
  -22.2010  -12.8260   22.1300 N   0  0  0  0  0  0  0  0  0  0  0  0
  -22.4060  -14.5870   20.7810 O   0  0  0  0  0  0  0  0  0  0  0  0
  -22.5950  -11.9840   22.5260 H   0  0  0  0  0  0  0  0  0  0  0  0
  -21.2790  -13.1190   22.4200 H   0  0  0  0  0  0  0  0  0  0  0  0
  -25.4500  -15.2450   20.3170 N   0  0  0  0  0  0  0  0  0  0  0  0
  -24.6820  -15.8880   20.4840 H   0  0  0  0  0  0  0  0  0  0  0  0
  -26.2590  -15.6930   19.9090 H   0  0  0  0  0  0  0  0  0  0  0  0
  -29.2320  -24.0180   20.3340 C   0  0  0  0  0  3  0  0  0  0  0  0
  -28.0970  -25.0740   19.9900 C   0  0  0  0  0  3  0  0  0  0  0  0
  -28.3300  -26.5220   20.1980 O   0  0  0  0  0  0  0  0  0  0  0  0
  -24.6020  -31.8870   23.2610 C   0  0  0  0  0  0  0  0  0  0  0  0
  -27.2080  -27.3660   20.1540 C   0  0  0  0  0  0  0  0  0  0  0  0
  -23.3940  -30.5040   21.6120 C   0  0  0  0  0  3  0  0  0  0  0  0
  -24.8410  -28.9710   20.1680 C   0  0  0  0  0  0  0  0  0  0  0  0
  -25.9340  -30.8280   21.4240 C   0  0  0  0  0  2  0  0  0  0  0  0
  -26.0120  -29.4570   20.7650 C   0  0  0  0  0  0  0  0  0  0  0  0
  -27.2000  -28.6660   20.7480 C   0  0  0  0  0  3  0  0  0  0  0  0
  -26.0110  -26.9380   19.5330 C   0  0  0  0  0  3  0  0  0  0  0  0
  -24.8420  -27.7170   19.5440 C   0  0  0  0  0  3  0  0  0  0  0  0
  -23.6050  -29.8430   20.2260 C   0  0  0  0  0  2  0  0  0  0  0  0
  -24.6620  -31.0890   22.1550 N   0  0  0  0  0  0  0  0  0  0  0  0
  -23.5190  -32.1600   23.8000 O   0  0  0  0  0  0  0  0  0  0  0  0
  -22.7360  -29.4750   22.5640 C   0  0  0  0  0  0  0  0  0  0  0  0
  -21.4120  -29.2940   22.4350 N   0  0  0  0  0  0  0  0  0  0  0  0
  -23.4170  -28.8450   23.3770 O   0  0  0  0  0  0  0  0  0  0  0  0
  -20.9220  -29.8530   21.7520 H   0  0  0  0  0  0  0  0  0  0  0  0
  -18.0360  -28.0930   22.9300 C   0  0  0  0  0  0  0  0  0  0  0  0
  -20.5940  -28.3510   23.2010 C   0  0  0  0  0  3  0  0  0  0  0  0
  -20.6960  -26.9230   22.6150 C   0  0  0  0  0  2  0  0  0  0  0  0
  -19.5930  -26.6080   21.5990 C   0  0  0  0  0  2  0  0  0  0  0  0
  -18.2110  -26.7480   22.2450 C   0  0  0  0  0  2  0  0  0  0  0  0
  -19.1540  -28.8520   23.3650 C   0  0  0  0  0  0  0  0  0  0  0  0
  -18.9350  -30.1120   23.9640 C   0  0  0  0  0  3  0  0  0  0  0  0
  -17.6300  -30.6110   24.1350 C   0  0  0  0  0  3  0  0  0  0  0  0
  -16.5260  -29.8490   23.7160 C   0  0  0  0  0  3  0  0  0  0  0  0
  -16.7300  -28.5920   23.1190 C   0  0  0  0  0  3  0  0  0  0  0  0
  -25.8860  -32.5140   23.8840 C   0  0  0  0  0  3  0  0  0  0  0  0
  -26.4000  -31.7380   25.1580 C   0  0  1  0  0  0  0  0  0  0  0  0
  -25.3050  -31.4990   26.2240 C   0  0  0  0  0  1  0  0  0  0  0  0
  -26.9810  -30.3610   24.7630 C   0  0  0  0  0  1  0  0  0  0  0  0
  -27.5520  -32.5270   25.8240 C   0  0  0  0  0  1  0  0  0  0  0  0
  -25.5800  -33.9120   24.2180 N   0  0  0  0  0  0  0  0  0  0  0  0
  -25.8910  -34.9640   23.4490 C   0  0  0  0  0  0  0  0  0  0  0  0
  -26.5370  -34.8600   22.4030 O   0  0  0  0  0  0  0  0  0  0  0  0
  -25.0020  -34.0670   25.0310 H   0  0  0  0  0  0  0  0  0  0  0  0
  -24.1360  -36.7410   23.1460 C   0  0  0  0  0  1  0  0  0  0  0  0
  -25.4100  -36.3530   23.9140 C   0  0  0  0  0  3  0  0  0  0  0  0
  -27.5640  -37.2630   24.6620 C   0  0  0  0  0  1  0  0  0  0  0  0
  -26.4290  -37.4130   23.7550 N   0  0  0  0  0  0  0  0  0  0  0  0
  -26.0200  -38.3320   23.9070 H   0  0  0  0  0  0  0  0  0  0  0  0
  1  3  2  0
  1 50  1  0
  2  9  1  0
  2  1  1  0
  4  2  1  0
  6  5  1  0
  7  8  1  0
  8 20  1  0
  8  5  2  0
  9  6  2  0
 10  7  2  0
 10  9  1  0
 11 10  1  0
 12 20  1  0
 13 18  1  0
 14 15  1  0
 14 13  1  0
 16 15  1  0
 16 25  1  0
 16 17  1  0
 18 12  1  0
 18 17  1  0
 19 12  2  0
 20 21  1  0
 22 23  2  0
 23 42  1  0
 24 23  1  0
 24 27  1  0
 25 26  1  0
 25 22  1  0
 26 24  2  0
 27 28  1  0
 28 29  2  0
 30 33  1  0
 30 29  1  0
 31 30  2  0
 32 31  1  0
 32 27  2  0
 33 34  1  0
 34 35  1  0
 35 36  2  0
 37 36  1  0
 37 41  1  0
 38 37  2  0
 39 34  2  0
 39 38  1  0
 40 39  1  0
 42 43  1  0
 43 46  1  0
 43 45  1  0
 44 42  2  0
 47 22  1  0
 47 48  1  0
 49 47  1  0
 51 52  1  0
 51 50  2  0
 53 64  2  0
 54 52  1  0
 54 59  1  0
 55 63  1  0
 55 65  1  0
 56 62  1  0
 56 58  1  0
 57 63  1  0
 58 57  1  0
 59 58  2  0
 60 61  1  0
 60 54  2  0
 61 56  2  0
 62 55  1  0
 63 53  1  0
 65 67  2  0
 66 65  1  0
 68 66  1  0
 69 78  2  0
 69 74  1  0
 70 66  1  0
 70 74  1  0
 71 70  1  0
 72 73  1  0
 72 71  1  0
 73 69  1  0
 74 75  2  0
 75 76  1  0
 77 76  2  0
 78 77  1  0
 79 53  1  0
 79 84  1  0
 79 80  1  0
 80 83  1  1
 80 81  1  0
 82 80  1  0
 84 87  1  0
 85 89  1  0
 85 84  1  0
 86 85  2  0
 89 88  1  0
 91 92  1  0
 91 89  1  0
 91 90  1  0
M  ISO  4  12 100  20 100  51 101  52 101
M  END
>  <TORSDO>  (41) 
F 19

>  <SCORE>  (41) 
-13.959

>  <name>  (41) 
40

>  <ligand_id>  (41) 
40

>  <original_smiles>  (41) 
[H]c1c([H])c([H])c2c(c1[H])C([H])([H])C([H])([H])C([H])([H])C2([H])N([H])C(=O)C1([H])N(C(=O)C([H])(N([H])C(=O)C([H])(N([H])C([H])([H])[H])C([H])([H])[H])C(C([H])([H])[H])(C([H])([H])[H])C([H])([H])[H])C([H])([H])c2c([H])c(OC([H])([H])C([H])([H])C(=O)N([H])c3c([H])c([H])c(N([H])C(=O)N4C([H])([H])C([H])([H])C([H])([H])C([H])(n5nc(-c6c([H])c([H])c(Oc7c([H])c([H])c(F)c([H])c7F)c([H])c6[H])c(C(=O)N([H])[H])c5N([H])[H])C4([H])[H])c([H])c3F)c([H])c([H])c2C1([H])[H]

>  <smiles>  (41) 
[H]c1c([H])c([H])c2c(c1[H])C([H])([H])C([H])([H])C([H])([H])C2([H])N([H])C(=O)C1([H])N(C(=O)C([H])(N([H])C(=O)C([H])(N([H])C([H])([H])[H])C([H])([H])[H])C(C([H])([H])[H])(C([H])([H])[H])C([H])([H])[H])C([H])([H])c2c([H])c(OC([H])([H])C([H])([H])C(=O)N([H])c3c([H])c([H])c(N([H])C(=O)N4C([H])([H])C([H])([H])C([H])([H])C([H])(n5nc(-c6c([H])c([H])c(Oc7c([H])c([H])c(F)c([H])c7F)c([H])c6[H])c(C(=O)N([H])[H])c5N([H])[H])C4([H])[H])c([H])c3F)c([H])c([H])c2C1([H])[H]

$$$$
41:0:0
     RDKit          3D

 94102  0  0  1  0  0  0  0  0999 V2000
  -30.8920  -18.0680   20.1960 C   0  0  0  0  0  3  0  0  0  0  0  0
  -30.6000  -19.4600   19.9610 C   0  0  0  0  0  3  0  0  0  0  0  0
  -28.6040  -17.5320   19.7300 C   0  0  0  0  0  3  0  0  0  0  0  0
  -28.3170  -18.8990   19.4470 C   0  0  0  0  0  0  0  0  0  0  0  0
  -29.8860  -17.0630   20.1060 C   0  0  0  0  0  0  0  0  0  0  0  0
  -29.2950  -19.9240   19.6020 C   0  0  0  0  0  0  0  0  0  0  0  0
  -30.8200  -14.5920   20.0000 C   0  0  0  0  0  0  0  0  0  0  0  0
  -30.6330  -12.2720   19.1000 C   0  0  0  0  0  2  0  0  0  0  0  0
  -29.6500  -12.2960   17.9070 C   0  0  0  0  0  2  0  0  0  0  0  0
  -28.1900  -12.1560   18.3860 C   0  0  0  0  0  2  0  0  0  0  0  0
  -27.8570  -13.1070   19.5660 C   0  0  0  0  0  3  0  0  0  0  0  0
  -28.9440  -13.0260   20.6630 C   0  0  0  0  0  2  0  0  0  0  0  0
  -30.2390  -13.3470   20.0340 N   0  0  0  0  0  0  0  0  0  0  0  0
  -31.9580  -14.7560   19.5480 O   0  0  0  0  0  0  0  0  0  0  0  0
  -29.9940  -15.6210   20.3750 N   0  0  0  0  0  0  0  0  0  0  0  0
  -29.1550  -15.2410   20.7890 H   0  0  0  0  0  0  0  0  0  0  0  0
  -25.5420  -13.7750   20.4630 C   0  0  0  0  0  0  0  0  0  0  0  0
  -24.4540  -13.0340   20.8340 C   0  0  0  0  0  0  0  0  0  0  0  0
  -24.8330  -11.6670   20.6690 C   0  0  0  0  0  0  0  0  0  0  0  0
  -26.5210  -12.8620   20.1010 N   0  0  0  0  0  0  0  0  0  0  0  0
  -26.1010  -11.5830   20.2840 N   0  0  0  0  0  0  0  0  0  0  0  0
  -24.0450  -10.4350   20.7980 C   0  0  0  0  0  0  0  0  0  0  0  0
  -24.5150   -9.3340   21.5470 C   0  0  0  0  0  3  0  0  0  0  0  0
  -23.7320   -8.1660   21.6710 C   0  0  0  0  0  3  0  0  0  0  0  0
  -22.4640   -8.0920   21.0470 C   0  0  0  0  0  0  0  0  0  0  0  0
  -22.0110   -9.1820   20.2840 C   0  0  0  0  0  3  0  0  0  0  0  0
  -22.7940  -10.3420   20.1570 C   0  0  0  0  0  3  0  0  0  0  0  0
  -21.6440   -6.9900   21.0930 O   0  0  0  0  0  0  0  0  0  0  0  0
  -21.7390   -6.0650   22.1010 C   0  0  0  0  0  0  0  0  0  0  0  0
  -21.6080   -6.4260   23.4590 C   0  0  0  0  0  3  0  0  0  0  0  0
  -21.6430   -5.4320   24.4590 C   0  0  0  0  0  3  0  0  0  0  0  0
  -21.7980   -4.0790   24.1010 C   0  0  0  0  0  0  0  0  0  0  0  0
  -21.9230   -3.7170   22.7480 C   0  0  0  0  0  3  0  0  0  0  0  0
  -21.8900   -4.7070   21.7510 C   0  0  0  0  0  0  0  0  0  0  0  0
  -21.9900   -4.3510   20.4480 F   0  0  0  0  0  0  0  0  0  0  0  0
  -21.8240   -3.1240   25.0590 F   0  0  0  0  0  0  0  0  0  0  0  0
  -23.1020  -13.5620   21.2200 C   0  0  0  0  0  0  0  0  0  0  0  0
  -22.3880  -12.8440   22.0800 N   0  0  0  0  0  0  0  0  0  0  0  0
  -22.6930  -14.6420   20.7970 O   0  0  0  0  0  0  0  0  0  0  0  0
  -22.7340  -11.9680   22.4430 H   0  0  0  0  0  0  0  0  0  0  0  0
  -21.4830  -13.1760   22.3820 H   0  0  0  0  0  0  0  0  0  0  0  0
  -25.7740  -15.1460   20.3760 N   0  0  0  0  0  0  0  0  0  0  0  0
  -25.0270  -15.8120   20.5350 H   0  0  0  0  0  0  0  0  0  0  0  0
  -26.5760  -15.5470   19.9100 H   0  0  0  0  0  0  0  0  0  0  0  0
  -26.9260  -19.2270   18.9760 C   0  0  0  0  0  0  0  0  0  0  0  0
  -25.4560  -20.0500   17.1930 C   0  0  0  0  0  1  0  0  0  0  0  0
  -27.8920  -19.8810   16.7700 C   0  0  0  0  0  1  0  0  0  0  0  0
  -26.7850  -19.7330   17.7240 N   0  0  0  0  0  0  0  0  0  0  0  0
  -25.9680  -18.9880   19.7170 O   0  0  0  0  0  0  0  0  0  0  0  0
  -28.8680  -21.2710   19.4370 O   0  0  0  0  0  0  0  0  0  0  0  0
  -29.7350  -22.4100   19.1400 C   0  0  0  0  0  2  0  0  0  0  0  0
  -29.3940  -23.8380   19.7990 C   0  0  0  0  0  2  0  0  0  0  0  0
  -28.3890  -24.8860   19.1410 C   0  0  0  0  0  2  0  0  0  0  0  0
  -28.4980  -26.3110   19.5570 O   0  0  0  0  0  0  0  0  0  0  0  0
  -24.7480  -31.4650   22.9430 C   0  0  0  0  0  0  0  0  0  0  0  0
  -27.3630  -27.1430   19.5570 C   0  0  0  0  0  0  0  0  0  0  0  0
  -23.5380  -30.1780   21.2190 C   0  0  0  0  0  3  0  0  0  0  0  0
  -24.9840  -28.7350   19.6770 C   0  0  0  0  0  0  0  0  0  0  0  0
  -26.0720  -30.5200   21.0370 C   0  0  0  0  0  2  0  0  0  0  0  0
  -26.1540  -29.1890   20.2990 C   0  0  0  0  0  0  0  0  0  0  0  0
  -27.3430  -28.4050   20.2300 C   0  0  0  0  0  3  0  0  0  0  0  0
  -26.1700  -26.7510   18.9050 C   0  0  0  0  0  3  0  0  0  0  0  0
  -24.9950  -27.5220   18.9710 C   0  0  0  0  0  3  0  0  0  0  0  0
  -23.7430  -29.5970   19.7960 C   0  0  0  0  0  2  0  0  0  0  0  0
  -24.8050  -30.7350   21.7910 N   0  0  0  0  0  0  0  0  0  0  0  0
  -23.6700  -31.6970   23.5070 O   0  0  0  0  0  0  0  0  0  0  0  0
  -22.8880  -29.0940   22.1130 C   0  0  0  0  0  0  0  0  0  0  0  0
  -21.5570  -28.9430   22.0160 N   0  0  0  0  0  0  0  0  0  0  0  0
  -23.5820  -28.3960   22.8590 O   0  0  0  0  0  0  0  0  0  0  0  0
  -21.0540  -29.5590   21.3900 H   0  0  0  0  0  0  0  0  0  0  0  0
  -18.1820  -27.7560   22.5270 C   0  0  0  0  0  0  0  0  0  0  0  0
  -20.7500  -27.9560   22.7340 C   0  0  0  0  0  3  0  0  0  0  0  0
  -20.8120  -26.5760   22.0400 C   0  0  0  0  0  2  0  0  0  0  0  0
  -19.6730  -26.3550   21.0400 C   0  0  0  0  0  2  0  0  0  0  0  0
  -18.3150  -26.4650   21.7360 C   0  0  0  0  0  2  0  0  0  0  0  0
  -19.3250  -28.4640   22.9830 C   0  0  0  0  0  0  0  0  0  0  0  0
  -19.1450  -29.6760   23.6840 C   0  0  0  0  0  3  0  0  0  0  0  0
  -17.8540  -30.1790   23.9330 C   0  0  0  0  0  3  0  0  0  0  0  0
  -16.7250  -29.4680   23.4920 C   0  0  0  0  0  3  0  0  0  0  0  0
  -16.8910  -28.2560   22.7960 C   0  0  0  0  0  3  0  0  0  0  0  0
  -26.0350  -32.0590   23.5970 C   0  0  0  0  0  3  0  0  0  0  0  0
  -25.7190  -33.4240   24.0420 N   0  0  0  0  0  0  0  0  0  0  0  0
  -26.0480  -34.5370   23.3750 C   0  0  0  0  0  0  0  0  0  0  0  0
  -26.7220  -34.5220   22.3410 O   0  0  0  0  0  0  0  0  0  0  0  0
  -25.1260  -33.5080   24.8550 H   0  0  0  0  0  0  0  0  0  0  0  0
  -24.3130  -36.3440   23.1640 C   0  0  0  0  0  1  0  0  0  0  0  0
  -25.5540  -35.8810   23.9450 C   0  0  0  0  0  3  0  0  0  0  0  0
  -27.6850  -36.7000   24.8500 C   0  0  0  0  0  1  0  0  0  0  0  0
  -26.5800  -36.9460   23.9250 N   0  0  0  0  0  0  0  0  0  0  0  0
  -26.1700  -37.8470   24.1540 H   0  0  0  0  0  0  0  0  0  0  0  0
  -26.5740  -31.1960   24.8020 C   0  0  1  0  0  0  0  0  0  0  0  0
  -25.5010  -30.8790   25.8690 C   0  0  0  0  0  1  0  0  0  0  0  0
  -27.1560  -29.8560   24.2980 C   0  0  0  0  0  1  0  0  0  0  0  0
  -27.7350  -31.9420   25.5010 C   0  0  0  0  0  1  0  0  0  0  0  0
  2  1  2  0
  3  5  2  0
  4  6  2  0
  4  3  1  0
  5  1  1  0
  5 15  1  0
  6  2  1  0
  7 13  1  0
  7 15  1  0
  8 13  1  0
  9 10  1  0
  9  8  1  0
 11 10  1  0
 11 20  1  0
 11 12  1  0
 13 12  1  0
 14  7  2  0
 15 16  1  0
 17 18  2  0
 18 37  1  0
 19 22  1  0
 19 18  1  0
 20 21  1  0
 20 17  1  0
 21 19  2  0
 22 23  1  0
 23 24  2  0
 25 28  1  0
 25 24  1  0
 26 25  2  0
 27 26  1  0
 27 22  2  0
 28 29  1  0
 29 30  1  0
 30 31  2  0
 32 31  1  0
 32 36  1  0
 33 32  2  0
 34 29  2  0
 34 33  1  0
 35 34  1  0
 37 38  1  0
 38 41  1  0
 38 40  1  0
 39 37  2  0
 42 17  1  0
 42 43  1  0
 44 42  1  0
 45  4  1  0
 45 49  2  0
 46 48  1  0
 47 48  1  0
 48 45  1  0
 50  6  1  0
 51 50  1  0
 51 52  1  0
 53 54  1  0
 53 52  1  0
 55 66  2  0
 56 54  1  0
 56 61  1  0
 57 65  1  0
 57 67  1  0
 58 64  1  0
 58 60  1  0
 59 65  1  0
 60 59  1  0
 61 60  2  0
 62 63  1  0
 62 56  2  0
 63 58  2  0
 64 57  1  0
 65 55  1  0
 67 69  2  0
 68 67  1  0
 70 68  1  0
 71 80  2  0
 71 76  1  0
 72 68  1  0
 72 76  1  0
 73 72  1  0
 74 75  1  0
 74 73  1  0
 75 71  1  0
 76 77  2  0
 77 78  1  0
 79 78  2  0
 80 79  1  0
 81 55  1  0
 81 82  1  0
 81 91  1  0
 82 85  1  0
 83 87  1  0
 83 82  1  0
 84 83  2  0
 87 86  1  0
 89 87  1  0
 89 90  1  0
 89 88  1  0
 91 94  1  1
 91 92  1  0
 93 91  1  0
M  ISO  4   7 100  15 100  53 101  54 101
M  END
>  <TORSDO>  (42) 
F 21

>  <SCORE>  (42) 
-11.340

>  <name>  (42) 
41

>  <ligand_id>  (42) 
41

>  <original_smiles>  (42) 
[H]c1c([H])c([H])c2c(c1[H])C([H])([H])C([H])([H])C([H])([H])C2([H])N([H])C(=O)C1([H])N(C(=O)C([H])(N([H])C(=O)C([H])(N([H])C([H])([H])[H])C([H])([H])[H])C(C([H])([H])[H])(C([H])([H])[H])C([H])([H])[H])C([H])([H])c2c([H])c(OC([H])([H])C([H])([H])C([H])([H])Oc3c([H])c([H])c(N([H])C(=O)N4C([H])([H])C([H])([H])C([H])([H])C([H])(n5nc(-c6c([H])c([H])c(Oc7c([H])c([H])c(F)c([H])c7F)c([H])c6[H])c(C(=O)N([H])[H])c5N([H])[H])C4([H])[H])c([H])c3C(=O)N(C([H])([H])[H])C([H])([H])[H])c([H])c([H])c2C1([H])[H]

>  <smiles>  (42) 
[H]c1c([H])c([H])c2c(c1[H])C([H])([H])C([H])([H])C([H])([H])C2([H])N([H])C(=O)C1([H])N(C(=O)C([H])(N([H])C(=O)C([H])(N([H])C([H])([H])[H])C([H])([H])[H])C(C([H])([H])[H])(C([H])([H])[H])C([H])([H])[H])C([H])([H])c2c([H])c(OC([H])([H])C([H])([H])C([H])([H])Oc3c([H])c([H])c(N([H])C(=O)N4C([H])([H])C([H])([H])C([H])([H])C([H])(n5nc(-c6c([H])c([H])c(Oc7c([H])c([H])c(F)c([H])c7F)c([H])c6[H])c(C(=O)N([H])[H])c5N([H])[H])C4([H])[H])c([H])c3C(=O)N(C([H])([H])[H])C([H])([H])[H])c([H])c([H])c2C1([H])[H]

$$$$
42:0:0
     RDKit          3D

 92100  0  0  1  0  0  0  0  0999 V2000
  -30.0600  -20.1450   21.1730 C   0  0  0  0  0  3  0  0  0  0  0  0
  -29.1360  -18.2010   19.4100 C   0  0  0  0  0  3  0  0  0  0  0  0
  -29.1870  -20.6700   20.1610 C   0  0  0  0  0  0  0  0  0  0  0  0
  -29.9470  -17.6590   20.4600 C   0  0  0  0  0  0  0  0  0  0  0  0
  -30.4190  -18.7380   21.3120 C   0  0  0  0  0  0  0  0  0  0  0  0
  -28.7800  -19.6080   19.2700 C   0  0  0  0  0  0  0  0  0  0  0  0
  -31.2490  -18.4350   22.3390 F   0  0  0  0  0  0  0  0  0  0  0  0
  -27.7600  -20.0300   17.9400 Cl  0  0  0  0  0  0  0  0  0  0  0  0
  -30.6620  -15.0420   20.0840 C   0  0  0  0  0  0  0  0  0  0  0  0
  -30.4270  -12.7450   19.0040 C   0  0  0  0  0  2  0  0  0  0  0  0
  -29.4230  -12.7380   17.8250 C   0  0  0  0  0  2  0  0  0  0  0  0
  -27.9870  -12.5150   18.3280 C   0  0  0  0  0  2  0  0  0  0  0  0
  -27.6580  -13.3950   19.5570 C   0  0  0  0  0  3  0  0  0  0  0  0
  -28.7670  -13.3580   20.6230 C   0  0  0  0  0  2  0  0  0  0  0  0
  -30.0220  -13.7990   19.9870 N   0  0  0  0  0  0  0  0  0  0  0  0
  -31.7660  -15.1460   19.5320 O   0  0  0  0  0  0  0  0  0  0  0  0
  -30.2110  -15.9180   22.2450 C   0  0  0  0  0  1  0  0  0  0  0  0
  -30.1050  -16.1500   20.7940 N   0  0  0  0  0  0  0  0  0  0  0  0
  -25.3290  -13.9490   20.4610 C   0  0  0  0  0  0  0  0  0  0  0  0
  -24.2890  -13.1610   20.8680 C   0  0  0  0  0  0  0  0  0  0  0  0
  -24.7490  -11.8120   20.7690 C   0  0  0  0  0  0  0  0  0  0  0  0
  -26.3530  -13.0780   20.1270 N   0  0  0  0  0  0  0  0  0  0  0  0
  -26.0190  -11.7860   20.3780 N   0  0  0  0  0  0  0  0  0  0  0  0
  -24.0370  -10.5420   20.9660 C   0  0  0  0  0  0  0  0  0  0  0  0
  -24.4900   -9.5740   21.8870 C   0  0  0  0  0  3  0  0  0  0  0  0
  -23.7770   -8.3710   22.0710 C   0  0  0  0  0  3  0  0  0  0  0  0
  -22.5950   -8.1260   21.3320 C   0  0  0  0  0  0  0  0  0  0  0  0
  -22.1610   -9.0850   20.4000 C   0  0  0  0  0  3  0  0  0  0  0  0
  -22.8750  -10.2800   20.2150 C   0  0  0  0  0  3  0  0  0  0  0  0
  -21.8520   -6.9750   21.4250 O   0  0  0  0  0  0  0  0  0  0  0  0
  -21.7720   -6.2600   22.5930 C   0  0  0  0  0  0  0  0  0  0  0  0
  -21.2960   -6.8400   23.7880 C   0  0  0  0  0  3  0  0  0  0  0  0
  -21.1650   -6.0550   24.9490 C   0  0  0  0  0  3  0  0  0  0  0  0
  -21.4990   -4.6880   24.9160 C   0  0  0  0  0  0  0  0  0  0  0  0
  -21.9680   -4.1060   23.7270 C   0  0  0  0  0  3  0  0  0  0  0  0
  -22.1020   -4.8890   22.5670 C   0  0  0  0  0  0  0  0  0  0  0  0
  -22.5350   -4.3210   21.4150 F   0  0  0  0  0  0  0  0  0  0  0  0
  -21.3670   -3.9290   26.0300 F   0  0  0  0  0  0  0  0  0  0  0  0
  -22.9140  -13.6280   21.2400 C   0  0  0  0  0  0  0  0  0  0  0  0
  -22.2430  -12.9080   22.1330 N   0  0  0  0  0  0  0  0  0  0  0  0
  -22.4420  -14.6670   20.7760 O   0  0  0  0  0  0  0  0  0  0  0  0
  -22.6380  -12.0670   22.5260 H   0  0  0  0  0  0  0  0  0  0  0  0
  -21.3250  -13.2050   22.4280 H   0  0  0  0  0  0  0  0  0  0  0  0
  -25.4890  -15.3230   20.3200 N   0  0  0  0  0  0  0  0  0  0  0  0
  -24.7500  -15.9870   20.5280 H   0  0  0  0  0  0  0  0  0  0  0  0
  -26.3250  -15.7660   19.9620 H   0  0  0  0  0  0  0  0  0  0  0  0
  -28.8530  -23.4140   20.4900 C   0  0  0  0  0  0  0  0  0  0  0  0
  -28.6560  -22.1050   19.9750 N   0  0  0  0  0  0  0  0  0  0  0  0
  -29.7250  -23.6080   21.3420 O   0  0  0  0  0  0  0  0  0  0  0  0
  -27.9340  -22.1220   19.2630 H   0  0  0  0  0  0  0  0  0  0  0  0
  -27.9270  -24.7110   20.0080 C   0  0  0  0  0  2  0  0  0  0  0  0
  -28.2150  -26.2080   20.3510 O   0  0  0  0  0  0  0  0  0  0  0  0
  -24.6150  -31.9540   23.2470 C   0  0  0  0  0  0  0  0  0  0  0  0
  -27.1740  -27.2080   20.2500 C   0  0  0  0  0  0  0  0  0  0  0  0
  -23.4050  -30.5520   21.6210 C   0  0  0  0  0  3  0  0  0  0  0  0
  -24.8500  -28.9690   20.2010 C   0  0  0  0  0  0  0  0  0  0  0  0
  -25.9650  -30.8030   21.4560 C   0  0  0  0  0  2  0  0  0  0  0  0
  -26.0310  -29.4100   20.8090 C   0  0  0  0  0  0  0  0  0  0  0  0
  -27.1930  -28.5460   20.8200 C   0  0  0  0  0  3  0  0  0  0  0  0
  -25.9690  -26.8790   19.5860 C   0  0  0  0  0  3  0  0  0  0  0  0
  -24.8340  -27.7200   19.5690 C   0  0  0  0  0  3  0  0  0  0  0  0
  -23.6230  -29.8710   20.2450 C   0  0  0  0  0  2  0  0  0  0  0  0
  -24.6820  -31.1260   22.1600 N   0  0  0  0  0  0  0  0  0  0  0  0
  -23.5310  -32.2480   23.7750 O   0  0  0  0  0  0  0  0  0  0  0  0
  -22.7300  -29.5500   22.5920 C   0  0  0  0  0  0  0  0  0  0  0  0
  -21.4020  -29.3740   22.4660 N   0  0  0  0  0  0  0  0  0  0  0  0
  -23.4030  -28.9310   23.4220 O   0  0  0  0  0  0  0  0  0  0  0  0
  -20.9160  -29.9250   21.7730 H   0  0  0  0  0  0  0  0  0  0  0  0
  -18.0240  -28.1640   22.9690 C   0  0  0  0  0  0  0  0  0  0  0  0
  -20.5830  -28.4410   23.2460 C   0  0  0  0  0  3  0  0  0  0  0  0
  -20.6930  -27.0030   22.6890 C   0  0  0  0  0  2  0  0  0  0  0  0
  -19.5960  -26.6610   21.6750 C   0  0  0  0  0  2  0  0  0  0  0  0
  -18.2100  -26.8080   22.3090 C   0  0  0  0  0  2  0  0  0  0  0  0
  -19.1370  -28.9370   23.3930 C   0  0  0  0  0  0  0  0  0  0  0  0
  -18.9110  -30.2060   23.9720 C   0  0  0  0  0  3  0  0  0  0  0  0
  -17.6030  -30.7030   24.1300 C   0  0  0  0  0  3  0  0  0  0  0  0
  -16.5050  -29.9270   23.7220 C   0  0  0  0  0  3  0  0  0  0  0  0
  -16.7150  -28.6600   23.1490 C   0  0  0  0  0  3  0  0  0  0  0  0
  -25.8950  -32.5920   23.8630 C   0  0  0  0  0  3  0  0  0  0  0  0
  -25.5840  -33.9930   24.1880 N   0  0  0  0  0  0  0  0  0  0  0  0
  -25.8970  -35.0440   23.4200 C   0  0  0  0  0  0  0  0  0  0  0  0
  -26.5440  -34.9380   22.3760 O   0  0  0  0  0  0  0  0  0  0  0  0
  -25.0100  -34.1490   25.0030 H   0  0  0  0  0  0  0  0  0  0  0  0
  -24.1410  -36.8230   23.1170 C   0  0  0  0  0  1  0  0  0  0  0  0
  -25.4160  -36.4350   23.8830 C   0  0  0  0  0  3  0  0  0  0  0  0
  -27.5750  -37.3430   24.6260 C   0  0  0  0  0  1  0  0  0  0  0  0
  -26.4350  -37.4970   23.7260 N   0  0  0  0  0  0  0  0  0  0  0  0
  -26.0250  -38.4120   23.8910 H   0  0  0  0  0  0  0  0  0  0  0  0
  -26.4080  -31.8350   25.1510 C   0  0  1  0  0  0  0  0  0  0  0  0
  -25.3070  -31.6070   26.2130 C   0  0  0  0  0  1  0  0  0  0  0  0
  -27.0010  -30.4550   24.7800 C   0  0  0  0  0  1  0  0  0  0  0  0
  -27.5540  -32.6410   25.8070 C   0  0  0  0  0  1  0  0  0  0  0  0
  1  5  1  0
  2  4  1  0
  3  1  2  0
  4 18  1  0
  4  5  2  0
  5  7  1  0
  6  2  2  0
  6  3  1  0
  8  6  1  0
  9 18  1  0
 10 15  1  0
 11 12  1  0
 11 10  1  0
 13 12  1  0
 13 22  1  0
 13 14  1  0
 15  9  1  0
 15 14  1  0
 16  9  2  0
 18 17  1  0
 19 20  2  0
 20 39  1  0
 21 20  1  0
 21 24  1  0
 22 23  1  0
 22 19  1  0
 23 21  2  0
 24 25  1  0
 25 26  2  0
 27 30  1  0
 27 26  1  0
 28 27  2  0
 29 28  1  0
 29 24  2  0
 30 31  1  0
 31 32  1  0
 32 33  2  0
 34 33  1  0
 34 38  1  0
 35 34  2  0
 36 31  2  0
 36 35  1  0
 37 36  1  0
 39 40  1  0
 40 43  1  0
 40 42  1  0
 41 39  2  0
 44 19  1  0
 44 45  1  0
 46 44  1  0
 47 49  2  0
 48  3  1  0
 48 47  1  0
 50 48  1  0
 51 52  1  0
 51 47  1  0
 53 64  2  0
 54 52  1  0
 54 59  1  0
 55 63  1  0
 55 65  1  0
 56 62  1  0
 56 58  1  0
 57 63  1  0
 58 59  2  0
 58 57  1  0
 60 54  2  0
 61 60  1  0
 61 56  2  0
 62 55  1  0
 63 53  1  0
 65 67  2  0
 66 65  1  0
 68 66  1  0
 69 78  2  0
 69 74  1  0
 70 66  1  0
 70 74  1  0
 71 70  1  0
 72 73  1  0
 72 71  1  0
 73 69  1  0
 74 75  2  0
 75 76  1  0
 77 76  2  0
 78 77  1  0
 79 53  1  0
 79 80  1  0
 79 89  1  0
 80 83  1  0
 81 85  1  0
 81 80  1  0
 82 81  2  0
 85 84  1  0
 87 85  1  0
 87 88  1  0
 87 86  1  0
 89 92  1  1
 89 90  1  0
 91 89  1  0
M  ISO  4   9 100  18 100  51 101  52 101
M  END
>  <TORSDO>  (43) 
F 18

>  <SCORE>  (43) 
-14.384

>  <name>  (43) 
42

>  <ligand_id>  (43) 
42

>  <original_smiles>  (43) 
[H]c1c([H])c([H])c2c(c1[H])C([H])([H])C([H])([H])C([H])([H])C2([H])N([H])C(=O)C1([H])N(C(=O)C([H])(N([H])C(=O)C([H])(N([H])C([H])([H])[H])C([H])([H])[H])C(C([H])([H])[H])(C([H])([H])[H])C([H])([H])[H])C([H])([H])c2c([H])c(OC([H])([H])C(=O)N([H])c3c([H])c(F)c(N(C(=O)N4C([H])([H])C([H])([H])C([H])([H])C([H])(n5nc(-c6c([H])c([H])c(Oc7c([H])c([H])c(F)c([H])c7F)c([H])c6[H])c(C(=O)N([H])[H])c5N([H])[H])C4([H])[H])C([H])([H])[H])c([H])c3Cl)c([H])c([H])c2C1([H])[H]

>  <smiles>  (43) 
[H]c1c([H])c([H])c2c(c1[H])C([H])([H])C([H])([H])C([H])([H])C2([H])N([H])C(=O)C1([H])N(C(=O)C([H])(N([H])C(=O)C([H])(N([H])C([H])([H])[H])C([H])([H])[H])C(C([H])([H])[H])(C([H])([H])[H])C([H])([H])[H])C([H])([H])c2c([H])c(OC([H])([H])C(=O)N([H])c3c([H])c(F)c(N(C(=O)N4C([H])([H])C([H])([H])C([H])([H])C([H])(n5nc(-c6c([H])c([H])c(Oc7c([H])c([H])c(F)c([H])c7F)c([H])c6[H])c(C(=O)N([H])[H])c5N([H])[H])C4([H])[H])C([H])([H])[H])c([H])c3Cl)c([H])c([H])c2C1([H])[H]

$$$$
43:0:0
     RDKit          3D

 89 97  0  0  1  0  0  0  0  0999 V2000
  -31.3780  -18.2460   20.5400 C   0  0  0  0  0  3  0  0  0  0  0  0
  -30.8570  -20.6820   20.4990 C   0  0  0  0  0  3  0  0  0  0  0  0
  -29.0950  -19.0250   20.4070 C   0  0  0  0  0  3  0  0  0  0  0  0
  -31.7800  -19.6070   20.5600 C   0  0  0  0  0  0  0  0  0  0  0  0
  -30.0240  -17.8420   20.4630 C   0  0  0  0  0  0  0  0  0  0  0  0
  -29.4630  -20.4860   20.4180 C   0  0  0  0  0  0  0  0  0  0  0  0
  -33.2620  -19.9270   20.6410 C   0  0  0  0  0  1  0  0  0  0  0  0
  -30.4790  -15.0980   20.3170 C   0  0  0  0  0  0  0  0  0  0  0  0
  -30.3620  -12.7340   19.3610 C   0  0  0  0  0  2  0  0  0  0  0  0
  -29.4140  -12.6600   18.1420 C   0  0  0  0  0  2  0  0  0  0  0  0
  -27.9640  -12.4120   18.5980 C   0  0  0  0  0  2  0  0  0  0  0  0
  -27.5560  -13.3370   19.7750 C   0  0  0  0  0  3  0  0  0  0  0  0
  -28.6280  -13.3870   20.8860 C   0  0  0  0  0  2  0  0  0  0  0  0
  -29.8780  -13.8320   20.2550 N   0  0  0  0  0  0  0  0  0  0  0  0
  -31.6840  -15.1240   20.0340 O   0  0  0  0  0  0  0  0  0  0  0  0
  -29.7120  -16.3120   20.4730 N   0  0  0  0  0  0  0  0  0  0  0  0
  -28.7340  -16.1060   20.6090 H   0  0  0  0  0  0  0  0  0  0  0  0
  -25.1870  -13.8850   20.5640 C   0  0  0  0  0  0  0  0  0  0  0  0
  -24.1340  -13.0960   20.9430 C   0  0  0  0  0  0  0  0  0  0  0  0
  -24.6090  -11.7500   20.8870 C   0  0  0  0  0  0  0  0  0  0  0  0
  -26.2330  -13.0180   20.2950 N   0  0  0  0  0  0  0  0  0  0  0  0
  -25.8960  -11.7270   20.5570 N   0  0  0  0  0  0  0  0  0  0  0  0
  -23.8940  -10.4800   21.0730 C   0  0  0  0  0  0  0  0  0  0  0  0
  -24.3420   -9.5050   21.9920 C   0  0  0  0  0  3  0  0  0  0  0  0
  -23.6250   -8.3010   22.1660 C   0  0  0  0  0  3  0  0  0  0  0  0
  -22.4450   -8.0640   21.4200 C   0  0  0  0  0  0  0  0  0  0  0  0
  -22.0160   -9.0280   20.4910 C   0  0  0  0  0  3  0  0  0  0  0  0
  -22.7340  -10.2230   20.3150 C   0  0  0  0  0  3  0  0  0  0  0  0
  -21.6980   -6.9150   21.5050 O   0  0  0  0  0  0  0  0  0  0  0  0
  -21.6580   -6.1640   22.6540 C   0  0  0  0  0  0  0  0  0  0  0  0
  -21.2130   -6.7030   23.8800 C   0  0  0  0  0  3  0  0  0  0  0  0
  -21.1220   -5.8780   25.0190 C   0  0  0  0  0  3  0  0  0  0  0  0
  -21.4670   -4.5160   24.9330 C   0  0  0  0  0  0  0  0  0  0  0  0
  -21.9060   -3.9770   23.7110 C   0  0  0  0  0  3  0  0  0  0  0  0
  -21.9980   -4.7990   22.5740 C   0  0  0  0  0  0  0  0  0  0  0  0
  -22.4020   -4.2690   21.3930 F   0  0  0  0  0  0  0  0  0  0  0  0
  -21.3730   -3.7210   26.0250 F   0  0  0  0  0  0  0  0  0  0  0  0
  -22.7370  -13.5610   21.2370 C   0  0  0  0  0  0  0  0  0  0  0  0
  -22.0260  -12.8560   22.1080 N   0  0  0  0  0  0  0  0  0  0  0  0
  -22.2840  -14.5850   20.7280 O   0  0  0  0  0  0  0  0  0  0  0  0
  -22.4050  -12.0290   22.5450 H   0  0  0  0  0  0  0  0  0  0  0  0
  -21.0890  -13.1510   22.3470 H   0  0  0  0  0  0  0  0  0  0  0  0
  -25.3360  -15.2580   20.4000 N   0  0  0  0  0  0  0  0  0  0  0  0
  -24.5640  -15.9020   20.5360 H   0  0  0  0  0  0  0  0  0  0  0  0
  -26.1580  -15.7040   20.0150 H   0  0  0  0  0  0  0  0  0  0  0  0
  -28.5800  -21.6770   20.3460 O   0  0  0  0  0  0  0  0  0  0  0  0
  -28.9720  -23.2050   20.4080 C   0  0  0  0  0  3  0  0  0  0  0  0
  -27.9470  -24.5760   20.2080 C   0  0  0  0  0  3  0  0  0  0  0  0
  -28.2250  -26.1310   20.3500 O   0  0  0  0  0  0  0  0  0  0  0  0
  -24.6360  -31.9400   23.2650 C   0  0  0  0  0  0  0  0  0  0  0  0
  -27.1850  -27.1480   20.2770 C   0  0  0  0  0  0  0  0  0  0  0  0
  -23.4330  -30.5440   21.6310 C   0  0  0  0  0  3  0  0  0  0  0  0
  -24.8740  -28.9430   20.2210 C   0  0  0  0  0  0  0  0  0  0  0  0
  -25.9930  -30.7780   21.4750 C   0  0  0  0  0  2  0  0  0  0  0  0
  -26.0580  -29.3760   20.8300 C   0  0  0  0  0  0  0  0  0  0  0  0
  -27.2120  -28.4970   20.8360 C   0  0  0  0  0  3  0  0  0  0  0  0
  -25.9710  -26.8270   19.6310 C   0  0  0  0  0  3  0  0  0  0  0  0
  -24.8470  -27.6830   19.6040 C   0  0  0  0  0  3  0  0  0  0  0  0
  -23.6550  -29.8550   20.2580 C   0  0  0  0  0  2  0  0  0  0  0  0
  -24.7090  -31.1100   22.1780 N   0  0  0  0  0  0  0  0  0  0  0  0
  -23.5500  -32.2370   23.7850 O   0  0  0  0  0  0  0  0  0  0  0  0
  -22.7390  -29.5510   22.5980 C   0  0  0  0  0  0  0  0  0  0  0  0
  -21.4090  -29.3930   22.4670 N   0  0  0  0  0  0  0  0  0  0  0  0
  -23.4000  -28.9260   23.4310 O   0  0  0  0  0  0  0  0  0  0  0  0
  -20.9310  -29.9470   21.7700 H   0  0  0  0  0  0  0  0  0  0  0  0
  -18.0150  -28.2230   22.9660 C   0  0  0  0  0  0  0  0  0  0  0  0
  -20.5750  -28.4670   23.2400 C   0  0  0  0  0  3  0  0  0  0  0  0
  -20.6680  -27.0310   22.6750 C   0  0  0  0  0  2  0  0  0  0  0  0
  -19.5670  -26.7110   21.6580 C   0  0  0  0  0  2  0  0  0  0  0  0
  -18.1840  -26.8700   22.2960 C   0  0  0  0  0  2  0  0  0  0  0  0
  -19.1370  -28.9800   23.3950 C   0  0  0  0  0  0  0  0  0  0  0  0
  -18.9250  -30.2450   23.9830 C   0  0  0  0  0  3  0  0  0  0  0  0
  -17.6220  -30.7540   24.1460 C   0  0  0  0  0  3  0  0  0  0  0  0
  -16.5140  -29.9960   23.7310 C   0  0  0  0  0  3  0  0  0  0  0  0
  -16.7110  -28.7320   23.1470 C   0  0  0  0  0  3  0  0  0  0  0  0
  -25.9150  -32.5720   23.8950 C   0  0  0  0  0  3  0  0  0  0  0  0
  -26.4060  -31.8110   25.1890 C   0  0  1  0  0  0  0  0  0  0  0  0
  -25.2980  -31.6020   26.2480 C   0  0  0  0  0  1  0  0  0  0  0  0
  -26.9770  -30.4220   24.8270 C   0  0  0  0  0  1  0  0  0  0  0  0
  -27.5580  -32.6010   25.8530 C   0  0  0  0  0  1  0  0  0  0  0  0
  -25.6110  -33.9760   24.2130 N   0  0  0  0  0  0  0  0  0  0  0  0
  -25.9350  -35.0220   23.4410 C   0  0  0  0  0  0  0  0  0  0  0  0
  -26.5840  -34.9060   22.4000 O   0  0  0  0  0  0  0  0  0  0  0  0
  -25.0310  -34.1380   25.0220 H   0  0  0  0  0  0  0  0  0  0  0  0
  -24.1980  -36.8180   23.1270 C   0  0  0  0  0  1  0  0  0  0  0  0
  -25.4670  -36.4200   23.8980 C   0  0  0  0  0  3  0  0  0  0  0  0
  -27.6280  -37.3200   24.6420 C   0  0  0  0  0  1  0  0  0  0  0  0
  -26.4960  -37.4700   23.7320 N   0  0  0  0  0  0  0  0  0  0  0  0
  -26.0960  -38.3940   23.8740 H   0  0  0  0  0  0  0  0  0  0  0  0
  1  4  1  0
  2  4  2  0
  3  6  2  0
  3  5  1  0
  4  7  1  0
  5 16  1  0
  5  1  2  0
  6  2  1  0
  8 16  1  0
  9 14  1  0
 10 11  1  0
 10  9  1  0
 12 11  1  0
 12 21  1  0
 12 13  1  0
 14  8  1  0
 14 13  1  0
 15  8  2  0
 16 17  1  0
 18 19  2  0
 19 38  1  0
 20 19  1  0
 20 23  1  0
 21 22  1  0
 21 18  1  0
 22 20  2  0
 23 24  1  0
 24 25  2  0
 26 29  1  0
 26 25  1  0
 27 26  2  0
 28 27  1  0
 28 23  2  0
 29 30  1  0
 30 31  1  0
 31 32  2  0
 33 32  1  0
 33 37  1  0
 34 33  2  0
 35 30  2  0
 35 34  1  0
 36 35  1  0
 38 39  1  0
 39 42  1  0
 39 41  1  0
 40 38  2  0
 43 44  1  0
 43 18  1  0
 45 43  1  0
 46 47  1  0
 46  6  1  0
 48 49  1  0
 48 47  2  0
 50 61  2  0
 51 49  1  0
 51 56  1  0
 52 60  1  0
 52 62  1  0
 53 59  1  0
 53 55  1  0
 54 60  1  0
 55 56  2  0
 55 54  1  0
 57 51  2  0
 58 57  1  0
 58 53  2  0
 59 52  1  0
 60 50  1  0
 62 64  2  0
 63 62  1  0
 65 63  1  0
 66 75  2  0
 66 71  1  0
 67 63  1  0
 67 71  1  0
 68 67  1  0
 69 70  1  0
 69 68  1  0
 70 66  1  0
 71 72  2  0
 72 73  1  0
 74 73  2  0
 75 74  1  0
 76 50  1  0
 76 81  1  0
 76 77  1  0
 77 80  1  1
 77 78  1  0
 79 77  1  0
 81 84  1  0
 82 86  1  0
 82 81  1  0
 83 82  2  0
 86 85  1  0
 88 89  1  0
 88 86  1  0
 88 87  1  0
M  ISO  4   8 100  16 100  48 101  49 101
M  END
>  <TORSDO>  (44) 
F 19

>  <SCORE>  (44) 
-15.105

>  <name>  (44) 
43

>  <ligand_id>  (44) 
43

>  <original_smiles>  (44) 
[H]c1c([H])c([H])c2c(c1[H])C([H])([H])C([H])([H])C([H])([H])C2([H])N([H])C(=O)C1([H])N(C(=O)C([H])(N([H])C(=O)C([H])(N([H])C([H])([H])[H])C([H])([H])[H])C(C([H])([H])[H])(C([H])([H])[H])C([H])([H])[H])C([H])([H])c2c([H])c(OC([H])([H])C([H])([H])Oc3c([H])c(N([H])C(=O)N4C([H])([H])C([H])([H])C([H])([H])C([H])(n5nc(-c6c([H])c([H])c(Oc7c([H])c([H])c(F)c([H])c7F)c([H])c6[H])c(C(=O)N([H])[H])c5N([H])[H])C4([H])[H])c([H])c(C([H])([H])[H])c3[H])c([H])c([H])c2C1([H])[H]

>  <smiles>  (44) 
[H]c1c([H])c([H])c2c(c1[H])C([H])([H])C([H])([H])C([H])([H])C2([H])N([H])C(=O)C1([H])N(C(=O)C([H])(N([H])C(=O)C([H])(N([H])C([H])([H])[H])C([H])([H])[H])C(C([H])([H])[H])(C([H])([H])[H])C([H])([H])[H])C([H])([H])c2c([H])c(OC([H])([H])C([H])([H])Oc3c([H])c(N([H])C(=O)N4C([H])([H])C([H])([H])C([H])([H])C([H])(n5nc(-c6c([H])c([H])c(Oc7c([H])c([H])c(F)c([H])c7F)c([H])c6[H])c(C(=O)N([H])[H])c5N([H])[H])C4([H])[H])c([H])c(C([H])([H])[H])c3[H])c([H])c([H])c2C1([H])[H]

$$$$
44:0:0
     RDKit          3D

 91 99  0  0  1  0  0  0  0  0999 V2000
  -28.2450  -19.0770   20.7740 C   0  0  0  0  0  3  0  0  0  0  0  0
  -30.8000  -18.0480   20.2970 C   0  0  0  0  0  3  0  0  0  0  0  0
  -29.2800  -20.0260   20.5860 C   0  0  0  0  0  0  0  0  0  0  0  0
  -29.7470  -17.1160   20.5240 C   0  0  0  0  0  0  0  0  0  0  0  0
  -28.4730  -17.6780   20.7580 C   0  0  0  0  0  0  0  0  0  0  0  0
  -30.5780  -19.4700   20.3420 C   0  0  0  0  0  0  0  0  0  0  0  0
  -27.4370  -16.8440   20.9980 F   0  0  0  0  0  0  0  0  0  0  0  0
  -31.9390  -20.5120   20.1380 Cl  0  0  0  0  0  0  0  0  0  0  0  0
  -30.5960  -14.6670   20.0920 C   0  0  0  0  0  0  0  0  0  0  0  0
  -30.3390  -12.4720   18.9410 C   0  0  0  0  0  2  0  0  0  0  0  0
  -29.3350  -12.6560   17.7790 C   0  0  0  0  0  2  0  0  0  0  0  0
  -27.8810  -12.4960   18.2680 C   0  0  0  0  0  2  0  0  0  0  0  0
  -27.5890  -13.3070   19.5580 C   0  0  0  0  0  3  0  0  0  0  0  0
  -28.6970  -13.0760   20.6120 C   0  0  0  0  0  2  0  0  0  0  0  0
  -29.9870  -13.4410   19.9960 N   0  0  0  0  0  0  0  0  0  0  0  0
  -31.7240  -14.8700   19.6320 O   0  0  0  0  0  0  0  0  0  0  0  0
  -29.8050  -15.6540   20.6060 N   0  0  0  0  0  0  0  0  0  0  0  0
  -28.9440  -15.2720   20.9670 H   0  0  0  0  0  0  0  0  0  0  0  0
  -25.2120  -13.8970   20.3480 C   0  0  0  0  0  0  0  0  0  0  0  0
  -24.1630  -13.1230   20.7570 C   0  0  0  0  0  0  0  0  0  0  0  0
  -24.6310  -11.7750   20.7160 C   0  0  0  0  0  0  0  0  0  0  0  0
  -26.2570  -13.0240   20.0890 N   0  0  0  0  0  0  0  0  0  0  0  0
  -25.9120  -11.7400   20.3660 N   0  0  0  0  0  0  0  0  0  0  0  0
  -23.9150  -10.5120   20.9330 C   0  0  0  0  0  0  0  0  0  0  0  0
  -24.3790   -9.5490   21.8550 C   0  0  0  0  0  3  0  0  0  0  0  0
  -23.6610   -8.3510   22.0600 C   0  0  0  0  0  3  0  0  0  0  0  0
  -22.4660   -8.1080   21.3420 C   0  0  0  0  0  0  0  0  0  0  0  0
  -22.0200   -9.0610   20.4090 C   0  0  0  0  0  3  0  0  0  0  0  0
  -22.7380  -10.2500   20.2030 C   0  0  0  0  0  3  0  0  0  0  0  0
  -21.7180   -6.9620   21.4560 O   0  0  0  0  0  0  0  0  0  0  0  0
  -21.7010   -6.2260   22.6130 C   0  0  0  0  0  0  0  0  0  0  0  0
  -21.3110   -6.7890   23.8480 C   0  0  0  0  0  3  0  0  0  0  0  0
  -21.2400   -5.9800   25.0000 C   0  0  0  0  0  3  0  0  0  0  0  0
  -21.5500   -4.6100   24.9190 C   0  0  0  0  0  0  0  0  0  0  0  0
  -21.9330   -4.0460   23.6900 C   0  0  0  0  0  3  0  0  0  0  0  0
  -22.0060   -4.8520   22.5400 C   0  0  0  0  0  0  0  0  0  0  0  0
  -22.3560   -4.2990   21.3530 F   0  0  0  0  0  0  0  0  0  0  0  0
  -21.4730   -3.8310   26.0240 F   0  0  0  0  0  0  0  0  0  0  0  0
  -22.7770  -13.6000   21.0810 C   0  0  0  0  0  0  0  0  0  0  0  0
  -22.0850  -12.9090   21.9800 N   0  0  0  0  0  0  0  0  0  0  0  0
  -22.3160  -14.6230   20.5750 O   0  0  0  0  0  0  0  0  0  0  0  0
  -22.4710  -12.0830   22.4120 H   0  0  0  0  0  0  0  0  0  0  0  0
  -21.1570  -13.2120   22.2410 H   0  0  0  0  0  0  0  0  0  0  0  0
  -25.3490  -15.2670   20.1600 N   0  0  0  0  0  0  0  0  0  0  0  0
  -24.5850  -15.9040   20.3550 H   0  0  0  0  0  0  0  0  0  0  0  0
  -26.2320  -15.7490   20.0330 H   0  0  0  0  0  0  0  0  0  0  0  0
  -28.9170  -21.5520   20.8070 C   0  0  0  0  0  2  0  0  0  0  0  0
  -29.4170  -22.7050   19.8480 C   0  0  0  0  0  2  0  0  0  0  0  0
  -28.5480  -24.0340   19.6180 C   0  0  0  0  0  2  0  0  0  0  0  0
  -28.4820  -25.2070   20.6800 C   0  0  0  0  0  2  0  0  0  0  0  0
  -28.4790  -26.6020   20.2020 O   0  0  0  0  0  0  0  0  0  0  0  0
  -24.6390  -31.8940   23.2450 C   0  0  0  0  0  0  0  0  0  0  0  0
  -27.3110  -27.3660   20.2280 C   0  0  0  0  0  0  0  0  0  0  0  0
  -23.4490  -30.4770   21.6050 C   0  0  0  0  0  3  0  0  0  0  0  0
  -24.9170  -28.9210   20.2020 C   0  0  0  0  0  0  0  0  0  0  0  0
  -25.9800  -30.8250   21.4220 C   0  0  0  0  0  2  0  0  0  0  0  0
  -26.0760  -29.4420   20.7920 C   0  0  0  0  0  0  0  0  0  0  0  0
  -27.2760  -28.6770   20.7890 C   0  0  0  0  0  3  0  0  0  0  0  0
  -26.1280  -26.8750   19.6360 C   0  0  0  0  0  3  0  0  0  0  0  0
  -24.9430  -27.6410   19.6180 C   0  0  0  0  0  3  0  0  0  0  0  0
  -23.6720  -29.7850   20.2340 C   0  0  0  0  0  2  0  0  0  0  0  0
  -24.7080  -31.0830   22.1480 N   0  0  0  0  0  0  0  0  0  0  0  0
  -23.5530  -32.1670   23.7760 O   0  0  0  0  0  0  0  0  0  0  0  0
  -22.7900  -29.4650   22.5710 C   0  0  0  0  0  0  0  0  0  0  0  0
  -21.4640  -29.2890   22.4480 N   0  0  0  0  0  0  0  0  0  0  0  0
  -23.4700  -28.8410   23.3890 O   0  0  0  0  0  0  0  0  0  0  0  0
  -20.9750  -29.8460   21.7600 H   0  0  0  0  0  0  0  0  0  0  0  0
  -18.0860  -28.1020   22.9550 C   0  0  0  0  0  0  0  0  0  0  0  0
  -20.6450  -28.3530   23.2200 C   0  0  0  0  0  3  0  0  0  0  0  0
  -20.7430  -26.9220   22.6430 C   0  0  0  0  0  2  0  0  0  0  0  0
  -19.6370  -26.6040   21.6300 C   0  0  0  0  0  2  0  0  0  0  0  0
  -18.2570  -26.7520   22.2780 C   0  0  0  0  0  2  0  0  0  0  0  0
  -19.2070  -28.8600   23.3830 C   0  0  0  0  0  0  0  0  0  0  0  0
  -18.9940  -30.1230   23.9750 C   0  0  0  0  0  3  0  0  0  0  0  0
  -17.6900  -30.6280   24.1450 C   0  0  0  0  0  3  0  0  0  0  0  0
  -16.5830  -29.8660   23.7330 C   0  0  0  0  0  3  0  0  0  0  0  0
  -16.7820  -28.6050   23.1440 C   0  0  0  0  0  3  0  0  0  0  0  0
  -25.9180  -32.5360   23.8690 C   0  0  0  0  0  3  0  0  0  0  0  0
  -26.4310  -31.7750   25.1550 C   0  0  1  0  0  0  0  0  0  0  0  0
  -25.3340  -31.5440   26.2200 C   0  0  0  0  0  1  0  0  0  0  0  0
  -27.0190  -30.3970   24.7750 C   0  0  0  0  0  1  0  0  0  0  0  0
  -27.5760  -32.5780   25.8160 C   0  0  0  0  0  1  0  0  0  0  0  0
  -25.6020  -33.9350   24.1890 N   0  0  0  0  0  0  0  0  0  0  0  0
  -25.9310  -34.9840   23.4230 C   0  0  0  0  0  0  0  0  0  0  0  0
  -26.6020  -34.8760   22.3930 O   0  0  0  0  0  0  0  0  0  0  0  0
  -25.0070  -34.0930   24.9900 H   0  0  0  0  0  0  0  0  0  0  0  0
  -24.1930  -36.7650   23.0590 C   0  0  0  0  0  1  0  0  0  0  0  0
  -25.4390  -36.3740   23.8700 C   0  0  0  0  0  3  0  0  0  0  0  0
  -27.5730  -37.2750   24.6840 C   0  0  0  0  0  1  0  0  0  0  0  0
  -26.4660  -37.4310   23.7440 N   0  0  0  0  0  0  0  0  0  0  0  0
  -26.0560  -38.3500   23.8870 H   0  0  0  0  0  0  0  0  0  0  0  0
  2  6  2  0
  2  4  1  0
  3  1  2  0
  3 47  1  0
  4 17  1  0
  4  5  2  0
  5  1  1  0
  5  7  1  0
  6  3  1  0
  8  6  1  0
  9 17  1  0
 10 15  1  0
 11 12  1  0
 11 10  1  0
 13 12  1  0
 13 22  1  0
 13 14  1  0
 15  9  1  0
 15 14  1  0
 16  9  2  0
 17 18  1  0
 19 20  2  0
 20 39  1  0
 21 20  1  0
 21 24  1  0
 22 19  1  0
 22 23  1  0
 23 21  2  0
 24 25  1  0
 25 26  2  0
 27 30  1  0
 27 26  1  0
 28 27  2  0
 29 28  1  0
 29 24  2  0
 30 31  1  0
 31 32  1  0
 32 33  2  0
 34 33  1  0
 34 38  1  0
 35 34  2  0
 36 31  2  0
 36 35  1  0
 37 36  1  0
 39 40  1  0
 40 43  1  0
 40 42  1  0
 41 39  2  0
 44 19  1  0
 44 45  1  0
 46 44  1  0
 48 47  1  0
 49 48  1  0
 49 50  1  0
 51 53  1  0
 51 50  1  0
 52 63  2  0
 53 58  1  0
 54 62  1  0
 54 64  1  0
 55 61  1  0
 55 57  1  0
 56 62  1  0
 57 56  1  0
 58 57  2  0
 59 53  2  0
 60 59  1  0
 60 55  2  0
 61 54  1  0
 62 52  1  0
 64 66  2  0
 65 64  1  0
 67 65  1  0
 68 77  2  0
 68 73  1  0
 69 65  1  0
 69 73  1  0
 70 69  1  0
 71 72  1  0
 71 70  1  0
 72 68  1  0
 73 74  2  0
 74 75  1  0
 76 75  2  0
 77 76  1  0
 78 52  1  0
 78 83  1  0
 78 79  1  0
 79 82  1  1
 79 80  1  0
 81 79  1  0
 83 86  1  0
 84 88  1  0
 84 83  1  0
 85 84  2  0
 88 87  1  0
 90 88  1  0
 90 91  1  0
 90 89  1  0
M  ISO  4   9 100  17 100  50 101  51 101
M  END
>  <TORSDO>  (45) 
F 20

>  <SCORE>  (45) 
-13.323

>  <name>  (45) 
44

>  <ligand_id>  (45) 
44

>  <original_smiles>  (45) 
[H]c1c([H])c([H])c2c(c1[H])C([H])([H])C([H])([H])C([H])([H])C2([H])N([H])C(=O)C1([H])N(C(=O)C([H])(N([H])C(=O)C([H])(N([H])C([H])([H])[H])C([H])([H])[H])C(C([H])([H])[H])(C([H])([H])[H])C([H])([H])[H])C([H])([H])c2c([H])c(OC([H])([H])C([H])([H])C([H])([H])C([H])([H])c3c([H])c(F)c(N([H])C(=O)N4C([H])([H])C([H])([H])C([H])([H])C([H])(n5nc(-c6c([H])c([H])c(Oc7c([H])c([H])c(F)c([H])c7F)c([H])c6[H])c(C(=O)N([H])[H])c5N([H])[H])C4([H])[H])c([H])c3Cl)c([H])c([H])c2C1([H])[H]

>  <smiles>  (45) 
[H]c1c([H])c([H])c2c(c1[H])C([H])([H])C([H])([H])C([H])([H])C2([H])N([H])C(=O)C1([H])N(C(=O)C([H])(N([H])C(=O)C([H])(N([H])C([H])([H])[H])C([H])([H])[H])C(C([H])([H])[H])(C([H])([H])[H])C([H])([H])[H])C([H])([H])c2c([H])c(OC([H])([H])C([H])([H])C([H])([H])C([H])([H])c3c([H])c(F)c(N([H])C(=O)N4C([H])([H])C([H])([H])C([H])([H])C([H])(n5nc(-c6c([H])c([H])c(Oc7c([H])c([H])c(F)c([H])c7F)c([H])c6[H])c(C(=O)N([H])[H])c5N([H])[H])C4([H])[H])c([H])c3Cl)c([H])c([H])c2C1([H])[H]

$$$$
45:0:0
     RDKit          3D

 94102  0  0  1  0  0  0  0  0999 V2000
  -30.5600  -18.8910   21.3140 C   0  0  0  0  0  3  0  0  0  0  0  0
  -28.7610  -19.7600   19.4290 C   0  0  0  0  0  3  0  0  0  0  0  0
  -29.9180  -17.8250   20.5870 C   0  0  0  0  0  0  0  0  0  0  0  0
  -29.3360  -20.8340   20.1980 C   0  0  0  0  0  0  0  0  0  0  0  0
  -29.0060  -18.3340   19.6100 C   0  0  0  0  0  0  0  0  0  0  0  0
  -30.2940  -20.3230   21.1420 C   0  0  0  0  0  0  0  0  0  0  0  0
  -30.8180  -15.2520   20.8600 C   0  0  0  0  0  0  0  0  0  0  0  0
  -30.8860  -12.8300   20.1370 C   0  0  0  0  0  2  0  0  0  0  0  0
  -30.0810  -12.6670   18.8260 C   0  0  0  0  0  2  0  0  0  0  0  0
  -28.5840  -12.4500   19.1230 C   0  0  0  0  0  2  0  0  0  0  0  0
  -28.0390  -13.4510   20.1740 C   0  0  0  0  0  3  0  0  0  0  0  0
  -28.9740  -13.5620   21.3970 C   0  0  0  0  0  2  0  0  0  0  0  0
  -30.2970  -13.9630   20.8980 N   0  0  0  0  0  0  0  0  0  0  0  0
  -32.0230  -15.3850   20.6190 O   0  0  0  0  0  0  0  0  0  0  0  0
  -29.9370  -16.3490   20.9750 N   0  0  0  0  0  0  0  0  0  0  0  0
  -29.0130  -16.0110   21.1910 H   0  0  0  0  0  0  0  0  0  0  0  0
  -25.5980  -14.0240   20.6940 C   0  0  0  0  0  0  0  0  0  0  0  0
  -24.5110  -13.2480   20.9850 C   0  0  0  0  0  0  0  0  0  0  0  0
  -24.9850  -11.8990   21.0140 C   0  0  0  0  0  0  0  0  0  0  0  0
  -26.6630  -13.1520   20.5560 N   0  0  0  0  0  0  0  0  0  0  0  0
  -26.2970  -11.8690   20.8130 N   0  0  0  0  0  0  0  0  0  0  0  0
  -24.2520  -10.6340   21.1630 C   0  0  0  0  0  0  0  0  0  0  0  0
  -24.6030   -9.6860   22.1500 C   0  0  0  0  0  3  0  0  0  0  0  0
  -23.8690   -8.4880   22.2840 C   0  0  0  0  0  3  0  0  0  0  0  0
  -22.7730   -8.2260   21.4300 C   0  0  0  0  0  0  0  0  0  0  0  0
  -22.4420   -9.1620   20.4340 C   0  0  0  0  0  3  0  0  0  0  0  0
  -23.1760  -10.3520   20.2970 C   0  0  0  0  0  3  0  0  0  0  0  0
  -22.0190   -7.0770   21.4710 O   0  0  0  0  0  0  0  0  0  0  0  0
  -21.8640   -6.3600   22.6290 C   0  0  0  0  0  0  0  0  0  0  0  0
  -21.2890   -6.9300   23.7870 C   0  0  0  0  0  3  0  0  0  0  0  0
  -21.0840   -6.1360   24.9350 C   0  0  0  0  0  3  0  0  0  0  0  0
  -21.4440   -4.7760   24.9240 C   0  0  0  0  0  0  0  0  0  0  0  0
  -22.0130   -4.2060   23.7710 C   0  0  0  0  0  3  0  0  0  0  0  0
  -22.2190   -4.9960   22.6270 C   0  0  0  0  0  0  0  0  0  0  0  0
  -22.7470   -4.4380   21.5110 F   0  0  0  0  0  0  0  0  0  0  0  0
  -21.2400   -4.0120   26.0220 F   0  0  0  0  0  0  0  0  0  0  0  0
  -23.0920  -13.7160   21.1280 C   0  0  0  0  0  0  0  0  0  0  0  0
  -22.2980  -13.0240   21.9370 N   0  0  0  0  0  0  0  0  0  0  0  0
  -22.6940  -14.7330   20.5600 O   0  0  0  0  0  0  0  0  0  0  0  0
  -22.6300  -12.1980   22.4140 H   0  0  0  0  0  0  0  0  0  0  0  0
  -21.3430  -13.3210   22.0800 H   0  0  0  0  0  0  0  0  0  0  0  0
  -25.7660  -15.3950   20.5110 N   0  0  0  0  0  0  0  0  0  0  0  0
  -24.9880  -16.0430   20.5650 H   0  0  0  0  0  0  0  0  0  0  0  0
  -26.6250  -15.8330   20.2040 H   0  0  0  0  0  0  0  0  0  0  0  0
  -27.3540  -22.1990   19.9600 C   0  0  0  0  0  1  0  0  0  0  0  0
  -28.8160  -22.2300   20.0590 N   0  0  0  0  0  0  0  0  0  0  0  0
  -29.3310  -23.6590   20.4120 C   0  0  0  0  0  3  0  0  0  0  0  0
  -28.4420  -25.0250   19.9670 C   0  0  0  0  0  3  0  0  0  0  0  0
  -28.6170  -26.5120   20.3610 O   0  0  0  0  0  0  0  0  0  0  0  0
  -24.7680  -31.9430   23.4560 C   0  0  0  0  0  0  0  0  0  0  0  0
  -27.5330  -27.4560   20.2800 C   0  0  0  0  0  0  0  0  0  0  0  0
  -23.6370  -30.5990   21.7270 C   0  0  0  0  0  3  0  0  0  0  0  0
  -25.1550  -29.1250   20.2660 C   0  0  0  0  0  0  0  0  0  0  0  0
  -26.1850  -30.9350   21.6330 C   0  0  0  0  0  2  0  0  0  0  0  0
  -26.3080  -29.5770   20.9240 C   0  0  0  0  0  0  0  0  0  0  0  0
  -27.4950  -28.7580   20.9180 C   0  0  0  0  0  3  0  0  0  0  0  0
  -26.3590  -27.1120   19.5700 C   0  0  0  0  0  3  0  0  0  0  0  0
  -25.1940  -27.9070   19.5730 C   0  0  0  0  0  3  0  0  0  0  0  0
  -23.9020  -29.9850   20.3260 C   0  0  0  0  0  2  0  0  0  0  0  0
  -24.8820  -31.1790   22.3280 N   0  0  0  0  0  0  0  0  0  0  0  0
  -23.6650  -32.1810   23.9710 O   0  0  0  0  0  0  0  0  0  0  0  0
  -22.9590  -29.5370   22.6280 C   0  0  0  0  0  0  0  0  0  0  0  0
  -21.6480  -29.3140   22.4290 N   0  0  0  0  0  0  0  0  0  0  0  0
  -23.6160  -28.9180   23.4690 O   0  0  0  0  0  0  0  0  0  0  0  0
  -21.1760  -29.8670   21.7270 H   0  0  0  0  0  0  0  0  0  0  0  0
  -18.3080  -27.9400   22.7110 C   0  0  0  0  0  0  0  0  0  0  0  0
  -20.8330  -28.3190   23.1300 C   0  0  0  0  0  3  0  0  0  0  0  0
  -21.0390  -26.9090   22.5300 C   0  0  0  0  0  2  0  0  0  0  0  0
  -20.0130  -26.5530   21.4500 C   0  0  0  0  0  2  0  0  0  0  0  0
  -18.5890  -26.6210   22.0120 C   0  0  0  0  0  2  0  0  0  0  0  0
  -19.3630  -28.7450   23.2220 C   0  0  0  0  0  0  0  0  0  0  0  0
  -19.0470  -29.9790   23.8310 C   0  0  0  0  0  3  0  0  0  0  0  0
  -17.7110  -30.4100   23.9360 C   0  0  0  0  0  3  0  0  0  0  0  0
  -16.6710  -29.6020   23.4440 C   0  0  0  0  0  3  0  0  0  0  0  0
  -16.9700  -28.3680   22.8380 C   0  0  0  0  0  3  0  0  0  0  0  0
  -26.0180  -32.5760   24.1430 C   0  0  0  0  0  3  0  0  0  0  0  0
  -25.6960  -33.9760   24.4610 N   0  0  0  0  0  0  0  0  0  0  0  0
  -26.0250  -35.0280   23.6980 C   0  0  0  0  0  0  0  0  0  0  0  0
  -26.6990  -34.9220   22.6710 O   0  0  0  0  0  0  0  0  0  0  0  0
  -25.0990  -34.1310   25.2600 H   0  0  0  0  0  0  0  0  0  0  0  0
  -24.2720  -36.7990   23.3510 C   0  0  0  0  0  1  0  0  0  0  0  0
  -25.5300  -36.4170   24.1470 C   0  0  0  0  0  3  0  0  0  0  0  0
  -27.6600  -37.3440   24.9430 C   0  0  0  0  0  1  0  0  0  0  0  0
  -26.5490  -37.4800   24.0050 N   0  0  0  0  0  0  0  0  0  0  0  0
  -26.1330  -38.3980   24.1360 H   0  0  0  0  0  0  0  0  0  0  0  0
  -26.4670  -31.8040   25.4460 C   0  0  1  0  0  0  0  0  0  0  0  0
  -25.3140  -31.5460   26.4450 C   0  0  0  0  0  1  0  0  0  0  0  0
  -27.0920  -30.4360   25.0880 C   0  0  0  0  0  1  0  0  0  0  0  0
  -27.5620  -32.6120   26.1810 C   0  0  0  0  0  1  0  0  0  0  0  0
  -27.5900  -17.7710   17.7460 C   0  0  0  0  0  1  0  0  0  0  0  0
  -28.3320  -17.3670   18.8920 O   0  0  0  0  0  0  0  0  0  0  0  0
  -30.9560  -21.2580   21.9070 O   0  0  0  0  0  0  0  0  0  0  0  0
  -30.1900  -22.1060   24.0300 C   0  0  0  0  0  1  0  0  0  0  0  0
  -31.0130  -21.0330   23.3150 C   0  0  0  0  0  2  0  0  0  0  0  0
  2  5  2  0
  2  4  1  0
  3 15  1  0
  3  1  2  0
  4  6  2  0
  5  3  1  0
  6  1  1  0
  6 92  1  0
  7 13  1  0
  7 15  1  0
  8 13  1  0
  9 10  1  0
  9  8  1  0
 11 10  1  0
 11 20  1  0
 11 12  1  0
 13 12  1  0
 14  7  2  0
 15 16  1  0
 17 18  2  0
 18 19  1  0
 18 37  1  0
 19 22  1  0
 20 17  1  0
 20 21  1  0
 21 19  2  0
 22 23  1  0
 23 24  2  0
 25 28  1  0
 25 24  1  0
 26 25  2  0
 27 26  1  0
 27 22  2  0
 28 29  1  0
 29 30  1  0
 30 31  2  0
 32 31  1  0
 32 36  1  0
 33 32  2  0
 34 29  2  0
 34 33  1  0
 35 34  1  0
 37 38  1  0
 38 41  1  0
 38 40  1  0
 39 37  2  0
 42 43  1  0
 42 17  1  0
 44 42  1  0
 45 46  1  0
 46  4  1  0
 46 47  1  0
 48 49  1  0
 48 47  2  0
 50 61  2  0
 51 49  1  0
 51 56  1  0
 52 60  1  0
 52 62  1  0
 53 59  1  0
 53 55  1  0
 54 60  1  0
 55 54  1  0
 56 55  2  0
 57 58  1  0
 57 51  2  0
 58 53  2  0
 59 52  1  0
 60 50  1  0
 62 64  2  0
 63 62  1  0
 65 63  1  0
 66 75  2  0
 66 71  1  0
 67 63  1  0
 67 71  1  0
 68 67  1  0
 69 70  1  0
 69 68  1  0
 70 66  1  0
 71 72  2  0
 72 73  1  0
 74 73  2  0
 75 74  1  0
 76 50  1  0
 76 77  1  0
 76 86  1  0
 77 80  1  0
 78 82  1  0
 78 77  1  0
 79 78  2  0
 82 81  1  0
 84 85  1  0
 84 82  1  0
 84 83  1  0
 86 89  1  1
 86 87  1  0
 88 86  1  0
 90 91  1  0
 91  5  1  0
 92 94  1  0
 94 93  1  0
M  ISO  4   7 100  15 100  48 101  49 101
M  END
>  <TORSDO>  (46) 
F 22

>  <SCORE>  (46) 
-12.792

>  <name>  (46) 
45

>  <ligand_id>  (46) 
45

>  <original_smiles>  (46) 
[H]c1c([H])c([H])c2c(c1[H])C([H])([H])C([H])([H])C([H])([H])C2([H])N([H])C(=O)C1([H])N(C(=O)C([H])(N([H])C(=O)C([H])(N([H])C([H])([H])[H])C([H])([H])[H])C(C([H])([H])[H])(C([H])([H])[H])C([H])([H])[H])C([H])([H])c2c([H])c(OC([H])([H])C([H])([H])N(c3c([H])c(OC([H])([H])[H])c(N([H])C(=O)N4C([H])([H])C([H])([H])C([H])([H])C([H])(n5nc(-c6c([H])c([H])c(Oc7c([H])c([H])c(F)c([H])c7F)c([H])c6[H])c(C(=O)N([H])[H])c5N([H])[H])C4([H])[H])c([H])c3OC([H])([H])C([H])([H])[H])C([H])([H])[H])c([H])c([H])c2C1([H])[H]

>  <smiles>  (46) 
[H]c1c([H])c([H])c2c(c1[H])C([H])([H])C([H])([H])C([H])([H])C2([H])N([H])C(=O)C1([H])N(C(=O)C([H])(N([H])C(=O)C([H])(N([H])C([H])([H])[H])C([H])([H])[H])C(C([H])([H])[H])(C([H])([H])[H])C([H])([H])[H])C([H])([H])c2c([H])c(OC([H])([H])C([H])([H])N(c3c([H])c(OC([H])([H])[H])c(N([H])C(=O)N4C([H])([H])C([H])([H])C([H])([H])C([H])(n5nc(-c6c([H])c([H])c(Oc7c([H])c([H])c(F)c([H])c7F)c([H])c6[H])c(C(=O)N([H])[H])c5N([H])[H])C4([H])[H])c([H])c3OC([H])([H])C([H])([H])[H])C([H])([H])[H])c([H])c([H])c2C1([H])[H]

$$$$
46:0:0
     RDKit          3D

 97105  0  0  1  0  0  0  0  0999 V2000
  -30.6250  -19.3510   18.6530 C   0  0  0  0  0  3  0  0  0  0  0  0
  -30.9010  -16.9400   18.6530 C   0  0  0  0  0  3  0  0  0  0  0  0
  -31.1340  -18.1880   18.0490 C   0  0  0  0  0  0  0  0  0  0  0  0
  -29.8540  -19.2810   19.8390 C   0  0  0  0  0  0  0  0  0  0  0  0
  -30.1890  -16.8270   19.8740 C   0  0  0  0  0  0  0  0  0  0  0  0
  -29.6530  -18.0110   20.4510 C   0  0  0  0  0  0  0  0  0  0  0  0
  -28.9410  -17.9290   21.6020 F   0  0  0  0  0  0  0  0  0  0  0  0
  -30.6910  -14.4290   20.2570 C   0  0  0  0  0  0  0  0  0  0  0  0
  -30.3190  -12.2840   19.1370 C   0  0  0  0  0  2  0  0  0  0  0  0
  -29.3700  -12.5470   17.9490 C   0  0  0  0  0  2  0  0  0  0  0  0
  -27.9010  -12.4320   18.4000 C   0  0  0  0  0  2  0  0  0  0  0  0
  -27.6000  -13.2470   19.6860 C   0  0  0  0  0  3  0  0  0  0  0  0
  -28.6720  -13.0070   20.7750 C   0  0  0  0  0  2  0  0  0  0  0  0
  -29.9890  -13.2680   20.1790 N   0  0  0  0  0  0  0  0  0  0  0  0
  -31.8710  -14.5120   19.9120 O   0  0  0  0  0  0  0  0  0  0  0  0
  -29.9640  -15.5430   20.4880 N   0  0  0  0  0  0  0  0  0  0  0  0
  -29.0830  -15.4270   20.9660 H   0  0  0  0  0  0  0  0  0  0  0  0
  -25.2160  -13.8710   20.4240 C   0  0  0  0  0  0  0  0  0  0  0  0
  -24.1470  -13.1070   20.8090 C   0  0  0  0  0  0  0  0  0  0  0  0
  -24.6000  -11.7520   20.7780 C   0  0  0  0  0  0  0  0  0  0  0  0
  -26.2530  -12.9830   20.1840 N   0  0  0  0  0  0  0  0  0  0  0  0
  -25.8860  -11.7040   20.4560 N   0  0  0  0  0  0  0  0  0  0  0  0
  -23.8680  -10.4950   20.9800 C   0  0  0  0  0  0  0  0  0  0  0  0
  -24.2970   -9.5330   21.9210 C   0  0  0  0  0  3  0  0  0  0  0  0
  -23.5660   -8.3410   22.1100 C   0  0  0  0  0  3  0  0  0  0  0  0
  -22.3910   -8.1020   21.3590 C   0  0  0  0  0  0  0  0  0  0  0  0
  -21.9810   -9.0530   20.4080 C   0  0  0  0  0  3  0  0  0  0  0  0
  -22.7120  -10.2360   20.2170 C   0  0  0  0  0  3  0  0  0  0  0  0
  -21.6310   -6.9620   21.4570 O   0  0  0  0  0  0  0  0  0  0  0  0
  -21.5740   -6.2320   22.6170 C   0  0  0  0  0  0  0  0  0  0  0  0
  -21.1380   -6.8000   23.8340 C   0  0  0  0  0  3  0  0  0  0  0  0
  -21.0300   -5.9970   24.9870 C   0  0  0  0  0  3  0  0  0  0  0  0
  -21.3460   -4.6270   24.9230 C   0  0  0  0  0  0  0  0  0  0  0  0
  -21.7760   -4.0580   23.7110 C   0  0  0  0  0  3  0  0  0  0  0  0
  -21.8860   -4.8590   22.5600 C   0  0  0  0  0  0  0  0  0  0  0  0
  -22.2800   -4.3020   21.3900 F   0  0  0  0  0  0  0  0  0  0  0  0
  -21.2350   -3.8520   26.0280 F   0  0  0  0  0  0  0  0  0  0  0  0
  -22.7570  -13.5950   21.0970 C   0  0  0  0  0  0  0  0  0  0  0  0
  -22.0340  -12.9030   21.9710 N   0  0  0  0  0  0  0  0  0  0  0  0
  -22.3210  -14.6230   20.5810 O   0  0  0  0  0  0  0  0  0  0  0  0
  -22.4020  -12.0710   22.4080 H   0  0  0  0  0  0  0  0  0  0  0  0
  -21.1010  -13.2110   22.2070 H   0  0  0  0  0  0  0  0  0  0  0  0
  -25.3880  -15.2400   20.2380 N   0  0  0  0  0  0  0  0  0  0  0  0
  -24.6260  -15.8980   20.3520 H   0  0  0  0  0  0  0  0  0  0  0  0
  -26.2330  -15.6720   19.8890 H   0  0  0  0  0  0  0  0  0  0  0  0
  -28.9860  -21.6300   19.8600 C   0  0  0  0  0  0  0  0  0  0  0  0
  -29.3280  -20.4650   20.4560 N   0  0  0  0  0  0  0  0  0  0  0  0
  -28.9220  -21.7640   18.6350 O   0  0  0  0  0  0  0  0  0  0  0  0
  -29.1790  -20.4070   21.4550 H   0  0  0  0  0  0  0  0  0  0  0  0
  -28.6200  -22.8240   20.7600 C   0  0  0  0  0  2  0  0  0  0  0  0
  -28.6850  -24.2030   20.0420 C   0  0  0  0  0  2  0  0  0  0  0  0
  -28.3590  -25.3960   20.9640 C   0  0  0  0  0  2  0  0  0  0  0  0
  -28.4640  -26.6640   20.2940 O   0  0  0  0  0  0  0  0  0  0  0  0
  -24.5930  -31.8530   23.2520 C   0  0  0  0  0  0  0  0  0  0  0  0
  -27.3030  -27.4030   20.2580 C   0  0  0  0  0  0  0  0  0  0  0  0
  -23.4210  -30.4390   21.5940 C   0  0  0  0  0  3  0  0  0  0  0  0
  -24.9060  -28.8970   20.2060 C   0  0  0  0  0  0  0  0  0  0  0  0
  -25.9490  -30.8070   21.4410 C   0  0  0  0  0  2  0  0  0  0  0  0
  -26.0510  -29.4330   20.8100 C   0  0  0  0  0  0  0  0  0  0  0  0
  -27.2560  -28.6940   20.8280 C   0  0  0  0  0  3  0  0  0  0  0  0
  -26.1440  -26.8770   19.6490 C   0  0  0  0  0  3  0  0  0  0  0  0
  -24.9470  -27.6180   19.6220 C   0  0  0  0  0  3  0  0  0  0  0  0
  -23.6580  -29.7510   20.2230 C   0  0  0  0  0  2  0  0  0  0  0  0
  -24.6710  -31.0480   22.1540 N   0  0  0  0  0  0  0  0  0  0  0  0
  -23.5000  -32.1260   23.7700 O   0  0  0  0  0  0  0  0  0  0  0  0
  -22.7530  -29.4240   22.5470 C   0  0  0  0  0  0  0  0  0  0  0  0
  -21.4290  -29.2490   22.4030 N   0  0  0  0  0  0  0  0  0  0  0  0
  -23.4230  -28.7940   23.3700 O   0  0  0  0  0  0  0  0  0  0  0  0
  -20.9510  -29.8060   21.7090 H   0  0  0  0  0  0  0  0  0  0  0  0
  -18.0390  -28.0950   22.8760 C   0  0  0  0  0  0  0  0  0  0  0  0
  -20.5980  -28.3180   23.1630 C   0  0  0  0  0  3  0  0  0  0  0  0
  -20.6850  -26.8900   22.5780 C   0  0  0  0  0  2  0  0  0  0  0  0
  -19.5850  -26.5870   21.5550 C   0  0  0  0  0  2  0  0  0  0  0  0
  -18.2010  -26.7480   22.1930 C   0  0  0  0  0  2  0  0  0  0  0  0
  -19.1650  -28.8390   23.3180 C   0  0  0  0  0  0  0  0  0  0  0  0
  -18.9600  -30.1020   23.9140 C   0  0  0  0  0  3  0  0  0  0  0  0
  -17.6610  -30.6200   24.0750 C   0  0  0  0  0  3  0  0  0  0  0  0
  -16.5490  -29.8720   23.6520 C   0  0  0  0  0  3  0  0  0  0  0  0
  -16.7390  -28.6110   23.0580 C   0  0  0  0  0  3  0  0  0  0  0  0
  -25.8660  -32.4890   23.8930 C   0  0  0  0  0  3  0  0  0  0  0  0
  -25.5530  -33.8900   24.2020 N   0  0  0  0  0  0  0  0  0  0  0  0
  -25.9000  -34.9340   23.4370 C   0  0  0  0  0  0  0  0  0  0  0  0
  -26.5890  -34.8180   22.4200 O   0  0  0  0  0  0  0  0  0  0  0  0
  -24.9450  -34.0550   24.9910 H   0  0  0  0  0  0  0  0  0  0  0  0
  -24.1790  -36.7220   23.0270 C   0  0  0  0  0  1  0  0  0  0  0  0
  -25.4040  -36.3260   23.8690 C   0  0  0  0  0  3  0  0  0  0  0  0
  -27.5190  -37.2200   24.7360 C   0  0  0  0  0  1  0  0  0  0  0  0
  -26.4390  -37.3780   23.7660 N   0  0  0  0  0  0  0  0  0  0  0  0
  -26.0290  -38.2990   23.8960 H   0  0  0  0  0  0  0  0  0  0  0  0
  -26.3590  -31.7290   25.1840 C   0  0  1  0  0  0  0  0  0  0  0  0
  -25.2470  -31.4950   26.2320 C   0  0  0  0  0  1  0  0  0  0  0  0
  -26.9540  -30.3490   24.8130 C   0  0  0  0  0  1  0  0  0  0  0  0
  -27.4960  -32.5290   25.8640 C   0  0  0  0  0  1  0  0  0  0  0  0
  -31.9430  -18.2590   16.7630 C   0  0  1  0  0  0  0  0  0  0  0  0
  -31.8350  -19.4490   16.1710 F   0  0  0  0  0  0  0  0  0  0  0  0
  -33.2280  -18.0370   17.0350 F   0  0  0  0  0  0  0  0  0  0  0  0
  -31.5250  -17.3280   15.9040 F   0  0  0  0  0  0  0  0  0  0  0  0
  1  4  1  0
  2  5  2  0
  3  2  1  0
  3  1  2  0
  4  6  2  0
  4 47  1  0
  5  6  1  0
  5 16  1  0
  6  7  1  0
  8 16  1  0
  9 14  1  0
 10 11  1  0
 10  9  1  0
 12 11  1  0
 12 21  1  0
 12 13  1  0
 14  8  1  0
 14 13  1  0
 15  8  2  0
 16 17  1  0
 18 19  2  0
 19 38  1  0
 20 19  1  0
 20 23  1  0
 21 18  1  0
 21 22  1  0
 22 20  2  0
 23 24  1  0
 24 25  2  0
 26 29  1  0
 26 25  1  0
 27 26  2  0
 28 27  1  0
 28 23  2  0
 29 30  1  0
 30 31  1  0
 31 32  2  0
 33 32  1  0
 33 37  1  0
 34 33  2  0
 35 30  2  0
 35 34  1  0
 36 35  1  0
 38 39  1  0
 39 42  1  0
 39 41  1  0
 40 38  2  0
 43 44  1  0
 43 18  1  0
 45 43  1  0
 46 47  1  0
 46 50  1  0
 47 49  1  0
 48 46  2  0
 51 50  1  0
 51 52  1  0
 53 52  1  0
 54 65  2  0
 55 53  1  0
 55 60  1  0
 56 64  1  0
 56 66  1  0
 57 63  1  0
 57 59  1  0
 58 64  1  0
 59 60  2  0
 59 58  1  0
 61 55  2  0
 62 61  1  0
 62 57  2  0
 63 56  1  0
 64 54  1  0
 66 68  2  0
 67 66  1  0
 69 67  1  0
 70 79  2  0
 70 75  1  0
 71 67  1  0
 71 75  1  0
 72 71  1  0
 73 74  1  0
 73 72  1  0
 74 70  1  0
 75 76  2  0
 76 77  1  0
 78 77  2  0
 79 78  1  0
 80 54  1  0
 80 81  1  0
 80 90  1  0
 81 84  1  0
 82 86  1  0
 82 81  1  0
 83 82  2  0
 86 85  1  0
 88 86  1  0
 88 89  1  0
 88 87  1  0
 90 93  1  1
 90 91  1  0
 92 90  1  0
 94 96  1  1
 94  3  1  0
 95 94  1  0
 97 94  1  0
M  ISO  4   8 100  16 100  52 101  53 101
M  END
>  <TORSDO>  (47) 
F 21

>  <SCORE>  (47) 
-13.513

>  <name>  (47) 
46

>  <ligand_id>  (47) 
46

>  <original_smiles>  (47) 
[H]c1c([H])c([H])c2c(c1[H])C([H])([H])C([H])([H])C([H])([H])C2([H])N([H])C(=O)C1([H])N(C(=O)C([H])(N([H])C(=O)C([H])(N([H])C([H])([H])[H])C([H])([H])[H])C(C([H])([H])[H])(C([H])([H])[H])C([H])([H])[H])C([H])([H])c2c([H])c(OC([H])([H])C([H])([H])C([H])([H])C(=O)N([H])c3c([H])c(C(F)(F)F)c([H])c(N([H])C(=O)N4C([H])([H])C([H])([H])C([H])([H])C([H])(n5nc(-c6c([H])c([H])c(Oc7c([H])c([H])c(F)c([H])c7F)c([H])c6[H])c(C(=O)N([H])[H])c5N([H])[H])C4([H])[H])c3F)c([H])c([H])c2C1([H])[H]

>  <smiles>  (47) 
[H]c1c([H])c([H])c2c(c1[H])C([H])([H])C([H])([H])C([H])([H])C2([H])N([H])C(=O)C1([H])N(C(=O)C([H])(N([H])C(=O)C([H])(N([H])C([H])([H])[H])C([H])([H])[H])C(C([H])([H])[H])(C([H])([H])[H])C([H])([H])[H])C([H])([H])c2c([H])c(OC([H])([H])C([H])([H])C([H])([H])C(=O)N([H])c3c([H])c(C(F)(F)F)c([H])c(N([H])C(=O)N4C([H])([H])C([H])([H])C([H])([H])C([H])(n5nc(-c6c([H])c([H])c(Oc7c([H])c([H])c(F)c([H])c7F)c([H])c6[H])c(C(=O)N([H])[H])c5N([H])[H])C4([H])[H])c3F)c([H])c([H])c2C1([H])[H]

$$$$
47:0:0
     RDKit          3D

 93101  0  0  1  0  0  0  0  0999 V2000
  -28.6650  -22.5280   20.2270 C   0  0  0  0  0  0  0  0  0  0  0  0
  -29.1690  -21.5040   19.4650 N   0  0  0  0  0  0  0  0  0  0  0  0
  -28.2050  -22.3210   21.3500 O   0  0  0  0  0  0  0  0  0  0  0  0
  -29.3680  -21.7640   18.5070 H   0  0  0  0  0  0  0  0  0  0  0  0
  -29.0540  -19.1010   18.8170 C   0  0  0  0  0  3  0  0  0  0  0  0
  -29.9260  -19.6060   20.9960 C   0  0  0  0  0  3  0  0  0  0  0  0
  -29.2210  -17.7030   19.0600 C   0  0  0  0  0  0  0  0  0  0  0  0
  -30.1190  -18.2110   21.2430 C   0  0  0  0  0  0  0  0  0  0  0  0
  -29.3770  -20.0900   19.7810 C   0  0  0  0  0  0  0  0  0  0  0  0
  -29.7990  -17.2190   20.2700 C   0  0  0  0  0  0  0  0  0  0  0  0
  -28.6520  -16.7440   18.0310 C   0  0  0  0  0  1  0  0  0  0  0  0
  -30.6220  -17.7850   22.6080 C   0  0  0  0  0  1  0  0  0  0  0  0
  -30.6660  -14.7670   20.3000 C   0  0  0  0  0  0  0  0  0  0  0  0
  -30.5200  -12.4910   19.3220 C   0  0  0  0  0  2  0  0  0  0  0  0
  -29.5650  -12.5740   18.1090 C   0  0  0  0  0  2  0  0  0  0  0  0
  -28.0920  -12.4220   18.5470 C   0  0  0  0  0  2  0  0  0  0  0  0
  -27.7340  -13.2960   19.7770 C   0  0  0  0  0  3  0  0  0  0  0  0
  -28.8030  -13.1660   20.8880 C   0  0  0  0  0  2  0  0  0  0  0  0
  -30.1010  -13.5190   20.2920 N   0  0  0  0  0  0  0  0  0  0  0  0
  -31.8220  -14.9490   19.9030 O   0  0  0  0  0  0  0  0  0  0  0  0
  -29.8160  -15.7970   20.6220 N   0  0  0  0  0  0  0  0  0  0  0  0
  -28.9540  -15.4700   21.0280 H   0  0  0  0  0  0  0  0  0  0  0  0
  -25.3620  -13.8990   20.5570 C   0  0  0  0  0  0  0  0  0  0  0  0
  -24.2970  -13.1230   20.9280 C   0  0  0  0  0  0  0  0  0  0  0  0
  -24.7480  -11.7700   20.8540 C   0  0  0  0  0  0  0  0  0  0  0  0
  -26.3940  -13.0150   20.2810 N   0  0  0  0  0  0  0  0  0  0  0  0
  -26.0320  -11.7280   20.5210 N   0  0  0  0  0  0  0  0  0  0  0  0
  -24.0160  -10.5080   21.0310 C   0  0  0  0  0  0  0  0  0  0  0  0
  -24.4240   -9.5400   21.9730 C   0  0  0  0  0  3  0  0  0  0  0  0
  -23.6930   -8.3430   22.1340 C   0  0  0  0  0  3  0  0  0  0  0  0
  -22.5390   -8.1070   21.3510 C   0  0  0  0  0  0  0  0  0  0  0  0
  -22.1500   -9.0620   20.3950 C   0  0  0  0  0  3  0  0  0  0  0  0
  -22.8840  -10.2500   20.2330 C   0  0  0  0  0  3  0  0  0  0  0  0
  -21.7850   -6.9610   21.4180 O   0  0  0  0  0  0  0  0  0  0  0  0
  -21.6550   -6.2520   22.5850 C   0  0  0  0  0  0  0  0  0  0  0  0
  -21.1180   -6.8330   23.7550 C   0  0  0  0  0  3  0  0  0  0  0  0
  -20.9350   -6.0470   24.9110 C   0  0  0  0  0  3  0  0  0  0  0  0
  -21.2820   -4.6840   24.9000 C   0  0  0  0  0  0  0  0  0  0  0  0
  -21.8160   -4.1040   23.7350 C   0  0  0  0  0  3  0  0  0  0  0  0
  -22.0000   -4.8850   22.5810 C   0  0  0  0  0  0  0  0  0  0  0  0
  -22.4900   -4.3150   21.4560 F   0  0  0  0  0  0  0  0  0  0  0  0
  -21.1020   -3.9290   26.0090 F   0  0  0  0  0  0  0  0  0  0  0  0
  -22.9070  -13.6040   21.2360 C   0  0  0  0  0  0  0  0  0  0  0  0
  -22.1920  -12.8990   22.1050 N   0  0  0  0  0  0  0  0  0  0  0  0
  -22.4660  -14.6440   20.7470 O   0  0  0  0  0  0  0  0  0  0  0  0
  -22.5570  -12.0580   22.5270 H   0  0  0  0  0  0  0  0  0  0  0  0
  -21.2600  -13.2070   22.3490 H   0  0  0  0  0  0  0  0  0  0  0  0
  -25.5330  -15.2720   20.4120 N   0  0  0  0  0  0  0  0  0  0  0  0
  -24.7730  -15.9270   20.5570 H   0  0  0  0  0  0  0  0  0  0  0  0
  -26.3770  -15.7180   20.0840 H   0  0  0  0  0  0  0  0  0  0  0  0
  -28.6360  -23.9980   19.6440 C   0  0  0  0  0  3  0  0  0  0  0  0
  -28.2200  -25.1710   20.6340 C   0  0  0  0  0  3  0  0  0  0  0  0
  -28.4160  -26.5800   20.2220 O   0  0  0  0  0  0  0  0  0  0  0  0
  -24.6460  -31.9680   23.2010 C   0  0  0  0  0  0  0  0  0  0  0  0
  -27.2930  -27.4100   20.2010 C   0  0  0  0  0  0  0  0  0  0  0  0
  -23.4570  -30.5390   21.5740 C   0  0  0  0  0  3  0  0  0  0  0  0
  -24.9220  -28.9890   20.1660 C   0  0  0  0  0  0  0  0  0  0  0  0
  -25.9920  -30.8860   21.3870 C   0  0  0  0  0  2  0  0  0  0  0  0
  -26.0860  -29.5000   20.7580 C   0  0  0  0  0  0  0  0  0  0  0  0
  -27.2790  -28.7200   20.7640 C   0  0  0  0  0  3  0  0  0  0  0  0
  -26.1120  -26.9440   19.5880 C   0  0  0  0  0  3  0  0  0  0  0  0
  -24.9360  -27.7180   19.5730 C   0  0  0  0  0  3  0  0  0  0  0  0
  -23.6790  -29.8540   20.2010 C   0  0  0  0  0  2  0  0  0  0  0  0
  -24.7180  -31.1470   22.1120 N   0  0  0  0  0  0  0  0  0  0  0  0
  -23.5590  -32.2420   23.7300 O   0  0  0  0  0  0  0  0  0  0  0  0
  -22.8050  -29.5270   22.5430 C   0  0  0  0  0  0  0  0  0  0  0  0
  -21.4830  -29.3310   22.4080 N   0  0  0  0  0  0  0  0  0  0  0  0
  -23.4870  -28.9220   23.3750 O   0  0  0  0  0  0  0  0  0  0  0  0
  -20.9940  -29.8680   21.7060 H   0  0  0  0  0  0  0  0  0  0  0  0
  -18.1140  -28.1070   22.8970 C   0  0  0  0  0  0  0  0  0  0  0  0
  -20.6690  -28.3970   23.1860 C   0  0  0  0  0  3  0  0  0  0  0  0
  -20.7920  -26.9590   22.6320 C   0  0  0  0  0  2  0  0  0  0  0  0
  -19.7010  -26.6080   21.6140 C   0  0  0  0  0  2  0  0  0  0  0  0
  -18.3110  -26.7510   22.2420 C   0  0  0  0  0  2  0  0  0  0  0  0
  -19.2230  -28.8870   23.3260 C   0  0  0  0  0  0  0  0  0  0  0  0
  -18.9850  -30.1560   23.8980 C   0  0  0  0  0  3  0  0  0  0  0  0
  -17.6730  -30.6450   24.0460 C   0  0  0  0  0  3  0  0  0  0  0  0
  -16.5800  -29.8620   23.6360 C   0  0  0  0  0  3  0  0  0  0  0  0
  -16.8020  -28.5950   23.0670 C   0  0  0  0  0  3  0  0  0  0  0  0
  -25.9230  -32.6190   23.8180 C   0  0  0  0  0  3  0  0  0  0  0  0
  -26.4570  -31.8500   25.0890 C   0  0  1  0  0  0  0  0  0  0  0  0
  -25.3690  -31.5840   26.1570 C   0  0  0  0  0  1  0  0  0  0  0  0
  -27.0640  -30.4870   24.6860 C   0  0  0  0  0  1  0  0  0  0  0  0
  -27.5930  -32.6630   25.7520 C   0  0  0  0  0  1  0  0  0  0  0  0
  -25.5940  -34.0090   24.1560 N   0  0  0  0  0  0  0  0  0  0  0  0
  -25.9020  -35.0690   23.3960 C   0  0  0  0  0  0  0  0  0  0  0  0
  -26.5640  -34.9800   22.3600 O   0  0  0  0  0  0  0  0  0  0  0  0
  -25.0090  -34.1530   24.9660 H   0  0  0  0  0  0  0  0  0  0  0  0
  -24.1420  -36.8350   23.0590 C   0  0  0  0  0  1  0  0  0  0  0  0
  -25.3950  -36.4490   23.8620 C   0  0  0  0  0  3  0  0  0  0  0  0
  -27.5190  -37.3650   24.6850 C   0  0  0  0  0  1  0  0  0  0  0  0
  -26.4100  -37.5180   23.7470 N   0  0  0  0  0  0  0  0  0  0  0  0
  -25.9890  -38.4300   23.9010 H   0  0  0  0  0  0  0  0  0  0  0  0
  1  3  2  0
  2  9  1  0
  2  1  1  0
  4  2  1  0
  5  7  2  0
  5  9  1  0
  6  8  1  0
  7 10  1  0
  8 12  1  0
  9  6  2  0
 10 21  1  0
 10  8  2  0
 11  7  1  0
 13 21  1  0
 14 19  1  0
 15 16  1  0
 15 14  1  0
 17 16  1  0
 17 26  1  0
 17 18  1  0
 19 13  1  0
 19 18  1  0
 20 13  2  0
 21 22  1  0
 23 24  2  0
 24 43  1  0
 25 24  1  0
 25 28  1  0
 26 27  1  0
 26 23  1  0
 27 25  2  0
 28 29  1  0
 29 30  2  0
 31 34  1  0
 31 30  1  0
 32 31  2  0
 33 32  1  0
 33 28  2  0
 34 35  1  0
 35 36  1  0
 36 37  2  0
 38 37  1  0
 38 42  1  0
 39 38  2  0
 40 35  2  0
 40 39  1  0
 41 40  1  0
 43 44  1  0
 44 47  1  0
 44 46  1  0
 45 43  2  0
 48 49  1  0
 48 23  1  0
 50 48  1  0
 51  1  1  0
 51 52  2  0
 53 52  1  0
 54 65  2  0
 55 53  1  0
 55 60  1  0
 56 64  1  0
 56 66  1  0
 57 63  1  0
 57 59  1  0
 58 64  1  0
 59 60  2  0
 59 58  1  0
 61 55  2  0
 62 61  1  0
 62 57  2  0
 63 56  1  0
 64 54  1  0
 66 68  2  0
 67 66  1  0
 69 67  1  0
 70 79  2  0
 70 75  1  0
 71 67  1  0
 71 75  1  0
 72 71  1  0
 73 74  1  0
 73 72  1  0
 74 70  1  0
 75 76  2  0
 76 77  1  0
 78 77  2  0
 79 78  1  0
 80 54  1  0
 80 85  1  0
 80 81  1  0
 81 84  1  1
 81 82  1  0
 83 81  1  0
 85 88  1  0
 86 90  1  0
 86 85  1  0
 87 86  2  0
 90 89  1  0
 92 90  1  0
 92 93  1  0
 92 91  1  0
M  ISO  4  13 100  21 100  52 101  53 101
M  END
>  <TORSDO>  (48) 
F 19

>  <SCORE>  (48) 
-13.426

>  <name>  (48) 
47

>  <ligand_id>  (48) 
47

>  <original_smiles>  (48) 
[H]c1c([H])c([H])c2c(c1[H])C([H])([H])C([H])([H])C([H])([H])C2([H])N([H])C(=O)C1([H])N(C(=O)C([H])(N([H])C(=O)C([H])(N([H])C([H])([H])[H])C([H])([H])[H])C(C([H])([H])[H])(C([H])([H])[H])C([H])([H])[H])C([H])([H])c2c([H])c(OC([H])([H])C([H])([H])C(=O)N([H])c3c([H])c(C([H])([H])[H])c(N([H])C(=O)N4C([H])([H])C([H])([H])C([H])([H])C([H])(n5nc(-c6c([H])c([H])c(Oc7c([H])c([H])c(F)c([H])c7F)c([H])c6[H])c(C(=O)N([H])[H])c5N([H])[H])C4([H])[H])c(C([H])([H])[H])c3[H])c([H])c([H])c2C1([H])[H]

>  <smiles>  (48) 
[H]c1c([H])c([H])c2c(c1[H])C([H])([H])C([H])([H])C([H])([H])C2([H])N([H])C(=O)C1([H])N(C(=O)C([H])(N([H])C(=O)C([H])(N([H])C([H])([H])[H])C([H])([H])[H])C(C([H])([H])[H])(C([H])([H])[H])C([H])([H])[H])C([H])([H])c2c([H])c(OC([H])([H])C([H])([H])C(=O)N([H])c3c([H])c(C([H])([H])[H])c(N([H])C(=O)N4C([H])([H])C([H])([H])C([H])([H])C([H])(n5nc(-c6c([H])c([H])c(Oc7c([H])c([H])c(F)c([H])c7F)c([H])c6[H])c(C(=O)N([H])[H])c5N([H])[H])C4([H])[H])c(C([H])([H])[H])c3[H])c([H])c([H])c2C1([H])[H]

$$$$
48:0:0
     RDKit          3D

 93101  0  0  1  0  0  0  0  0999 V2000
  -31.1580  -17.5620   19.1760 C   0  0  0  0  0  3  0  0  0  0  0  0
  -30.8200  -19.9920   19.2620 C   0  0  0  0  0  3  0  0  0  0  0  0
  -29.5730  -18.5190   20.7400 C   0  0  0  0  0  3  0  0  0  0  0  0
  -31.4650  -18.8620   18.7150 C   0  0  0  0  0  0  0  0  0  0  0  0
  -30.2170  -17.3250   20.2090 C   0  0  0  0  0  0  0  0  0  0  0  0
  -29.8430  -19.8750   20.2740 C   0  0  0  0  0  0  0  0  0  0  0  0
  -30.6260  -14.7490   20.4170 C   0  0  0  0  0  0  0  0  0  0  0  0
  -30.3720  -12.4770   19.4300 C   0  0  0  0  0  2  0  0  0  0  0  0
  -29.4530  -12.5610   18.1930 C   0  0  0  0  0  2  0  0  0  0  0  0
  -27.9790  -12.4030   18.6070 C   0  0  0  0  0  2  0  0  0  0  0  0
  -27.6010  -13.2980   19.8190 C   0  0  0  0  0  3  0  0  0  0  0  0
  -28.6500  -13.2210   20.9510 C   0  0  0  0  0  2  0  0  0  0  0  0
  -29.9570  -13.5450   20.3680 N   0  0  0  0  0  0  0  0  0  0  0  0
  -31.8190  -14.7820   20.1140 O   0  0  0  0  0  0  0  0  0  0  0  0
  -29.9120  -15.9240   20.6300 N   0  0  0  0  0  0  0  0  0  0  0  0
  -28.9910  -15.7850   21.0180 H   0  0  0  0  0  0  0  0  0  0  0  0
  -25.2050  -13.8980   20.5110 C   0  0  0  0  0  0  0  0  0  0  0  0
  -24.1320  -13.1280   20.8700 C   0  0  0  0  0  0  0  0  0  0  0  0
  -24.5910  -11.7740   20.8550 C   0  0  0  0  0  0  0  0  0  0  0  0
  -26.2510  -13.0130   20.2960 N   0  0  0  0  0  0  0  0  0  0  0  0
  -25.8880  -11.7320   20.5660 N   0  0  0  0  0  0  0  0  0  0  0  0
  -23.8590  -10.5150   21.0410 C   0  0  0  0  0  0  0  0  0  0  0  0
  -24.2760   -9.5500   21.9830 C   0  0  0  0  0  3  0  0  0  0  0  0
  -23.5400   -8.3580   22.1600 C   0  0  0  0  0  3  0  0  0  0  0  0
  -22.3760   -8.1220   21.3920 C   0  0  0  0  0  0  0  0  0  0  0  0
  -21.9780   -9.0760   20.4410 C   0  0  0  0  0  3  0  0  0  0  0  0
  -22.7110  -10.2600   20.2630 C   0  0  0  0  0  3  0  0  0  0  0  0
  -21.6130   -6.9820   21.4760 O   0  0  0  0  0  0  0  0  0  0  0  0
  -21.5480   -6.2440   22.6310 C   0  0  0  0  0  0  0  0  0  0  0  0
  -21.1130   -6.8070   23.8510 C   0  0  0  0  0  3  0  0  0  0  0  0
  -20.9940   -5.9960   24.9980 C   0  0  0  0  0  3  0  0  0  0  0  0
  -21.2990   -4.6230   24.9260 C   0  0  0  0  0  0  0  0  0  0  0  0
  -21.7270   -4.0600   23.7110 C   0  0  0  0  0  3  0  0  0  0  0  0
  -21.8480   -4.8680   22.5660 C   0  0  0  0  0  0  0  0  0  0  0  0
  -22.2400   -4.3140   21.3930 F   0  0  0  0  0  0  0  0  0  0  0  0
  -21.1780   -3.8430   26.0260 F   0  0  0  0  0  0  0  0  0  0  0  0
  -22.7340  -13.6100   21.1170 C   0  0  0  0  0  0  0  0  0  0  0  0
  -21.9910  -12.9190   21.9740 N   0  0  0  0  0  0  0  0  0  0  0  0
  -22.3090  -14.6360   20.5870 O   0  0  0  0  0  0  0  0  0  0  0  0
  -22.3500  -12.0890   22.4200 H   0  0  0  0  0  0  0  0  0  0  0  0
  -21.0530  -13.2250   22.1860 H   0  0  0  0  0  0  0  0  0  0  0  0
  -25.3750  -15.2660   20.3260 N   0  0  0  0  0  0  0  0  0  0  0  0
  -24.6040  -15.9200   20.4140 H   0  0  0  0  0  0  0  0  0  0  0  0
  -26.2220  -15.6980   19.9790 H   0  0  0  0  0  0  0  0  0  0  0  0
  -32.5280  -19.0340   17.6350 C   0  0  1  0  0  0  0  0  0  0  0  0
  -32.4070  -18.0910   16.6980 F   0  0  0  0  0  0  0  0  0  0  0  0
  -32.4340  -20.2230   17.0360 F   0  0  0  0  0  0  0  0  0  0  0  0
  -33.7400  -18.9340   18.1810 F   0  0  0  0  0  0  0  0  0  0  0  0
  -29.2470  -21.0450   20.8340 O   0  0  0  0  0  0  0  0  0  0  0  0
  -28.9200  -22.2700   20.0370 C   0  0  0  0  0  3  0  0  0  0  0  0
  -28.9720  -23.7530   20.6870 C   0  0  0  0  0  3  0  0  0  0  0  0
  -28.1930  -24.9530   19.9360 C   0  0  0  0  0  2  0  0  0  0  0  0
  -28.3250  -26.4070   20.3080 O   0  0  0  0  0  0  0  0  0  0  0  0
  -24.5920  -31.8820   23.2400 C   0  0  0  0  0  0  0  0  0  0  0  0
  -27.2210  -27.2900   20.2010 C   0  0  0  0  0  0  0  0  0  0  0  0
  -23.4010  -30.4810   21.5930 C   0  0  0  0  0  3  0  0  0  0  0  0
  -24.8640  -28.9390   20.1650 C   0  0  0  0  0  0  0  0  0  0  0  0
  -25.9450  -30.7920   21.4330 C   0  0  0  0  0  2  0  0  0  0  0  0
  -26.0280  -29.4120   20.7810 C   0  0  0  0  0  0  0  0  0  0  0  0
  -27.2060  -28.5980   20.7950 C   0  0  0  0  0  3  0  0  0  0  0  0
  -26.0390  -26.8990   19.5280 C   0  0  0  0  0  3  0  0  0  0  0  0
  -24.8740  -27.6910   19.5260 C   0  0  0  0  0  3  0  0  0  0  0  0
  -23.6270  -29.8170   20.2090 C   0  0  0  0  0  2  0  0  0  0  0  0
  -24.6630  -31.0700   22.1440 N   0  0  0  0  0  0  0  0  0  0  0  0
  -23.5060  -32.1600   23.7680 O   0  0  0  0  0  0  0  0  0  0  0  0
  -22.7330  -29.4620   22.5470 C   0  0  0  0  0  0  0  0  0  0  0  0
  -21.4050  -29.2920   22.4200 N   0  0  0  0  0  0  0  0  0  0  0  0
  -23.4090  -28.8280   23.3620 O   0  0  0  0  0  0  0  0  0  0  0  0
  -20.9190  -29.8540   21.7370 H   0  0  0  0  0  0  0  0  0  0  0  0
  -18.0200  -28.1180   22.9310 C   0  0  0  0  0  0  0  0  0  0  0  0
  -20.5830  -28.3550   23.1890 C   0  0  0  0  0  3  0  0  0  0  0  0
  -20.6700  -26.9260   22.6040 C   0  0  0  0  0  2  0  0  0  0  0  0
  -19.5590  -26.6210   21.5940 C   0  0  0  0  0  2  0  0  0  0  0  0
  -18.1810  -26.7720   22.2440 C   0  0  0  0  0  2  0  0  0  0  0  0
  -19.1480  -28.8670   23.3600 C   0  0  0  0  0  0  0  0  0  0  0  0
  -18.9420  -30.1260   23.9640 C   0  0  0  0  0  3  0  0  0  0  0  0
  -17.6430  -30.6380   24.1410 C   0  0  0  0  0  3  0  0  0  0  0  0
  -16.5290  -29.8850   23.7300 C   0  0  0  0  0  3  0  0  0  0  0  0
  -16.7180  -28.6280   23.1300 C   0  0  0  0  0  3  0  0  0  0  0  0
  -25.8710  -32.5180   23.8670 C   0  0  0  0  0  3  0  0  0  0  0  0
  -25.5590  -33.9170   24.1940 N   0  0  0  0  0  0  0  0  0  0  0  0
  -25.8850  -34.9690   23.4320 C   0  0  0  0  0  0  0  0  0  0  0  0
  -26.5520  -34.8650   22.4000 O   0  0  0  0  0  0  0  0  0  0  0  0
  -24.9680  -34.0700   24.9990 H   0  0  0  0  0  0  0  0  0  0  0  0
  -24.1550  -36.7580   23.0780 C   0  0  0  0  0  1  0  0  0  0  0  0
  -25.3970  -36.3560   23.8880 C   0  0  0  0  0  3  0  0  0  0  0  0
  -27.5300  -37.2460   24.7180 C   0  0  0  0  0  1  0  0  0  0  0  0
  -26.4280  -37.4110   23.7720 N   0  0  0  0  0  0  0  0  0  0  0  0
  -26.0210  -38.3290   23.9230 H   0  0  0  0  0  0  0  0  0  0  0  0
  -26.3830  -31.7490   25.1470 C   0  0  1  0  0  0  0  0  0  0  0  0
  -25.2830  -31.5100   26.2090 C   0  0  0  0  0  1  0  0  0  0  0  0
  -26.9730  -30.3720   24.7630 C   0  0  0  0  0  1  0  0  0  0  0  0
  -27.5300  -32.5460   25.8110 C   0  0  0  0  0  1  0  0  0  0  0  0
  1  5  1  0
  2  6  2  0
  4  1  2  0
  4  2  1  0
  5 15  1  0
  5  3  2  0
  6  3  1  0
  6 49  1  0
  7 15  1  0
  8 13  1  0
  9 10  1  0
  9  8  1  0
 11 10  1  0
 11 20  1  0
 11 12  1  0
 13  7  1  0
 13 12  1  0
 14  7  2  0
 15 16  1  0
 17 18  2  0
 18 37  1  0
 19 18  1  0
 19 22  1  0
 20 17  1  0
 20 21  1  0
 21 19  2  0
 22 23  1  0
 23 24  2  0
 25 28  1  0
 25 24  1  0
 26 25  2  0
 27 26  1  0
 27 22  2  0
 28 29  1  0
 29 30  1  0
 30 31  2  0
 32 31  1  0
 32 36  1  0
 33 32  2  0
 34 29  2  0
 34 33  1  0
 35 34  1  0
 37 38  1  0
 38 41  1  0
 38 40  1  0
 39 37  2  0
 42 43  1  0
 42 17  1  0
 44 42  1  0
 45 48  1  1
 45  4  1  0
 46 45  1  0
 47 45  1  0
 50 51  2  0
 50 49  1  0
 52 53  1  0
 52 51  1  0
 54 65  2  0
 55 53  1  0
 55 60  1  0
 56 64  1  0
 56 66  1  0
 57 63  1  0
 57 59  1  0
 58 64  1  0
 59 60  2  0
 59 58  1  0
 61 55  2  0
 62 61  1  0
 62 57  2  0
 63 56  1  0
 64 54  1  0
 66 68  2  0
 67 66  1  0
 69 67  1  0
 70 79  2  0
 70 75  1  0
 71 67  1  0
 71 75  1  0
 72 71  1  0
 73 74  1  0
 73 72  1  0
 74 70  1  0
 75 76  2  0
 76 77  1  0
 78 77  2  0
 79 78  1  0
 80 54  1  0
 80 81  1  0
 80 90  1  0
 81 84  1  0
 82 86  1  0
 82 81  1  0
 83 82  2  0
 86 85  1  0
 88 86  1  0
 88 89  1  0
 88 87  1  0
 90 93  1  1
 90 91  1  0
 92 90  1  0
M  ISO  4   7 100  15 100  52 101  53 101
M  END
>  <TORSDO>  (49) 
F 21

>  <SCORE>  (49) 
-13.501

>  <name>  (49) 
48

>  <ligand_id>  (49) 
48

>  <original_smiles>  (49) 
[H]c1c([H])c([H])c2c(c1[H])C([H])([H])C([H])([H])C([H])([H])C2([H])N([H])C(=O)C1([H])N(C(=O)C([H])(N([H])C(=O)C([H])(N([H])C([H])([H])[H])C([H])([H])[H])C(C([H])([H])[H])(C([H])([H])[H])C([H])([H])[H])C([H])([H])c2c([H])c(OC([H])([H])C([H])([H])C([H])([H])Oc3c([H])c(N([H])C(=O)N4C([H])([H])C([H])([H])C([H])([H])C([H])(n5nc(-c6c([H])c([H])c(Oc7c([H])c([H])c(F)c([H])c7F)c([H])c6[H])c(C(=O)N([H])[H])c5N([H])[H])C4([H])[H])c([H])c(C(F)(F)F)c3[H])c([H])c([H])c2C1([H])[H]

>  <smiles>  (49) 
[H]c1c([H])c([H])c2c(c1[H])C([H])([H])C([H])([H])C([H])([H])C2([H])N([H])C(=O)C1([H])N(C(=O)C([H])(N([H])C(=O)C([H])(N([H])C([H])([H])[H])C([H])([H])[H])C(C([H])([H])[H])(C([H])([H])[H])C([H])([H])[H])C([H])([H])c2c([H])c(OC([H])([H])C([H])([H])C([H])([H])Oc3c([H])c(N([H])C(=O)N4C([H])([H])C([H])([H])C([H])([H])C([H])(n5nc(-c6c([H])c([H])c(Oc7c([H])c([H])c(F)c([H])c7F)c([H])c6[H])c(C(=O)N([H])[H])c5N([H])[H])C4([H])[H])c([H])c(C(F)(F)F)c3[H])c([H])c([H])c2C1([H])[H]

$$$$
49:0:0
     RDKit          3D

 92100  0  0  1  0  0  0  0  0999 V2000
  -28.5950  -18.9320   20.1280 C   0  0  0  0  0  3  0  0  0  0  0  0
  -30.3670  -21.0590   20.5490 C   0  0  0  0  0  3  0  0  0  0  0  0
  -29.9240  -18.5930   20.4920 C   0  0  0  0  0  0  0  0  0  0  0  0
  -29.0720  -21.3860   20.0740 C   0  0  0  0  0  0  0  0  0  0  0  0
  -28.1830  -20.2830   19.9100 C   0  0  0  0  0  0  0  0  0  0  0  0
  -30.7830  -19.7100   20.7470 C   0  0  0  0  0  0  0  0  0  0  0  0
  -26.9180  -20.5090   19.4840 F   0  0  0  0  0  0  0  0  0  0  0  0
  -32.4160  -19.4610   21.2610 Cl  0  0  0  0  0  0  0  0  0  0  0  0
  -28.7590  -23.9250   20.2740 C   0  0  0  0  0  0  0  0  0  0  0  0
  -28.3580  -22.7640   18.1530 C   0  0  0  0  0  1  0  0  0  0  0  0
  -28.7390  -22.7290   19.5730 N   0  0  0  0  0  0  0  0  0  0  0  0
  -28.9240  -23.9470   21.5000 O   0  0  0  0  0  0  0  0  0  0  0  0
  -28.5980  -25.3120   19.5080 C   0  0  0  0  0  2  0  0  0  0  0  0
  -28.4250  -26.5380   20.3190 O   0  0  0  0  0  0  0  0  0  0  0  0
  -24.6040  -31.8960   23.2530 C   0  0  0  0  0  0  0  0  0  0  0  0
  -27.2720  -27.3360   20.2440 C   0  0  0  0  0  0  0  0  0  0  0  0
  -23.4230  -30.4810   21.6110 C   0  0  0  0  0  3  0  0  0  0  0  0
  -24.8920  -28.9280   20.2120 C   0  0  0  0  0  0  0  0  0  0  0  0
  -25.9610  -30.8110   21.4480 C   0  0  0  0  0  2  0  0  0  0  0  0
  -26.0520  -29.4290   20.8130 C   0  0  0  0  0  0  0  0  0  0  0  0
  -27.2410  -28.6420   20.8220 C   0  0  0  0  0  3  0  0  0  0  0  0
  -26.0750  -26.8740   19.6470 C   0  0  0  0  0  3  0  0  0  0  0  0
  -24.9040  -27.6530   19.6260 C   0  0  0  0  0  3  0  0  0  0  0  0
  -23.6520  -29.7950   20.2400 C   0  0  0  0  0  2  0  0  0  0  0  0
  -24.6810  -31.0810   22.1610 N   0  0  0  0  0  0  0  0  0  0  0  0
  -23.5150  -32.1740   23.7730 O   0  0  0  0  0  0  0  0  0  0  0  0
  -22.7550  -29.4680   22.5720 C   0  0  0  0  0  0  0  0  0  0  0  0
  -21.4290  -29.2940   22.4400 N   0  0  0  0  0  0  0  0  0  0  0  0
  -23.4290  -28.8430   23.3940 O   0  0  0  0  0  0  0  0  0  0  0  0
  -20.9460  -29.8510   21.7490 H   0  0  0  0  0  0  0  0  0  0  0  0
  -18.0430  -28.1310   22.9410 C   0  0  0  0  0  0  0  0  0  0  0  0
  -20.6030  -28.3640   23.2100 C   0  0  0  0  0  3  0  0  0  0  0  0
  -20.6900  -26.9330   22.6300 C   0  0  0  0  0  2  0  0  0  0  0  0
  -19.5840  -26.6240   21.6170 C   0  0  0  0  0  2  0  0  0  0  0  0
  -18.2050  -26.7800   22.2640 C   0  0  0  0  0  2  0  0  0  0  0  0
  -19.1690  -28.8810   23.3720 C   0  0  0  0  0  0  0  0  0  0  0  0
  -18.9630  -30.1450   23.9670 C   0  0  0  0  0  3  0  0  0  0  0  0
  -17.6640  -30.6580   24.1360 C   0  0  0  0  0  3  0  0  0  0  0  0
  -16.5520  -29.9040   23.7230 C   0  0  0  0  0  3  0  0  0  0  0  0
  -16.7420  -28.6430   23.1310 C   0  0  0  0  0  3  0  0  0  0  0  0
  -25.8790  -32.5370   23.8840 C   0  0  0  0  0  3  0  0  0  0  0  0
  -26.3780  -31.7830   25.1780 C   0  0  1  0  0  0  0  0  0  0  0  0
  -25.2710  -31.5590   26.2340 C   0  0  0  0  0  1  0  0  0  0  0  0
  -26.9670  -30.4010   24.8130 C   0  0  0  0  0  1  0  0  0  0  0  0
  -27.5200  -32.5860   25.8450 C   0  0  0  0  0  1  0  0  0  0  0  0
  -25.5640  -33.9390   24.1920 N   0  0  0  0  0  0  0  0  0  0  0  0
  -25.9060  -34.9830   23.4260 C   0  0  0  0  0  0  0  0  0  0  0  0
  -26.5900  -34.8680   22.4050 O   0  0  0  0  0  0  0  0  0  0  0  0
  -24.9560  -34.1020   24.9820 H   0  0  0  0  0  0  0  0  0  0  0  0
  -24.1860  -36.7740   23.0230 C   0  0  0  0  0  1  0  0  0  0  0  0
  -25.4110  -36.3760   23.8600 C   0  0  0  0  0  3  0  0  0  0  0  0
  -27.5300  -37.2690   24.7220 C   0  0  0  0  0  1  0  0  0  0  0  0
  -26.4460  -37.4280   23.7570 N   0  0  0  0  0  0  0  0  0  0  0  0
  -26.0370  -38.3500   23.8890 H   0  0  0  0  0  0  0  0  0  0  0  0
  -30.4530  -17.1590   20.5410 C   0  0  0  0  0  3  0  0  0  0  0  0
  -29.8460  -15.9230   20.5680 C   0  0  0  0  0  3  0  0  0  0  0  0
  -30.6420  -14.6590   20.4270 C   0  0  0  0  0  0  0  0  0  0  0  0
  -30.3860  -12.4100   19.4160 C   0  0  0  0  0  2  0  0  0  0  0  0
  -29.4780  -12.5400   18.1730 C   0  0  0  0  0  2  0  0  0  0  0  0
  -27.9970  -12.3880   18.5730 C   0  0  0  0  0  2  0  0  0  0  0  0
  -27.6150  -13.2690   19.7920 C   0  0  0  0  0  3  0  0  0  0  0  0
  -28.6510  -13.1580   20.9310 C   0  0  0  0  0  2  0  0  0  0  0  0
  -29.9740  -13.4610   20.3710 N   0  0  0  0  0  0  0  0  0  0  0  0
  -31.8410  -14.6950   20.1390 O   0  0  0  0  0  0  0  0  0  0  0  0
  -25.2170  -13.8740   20.4720 C   0  0  0  0  0  0  0  0  0  0  0  0
  -24.1430  -13.1060   20.8310 C   0  0  0  0  0  0  0  0  0  0  0  0
  -24.6040  -11.7540   20.8240 C   0  0  0  0  0  0  0  0  0  0  0  0
  -26.2620  -12.9910   20.2620 N   0  0  0  0  0  0  0  0  0  0  0  0
  -25.9000  -11.7110   20.5380 N   0  0  0  0  0  0  0  0  0  0  0  0
  -23.8730  -10.4950   21.0160 C   0  0  0  0  0  0  0  0  0  0  0  0
  -24.2870   -9.5380   21.9680 C   0  0  0  0  0  3  0  0  0  0  0  0
  -23.5550   -8.3430   22.1460 C   0  0  0  0  0  3  0  0  0  0  0  0
  -22.3960   -8.0980   21.3710 C   0  0  0  0  0  0  0  0  0  0  0  0
  -22.0030   -9.0440   20.4090 C   0  0  0  0  0  3  0  0  0  0  0  0
  -22.7350  -10.2290   20.2280 C   0  0  0  0  0  3  0  0  0  0  0  0
  -21.6380   -6.9550   21.4570 O   0  0  0  0  0  0  0  0  0  0  0  0
  -21.5660   -6.2260   22.6170 C   0  0  0  0  0  0  0  0  0  0  0  0
  -21.1110   -6.7930   23.8280 C   0  0  0  0  0  3  0  0  0  0  0  0
  -20.9850   -5.9900   24.9780 C   0  0  0  0  0  3  0  0  0  0  0  0
  -21.3050   -4.6210   24.9200 C   0  0  0  0  0  0  0  0  0  0  0  0
  -21.7540   -4.0530   23.7150 C   0  0  0  0  0  3  0  0  0  0  0  0
  -21.8810   -4.8540   22.5660 C   0  0  0  0  0  0  0  0  0  0  0  0
  -22.2930   -4.2970   21.4010 F   0  0  0  0  0  0  0  0  0  0  0  0
  -21.1780   -3.8460   26.0220 F   0  0  0  0  0  0  0  0  0  0  0  0
  -22.7420  -13.5890   21.0710 C   0  0  0  0  0  0  0  0  0  0  0  0
  -21.9960  -12.9010   21.9280 N   0  0  0  0  0  0  0  0  0  0  0  0
  -22.3180  -14.6110   20.5340 O   0  0  0  0  0  0  0  0  0  0  0  0
  -22.3490  -12.0720   22.3830 H   0  0  0  0  0  0  0  0  0  0  0  0
  -21.0550  -13.2070   22.1310 H   0  0  0  0  0  0  0  0  0  0  0  0
  -25.3860  -15.2430   20.2830 N   0  0  0  0  0  0  0  0  0  0  0  0
  -24.6190  -15.8980   20.3770 H   0  0  0  0  0  0  0  0  0  0  0  0
  -26.2410  -15.6770   19.9570 H   0  0  0  0  0  0  0  0  0  0  0  0
  1  3  1  0
  2  6  1  0
  3 55  1  0
  3  6  2  0
  4  2  2  0
  5  4  1  0
  5  1  2  0
  6  8  1  0
  7  5  1  0
  9 12  2  0
 10 11  1  0
 11  4  1  0
 11  9  1  0
 13  9  1  0
 13 14  1  0
 15 26  2  0
 16 14  1  0
 16 21  1  0
 17 25  1  0
 17 27  1  0
 18 24  1  0
 18 20  1  0
 19 25  1  0
 20 21  2  0
 20 19  1  0
 22 16  2  0
 23 22  1  0
 23 18  2  0
 24 17  1  0
 25 15  1  0
 27 29  2  0
 28 27  1  0
 30 28  1  0
 31 40  2  0
 31 36  1  0
 32 28  1  0
 32 36  1  0
 33 32  1  0
 34 35  1  0
 34 33  1  0
 35 31  1  0
 36 37  2  0
 37 38  1  0
 39 38  2  0
 40 39  1  0
 41 15  1  0
 41 46  1  0
 41 42  1  0
 42 45  1  1
 42 43  1  0
 44 42  1  0
 46 49  1  0
 47 51  1  0
 47 46  1  0
 48 47  2  0
 51 50  1  0
 53 51  1  0
 53 54  1  0
 53 52  1  0
 55 56  2  0
 57 56  1  0
 58 63  1  0
 59 60  1  0
 59 58  1  0
 61 60  1  0
 61 68  1  0
 61 62  1  0
 63 57  1  0
 63 62  1  0
 64 57  2  0
 65 66  2  0
 66 85  1  0
 67 66  1  0
 67 70  1  0
 68 65  1  0
 68 69  1  0
 69 67  2  0
 70 71  1  0
 71 72  2  0
 73 76  1  0
 73 72  1  0
 74 73  2  0
 75 74  1  0
 75 70  2  0
 76 77  1  0
 77 78  1  0
 78 79  2  0
 80 79  1  0
 80 84  1  0
 81 80  2  0
 82 77  2  0
 82 81  1  0
 83 82  1  0
 85 86  1  0
 86 89  1  0
 86 88  1  0
 87 85  2  0
 90 91  1  0
 90 65  1  0
 92 90  1  0
M  ISO  4  13 101  14 101  56 100  57 100
M  END
>  <TORSDO>  (50) 
F 19

>  <SCORE>  (50) 
-14.402

>  <name>  (50) 
49

>  <ligand_id>  (50) 
49

>  <original_smiles>  (50) 
[H]C(C(=O)N1C([H])([H])C([H])([H])C([H])([H])C([H])(n2nc(-c3c([H])c([H])c(Oc4c([H])c([H])c(F)c([H])c4F)c([H])c3[H])c(C(=O)N([H])[H])c2N([H])[H])C1([H])[H])=C([H])c1c([H])c(F)c(N(C(=O)C([H])([H])Oc2c([H])c([H])c3c(c2[H])C([H])([H])N(C(=O)C([H])(N([H])C(=O)C([H])(N([H])C([H])([H])[H])C([H])([H])[H])C(C([H])([H])[H])(C([H])([H])[H])C([H])([H])[H])C([H])(C(=O)N([H])C2([H])c4c([H])c([H])c([H])c([H])c4C([H])([H])C([H])([H])C2([H])[H])C3([H])[H])C([H])([H])[H])c([H])c1Cl

>  <smiles>  (50) 
[H]C(C(=O)N1C([H])([H])C([H])([H])C([H])([H])C([H])(n2nc(-c3c([H])c([H])c(Oc4c([H])c([H])c(F)c([H])c4F)c([H])c3[H])c(C(=O)N([H])[H])c2N([H])[H])C1([H])[H])=C([H])c1c([H])c(F)c(N(C(=O)C([H])([H])Oc2c([H])c([H])c3c(c2[H])C([H])([H])N(C(=O)C([H])(N([H])C(=O)C([H])(N([H])C([H])([H])[H])C([H])([H])[H])C(C([H])([H])[H])(C([H])([H])[H])C([H])([H])[H])C([H])(C(=O)N([H])C2([H])c4c([H])c([H])c([H])c([H])c4C([H])([H])C([H])([H])C2([H])[H])C3([H])[H])C([H])([H])[H])c([H])c1Cl

$$$$
50:0:0
     RDKit          3D

 93101  0  0  1  0  0  0  0  0999 V2000
  -29.1990  -22.4120   20.6160 C   0  0  0  0  0  0  0  0  0  0  0  0
  -29.1700  -21.1450   20.0390 N   0  0  0  0  0  0  0  0  0  0  0  0
  -29.6040  -22.5440   21.7740 O   0  0  0  0  0  0  0  0  0  0  0  0
  -28.6080  -21.0590   19.2030 H   0  0  0  0  0  0  0  0  0  0  0  0
  -31.3360  -20.0900   20.6550 C   0  0  0  0  0  3  0  0  0  0  0  0
  -29.9630  -19.9270   20.3670 C   0  0  0  0  0  0  0  0  0  0  0  0
  -29.5120  -18.5390   20.2870 C   0  0  0  0  0  0  0  0  0  0  0  0
  -32.1640  -18.9690   20.8460 C   0  0  0  0  0  0  0  0  0  0  0  0
  -30.4140  -17.4130   20.5120 C   0  0  0  0  0  0  0  0  0  0  0  0
  -33.6580  -19.1430   21.0780 C   0  0  0  0  0  1  0  0  0  0  0  0
  -31.7140  -17.6940   20.7930 N   0  0  0  0  0  0  0  0  0  0  0  0
  -27.8580  -18.2130   19.8910 Cl  0  0  0  0  0  0  0  0  0  0  0  0
  -30.6810  -14.8130   20.3190 C   0  0  0  0  0  0  0  0  0  0  0  0
  -30.4200  -12.5250   19.3430 C   0  0  0  0  0  2  0  0  0  0  0  0
  -29.4870  -12.5940   18.1160 C   0  0  0  0  0  2  0  0  0  0  0  0
  -28.0170  -12.4210   18.5480 C   0  0  0  0  0  2  0  0  0  0  0  0
  -27.6450  -13.3110   19.7690 C   0  0  0  0  0  3  0  0  0  0  0  0
  -28.7180  -13.2670   20.8800 C   0  0  0  0  0  2  0  0  0  0  0  0
  -30.0070  -13.6100   20.2650 N   0  0  0  0  0  0  0  0  0  0  0  0
  -31.8760  -14.8320   20.0050 O   0  0  0  0  0  0  0  0  0  0  0  0
  -29.9610  -15.9960   20.4600 N   0  0  0  0  0  0  0  0  0  0  0  0
  -28.9630  -15.8850   20.4950 H   0  0  0  0  0  0  0  0  0  0  0  0
  -25.2670  -13.8820   20.5380 C   0  0  0  0  0  0  0  0  0  0  0  0
  -24.2070  -13.1050   20.9150 C   0  0  0  0  0  0  0  0  0  0  0  0
  -24.6710  -11.7550   20.8660 C   0  0  0  0  0  0  0  0  0  0  0  0
  -26.3090  -13.0080   20.2760 N   0  0  0  0  0  0  0  0  0  0  0  0
  -25.9580  -11.7210   20.5390 N   0  0  0  0  0  0  0  0  0  0  0  0
  -23.9440  -10.4920   21.0540 C   0  0  0  0  0  0  0  0  0  0  0  0
  -24.3850   -9.5170   21.9770 C   0  0  0  0  0  3  0  0  0  0  0  0
  -23.6650   -8.3160   22.1510 C   0  0  0  0  0  3  0  0  0  0  0  0
  -22.4870   -8.0810   21.4050 C   0  0  0  0  0  0  0  0  0  0  0  0
  -22.0630   -9.0420   20.4700 C   0  0  0  0  0  3  0  0  0  0  0  0
  -22.7850  -10.2350   20.2930 C   0  0  0  0  0  3  0  0  0  0  0  0
  -21.7320   -6.9350   21.4950 O   0  0  0  0  0  0  0  0  0  0  0  0
  -21.6900   -6.1850   22.6420 C   0  0  0  0  0  0  0  0  0  0  0  0
  -21.2580   -6.7290   23.8730 C   0  0  0  0  0  3  0  0  0  0  0  0
  -21.1670   -5.9050   25.0130 C   0  0  0  0  0  3  0  0  0  0  0  0
  -21.4930   -4.5370   24.9220 C   0  0  0  0  0  0  0  0  0  0  0  0
  -21.9130   -3.9920   23.6960 C   0  0  0  0  0  3  0  0  0  0  0  0
  -22.0100   -4.8150   22.5600 C   0  0  0  0  0  0  0  0  0  0  0  0
  -22.3980   -4.2790   21.3760 F   0  0  0  0  0  0  0  0  0  0  0  0
  -21.3970   -3.7440   26.0150 F   0  0  0  0  0  0  0  0  0  0  0  0
  -22.8120  -13.5800   21.2010 C   0  0  0  0  0  0  0  0  0  0  0  0
  -22.0850  -12.8770   22.0640 N   0  0  0  0  0  0  0  0  0  0  0  0
  -22.3740  -14.6130   20.6970 O   0  0  0  0  0  0  0  0  0  0  0  0
  -22.4490  -12.0450   22.5040 H   0  0  0  0  0  0  0  0  0  0  0  0
  -21.1470  -13.1770   22.2860 H   0  0  0  0  0  0  0  0  0  0  0  0
  -25.4250  -15.2540   20.3690 N   0  0  0  0  0  0  0  0  0  0  0  0
  -24.6460  -15.8960   20.4810 H   0  0  0  0  0  0  0  0  0  0  0  0
  -26.2540  -15.6980   20.0000 H   0  0  0  0  0  0  0  0  0  0  0  0
  -28.7130  -23.7490   19.8630 C   0  0  0  0  0  2  0  0  0  0  0  0
  -28.1710  -25.0380   20.6950 C   0  0  0  0  0  2  0  0  0  0  0  0
  -28.3230  -26.4600   20.2190 O   0  0  0  0  0  0  0  0  0  0  0  0
  -24.5860  -31.9240   23.2410 C   0  0  0  0  0  0  0  0  0  0  0  0
  -27.2070  -27.3260   20.2180 C   0  0  0  0  0  0  0  0  0  0  0  0
  -23.3890  -30.5200   21.6000 C   0  0  0  0  0  3  0  0  0  0  0  0
  -24.8450  -28.9550   20.1870 C   0  0  0  0  0  0  0  0  0  0  0  0
  -25.9290  -30.8330   21.4250 C   0  0  0  0  0  2  0  0  0  0  0  0
  -26.0120  -29.4460   20.7860 C   0  0  0  0  0  0  0  0  0  0  0  0
  -27.1990  -28.6450   20.7840 C   0  0  0  0  0  3  0  0  0  0  0  0
  -26.0190  -26.8970   19.5910 C   0  0  0  0  0  3  0  0  0  0  0  0
  -24.8540  -27.6890   19.5780 C   0  0  0  0  0  3  0  0  0  0  0  0
  -23.6090  -29.8330   20.2240 C   0  0  0  0  0  2  0  0  0  0  0  0
  -24.6530  -31.1110   22.1450 N   0  0  0  0  0  0  0  0  0  0  0  0
  -23.4990  -32.2010   23.7720 O   0  0  0  0  0  0  0  0  0  0  0  0
  -22.7220  -29.5070   22.5630 C   0  0  0  0  0  0  0  0  0  0  0  0
  -21.3950  -29.3330   22.4380 N   0  0  0  0  0  0  0  0  0  0  0  0
  -23.3980  -28.8820   23.3840 O   0  0  0  0  0  0  0  0  0  0  0  0
  -20.9090  -29.8850   21.7470 H   0  0  0  0  0  0  0  0  0  0  0  0
  -18.0120  -28.1470   22.9480 C   0  0  0  0  0  0  0  0  0  0  0  0
  -20.5740  -28.3980   23.2120 C   0  0  0  0  0  3  0  0  0  0  0  0
  -20.6660  -26.9650   22.6380 C   0  0  0  0  0  2  0  0  0  0  0  0
  -19.5620  -26.6480   21.6250 C   0  0  0  0  0  2  0  0  0  0  0  0
  -18.1810  -26.7980   22.2690 C   0  0  0  0  0  2  0  0  0  0  0  0
  -19.1360  -28.9060   23.3740 C   0  0  0  0  0  0  0  0  0  0  0  0
  -18.9220  -30.1690   23.9660 C   0  0  0  0  0  3  0  0  0  0  0  0
  -17.6190  -30.6750   24.1370 C   0  0  0  0  0  3  0  0  0  0  0  0
  -16.5110  -29.9140   23.7270 C   0  0  0  0  0  3  0  0  0  0  0  0
  -16.7090  -28.6520   23.1370 C   0  0  0  0  0  3  0  0  0  0  0  0
  -25.8650  -32.5610   23.8610 C   0  0  0  0  0  3  0  0  0  0  0  0
  -26.3730  -31.7990   25.1480 C   0  0  1  0  0  0  0  0  0  0  0  0
  -25.2720  -31.5760   26.2110 C   0  0  0  0  0  1  0  0  0  0  0  0
  -26.9520  -30.4150   24.7750 C   0  0  0  0  0  1  0  0  0  0  0  0
  -27.5240  -32.5940   25.8090 C   0  0  0  0  0  1  0  0  0  0  0  0
  -25.5570  -33.9630   24.1810 N   0  0  0  0  0  0  0  0  0  0  0  0
  -25.8960  -35.0120   23.4160 C   0  0  0  0  0  0  0  0  0  0  0  0
  -26.5700  -34.8980   22.3880 O   0  0  0  0  0  0  0  0  0  0  0  0
  -24.9610  -34.1240   24.9790 H   0  0  0  0  0  0  0  0  0  0  0  0
  -24.1810  -36.8100   23.0270 C   0  0  0  0  0  1  0  0  0  0  0  0
  -25.4100  -36.4040   23.8580 C   0  0  0  0  0  3  0  0  0  0  0  0
  -27.5380  -37.2860   24.7120 C   0  0  0  0  0  1  0  0  0  0  0  0
  -26.4490  -37.4530   23.7530 N   0  0  0  0  0  0  0  0  0  0  0  0
  -26.0440  -38.3750   23.8880 H   0  0  0  0  0  0  0  0  0  0  0  0
  1  3  2  0
  2  6  1  0
  2  1  1  0
  4  2  1  0
  5  8  1  0
  6  5  2  0
  7  6  1  0
  7  9  2  0
  8 10  1  0
  9 11  1  0
 11  8  2  0
 12  7  1  0
 13 21  1  0
 14 19  1  0
 15 16  1  0
 15 14  1  0
 17 16  1  0
 17 26  1  0
 17 18  1  0
 19 13  1  0
 19 18  1  0
 20 13  2  0
 21 22  1  0
 21  9  1  0
 23 24  2  0
 24 43  1  0
 25 24  1  0
 25 28  1  0
 26 23  1  0
 26 27  1  0
 27 25  2  0
 28 29  1  0
 29 30  2  0
 31 34  1  0
 31 30  1  0
 32 31  2  0
 33 32  1  0
 33 28  2  0
 34 35  1  0
 35 36  1  0
 36 37  2  0
 38 37  1  0
 38 42  1  0
 39 38  2  0
 40 35  2  0
 40 39  1  0
 41 40  1  0
 43 44  1  0
 44 47  1  0
 44 46  1  0
 45 43  2  0
 48 49  1  0
 48 23  1  0
 50 48  1  0
 51  1  1  0
 51 52  1  0
 53 52  1  0
 54 65  2  0
 55 53  1  0
 55 60  1  0
 56 64  1  0
 56 66  1  0
 57 63  1  0
 57 59  1  0
 58 64  1  0
 59 58  1  0
 60 59  2  0
 61 55  2  0
 62 61  1  0
 62 57  2  0
 63 56  1  0
 64 54  1  0
 66 68  2  0
 67 66  1  0
 69 67  1  0
 70 79  2  0
 70 75  1  0
 71 67  1  0
 71 75  1  0
 72 71  1  0
 73 74  1  0
 73 72  1  0
 74 70  1  0
 75 76  2  0
 76 77  1  0
 78 77  2  0
 79 78  1  0
 80 54  1  0
 80 85  1  0
 80 81  1  0
 81 84  1  1
 81 82  1  0
 83 81  1  0
 85 88  1  0
 86 90  1  0
 86 85  1  0
 87 86  2  0
 90 89  1  0
 92 90  1  0
 92 93  1  0
 92 91  1  0
M  ISO  4  13 100  21 100  52 101  53 101
M  END
>  <TORSDO>  (51) 
F 19

>  <SCORE>  (51) 
-14.598

>  <name>  (51) 
50

>  <ligand_id>  (51) 
50

>  <original_smiles>  (51) 
[H]c1c([H])c([H])c2c(c1[H])C([H])([H])C([H])([H])C([H])([H])C2([H])N([H])C(=O)C1([H])N(C(=O)C([H])(N([H])C(=O)C([H])(N([H])C([H])([H])[H])C([H])([H])[H])C(C([H])([H])[H])(C([H])([H])[H])C([H])([H])[H])C([H])([H])c2c([H])c(OC([H])([H])C([H])([H])C(=O)N([H])c3c([H])c(C([H])([H])[H])nc(N([H])C(=O)N4C([H])([H])C([H])([H])C([H])([H])C([H])(n5nc(-c6c([H])c([H])c(Oc7c([H])c([H])c(F)c([H])c7F)c([H])c6[H])c(C(=O)N([H])[H])c5N([H])[H])C4([H])[H])c3Cl)c([H])c([H])c2C1([H])[H]

>  <smiles>  (51) 
[H]c1c([H])c([H])c2c(c1[H])C([H])([H])C([H])([H])C([H])([H])C2([H])N([H])C(=O)C1([H])N(C(=O)C([H])(N([H])C(=O)C([H])(N([H])C([H])([H])[H])C([H])([H])[H])C(C([H])([H])[H])(C([H])([H])[H])C([H])([H])[H])C([H])([H])c2c([H])c(OC([H])([H])C([H])([H])C(=O)N([H])c3c([H])c(C([H])([H])[H])nc(N([H])C(=O)N4C([H])([H])C([H])([H])C([H])([H])C([H])(n5nc(-c6c([H])c([H])c(Oc7c([H])c([H])c(F)c([H])c7F)c([H])c6[H])c(C(=O)N([H])[H])c5N([H])[H])C4([H])[H])c3Cl)c([H])c([H])c2C1([H])[H]

$$$$
51:0:0
     RDKit          3D

 92100  0  0  1  0  0  0  0  0999 V2000
  -31.4200  -20.7010   20.2270 C   0  0  0  0  0  1  0  0  0  0  0  0
  -30.1570  -19.9370   20.4740 N   0  0  0  0  0  0  0  0  0  0  0  0
  -30.7290  -18.5350   18.6390 C   0  0  0  0  0  2  0  0  0  0  0  0
  -32.0570  -18.0550   18.4330 C   0  0  0  0  0  3  0  0  0  0  0  0
  -32.1300  -17.3320   20.7690 C   0  0  0  0  0  2  0  0  0  0  0  0
  -30.2090  -18.5450   19.9600 C   0  0  0  0  0  3  0  0  0  0  0  0
  -30.7150  -17.3630   20.6820 C   0  0  0  0  0  3  0  0  0  0  0  0
  -32.7980  -17.5750   19.5470 C   0  0  0  0  0  0  0  0  0  0  0  0
  -34.1110  -17.2460   19.4170 F   0  0  0  0  0  0  0  0  0  0  0  0
  -30.6840  -14.7480   20.2490 C   0  0  0  0  0  0  0  0  0  0  0  0
  -30.3020  -12.5150   19.1650 C   0  0  0  0  0  2  0  0  0  0  0  0
  -29.3400  -12.6440   17.9590 C   0  0  0  0  0  2  0  0  0  0  0  0
  -27.8670  -12.5270   18.4000 C   0  0  0  0  0  2  0  0  0  0  0  0
  -27.5540  -13.3280   19.6970 C   0  0  0  0  0  3  0  0  0  0  0  0
  -28.6570  -13.2210   20.7710 C   0  0  0  0  0  2  0  0  0  0  0  0
  -29.9400  -13.5820   20.1440 N   0  0  0  0  0  0  0  0  0  0  0  0
  -31.8470  -14.7120   19.8570 O   0  0  0  0  0  0  0  0  0  0  0  0
  -30.0950  -15.9860   20.5740 N   0  0  0  0  0  0  0  0  0  0  0  0
  -29.0880  -15.9590   20.5940 H   0  0  0  0  0  0  0  0  0  0  0  0
  -25.1860  -13.8710   20.5260 C   0  0  0  0  0  0  0  0  0  0  0  0
  -24.1320  -13.0820   20.9120 C   0  0  0  0  0  0  0  0  0  0  0  0
  -24.6000  -11.7370   20.8240 C   0  0  0  0  0  0  0  0  0  0  0  0
  -26.2280  -13.0110   20.2300 N   0  0  0  0  0  0  0  0  0  0  0  0
  -25.8770  -11.7160   20.4610 N   0  0  0  0  0  0  0  0  0  0  0  0
  -23.8800  -10.4700   21.0070 C   0  0  0  0  0  0  0  0  0  0  0  0
  -24.3110   -9.5020   21.9430 C   0  0  0  0  0  3  0  0  0  0  0  0
  -23.5910   -8.3000   22.1190 C   0  0  0  0  0  3  0  0  0  0  0  0
  -22.4230   -8.0530   21.3560 C   0  0  0  0  0  0  0  0  0  0  0  0
  -22.0090   -9.0110   20.4130 C   0  0  0  0  0  3  0  0  0  0  0  0
  -22.7310  -10.2050   20.2380 C   0  0  0  0  0  3  0  0  0  0  0  0
  -21.6750   -6.9050   21.4400 O   0  0  0  0  0  0  0  0  0  0  0  0
  -21.5900   -6.1800   22.6030 C   0  0  0  0  0  0  0  0  0  0  0  0
  -21.0990   -6.7470   23.7980 C   0  0  0  0  0  3  0  0  0  0  0  0
  -20.9680   -5.9490   24.9530 C   0  0  0  0  0  3  0  0  0  0  0  0
  -21.3120   -4.5850   24.9080 C   0  0  0  0  0  0  0  0  0  0  0  0
  -21.7950   -4.0170   23.7170 C   0  0  0  0  0  3  0  0  0  0  0  0
  -21.9310   -4.8140   22.5650 C   0  0  0  0  0  0  0  0  0  0  0  0
  -22.3780   -4.2550   21.4150 F   0  0  0  0  0  0  0  0  0  0  0  0
  -21.1760   -3.8210   26.0170 F   0  0  0  0  0  0  0  0  0  0  0  0
  -22.7490  -13.5520   21.2470 C   0  0  0  0  0  0  0  0  0  0  0  0
  -22.0360  -12.8290   22.1110 N   0  0  0  0  0  0  0  0  0  0  0  0
  -22.2960  -14.5890   20.7740 O   0  0  0  0  0  0  0  0  0  0  0  0
  -22.4150  -11.9930   22.5340 H   0  0  0  0  0  0  0  0  0  0  0  0
  -21.0990  -13.1210   22.3520 H   0  0  0  0  0  0  0  0  0  0  0  0
  -25.3330  -15.2470   20.3840 N   0  0  0  0  0  0  0  0  0  0  0  0
  -24.5800  -15.9010   20.5840 H   0  0  0  0  0  0  0  0  0  0  0  0
  -26.1790  -15.7180   20.0710 H   0  0  0  0  0  0  0  0  0  0  0  0
  -28.9840  -20.9180   20.2540 C   0  0  0  0  0  3  0  0  0  0  0  0
  -29.1460  -22.4350   20.9320 C   0  0  0  0  0  3  0  0  0  0  0  0
  -28.0420  -23.6370   20.7310 C   0  0  0  0  0  2  0  0  0  0  0  0
  -28.2700  -25.1840   21.2370 C   0  0  0  0  0  2  0  0  0  0  0  0
  -28.3490  -26.4180   20.3720 O   0  0  0  0  0  0  0  0  0  0  0  0
  -24.6200  -31.9350   23.2260 C   0  0  0  0  0  0  0  0  0  0  0  0
  -27.2560  -27.3050   20.2990 C   0  0  0  0  0  0  0  0  0  0  0  0
  -23.4350  -30.5110   21.5920 C   0  0  0  0  0  3  0  0  0  0  0  0
  -24.9120  -28.9600   20.1730 C   0  0  0  0  0  0  0  0  0  0  0  0
  -25.9680  -30.8490   21.4050 C   0  0  0  0  0  2  0  0  0  0  0  0
  -26.0700  -29.4470   20.7960 C   0  0  0  0  0  0  0  0  0  0  0  0
  -27.2420  -28.6330   20.8440 C   0  0  0  0  0  3  0  0  0  0  0  0
  -26.0900  -26.8820   19.6270 C   0  0  0  0  0  3  0  0  0  0  0  0
  -24.9300  -27.6900   19.5700 C   0  0  0  0  0  3  0  0  0  0  0  0
  -23.6600  -29.8200   20.2190 C   0  0  0  0  0  2  0  0  0  0  0  0
  -24.6960  -31.1140   22.1350 N   0  0  0  0  0  0  0  0  0  0  0  0
  -23.5300  -32.2090   23.7460 O   0  0  0  0  0  0  0  0  0  0  0  0
  -22.7780  -29.5010   22.5600 C   0  0  0  0  0  0  0  0  0  0  0  0
  -21.4570  -29.3050   22.4260 N   0  0  0  0  0  0  0  0  0  0  0  0
  -23.4630  -28.8900   23.3850 O   0  0  0  0  0  0  0  0  0  0  0  0
  -20.9760  -29.8290   21.7080 H   0  0  0  0  0  0  0  0  0  0  0  0
  -18.0790  -28.0990   22.9260 C   0  0  0  0  0  0  0  0  0  0  0  0
  -20.6400  -28.3590   23.1950 C   0  0  0  0  0  3  0  0  0  0  0  0
  -20.7510  -26.9340   22.6020 C   0  0  0  0  0  2  0  0  0  0  0  0
  -19.6370  -26.6070   21.5990 C   0  0  0  0  0  2  0  0  0  0  0  0
  -18.2550  -26.7530   22.2460 C   0  0  0  0  0  2  0  0  0  0  0  0
  -19.2000  -28.8590   23.3560 C   0  0  0  0  0  0  0  0  0  0  0  0
  -18.9810  -30.1230   23.9510 C   0  0  0  0  0  3  0  0  0  0  0  0
  -17.6760  -30.6220   24.1280 C   0  0  0  0  0  3  0  0  0  0  0  0
  -16.5700  -29.8500   23.7300 C   0  0  0  0  0  3  0  0  0  0  0  0
  -16.7730  -28.5930   23.1300 C   0  0  0  0  0  3  0  0  0  0  0  0
  -25.8920  -32.5880   23.8500 C   0  0  0  0  0  3  0  0  0  0  0  0
  -25.5720  -33.9820   24.1820 N   0  0  0  0  0  0  0  0  0  0  0  0
  -25.8830  -35.0390   23.4130 C   0  0  0  0  0  0  0  0  0  0  0  0
  -26.5480  -34.9330   22.3810 O   0  0  0  0  0  0  0  0  0  0  0  0
  -25.0150  -34.1380   25.0060 H   0  0  0  0  0  0  0  0  0  0  0  0
  -24.1390  -36.8050   23.0330 C   0  0  0  0  0  1  0  0  0  0  0  0
  -25.3730  -36.4220   23.8630 C   0  0  0  0  0  3  0  0  0  0  0  0
  -27.4840  -37.3240   24.7350 C   0  0  0  0  0  1  0  0  0  0  0  0
  -26.3990  -37.4810   23.7690 N   0  0  0  0  0  0  0  0  0  0  0  0
  -25.9830  -38.3980   23.9050 H   0  0  0  0  0  0  0  0  0  0  0  0
  -26.4100  -31.8310   25.1310 C   0  0  1  0  0  0  0  0  0  0  0  0
  -25.3190  -31.5820   26.1890 C   0  0  0  0  0  1  0  0  0  0  0  0
  -27.0260  -30.4680   24.7450 C   0  0  0  0  0  1  0  0  0  0  0  0
  -27.5370  -32.6460   25.8070 C   0  0  0  0  0  1  0  0  0  0  0  0
  1  2  1  0
  3  6  1  0
  4  3  1  0
  4  8  2  0
  6  2  1  0
  6  7  1  0
  7 18  1  0
  7  5  1  0
  8  5  1  0
  9  8  1  0
 10 18  1  0
 11 16  1  0
 12 13  1  0
 12 11  1  0
 14 13  1  0
 14 23  1  0
 14 15  1  0
 16 10  1  0
 16 15  1  0
 17 10  2  0
 18 19  1  0
 20 21  2  0
 21 40  1  0
 22 21  1  0
 22 25  1  0
 23 24  1  0
 23 20  1  0
 24 22  2  0
 25 26  1  0
 26 27  2  0
 28 31  1  0
 28 27  1  0
 29 28  2  0
 30 29  1  0
 30 25  2  0
 31 32  1  0
 32 33  1  0
 33 34  2  0
 35 34  1  0
 35 39  1  0
 36 35  2  0
 37 32  2  0
 37 36  1  0
 38 37  1  0
 40 41  1  0
 41 44  1  0
 41 43  1  0
 42 40  2  0
 45 20  1  0
 45 46  1  0
 47 45  1  0
 48  2  1  0
 48 49  2  0
 50 49  1  0
 50 51  1  0
 52 51  1  0
 53 64  2  0
 54 52  1  0
 54 59  1  0
 55 63  1  0
 55 65  1  0
 56 62  1  0
 56 58  1  0
 57 63  1  0
 58 59  2  0
 58 57  1  0
 60 54  2  0
 61 60  1  0
 61 56  2  0
 62 55  1  0
 63 53  1  0
 65 67  2  0
 66 65  1  0
 68 66  1  0
 69 78  2  0
 69 74  1  0
 70 66  1  0
 70 74  1  0
 71 70  1  0
 72 73  1  0
 72 71  1  0
 73 69  1  0
 74 75  2  0
 75 76  1  0
 77 76  2  0
 78 77  1  0
 79 53  1  0
 79 80  1  0
 79 89  1  0
 80 83  1  0
 81 85  1  0
 81 80  1  0
 82 81  2  0
 85 84  1  0
 87 85  1  0
 87 88  1  0
 87 86  1  0
 89 92  1  1
 89 90  1  0
 91 89  1  0
M  ISO  4  10 100  18 100  51 101  52 101
M  END
>  <TORSDO>  (52) 
F 21

>  <SCORE>  (52) 
-13.590

>  <name>  (52) 
51

>  <ligand_id>  (52) 
51

>  <original_smiles>  (52) 
[H]c1c([H])c([H])c2c(c1[H])C([H])([H])C([H])([H])C([H])([H])C2([H])N([H])C(=O)C1([H])N(C(=O)C([H])(N([H])C(=O)C([H])(N([H])C([H])([H])[H])C([H])([H])[H])C(C([H])([H])[H])(C([H])([H])[H])C([H])([H])[H])C([H])([H])c2c([H])c(OC([H])([H])C([H])([H])C([H])([H])C([H])([H])N(c3c([H])c([H])c(F)c([H])c3N([H])C(=O)N3C([H])([H])C([H])([H])C([H])([H])C([H])(n4nc(-c5c([H])c([H])c(Oc6c([H])c([H])c(F)c([H])c6F)c([H])c5[H])c(C(=O)N([H])[H])c4N([H])[H])C3([H])[H])C([H])([H])[H])c([H])c([H])c2C1([H])[H]

>  <smiles>  (52) 
[H]c1c([H])c([H])c2c(c1[H])C([H])([H])C([H])([H])C([H])([H])C2([H])N([H])C(=O)C1([H])N(C(=O)C([H])(N([H])C(=O)C([H])(N([H])C([H])([H])[H])C([H])([H])[H])C(C([H])([H])[H])(C([H])([H])[H])C([H])([H])[H])C([H])([H])c2c([H])c(OC([H])([H])C([H])([H])C([H])([H])C([H])([H])N(c3c([H])c([H])c(F)c([H])c3N([H])C(=O)N3C([H])([H])C([H])([H])C([H])([H])C([H])(n4nc(-c5c([H])c([H])c(Oc6c([H])c([H])c(F)c([H])c6F)c([H])c5[H])c(C(=O)N([H])[H])c4N([H])[H])C3([H])[H])C([H])([H])[H])c([H])c([H])c2C1([H])[H]

$$$$
52:0:0
     RDKit          3D

 92 98  0  0  1  0  0  0  0  0999 V2000
  -24.1010  -15.3720   19.7230 C   0  0  0  0  0  1  0  0  0  0  0  0
  -24.8710  -16.7890   20.7490 C   0  0  0  0  0 15  0  0  0  0  0  0
  -27.0660  -14.1430   19.2040 C   0  0  0  0  0  3  0  0  0  0  0  0
  -25.1960  -14.0270   18.9860 C   0  0  0  0  0  0  0  0  0  0  0  0
  -27.8470  -15.5970   20.2730 C   0  0  0  0  0  0  0  0  0  0  0  0
  -26.7340  -17.0330   20.8840 C   0  0  0  0  0  3  0  0  0  0  0  0
  -30.5260  -14.8170   20.7820 C   0  0  0  0  0  0  0  0  0  0  0  0
  -30.9500  -12.3890   20.3710 C   0  0  0  0  0  2  0  0  0  0  0  0
  -29.9670  -11.9930   19.2270 C   0  0  0  0  0  2  0  0  0  0  0  0
  -28.5310  -11.7440   19.8010 C   0  0  0  0  0  2  0  0  0  0  0  0
  -28.1950  -12.8470   20.8350 C   0  0  0  0  0  3  0  0  0  0  0  0
  -29.2090  -13.0870   21.9210 C   0  0  0  0  0  2  0  0  0  0  0  0
  -30.3740  -13.5130   21.1620 N   0  0  0  0  0  0  0  0  0  0  0  0
  -31.6960  -15.1500   20.5000 O   0  0  0  0  0  0  0  0  0  0  0  0
  -29.3760  -15.6700   20.5710 N   0  0  0  0  0  4  0  0  0  0  0  0
  -29.6920  -16.6280   20.5380 H   0  0  0  0  0  0  0  0  0  0  0  0
  -25.9630  -14.5040   21.1290 C   0  0  0  0  0  2  0  0  0  0  0  0
  -24.8010  -13.5510   21.5530 C   0  0  0  0  0  0  0  0  0  0  0  0
  -25.0580  -12.0820   21.4840 C   0  0  0  0  0  0  0  0  0  0  0  0
  -26.8090  -13.2110   21.1680 N   0  0  0  0  0  0  0  0  0  0  0  0
  -26.3090  -11.9640   21.3650 N   0  0  0  0  0  2  0  0  0  0  0  0
  -24.2690  -10.7270   21.5420 C   0  0  0  0  0  0  0  0  0  0  0  0
  -24.5870   -9.6540   22.4410 C   0  0  0  0  0  3  0  0  0  0  0  0
  -23.8440   -8.4320   22.5030 C   0  0  0  0  0  3  0  0  0  0  0  0
  -22.7340   -8.2110   21.6530 C   0  0  0  0  0  0  0  0  0  0  0  0
  -22.4370   -9.2290   20.7230 C   0  0  0  0  0  3  0  0  0  0  0  0
  -23.1820  -10.4420   20.6670 C   0  0  0  0  0  3  0  0  0  0  0  0
  -21.9670   -7.0530   21.6210 O   0  0  0  0  0  0  0  0  0  0  0  0
  -21.7310   -6.2610   22.7280 C   0  0  0  0  0  0  0  0  0  0  0  0
  -21.1670   -6.7840   23.9150 C   0  0  0  0  0  3  0  0  0  0  0  0
  -20.8860   -5.9330   25.0060 C   0  0  0  0  0  3  0  0  0  0  0  0
  -21.1550   -4.5540   24.9170 C   0  0  0  0  0  0  0  0  0  0  0  0
  -21.6930   -4.0230   23.7330 C   0  0  0  0  0  3  0  0  0  0  0  0
  -21.9730   -4.8690   22.6430 C   0  0  0  0  0  0  0  0  0  0  0  0
  -22.4670   -4.3330   21.5000 F   0  0  0  0  0  0  0  0  0  0  0  0
  -20.8930   -3.7400   25.9680 F   0  0  0  0  0  0  0  0  0  0  0  0
  -23.2890  -13.7500   21.8900 C   0  0  0  0  0  0  0  0  0  0  0  0
  -22.6920  -12.9500   22.7730 N   0  0  0  0  0  0  0  0  0  0  0  0
  -22.5300  -14.5770   21.4200 O   0  0  0  0  0  0  0  0  0  0  0  0
  -23.1960  -12.2210   23.2570 H   0  0  0  0  0  0  0  0  0  0  0  0
  -21.7130  -13.0850   22.9820 H   0  0  0  0  0  0  0  0  0  0  0  0
  -26.3110  -16.7390   19.8430 N   0  0  0  0  0  0  0  0  0  0  0  0
  -25.5800  -17.4360   19.7750 H   0  0  0  0  0  0  0  0  0  0  0  0
  -27.1650  -16.9890   19.3610 H   0  0  0  0  0  0  0  0  0  0  0  0
  -23.1870  -13.0470   18.0480 C   0  0  0  0  0  1  0  0  0  0  0  0
  -25.2820  -11.7010   18.3740 C   0  0  0  0  0  1  0  0  0  0  0  0
  -24.6320  -12.9950   18.2210 N   0  0  0  0  0  0  0  0  0  0  0  0
  -27.2850  -18.4970   20.4500 O   0  0  0  0  0  0  0  0  0  0  0  0
  -26.7930  -19.9960   19.6580 C   0  0  0  0  0  2  0  0  0  0  0  0
  -27.4550  -21.7870   19.2210 C   0  0  0  0  0  3  0  0  0  0  0  0
  -26.8860  -23.6140   18.8200 C   0  0  0  0  0  3  0  0  0  0  0  0
  -27.4420  -25.2890   18.6220 O   0  0  0  0  0  0  0  0  0  0  0  0
  -24.5330  -31.2170   22.4800 C   0  0  0  0  0  0  0  0  0  0  0  0
  -26.6660  -26.6110   18.6950 C   0  0  0  0  0  0  0  0  0  0  0  0
  -23.2140  -29.9840   20.8220 C   0  0  0  0  0  3  0  0  0  0  0  0
  -24.5110  -28.6470   19.0250 C   0  0  0  0  0  0  0  0  0  0  0  0
  -25.7510  -30.2640   20.4320 C   0  0  0  0  0  2  0  0  0  0  0  0
  -25.7560  -28.9300   19.5980 C   0  0  0  0  0  0  0  0  0  0  0  0
  -26.8420  -27.9330   19.4030 C   0  0  0  0  0  3  0  0  0  0  0  0
  -25.4430  -26.5970   18.0100 C   0  0  0  0  0  3  0  0  0  0  0  0
  -24.3980  -27.5310   18.1870 C   0  0  0  0  0  3  0  0  0  0  0  0
  -23.3030  -29.5270   19.3410 C   0  0  0  0  0  2  0  0  0  0  0  0
  -24.5290  -30.5210   21.2960 N   0  0  0  0  0  0  0  0  0  0  0  0
  -23.4990  -31.3790   23.1500 O   0  0  0  0  0  0  0  0  0  0  0  0
  -22.6860  -28.8250   21.7120 C   0  0  0  0  0  0  0  0  0  0  0  0
  -21.3620  -28.5850   21.7090 N   0  0  0  0  0  0  0  0  0  0  0  0
  -23.4730  -28.1520   22.3820 O   0  0  0  0  0  0  0  0  0  0  0  0
  -20.7710  -29.1850   21.1510 H   0  0  0  0  0  0  0  0  0  0  0  0
  -18.1440  -27.0310   22.3590 C   0  0  0  0  0  0  0  0  0  0  0  0
  -20.6880  -27.5010   22.4360 C   0  0  0  0  0  3  0  0  0  0  0  0
  -20.8490  -26.1510   21.6990 C   0  0  0  0  0  2  0  0  0  0  0  0
  -19.6880  -25.8380   20.7500 C   0  0  0  0  0  2  0  0  0  0  0  0
  -18.3650  -25.7850   21.5180 C   0  0  0  0  0  2  0  0  0  0  0  0
  -19.2300  -27.8450   22.7770 C   0  0  0  0  0  0  0  0  0  0  0  0
  -18.9630  -29.0070   23.5320 C   0  0  0  0  0  3  0  0  0  0  0  0
  -17.6410  -29.3590   23.8680 C   0  0  0  0  0  3  0  0  0  0  0  0
  -16.5710  -28.5430   23.4610 C   0  0  0  0  0  3  0  0  0  0  0  0
  -16.8230  -27.3810   22.7130 C   0  0  0  0  0  3  0  0  0  0  0  0
  -25.8340  -31.8590   23.0460 C   0  0  0  0  0  3  0  0  0  0  0  0
  -25.4710  -33.1450   23.6750 N   0  0  0  0  0  0  0  0  0  0  0  0
  -25.6810  -34.3540   23.1400 C   0  0  0  0  0  0  0  0  0  0  0  0
  -26.2640  -34.5110   22.0640 O   0  0  0  0  0  0  0  0  0  0  0  0
  -24.9380  -33.0890   24.5310 H   0  0  0  0  0  0  0  0  0  0  0  0
  -23.8560  -36.0850   23.3010 C   0  0  0  0  0  1  0  0  0  0  0  0
  -25.1710  -35.5870   23.9170 C   0  0  0  0  0  3  0  0  0  0  0  0
  -27.3220  -36.4090   24.7800 C   0  0  0  0  0  1  0  0  0  0  0  0
  -26.1450  -36.7010   23.9660 N   0  0  0  0  0  0  0  0  0  0  0  0
  -25.7090  -37.5450   24.3300 H   0  0  0  0  0  0  0  0  0  0  0  0
  -26.5690  -30.9390   24.0990 C   0  0  1  0  0  0  0  0  0  0  0  0
  -25.6510  -30.4410   25.2410 C   0  0  0  0  0  1  0  0  0  0  0  0
  -27.1800  -29.6940   23.4190 C   0  0  0  0  0  1  0  0  0  0  0  0
  -27.7510  -31.7120   24.7330 C   0  0  0  0  0  1  0  0  0  0  0  0
  3  5  1  0
  4  3  2  0
  4  1  1  0
  5 15  2  0
  6  5  1  0
  7 13  1  0
  8 13  1  0
  9 10  1  0
  9  8  1  0
 11 10  1  0
 11 20  1  0
 11 12  1  0
 13 12  1  0
 14  7  2  0
 15  7  1  0
 16 15  1  0
 17 18  1  0
 18 37  1  0
 19 22  1  0
 19 18  2  0
 20 17  1  0
 20 21  1  0
 21 19  1  0
 22 23  1  0
 23 24  2  0
 25 24  1  0
 26 25  2  0
 27 26  1  0
 27 22  2  0
 28 25  1  0
 28 29  1  0
 29 30  1  0
 30 31  2  0
 32 31  1  0
 32 36  1  0
 33 32  2  0
 34 29  2  0
 34 33  1  0
 35 34  1  0
 37 38  1  0
 38 41  1  0
 38 40  1  0
 39 37  2  0
 42  6  1  0
 43 42  1  0
 44 42  1  0
 45 47  1  0
 47 46  1  0
 47  4  1  0
 48  6  1  0
 49 48  1  0
 50 49  1  0
 51 50  2  0
 52 54  1  0
 52 51  1  0
 53 64  2  0
 54 59  1  0
 55 63  1  0
 55 65  1  0
 56 62  1  0
 56 58  1  0
 57 63  1  0
 58 57  1  0
 59 58  2  0
 60 61  1  0
 60 54  2  0
 61 56  2  0
 62 55  1  0
 63 53  1  0
 65 67  2  0
 66 65  1  0
 68 66  1  0
 69 78  2  0
 69 74  1  0
 70 66  1  0
 70 74  1  0
 71 70  1  0
 72 73  1  0
 72 71  1  0
 73 69  1  0
 74 75  2  0
 75 76  1  0
 77 76  2  0
 78 77  1  0
 79 53  1  0
 79 80  1  0
 79 89  1  0
 80 83  1  0
 81 80  1  0
 81 85  1  0
 82 81  2  0
 85 84  1  0
 85 87  1  0
 87 88  1  0
 87 86  1  0
 89 92  1  1
 89 90  1  0
 91 89  1  0
M  ISO  4   7 100  15 100  51 101  52 101
M  END
>  <TORSDO>  (53) 
F 21

>  <SCORE>  (53) 
2.780

>  <name>  (53) 
52

>  <ligand_id>  (53) 
52

>  <original_smiles>  (53) 
[H]c1c([H])c([H])c2c(c1[H])C([H])([H])C([H])([H])C([H])([H])C2([H])N([H])C(=O)C1([H])N(C(=O)C([H])(N([H])C(=O)C([H])(N([H])C([H])([H])[H])C([H])([H])[H])C(C([H])([H])[H])(C([H])([H])[H])C([H])([H])[H])C([H])([H])c2c([H])c(OC([H])([H])C([H])([H])C([H])([H])Oc3c([H])c([H])c(N(C([H])([H])[H])C([H])([H])[H])c([H])c3N([H])C(=O)N3C([H])([H])C([H])([H])C([H])([H])C([H])(n4nc(-c5c([H])c([H])c(Oc6c([H])c([H])c(F)c([H])c6F)c([H])c5[H])c(C(=O)N([H])[H])c4N([H])[H])C3([H])[H])c([H])c([H])c2C1([H])[H]

>  <smiles>  (53) 
[H]c1c([H])c([H])c2c(c1[H])C([H])([H])C([H])([H])C([H])([H])C2([H])N([H])C(=O)C1([H])N(C(=O)C([H])(N([H])C(=O)C([H])(N([H])C([H])([H])[H])C([H])([H])[H])C(C([H])([H])[H])(C([H])([H])[H])C([H])([H])[H])C([H])([H])c2c([H])c(OC([H])([H])C([H])([H])C([H])([H])Oc3c([H])c([H])c(N(C([H])([H])[H])C([H])([H])[H])c([H])c3N([H])C(=O)N3C([H])([H])C([H])([H])C([H])([H])C([H])(n4nc(-c5c([H])c([H])c(Oc6c([H])c([H])c(F)c([H])c6F)c([H])c5[H])c(C(=O)N([H])[H])c4N([H])[H])C3([H])[H])c([H])c([H])c2C1([H])[H]

$$$$
53:0:0
     RDKit          3D

 90 98  0  0  1  0  0  0  0  0999 V2000
  -30.6800  -18.4140   19.3230 C   0  0  0  0  0  3  0  0  0  0  0  0
  -28.4930  -19.8010   20.3620 C   0  0  0  0  0  3  0  0  0  0  0  0
  -29.7340  -17.5720   19.9900 C   0  0  0  0  0  0  0  0  0  0  0  0
  -29.4230  -20.6410   19.6660 C   0  0  0  0  0  0  0  0  0  0  0  0
  -30.5240  -19.8520   19.1650 C   0  0  0  0  0  0  0  0  0  0  0  0
  -28.6370  -18.3550   20.5000 C   0  0  0  0  0  0  0  0  0  0  0  0
  -31.4900  -20.5050   18.4730 F   0  0  0  0  0  0  0  0  0  0  0  0
  -27.6510  -17.6850   21.1440 F   0  0  0  0  0  0  0  0  0  0  0  0
  -30.5120  -14.9320   19.7000 C   0  0  0  0  0  0  0  0  0  0  0  0
  -30.2960  -12.6140   18.7030 C   0  0  0  0  0  2  0  0  0  0  0  0
  -29.2350  -12.6390   17.5770 C   0  0  0  0  0  2  0  0  0  0  0  0
  -27.8200  -12.4310   18.1510 C   0  0  0  0  0  2  0  0  0  0  0  0
  -27.5560  -13.3090   19.4020 C   0  0  0  0  0  3  0  0  0  0  0  0
  -28.7240  -13.2430   20.4110 C   0  0  0  0  0  2  0  0  0  0  0  0
  -29.9380  -13.6640   19.6980 N   0  0  0  0  0  0  0  0  0  0  0  0
  -31.6470  -15.0520   19.2250 O   0  0  0  0  0  0  0  0  0  0  0  0
  -29.7370  -16.0410   20.1180 N   0  0  0  0  0  0  0  0  0  0  0  0
  -28.9170  -15.7190   20.6100 H   0  0  0  0  0  0  0  0  0  0  0  0
  -25.2720  -13.8870   20.4060 C   0  0  0  0  0  0  0  0  0  0  0  0
  -24.2410  -13.1110   20.8560 C   0  0  0  0  0  0  0  0  0  0  0  0
  -24.6790  -11.7570   20.7250 C   0  0  0  0  0  0  0  0  0  0  0  0
  -26.2710  -13.0080   20.0240 N   0  0  0  0  0  0  0  0  0  0  0  0
  -25.9300  -11.7180   20.2790 N   0  0  0  0  0  0  0  0  0  0  0  0
  -23.9570  -10.4960   20.9410 C   0  0  0  0  0  0  0  0  0  0  0  0
  -24.4420   -9.5090   21.8270 C   0  0  0  0  0  3  0  0  0  0  0  0
  -23.7190   -8.3140   22.0340 C   0  0  0  0  0  3  0  0  0  0  0  0
  -22.4960   -8.0990   21.3570 C   0  0  0  0  0  0  0  0  0  0  0  0
  -22.0280   -9.0750   20.4590 C   0  0  0  0  0  3  0  0  0  0  0  0
  -22.7520  -10.2600   20.2490 C   0  0  0  0  0  3  0  0  0  0  0  0
  -21.7380   -6.9580   21.4760 O   0  0  0  0  0  0  0  0  0  0  0  0
  -21.7300   -6.2180   22.6310 C   0  0  0  0  0  0  0  0  0  0  0  0
  -21.3310   -6.7710   23.8670 C   0  0  0  0  0  3  0  0  0  0  0  0
  -21.2710   -5.9560   25.0150 C   0  0  0  0  0  3  0  0  0  0  0  0
  -21.5960   -4.5900   24.9290 C   0  0  0  0  0  0  0  0  0  0  0  0
  -21.9870   -4.0360   23.6970 C   0  0  0  0  0  3  0  0  0  0  0  0
  -22.0500   -4.8480   22.5500 C   0  0  0  0  0  0  0  0  0  0  0  0
  -22.4070   -4.3050   21.3620 F   0  0  0  0  0  0  0  0  0  0  0  0
  -21.5310   -3.8050   26.0300 F   0  0  0  0  0  0  0  0  0  0  0  0
  -22.8870  -13.5920   21.2920 C   0  0  0  0  0  0  0  0  0  0  0  0
  -22.2490  -12.8760   22.2100 N   0  0  0  0  0  0  0  0  0  0  0  0
  -22.4100  -14.6380   20.8530 O   0  0  0  0  0  0  0  0  0  0  0  0
  -22.6500  -12.0290   22.5840 H   0  0  0  0  0  0  0  0  0  0  0  0
  -21.3440  -13.1800   22.5440 H   0  0  0  0  0  0  0  0  0  0  0  0
  -25.4350  -15.2620   20.2640 N   0  0  0  0  0  0  0  0  0  0  0  0
  -24.6950  -15.9170   20.4920 H   0  0  0  0  0  0  0  0  0  0  0  0
  -26.2470  -15.7110   19.8610 H   0  0  0  0  0  0  0  0  0  0  0  0
  -29.3480  -22.0780   19.3640 O   0  0  0  0  0  0  0  0  0  0  0  0
  -28.6350  -23.2610   20.0410 C   0  0  0  0  0  2  0  0  0  0  0  0
  -28.4330  -24.7510   19.2670 C   0  0  0  0  0  2  0  0  0  0  0  0
  -28.3950  -26.2040   19.8330 O   0  0  0  0  0  0  0  0  0  0  0  0
  -24.6650  -31.6640   23.0420 C   0  0  0  0  0  0  0  0  0  0  0  0
  -27.2950  -27.1370   19.7780 C   0  0  0  0  0  0  0  0  0  0  0  0
  -23.4700  -30.3170   21.3580 C   0  0  0  0  0  3  0  0  0  0  0  0
  -24.9290  -28.8330   19.8490 C   0  0  0  0  0  0  0  0  0  0  0  0
  -26.0150  -30.6370   21.1770 C   0  0  0  0  0  2  0  0  0  0  0  0
  -26.1050  -29.2760   20.4650 C   0  0  0  0  0  0  0  0  0  0  0  0
  -27.2840  -28.4430   20.4170 C   0  0  0  0  0  3  0  0  0  0  0  0
  -26.0880  -26.7950   19.1300 C   0  0  0  0  0  3  0  0  0  0  0  0
  -24.9330  -27.6050   19.1690 C   0  0  0  0  0  3  0  0  0  0  0  0
  -23.6860  -29.7030   19.9490 C   0  0  0  0  0  2  0  0  0  0  0  0
  -24.7360  -30.8920   21.9150 N   0  0  0  0  0  0  0  0  0  0  0  0
  -23.5800  -31.9060   23.5940 O   0  0  0  0  0  0  0  0  0  0  0  0
  -22.8210  -29.2580   22.2840 C   0  0  0  0  0  0  0  0  0  0  0  0
  -21.4920  -29.0820   22.1770 N   0  0  0  0  0  0  0  0  0  0  0  0
  -23.5150  -28.5970   23.0610 O   0  0  0  0  0  0  0  0  0  0  0  0
  -20.9880  -29.6680   21.5260 H   0  0  0  0  0  0  0  0  0  0  0  0
  -18.1260  -27.8550   22.7150 C   0  0  0  0  0  0  0  0  0  0  0  0
  -20.6920  -28.1040   22.9190 C   0  0  0  0  0  3  0  0  0  0  0  0
  -20.7760  -26.7060   22.2620 C   0  0  0  0  0  2  0  0  0  0  0  0
  -19.6430  -26.4400   21.2650 C   0  0  0  0  0  2  0  0  0  0  0  0
  -18.2810  -26.5460   21.9580 C   0  0  0  0  0  2  0  0  0  0  0  0
  -19.2580  -28.5940   23.1530 C   0  0  0  0  0  0  0  0  0  0  0  0
  -19.0570  -29.8180   23.8240 C   0  0  0  0  0  3  0  0  0  0  0  0
  -17.7570  -30.3060   24.0600 C   0  0  0  0  0  3  0  0  0  0  0  0
  -16.6410  -29.5650   23.6370 C   0  0  0  0  0  3  0  0  0  0  0  0
  -16.8270  -28.3390   22.9710 C   0  0  0  0  0  3  0  0  0  0  0  0
  -25.9380  -32.2940   23.6820 C   0  0  0  0  0  3  0  0  0  0  0  0
  -26.4710  -31.4850   24.9290 C   0  0  1  0  0  0  0  0  0  0  0  0
  -25.3890  -31.2010   25.9960 C   0  0  0  0  0  1  0  0  0  0  0  0
  -27.0660  -30.1280   24.4900 C   0  0  0  0  0  1  0  0  0  0  0  0
  -27.6200  -32.2690   25.6100 C   0  0  0  0  0  1  0  0  0  0  0  0
  -25.6080  -33.6750   24.0710 N   0  0  0  0  0  0  0  0  0  0  0  0
  -25.9270  -34.7670   23.3630 C   0  0  0  0  0  0  0  0  0  0  0  0
  -26.5980  -34.7180   22.3290 O   0  0  0  0  0  0  0  0  0  0  0  0
  -25.0110  -33.7850   24.8780 H   0  0  0  0  0  0  0  0  0  0  0  0
  -24.1770  -36.5550   23.0950 C   0  0  0  0  0  1  0  0  0  0  0  0
  -25.4250  -36.1280   23.8850 C   0  0  0  0  0  3  0  0  0  0  0  0
  -27.5470  -37.0060   24.7570 C   0  0  0  0  0  1  0  0  0  0  0  0
  -26.4450  -37.1970   23.8160 N   0  0  0  0  0  0  0  0  0  0  0  0
  -26.0260  -38.1060   23.9980 H   0  0  0  0  0  0  0  0  0  0  0  0
  1  3  1  0
  2  6  1  0
  3 17  1  0
  3  6  2  0
  4  2  2  0
  5  1  2  0
  5  4  1  0
  6  8  1  0
  7  5  1  0
  9 17  1  0
 10 15  1  0
 11 12  1  0
 11 10  1  0
 13 12  1  0
 13 22  1  0
 13 14  1  0
 15  9  1  0
 15 14  1  0
 16  9  2  0
 17 18  1  0
 19 20  2  0
 20 39  1  0
 21 20  1  0
 21 24  1  0
 22 23  1  0
 22 19  1  0
 23 21  2  0
 24 25  1  0
 25 26  2  0
 27 30  1  0
 27 26  1  0
 28 27  2  0
 29 28  1  0
 29 24  2  0
 30 31  1  0
 31 32  1  0
 32 33  2  0
 34 33  1  0
 34 38  1  0
 35 34  2  0
 36 31  2  0
 36 35  1  0
 37 36  1  0
 39 40  1  0
 40 43  1  0
 40 42  1  0
 41 39  2  0
 44 19  1  0
 44 45  1  0
 46 44  1  0
 47  4  1  0
 47 48  1  0
 49 50  1  0
 49 48  1  0
 51 62  2  0
 52 50  1  0
 52 57  1  0
 53 61  1  0
 53 63  1  0
 54 60  1  0
 54 56  1  0
 55 61  1  0
 56 55  1  0
 57 56  2  0
 58 59  1  0
 58 52  2  0
 59 54  2  0
 60 53  1  0
 61 51  1  0
 63 65  2  0
 64 63  1  0
 66 64  1  0
 67 76  2  0
 67 72  1  0
 68 64  1  0
 68 72  1  0
 69 68  1  0
 70 71  1  0
 70 69  1  0
 71 67  1  0
 72 73  2  0
 73 74  1  0
 75 74  2  0
 76 75  1  0
 77 51  1  0
 77 82  1  0
 77 78  1  0
 78 81  1  1
 78 79  1  0
 80 78  1  0
 82 85  1  0
 83 87  1  0
 83 82  1  0
 84 83  2  0
 87 86  1  0
 89 87  1  0
 89 90  1  0
 89 88  1  0
M  ISO  4   9 100  17 100  49 101  50 101
M  END
>  <TORSDO>  (54) 
F 19

>  <SCORE>  (54) 
-13.201

>  <name>  (54) 
53

>  <ligand_id>  (54) 
53

>  <original_smiles>  (54) 
[H]c1c([H])c([H])c2c(c1[H])C([H])([H])C([H])([H])C([H])([H])C2([H])N([H])C(=O)C1([H])N(C(=O)C([H])(N([H])C(=O)C([H])(N([H])C([H])([H])[H])C([H])([H])[H])C(C([H])([H])[H])(C([H])([H])[H])C([H])([H])[H])C([H])([H])c2c([H])c(OC([H])([H])C([H])([H])Oc3c([H])c(F)c(N([H])C(=O)N4C([H])([H])C([H])([H])C([H])([H])C([H])(n5nc(-c6c([H])c([H])c(Oc7c([H])c([H])c(F)c([H])c7F)c([H])c6[H])c(C(=O)N([H])[H])c5N([H])[H])C4([H])[H])c([H])c3F)c([H])c([H])c2C1([H])[H]

>  <smiles>  (54) 
[H]c1c([H])c([H])c2c(c1[H])C([H])([H])C([H])([H])C([H])([H])C2([H])N([H])C(=O)C1([H])N(C(=O)C([H])(N([H])C(=O)C([H])(N([H])C([H])([H])[H])C([H])([H])[H])C(C([H])([H])[H])(C([H])([H])[H])C([H])([H])[H])C([H])([H])c2c([H])c(OC([H])([H])C([H])([H])Oc3c([H])c(F)c(N([H])C(=O)N4C([H])([H])C([H])([H])C([H])([H])C([H])(n5nc(-c6c([H])c([H])c(Oc7c([H])c([H])c(F)c([H])c7F)c([H])c6[H])c(C(=O)N([H])[H])c5N([H])[H])C4([H])[H])c([H])c3F)c([H])c([H])c2C1([H])[H]

$$$$
54:0:0
     RDKit          3D

 94102  0  0  1  0  0  0  0  0999 V2000
  -30.6110  -17.9360   21.7410 C   0  0  0  0  0  3  0  0  0  0  0  0
  -30.6360  -19.2000   22.3740 C   0  0  0  0  0  3  0  0  0  0  0  0
  -29.3920  -19.0230   19.9560 C   0  0  0  0  0  3  0  0  0  0  0  0
  -29.9810  -17.7410   20.4970 C   0  0  0  0  0  0  0  0  0  0  0  0
  -30.0690  -20.3890   21.8300 C   0  0  0  0  0  0  0  0  0  0  0  0
  -29.4210  -20.4010   20.5550 C   0  0  0  0  0  0  0  0  0  0  0  0
  -30.6930  -15.0750   20.2120 C   0  0  0  0  0  0  0  0  0  0  0  0
  -30.6140  -12.6560   19.3940 C   0  0  0  0  0  2  0  0  0  0  0  0
  -29.6930  -12.4620   18.1660 C   0  0  0  0  0  2  0  0  0  0  0  0
  -28.2330  -12.2570   18.6110 C   0  0  0  0  0  2  0  0  0  0  0  0
  -27.7890  -13.2510   19.7170 C   0  0  0  0  0  3  0  0  0  0  0  0
  -28.8400  -13.3940   20.8360 C   0  0  0  0  0  2  0  0  0  0  0  0
  -30.0890  -13.8090   20.1860 N   0  0  0  0  0  0  0  0  0  0  0  0
  -31.9280  -15.0710   20.1170 O   0  0  0  0  0  0  0  0  0  0  0  0
  -29.9530  -16.2960   19.9060 N   0  0  0  0  0  0  0  0  0  0  0  0
  -25.4190  -13.8550   20.4440 C   0  0  0  0  0  0  0  0  0  0  0  0
  -24.3490  -13.0910   20.8140 C   0  0  0  0  0  0  0  0  0  0  0  0
  -24.8080  -11.7380   20.8140 C   0  0  0  0  0  0  0  0  0  0  0  0
  -26.4590  -12.9660   20.2280 N   0  0  0  0  0  0  0  0  0  0  0  0
  -26.1020  -11.6910   20.5210 N   0  0  0  0  0  0  0  0  0  0  0  0
  -24.0780  -10.4820   21.0170 C   0  0  0  0  0  0  0  0  0  0  0  0
  -24.4710   -9.5540   22.0050 C   0  0  0  0  0  3  0  0  0  0  0  0
  -23.7390   -8.3620   22.1980 C   0  0  0  0  0  3  0  0  0  0  0  0
  -22.6010   -8.0910   21.4000 C   0  0  0  0  0  0  0  0  0  0  0  0
  -22.2280   -9.0100   20.4030 C   0  0  0  0  0  3  0  0  0  0  0  0
  -22.9600  -10.1930   20.2090 C   0  0  0  0  0  3  0  0  0  0  0  0
  -21.8460   -6.9480   21.4990 O   0  0  0  0  0  0  0  0  0  0  0  0
  -21.7330   -6.2610   22.6820 C   0  0  0  0  0  0  0  0  0  0  0  0
  -21.1830   -6.8540   23.8380 C   0  0  0  0  0  3  0  0  0  0  0  0
  -21.0200   -6.0920   25.0120 C   0  0  0  0  0  3  0  0  0  0  0  0
  -21.3990   -4.7360   25.0290 C   0  0  0  0  0  0  0  0  0  0  0  0
  -21.9440   -4.1420   23.8770 C   0  0  0  0  0  3  0  0  0  0  0  0
  -22.1060   -4.9030   22.7050 C   0  0  0  0  0  0  0  0  0  0  0  0
  -22.6120   -4.3190   21.5900 F   0  0  0  0  0  0  0  0  0  0  0  0
  -21.2360   -3.9990   26.1530 F   0  0  0  0  0  0  0  0  0  0  0  0
  -22.9510  -13.5800   21.0580 C   0  0  0  0  0  0  0  0  0  0  0  0
  -22.2090  -12.8990   21.9230 N   0  0  0  0  0  0  0  0  0  0  0  0
  -22.5270  -14.6010   20.5170 O   0  0  0  0  0  0  0  0  0  0  0  0
  -22.5690  -12.0740   22.3810 H   0  0  0  0  0  0  0  0  0  0  0  0
  -21.2710  -13.2060   22.1340 H   0  0  0  0  0  0  0  0  0  0  0  0
  -25.5920  -15.2220   20.2430 N   0  0  0  0  0  0  0  0  0  0  0  0
  -24.8310  -15.8850   20.3380 H   0  0  0  0  0  0  0  0  0  0  0  0
  -26.4590  -15.6510   19.9450 H   0  0  0  0  0  0  0  0  0  0  0  0
  -30.3260  -16.9700   17.5170 C   0  0  0  0  0  1  0  0  0  0  0  0
  -29.3960  -16.2890   18.5400 C   0  0  0  0  0  2  0  0  0  0  0  0
  -31.1590  -22.3980   22.6740 C   0  0  0  0  0  0  0  0  0  0  0  0
  -32.3060  -22.1760   21.6890 C   0  0  0  0  0  1  0  0  0  0  0  0
  -29.0640  -21.6610   23.6860 C   0  0  0  0  0  1  0  0  0  0  0  0
  -30.1200  -21.5290   22.6760 N   0  0  0  0  0  0  0  0  0  0  0  0
  -31.2210  -23.3660   23.4380 O   0  0  0  0  0  0  0  0  0  0  0  0
  -28.8230  -21.6340   19.9600 O   0  0  0  0  0  0  0  0  0  0  0  0
  -28.9280  -23.1570   20.3750 C   0  0  0  0  0  3  0  0  0  0  0  0
  -28.0520  -24.5080   19.7860 C   0  0  0  0  0  3  0  0  0  0  0  0
  -28.2680  -26.0550   20.0290 O   0  0  0  0  0  0  0  0  0  0  0  0
  -24.5190  -31.6880   23.0090 C   0  0  0  0  0  0  0  0  0  0  0  0
  -27.2110  -27.0490   19.9360 C   0  0  0  0  0  0  0  0  0  0  0  0
  -23.3660  -30.3000   21.3310 C   0  0  0  0  0  3  0  0  0  0  0  0
  -24.8600  -28.7780   19.8900 C   0  0  0  0  0  0  0  0  0  0  0  0
  -25.9170  -30.6120   21.2010 C   0  0  0  0  0  2  0  0  0  0  0  0
  -26.0240  -29.2300   20.5260 C   0  0  0  0  0  0  0  0  0  0  0  0
  -27.1990  -28.3810   20.5310 C   0  0  0  0  0  3  0  0  0  0  0  0
  -26.0240  -26.7170   19.2470 C   0  0  0  0  0  3  0  0  0  0  0  0
  -24.8760  -27.5390   19.2330 C   0  0  0  0  0  3  0  0  0  0  0  0
  -23.6160  -29.6550   19.9410 C   0  0  0  0  0  2  0  0  0  0  0  0
  -24.6190  -30.8900   21.9020 N   0  0  0  0  0  0  0  0  0  0  0  0
  -23.4220  -31.9380   23.5330 O   0  0  0  0  0  0  0  0  0  0  0  0
  -22.6970  -29.2610   22.2670 C   0  0  0  0  0  0  0  0  0  0  0  0
  -21.3610  -29.1190   22.1760 N   0  0  0  0  0  0  0  0  0  0  0  0
  -23.3810  -28.5880   23.0420 O   0  0  0  0  0  0  0  0  0  0  0  0
  -20.8620  -29.7130   21.5260 H   0  0  0  0  0  0  0  0  0  0  0  0
  -17.9700  -28.0060   22.7880 C   0  0  0  0  0  0  0  0  0  0  0  0
  -20.5470  -28.1620   22.9300 C   0  0  0  0  0  3  0  0  0  0  0  0
  -20.5650  -26.7690   22.2630 C   0  0  0  0  0  2  0  0  0  0  0  0
  -19.4000  -26.5520   21.2910 C   0  0  0  0  0  2  0  0  0  0  0  0
  -18.0590  -26.6990   22.0170 C   0  0  0  0  0  2  0  0  0  0  0  0
  -19.1360  -28.7000   23.2040 C   0  0  0  0  0  0  0  0  0  0  0  0
  -18.9940  -29.9250   23.8910 C   0  0  0  0  0  3  0  0  0  0  0  0
  -17.7190  -30.4560   24.1620 C   0  0  0  0  0  3  0  0  0  0  0  0
  -16.5670  -29.7580   23.7600 C   0  0  0  0  0  3  0  0  0  0  0  0
  -16.6940  -28.5330   23.0800 C   0  0  0  0  0  3  0  0  0  0  0  0
  -25.7760  -32.3400   23.6610 C   0  0  0  0  0  3  0  0  0  0  0  0
  -25.4260  -33.7210   24.0280 N   0  0  0  0  0  0  0  0  0  0  0  0
  -25.7660  -34.8090   23.3230 C   0  0  0  0  0  0  0  0  0  0  0  0
  -26.4720  -34.7560   22.3120 O   0  0  0  0  0  0  0  0  0  0  0  0
  -24.8060  -33.8340   24.8150 H   0  0  0  0  0  0  0  0  0  0  0  0
  -24.0560  -36.6160   22.9460 C   0  0  0  0  0  1  0  0  0  0  0  0
  -25.2400  -36.1730   23.8170 C   0  0  0  0  0  3  0  0  0  0  0  0
  -27.2970  -37.0350   24.8480 C   0  0  0  0  0  1  0  0  0  0  0  0
  -26.2720  -37.2340   23.8280 N   0  0  0  0  0  0  0  0  0  0  0  0
  -25.8490  -38.1460   23.9760 H   0  0  0  0  0  0  0  0  0  0  0  0
  -26.2930  -31.5520   24.9280 C   0  0  1  0  0  0  0  0  0  0  0  0
  -25.1940  -31.2730   25.9780 C   0  0  0  0  0  1  0  0  0  0  0  0
  -26.9050  -30.1930   24.5190 C   0  0  0  0  0  1  0  0  0  0  0  0
  -27.4220  -32.3540   25.6180 C   0  0  0  0  0  1  0  0  0  0  0  0
  1  2  1  0
  3  4  1  0
  3  6  2  0
  4  1  2  0
  5  2  2  0
  5 49  1  0
  6  5  1  0
  8 13  1  0
  9 10  1  0
  9  8  1  0
 11 10  1  0
 11 19  1  0
 11 12  1  0
 13  7  1  0
 13 12  1  0
 14  7  2  0
 15  7  1  0
 15  4  1  0
 16 17  2  0
 17 18  1  0
 17 36  1  0
 18 21  1  0
 19 16  1  0
 19 20  1  0
 20 18  2  0
 21 22  1  0
 22 23  2  0
 24 27  1  0
 24 23  1  0
 25 24  2  0
 26 25  1  0
 26 21  2  0
 27 28  1  0
 28 33  2  0
 28 29  1  0
 29 30  2  0
 30 31  1  0
 31 35  1  0
 32 31  2  0
 33 32  1  0
 34 33  1  0
 36 37  1  0
 37 40  1  0
 37 39  1  0
 38 36  2  0
 41 42  1  0
 41 16  1  0
 43 41  1  0
 44 45  1  0
 45 15  1  0
 46 49  1  0
 46 50  2  0
 47 46  1  0
 49 48  1  0
 51 52  1  0
 51  6  1  0
 53 54  1  0
 53 52  2  0
 55 66  2  0
 56 54  1  0
 56 61  1  0
 57 65  1  0
 57 67  1  0
 58 64  1  0
 58 60  1  0
 59 65  1  0
 60 61  2  0
 60 59  1  0
 62 56  2  0
 63 62  1  0
 63 58  2  0
 64 57  1  0
 65 55  1  0
 67 69  2  0
 68 67  1  0
 70 68  1  0
 71 80  2  0
 71 76  1  0
 72 68  1  0
 72 76  1  0
 73 72  1  0
 74 75  1  0
 74 73  1  0
 75 71  1  0
 76 77  2  0
 77 78  1  0
 79 78  2  0
 80 79  1  0
 81 55  1  0
 81 82  1  0
 81 91  1  0
 82 85  1  0
 83 87  1  0
 83 82  1  0
 84 83  2  0
 87 86  1  0
 87 89  1  0
 89 90  1  0
 89 88  1  0
 91 94  1  1
 91 92  1  0
 93 91  1  0
M  ISO  4   7 100  15 100  53 101  54 101
M  END
>  <TORSDO>  (55) 
F 21

>  <SCORE>  (55) 
-9.915

>  <name>  (55) 
54

>  <ligand_id>  (55) 
54

>  <original_smiles>  (55) 
[H]c1c([H])c([H])c2c(c1[H])C([H])([H])C([H])([H])C([H])([H])C2([H])N([H])C(=O)C1([H])N(C(=O)C([H])(N([H])C(=O)C([H])(N([H])C([H])([H])[H])C([H])([H])[H])C(C([H])([H])[H])(C([H])([H])[H])C([H])([H])[H])C([H])([H])c2c([H])c(OC([H])([H])C([H])([H])Oc3c([H])c(N(C(=O)N4C([H])([H])C([H])([H])C([H])([H])C([H])(n5nc(-c6c([H])c([H])c(Oc7c([H])c([H])c(F)c([H])c7F)c([H])c6[H])c(C(=O)N([H])[H])c5N([H])[H])C4([H])[H])C([H])([H])C([H])([H])[H])c([H])c([H])c3N(C(=O)C([H])([H])[H])C([H])([H])[H])c([H])c([H])c2C1([H])[H]

>  <smiles>  (55) 
[H]c1c([H])c([H])c2c(c1[H])C([H])([H])C([H])([H])C([H])([H])C2([H])N([H])C(=O)C1([H])N(C(=O)C([H])(N([H])C(=O)C([H])(N([H])C([H])([H])[H])C([H])([H])[H])C(C([H])([H])[H])(C([H])([H])[H])C([H])([H])[H])C([H])([H])c2c([H])c(OC([H])([H])C([H])([H])Oc3c([H])c(N(C(=O)N4C([H])([H])C([H])([H])C([H])([H])C([H])(n5nc(-c6c([H])c([H])c(Oc7c([H])c([H])c(F)c([H])c7F)c([H])c6[H])c(C(=O)N([H])[H])c5N([H])[H])C4([H])[H])C([H])([H])C([H])([H])[H])c([H])c([H])c3N(C(=O)C([H])([H])[H])C([H])([H])[H])c([H])c([H])c2C1([H])[H]

$$$$
55:0:0
     RDKit          3D

 90 98  0  0  1  0  0  0  0  0999 V2000
  -28.6520  -23.4220   20.0970 C   0  0  0  0  0  0  0  0  0  0  0  0
  -28.9300  -22.2680   20.8780 N   0  0  0  0  0  0  0  0  0  0  0  0
  -28.8300  -23.3840   18.8760 O   0  0  0  0  0  0  0  0  0  0  0  0
  -28.8800  -22.4960   21.8620 H   0  0  0  0  0  0  0  0  0  0  0  0
  -30.0250  -19.9810   21.5790 C   0  0  0  0  0  3  0  0  0  0  0  0
  -28.8100  -19.9700   19.5690 C   0  0  0  0  0  3  0  0  0  0  0  0
  -30.3080  -18.5500   21.4530 C   0  0  0  0  0  3  0  0  0  0  0  0
  -29.0670  -18.5450   19.4630 C   0  0  0  0  0  3  0  0  0  0  0  0
  -29.2770  -20.7890   20.6400 C   0  0  0  0  0  0  0  0  0  0  0  0
  -29.8550  -17.7280   20.3660 C   0  0  0  0  0  0  0  0  0  0  0  0
  -30.7850  -15.1250   20.7200 C   0  0  0  0  0  0  0  0  0  0  0  0
  -30.7640  -12.7180   19.9050 C   0  0  0  0  0  2  0  0  0  0  0  0
  -29.9130  -12.5150   18.6260 C   0  0  0  0  0  2  0  0  0  0  0  0
  -28.4200  -12.3520   18.9650 C   0  0  0  0  0  2  0  0  0  0  0  0
  -27.9200  -13.3460   20.0460 C   0  0  0  0  0  3  0  0  0  0  0  0
  -28.8970  -13.4610   21.2330 C   0  0  0  0  0  2  0  0  0  0  0  0
  -30.1910  -13.8620   20.6660 N   0  0  0  0  0  0  0  0  0  0  0  0
  -32.0200  -15.1480   20.7660 O   0  0  0  0  0  0  0  0  0  0  0  0
  -30.1740  -15.9900   18.6120 C   0  0  0  0  0  1  0  0  0  0  0  0
  -30.1220  -16.2240   20.0740 N   0  0  0  0  0  0  0  0  0  0  0  0
  -25.4930  -13.9230   20.6170 C   0  0  0  0  0  0  0  0  0  0  0  0
  -24.4090  -13.1460   20.9170 C   0  0  0  0  0  0  0  0  0  0  0  0
  -24.8840  -11.7990   20.9460 C   0  0  0  0  0  0  0  0  0  0  0  0
  -26.5560  -13.0500   20.4690 N   0  0  0  0  0  0  0  0  0  0  0  0
  -26.1950  -11.7690   20.7370 N   0  0  0  0  0  0  0  0  0  0  0  0
  -24.1550  -10.5330   21.1000 C   0  0  0  0  0  0  0  0  0  0  0  0
  -24.5290   -9.5790   22.0700 C   0  0  0  0  0  3  0  0  0  0  0  0
  -23.7990   -8.3780   22.2140 C   0  0  0  0  0  3  0  0  0  0  0  0
  -22.6820   -8.1240   21.3830 C   0  0  0  0  0  0  0  0  0  0  0  0
  -22.3280   -9.0670   20.4010 C   0  0  0  0  0  3  0  0  0  0  0  0
  -23.0590  -10.2580   20.2580 C   0  0  0  0  0  3  0  0  0  0  0  0
  -21.9290   -6.9760   21.4330 O   0  0  0  0  0  0  0  0  0  0  0  0
  -21.8080   -6.2450   22.5870 C   0  0  0  0  0  0  0  0  0  0  0  0
  -21.2790   -6.8030   23.7710 C   0  0  0  0  0  3  0  0  0  0  0  0
  -21.1080   -5.9970   24.9140 C   0  0  0  0  0  3  0  0  0  0  0  0
  -21.4540   -4.6340   24.8750 C   0  0  0  0  0  0  0  0  0  0  0  0
  -21.9770   -4.0750   23.6950 C   0  0  0  0  0  3  0  0  0  0  0  0
  -22.1500   -4.8770   22.5540 C   0  0  0  0  0  0  0  0  0  0  0  0
  -22.6330   -4.3280   21.4130 F   0  0  0  0  0  0  0  0  0  0  0  0
  -21.2830   -3.8570   25.9700 F   0  0  0  0  0  0  0  0  0  0  0  0
  -22.9920  -13.6160   21.0710 C   0  0  0  0  0  0  0  0  0  0  0  0
  -22.2070  -12.9340   21.8980 N   0  0  0  0  0  0  0  0  0  0  0  0
  -22.5850  -14.6220   20.4920 O   0  0  0  0  0  0  0  0  0  0  0  0
  -22.5480  -12.1200   22.3900 H   0  0  0  0  0  0  0  0  0  0  0  0
  -21.2530  -13.2310   22.0450 H   0  0  0  0  0  0  0  0  0  0  0  0
  -25.6620  -15.2930   20.4290 N   0  0  0  0  0  0  0  0  0  0  0  0
  -24.8890  -15.9480   20.4820 H   0  0  0  0  0  0  0  0  0  0  0  0
  -26.5390  -15.7340   20.1850 H   0  0  0  0  0  0  0  0  0  0  0  0
  -28.0630  -24.8360   20.7390 C   0  0  0  0  0  2  0  0  0  0  0  0
  -28.2620  -26.2490   20.1210 O   0  0  0  0  0  0  0  0  0  0  0  0
  -24.6260  -31.9060   23.1740 C   0  0  0  0  0  0  0  0  0  0  0  0
  -27.1970  -27.2140   20.1280 C   0  0  0  0  0  0  0  0  0  0  0  0
  -23.4130  -30.4980   21.5520 C   0  0  0  0  0  3  0  0  0  0  0  0
  -24.8550  -28.9300   20.1150 C   0  0  0  0  0  0  0  0  0  0  0  0
  -25.9620  -30.7860   21.3510 C   0  0  0  0  0  2  0  0  0  0  0  0
  -26.0380  -29.3930   20.7050 C   0  0  0  0  0  0  0  0  0  0  0  0
  -27.2140  -28.5530   20.6890 C   0  0  0  0  0  3  0  0  0  0  0  0
  -25.9880  -26.8450   19.5040 C   0  0  0  0  0  3  0  0  0  0  0  0
  -24.8400  -27.6690   19.4980 C   0  0  0  0  0  3  0  0  0  0  0  0
  -23.6220  -29.8190   20.1720 C   0  0  0  0  0  2  0  0  0  0  0  0
  -24.6870  -31.0860   22.0810 N   0  0  0  0  0  0  0  0  0  0  0  0
  -23.5450  -32.1830   23.7160 O   0  0  0  0  0  0  0  0  0  0  0  0
  -22.7540  -29.4890   22.5250 C   0  0  0  0  0  0  0  0  0  0  0  0
  -21.4270  -29.3070   22.4120 N   0  0  0  0  0  0  0  0  0  0  0  0
  -23.4400  -28.8710   23.3430 O   0  0  0  0  0  0  0  0  0  0  0  0
  -20.9300  -29.8570   21.7260 H   0  0  0  0  0  0  0  0  0  0  0  0
  -18.0600  -28.0820   22.9520 C   0  0  0  0  0  0  0  0  0  0  0  0
  -20.6200  -28.3660   23.1940 C   0  0  0  0  0  3  0  0  0  0  0  0
  -20.7290  -26.9320   22.6250 C   0  0  0  0  0  2  0  0  0  0  0  0
  -19.6200  -26.5960   21.6220 C   0  0  0  0  0  2  0  0  0  0  0  0
  -18.2430  -26.7310   22.2780 C   0  0  0  0  0  2  0  0  0  0  0  0
  -19.1770  -28.8560   23.3670 C   0  0  0  0  0  0  0  0  0  0  0  0
  -18.9510  -30.1170   23.9590 C   0  0  0  0  0  3  0  0  0  0  0  0
  -17.6430  -30.6050   24.1390 C   0  0  0  0  0  3  0  0  0  0  0  0
  -16.5420  -29.8280   23.7380 C   0  0  0  0  0  3  0  0  0  0  0  0
  -16.7520  -28.5680   23.1500 C   0  0  0  0  0  3  0  0  0  0  0  0
  -25.9080  -32.5500   23.7840 C   0  0  0  0  0  3  0  0  0  0  0  0
  -25.5890  -33.9450   24.1250 N   0  0  0  0  0  0  0  0  0  0  0  0
  -25.9190  -35.0080   23.3790 C   0  0  0  0  0  0  0  0  0  0  0  0
  -26.5910  -34.9170   22.3480 O   0  0  0  0  0  0  0  0  0  0  0  0
  -24.9920  -34.0890   24.9260 H   0  0  0  0  0  0  0  0  0  0  0  0
  -24.2010  -36.8140   23.0290 C   0  0  0  0  0  1  0  0  0  0  0  0
  -25.4290  -36.3910   23.8520 C   0  0  0  0  0  3  0  0  0  0  0  0
  -27.5520  -37.2620   24.7280 C   0  0  0  0  0  1  0  0  0  0  0  0
  -26.4660  -37.4430   23.7690 N   0  0  0  0  0  0  0  0  0  0  0  0
  -26.0600  -38.3630   23.9200 H   0  0  0  0  0  0  0  0  0  0  0  0
  -26.4430  -31.7810   25.0560 C   0  0  1  0  0  0  0  0  0  0  0  0
  -25.3620  -31.5390   26.1370 C   0  0  0  0  0  1  0  0  0  0  0  0
  -27.0280  -30.4060   24.6620 C   0  0  0  0  0  1  0  0  0  0  0  0
  -27.5950  -32.5830   25.7050 C   0  0  0  0  0  1  0  0  0  0  0  0
  1 49  1  0
  1  2  1  0
  2  4  1  0
  3  1  2  0
  6  9  1  0
  7  5  1  0
  8  6  2  0
  8 10  1  0
  9  2  1  0
  9  5  2  0
 10  7  2  0
 11 18  2  0
 12 17  1  0
 13 14  1  0
 13 12  1  0
 15 14  1  0
 15 24  1  0
 15 16  1  0
 17 11  1  0
 17 16  1  0
 19 20  1  0
 20 10  1  0
 20 11  1  0
 21 22  2  0
 22 23  1  0
 22 41  1  0
 23 26  1  0
 24 21  1  0
 24 25  1  0
 25 23  2  0
 26 27  1  0
 27 28  2  0
 29 32  1  0
 29 28  1  0
 30 29  2  0
 31 30  1  0
 31 26  2  0
 32 33  1  0
 33 34  1  0
 34 35  2  0
 36 35  1  0
 36 40  1  0
 37 36  2  0
 38 33  2  0
 38 37  1  0
 39 38  1  0
 41 42  1  0
 42 45  1  0
 42 44  1  0
 43 41  2  0
 46 47  1  0
 46 21  1  0
 48 46  1  0
 50 52  1  0
 50 49  1  0
 51 62  2  0
 52 57  1  0
 53 61  1  0
 53 63  1  0
 54 60  1  0
 54 56  1  0
 55 61  1  0
 56 55  1  0
 57 56  2  0
 58 52  2  0
 59 58  1  0
 59 54  2  0
 60 53  1  0
 61 51  1  0
 63 65  2  0
 64 63  1  0
 66 64  1  0
 67 76  2  0
 67 72  1  0
 68 64  1  0
 68 72  1  0
 69 68  1  0
 70 71  1  0
 70 69  1  0
 71 67  1  0
 72 73  2  0
 73 74  1  0
 75 74  2  0
 76 75  1  0
 77 51  1  0
 77 78  1  0
 77 87  1  0
 78 81  1  0
 79 83  1  0
 79 78  1  0
 80 79  2  0
 83 82  1  0
 85 83  1  0
 85 86  1  0
 85 84  1  0
 87 90  1  1
 87 88  1  0
 89 87  1  0
M  ISO  4  11 100  20 100  49 101  50 101
M  END
>  <TORSDO>  (56) 
F 18

>  <SCORE>  (56) 
-13.970

>  <name>  (56) 
55

>  <ligand_id>  (56) 
55

>  <original_smiles>  (56) 
[H]c1c([H])c([H])c2c(c1[H])C([H])([H])C([H])([H])C([H])([H])C2([H])N([H])C(=O)C1([H])N(C(=O)C([H])(N([H])C(=O)C([H])(N([H])C([H])([H])[H])C([H])([H])[H])C(C([H])([H])[H])(C([H])([H])[H])C([H])([H])[H])C([H])([H])c2c([H])c(OC([H])([H])C(=O)N([H])c3c([H])c([H])c(N(C(=O)N4C([H])([H])C([H])([H])C([H])([H])C([H])(n5nc(-c6c([H])c([H])c(Oc7c([H])c([H])c(F)c([H])c7F)c([H])c6[H])c(C(=O)N([H])[H])c5N([H])[H])C4([H])[H])C([H])([H])[H])c([H])c3[H])c([H])c([H])c2C1([H])[H]

>  <smiles>  (56) 
[H]c1c([H])c([H])c2c(c1[H])C([H])([H])C([H])([H])C([H])([H])C2([H])N([H])C(=O)C1([H])N(C(=O)C([H])(N([H])C(=O)C([H])(N([H])C([H])([H])[H])C([H])([H])[H])C(C([H])([H])[H])(C([H])([H])[H])C([H])([H])[H])C([H])([H])c2c([H])c(OC([H])([H])C(=O)N([H])c3c([H])c([H])c(N(C(=O)N4C([H])([H])C([H])([H])C([H])([H])C([H])(n5nc(-c6c([H])c([H])c(Oc7c([H])c([H])c(F)c([H])c7F)c([H])c6[H])c(C(=O)N([H])[H])c5N([H])[H])C4([H])[H])C([H])([H])[H])c([H])c3[H])c([H])c([H])c2C1([H])[H]

$$$$
56:0:0
     RDKit          3D

 97105  0  0  1  0  0  0  0  0999 V2000
  -30.6600  -21.3400   19.6210 C   0  0  0  0  0  0  0  0  0  0  0  0
  -32.4150  -20.6140   21.1950 C   0  0  0  0  0  1  0  0  0  0  0  0
  -31.5240  -20.3870   20.0510 N   0  0  0  0  0  0  0  0  0  0  0  0
  -29.7570  -21.0900   18.8120 O   0  0  0  0  0  0  0  0  0  0  0  0
  -31.0940  -16.5280   18.3750 C   0  0  0  0  0  3  0  0  0  0  0  0
  -31.7020  -18.8600   18.1280 C   0  0  0  0  0  3  0  0  0  0  0  0
  -31.0600  -17.9940   20.3240 C   0  0  0  0  0  3  0  0  0  0  0  0
  -31.5150  -17.5910   17.5520 C   0  0  0  0  0  0  0  0  0  0  0  0
  -30.9040  -16.7140   19.7640 C   0  0  0  0  0  0  0  0  0  0  0  0
  -31.4420  -19.0770   19.5040 C   0  0  0  0  0  0  0  0  0  0  0  0
  -31.3240  -14.4910   20.5020 C   0  0  0  0  0  0  0  0  0  0  0  0
  -30.9480  -12.3590   19.3860 C   0  0  0  0  0  2  0  0  0  0  0  0
  -30.0660  -12.6200   18.1480 C   0  0  0  0  0  2  0  0  0  0  0  0
  -28.5680  -12.5890   18.5230 C   0  0  0  0  0  2  0  0  0  0  0  0
  -28.2280  -13.4340   19.7820 C   0  0  0  0  0  3  0  0  0  0  0  0
  -29.2340  -13.1610   20.9250 C   0  0  0  0  0  2  0  0  0  0  0  0
  -30.5930  -13.3590   20.3980 N   0  0  0  0  0  0  0  0  0  0  0  0
  -32.5270  -14.5620   20.2370 O   0  0  0  0  0  0  0  0  0  0  0  0
  -30.5970  -15.6090   20.5920 N   0  0  0  0  0  0  0  0  0  0  0  0
  -29.6270  -15.4830   20.8440 H   0  0  0  0  0  0  0  0  0  0  0  0
  -25.8180  -14.1320   20.3750 C   0  0  0  0  0  0  0  0  0  0  0  0
  -24.7130  -13.4000   20.7220 C   0  0  0  0  0  0  0  0  0  0  0  0
  -25.1370  -12.0370   20.7470 C   0  0  0  0  0  0  0  0  0  0  0  0
  -26.8480  -13.2180   20.2150 N   0  0  0  0  0  0  0  0  0  0  0  0
  -26.4380  -11.9540   20.4980 N   0  0  0  0  0  0  0  0  0  0  0  0
  -24.3700  -10.7990   20.9400 C   0  0  0  0  0  0  0  0  0  0  0  0
  -24.7310   -9.8500   21.9200 C   0  0  0  0  0  3  0  0  0  0  0  0
  -23.9680   -8.6750   22.0990 C   0  0  0  0  0  3  0  0  0  0  0  0
  -22.8260   -8.4440   21.2930 C   0  0  0  0  0  0  0  0  0  0  0  0
  -22.4850   -9.3820   20.3040 C   0  0  0  0  0  3  0  0  0  0  0  0
  -23.2490  -10.5460   20.1230 C   0  0  0  0  0  3  0  0  0  0  0  0
  -22.0380   -7.3220   21.3770 O   0  0  0  0  0  0  0  0  0  0  0  0
  -21.8900   -6.6340   22.5530 C   0  0  0  0  0  0  0  0  0  0  0  0
  -21.4130   -7.2580   23.7270 C   0  0  0  0  0  3  0  0  0  0  0  0
  -21.2090   -6.4960   24.8950 C   0  0  0  0  0  3  0  0  0  0  0  0
  -21.4730   -5.1130   24.8910 C   0  0  0  0  0  0  0  0  0  0  0  0
  -21.9430   -4.4900   23.7210 C   0  0  0  0  0  3  0  0  0  0  0  0
  -22.1480   -5.2490   22.5550 C   0  0  0  0  0  0  0  0  0  0  0  0
  -22.5800   -4.6390   21.4250 F   0  0  0  0  0  0  0  0  0  0  0  0
  -21.2720   -4.3810   26.0110 F   0  0  0  0  0  0  0  0  0  0  0  0
  -23.3170  -13.9210   20.9170 C   0  0  0  0  0  0  0  0  0  0  0  0
  -22.5410  -13.2900   21.7900 N   0  0  0  0  0  0  0  0  0  0  0  0
  -22.9220  -14.9280   20.3280 O   0  0  0  0  0  0  0  0  0  0  0  0
  -22.8720  -12.4800   22.2930 H   0  0  0  0  0  0  0  0  0  0  0  0
  -21.6040  -13.6250   21.9630 H   0  0  0  0  0  0  0  0  0  0  0  0
  -26.0250  -15.4920   20.1640 N   0  0  0  0  0  0  0  0  0  0  0  0
  -25.2700  -16.1680   20.2320 H   0  0  0  0  0  0  0  0  0  0  0  0
  -26.8930  -15.9020   19.8470 H   0  0  0  0  0  0  0  0  0  0  0  0
  -31.7390  -17.3870   16.0610 C   0  0  1  0  0  0  0  0  0  0  0  0
  -32.0140  -16.1130   15.7780 F   0  0  0  0  0  0  0  0  0  0  0  0
  -30.6430  -17.7420   15.3900 F   0  0  0  0  0  0  0  0  0  0  0  0
  -32.7590  -18.1340   15.6370 F   0  0  0  0  0  0  0  0  0  0  0  0
  -30.7780  -22.7650   20.1760 C   0  0  0  0  0  2  0  0  0  0  0  0
  -30.1010  -23.8270   19.2820 C   0  0  0  0  0  2  0  0  0  0  0  0
  -29.5140  -24.9690   20.1020 C   0  0  0  0  0  2  0  0  0  0  0  0
  -28.5840  -25.8370   19.2640 C   0  0  0  0  0  2  0  0  0  0  0  0
  -28.2900  -26.9250   20.1080 O   0  0  0  0  0  0  0  0  0  0  0  0
  -24.5090  -31.9530   23.2210 C   0  0  0  0  0  0  0  0  0  0  0  0
  -27.0700  -27.5490   20.0780 C   0  0  0  0  0  0  0  0  0  0  0  0
  -23.2520  -30.5510   21.6120 C   0  0  0  0  0  3  0  0  0  0  0  0
  -24.6610  -29.0100   20.1530 C   0  0  0  0  0  0  0  0  0  0  0  0
  -25.7630  -30.9170   21.3420 C   0  0  0  0  0  2  0  0  0  0  0  0
  -25.8260  -29.5470   20.7110 C   0  0  0  0  0  0  0  0  0  0  0  0
  -27.0250  -28.8170   20.6820 C   0  0  0  0  0  3  0  0  0  0  0  0
  -25.8860  -27.0030   19.5250 C   0  0  0  0  0  3  0  0  0  0  0  0
  -24.6840  -27.7330   19.5630 C   0  0  0  0  0  3  0  0  0  0  0  0
  -23.4200  -29.8660   20.2270 C   0  0  0  0  0  2  0  0  0  0  0  0
  -24.5270  -31.1550   22.1170 N   0  0  0  0  0  0  0  0  0  0  0  0
  -23.4450  -32.2290   23.7920 O   0  0  0  0  0  0  0  0  0  0  0  0
  -22.6290  -29.5330   22.5910 C   0  0  0  0  0  0  0  0  0  0  0  0
  -21.3080  -29.3260   22.4710 N   0  0  0  0  0  0  0  0  0  0  0  0
  -23.3280  -28.9300   23.4110 O   0  0  0  0  0  0  0  0  0  0  0  0
  -20.8060  -29.8670   21.7790 H   0  0  0  0  0  0  0  0  0  0  0  0
  -17.9620  -28.0630   22.9680 C   0  0  0  0  0  0  0  0  0  0  0  0
  -20.5090  -28.3880   23.2580 C   0  0  0  0  0  3  0  0  0  0  0  0
  -20.6520  -26.9460   22.7190 C   0  0  0  0  0  2  0  0  0  0  0  0
  -19.5680  -26.5720   21.7040 C   0  0  0  0  0  2  0  0  0  0  0  0
  -18.1770  -26.7010   22.3310 C   0  0  0  0  0  2  0  0  0  0  0  0
  -19.0580  -28.8610   23.3890 C   0  0  0  0  0  0  0  0  0  0  0  0
  -18.8050  -30.1350   23.9450 C   0  0  0  0  0  3  0  0  0  0  0  0
  -17.4880  -30.6110   24.0830 C   0  0  0  0  0  3  0  0  0  0  0  0
  -16.4060  -29.8110   23.6790 C   0  0  0  0  0  3  0  0  0  0  0  0
  -16.6430  -28.5390   23.1290 C   0  0  0  0  0  3  0  0  0  0  0  0
  -25.8160  -32.5770   23.8050 C   0  0  0  0  0  3  0  0  0  0  0  0
  -25.5180  -33.9690   24.1620 N   0  0  0  0  0  0  0  0  0  0  0  0
  -25.8440  -35.0320   23.4140 C   0  0  0  0  0  0  0  0  0  0  0  0
  -26.5000  -34.9430   22.3730 O   0  0  0  0  0  0  0  0  0  0  0  0
  -24.9360  -34.1120   24.9740 H   0  0  0  0  0  0  0  0  0  0  0  0
  -24.1150  -36.8300   23.1100 C   0  0  0  0  0  1  0  0  0  0  0  0
  -25.3660  -36.4120   23.9000 C   0  0  0  0  0  3  0  0  0  0  0  0
  -27.5150  -37.2770   24.7130 C   0  0  0  0  0  1  0  0  0  0  0  0
  -26.3990  -37.4650   23.7900 N   0  0  0  0  0  0  0  0  0  0  0  0
  -25.9990  -38.3840   23.9590 H   0  0  0  0  0  0  0  0  0  0  0  0
  -26.3830  -31.7870   25.0480 C   0  0  1  0  0  0  0  0  0  0  0  0
  -25.3270  -31.5120   26.1440 C   0  0  0  0  0  1  0  0  0  0  0  0
  -26.9710  -30.4260   24.6070 C   0  0  0  0  0  1  0  0  0  0  0  0
  -27.5420  -32.5850   25.6920 C   0  0  0  0  0  1  0  0  0  0  0  0
  1  3  1  0
  1 53  1  0
  3  2  1  0
  4  1  2  0
  5  9  1  0
  6 10  2  0
  8  6  1  0
  8  5  2  0
  9  7  2  0
  9 19  1  0
 10  3  1  0
 10  7  1  0
 11 19  1  0
 12 17  1  0
 13 14  1  0
 13 12  1  0
 15 14  1  0
 15 24  1  0
 15 16  1  0
 17 11  1  0
 17 16  1  0
 18 11  2  0
 19 20  1  0
 21 22  2  0
 22 23  1  0
 22 41  1  0
 23 26  1  0
 24 21  1  0
 24 25  1  0
 25 23  2  0
 26 27  1  0
 27 28  2  0
 29 32  1  0
 29 28  1  0
 30 29  2  0
 31 30  1  0
 31 26  2  0
 32 33  1  0
 33 38  2  0
 33 34  1  0
 34 35  2  0
 36 35  1  0
 36 40  1  0
 37 36  2  0
 38 37  1  0
 39 38  1  0
 41 42  1  0
 42 45  1  0
 42 44  1  0
 43 41  2  0
 46 47  1  0
 46 21  1  0
 48 46  1  0
 49  8  1  0
 49 50  1  1
 51 49  1  0
 52 49  1  0
 54 55  1  0
 54 53  1  0
 56 55  1  0
 56 57  1  0
 58 69  2  0
 59 57  1  0
 59 64  1  0
 60 68  1  0
 60 70  1  0
 61 67  1  0
 61 63  1  0
 62 68  1  0
 63 62  1  0
 64 63  2  0
 65 66  1  0
 65 59  2  0
 66 61  2  0
 67 60  1  0
 68 58  1  0
 70 72  2  0
 71 70  1  0
 73 71  1  0
 74 83  2  0
 74 79  1  0
 75 71  1  0
 75 79  1  0
 76 75  1  0
 77 78  1  0
 77 76  1  0
 78 74  1  0
 79 80  2  0
 80 81  1  0
 82 81  2  0
 83 82  1  0
 84 58  1  0
 84 85  1  0
 84 94  1  0
 85 88  1  0
 86 90  1  0
 86 85  1  0
 87 86  2  0
 90 89  1  0
 92 90  1  0
 92 93  1  0
 92 91  1  0
 94 97  1  1
 94 95  1  0
 96 94  1  0
M  ISO  4  11 100  19 100  56 101  57 101
M  END
>  <TORSDO>  (57) 
F 22

>  <SCORE>  (57) 
-12.777

>  <name>  (57) 
56

>  <ligand_id>  (57) 
56

>  <original_smiles>  (57) 
[H]c1c([H])c([H])c2c(c1[H])C([H])([H])C([H])([H])C([H])([H])C2([H])N([H])C(=O)C1([H])N(C(=O)C([H])(N([H])C(=O)C([H])(N([H])C([H])([H])[H])C([H])([H])[H])C(C([H])([H])[H])(C([H])([H])[H])C([H])([H])[H])C([H])([H])c2c([H])c(OC([H])([H])C([H])([H])C([H])([H])C([H])([H])C(=O)N(c3c([H])c(N([H])C(=O)N4C([H])([H])C([H])([H])C([H])([H])C([H])(n5nc(-c6c([H])c([H])c(Oc7c([H])c([H])c(F)c([H])c7F)c([H])c6[H])c(C(=O)N([H])[H])c5N([H])[H])C4([H])[H])c([H])c(C(F)(F)F)c3[H])C([H])([H])[H])c([H])c([H])c2C1([H])[H]

>  <smiles>  (57) 
[H]c1c([H])c([H])c2c(c1[H])C([H])([H])C([H])([H])C([H])([H])C2([H])N([H])C(=O)C1([H])N(C(=O)C([H])(N([H])C(=O)C([H])(N([H])C([H])([H])[H])C([H])([H])[H])C(C([H])([H])[H])(C([H])([H])[H])C([H])([H])[H])C([H])([H])c2c([H])c(OC([H])([H])C([H])([H])C([H])([H])C([H])([H])C(=O)N(c3c([H])c(N([H])C(=O)N4C([H])([H])C([H])([H])C([H])([H])C([H])(n5nc(-c6c([H])c([H])c(Oc7c([H])c([H])c(F)c([H])c7F)c([H])c6[H])c(C(=O)N([H])[H])c5N([H])[H])C4([H])[H])c([H])c(C(F)(F)F)c3[H])C([H])([H])[H])c([H])c([H])c2C1([H])[H]

$$$$
57:0:0
     RDKit          3D

 91 99  0  0  1  0  0  0  0  0999 V2000
  -28.6140  -20.2770   19.8960 C   0  0  0  0  0  3  0  0  0  0  0  0
  -29.5950  -21.8330   21.4340 C   0  0  0  0  0  3  0  0  0  0  0  0
  -30.2430  -19.3390   21.3760 C   0  0  0  0  0  3  0  0  0  0  0  0
  -28.6850  -21.8470   20.3560 C   0  0  0  0  0  0  0  0  0  0  0  0
  -29.3720  -18.8970   20.3330 C   0  0  0  0  0  0  0  0  0  0  0  0
  -30.3310  -20.6840   21.9200 C   0  0  0  0  0  0  0  0  0  0  0  0
  -30.1000  -15.7550   19.9960 C   0  0  0  0  0  0  0  0  0  0  0  0
  -30.2060  -13.1920   19.0920 C   0  0  0  0  0  2  0  0  0  0  0  0
  -29.2730  -12.7160   17.9360 C   0  0  0  0  0  2  0  0  0  0  0  0
  -27.8920  -12.3100   18.4700 C   0  0  0  0  0  2  0  0  0  0  0  0
  -27.4120  -13.3000   19.5530 C   0  0  0  0  0  3  0  0  0  0  0  0
  -28.4890  -13.6800   20.6000 C   0  0  0  0  0  2  0  0  0  0  0  0
  -29.5800  -14.3730   19.8640 N   0  0  0  0  0  0  0  0  0  0  0  0
  -31.3400  -15.6550   19.8540 O   0  0  0  0  0  0  0  0  0  0  0  0
  -29.3330  -17.1550   20.0020 N   0  0  0  0  0  0  0  0  0  0  0  0
  -28.3930  -16.9130   19.7130 H   0  0  0  0  0  0  0  0  0  0  0  0
  -25.0950  -13.7780   20.4720 C   0  0  0  0  0  0  0  0  0  0  0  0
  -24.0660  -12.9760   20.8730 C   0  0  0  0  0  0  0  0  0  0  0  0
  -24.5520  -11.6350   20.7860 C   0  0  0  0  0  0  0  0  0  0  0  0
  -26.1380  -12.9270   20.1510 N   0  0  0  0  0  0  0  0  0  0  0  0
  -25.8290  -11.6270   20.4070 N   0  0  0  0  0  0  0  0  0  0  0  0
  -23.8510  -10.3580   20.9850 C   0  0  0  0  0  0  0  0  0  0  0  0
  -24.3100   -9.3930   21.9120 C   0  0  0  0  0  3  0  0  0  0  0  0
  -23.6030   -8.1860   22.1020 C   0  0  0  0  0  3  0  0  0  0  0  0
  -22.4230   -7.9330   21.3640 C   0  0  0  0  0  0  0  0  0  0  0  0
  -21.9830   -8.8810   20.4240 C   0  0  0  0  0  3  0  0  0  0  0  0
  -22.6900  -10.0800   20.2310 C   0  0  0  0  0  3  0  0  0  0  0  0
  -21.6880   -6.7760   21.4600 O   0  0  0  0  0  0  0  0  0  0  0  0
  -21.6390   -6.0490   22.6230 C   0  0  0  0  0  0  0  0  0  0  0  0
  -21.1450   -6.6020   23.8250 C   0  0  0  0  0  3  0  0  0  0  0  0
  -21.0460   -5.8010   24.9820 C   0  0  0  0  0  3  0  0  0  0  0  0
  -21.4360   -4.4490   24.9360 C   0  0  0  0  0  0  0  0  0  0  0  0
  -21.9190   -3.8940   23.7390 C   0  0  0  0  0  3  0  0  0  0  0  0
  -22.0190   -4.6930   22.5860 C   0  0  0  0  0  0  0  0  0  0  0  0
  -22.4660   -4.1490   21.4280 F   0  0  0  0  0  0  0  0  0  0  0  0
  -21.3350   -3.6770   26.0430 F   0  0  0  0  0  0  0  0  0  0  0  0
  -22.6780  -13.4280   21.2170 C   0  0  0  0  0  0  0  0  0  0  0  0
  -22.0050  -12.7010   22.1000 N   0  0  0  0  0  0  0  0  0  0  0  0
  -22.2040  -14.4570   20.7410 O   0  0  0  0  0  0  0  0  0  0  0  0
  -22.4070  -11.8690   22.5070 H   0  0  0  0  0  0  0  0  0  0  0  0
  -21.0810  -12.9870   22.3860 H   0  0  0  0  0  0  0  0  0  0  0  0
  -25.2230  -15.1570   20.3120 N   0  0  0  0  0  0  0  0  0  0  0  0
  -24.4620  -15.8030   20.4850 H   0  0  0  0  0  0  0  0  0  0  0  0
  -26.0350  -15.6070   19.9100 H   0  0  0  0  0  0  0  0  0  0  0  0
  -27.7450  -23.5410   18.4480 C   0  0  0  0  0  1  0  0  0  0  0  0
  -26.4430  -23.2770   20.6000 C   0  0  0  0  0  1  0  0  0  0  0  0
  -27.8350  -23.5180   19.9900 C   0  0  1  0  0  0  0  0  0  0  0  0
  -28.0450  -25.2870   20.3290 O   0  0  0  0  0  0  0  0  0  0  0  0
  -24.7080  -31.7800   23.2390 C   0  0  0  0  0  0  0  0  0  0  0  0
  -27.1460  -26.5880   20.2350 C   0  0  0  0  0  0  0  0  0  0  0  0
  -23.5140  -30.4200   21.5770 C   0  0  0  0  0  3  0  0  0  0  0  0
  -24.9470  -28.7490   20.1700 C   0  0  0  0  0  0  0  0  0  0  0  0
  -26.1030  -30.4820   21.5040 C   0  0  0  0  0  2  0  0  0  0  0  0
  -26.1440  -29.0470   20.8310 C   0  0  0  0  0  0  0  0  0  0  0  0
  -27.2180  -27.9930   20.8360 C   0  0  0  0  0  3  0  0  0  0  0  0
  -25.9260  -26.5480   19.5010 C   0  0  0  0  0  3  0  0  0  0  0  0
  -24.8890  -27.5280   19.4790 C   0  0  0  0  0  3  0  0  0  0  0  0
  -23.7620  -29.7290   20.2040 C   0  0  0  0  0  2  0  0  0  0  0  0
  -24.7980  -30.9270   22.1580 N   0  0  0  0  0  0  0  0  0  0  0  0
  -23.6100  -32.1010   23.7320 O   0  0  0  0  0  0  0  0  0  0  0  0
  -22.7570  -29.4540   22.5310 C   0  0  0  0  0  0  0  0  0  0  0  0
  -21.4230  -29.3340   22.3920 N   0  0  0  0  0  0  0  0  0  0  0  0
  -23.3910  -28.8050   23.3670 O   0  0  0  0  0  0  0  0  0  0  0  0
  -20.9620  -29.9100   21.6990 H   0  0  0  0  0  0  0  0  0  0  0  0
  -18.0040  -28.2050   22.9010 C   0  0  0  0  0  0  0  0  0  0  0  0
  -20.5720  -28.4050   23.1480 C   0  0  0  0  0  3  0  0  0  0  0  0
  -20.6320  -26.9830   22.5440 C   0  0  0  0  0  2  0  0  0  0  0  0
  -19.5110  -26.7050   21.5340 C   0  0  0  0  0  2  0  0  0  0  0  0
  -18.1460  -26.8590   22.2100 C   0  0  0  0  0  2  0  0  0  0  0  0
  -19.1440  -28.9360   23.3350 C   0  0  0  0  0  0  0  0  0  0  0  0
  -18.9530  -30.1830   23.9650 C   0  0  0  0  0  3  0  0  0  0  0  0
  -17.6620  -30.7170   24.1420 C   0  0  0  0  0  3  0  0  0  0  0  0
  -16.5380  -29.9860   23.7210 C   0  0  0  0  0  3  0  0  0  0  0  0
  -16.7110  -28.7300   23.1090 C   0  0  0  0  0  3  0  0  0  0  0  0
  -25.9710  -32.4080   23.9000 C   0  0  0  0  0  3  0  0  0  0  0  0
  -25.6740  -33.8190   24.2210 N   0  0  0  0  0  0  0  0  0  0  0  0
  -26.0150  -34.8700   23.4660 C   0  0  0  0  0  0  0  0  0  0  0  0
  -26.6650  -34.7520   22.4230 O   0  0  0  0  0  0  0  0  0  0  0  0
  -25.0790  -33.9810   25.0200 H   0  0  0  0  0  0  0  0  0  0  0  0
  -24.2900  -36.6900   23.1750 C   0  0  0  0  0  1  0  0  0  0  0  0
  -25.5630  -36.2720   23.9280 C   0  0  0  0  0  3  0  0  0  0  0  0
  -27.7320  -37.1610   24.6620 C   0  0  0  0  0  1  0  0  0  0  0  0
  -26.6000  -37.3150   23.7560 N   0  0  0  0  0  0  0  0  0  0  0  0
  -26.2040  -38.2420   23.8940 H   0  0  0  0  0  0  0  0  0  0  0  0
  -26.4190  -31.6500   25.2120 C   0  0  1  0  0  0  0  0  0  0  0  0
  -25.2840  -31.4610   26.2460 C   0  0  0  0  0  1  0  0  0  0  0  0
  -26.9820  -30.2480   24.8880 C   0  0  0  0  0  1  0  0  0  0  0  0
  -27.5630  -32.4310   25.9050 C   0  0  0  0  0  1  0  0  0  0  0  0
  -30.9160  -20.1510   24.2570 C   0  0  0  0  0  1  0  0  0  0  0  0
  -31.8400  -22.1930   23.2120 C   0  0  0  0  0  1  0  0  0  0  0  0
  -31.2000  -20.8870   23.0220 N   0  0  0  0  0  0  0  0  0  0  0  0
  1  5  2  0
  1  4  1  0
  2  6  1  0
  3  6  2  0
  4  2  2  0
  5  3  1  0
  6 91  1  0
  7 15  1  0
  8 13  1  0
  9 10  1  0
  9  8  1  0
 11 10  1  0
 11 20  1  0
 11 12  1  0
 13  7  1  0
 13 12  1  0
 14  7  2  0
 15  5  1  0
 16 15  1  0
 17 18  2  0
 18 37  1  0
 19 18  1  0
 19 22  1  0
 20 21  1  0
 20 17  1  0
 21 19  2  0
 22 23  1  0
 23 24  2  0
 25 28  1  0
 25 24  1  0
 26 25  2  0
 27 26  1  0
 27 22  2  0
 28 29  1  0
 29 30  1  0
 30 31  2  0
 32 31  1  0
 32 36  1  0
 33 32  2  0
 34 29  2  0
 34 33  1  0
 35 34  1  0
 37 38  1  0
 38 41  1  0
 38 40  1  0
 39 37  2  0
 42 17  1  0
 42 43  1  0
 44 42  1  0
 47 45  1  6
 47 48  1  0
 47  4  1  0
 47 46  1  0
 49 60  2  0
 50 48  1  0
 50 55  1  0
 51 59  1  0
 51 61  1  0
 52 58  1  0
 52 54  1  0
 53 59  1  0
 54 55  2  0
 54 53  1  0
 56 50  2  0
 57 56  1  0
 57 52  2  0
 58 51  1  0
 59 49  1  0
 61 63  2  0
 62 61  1  0
 64 62  1  0
 65 74  2  0
 65 70  1  0
 66 62  1  0
 66 70  1  0
 67 66  1  0
 68 69  1  0
 68 67  1  0
 69 65  1  0
 70 71  2  0
 71 72  1  0
 73 72  2  0
 74 73  1  0
 75 49  1  0
 75 76  1  0
 75 85  1  0
 76 79  1  0
 77 81  1  0
 77 76  1  0
 78 77  2  0
 81 80  1  0
 83 84  1  0
 83 81  1  0
 83 82  1  0
 85 88  1  1
 85 86  1  0
 87 85  1  0
 91 90  1  0
 91 89  1  0
M  ISO  4   7 100  15 100  47 101  48 101
M  END
>  <TORSDO>  (58) 
F 18

>  <SCORE>  (58) 
-15.070

>  <name>  (58) 
57

>  <ligand_id>  (58) 
57

>  <original_smiles>  (58) 
[H]c1c([H])c([H])c2c(c1[H])C([H])([H])C([H])([H])C([H])([H])C2([H])N([H])C(=O)C1([H])N(C(=O)C([H])(N([H])C(=O)C([H])(N([H])C([H])([H])[H])C([H])([H])[H])C(C([H])([H])[H])(C([H])([H])[H])C([H])([H])[H])C([H])([H])c2c([H])c(OC(c3c([H])c(N([H])C(=O)N4C([H])([H])C([H])([H])C([H])([H])C([H])(n5nc(-c6c([H])c([H])c(Oc7c([H])c([H])c(F)c([H])c7F)c([H])c6[H])c(C(=O)N([H])[H])c5N([H])[H])C4([H])[H])c([H])c(N(C([H])([H])[H])C([H])([H])[H])c3[H])(C([H])([H])[H])C([H])([H])[H])c([H])c([H])c2C1([H])[H]

>  <smiles>  (58) 
[H]c1c([H])c([H])c2c(c1[H])C([H])([H])C([H])([H])C([H])([H])C2([H])N([H])C(=O)C1([H])N(C(=O)C([H])(N([H])C(=O)C([H])(N([H])C([H])([H])[H])C([H])([H])[H])C(C([H])([H])[H])(C([H])([H])[H])C([H])([H])[H])C([H])([H])c2c([H])c(OC(c3c([H])c(N([H])C(=O)N4C([H])([H])C([H])([H])C([H])([H])C([H])(n5nc(-c6c([H])c([H])c(Oc7c([H])c([H])c(F)c([H])c7F)c([H])c6[H])c(C(=O)N([H])[H])c5N([H])[H])C4([H])[H])c([H])c(N(C([H])([H])[H])C([H])([H])[H])c3[H])(C([H])([H])[H])C([H])([H])[H])c([H])c([H])c2C1([H])[H]

$$$$
58:0:0
     RDKit          3D

 94102  0  0  1  0  0  0  0  0999 V2000
  -31.1660  -17.9220   20.9510 C   0  0  0  0  0  3  0  0  0  0  0  0
  -31.5340  -19.2710   21.1120 C   0  0  0  0  0  3  0  0  0  0  0  0
  -29.0660  -18.7390   20.0700 C   0  0  0  0  0  3  0  0  0  0  0  0
  -29.9120  -17.5490   20.4350 C   0  0  0  0  0  0  0  0  0  0  0  0
  -30.7230  -20.3810   20.7500 C   0  0  0  0  0  0  0  0  0  0  0  0
  -29.4160  -20.2090   20.1830 C   0  0  0  0  0  0  0  0  0  0  0  0
  -30.3770  -14.8200   20.4400 C   0  0  0  0  0  0  0  0  0  0  0  0
  -30.2930  -12.3920   19.6700 C   0  0  0  0  0  2  0  0  0  0  0  0
  -29.3930  -12.2170   18.4250 C   0  0  0  0  0  2  0  0  0  0  0  0
  -27.9220  -12.0240   18.8370 C   0  0  0  0  0  2  0  0  0  0  0  0
  -27.4740  -13.0390   19.9190 C   0  0  0  0  0  3  0  0  0  0  0  0
  -28.4980  -13.1770   21.0630 C   0  0  0  0  0  2  0  0  0  0  0  0
  -29.7750  -13.5580   20.4470 N   0  0  0  0  0  0  0  0  0  0  0  0
  -31.5990  -14.8360   20.2430 O   0  0  0  0  0  0  0  0  0  0  0  0
  -29.5980  -16.0290   20.3900 N   0  0  0  0  0  0  0  0  0  0  0  0
  -28.6130  -15.8260   20.3270 H   0  0  0  0  0  0  0  0  0  0  0  0
  -25.1060  -13.6710   20.6500 C   0  0  0  0  0  0  0  0  0  0  0  0
  -24.0190  -12.9200   21.0070 C   0  0  0  0  0  0  0  0  0  0  0  0
  -24.4510  -11.5600   20.9720 C   0  0  0  0  0  0  0  0  0  0  0  0
  -26.1280  -12.7680   20.4110 N   0  0  0  0  0  0  0  0  0  0  0  0
  -25.7440  -11.4930   20.6720 N   0  0  0  0  0  0  0  0  0  0  0  0
  -23.6900  -10.3150   21.1460 C   0  0  0  0  0  0  0  0  0  0  0  0
  -24.1060   -9.3120   22.0500 C   0  0  0  0  0  3  0  0  0  0  0  0
  -23.3430   -8.1350   22.2140 C   0  0  0  0  0  3  0  0  0  0  0  0
  -22.1510   -7.9530   21.4730 C   0  0  0  0  0  0  0  0  0  0  0  0
  -21.7540   -8.9430   20.5550 C   0  0  0  0  0  3  0  0  0  0  0  0
  -22.5170  -10.1110   20.3910 C   0  0  0  0  0  3  0  0  0  0  0  0
  -21.3590   -6.8330   21.5500 O   0  0  0  0  0  0  0  0  0  0  0  0
  -21.3310   -6.0460   22.6730 C   0  0  0  0  0  0  0  0  0  0  0  0
  -20.9650   -6.5630   23.9350 C   0  0  0  0  0  3  0  0  0  0  0  0
  -20.8830   -5.7040   25.0500 C   0  0  0  0  0  3  0  0  0  0  0  0
  -21.1540   -4.3310   24.9040 C   0  0  0  0  0  0  0  0  0  0  0  0
  -21.5100   -3.8140   23.6470 C   0  0  0  0  0  3  0  0  0  0  0  0
  -21.5950   -4.6680   22.5340 C   0  0  0  0  0  0  0  0  0  0  0  0
  -21.9190   -4.1600   21.3210 F   0  0  0  0  0  0  0  0  0  0  0  0
  -21.0650   -3.5060   25.9730 F   0  0  0  0  0  0  0  0  0  0  0  0
  -22.6320  -13.4320   21.2640 C   0  0  0  0  0  0  0  0  0  0  0  0
  -21.8810  -12.7590   22.1310 N   0  0  0  0  0  0  0  0  0  0  0  0
  -22.2230  -14.4630   20.7320 O   0  0  0  0  0  0  0  0  0  0  0  0
  -22.2250  -11.9230   22.5800 H   0  0  0  0  0  0  0  0  0  0  0  0
  -20.9470  -13.0800   22.3420 H   0  0  0  0  0  0  0  0  0  0  0  0
  -25.3050  -15.0370   20.4780 N   0  0  0  0  0  0  0  0  0  0  0  0
  -24.5520  -15.7090   20.5780 H   0  0  0  0  0  0  0  0  0  0  0  0
  -26.1530  -15.4570   20.1210 H   0  0  0  0  0  0  0  0  0  0  0  0
  -27.4840  -21.1240   18.8890 C   0  0  0  0  0  1  0  0  0  0  0  0
  -28.5930  -21.4370   19.7900 N   0  0  0  0  0  0  0  0  0  0  0  0
  -28.8920  -23.0040   19.8640 C   0  0  0  0  0  3  0  0  0  0  0  0
  -27.8070  -24.3060   19.5870 C   0  0  0  0  0  3  0  0  0  0  0  0
  -28.0750  -25.8600   19.6770 O   0  0  0  0  0  0  0  0  0  0  0  0
  -24.5140  -31.4760   22.9400 C   0  0  0  0  0  0  0  0  0  0  0  0
  -27.0210  -26.8600   19.6740 C   0  0  0  0  0  0  0  0  0  0  0  0
  -23.2700  -30.1180   21.3040 C   0  0  0  0  0  3  0  0  0  0  0  0
  -24.6830  -28.6050   19.7740 C   0  0  0  0  0  0  0  0  0  0  0  0
  -25.8140  -30.4130   21.0540 C   0  0  0  0  0  2  0  0  0  0  0  0
  -25.8810  -29.0390   20.3550 C   0  0  0  0  0  0  0  0  0  0  0  0
  -27.0520  -28.1860   20.2840 C   0  0  0  0  0  3  0  0  0  0  0  0
  -25.7920  -26.5390   19.0590 C   0  0  0  0  0  3  0  0  0  0  0  0
  -24.6530  -27.3710   19.1080 C   0  0  0  0  0  3  0  0  0  0  0  0
  -23.4500  -29.4900   19.8960 C   0  0  0  0  0  2  0  0  0  0  0  0
  -24.5550  -30.6900   21.8210 N   0  0  0  0  0  0  0  0  0  0  0  0
  -23.4450  -31.7350   23.5160 O   0  0  0  0  0  0  0  0  0  0  0  0
  -22.6360  -29.0740   22.2570 C   0  0  0  0  0  0  0  0  0  0  0  0
  -21.3050  -28.8890   22.1690 N   0  0  0  0  0  0  0  0  0  0  0  0
  -23.3430  -28.4320   23.0390 O   0  0  0  0  0  0  0  0  0  0  0  0
  -20.7900  -29.4630   21.5160 H   0  0  0  0  0  0  0  0  0  0  0  0
  -17.9640  -27.6050   22.7270 C   0  0  0  0  0  0  0  0  0  0  0  0
  -20.5210  -27.9190   22.9410 C   0  0  0  0  0  3  0  0  0  0  0  0
  -20.6420  -26.5000   22.3340 C   0  0  0  0  0  2  0  0  0  0  0  0
  -19.5250  -26.1740   21.3390 C   0  0  0  0  0  2  0  0  0  0  0  0
  -18.1560  -26.2750   22.0170 C   0  0  0  0  0  2  0  0  0  0  0  0
  -19.0750  -28.3840   23.1470 C   0  0  0  0  0  0  0  0  0  0  0  0
  -18.8410  -29.6270   23.7740 C   0  0  0  0  0  3  0  0  0  0  0  0
  -17.5300  -30.0920   23.9840 C   0  0  0  0  0  3  0  0  0  0  0  0
  -16.4330  -29.3090   23.5810 C   0  0  0  0  0  3  0  0  0  0  0  0
  -16.6520  -28.0680   22.9570 C   0  0  0  0  0  3  0  0  0  0  0  0
  -25.8070  -32.1070   23.5400 C   0  0  0  0  0  3  0  0  0  0  0  0
  -25.4790  -33.4760   23.9740 N   0  0  0  0  0  0  0  0  0  0  0  0
  -25.7870  -34.5870   23.2920 C   0  0  0  0  0  0  0  0  0  0  0  0
  -26.4420  -34.5690   22.2480 O   0  0  0  0  0  0  0  0  0  0  0  0
  -24.9000  -33.5620   24.7950 H   0  0  0  0  0  0  0  0  0  0  0  0
  -24.0350  -36.3820   23.0930 C   0  0  0  0  0  1  0  0  0  0  0  0
  -25.2900  -35.9330   23.8580 C   0  0  0  0  0  3  0  0  0  0  0  0
  -27.4230  -36.7840   24.7280 C   0  0  0  0  0  1  0  0  0  0  0  0
  -26.3070  -37.0040   23.8120 N   0  0  0  0  0  0  0  0  0  0  0  0
  -25.8900  -37.9060   24.0280 H   0  0  0  0  0  0  0  0  0  0  0  0
  -26.4000  -31.2760   24.7450 C   0  0  1  0  0  0  0  0  0  0  0  0
  -25.3670  -30.9640   25.8530 C   0  0  0  0  0  1  0  0  0  0  0  0
  -26.9820  -29.9310   24.2510 C   0  0  0  0  0  1  0  0  0  0  0  0
  -27.5730  -32.0520   25.3910 C   0  0  0  0  0  1  0  0  0  0  0  0
  -31.2190  -21.6800   20.9570 N   0  0  0  0  0  0  0  0  0  0  0  0
  -30.5440  -22.4080   20.7650 H   0  0  0  0  0  0  0  0  0  0  0  0
  -32.1230  -23.3640   22.5000 C   0  0  0  0  0  1  0  0  0  0  0  0
  -33.6660  -21.9240   21.1270 C   0  0  0  0  0  1  0  0  0  0  0  0
  -32.3200  -21.9840   21.8640 C   0  0  0  0  0  3  0  0  0  0  0  0
  1  2  1  0
  3  6  2  0
  3  4  1  0
  4  1  2  0
  5 90  1  0
  5  2  2  0
  6  5  1  0
  7 13  1  0
  8 13  1  0
  9 10  1  0
  9  8  1  0
 11 10  1  0
 11 20  1  0
 11 12  1  0
 13 12  1  0
 14  7  2  0
 15  4  1  0
 15  7  1  0
 16 15  1  0
 17 18  2  0
 18 37  1  0
 19 18  1  0
 19 22  1  0
 20 17  1  0
 20 21  1  0
 21 19  2  0
 22 23  1  0
 23 24  2  0
 25 28  1  0
 25 24  1  0
 26 25  2  0
 27 26  1  0
 27 22  2  0
 28 29  1  0
 29 30  1  0
 30 31  2  0
 32 31  1  0
 32 36  1  0
 33 32  2  0
 34 29  2  0
 34 33  1  0
 35 34  1  0
 37 38  1  0
 38 41  1  0
 38 40  1  0
 39 37  2  0
 42 43  1  0
 42 17  1  0
 44 42  1  0
 45 46  1  0
 46 47  1  0
 46  6  1  0
 48 49  1  0
 48 47  2  0
 50 61  2  0
 51 49  1  0
 51 56  1  0
 52 60  1  0
 52 62  1  0
 53 59  1  0
 53 55  1  0
 54 60  1  0
 55 54  1  0
 56 55  2  0
 57 58  1  0
 57 51  2  0
 58 53  2  0
 59 52  1  0
 60 50  1  0
 62 64  2  0
 63 62  1  0
 65 63  1  0
 66 75  2  0
 66 71  1  0
 67 63  1  0
 67 71  1  0
 68 67  1  0
 69 70  1  0
 69 68  1  0
 70 66  1  0
 71 72  2  0
 72 73  1  0
 74 73  2  0
 75 74  1  0
 76 50  1  0
 76 77  1  0
 76 86  1  0
 77 80  1  0
 78 82  1  0
 78 77  1  0
 79 78  2  0
 82 81  1  0
 84 82  1  0
 84 85  1  0
 84 83  1  0
 86 89  1  1
 86 87  1  0
 88 86  1  0
 90 94  1  0
 91 90  1  0
 93 94  1  0
 94 92  1  0
M  ISO  4   7 100  15 100  48 101  49 101
M  END
>  <TORSDO>  (59) 
F 21

>  <SCORE>  (59) 
-9.609

>  <name>  (59) 
58

>  <ligand_id>  (59) 
58

>  <original_smiles>  (59) 
[H]c1c([H])c([H])c2c(c1[H])C([H])([H])C([H])([H])C([H])([H])C2([H])N([H])C(=O)C1([H])N(C(=O)C([H])(N([H])C(=O)C([H])(N([H])C([H])([H])[H])C([H])([H])[H])C(C([H])([H])[H])(C([H])([H])[H])C([H])([H])[H])C([H])([H])c2c([H])c(OC([H])([H])C([H])([H])N(c3c([H])c(N([H])C(=O)N4C([H])([H])C([H])([H])C([H])([H])C([H])(n5nc(-c6c([H])c([H])c(Oc7c([H])c([H])c(F)c([H])c7F)c([H])c6[H])c(C(=O)N([H])[H])c5N([H])[H])C4([H])[H])c([H])c([H])c3N([H])C([H])(C([H])([H])[H])C([H])([H])[H])C([H])([H])[H])c([H])c([H])c2C1([H])[H]

>  <smiles>  (59) 
[H]c1c([H])c([H])c2c(c1[H])C([H])([H])C([H])([H])C([H])([H])C2([H])N([H])C(=O)C1([H])N(C(=O)C([H])(N([H])C(=O)C([H])(N([H])C([H])([H])[H])C([H])([H])[H])C(C([H])([H])[H])(C([H])([H])[H])C([H])([H])[H])C([H])([H])c2c([H])c(OC([H])([H])C([H])([H])N(c3c([H])c(N([H])C(=O)N4C([H])([H])C([H])([H])C([H])([H])C([H])(n5nc(-c6c([H])c([H])c(Oc7c([H])c([H])c(F)c([H])c7F)c([H])c6[H])c(C(=O)N([H])[H])c5N([H])[H])C4([H])[H])c([H])c([H])c3N([H])C([H])(C([H])([H])[H])C([H])([H])[H])C([H])([H])[H])c([H])c([H])c2C1([H])[H]

$$$$
59:0:0
     RDKit          3D

 94102  0  0  1  0  0  0  0  0999 V2000
  -29.2370  -22.0460   20.7690 C   0  0  0  0  0  3  0  0  0  0  0  0
  -28.9060  -23.4720   20.8230 C   0  0  0  0  0  0  0  0  0  0  0  0
  -28.9700  -20.5390   18.6220 C   0  0  0  0  0  3  0  0  0  0  0  0
  -29.0450  -19.3130   17.9120 C   0  0  0  0  0  3  0  0  0  0  0  0
  -29.6880  -19.2810   20.5500 C   0  0  0  0  0  3  0  0  0  0  0  0
  -29.3020  -20.6240   19.9860 C   0  0  0  0  0  0  0  0  0  0  0  0
  -29.4430  -18.0650   18.4770 C   0  0  0  0  0  0  0  0  0  0  0  0
  -29.7920  -17.9430   19.8600 C   0  0  0  0  0  0  0  0  0  0  0  0
  -29.4450  -16.8640   17.5420 C   0  0  0  0  0  1  0  0  0  0  0  0
  -30.7660  -15.3270   20.0590 C   0  0  0  0  0  0  0  0  0  0  0  0
  -30.6380  -12.9430   19.1430 C   0  0  0  0  0  2  0  0  0  0  0  0
  -29.6730  -12.8430   17.9360 C   0  0  0  0  0  2  0  0  0  0  0  0
  -28.2280  -12.6140   18.4180 C   0  0  0  0  0  2  0  0  0  0  0  0
  -27.8420  -13.5500   19.5900 C   0  0  0  0  0  3  0  0  0  0  0  0
  -28.9280  -13.6060   20.6830 C   0  0  0  0  0  2  0  0  0  0  0  0
  -30.1670  -14.0550   20.0310 N   0  0  0  0  0  0  0  0  0  0  0  0
  -31.9310  -15.3630   19.6430 O   0  0  0  0  0  0  0  0  0  0  0  0
  -30.1230  -16.6110   21.9760 C   0  0  0  0  0  1  0  0  0  0  0  0
  -30.1050  -16.5420   20.5100 N   0  0  0  0  0  0  0  0  0  0  0  0
  -25.5120  -14.1350   20.4540 C   0  0  0  0  0  0  0  0  0  0  0  0
  -24.4490  -13.3610   20.8340 C   0  0  0  0  0  0  0  0  0  0  0  0
  -24.8890  -12.0050   20.7310 C   0  0  0  0  0  0  0  0  0  0  0  0
  -26.5260  -13.2480   20.1350 N   0  0  0  0  0  0  0  0  0  0  0  0
  -26.1660  -11.9620   20.3710 N   0  0  0  0  0  0  0  0  0  0  0  0
  -24.1450  -10.7500   20.8970 C   0  0  0  0  0  0  0  0  0  0  0  0
  -24.5460   -9.7750   21.8380 C   0  0  0  0  0  3  0  0  0  0  0  0
  -23.8060   -8.5830   21.9920 C   0  0  0  0  0  3  0  0  0  0  0  0
  -22.6520   -8.3590   21.2040 C   0  0  0  0  0  0  0  0  0  0  0  0
  -22.2720   -9.3190   20.2490 C   0  0  0  0  0  3  0  0  0  0  0  0
  -23.0140  -10.5030   20.0930 C   0  0  0  0  0  3  0  0  0  0  0  0
  -21.8860   -7.2210   21.2690 O   0  0  0  0  0  0  0  0  0  0  0  0
  -21.7200   -6.5300   22.4440 C   0  0  0  0  0  0  0  0  0  0  0  0
  -21.1310   -7.1240   23.5810 C   0  0  0  0  0  3  0  0  0  0  0  0
  -20.9140   -6.3570   24.7430 C   0  0  0  0  0  3  0  0  0  0  0  0
  -21.2780   -4.9980   24.7690 C   0  0  0  0  0  0  0  0  0  0  0  0
  -21.8630   -4.4030   23.6370 C   0  0  0  0  0  3  0  0  0  0  0  0
  -22.0760   -5.1670   22.4760 C   0  0  0  0  0  0  0  0  0  0  0  0
  -22.6200   -4.5830   21.3800 F   0  0  0  0  0  0  0  0  0  0  0  0
  -21.0600   -4.2590   25.8820 F   0  0  0  0  0  0  0  0  0  0  0  0
  -23.0720  -13.8510   21.1740 C   0  0  0  0  0  0  0  0  0  0  0  0
  -22.3640  -13.1390   22.0440 N   0  0  0  0  0  0  0  0  0  0  0  0
  -22.6320  -14.8990   20.7010 O   0  0  0  0  0  0  0  0  0  0  0  0
  -22.7350  -12.2940   22.4550 H   0  0  0  0  0  0  0  0  0  0  0  0
  -21.4420  -13.4500   22.3150 H   0  0  0  0  0  0  0  0  0  0  0  0
  -25.6940  -15.5110   20.3280 N   0  0  0  0  0  0  0  0  0  0  0  0
  -24.9410  -16.1680   20.4930 H   0  0  0  0  0  0  0  0  0  0  0  0
  -26.5440  -15.9490   19.9970 H   0  0  0  0  0  0  0  0  0  0  0  0
  -29.2250  -24.0140   22.1450 C   0  0  0  0  0  0  0  0  0  0  0  0
  -28.5520  -23.4220   23.1330 N   0  0  0  0  0  0  0  0  0  0  0  0
  -30.0380  -24.9040   22.3790 O   0  0  0  0  0  0  0  0  0  0  0  0
  -27.8830  -22.6950   22.9210 H   0  0  0  0  0  0  0  0  0  0  0  0
  -28.7200  -23.6710   24.0980 H   0  0  0  0  0  0  0  0  0  0  0  0
  -28.2590  -24.7150   19.8980 C   0  0  0  0  0  2  0  0  0  0  0  0
  -28.3660  -26.2780   20.2340 O   0  0  0  0  0  0  0  0  0  0  0  0
  -24.6690  -31.9670   23.2250 C   0  0  0  0  0  0  0  0  0  0  0  0
  -27.3070  -27.2810   20.1370 C   0  0  0  0  0  0  0  0  0  0  0  0
  -23.4860  -30.5730   21.5720 C   0  0  0  0  0  3  0  0  0  0  0  0
  -24.9570  -29.0350   20.1180 C   0  0  0  0  0  0  0  0  0  0  0  0
  -26.0360  -30.8680   21.4070 C   0  0  0  0  0  2  0  0  0  0  0  0
  -26.1300  -29.4800   20.7360 C   0  0  0  0  0  0  0  0  0  0  0  0
  -27.3010  -28.6190   20.7300 C   0  0  0  0  0  3  0  0  0  0  0  0
  -26.1090  -26.9630   19.4610 C   0  0  0  0  0  3  0  0  0  0  0  0
  -24.9620  -27.7960   19.4590 C   0  0  0  0  0  3  0  0  0  0  0  0
  -23.7160  -29.9170   20.1830 C   0  0  0  0  0  2  0  0  0  0  0  0
  -24.7500  -31.1620   22.1210 N   0  0  0  0  0  0  0  0  0  0  0  0
  -23.5820  -32.2250   23.7650 O   0  0  0  0  0  0  0  0  0  0  0  0
  -22.8290  -29.5450   22.5250 C   0  0  0  0  0  0  0  0  0  0  0  0
  -21.5030  -29.3490   22.4040 N   0  0  0  0  0  0  0  0  0  0  0  0
  -23.5160  -28.9250   23.3430 O   0  0  0  0  0  0  0  0  0  0  0  0
  -21.0020  -29.8980   21.7180 H   0  0  0  0  0  0  0  0  0  0  0  0
  -18.1520  -28.0670   22.9080 C   0  0  0  0  0  0  0  0  0  0  0  0
  -20.7060  -28.3870   23.1700 C   0  0  0  0  0  3  0  0  0  0  0  0
  -20.8390  -26.9620   22.5830 C   0  0  0  0  0  2  0  0  0  0  0  0
  -19.7430  -26.6240   21.5670 C   0  0  0  0  0  2  0  0  0  0  0  0
  -18.3590  -26.7300   22.2150 C   0  0  0  0  0  2  0  0  0  0  0  0
  -19.2530  -28.8500   23.3430 C   0  0  0  0  0  0  0  0  0  0  0  0
  -19.0080  -30.0990   23.9530 C   0  0  0  0  0  3  0  0  0  0  0  0
  -17.6920  -30.5640   24.1370 C   0  0  0  0  0  3  0  0  0  0  0  0
  -16.6040  -29.7780   23.7190 C   0  0  0  0  0  3  0  0  0  0  0  0
  -16.8350  -28.5310   23.1090 C   0  0  0  0  0  3  0  0  0  0  0  0
  -25.9390  -32.6210   23.8520 C   0  0  0  0  0  3  0  0  0  0  0  0
  -26.4590  -31.8580   25.1340 C   0  0  1  0  0  0  0  0  0  0  0  0
  -25.3600  -31.5940   26.1890 C   0  0  0  0  0  1  0  0  0  0  0  0
  -27.0830  -30.4940   24.7560 C   0  0  0  0  0  1  0  0  0  0  0  0
  -27.5800  -32.6800   25.8140 C   0  0  0  0  0  1  0  0  0  0  0  0
  -25.6070  -34.0160   24.1880 N   0  0  0  0  0  0  0  0  0  0  0  0
  -25.9130  -35.0800   23.4330 C   0  0  0  0  0  0  0  0  0  0  0  0
  -26.5710  -34.9930   22.3930 O   0  0  0  0  0  0  0  0  0  0  0  0
  -25.0210  -34.1560   24.9970 H   0  0  0  0  0  0  0  0  0  0  0  0
  -24.1550  -36.8560   23.1170 C   0  0  0  0  0  1  0  0  0  0  0  0
  -25.4120  -36.4600   23.9070 C   0  0  0  0  0  3  0  0  0  0  0  0
  -27.5370  -37.3840   24.7230 C   0  0  0  0  0  1  0  0  0  0  0  0
  -26.4270  -37.5300   23.7850 N   0  0  0  0  0  0  0  0  0  0  0  0
  -26.0050  -38.4420   23.9340 H   0  0  0  0  0  0  0  0  0  0  0  0
  1  2  2  0
  2 48  1  0
  3  6  1  0
  4  7  1  0
  4  3  2  0
  6  5  2  0
  6  1  1  0
  7  8  2  0
  8 19  1  0
  8  5  1  0
  9  7  1  0
 10 19  1  0
 11 16  1  0
 12 13  1  0
 12 11  1  0
 14 13  1  0
 14 23  1  0
 14 15  1  0
 16 10  1  0
 16 15  1  0
 17 10  2  0
 19 18  1  0
 20 21  2  0
 21 40  1  0
 22 21  1  0
 22 25  1  0
 23 24  1  0
 23 20  1  0
 24 22  2  0
 25 26  1  0
 26 27  2  0
 28 31  1  0
 28 27  1  0
 29 28  2  0
 30 29  1  0
 30 25  2  0
 31 32  1  0
 32 37  2  0
 32 33  1  0
 33 34  2  0
 34 35  1  0
 35 39  1  0
 36 35  2  0
 37 36  1  0
 38 37  1  0
 40 41  1  0
 41 44  1  0
 41 43  1  0
 42 40  2  0
 45 20  1  0
 45 46  1  0
 47 45  1  0
 48 50  2  0
 48 49  1  0
 49 52  1  0
 51 49  1  0
 53 54  1  0
 53  2  1  0
 55 66  2  0
 56 54  1  0
 56 61  1  0
 57 65  1  0
 57 67  1  0
 58 64  1  0
 58 60  1  0
 59 65  1  0
 60 59  1  0
 61 60  2  0
 62 56  2  0
 63 62  1  0
 63 58  2  0
 64 57  1  0
 65 55  1  0
 67 69  2  0
 68 67  1  0
 70 68  1  0
 71 80  2  0
 71 76  1  0
 72 68  1  0
 72 76  1  0
 73 72  1  0
 74 75  1  0
 74 73  1  0
 75 71  1  0
 76 77  2  0
 77 78  1  0
 79 78  2  0
 80 79  1  0
 81 55  1  0
 81 86  1  0
 81 82  1  0
 82 85  1  1
 82 83  1  0
 84 82  1  0
 86 89  1  0
 87 91  1  0
 87 86  1  0
 88 87  2  0
 91 90  1  0
 93 91  1  0
 93 94  1  0
 93 92  1  0
M  ISO  4  10 100  19 100  53 101  54 101
M  END
>  <TORSDO>  (60) 
F 19

>  <SCORE>  (60) 
-12.727

>  <name>  (60) 
59

>  <ligand_id>  (60) 
59

>  <original_smiles>  (60) 
[H]C(=C(C(=O)N([H])[H])C([H])([H])Oc1c([H])c([H])c2c(c1[H])C([H])([H])N(C(=O)C([H])(N([H])C(=O)C([H])(N([H])C([H])([H])[H])C([H])([H])[H])C(C([H])([H])[H])(C([H])([H])[H])C([H])([H])[H])C([H])(C(=O)N([H])C1([H])c3c([H])c([H])c([H])c([H])c3C([H])([H])C([H])([H])C1([H])[H])C2([H])[H])c1c([H])c([H])c(C([H])([H])[H])c(N(C(=O)N2C([H])([H])C([H])([H])C([H])([H])C([H])(n3nc(-c4c([H])c([H])c(Oc5c([H])c([H])c(F)c([H])c5F)c([H])c4[H])c(C(=O)N([H])[H])c3N([H])[H])C2([H])[H])C([H])([H])[H])c1[H]

>  <smiles>  (60) 
[H]C(=C(C(=O)N([H])[H])C([H])([H])Oc1c([H])c([H])c2c(c1[H])C([H])([H])N(C(=O)C([H])(N([H])C(=O)C([H])(N([H])C([H])([H])[H])C([H])([H])[H])C(C([H])([H])[H])(C([H])([H])[H])C([H])([H])[H])C([H])(C(=O)N([H])C1([H])c3c([H])c([H])c([H])c([H])c3C([H])([H])C([H])([H])C1([H])[H])C2([H])[H])c1c([H])c([H])c(C([H])([H])[H])c(N(C(=O)N2C([H])([H])C([H])([H])C([H])([H])C([H])(n3nc(-c4c([H])c([H])c(Oc5c([H])c([H])c(F)c([H])c5F)c([H])c4[H])c(C(=O)N([H])[H])c3N([H])[H])C2([H])[H])C([H])([H])[H])c1[H]

$$$$
60:0:0
     RDKit          3D

 94102  0  0  1  0  0  0  0  0999 V2000
  -29.2570  -21.6870   19.2330 C   0  0  0  0  0  0  0  0  0  0  0  0
  -29.5650  -20.4940   18.7020 N   0  0  0  0  0  0  0  0  0  0  0  0
  -28.7650  -21.8380   20.3540 O   0  0  0  0  0  0  0  0  0  0  0  0
  -29.7960  -20.4960   17.7170 H   0  0  0  0  0  0  0  0  0  0  0  0
  -30.0920  -17.7600   21.2420 C   0  0  0  0  0  3  0  0  0  0  0  0
  -29.9090  -19.0480   20.7040 C   0  0  0  0  0  3  0  0  0  0  0  0
  -29.6630  -16.7900   19.0560 C   0  0  0  0  0  3  0  0  0  0  0  0
  -30.0110  -16.6090   20.4210 C   0  0  0  0  0  0  0  0  0  0  0  0
  -29.6260  -19.2190   19.3280 C   0  0  0  0  0  0  0  0  0  0  0  0
  -29.4890  -18.0770   18.5130 C   0  0  0  0  0  0  0  0  0  0  0  0
  -29.1430  -18.2360   16.8250 Cl  0  0  0  0  0  0  0  0  0  0  0  0
  -30.8360  -14.3560   20.1420 C   0  0  0  0  0  0  0  0  0  0  0  0
  -30.3510  -12.3200   18.8420 C   0  0  0  0  0  2  0  0  0  0  0  0
  -29.3360  -12.6230   17.7230 C   0  0  0  0  0  2  0  0  0  0  0  0
  -27.8910  -12.5040   18.2450 C   0  0  0  0  0  2  0  0  0  0  0  0
  -27.6670  -13.2690   19.5780 C   0  0  0  0  0  3  0  0  0  0  0  0
  -28.7840  -12.9480   20.5910 C   0  0  0  0  0  2  0  0  0  0  0  0
  -30.0820  -13.2420   19.9550 N   0  0  0  0  0  0  0  0  0  0  0  0
  -31.8820  -14.5760   19.5210 O   0  0  0  0  0  0  0  0  0  0  0  0
  -30.5460  -15.1380   22.3890 C   0  0  0  0  0  1  0  0  0  0  0  0
  -30.3110  -15.3050   20.9490 N   0  0  0  0  0  0  0  0  0  0  0  0
  -25.3220  -13.8830   20.4460 C   0  0  0  0  0  0  0  0  0  0  0  0
  -24.2720  -13.1110   20.8660 C   0  0  0  0  0  0  0  0  0  0  0  0
  -24.7170  -11.7570   20.7780 C   0  0  0  0  0  0  0  0  0  0  0  0
  -26.3430  -12.9970   20.1330 N   0  0  0  0  0  0  0  0  0  0  0  0
  -25.9830  -11.7130   20.3850 N   0  0  0  0  0  0  0  0  0  0  0  0
  -23.9930  -10.4960   20.9880 C   0  0  0  0  0  0  0  0  0  0  0  0
  -24.4580   -9.5210   21.8970 C   0  0  0  0  0  3  0  0  0  0  0  0
  -23.7330   -8.3250   22.0960 C   0  0  0  0  0  3  0  0  0  0  0  0
  -22.5310   -8.0980   21.3860 C   0  0  0  0  0  0  0  0  0  0  0  0
  -22.0840   -9.0630   20.4660 C   0  0  0  0  0  3  0  0  0  0  0  0
  -22.8080  -10.2500   20.2660 C   0  0  0  0  0  3  0  0  0  0  0  0
  -21.7760   -6.9530   21.4940 O   0  0  0  0  0  0  0  0  0  0  0  0
  -21.7480   -6.2170   22.6500 C   0  0  0  0  0  0  0  0  0  0  0  0
  -21.3630   -6.7830   23.8850 C   0  0  0  0  0  3  0  0  0  0  0  0
  -21.2810   -5.9730   25.0360 C   0  0  0  0  0  3  0  0  0  0  0  0
  -21.5720   -4.5990   24.9520 C   0  0  0  0  0  0  0  0  0  0  0  0
  -21.9490   -4.0320   23.7220 C   0  0  0  0  0  3  0  0  0  0  0  0
  -22.0340   -4.8380   22.5740 C   0  0  0  0  0  0  0  0  0  0  0  0
  -22.3770   -4.2820   21.3870 F   0  0  0  0  0  0  0  0  0  0  0  0
  -21.4850   -3.8180   26.0560 F   0  0  0  0  0  0  0  0  0  0  0  0
  -22.9000  -13.5960   21.2380 C   0  0  0  0  0  0  0  0  0  0  0  0
  -22.2300  -12.8980   22.1500 N   0  0  0  0  0  0  0  0  0  0  0  0
  -22.4320  -14.6260   20.7570 O   0  0  0  0  0  0  0  0  0  0  0  0
  -22.6210  -12.0630   22.5610 H   0  0  0  0  0  0  0  0  0  0  0  0
  -21.3130  -13.2060   22.4410 H   0  0  0  0  0  0  0  0  0  0  0  0
  -25.4880  -15.2550   20.2890 N   0  0  0  0  0  0  0  0  0  0  0  0
  -24.7380  -15.9150   20.4670 H   0  0  0  0  0  0  0  0  0  0  0  0
  -26.3330  -15.6990   19.9510 H   0  0  0  0  0  0  0  0  0  0  0  0
  -29.5120  -22.9140   18.3480 C   0  0  0  0  0  2  0  0  0  0  0  0
  -28.3120  -23.6770   18.2250 O   0  0  0  0  0  0  0  0  0  0  0  0
  -28.4920  -25.0780   18.4100 C   0  0  0  0  0  2  0  0  0  0  0  0
  -28.4090  -25.4280   19.9110 C   0  0  0  0  0  2  0  0  0  0  0  0
  -28.3870  -26.8350   20.1530 O   0  0  0  0  0  0  0  0  0  0  0  0
  -24.5130  -31.9300   23.2280 C   0  0  0  0  0  0  0  0  0  0  0  0
  -27.1780  -27.4970   20.1580 C   0  0  0  0  0  0  0  0  0  0  0  0
  -23.3090  -30.5130   21.5970 C   0  0  0  0  0  3  0  0  0  0  0  0
  -24.7640  -28.9740   20.1820 C   0  0  0  0  0  0  0  0  0  0  0  0
  -25.8300  -30.8880   21.3870 C   0  0  0  0  0  2  0  0  0  0  0  0
  -25.9200  -29.5130   20.7580 C   0  0  0  0  0  0  0  0  0  0  0  0
  -27.1280  -28.7850   20.7380 C   0  0  0  0  0  3  0  0  0  0  0  0
  -25.9930  -26.9600   19.6000 C   0  0  0  0  0  3  0  0  0  0  0  0
  -24.7940  -27.6950   19.6030 C   0  0  0  0  0  3  0  0  0  0  0  0
  -23.5160  -29.8250   20.2230 C   0  0  0  0  0  2  0  0  0  0  0  0
  -24.5690  -31.1240   22.1300 N   0  0  0  0  0  0  0  0  0  0  0  0
  -23.4310  -32.2000   23.7680 O   0  0  0  0  0  0  0  0  0  0  0  0
  -22.6640  -29.4950   22.5650 C   0  0  0  0  0  0  0  0  0  0  0  0
  -21.3430  -29.2990   22.4330 N   0  0  0  0  0  0  0  0  0  0  0  0
  -23.3510  -28.8810   23.3880 O   0  0  0  0  0  0  0  0  0  0  0  0
  -20.8520  -29.8450   21.7390 H   0  0  0  0  0  0  0  0  0  0  0  0
  -17.9770  -28.0820   22.9240 C   0  0  0  0  0  0  0  0  0  0  0  0
  -20.5300  -28.3620   23.2080 C   0  0  0  0  0  3  0  0  0  0  0  0
  -20.6480  -26.9280   22.6450 C   0  0  0  0  0  2  0  0  0  0  0  0
  -19.5540  -26.5870   21.6280 C   0  0  0  0  0  2  0  0  0  0  0  0
  -18.1680  -26.7280   22.2640 C   0  0  0  0  0  2  0  0  0  0  0  0
  -19.0880  -28.8570   23.3530 C   0  0  0  0  0  0  0  0  0  0  0  0
  -18.8570  -30.1250   23.9300 C   0  0  0  0  0  3  0  0  0  0  0  0
  -17.5480  -30.6190   24.0830 C   0  0  0  0  0  3  0  0  0  0  0  0
  -16.4520  -29.8420   23.6700 C   0  0  0  0  0  3  0  0  0  0  0  0
  -16.6670  -28.5770   23.0970 C   0  0  0  0  0  3  0  0  0  0  0  0
  -25.7980  -32.5680   23.8430 C   0  0  0  0  0  3  0  0  0  0  0  0
  -25.4830  -33.9650   24.1700 N   0  0  0  0  0  0  0  0  0  0  0  0
  -25.8130  -35.0170   23.4090 C   0  0  0  0  0  0  0  0  0  0  0  0
  -26.4860  -34.9150   22.3790 O   0  0  0  0  0  0  0  0  0  0  0  0
  -24.8840  -34.1190   24.9680 H   0  0  0  0  0  0  0  0  0  0  0  0
  -24.0780  -36.8010   23.0410 C   0  0  0  0  0  1  0  0  0  0  0  0
  -25.3160  -36.4040   23.8610 C   0  0  0  0  0  3  0  0  0  0  0  0
  -27.4430  -37.2950   24.7010 C   0  0  0  0  0  1  0  0  0  0  0  0
  -26.3440  -37.4600   23.7540 N   0  0  0  0  0  0  0  0  0  0  0  0
  -25.9330  -38.3790   23.9030 H   0  0  0  0  0  0  0  0  0  0  0  0
  -26.3260  -31.8010   25.1150 C   0  0  1  0  0  0  0  0  0  0  0  0
  -25.2390  -31.5530   26.1880 C   0  0  0  0  0  1  0  0  0  0  0  0
  -26.9170  -30.4280   24.7170 C   0  0  0  0  0  1  0  0  0  0  0  0
  -27.4740  -32.6020   25.7710 C   0  0  0  0  0  1  0  0  0  0  0  0
  1  3  2  0
  2  1  1  0
  2  9  1  0
  4  2  1  0
  6  5  1  0
  7  8  1  0
  8 21  1  0
  8  5  2  0
  9  6  2  0
 10  7  2  0
 10  9  1  0
 11 10  1  0
 12 21  1  0
 13 18  1  0
 14 15  1  0
 14 13  1  0
 16 15  1  0
 16 25  1  0
 16 17  1  0
 18 12  1  0
 18 17  1  0
 19 12  2  0
 21 20  1  0
 22 23  2  0
 23 42  1  0
 24 23  1  0
 24 27  1  0
 25 26  1  0
 25 22  1  0
 26 24  2  0
 27 28  1  0
 28 29  2  0
 30 33  1  0
 30 29  1  0
 31 30  2  0
 32 31  1  0
 32 27  2  0
 33 34  1  0
 34 35  1  0
 35 36  2  0
 37 36  1  0
 37 41  1  0
 38 37  2  0
 39 34  2  0
 39 38  1  0
 40 39  1  0
 42 43  1  0
 43 46  1  0
 43 45  1  0
 44 42  2  0
 47 22  1  0
 47 48  1  0
 49 47  1  0
 50  1  1  0
 51 50  1  0
 51 52  1  0
 52 53  1  0
 53 54  1  0
 54 56  1  0
 55 66  2  0
 56 61  1  0
 57 65  1  0
 57 67  1  0
 58 64  1  0
 58 60  1  0
 59 65  1  0
 60 59  1  0
 61 60  2  0
 62 63  1  0
 62 56  2  0
 63 58  2  0
 64 57  1  0
 65 55  1  0
 67 69  2  0
 68 67  1  0
 70 68  1  0
 71 80  2  0
 71 76  1  0
 72 68  1  0
 72 76  1  0
 73 72  1  0
 74 75  1  0
 74 73  1  0
 75 71  1  0
 76 77  2  0
 77 78  1  0
 79 78  2  0
 80 79  1  0
 81 55  1  0
 81 82  1  0
 81 91  1  0
 82 85  1  0
 83 87  1  0
 83 82  1  0
 84 83  2  0
 87 86  1  0
 89 87  1  0
 89 90  1  0
 89 88  1  0
 91 94  1  1
 91 92  1  0
 93 91  1  0
M  ISO  4  12 100  21 100  53 101  54 101
M  END
>  <TORSDO>  (61) 
F 21

>  <SCORE>  (61) 
-12.478

>  <name>  (61) 
60

>  <ligand_id>  (61) 
60

>  <original_smiles>  (61) 
[H]c1c([H])c([H])c2c(c1[H])C([H])([H])C([H])([H])C([H])([H])C2([H])N([H])C(=O)C1([H])N(C(=O)C([H])(N([H])C(=O)C([H])(N([H])C([H])([H])[H])C([H])([H])[H])C(C([H])([H])[H])(C([H])([H])[H])C([H])([H])[H])C([H])([H])c2c([H])c(OC([H])([H])C([H])([H])OC([H])([H])C(=O)N([H])c3c([H])c([H])c(N(C(=O)N4C([H])([H])C([H])([H])C([H])([H])C([H])(n5nc(-c6c([H])c([H])c(Oc7c([H])c([H])c(F)c([H])c7F)c([H])c6[H])c(C(=O)N([H])[H])c5N([H])[H])C4([H])[H])C([H])([H])[H])c([H])c3Cl)c([H])c([H])c2C1([H])[H]

>  <smiles>  (61) 
[H]c1c([H])c([H])c2c(c1[H])C([H])([H])C([H])([H])C([H])([H])C2([H])N([H])C(=O)C1([H])N(C(=O)C([H])(N([H])C(=O)C([H])(N([H])C([H])([H])[H])C([H])([H])[H])C(C([H])([H])[H])(C([H])([H])[H])C([H])([H])[H])C([H])([H])c2c([H])c(OC([H])([H])C([H])([H])OC([H])([H])C(=O)N([H])c3c([H])c([H])c(N(C(=O)N4C([H])([H])C([H])([H])C([H])([H])C([H])(n5nc(-c6c([H])c([H])c(Oc7c([H])c([H])c(F)c([H])c7F)c([H])c6[H])c(C(=O)N([H])[H])c5N([H])[H])C4([H])[H])C([H])([H])[H])c([H])c3Cl)c([H])c([H])c2C1([H])[H]

$$$$
61:0:0
     RDKit          3D

 91 99  0  0  1  0  0  0  0  0999 V2000
  -28.8200  -23.9020   20.1550 C   0  0  0  0  0  0  0  0  0  0  0  0
  -29.0340  -22.8000   17.9600 C   0  0  0  0  0  1  0  0  0  0  0  0
  -29.0360  -22.7280   19.4350 N   0  0  0  0  0  0  0  0  0  0  0  0
  -28.8220  -23.9100   21.3930 O   0  0  0  0  0  0  0  0  0  0  0  0
  -30.8110  -19.7490   21.1080 C   0  0  0  0  0  3  0  0  0  0  0  0
  -28.9470  -18.8920   19.8460 C   0  0  0  0  0  3  0  0  0  0  0  0
  -30.4280  -21.0920   20.8030 C   0  0  0  0  0  3  0  0  0  0  0  0
  -28.5660  -20.2380   19.5390 C   0  0  0  0  0  3  0  0  0  0  0  0
  -30.1100  -18.6100   20.6100 C   0  0  0  0  0  0  0  0  0  0  0  0
  -29.3080  -21.3800   19.9760 C   0  0  0  0  0  0  0  0  0  0  0  0
  -30.7470  -17.1780   20.8090 C   0  0  0  0  0  2  0  0  0  0  0  0
  -30.6740  -14.6710   20.4200 C   0  0  0  0  0  0  0  0  0  0  0  0
  -30.3720  -12.4400   19.3680 C   0  0  0  0  0  2  0  0  0  0  0  0
  -29.4390  -12.5510   18.1440 C   0  0  0  0  0  2  0  0  0  0  0  0
  -27.9710  -12.3870   18.5760 C   0  0  0  0  0  2  0  0  0  0  0  0
  -27.6090  -13.2710   19.8000 C   0  0  0  0  0  3  0  0  0  0  0  0
  -28.6680  -13.1760   20.9210 C   0  0  0  0  0  2  0  0  0  0  0  0
  -29.9720  -13.4950   20.3230 N   0  0  0  0  0  0  0  0  0  0  0  0
  -31.8570  -14.7120   20.0790 O   0  0  0  0  0  0  0  0  0  0  0  0
  -30.0260  -15.8510   20.7100 N   0  0  0  0  0  0  0  0  0  0  0  0
  -29.0440  -15.8180   20.9400 H   0  0  0  0  0  0  0  0  0  0  0  0
  -25.2160  -13.8510   20.5200 C   0  0  0  0  0  0  0  0  0  0  0  0
  -24.1520  -13.0740   20.8860 C   0  0  0  0  0  0  0  0  0  0  0  0
  -24.6210  -11.7240   20.8580 C   0  0  0  0  0  0  0  0  0  0  0  0
  -26.2650  -12.9770   20.2890 N   0  0  0  0  0  0  0  0  0  0  0  0
  -25.9140  -11.6920   20.5570 N   0  0  0  0  0  0  0  0  0  0  0  0
  -23.8990  -10.4580   21.0500 C   0  0  0  0  0  0  0  0  0  0  0  0
  -24.3350   -9.4920   21.9850 C   0  0  0  0  0  3  0  0  0  0  0  0
  -23.6150   -8.2900   22.1610 C   0  0  0  0  0  3  0  0  0  0  0  0
  -22.4420   -8.0490   21.4060 C   0  0  0  0  0  0  0  0  0  0  0  0
  -22.0270   -9.0020   20.4590 C   0  0  0  0  0  3  0  0  0  0  0  0
  -22.7470  -10.1950   20.2810 C   0  0  0  0  0  3  0  0  0  0  0  0
  -21.6910   -6.9030   21.4940 O   0  0  0  0  0  0  0  0  0  0  0  0
  -21.6500   -6.1570   22.6450 C   0  0  0  0  0  0  0  0  0  0  0  0
  -21.2240   -6.7070   23.8750 C   0  0  0  0  0  3  0  0  0  0  0  0
  -21.1280   -5.8860   25.0180 C   0  0  0  0  0  3  0  0  0  0  0  0
  -21.4500   -4.5170   24.9310 C   0  0  0  0  0  0  0  0  0  0  0  0
  -21.8680   -3.9690   23.7060 C   0  0  0  0  0  3  0  0  0  0  0  0
  -21.9650   -4.7870   22.5670 C   0  0  0  0  0  0  0  0  0  0  0  0
  -22.3490   -4.2470   21.3850 F   0  0  0  0  0  0  0  0  0  0  0  0
  -21.3510   -3.7280   26.0260 F   0  0  0  0  0  0  0  0  0  0  0  0
  -22.7500  -13.5430   21.1500 C   0  0  0  0  0  0  0  0  0  0  0  0
  -22.0200  -12.8440   22.0100 N   0  0  0  0  0  0  0  0  0  0  0  0
  -22.3090  -14.5660   20.6260 O   0  0  0  0  0  0  0  0  0  0  0  0
  -22.3890  -12.0170   22.4550 H   0  0  0  0  0  0  0  0  0  0  0  0
  -21.0790  -13.1390   22.2280 H   0  0  0  0  0  0  0  0  0  0  0  0
  -25.3760  -15.2230   20.3410 N   0  0  0  0  0  0  0  0  0  0  0  0
  -24.6050  -15.8740   20.4430 H   0  0  0  0  0  0  0  0  0  0  0  0
  -26.2290  -15.6660   20.0240 H   0  0  0  0  0  0  0  0  0  0  0  0
  -28.5650  -25.2810   19.3930 C   0  0  0  0  0  2  0  0  0  0  0  0
  -28.3830  -26.5140   20.2030 O   0  0  0  0  0  0  0  0  0  0  0  0
  -24.6090  -31.8760   23.2270 C   0  0  0  0  0  0  0  0  0  0  0  0
  -27.2290  -27.3210   20.1440 C   0  0  0  0  0  0  0  0  0  0  0  0
  -23.3970  -30.4770   21.5910 C   0  0  0  0  0  3  0  0  0  0  0  0
  -24.8470  -28.9270   20.1560 C   0  0  0  0  0  0  0  0  0  0  0  0
  -25.9370  -30.7910   21.4050 C   0  0  0  0  0  2  0  0  0  0  0  0
  -26.0170  -29.4160   20.7530 C   0  0  0  0  0  0  0  0  0  0  0  0
  -27.2020  -28.6210   20.7410 C   0  0  0  0  0  3  0  0  0  0  0  0
  -26.0220  -26.8720   19.5580 C   0  0  0  0  0  3  0  0  0  0  0  0
  -24.8540  -27.6560   19.5590 C   0  0  0  0  0  3  0  0  0  0  0  0
  -23.6100  -29.8010   20.2080 C   0  0  0  0  0  2  0  0  0  0  0  0
  -24.6640  -31.0660   22.1300 N   0  0  0  0  0  0  0  0  0  0  0  0
  -23.5320  -32.1530   23.7700 O   0  0  0  0  0  0  0  0  0  0  0  0
  -22.7450  -29.4570   22.5550 C   0  0  0  0  0  0  0  0  0  0  0  0
  -21.4190  -29.2790   22.4390 N   0  0  0  0  0  0  0  0  0  0  0  0
  -23.4320  -28.8320   23.3680 O   0  0  0  0  0  0  0  0  0  0  0  0
  -20.9240  -29.8420   21.7620 H   0  0  0  0  0  0  0  0  0  0  0  0
  -18.0500  -28.0750   22.9580 C   0  0  0  0  0  0  0  0  0  0  0  0
  -20.6070  -28.3390   23.2160 C   0  0  0  0  0  3  0  0  0  0  0  0
  -20.7080  -26.9050   22.6440 C   0  0  0  0  0  2  0  0  0  0  0  0
  -19.6030  -26.5800   21.6340 C   0  0  0  0  0  2  0  0  0  0  0  0
  -18.2240  -26.7250   22.2800 C   0  0  0  0  0  2  0  0  0  0  0  0
  -19.1700  -28.8390   23.3800 C   0  0  0  0  0  0  0  0  0  0  0  0
  -18.9540  -30.1030   23.9710 C   0  0  0  0  0  3  0  0  0  0  0  0
  -17.6500  -30.6040   24.1450 C   0  0  0  0  0  3  0  0  0  0  0  0
  -16.5460  -29.8360   23.7400 C   0  0  0  0  0  3  0  0  0  0  0  0
  -16.7440  -28.5750   23.1500 C   0  0  0  0  0  3  0  0  0  0  0  0
  -25.8970  -32.5070   23.8410 C   0  0  0  0  0  3  0  0  0  0  0  0
  -26.4250  -31.7420   25.1170 C   0  0  1  0  0  0  0  0  0  0  0  0
  -25.3410  -31.5080   26.1970 C   0  0  0  0  0  1  0  0  0  0  0  0
  -27.0150  -30.3660   24.7300 C   0  0  0  0  0  1  0  0  0  0  0  0
  -27.5780  -32.5450   25.7670 C   0  0  0  0  0  1  0  0  0  0  0  0
  -25.5930  -33.9060   24.1710 N   0  0  0  0  0  0  0  0  0  0  0  0
  -25.9210  -34.9600   23.4100 C   0  0  0  0  0  0  0  0  0  0  0  0
  -26.5810  -34.8570   22.3730 O   0  0  0  0  0  0  0  0  0  0  0  0
  -25.0180  -34.0640   24.9860 H   0  0  0  0  0  0  0  0  0  0  0  0
  -24.1880  -36.7510   23.0690 C   0  0  0  0  0  1  0  0  0  0  0  0
  -25.4320  -36.3450   23.8740 C   0  0  0  0  0  3  0  0  0  0  0  0
  -27.5710  -37.2280   24.6950 C   0  0  0  0  0  1  0  0  0  0  0  0
  -26.4610  -37.4000   23.7620 N   0  0  0  0  0  0  0  0  0  0  0  0
  -26.0560  -38.3160   23.9260 H   0  0  0  0  0  0  0  0  0  0  0  0
  1  4  2  0
  2  3  1  0
  3 10  1  0
  3  1  1  0
  6  9  1  0
  7  5  1  0
  8  6  2  0
  8 10  1  0
  9 11  1  0
  9  5  2  0
 10  7  2  0
 12 20  1  0
 13 18  1  0
 14 15  1  0
 14 13  1  0
 16 15  1  0
 16 25  1  0
 16 17  1  0
 18 12  1  0
 18 17  1  0
 19 12  2  0
 20 11  1  0
 20 21  1  0
 22 23  2  0
 23 42  1  0
 24 23  1  0
 24 27  1  0
 25 22  1  0
 25 26  1  0
 26 24  2  0
 27 28  1  0
 28 29  2  0
 30 33  1  0
 30 29  1  0
 31 30  2  0
 32 31  1  0
 32 27  2  0
 33 34  1  0
 34 35  1  0
 35 36  2  0
 37 36  1  0
 37 41  1  0
 38 37  2  0
 39 34  2  0
 39 38  1  0
 40 39  1  0
 42 43  1  0
 43 46  1  0
 43 45  1  0
 44 42  2  0
 47 48  1  0
 47 22  1  0
 49 47  1  0
 50  1  1  0
 50 51  1  0
 52 63  2  0
 53 51  1  0
 53 58  1  0
 54 62  1  0
 54 64  1  0
 55 61  1  0
 55 57  1  0
 56 62  1  0
 57 56  1  0
 58 57  2  0
 59 60  1  0
 59 53  2  0
 60 55  2  0
 61 54  1  0
 62 52  1  0
 64 66  2  0
 65 64  1  0
 67 65  1  0
 68 77  2  0
 68 73  1  0
 69 65  1  0
 69 73  1  0
 70 69  1  0
 71 72  1  0
 71 70  1  0
 72 68  1  0
 73 74  2  0
 74 75  1  0
 76 75  2  0
 77 76  1  0
 78 52  1  0
 78 83  1  0
 78 79  1  0
 79 82  1  1
 79 80  1  0
 81 79  1  0
 83 86  1  0
 84 88  1  0
 84 83  1  0
 85 84  2  0
 88 87  1  0
 90 88  1  0
 90 91  1  0
 90 89  1  0
M  ISO  4  12 100  20 100  50 101  51 101
M  END
>  <TORSDO>  (62) 
F 19

>  <SCORE>  (62) 
-14.316

>  <name>  (62) 
61

>  <ligand_id>  (62) 
61

>  <original_smiles>  (62) 
[H]c1c([H])c([H])c2c(c1[H])C([H])([H])C([H])([H])C([H])([H])C2([H])N([H])C(=O)C1([H])N(C(=O)C([H])(N([H])C(=O)C([H])(N([H])C([H])([H])[H])C([H])([H])[H])C(C([H])([H])[H])(C([H])([H])[H])C([H])([H])[H])C([H])([H])c2c([H])c(OC([H])([H])C(=O)N(c3c([H])c([H])c(C([H])([H])N([H])C(=O)N4C([H])([H])C([H])([H])C([H])([H])C([H])(n5nc(-c6c([H])c([H])c(Oc7c([H])c([H])c(F)c([H])c7F)c([H])c6[H])c(C(=O)N([H])[H])c5N([H])[H])C4([H])[H])c([H])c3[H])C([H])([H])[H])c([H])c([H])c2C1([H])[H]

>  <smiles>  (62) 
[H]c1c([H])c([H])c2c(c1[H])C([H])([H])C([H])([H])C([H])([H])C2([H])N([H])C(=O)C1([H])N(C(=O)C([H])(N([H])C(=O)C([H])(N([H])C([H])([H])[H])C([H])([H])[H])C(C([H])([H])[H])(C([H])([H])[H])C([H])([H])[H])C([H])([H])c2c([H])c(OC([H])([H])C(=O)N(c3c([H])c([H])c(C([H])([H])N([H])C(=O)N4C([H])([H])C([H])([H])C([H])([H])C([H])(n5nc(-c6c([H])c([H])c(Oc7c([H])c([H])c(F)c([H])c7F)c([H])c6[H])c(C(=O)N([H])[H])c5N([H])[H])C4([H])[H])c([H])c3[H])C([H])([H])[H])c([H])c([H])c2C1([H])[H]

$$$$
62:0:0
     RDKit          3D

 93101  0  0  1  0  0  0  0  0999 V2000
  -29.4400  -22.8350   20.6640 C   0  0  0  0  0  0  0  0  0  0  0  0
  -30.0130  -19.2600   19.1640 C   0  0  0  0  0  2  0  0  0  0  0  0
  -30.9870  -19.4710   21.5070 C   0  0  0  0  0  2  0  0  0  0  0  0
  -30.0640  -20.8480   19.1390 C   0  0  0  0  0  2  0  0  0  0  0  0
  -29.8950  -20.5860   21.6020 C   0  0  0  0  0  2  0  0  0  0  0  0
  -31.0060  -18.6350   20.1940 C   0  0  0  0  0  3  0  0  0  0  0  0
  -29.8230  -21.5200   20.4470 N   0  0  0  0  0  0  0  0  0  0  0  0
  -29.0070  -23.1730   21.7720 O   0  0  0  0  0  0  0  0  0  0  0  0
  -31.1240  -14.7570   19.6390 C   0  0  0  0  0  0  0  0  0  0  0  0
  -30.7810  -12.5390   18.4920 C   0  0  0  0  0  2  0  0  0  0  0  0
  -29.6530  -12.6040   17.4340 C   0  0  0  0  0  2  0  0  0  0  0  0
  -28.2620  -12.3910   18.0690 C   0  0  0  0  0  2  0  0  0  0  0  0
  -28.0910  -13.2010   19.3790 C   0  0  0  0  0  3  0  0  0  0  0  0
  -29.3170  -12.9670   20.2960 C   0  0  0  0  0  2  0  0  0  0  0  0
  -30.4770  -13.5220   19.5740 N   0  0  0  0  0  0  0  0  0  0  0  0
  -32.1610  -14.8310   18.9610 O   0  0  0  0  0  0  0  0  0  0  0  0
  -31.3960  -17.0800   20.3530 C   0  0  0  0  0  0  0  0  0  0  0  0
  -30.5960  -15.9320   20.2620 N   0  0  0  0  0  0  0  0  0  0  0  0
  -32.5920  -16.9460   20.6460 O   0  0  0  0  0  0  0  0  0  0  0  0
  -25.8820  -13.7780   20.5590 C   0  0  0  0  0  0  0  0  0  0  0  0
  -24.8620  -12.9920   21.0240 C   0  0  0  0  0  0  0  0  0  0  0  0
  -25.2470  -11.6460   20.7400 C   0  0  0  0  0  0  0  0  0  0  0  0
  -26.8310  -12.9050   20.0480 N   0  0  0  0  0  0  0  0  0  0  0  0
  -26.4600  -11.6120   20.2070 N   0  0  0  0  0  0  0  0  0  0  0  0
  -24.5050  -10.3910   20.8920 C   0  0  0  0  0  0  0  0  0  0  0  0
  -24.9350   -9.3790   21.7770 C   0  0  0  0  0  3  0  0  0  0  0  0
  -24.1930   -8.1870   21.9150 C   0  0  0  0  0  3  0  0  0  0  0  0
  -23.0030   -8.0010   21.1720 C   0  0  0  0  0  0  0  0  0  0  0  0
  -22.5920   -9.0030   20.2740 C   0  0  0  0  0  3  0  0  0  0  0  0
  -23.3360  -10.1860   20.1320 C   0  0  0  0  0  3  0  0  0  0  0  0
  -22.2310   -6.8670   21.2250 O   0  0  0  0  0  0  0  0  0  0  0  0
  -22.0590   -6.1700   22.3940 C   0  0  0  0  0  0  0  0  0  0  0  0
  -21.5180   -6.7740   23.5500 C   0  0  0  0  0  3  0  0  0  0  0  0
  -21.2960   -6.0030   24.7080 C   0  0  0  0  0  3  0  0  0  0  0  0
  -21.6030   -4.6300   24.7110 C   0  0  0  0  0  0  0  0  0  0  0  0
  -22.1350   -4.0250   23.5590 C   0  0  0  0  0  3  0  0  0  0  0  0
  -22.3610   -4.7930   22.4040 C   0  0  0  0  0  0  0  0  0  0  0  0
  -22.8550   -4.2000   21.2900 F   0  0  0  0  0  0  0  0  0  0  0  0
  -21.3810   -3.8880   25.8220 F   0  0  0  0  0  0  0  0  0  0  0  0
  -23.5620  -13.4680   21.6040 C   0  0  0  0  0  0  0  0  0  0  0  0
  -23.0010  -12.7140   22.5430 N   0  0  0  0  0  0  0  0  0  0  0  0
  -23.0630  -14.5400   21.2660 O   0  0  0  0  0  0  0  0  0  0  0  0
  -23.4260  -11.8480   22.8390 H   0  0  0  0  0  0  0  0  0  0  0  0
  -22.1410  -13.0120   22.9790 H   0  0  0  0  0  0  0  0  0  0  0  0
  -26.0600  -15.1550   20.5000 N   0  0  0  0  0  0  0  0  0  0  0  0
  -25.3140  -15.7940   20.7550 H   0  0  0  0  0  0  0  0  0  0  0  0
  -26.8060  -15.6030   19.9860 H   0  0  0  0  0  0  0  0  0  0  0  0
  -29.9050  -16.0470   22.7000 C   0  0  0  0  0  1  0  0  0  0  0  0
  -28.2320  -16.8100   20.9710 C   0  0  0  0  0  1  0  0  0  0  0  0
  -29.4460  -15.9060   21.2300 C   0  0  0  0  0  3  0  0  0  0  0  0
  -29.5870  -24.0000   19.6220 C   0  0  0  0  0  2  0  0  0  0  0  0
  -28.4060  -25.0590   19.5710 C   0  0  0  0  0  2  0  0  0  0  0  0
  -28.6460  -26.5060   19.7450 O   0  0  0  0  0  0  0  0  0  0  0  0
  -24.8900  -31.6400   23.1400 C   0  0  0  0  0  0  0  0  0  0  0  0
  -27.5110  -27.3330   19.7630 C   0  0  0  0  0  0  0  0  0  0  0  0
  -23.6800  -30.3360   21.4300 C   0  0  0  0  0  3  0  0  0  0  0  0
  -25.1270  -28.9050   19.8900 C   0  0  0  0  0  0  0  0  0  0  0  0
  -26.2180  -30.6940   21.2440 C   0  0  0  0  0  2  0  0  0  0  0  0
  -26.2990  -29.3680   20.5010 C   0  0  0  0  0  0  0  0  0  0  0  0
  -27.4950  -28.5980   20.4250 C   0  0  0  0  0  3  0  0  0  0  0  0
  -26.3080  -26.9240   19.1330 C   0  0  0  0  0  3  0  0  0  0  0  0
  -25.1340  -27.6900   19.1960 C   0  0  0  0  0  3  0  0  0  0  0  0
  -23.8840  -29.7580   20.0060 C   0  0  0  0  0  2  0  0  0  0  0  0
  -24.9470  -30.9040   21.9920 N   0  0  0  0  0  0  0  0  0  0  0  0
  -23.8120  -31.8710   23.7030 O   0  0  0  0  0  0  0  0  0  0  0  0
  -23.0420  -29.2490   22.3290 C   0  0  0  0  0  0  0  0  0  0  0  0
  -21.7170  -29.0640   22.2010 N   0  0  0  0  0  0  0  0  0  0  0  0
  -23.7350  -28.5810   23.1000 O   0  0  0  0  0  0  0  0  0  0  0  0
  -21.2180  -29.6560   21.5520 H   0  0  0  0  0  0  0  0  0  0  0  0
  -18.3530  -27.8140   22.6610 C   0  0  0  0  0  0  0  0  0  0  0  0
  -20.9120  -28.0760   22.9220 C   0  0  0  0  0  3  0  0  0  0  0  0
  -21.0180  -26.6810   22.2630 C   0  0  0  0  0  2  0  0  0  0  0  0
  -19.9110  -26.4110   21.2400 C   0  0  0  0  0  2  0  0  0  0  0  0
  -18.5330  -26.5090   21.9000 C   0  0  0  0  0  2  0  0  0  0  0  0
  -19.4700  -28.5570   23.1250 C   0  0  0  0  0  0  0  0  0  0  0  0
  -19.2490  -29.7800   23.7950 C   0  0  0  0  0  3  0  0  0  0  0  0
  -17.9420  -30.2610   24.0020 C   0  0  0  0  0  3  0  0  0  0  0  0
  -16.8390  -29.5140   23.5540 C   0  0  0  0  0  3  0  0  0  0  0  0
  -17.0450  -28.2910   22.8900 C   0  0  0  0  0  3  0  0  0  0  0  0
  -26.1750  -32.2440   23.7840 C   0  0  0  0  0  3  0  0  0  0  0  0
  -26.6940  -31.4170   25.0250 C   0  0  1  0  0  0  0  0  0  0  0  0
  -25.5920  -31.0850   26.0560 C   0  0  0  0  0  1  0  0  0  0  0  0
  -27.3270  -30.0810   24.5700 C   0  0  0  0  0  1  0  0  0  0  0  0
  -27.8090  -32.2090   25.7490 C   0  0  0  0  0  1  0  0  0  0  0  0
  -25.8680  -33.6250   24.1770 N   0  0  0  0  0  0  0  0  0  0  0  0
  -26.1870  -34.7110   23.4580 C   0  0  0  0  0  0  0  0  0  0  0  0
  -26.8440  -34.6520   22.4150 O   0  0  0  0  0  0  0  0  0  0  0  0
  -25.2890  -33.7460   24.9940 H   0  0  0  0  0  0  0  0  0  0  0  0
  -24.4420  -36.5050   23.2080 C   0  0  0  0  0  1  0  0  0  0  0  0
  -25.7000  -36.0760   23.9810 C   0  0  0  0  0  3  0  0  0  0  0  0
  -27.8400  -36.9420   24.8140 C   0  0  0  0  0  1  0  0  0  0  0  0
  -26.7240  -37.1400   23.8930 N   0  0  0  0  0  0  0  0  0  0  0  0
  -26.3150  -38.0510   24.0810 H   0  0  0  0  0  0  0  0  0  0  0  0
  1  8  2  0
  2  6  1  0
  3  5  1  0
  4  2  1  0
  4  7  1  0
  6 17  1  0
  6  3  1  0
  7  1  1  0
  7  5  1  0
  9 18  1  0
 10 15  1  0
 11 12  1  0
 11 10  1  0
 13 12  1  0
 13 23  1  0
 13 14  1  0
 15  9  1  0
 15 14  1  0
 16  9  2  0
 17 19  2  0
 18 17  1  0
 18 50  1  0
 20 21  2  0
 21 40  1  0
 22 25  1  0
 22 21  1  0
 23 24  1  0
 23 20  1  0
 24 22  2  0
 25 26  1  0
 26 27  2  0
 28 31  1  0
 28 27  1  0
 29 28  2  0
 30 29  1  0
 30 25  2  0
 31 32  1  0
 32 37  2  0
 32 33  1  0
 33 34  2  0
 34 35  1  0
 35 39  1  0
 36 35  2  0
 37 36  1  0
 38 37  1  0
 40 41  1  0
 41 43  1  0
 41 44  1  0
 42 40  2  0
 45 20  1  0
 45 46  1  0
 47 45  1  0
 49 50  1  0
 50 48  1  0
 51  1  1  0
 52 51  1  0
 52 53  1  0
 53 55  1  0
 54 65  2  0
 55 60  1  0
 56 64  1  0
 56 66  1  0
 57 63  1  0
 57 59  1  0
 58 64  1  0
 59 58  1  0
 60 59  2  0
 61 62  1  0
 61 55  2  0
 62 57  2  0
 63 56  1  0
 64 54  1  0
 66 68  2  0
 67 66  1  0
 69 67  1  0
 70 79  2  0
 70 75  1  0
 71 67  1  0
 71 75  1  0
 72 71  1  0
 73 74  1  0
 73 72  1  0
 74 70  1  0
 75 76  2  0
 76 77  1  0
 78 77  2  0
 79 78  1  0
 80 54  1  0
 80 85  1  0
 80 81  1  0
 81 84  1  1
 81 82  1  0
 83 81  1  0
 85 88  1  0
 86 90  1  0
 86 85  1  0
 87 86  2  0
 90 89  1  0
 92 90  1  0
 92 93  1  0
 92 91  1  0
M  ISO  4   9 100  18 100  52 101  53 101
M  END
>  <TORSDO>  (63) 
F 19

>  <SCORE>  (63) 
-10.401

>  <name>  (63) 
62

>  <ligand_id>  (63) 
62

>  <original_smiles>  (63) 
[H]c1c([H])c([H])c2c(c1[H])C([H])([H])C([H])([H])C([H])([H])C2([H])N([H])C(=O)C1([H])N(C(=O)C([H])(N([H])C(=O)C([H])(N([H])C([H])([H])[H])C([H])([H])[H])C(C([H])([H])[H])(C([H])([H])[H])C([H])([H])[H])C([H])([H])c2c([H])c(OC([H])([H])C([H])([H])C(=O)N3C([H])([H])C([H])([H])C([H])(C(=O)N(C(=O)N4C([H])([H])C([H])([H])C([H])([H])C([H])(n5nc(-c6c([H])c([H])c(Oc7c([H])c([H])c(F)c([H])c7F)c([H])c6[H])c(C(=O)N([H])[H])c5N([H])[H])C4([H])[H])C([H])(C([H])([H])[H])C([H])([H])[H])C([H])([H])C3([H])[H])c([H])c([H])c2C1([H])[H]

>  <smiles>  (63) 
[H]c1c([H])c([H])c2c(c1[H])C([H])([H])C([H])([H])C([H])([H])C2([H])N([H])C(=O)C1([H])N(C(=O)C([H])(N([H])C(=O)C([H])(N([H])C([H])([H])[H])C([H])([H])[H])C(C([H])([H])[H])(C([H])([H])[H])C([H])([H])[H])C([H])([H])c2c([H])c(OC([H])([H])C([H])([H])C(=O)N3C([H])([H])C([H])([H])C([H])(C(=O)N(C(=O)N4C([H])([H])C([H])([H])C([H])([H])C([H])(n5nc(-c6c([H])c([H])c(Oc7c([H])c([H])c(F)c([H])c7F)c([H])c6[H])c(C(=O)N([H])[H])c5N([H])[H])C4([H])[H])C([H])(C([H])([H])[H])C([H])([H])[H])C([H])([H])C3([H])[H])c([H])c([H])c2C1([H])[H]

$$$$
63:0:0
     RDKit          3D

 92100  0  0  1  0  0  0  0  0999 V2000
  -29.7140  -21.6610   20.9560 C   0  0  0  0  0  0  0  0  0  0  0  0
  -31.1270  -21.9240   20.4500 C   0  0  0  0  0  1  0  0  0  0  0  0
  -29.2380  -20.4970   21.2490 N   0  0  0  0  0  0  0  0  0  0  0  0
  -31.1270  -19.2700   22.2300 C   0  0  0  0  0  3  0  0  0  0  0  0
  -31.7650  -18.0520   22.5330 C   0  0  0  0  0  3  0  0  0  0  0  0
  -29.5080  -18.0660   20.8690 C   0  0  0  0  0  3  0  0  0  0  0  0
  -29.9840  -19.3020   21.3970 C   0  0  0  0  0  0  0  0  0  0  0  0
  -30.1700  -16.8290   21.1380 C   0  0  0  0  0  0  0  0  0  0  0  0
  -31.2900  -16.8390   22.0020 C   0  0  0  0  0  0  0  0  0  0  0  0
  -31.8810  -15.6820   22.3880 F   0  0  0  0  0  0  0  0  0  0  0  0
  -30.3140  -14.5980   19.9960 C   0  0  0  0  0  0  0  0  0  0  0  0
  -29.9250  -12.5130   18.7120 C   0  0  0  0  0  2  0  0  0  0  0  0
  -28.8730  -12.7580   17.6120 C   0  0  0  0  0  2  0  0  0  0  0  0
  -27.4500  -12.5650   18.1700 C   0  0  0  0  0  2  0  0  0  0  0  0
  -27.2200  -13.3220   19.5060 C   0  0  0  0  0  3  0  0  0  0  0  0
  -28.3750  -13.0660   20.4990 C   0  0  0  0  0  2  0  0  0  0  0  0
  -29.6320  -13.4310   19.8270 N   0  0  0  0  0  0  0  0  0  0  0  0
  -31.3920  -14.8150   19.4350 O   0  0  0  0  0  0  0  0  0  0  0  0
  -29.6450  -15.5820   20.6470 N   0  0  0  0  0  0  0  0  0  0  0  0
  -28.6790  -15.3940   20.8630 H   0  0  0  0  0  0  0  0  0  0  0  0
  -24.8820  -13.8510   20.4370 C   0  0  0  0  0  0  0  0  0  0  0  0
  -23.8690  -13.0460   20.8800 C   0  0  0  0  0  0  0  0  0  0  0  0
  -24.3570  -11.7070   20.7780 C   0  0  0  0  0  0  0  0  0  0  0  0
  -25.9220  -13.0020   20.0930 N   0  0  0  0  0  0  0  0  0  0  0  0
  -25.6150  -11.7070   20.3580 N   0  0  0  0  0  0  0  0  0  0  0  0
  -23.6800  -10.4230   21.0020 C   0  0  0  0  0  0  0  0  0  0  0  0
  -24.1940   -9.4680   21.9070 C   0  0  0  0  0  3  0  0  0  0  0  0
  -23.5190   -8.2470   22.1200 C   0  0  0  0  0  3  0  0  0  0  0  0
  -22.3150   -7.9710   21.4280 C   0  0  0  0  0  0  0  0  0  0  0  0
  -21.8180   -8.9170   20.5140 C   0  0  0  0  0  3  0  0  0  0  0  0
  -22.4940  -10.1290   20.2990 C   0  0  0  0  0  3  0  0  0  0  0  0
  -21.6080   -6.7990   21.5490 O   0  0  0  0  0  0  0  0  0  0  0  0
  -21.6280   -6.0630   22.7070 C   0  0  0  0  0  0  0  0  0  0  0  0
  -21.2340   -6.6110   23.9460 C   0  0  0  0  0  3  0  0  0  0  0  0
  -21.2020   -5.7980   25.0970 C   0  0  0  0  0  3  0  0  0  0  0  0
  -21.5580   -4.4390   25.0100 C   0  0  0  0  0  0  0  0  0  0  0  0
  -21.9480   -3.8900   23.7760 C   0  0  0  0  0  3  0  0  0  0  0  0
  -21.9800   -4.6990   22.6270 C   0  0  0  0  0  0  0  0  0  0  0  0
  -22.3340   -4.1620   21.4350 F   0  0  0  0  0  0  0  0  0  0  0  0
  -21.5220   -3.6550   26.1140 F   0  0  0  0  0  0  0  0  0  0  0  0
  -22.4880  -13.4810   21.2850 C   0  0  0  0  0  0  0  0  0  0  0  0
  -21.8610  -12.7580   22.2050 N   0  0  0  0  0  0  0  0  0  0  0  0
  -21.9750  -14.4960   20.8150 O   0  0  0  0  0  0  0  0  0  0  0  0
  -22.2920  -11.9390   22.6090 H   0  0  0  0  0  0  0  0  0  0  0  0
  -20.9370  -13.0280   22.5100 H   0  0  0  0  0  0  0  0  0  0  0  0
  -24.9980  -15.2290   20.2760 N   0  0  0  0  0  0  0  0  0  0  0  0
  -24.2300  -15.8620   20.4730 H   0  0  0  0  0  0  0  0  0  0  0  0
  -25.7990  -15.6930   19.8640 H   0  0  0  0  0  0  0  0  0  0  0  0
  -28.8150  -22.9070   21.1590 C   0  0  0  0  0  2  0  0  0  0  0  0
  -29.2310  -24.3030   20.5710 C   0  0  0  0  0  2  0  0  0  0  0  0
  -28.1030  -25.3630   20.7720 C   0  0  0  0  0  2  0  0  0  0  0  0
  -28.3090  -26.6870   20.2100 O   0  0  0  0  0  0  0  0  0  0  0  0
  -24.5510  -31.9540   23.2540 C   0  0  0  0  0  0  0  0  0  0  0  0
  -27.1710  -27.4810   20.1770 C   0  0  0  0  0  0  0  0  0  0  0  0
  -23.3370  -30.5630   21.6100 C   0  0  0  0  0  3  0  0  0  0  0  0
  -24.7880  -29.0220   20.1840 C   0  0  0  0  0  0  0  0  0  0  0  0
  -25.8660  -30.9090   21.4100 C   0  0  0  0  0  2  0  0  0  0  0  0
  -25.9520  -29.5370   20.7680 C   0  0  0  0  0  0  0  0  0  0  0  0
  -27.1490  -28.7740   20.7600 C   0  0  0  0  0  3  0  0  0  0  0  0
  -25.9900  -27.0040   19.5610 C   0  0  0  0  0  3  0  0  0  0  0  0
  -24.8030  -27.7570   19.5780 C   0  0  0  0  0  3  0  0  0  0  0  0
  -23.5480  -29.8860   20.2310 C   0  0  0  0  0  2  0  0  0  0  0  0
  -24.6020  -31.1570   22.1510 N   0  0  0  0  0  0  0  0  0  0  0  0
  -23.4720  -32.2280   23.7980 O   0  0  0  0  0  0  0  0  0  0  0  0
  -22.6820  -29.5410   22.5700 C   0  0  0  0  0  0  0  0  0  0  0  0
  -21.3560  -29.3640   22.4440 N   0  0  0  0  0  0  0  0  0  0  0  0
  -23.3640  -28.9100   23.3810 O   0  0  0  0  0  0  0  0  0  0  0  0
  -20.8640  -29.9250   21.7620 H   0  0  0  0  0  0  0  0  0  0  0  0
  -17.9790  -28.1870   22.9530 C   0  0  0  0  0  0  0  0  0  0  0  0
  -20.5380  -28.4290   23.2170 C   0  0  0  0  0  3  0  0  0  0  0  0
  -20.6310  -26.9980   22.6390 C   0  0  0  0  0  2  0  0  0  0  0  0
  -19.5250  -26.6860   21.6260 C   0  0  0  0  0  2  0  0  0  0  0  0
  -18.1460  -26.8370   22.2750 C   0  0  0  0  0  2  0  0  0  0  0  0
  -19.1030  -28.9400   23.3830 C   0  0  0  0  0  0  0  0  0  0  0  0
  -18.8930  -30.2030   23.9760 C   0  0  0  0  0  3  0  0  0  0  0  0
  -17.5910  -30.7110   24.1480 C   0  0  0  0  0  3  0  0  0  0  0  0
  -16.4820  -29.9550   23.7330 C   0  0  0  0  0  3  0  0  0  0  0  0
  -16.6770  -28.6950   23.1410 C   0  0  0  0  0  3  0  0  0  0  0  0
  -25.8410  -32.5790   23.8730 C   0  0  0  0  0  3  0  0  0  0  0  0
  -26.3580  -31.8050   25.1450 C   0  0  1  0  0  0  0  0  0  0  0  0
  -25.2660  -31.5730   26.2150 C   0  0  0  0  0  1  0  0  0  0  0  0
  -26.9320  -30.4250   24.7480 C   0  0  0  0  0  1  0  0  0  0  0  0
  -27.5130  -32.5950   25.8070 C   0  0  0  0  0  1  0  0  0  0  0  0
  -25.5390  -33.9770   24.1990 N   0  0  0  0  0  0  0  0  0  0  0  0
  -25.8840  -35.0260   23.4410 C   0  0  0  0  0  0  0  0  0  0  0  0
  -26.5600  -34.9180   22.4140 O   0  0  0  0  0  0  0  0  0  0  0  0
  -24.9360  -34.1390   24.9930 H   0  0  0  0  0  0  0  0  0  0  0  0
  -24.1750  -36.8340   23.0740 C   0  0  0  0  0  1  0  0  0  0  0  0
  -25.4050  -36.4170   23.8950 C   0  0  0  0  0  3  0  0  0  0  0  0
  -27.5380  -37.2850   24.7450 C   0  0  0  0  0  1  0  0  0  0  0  0
  -26.4460  -37.4620   23.7920 N   0  0  0  0  0  0  0  0  0  0  0  0
  -26.0460  -38.3840   23.9410 H   0  0  0  0  0  0  0  0  0  0  0  0
  1 49  1  0
  1  3  2  0
  2  1  1  0
  3  7  1  0
  4  5  1  0
  6  8  2  0
  6  7  1  0
  7  4  2  0
  8  9  1  0
  9 10  1  0
  9  5  2  0
 11 19  1  0
 12 17  1  0
 13 14  1  0
 13 12  1  0
 15 14  1  0
 15 24  1  0
 15 16  1  0
 17 11  1  0
 17 16  1  0
 18 11  2  0
 19 20  1  0
 19  8  1  0
 21 22  2  0
 22 41  1  0
 23 22  1  0
 23 26  1  0
 24 25  1  0
 24 21  1  0
 25 23  2  0
 26 27  1  0
 27 28  2  0
 29 32  1  0
 29 28  1  0
 30 29  2  0
 31 30  1  0
 31 26  2  0
 32 33  1  0
 33 34  1  0
 34 35  2  0
 36 35  1  0
 36 40  1  0
 37 36  2  0
 38 33  2  0
 38 37  1  0
 39 38  1  0
 41 42  1  0
 42 45  1  0
 42 44  1  0
 43 41  2  0
 46 21  1  0
 46 47  1  0
 48 46  1  0
 50 51  1  0
 50 49  1  0
 52 51  1  0
 53 64  2  0
 54 52  1  0
 54 59  1  0
 55 63  1  0
 55 65  1  0
 56 62  1  0
 56 58  1  0
 57 63  1  0
 58 57  1  0
 59 58  2  0
 60 61  1  0
 60 54  2  0
 61 56  2  0
 62 55  1  0
 63 53  1  0
 65 67  2  0
 66 65  1  0
 68 66  1  0
 69 78  2  0
 69 74  1  0
 70 66  1  0
 70 74  1  0
 71 70  1  0
 72 73  1  0
 72 71  1  0
 73 69  1  0
 74 75  2  0
 75 76  1  0
 77 76  2  0
 78 77  1  0
 79 53  1  0
 79 84  1  0
 79 80  1  0
 80 83  1  1
 80 81  1  0
 82 80  1  0
 84 87  1  0
 85 89  1  0
 85 84  1  0
 86 85  2  0
 89 88  1  0
 91 89  1  0
 91 92  1  0
 91 90  1  0
M  ISO  4  11 100  19 100  51 101  52 101
M  END
>  <TORSDO>  (64) 
F 20

>  <SCORE>  (64) 
-12.010

>  <name>  (64) 
63

>  <ligand_id>  (64) 
63

>  <original_smiles>  (64) 
[H]c1c([H])c([H])c2c(c1[H])C([H])([H])C([H])([H])C([H])([H])C2([H])N([H])C(=O)C1([H])N(C(=O)C([H])(N([H])C(=O)C([H])(N([H])C([H])([H])[H])C([H])([H])[H])C(C([H])([H])[H])(C([H])([H])[H])C([H])([H])[H])C([H])([H])c2c([H])c(OC([H])([H])C([H])([H])C([H])([H])C(=Nc3c([H])c([H])c(F)c(N([H])C(=O)N4C([H])([H])C([H])([H])C([H])([H])C([H])(n5nc(-c6c([H])c([H])c(Oc7c([H])c([H])c(F)c([H])c7F)c([H])c6[H])c(C(=O)N([H])[H])c5N([H])[H])C4([H])[H])c3[H])C([H])([H])[H])c([H])c([H])c2C1([H])[H]

>  <smiles>  (64) 
[H]c1c([H])c([H])c2c(c1[H])C([H])([H])C([H])([H])C([H])([H])C2([H])N([H])C(=O)C1([H])N(C(=O)C([H])(N([H])C(=O)C([H])(N([H])C([H])([H])[H])C([H])([H])[H])C(C([H])([H])[H])(C([H])([H])[H])C([H])([H])[H])C([H])([H])c2c([H])c(OC([H])([H])C([H])([H])C([H])([H])C(=Nc3c([H])c([H])c(F)c(N([H])C(=O)N4C([H])([H])C([H])([H])C([H])([H])C([H])(n5nc(-c6c([H])c([H])c(Oc7c([H])c([H])c(F)c([H])c7F)c([H])c6[H])c(C(=O)N([H])[H])c5N([H])[H])C4([H])[H])c3[H])C([H])([H])[H])c([H])c([H])c2C1([H])[H]

$$$$
64:0:0
     RDKit          3D

101109  0  0  1  0  0  0  0  0999 V2000
  -26.8210  -19.3910   17.3200 C   0  0  0  0  0  1  0  0  0  0  0  0
  -27.4770  -19.6670   18.6000 N   0  0  0  0  0  0  0  0  0  0  0  0
  -31.1160  -17.9980   19.9240 C   0  0  0  0  0  3  0  0  0  0  0  0
  -29.8040  -19.9100   19.1960 C   0  0  0  0  0  3  0  0  0  0  0  0
  -31.0290  -19.3930   19.6780 C   0  0  0  0  0  0  0  0  0  0  0  0
  -28.9370  -17.6670   18.8630 C   0  0  0  0  0  0  0  0  0  0  0  0
  -30.0680  -17.1330   19.5430 C   0  0  0  0  0  0  0  0  0  0  0  0
  -28.7360  -19.0720   18.8360 C   0  0  0  0  0  0  0  0  0  0  0  0
  -27.9510  -16.7500   18.1430 C   0  0  0  0  0  1  0  0  0  0  0  0
  -30.9550  -14.8490   20.2670 C   0  0  0  0  0  0  0  0  0  0  0  0
  -30.7970  -12.5600   19.4380 C   0  0  0  0  0  2  0  0  0  0  0  0
  -29.8790  -12.6700   18.2010 C   0  0  0  0  0  2  0  0  0  0  0  0
  -28.3940  -12.5270   18.6020 C   0  0  0  0  0  2  0  0  0  0  0  0
  -28.0050  -13.4350   19.8020 C   0  0  0  0  0  3  0  0  0  0  0  0
  -29.0560  -13.3630   20.9380 C   0  0  0  0  0  2  0  0  0  0  0  0
  -30.3890  -13.6210   20.3620 N   0  0  0  0  0  0  0  0  0  0  0  0
  -32.1640  -15.0430   20.1140 O   0  0  0  0  0  0  0  0  0  0  0  0
  -30.0200  -15.7690   19.9530 N   0  0  0  0  0  0  0  0  0  0  0  0
  -29.1020  -15.3600   19.8910 H   0  0  0  0  0  0  0  0  0  0  0  0
  -25.6250  -14.1070   20.5100 C   0  0  0  0  0  0  0  0  0  0  0  0
  -24.5300  -13.3560   20.8310 C   0  0  0  0  0  0  0  0  0  0  0  0
  -24.9660  -11.9960   20.7940 C   0  0  0  0  0  0  0  0  0  0  0  0
  -26.6500  -13.1990   20.2740 N   0  0  0  0  0  0  0  0  0  0  0  0
  -26.2590  -11.9270   20.5100 N   0  0  0  0  0  0  0  0  0  0  0  0
  -24.2180  -10.7490   20.9600 C   0  0  0  0  0  0  0  0  0  0  0  0
  -24.6380   -9.7580   21.8750 C   0  0  0  0  0  3  0  0  0  0  0  0
  -23.8920   -8.5720   22.0330 C   0  0  0  0  0  3  0  0  0  0  0  0
  -22.7160   -8.3710   21.2740 C   0  0  0  0  0  0  0  0  0  0  0  0
  -22.3150   -9.3510   20.3510 C   0  0  0  0  0  3  0  0  0  0  0  0
  -23.0620  -10.5280   20.1890 C   0  0  0  0  0  3  0  0  0  0  0  0
  -21.9440   -7.2350   21.3390 O   0  0  0  0  0  0  0  0  0  0  0  0
  -21.8950   -6.4670   22.4690 C   0  0  0  0  0  0  0  0  0  0  0  0
  -21.5130   -7.0000   23.7210 C   0  0  0  0  0  3  0  0  0  0  0  0
  -21.4050   -6.1540   24.8430 C   0  0  0  0  0  3  0  0  0  0  0  0
  -21.6700   -4.7780   24.7170 C   0  0  0  0  0  0  0  0  0  0  0  0
  -22.0510   -4.2450   23.4720 C   0  0  0  0  0  3  0  0  0  0  0  0
  -22.1600   -5.0870   22.3520 C   0  0  0  0  0  0  0  0  0  0  0  0
  -22.5060   -4.5630   21.1510 F   0  0  0  0  0  0  0  0  0  0  0  0
  -21.5580   -3.9650   25.7930 F   0  0  0  0  0  0  0  0  0  0  0  0
  -23.1380  -13.8620   21.0810 C   0  0  0  0  0  0  0  0  0  0  0  0
  -22.3780  -13.1830   21.9330 N   0  0  0  0  0  0  0  0  0  0  0  0
  -22.7330  -14.9050   20.5640 O   0  0  0  0  0  0  0  0  0  0  0  0
  -22.7030  -12.3320   22.3740 H   0  0  0  0  0  0  0  0  0  0  0  0
  -21.4510  -13.5210   22.1520 H   0  0  0  0  0  0  0  0  0  0  0  0
  -25.8200  -15.4800   20.3910 N   0  0  0  0  0  0  0  0  0  0  0  0
  -25.0700  -16.1380   20.5700 H   0  0  0  0  0  0  0  0  0  0  0  0
  -26.7040  -15.9370   20.2180 H   0  0  0  0  0  0  0  0  0  0  0  0
  -33.5620  -19.6780   19.8720 C   0  0  0  0  0  1  0  0  0  0  0  0
  -31.9850  -20.7270   21.5320 C   0  0  0  0  0  1  0  0  0  0  0  0
  -32.1610  -21.6260   19.1960 C   0  0  0  0  0  1  0  0  0  0  0  0
  -32.1770  -20.3430   20.0590 C   0  0  2  0  0  0  0  0  0  0  0  0
  -26.6390  -19.6790   19.8140 C   0  0  0  0  0  2  0  0  0  0  0  0
  -26.9460  -20.8530   20.7750 C   0  0  0  0  0  2  0  0  0  0  0  0
  -26.2470  -22.1590   20.3670 C   0  0  0  0  0  2  0  0  0  0  0  0
  -27.9620  -23.8960   20.0000 C   0  0  0  0  0  0  0  0  0  0  0  0
  -26.6480  -23.8740   22.1130 C   0  0  0  0  0  1  0  0  0  0  0  0
  -27.0060  -23.3460   20.7940 N   0  0  0  0  0  0  0  0  0  0  0  0
  -28.3260  -23.3610   18.9510 O   0  0  0  0  0  0  0  0  0  0  0  0
  -28.5960  -25.2440   20.3890 C   0  0  0  0  0  2  0  0  0  0  0  0
  -28.9380  -26.1190   19.1550 C   0  0  0  0  0  2  0  0  0  0  0  0
  -28.8140  -27.5000   19.4640 O   0  0  0  0  0  0  0  0  0  0  0  0
  -24.7610  -31.9100   23.2130 C   0  0  0  0  0  0  0  0  0  0  0  0
  -27.5580  -28.0610   19.5720 C   0  0  0  0  0  0  0  0  0  0  0  0
  -23.5670  -30.6340   21.4580 C   0  0  0  0  0  3  0  0  0  0  0  0
  -25.0580  -29.3690   19.8210 C   0  0  0  0  0  0  0  0  0  0  0  0
  -26.0550  -31.1860   21.2200 C   0  0  0  0  0  2  0  0  0  0  0  0
  -26.1970  -29.8980   20.4390 C   0  0  0  0  0  0  0  0  0  0  0  0
  -27.4410  -29.2450   20.3260 C   0  0  0  0  0  3  0  0  0  0  0  0
  -26.3980  -27.5280   18.9620 C   0  0  0  0  0  3  0  0  0  0  0  0
  -25.1520  -28.1710   19.0920 C   0  0  0  0  0  3  0  0  0  0  0  0
  -23.7660  -30.1400   19.9980 C   0  0  0  0  0  2  0  0  0  0  0  0
  -24.8130  -31.2490   22.0250 N   0  0  0  0  0  0  0  0  0  0  0  0
  -23.6910  -32.0400   23.8200 O   0  0  0  0  0  0  0  0  0  0  0  0
  -23.0260  -29.4630   22.3040 C   0  0  0  0  0  0  0  0  0  0  0  0
  -21.7140  -29.1860   22.1790 N   0  0  0  0  0  0  0  0  0  0  0  0
  -23.7790  -28.8110   23.0270 O   0  0  0  0  0  0  0  0  0  0  0  0
  -21.1590  -29.7670   21.5680 H   0  0  0  0  0  0  0  0  0  0  0  0
  -18.4610  -27.6840   22.5520 C   0  0  0  0  0  0  0  0  0  0  0  0
  -20.9870  -28.1140   22.8610 C   0  0  0  0  0  3  0  0  0  0  0  0
  -21.2000  -26.7470   22.1640 C   0  0  0  0  0  2  0  0  0  0  0  0
  -20.1280  -26.4430   21.1040 C   0  0  0  0  0  2  0  0  0  0  0  0
  -18.7400  -26.4240   21.7550 C   0  0  0  0  0  2  0  0  0  0  0  0
  -19.5140  -28.4870   23.0600 C   0  0  0  0  0  0  0  0  0  0  0  0
  -19.1920  -29.6680   23.7630 C   0  0  0  0  0  3  0  0  0  0  0  0
  -17.8480  -30.0510   23.9560 C   0  0  0  0  0  3  0  0  0  0  0  0
  -16.8090  -29.2340   23.4770 C   0  0  0  0  0  3  0  0  0  0  0  0
  -17.1170  -28.0500   22.7820 C   0  0  0  0  0  3  0  0  0  0  0  0
  -26.0330  -32.5460   23.8550 C   0  0  0  0  0  3  0  0  0  0  0  0
  -25.6560  -33.8740   24.3520 N   0  0  0  0  0  0  0  0  0  0  0  0
  -25.9150  -35.0240   23.7160 C   0  0  0  0  0  0  0  0  0  0  0  0
  -26.5680  -35.0820   22.6700 O   0  0  0  0  0  0  0  0  0  0  0  0
  -25.0780  -33.9020   25.1780 H   0  0  0  0  0  0  0  0  0  0  0  0
  -24.0880  -36.7450   23.6010 C   0  0  0  0  0  1  0  0  0  0  0  0
  -25.3640  -36.3210   24.3420 C   0  0  0  0  0  3  0  0  0  0  0  0
  -27.4730  -37.2210   25.2250 C   0  0  0  0  0  1  0  0  0  0  0  0
  -26.3360  -37.4390   24.3350 N   0  0  0  0  0  0  0  0  0  0  0  0
  -25.8820  -38.3110   24.6050 H   0  0  0  0  0  0  0  0  0  0  0  0
  -26.6430  -31.6660   25.0130 C   0  0  1  0  0  0  0  0  0  0  0  0
  -25.6140  -31.2610   26.0930 C   0  0  0  0  0  1  0  0  0  0  0  0
  -27.2750  -30.3760   24.4380 C   0  0  0  0  0  1  0  0  0  0  0  0
  -27.7780  -32.4410   25.7210 C   0  0  0  0  0  1  0  0  0  0  0  0
  1  2  1  0
  2  8  1  0
  2 52  1  0
  4  5  2  0
  5  3  1  0
  5 51  1  0
  6  7  1  0
  7  3  2  0
  7 18  1  0
  8  6  2  0
  8  4  1  0
  9  6  1  0
 10 16  1  0
 11 16  1  0
 12 13  1  0
 12 11  1  0
 14 13  1  0
 14 23  1  0
 14 15  1  0
 16 15  1  0
 17 10  2  0
 18 10  1  0
 19 18  1  0
 20 21  2  0
 21 40  1  0
 22 21  1  0
 22 25  1  0
 23 24  1  0
 23 20  1  0
 24 22  2  0
 25 26  1  0
 26 27  2  0
 28 31  1  0
 28 27  1  0
 29 28  2  0
 30 29  1  0
 30 25  2  0
 31 32  1  0
 32 33  1  0
 33 34  2  0
 35 34  1  0
 35 39  1  0
 36 35  2  0
 37 32  2  0
 37 36  1  0
 38 37  1  0
 40 41  1  0
 41 44  1  0
 41 43  1  0
 42 40  2  0
 45 20  1  0
 45 46  1  0
 47 45  1  0
 51 48  1  1
 50 51  1  0
 51 49  1  0
 52 53  1  0
 54 53  1  0
 54 57  1  0
 55 59  1  0
 55 57  1  0
 57 56  1  0
 58 55  2  0
 60 61  1  0
 60 59  1  0
 61 63  1  0
 62 73  2  0
 63 68  1  0
 64 72  1  0
 64 74  1  0
 65 71  1  0
 65 67  1  0
 66 72  1  0
 67 66  1  0
 68 67  2  0
 69 70  1  0
 69 63  2  0
 70 65  2  0
 71 64  1  0
 72 62  1  0
 74 76  2  0
 75 74  1  0
 77 75  1  0
 78 87  2  0
 78 83  1  0
 79 75  1  0
 79 83  1  0
 80 79  1  0
 81 82  1  0
 81 80  1  0
 82 78  1  0
 83 84  2  0
 84 85  1  0
 86 85  2  0
 87 86  1  0
 88 62  1  0
 88 89  1  0
 88 98  1  0
 89 92  1  0
 90 94  1  0
 90 89  1  0
 91 90  2  0
 94 93  1  0
 96 94  1  0
 96 97  1  0
 96 95  1  0
 98101  1  1
 98 99  1  0
100 98  1  0
M  ISO  4  10 100  18 100  60 101  61 101
M  END
>  <TORSDO>  (65) 
F 24

>  <SCORE>  (65) 
-8.181

>  <name>  (65) 
64

>  <ligand_id>  (65) 
64

>  <original_smiles>  (65) 
[H]c1c([H])c([H])c2c(c1[H])C([H])([H])C([H])([H])C([H])([H])C2([H])N([H])C(=O)C1([H])N(C(=O)C([H])(N([H])C(=O)C([H])(N([H])C([H])([H])[H])C([H])([H])[H])C(C([H])([H])[H])(C([H])([H])[H])C([H])([H])[H])C([H])([H])c2c([H])c(OC([H])([H])C([H])([H])C(=O)N(C([H])([H])[H])C([H])([H])C([H])([H])C([H])([H])N(c3c([H])c(C(C([H])([H])[H])(C([H])([H])[H])C([H])([H])[H])c([H])c(N([H])C(=O)N4C([H])([H])C([H])([H])C([H])([H])C([H])(n5nc(-c6c([H])c([H])c(Oc7c([H])c([H])c(F)c([H])c7F)c([H])c6[H])c(C(=O)N([H])[H])c5N([H])[H])C4([H])[H])c3C([H])([H])[H])C([H])([H])[H])c([H])c([H])c2C1([H])[H]

>  <smiles>  (65) 
[H]c1c([H])c([H])c2c(c1[H])C([H])([H])C([H])([H])C([H])([H])C2([H])N([H])C(=O)C1([H])N(C(=O)C([H])(N([H])C(=O)C([H])(N([H])C([H])([H])[H])C([H])([H])[H])C(C([H])([H])[H])(C([H])([H])[H])C([H])([H])[H])C([H])([H])c2c([H])c(OC([H])([H])C([H])([H])C(=O)N(C([H])([H])[H])C([H])([H])C([H])([H])C([H])([H])N(c3c([H])c(C(C([H])([H])[H])(C([H])([H])[H])C([H])([H])[H])c([H])c(N([H])C(=O)N4C([H])([H])C([H])([H])C([H])([H])C([H])(n5nc(-c6c([H])c([H])c(Oc7c([H])c([H])c(F)c([H])c7F)c([H])c6[H])c(C(=O)N([H])[H])c5N([H])[H])C4([H])[H])c3C([H])([H])[H])C([H])([H])[H])c([H])c([H])c2C1([H])[H]

$$$$
65:0:0
     RDKit          3D

 91 99  0  0  1  0  0  0  0  0999 V2000
  -29.1430  -23.4200   20.0260 C   0  0  0  0  0  0  0  0  0  0  0  0
  -28.7080  -22.0890   19.8110 N   0  0  0  0  0  0  0  0  0  0  0  0
  -30.2410  -23.6400   20.5460 O   0  0  0  0  0  0  0  0  0  0  0  0
  -27.7670  -22.1200   19.4410 H   0  0  0  0  0  0  0  0  0  0  0  0
  -30.7810  -18.6320   20.1680 C   0  0  0  0  0  3  0  0  0  0  0  0
  -30.4890  -20.0690   20.0940 C   0  0  0  0  0  3  0  0  0  0  0  0
  -28.4720  -18.1800   20.1090 C   0  0  0  0  0  3  0  0  0  0  0  0
  -28.1720  -19.5930   20.0280 C   0  0  0  0  0  0  0  0  0  0  0  0
  -29.7750  -17.5980   20.1750 C   0  0  0  0  0  0  0  0  0  0  0  0
  -29.1610  -20.6350   20.0120 C   0  0  0  0  0  0  0  0  0  0  0  0
  -26.7020  -19.9760   19.9490 C   0  0  0  0  0  1  0  0  0  0  0  0
  -30.7210  -14.9910   19.8970 C   0  0  0  0  0  0  0  0  0  0  0  0
  -30.5690  -12.6710   18.8890 C   0  0  0  0  0  2  0  0  0  0  0  0
  -29.5390  -12.6790   17.7340 C   0  0  0  0  0  2  0  0  0  0  0  0
  -28.1090  -12.4580   18.2650 C   0  0  0  0  0  2  0  0  0  0  0  0
  -27.7960  -13.3410   19.5000 C   0  0  0  0  0  3  0  0  0  0  0  0
  -28.9310  -13.2850   20.5450 C   0  0  0  0  0  2  0  0  0  0  0  0
  -30.1670  -13.7150   19.8700 N   0  0  0  0  0  0  0  0  0  0  0  0
  -31.8820  -15.1340   19.4940 O   0  0  0  0  0  0  0  0  0  0  0  0
  -29.8690  -16.0690   20.2260 N   0  0  0  0  0  0  0  0  0  0  0  0
  -29.0000  -15.6690   20.5460 H   0  0  0  0  0  0  0  0  0  0  0  0
  -25.4830  -13.9090   20.4480 C   0  0  0  0  0  0  0  0  0  0  0  0
  -24.4410  -13.1260   20.8620 C   0  0  0  0  0  0  0  0  0  0  0  0
  -24.8840  -11.7740   20.7250 C   0  0  0  0  0  0  0  0  0  0  0  0
  -26.4930  -13.0340   20.0830 N   0  0  0  0  0  0  0  0  0  0  0  0
  -26.1460  -11.7410   20.3130 N   0  0  0  0  0  0  0  0  0  0  0  0
  -24.1580  -10.5090   20.9060 C   0  0  0  0  0  0  0  0  0  0  0  0
  -24.5550   -9.5610   21.8740 C   0  0  0  0  0  3  0  0  0  0  0  0
  -23.8270   -8.3620   22.0420 C   0  0  0  0  0  3  0  0  0  0  0  0
  -22.6910   -8.1030   21.2400 C   0  0  0  0  0  0  0  0  0  0  0  0
  -22.3140   -9.0400   20.2610 C   0  0  0  0  0  3  0  0  0  0  0  0
  -23.0420  -10.2290   20.0920 C   0  0  0  0  0  3  0  0  0  0  0  0
  -21.9420   -6.9530   21.3140 O   0  0  0  0  0  0  0  0  0  0  0  0
  -21.7050   -6.3250   22.5100 C   0  0  0  0  0  0  0  0  0  0  0  0
  -21.0450   -6.9740   23.5760 C   0  0  0  0  0  3  0  0  0  0  0  0
  -20.7600   -6.2690   24.7630 C   0  0  0  0  0  3  0  0  0  0  0  0
  -21.1240   -4.9140   24.8820 C   0  0  0  0  0  0  0  0  0  0  0  0
  -21.7760   -4.2640   23.8200 C   0  0  0  0  0  3  0  0  0  0  0  0
  -22.0620   -4.9660   22.6360 C   0  0  0  0  0  0  0  0  0  0  0  0
  -22.6710   -4.3290   21.6070 F   0  0  0  0  0  0  0  0  0  0  0  0
  -20.8440   -4.2340   26.0180 F   0  0  0  0  0  0  0  0  0  0  0  0
  -23.0730  -13.6000   21.2610 C   0  0  0  0  0  0  0  0  0  0  0  0
  -22.4120  -12.8800   22.1600 N   0  0  0  0  0  0  0  0  0  0  0  0
  -22.6020  -14.6430   20.8100 O   0  0  0  0  0  0  0  0  0  0  0  0
  -22.8070  -12.0350   22.5460 H   0  0  0  0  0  0  0  0  0  0  0  0
  -21.4990  -13.1800   22.4710 H   0  0  0  0  0  0  0  0  0  0  0  0
  -25.6490  -15.2850   20.3250 N   0  0  0  0  0  0  0  0  0  0  0  0
  -24.8910  -15.9320   20.5150 H   0  0  0  0  0  0  0  0  0  0  0  0
  -26.4340  -15.7250   19.8640 H   0  0  0  0  0  0  0  0  0  0  0  0
  -28.2030  -24.7110   19.5760 C   0  0  0  0  0  2  0  0  0  0  0  0
  -28.4740  -26.2070   19.9230 O   0  0  0  0  0  0  0  0  0  0  0  0
  -24.5850  -31.6280   23.0850 C   0  0  0  0  0  0  0  0  0  0  0  0
  -27.3870  -27.1590   19.8860 C   0  0  0  0  0  0  0  0  0  0  0  0
  -23.4600  -30.2560   21.3750 C   0  0  0  0  0  3  0  0  0  0  0  0
  -24.9870  -28.8070   19.9040 C   0  0  0  0  0  0  0  0  0  0  0  0
  -26.0040  -30.6310   21.2540 C   0  0  0  0  0  2  0  0  0  0  0  0
  -26.1410  -29.2730   20.5440 C   0  0  0  0  0  0  0  0  0  0  0  0
  -27.3420  -28.4670   20.5200 C   0  0  0  0  0  3  0  0  0  0  0  0
  -26.1980  -26.7990   19.2100 C   0  0  0  0  0  3  0  0  0  0  0  0
  -25.0270  -27.5840   19.2220 C   0  0  0  0  0  3  0  0  0  0  0  0
  -23.7230  -29.6500   19.9720 C   0  0  0  0  0  2  0  0  0  0  0  0
  -24.7010  -30.8600   21.9600 N   0  0  0  0  0  0  0  0  0  0  0  0
  -23.4830  -31.8470   23.6110 O   0  0  0  0  0  0  0  0  0  0  0  0
  -22.8140  -29.1810   22.2860 C   0  0  0  0  0  0  0  0  0  0  0  0
  -21.4930  -28.9710   22.1450 N   0  0  0  0  0  0  0  0  0  0  0  0
  -23.5030  -28.5420   23.0840 O   0  0  0  0  0  0  0  0  0  0  0  0
  -20.9910  -29.5420   21.4790 H   0  0  0  0  0  0  0  0  0  0  0  0
  -18.1410  -27.6830   22.6330 C   0  0  0  0  0  0  0  0  0  0  0  0
  -20.7010  -27.9730   22.8710 C   0  0  0  0  0  3  0  0  0  0  0  0
  -20.8140  -26.5810   22.2060 C   0  0  0  0  0  2  0  0  0  0  0  0
  -19.6990  -26.3040   21.1930 C   0  0  0  0  0  2  0  0  0  0  0  0
  -18.3280  -26.3820   21.8700 C   0  0  0  0  0  2  0  0  0  0  0  0
  -19.2550  -28.4370   23.0900 C   0  0  0  0  0  0  0  0  0  0  0  0
  -19.0250  -29.6540   23.7670 C   0  0  0  0  0  3  0  0  0  0  0  0
  -17.7140  -30.1170   23.9910 C   0  0  0  0  0  3  0  0  0  0  0  0
  -16.6160  -29.3600   23.5470 C   0  0  0  0  0  3  0  0  0  0  0  0
  -16.8310  -28.1440   22.8740 C   0  0  0  0  0  3  0  0  0  0  0  0
  -25.8300  -32.2890   23.7520 C   0  0  0  0  0  3  0  0  0  0  0  0
  -25.4770  -33.6780   24.0830 N   0  0  0  0  0  0  0  0  0  0  0  0
  -25.7750  -34.7430   23.3270 C   0  0  0  0  0  0  0  0  0  0  0  0
  -26.4440  -34.6610   22.2930 O   0  0  0  0  0  0  0  0  0  0  0  0
  -24.8810  -33.8130   24.8870 H   0  0  0  0  0  0  0  0  0  0  0  0
  -23.9780  -36.4770   23.0060 C   0  0  0  0  0  1  0  0  0  0  0  0
  -25.2500  -36.1170   23.7900 C   0  0  0  0  0  3  0  0  0  0  0  0
  -27.3620  -37.0910   24.5790 C   0  0  0  0  0  1  0  0  0  0  0  0
  -26.2440  -37.2040   23.6470 N   0  0  0  0  0  0  0  0  0  0  0  0
  -25.8060  -38.1120   23.7850 H   0  0  0  0  0  0  0  0  0  0  0  0
  -26.3190  -31.5230   25.0440 C   0  0  1  0  0  0  0  0  0  0  0  0
  -25.1960  -31.2590   26.0750 C   0  0  0  0  0  1  0  0  0  0  0  0
  -26.9440  -30.1590   24.6730 C   0  0  0  0  0  1  0  0  0  0  0  0
  -27.4290  -32.3400   25.7470 C   0  0  0  0  0  1  0  0  0  0  0  0
  1  3  2  0
  2 10  1  0
  2  1  1  0
  4  2  1  0
  5  9  1  0
  6  5  2  0
  7  9  2  0
  8  7  1  0
  9 20  1  0
 10  8  2  0
 10  6  1  0
 11  8  1  0
 12 20  1  0
 13 18  1  0
 14 15  1  0
 14 13  1  0
 16 15  1  0
 16 25  1  0
 16 17  1  0
 18 12  1  0
 18 17  1  0
 19 12  2  0
 20 21  1  0
 22 23  2  0
 23 42  1  0
 24 23  1  0
 24 27  1  0
 25 26  1  0
 25 22  1  0
 26 24  2  0
 27 28  1  0
 28 29  2  0
 30 33  1  0
 30 29  1  0
 31 30  2  0
 32 31  1  0
 32 27  2  0
 33 34  1  0
 34 39  2  0
 34 35  1  0
 35 36  2  0
 36 37  1  0
 37 41  1  0
 38 37  2  0
 39 38  1  0
 40 39  1  0
 42 43  1  0
 43 46  1  0
 43 45  1  0
 44 42  2  0
 47 22  1  0
 47 48  1  0
 49 47  1  0
 50 51  1  0
 50  1  1  0
 52 63  2  0
 53 51  1  0
 53 58  1  0
 54 62  1  0
 54 64  1  0
 55 61  1  0
 55 57  1  0
 56 62  1  0
 57 56  1  0
 58 57  2  0
 59 60  1  0
 59 53  2  0
 60 55  2  0
 61 54  1  0
 62 52  1  0
 64 66  2  0
 65 64  1  0
 67 65  1  0
 68 77  2  0
 68 73  1  0
 69 65  1  0
 69 73  1  0
 70 69  1  0
 71 72  1  0
 71 70  1  0
 72 68  1  0
 73 74  2  0
 74 75  1  0
 76 75  2  0
 77 76  1  0
 78 52  1  0
 78 79  1  0
 78 88  1  0
 79 82  1  0
 80 84  1  0
 80 79  1  0
 81 80  2  0
 84 83  1  0
 86 87  1  0
 86 84  1  0
 86 85  1  0
 88 91  1  1
 88 89  1  0
 90 88  1  0
M  ISO  4  12 100  20 100  50 101  51 101
M  END
>  <TORSDO>  (66) 
F 18

>  <SCORE>  (66) 
-12.932

>  <name>  (66) 
65

>  <ligand_id>  (66) 
65

>  <original_smiles>  (66) 
[H]c1c([H])c([H])c2c(c1[H])C([H])([H])C([H])([H])C([H])([H])C2([H])N([H])C(=O)C1([H])N(C(=O)C([H])(N([H])C(=O)C([H])(N([H])C([H])([H])[H])C([H])([H])[H])C(C([H])([H])[H])(C([H])([H])[H])C([H])([H])[H])C([H])([H])c2c([H])c(OC([H])([H])C(=O)N([H])c3c([H])c([H])c(N([H])C(=O)N4C([H])([H])C([H])([H])C([H])([H])C([H])(n5nc(-c6c([H])c([H])c(Oc7c([H])c([H])c(F)c([H])c7F)c([H])c6[H])c(C(=O)N([H])[H])c5N([H])[H])C4([H])[H])c([H])c3C([H])([H])[H])c([H])c([H])c2C1([H])[H]

>  <smiles>  (66) 
[H]c1c([H])c([H])c2c(c1[H])C([H])([H])C([H])([H])C([H])([H])C2([H])N([H])C(=O)C1([H])N(C(=O)C([H])(N([H])C(=O)C([H])(N([H])C([H])([H])[H])C([H])([H])[H])C(C([H])([H])[H])(C([H])([H])[H])C([H])([H])[H])C([H])([H])c2c([H])c(OC([H])([H])C(=O)N([H])c3c([H])c([H])c(N([H])C(=O)N4C([H])([H])C([H])([H])C([H])([H])C([H])(n5nc(-c6c([H])c([H])c(Oc7c([H])c([H])c(F)c([H])c7F)c([H])c6[H])c(C(=O)N([H])[H])c5N([H])[H])C4([H])[H])c([H])c3C([H])([H])[H])c([H])c([H])c2C1([H])[H]

$$$$
66:0:0
     RDKit          3D

 90 98  0  0  1  0  0  0  0  0999 V2000
  -30.7030  -18.5280   20.2000 C   0  0  0  0  0  3  0  0  0  0  0  0
  -30.4300  -19.9680   20.1690 C   0  0  0  0  0  3  0  0  0  0  0  0
  -28.4040  -18.1160   19.8960 C   0  0  0  0  0  3  0  0  0  0  0  0
  -28.1260  -19.5350   19.8540 C   0  0  0  0  0  0  0  0  0  0  0  0
  -29.6870  -17.5130   20.0880 C   0  0  0  0  0  0  0  0  0  0  0  0
  -29.1230  -20.5600   20.0170 C   0  0  0  0  0  0  0  0  0  0  0  0
  -26.6710  -19.9350   19.6540 C   0  0  0  0  0  1  0  0  0  0  0  0
  -30.6270  -14.9040   19.9150 C   0  0  0  0  0  0  0  0  0  0  0  0
  -30.5010  -12.5580   18.9660 C   0  0  0  0  0  2  0  0  0  0  0  0
  -29.5200  -12.5460   17.7690 C   0  0  0  0  0  2  0  0  0  0  0  0
  -28.0670  -12.3540   18.2460 C   0  0  0  0  0  2  0  0  0  0  0  0
  -27.7120  -13.2680   19.4460 C   0  0  0  0  0  3  0  0  0  0  0  0
  -28.8050  -13.2260   20.5370 C   0  0  0  0  0  2  0  0  0  0  0  0
  -30.0680  -13.6300   19.9020 N   0  0  0  0  0  0  0  0  0  0  0  0
  -31.8020  -15.0350   19.5530 O   0  0  0  0  0  0  0  0  0  0  0  0
  -29.7580  -15.9880   20.1700 N   0  0  0  0  0  0  0  0  0  0  0  0
  -28.8670  -15.6000   20.4360 H   0  0  0  0  0  0  0  0  0  0  0  0
  -25.3540  -13.8740   20.2480 C   0  0  0  0  0  0  0  0  0  0  0  0
  -24.2970  -13.1090   20.6600 C   0  0  0  0  0  0  0  0  0  0  0  0
  -24.7530  -11.7550   20.6260 C   0  0  0  0  0  0  0  0  0  0  0  0
  -26.3840  -12.9870   19.9830 N   0  0  0  0  0  0  0  0  0  0  0  0
  -26.0330  -11.7080   20.2740 N   0  0  0  0  0  0  0  0  0  0  0  0
  -24.0250  -10.4990   20.8490 C   0  0  0  0  0  0  0  0  0  0  0  0
  -24.4750   -9.5410   21.7850 C   0  0  0  0  0  3  0  0  0  0  0  0
  -23.7460   -8.3490   21.9950 C   0  0  0  0  0  3  0  0  0  0  0  0
  -22.5560   -8.1080   21.2700 C   0  0  0  0  0  0  0  0  0  0  0  0
  -22.1240   -9.0550   20.3250 C   0  0  0  0  0  3  0  0  0  0  0  0
  -22.8530  -10.2370   20.1120 C   0  0  0  0  0  3  0  0  0  0  0  0
  -21.7970   -6.9690   21.3910 O   0  0  0  0  0  0  0  0  0  0  0  0
  -21.7560   -6.2500   22.5590 C   0  0  0  0  0  0  0  0  0  0  0  0
  -21.3360   -6.8310   23.7760 C   0  0  0  0  0  3  0  0  0  0  0  0
  -21.2430   -6.0400   24.9380 C   0  0  0  0  0  3  0  0  0  0  0  0
  -21.5610   -4.6690   24.8850 C   0  0  0  0  0  0  0  0  0  0  0  0
  -21.9740   -4.0880   23.6730 C   0  0  0  0  0  3  0  0  0  0  0  0
  -22.0690   -4.8770   22.5130 C   0  0  0  0  0  0  0  0  0  0  0  0
  -22.4480   -4.3080   21.3440 F   0  0  0  0  0  0  0  0  0  0  0  0
  -21.4640   -3.9070   26.0000 F   0  0  0  0  0  0  0  0  0  0  0  0
  -22.9120  -13.5970   20.9690 C   0  0  0  0  0  0  0  0  0  0  0  0
  -22.2100  -12.9210   21.8710 N   0  0  0  0  0  0  0  0  0  0  0  0
  -22.4610  -14.6130   20.4430 O   0  0  0  0  0  0  0  0  0  0  0  0
  -22.5890  -12.0990   22.3190 H   0  0  0  0  0  0  0  0  0  0  0  0
  -21.2820  -13.2300   22.1210 H   0  0  0  0  0  0  0  0  0  0  0  0
  -25.5170  -15.2410   20.0480 N   0  0  0  0  0  0  0  0  0  0  0  0
  -24.7390  -15.8840   20.1510 H   0  0  0  0  0  0  0  0  0  0  0  0
  -26.3100  -15.6550   19.5790 H   0  0  0  0  0  0  0  0  0  0  0  0
  -28.4250  -22.1900   21.6360 C   0  0  0  0  0  1  0  0  0  0  0  0
  -28.7300  -21.9850   20.2190 N   0  0  0  0  0  0  0  0  0  0  0  0
  -28.9920  -23.3320   19.4850 C   0  0  0  0  0  3  0  0  0  0  0  0
  -27.9770  -24.6550   19.7250 C   0  0  0  0  0  3  0  0  0  0  0  0
  -28.2040  -26.1480   19.3750 O   0  0  0  0  0  0  0  0  0  0  0  0
  -24.6780  -31.5590   22.9230 C   0  0  0  0  0  0  0  0  0  0  0  0
  -27.1330  -27.1040   19.4590 C   0  0  0  0  0  0  0  0  0  0  0  0
  -23.4110  -30.2820   21.2380 C   0  0  0  0  0  3  0  0  0  0  0  0
  -24.7990  -28.8210   19.6480 C   0  0  0  0  0  0  0  0  0  0  0  0
  -25.9530  -30.5730   20.9870 C   0  0  0  0  0  2  0  0  0  0  0  0
  -26.0010  -29.2320   20.2380 C   0  0  0  0  0  0  0  0  0  0  0  0
  -27.1700  -28.3920   20.1270 C   0  0  0  0  0  3  0  0  0  0  0  0
  -25.9060  -26.7960   18.8330 C   0  0  0  0  0  3  0  0  0  0  0  0
  -24.7610  -27.6160   18.9310 C   0  0  0  0  0  3  0  0  0  0  0  0
  -23.5740  -29.7060   19.8060 C   0  0  0  0  0  2  0  0  0  0  0  0
  -24.7030  -30.8230   21.7710 N   0  0  0  0  0  0  0  0  0  0  0  0
  -23.6160  -31.8020   23.5150 O   0  0  0  0  0  0  0  0  0  0  0  0
  -22.7740  -29.2060   22.1520 C   0  0  0  0  0  0  0  0  0  0  0  0
  -21.4410  -29.0390   22.0650 N   0  0  0  0  0  0  0  0  0  0  0  0
  -23.4780  -28.5250   22.9020 O   0  0  0  0  0  0  0  0  0  0  0  0
  -20.9290  -29.6410   21.4370 H   0  0  0  0  0  0  0  0  0  0  0  0
  -18.0790  -27.8200   22.6380 C   0  0  0  0  0  0  0  0  0  0  0  0
  -20.6510  -28.0480   22.7990 C   0  0  0  0  0  3  0  0  0  0  0  0
  -20.7120  -26.6640   22.1110 C   0  0  0  0  0  2  0  0  0  0  0  0
  -19.5600  -26.4280   21.1290 C   0  0  0  0  0  2  0  0  0  0  0  0
  -18.2120  -26.5280   21.8500 C   0  0  0  0  0  2  0  0  0  0  0  0
  -19.2240  -28.5420   23.0700 C   0  0  0  0  0  0  0  0  0  0  0  0
  -19.0440  -29.7530   23.7730 C   0  0  0  0  0  3  0  0  0  0  0  0
  -17.7520  -30.2420   24.0450 C   0  0  0  0  0  3  0  0  0  0  0  0
  -16.6230  -29.5180   23.6260 C   0  0  0  0  0  3  0  0  0  0  0  0
  -16.7880  -28.3070   22.9290 C   0  0  0  0  0  3  0  0  0  0  0  0
  -25.9820  -32.1510   23.5390 C   0  0  0  0  0  3  0  0  0  0  0  0
  -26.5630  -31.2740   24.7170 C   0  0  1  0  0  0  0  0  0  0  0  0
  -25.5250  -30.9360   25.8140 C   0  0  0  0  0  1  0  0  0  0  0  0
  -27.1300  -29.9400   24.1810 C   0  0  0  0  0  1  0  0  0  0  0  0
  -27.7440  -32.0160   25.3880 C   0  0  0  0  0  1  0  0  0  0  0  0
  -25.6760  -33.5090   24.0150 N   0  0  0  0  0  0  0  0  0  0  0  0
  -25.9600  -34.6340   23.3460 C   0  0  0  0  0  0  0  0  0  0  0  0
  -26.5730  -34.6380   22.2750 O   0  0  0  0  0  0  0  0  0  0  0  0
  -25.1240  -33.5790   24.8570 H   0  0  0  0  0  0  0  0  0  0  0  0
  -24.1990  -36.4310   23.2640 C   0  0  0  0  0  1  0  0  0  0  0  0
  -25.4890  -35.9680   23.9600 C   0  0  0  0  0  3  0  0  0  0  0  0
  -27.6600  -36.8040   24.7480 C   0  0  0  0  0  1  0  0  0  0  0  0
  -26.5050  -37.0420   23.8870 N   0  0  0  0  0  0  0  0  0  0  0  0
  -26.1000  -37.9390   24.1400 H   0  0  0  0  0  0  0  0  0  0  0  0
  2  1  1  0
  3  5  1  0
  4  3  2  0
  4  6  1  0
  5 16  1  0
  5  1  2  0
  6  2  2  0
  6 47  1  0
  7  4  1  0
  8 16  1  0
  9 14  1  0
 10 11  1  0
 10  9  1  0
 12 11  1  0
 12 21  1  0
 12 13  1  0
 14  8  1  0
 14 13  1  0
 15  8  2  0
 16 17  1  0
 18 19  2  0
 19 38  1  0
 20 19  1  0
 20 23  1  0
 21 18  1  0
 21 22  1  0
 22 20  2  0
 23 24  1  0
 24 25  2  0
 26 29  1  0
 26 25  1  0
 27 26  2  0
 28 27  1  0
 28 23  2  0
 29 30  1  0
 30 31  1  0
 31 32  2  0
 33 32  1  0
 33 37  1  0
 34 33  2  0
 35 30  2  0
 35 34  1  0
 36 35  1  0
 38 39  1  0
 39 42  1  0
 39 41  1  0
 40 38  2  0
 43 44  1  0
 43 18  1  0
 45 43  1  0
 47 46  1  0
 48 49  2  0
 48 47  1  0
 50 52  1  0
 50 49  1  0
 51 62  2  0
 52 57  1  0
 53 61  1  0
 53 63  1  0
 54 60  1  0
 54 56  1  0
 55 61  1  0
 56 55  1  0
 57 56  2  0
 58 59  1  0
 58 52  2  0
 59 54  2  0
 60 53  1  0
 61 51  1  0
 63 65  2  0
 64 63  1  0
 66 64  1  0
 67 76  2  0
 67 72  1  0
 68 64  1  0
 68 72  1  0
 69 68  1  0
 70 71  1  0
 70 69  1  0
 71 67  1  0
 72 73  2  0
 73 74  1  0
 75 74  2  0
 76 75  1  0
 77 51  1  0
 77 82  1  0
 77 78  1  0
 78 81  1  1
 78 79  1  0
 80 78  1  0
 82 85  1  0
 83 87  1  0
 83 82  1  0
 84 83  2  0
 87 86  1  0
 89 87  1  0
 89 90  1  0
 89 88  1  0
M  ISO  4   8 100  16 100  49 101  50 101
M  END
>  <TORSDO>  (67) 
F 19

>  <SCORE>  (67) 
-12.874

>  <name>  (67) 
66

>  <ligand_id>  (67) 
66

>  <original_smiles>  (67) 
[H]c1c([H])c([H])c2c(c1[H])C([H])([H])C([H])([H])C([H])([H])C2([H])N([H])C(=O)C1([H])N(C(=O)C([H])(N([H])C(=O)C([H])(N([H])C([H])([H])[H])C([H])([H])[H])C(C([H])([H])[H])(C([H])([H])[H])C([H])([H])[H])C([H])([H])c2c([H])c(OC([H])([H])C([H])([H])N(c3c([H])c([H])c(N([H])C(=O)N4C([H])([H])C([H])([H])C([H])([H])C([H])(n5nc(-c6c([H])c([H])c(Oc7c([H])c([H])c(F)c([H])c7F)c([H])c6[H])c(C(=O)N([H])[H])c5N([H])[H])C4([H])[H])c([H])c3C([H])([H])[H])C([H])([H])[H])c([H])c([H])c2C1([H])[H]

>  <smiles>  (67) 
[H]c1c([H])c([H])c2c(c1[H])C([H])([H])C([H])([H])C([H])([H])C2([H])N([H])C(=O)C1([H])N(C(=O)C([H])(N([H])C(=O)C([H])(N([H])C([H])([H])[H])C([H])([H])[H])C(C([H])([H])[H])(C([H])([H])[H])C([H])([H])[H])C([H])([H])c2c([H])c(OC([H])([H])C([H])([H])N(c3c([H])c([H])c(N([H])C(=O)N4C([H])([H])C([H])([H])C([H])([H])C([H])(n5nc(-c6c([H])c([H])c(Oc7c([H])c([H])c(F)c([H])c7F)c([H])c6[H])c(C(=O)N([H])[H])c5N([H])[H])C4([H])[H])c([H])c3C([H])([H])[H])C([H])([H])[H])c([H])c([H])c2C1([H])[H]

$$$$
67:0:0
     RDKit          3D

 92100  0  0  1  0  0  0  0  0999 V2000
  -30.5550  -19.8470   19.4090 C   0  0  0  0  0  3  0  0  0  0  0  0
  -30.7100  -18.4150   19.6150 C   0  0  0  0  0  3  0  0  0  0  0  0
  -28.3210  -19.7570   20.1280 C   0  0  0  0  0  3  0  0  0  0  0  0
  -29.3570  -20.6260   19.6390 C   0  0  0  0  0  0  0  0  0  0  0  0
  -29.6610  -17.5530   20.0650 C   0  0  0  0  0  0  0  0  0  0  0  0
  -28.4510  -18.3040   20.3080 C   0  0  0  0  0  0  0  0  0  0  0  0
  -30.4840  -14.9130   19.8720 C   0  0  0  0  0  0  0  0  0  0  0  0
  -30.3460  -12.5640   18.9290 C   0  0  0  0  0  2  0  0  0  0  0  0
  -29.3300  -12.5440   17.7620 C   0  0  0  0  0  2  0  0  0  0  0  0
  -27.8940  -12.3260   18.2780 C   0  0  0  0  0  2  0  0  0  0  0  0
  -27.5660  -13.2250   19.5000 C   0  0  0  0  0  3  0  0  0  0  0  0
  -28.6950  -13.2060   20.5550 C   0  0  0  0  0  2  0  0  0  0  0  0
  -29.9290  -13.6330   19.8810 N   0  0  0  0  0  0  0  0  0  0  0  0
  -31.6370  -15.0350   19.4470 O   0  0  0  0  0  0  0  0  0  0  0  0
  -29.6720  -16.0240   20.2130 N   0  0  0  0  0  0  0  0  0  0  0  0
  -28.8240  -15.7030   20.6540 H   0  0  0  0  0  0  0  0  0  0  0  0
  -25.2470  -13.7830   20.4300 C   0  0  0  0  0  0  0  0  0  0  0  0
  -24.2050  -13.0000   20.8460 C   0  0  0  0  0  0  0  0  0  0  0  0
  -24.6550  -11.6490   20.7260 C   0  0  0  0  0  0  0  0  0  0  0  0
  -26.2630  -12.9120   20.0780 N   0  0  0  0  0  0  0  0  0  0  0  0
  -25.9200  -11.6200   20.3200 N   0  0  0  0  0  0  0  0  0  0  0  0
  -23.9330  -10.3840   20.9160 C   0  0  0  0  0  0  0  0  0  0  0  0
  -24.3510   -9.4310   21.8720 C   0  0  0  0  0  3  0  0  0  0  0  0
  -23.6290   -8.2300   22.0500 C   0  0  0  0  0  3  0  0  0  0  0  0
  -22.4750   -7.9750   21.2730 C   0  0  0  0  0  0  0  0  0  0  0  0
  -22.0760   -8.9150   20.3070 C   0  0  0  0  0  3  0  0  0  0  0  0
  -22.7990  -10.1060   20.1270 C   0  0  0  0  0  3  0  0  0  0  0  0
  -21.7260   -6.8260   21.3610 O   0  0  0  0  0  0  0  0  0  0  0  0
  -21.5790   -6.1500   22.5460 C   0  0  0  0  0  0  0  0  0  0  0  0
  -21.0190   -6.7620   23.6890 C   0  0  0  0  0  3  0  0  0  0  0  0
  -20.8250   -6.0110   24.8650 C   0  0  0  0  0  3  0  0  0  0  0  0
  -21.1780   -4.6480   24.8980 C   0  0  0  0  0  0  0  0  0  0  0  0
  -21.7270   -4.0350   23.7590 C   0  0  0  0  0  3  0  0  0  0  0  0
  -21.9260   -4.7850   22.5860 C   0  0  0  0  0  0  0  0  0  0  0  0
  -22.4380   -4.1830   21.4850 F   0  0  0  0  0  0  0  0  0  0  0  0
  -20.9820   -3.9250   26.0250 F   0  0  0  0  0  0  0  0  0  0  0  0
  -22.8350  -13.4710   21.2380 C   0  0  0  0  0  0  0  0  0  0  0  0
  -22.1780  -12.7610   22.1480 N   0  0  0  0  0  0  0  0  0  0  0  0
  -22.3610  -14.5050   20.7720 O   0  0  0  0  0  0  0  0  0  0  0  0
  -22.5750  -11.9220   22.5440 H   0  0  0  0  0  0  0  0  0  0  0  0
  -21.2600  -13.0580   22.4510 H   0  0  0  0  0  0  0  0  0  0  0  0
  -25.4050  -15.1600   20.2940 N   0  0  0  0  0  0  0  0  0  0  0  0
  -24.6490  -15.8080   20.4800 H   0  0  0  0  0  0  0  0  0  0  0  0
  -26.2180  -15.6030   19.8870 H   0  0  0  0  0  0  0  0  0  0  0  0
  -28.6350  -23.2590   19.8960 C   0  0  0  0  0  0  0  0  0  0  0  0
  -30.0340  -22.4810   18.0740 C   0  0  0  0  0  1  0  0  0  0  0  0
  -29.2300  -22.1270   19.2530 N   0  0  0  0  0  0  0  0  0  0  0  0
  -28.4790  -23.2180   21.1210 O   0  0  0  0  0  0  0  0  0  0  0  0
  -28.0290  -24.6160   19.1330 C   0  0  0  0  0  2  0  0  0  0  0  0
  -28.3000  -26.1060   19.5060 O   0  0  0  0  0  0  0  0  0  0  0  0
  -24.6420  -31.5540   22.8490 C   0  0  0  0  0  0  0  0  0  0  0  0
  -27.2380  -27.0910   19.4810 C   0  0  0  0  0  0  0  0  0  0  0  0
  -23.4300  -30.2410   21.1530 C   0  0  0  0  0  3  0  0  0  0  0  0
  -24.8760  -28.7920   19.5990 C   0  0  0  0  0  0  0  0  0  0  0  0
  -25.9750  -30.5680   20.9510 C   0  0  0  0  0  2  0  0  0  0  0  0
  -26.0610  -29.2210   20.2120 C   0  0  0  0  0  0  0  0  0  0  0  0
  -27.2380  -28.3850   20.1440 C   0  0  0  0  0  3  0  0  0  0  0  0
  -26.0300  -26.7830   18.8130 C   0  0  0  0  0  3  0  0  0  0  0  0
  -24.8730  -27.5870   18.8840 C   0  0  0  0  0  3  0  0  0  0  0  0
  -23.6330  -29.6570   19.7290 C   0  0  0  0  0  2  0  0  0  0  0  0
  -24.7030  -30.8060   21.7060 N   0  0  0  0  0  0  0  0  0  0  0  0
  -23.5640  -31.7830   23.4180 O   0  0  0  0  0  0  0  0  0  0  0  0
  -22.7920  -29.1600   22.0630 C   0  0  0  0  0  0  0  0  0  0  0  0
  -21.4560  -29.0110   21.9970 N   0  0  0  0  0  0  0  0  0  0  0  0
  -23.5000  -28.4610   22.7930 O   0  0  0  0  0  0  0  0  0  0  0  0
  -20.9400  -29.6260   21.3820 H   0  0  0  0  0  0  0  0  0  0  0  0
  -18.0880  -27.8370   22.6290 C   0  0  0  0  0  0  0  0  0  0  0  0
  -20.6660  -28.0220   22.7350 C   0  0  0  0  0  3  0  0  0  0  0  0
  -20.6890  -26.6480   22.0250 C   0  0  0  0  0  2  0  0  0  0  0  0
  -19.5110  -26.4450   21.0670 C   0  0  0  0  0  2  0  0  0  0  0  0
  -18.1820  -26.5550   21.8190 C   0  0  0  0  0  2  0  0  0  0  0  0
  -19.2540  -28.5320   23.0470 C   0  0  0  0  0  0  0  0  0  0  0  0
  -19.1090  -29.7360   23.7710 C   0  0  0  0  0  3  0  0  0  0  0  0
  -17.8310  -30.2410   24.0790 C   0  0  0  0  0  3  0  0  0  0  0  0
  -16.6810  -29.5400   23.6750 C   0  0  0  0  0  3  0  0  0  0  0  0
  -16.8120  -28.3400   22.9570 C   0  0  0  0  0  3  0  0  0  0  0  0
  -25.9220  -32.1740   23.4850 C   0  0  0  0  0  3  0  0  0  0  0  0
  -26.5120  -31.3040   24.6630 C   0  0  1  0  0  0  0  0  0  0  0  0
  -25.4730  -30.9420   25.7490 C   0  0  0  0  0  1  0  0  0  0  0  0
  -27.1070  -29.9810   24.1270 C   0  0  0  0  0  1  0  0  0  0  0  0
  -27.6770  -32.0640   25.3410 C   0  0  0  0  0  1  0  0  0  0  0  0
  -25.5780  -33.5230   23.9650 N   0  0  0  0  0  0  0  0  0  0  0  0
  -25.8790  -34.6610   23.3240 C   0  0  0  0  0  0  0  0  0  0  0  0
  -26.5440  -34.6850   22.2860 O   0  0  0  0  0  0  0  0  0  0  0  0
  -24.9840  -33.5730   24.7790 H   0  0  0  0  0  0  0  0  0  0  0  0
  -24.1100  -36.4420   23.1720 C   0  0  0  0  0  1  0  0  0  0  0  0
  -25.3630  -35.9800   23.9330 C   0  0  0  0  0  3  0  0  0  0  0  0
  -27.4750  -36.8220   24.8600 C   0  0  0  0  0  1  0  0  0  0  0  0
  -26.3710  -37.0630   23.9340 N   0  0  0  0  0  0  0  0  0  0  0  0
  -25.9450  -37.9530   24.1760 H   0  0  0  0  0  0  0  0  0  0  0  0
  -26.0750  -17.9390   20.4040 C   0  0  0  0  0  1  0  0  0  0  0  0
  -27.3940  -17.5140   20.7110 O   0  0  0  0  0  0  0  0  0  0  0  0
  1  2  2  0
  1  4  1  0
  2  5  1  0
  3  6  1  0
  4  3  2  0
  5 15  1  0
  5  6  2  0
  6 92  1  0
  7 13  1  0
  7 15  1  0
  8 13  1  0
  9 10  1  0
  9  8  1  0
 11 10  1  0
 11 20  1  0
 11 12  1  0
 13 12  1  0
 14  7  2  0
 15 16  1  0
 17 18  2  0
 18 37  1  0
 19 18  1  0
 19 22  1  0
 20 21  1  0
 20 17  1  0
 21 19  2  0
 22 23  1  0
 23 24  2  0
 25 28  1  0
 25 24  1  0
 26 25  2  0
 27 26  1  0
 27 22  2  0
 28 29  1  0
 29 34  2  0
 29 30  1  0
 30 31  2  0
 31 32  1  0
 32 36  1  0
 33 32  2  0
 34 33  1  0
 35 34  1  0
 37 38  1  0
 38 41  1  0
 38 40  1  0
 39 37  2  0
 42 17  1  0
 42 43  1  0
 44 42  1  0
 45 48  2  0
 46 47  1  0
 47  4  1  0
 47 45  1  0
 49 50  1  0
 49 45  1  0
 51 62  2  0
 52 50  1  0
 52 57  1  0
 53 61  1  0
 53 63  1  0
 54 60  1  0
 54 56  1  0
 55 61  1  0
 56 55  1  0
 57 56  2  0
 58 59  1  0
 58 52  2  0
 59 54  2  0
 60 53  1  0
 61 51  1  0
 63 65  2  0
 64 63  1  0
 66 64  1  0
 67 76  2  0
 67 72  1  0
 68 64  1  0
 68 72  1  0
 69 68  1  0
 70 71  1  0
 70 69  1  0
 71 67  1  0
 72 73  2  0
 73 74  1  0
 75 74  2  0
 76 75  1  0
 77 51  1  0
 77 82  1  0
 77 78  1  0
 78 81  1  1
 78 79  1  0
 80 78  1  0
 82 85  1  0
 83 87  1  0
 83 82  1  0
 84 83  2  0
 87 86  1  0
 87 89  1  0
 89 90  1  0
 89 88  1  0
 91 92  1  0
M  ISO  4   7 100  15 100  49 101  50 101
M  END
>  <TORSDO>  (68) 
F 19

>  <SCORE>  (68) 
-12.906

>  <name>  (68) 
67

>  <ligand_id>  (68) 
67

>  <original_smiles>  (68) 
[H]c1c([H])c([H])c2c(c1[H])C([H])([H])C([H])([H])C([H])([H])C2([H])N([H])C(=O)C1([H])N(C(=O)C([H])(N([H])C(=O)C([H])(N([H])C([H])([H])[H])C([H])([H])[H])C(C([H])([H])[H])(C([H])([H])[H])C([H])([H])[H])C([H])([H])c2c([H])c(OC([H])([H])C(=O)N(c3c([H])c([H])c(N([H])C(=O)N4C([H])([H])C([H])([H])C([H])([H])C([H])(n5nc(-c6c([H])c([H])c(Oc7c([H])c([H])c(F)c([H])c7F)c([H])c6[H])c(C(=O)N([H])[H])c5N([H])[H])C4([H])[H])c(OC([H])([H])[H])c3[H])C([H])([H])[H])c([H])c([H])c2C1([H])[H]

>  <smiles>  (68) 
[H]c1c([H])c([H])c2c(c1[H])C([H])([H])C([H])([H])C([H])([H])C2([H])N([H])C(=O)C1([H])N(C(=O)C([H])(N([H])C(=O)C([H])(N([H])C([H])([H])[H])C([H])([H])[H])C(C([H])([H])[H])(C([H])([H])[H])C([H])([H])[H])C([H])([H])c2c([H])c(OC([H])([H])C(=O)N(c3c([H])c([H])c(N([H])C(=O)N4C([H])([H])C([H])([H])C([H])([H])C([H])(n5nc(-c6c([H])c([H])c(Oc7c([H])c([H])c(F)c([H])c7F)c([H])c6[H])c(C(=O)N([H])[H])c5N([H])[H])C4([H])[H])c(OC([H])([H])[H])c3[H])C([H])([H])[H])c([H])c([H])c2C1([H])[H]

$$$$
68:0:0
     RDKit          3D

 90 98  0  0  1  0  0  0  0  0999 V2000
  -30.1800  -20.4970   18.7880 C   0  0  0  0  0  3  0  0  0  0  0  0
  -30.7630  -19.3460   18.1990 C   0  0  0  0  0  3  0  0  0  0  0  0
  -29.2660  -19.0190   20.4680 C   0  0  0  0  0  3  0  0  0  0  0  0
  -29.3930  -20.4340   19.9600 C   0  0  0  0  0  0  0  0  0  0  0  0
  -29.8990  -17.7760   19.9070 C   0  0  0  0  0  0  0  0  0  0  0  0
  -30.6330  -18.0370   18.7220 C   0  0  0  0  0  0  0  0  0  0  0  0
  -31.1840  -17.0220   18.0130 F   0  0  0  0  0  0  0  0  0  0  0  0
  -30.5450  -15.1040   20.2350 C   0  0  0  0  0  0  0  0  0  0  0  0
  -30.4610  -12.7300   19.3560 C   0  0  0  0  0  2  0  0  0  0  0  0
  -29.5380  -12.6430   18.1190 C   0  0  0  0  0  2  0  0  0  0  0  0
  -28.0680  -12.4460   18.5360 C   0  0  0  0  0  2  0  0  0  0  0  0
  -27.6460  -13.3730   19.7080 C   0  0  0  0  0  3  0  0  0  0  0  0
  -28.6960  -13.4080   20.8350 C   0  0  0  0  0  2  0  0  0  0  0  0
  -29.9620  -13.8330   20.2260 N   0  0  0  0  0  0  0  0  0  0  0  0
  -31.7570  -15.1420   19.9940 O   0  0  0  0  0  0  0  0  0  0  0  0
  -29.7600  -16.2980   20.3790 N   0  0  0  0  0  0  0  0  0  0  0  0
  -28.8520  -16.1020   20.7700 H   0  0  0  0  0  0  0  0  0  0  0  0
  -25.2520  -13.9410   20.4240 C   0  0  0  0  0  0  0  0  0  0  0  0
  -24.1870  -13.1630   20.7880 C   0  0  0  0  0  0  0  0  0  0  0  0
  -24.6610  -11.8140   20.7770 C   0  0  0  0  0  0  0  0  0  0  0  0
  -26.3040  -13.0680   20.2010 N   0  0  0  0  0  0  0  0  0  0  0  0
  -25.9580  -11.7840   20.4830 N   0  0  0  0  0  0  0  0  0  0  0  0
  -23.9400  -10.5490   20.9730 C   0  0  0  0  0  0  0  0  0  0  0  0
  -24.3560   -9.5980   21.9320 C   0  0  0  0  0  3  0  0  0  0  0  0
  -23.6320   -8.4010   22.1160 C   0  0  0  0  0  3  0  0  0  0  0  0
  -22.4740   -8.1490   21.3430 C   0  0  0  0  0  0  0  0  0  0  0  0
  -22.0750   -9.0880   20.3740 C   0  0  0  0  0  3  0  0  0  0  0  0
  -22.8010  -10.2750   20.1870 C   0  0  0  0  0  3  0  0  0  0  0  0
  -21.7230   -7.0030   21.4330 O   0  0  0  0  0  0  0  0  0  0  0  0
  -21.6520   -6.2780   22.5980 C   0  0  0  0  0  0  0  0  0  0  0  0
  -21.1700   -6.8450   23.7980 C   0  0  0  0  0  3  0  0  0  0  0  0
  -21.0480   -6.0490   24.9540 C   0  0  0  0  0  3  0  0  0  0  0  0
  -21.3960   -4.6860   24.9100 C   0  0  0  0  0  0  0  0  0  0  0  0
  -21.8700   -4.1170   23.7150 C   0  0  0  0  0  3  0  0  0  0  0  0
  -21.9920   -4.9110   22.5600 C   0  0  0  0  0  0  0  0  0  0  0  0
  -22.4290   -4.3530   21.4050 F   0  0  0  0  0  0  0  0  0  0  0  0
  -21.2690   -3.9180   26.0190 F   0  0  0  0  0  0  0  0  0  0  0  0
  -22.7840  -13.6390   21.0250 C   0  0  0  0  0  0  0  0  0  0  0  0
  -22.0370  -12.9570   21.8860 N   0  0  0  0  0  0  0  0  0  0  0  0
  -22.3540  -14.6580   20.4870 O   0  0  0  0  0  0  0  0  0  0  0  0
  -22.3900  -12.1400   22.3610 H   0  0  0  0  0  0  0  0  0  0  0  0
  -21.0950  -13.2640   22.0800 H   0  0  0  0  0  0  0  0  0  0  0  0
  -25.4070  -15.3110   20.2290 N   0  0  0  0  0  0  0  0  0  0  0  0
  -24.6400  -15.9660   20.3380 H   0  0  0  0  0  0  0  0  0  0  0  0
  -26.2390  -15.7410   19.8430 H   0  0  0  0  0  0  0  0  0  0  0  0
  -28.3150  -21.6380   21.8500 C   0  0  0  0  0  1  0  0  0  0  0  0
  -28.8290  -21.7360   20.4840 N   0  0  0  0  0  0  0  0  0  0  0  0
  -29.0150  -23.2290   19.9560 C   0  0  0  0  0  3  0  0  0  0  0  0
  -28.1460  -24.6200   20.4830 C   0  0  0  0  0  3  0  0  0  0  0  0
  -28.3760  -26.1660   20.1970 O   0  0  0  0  0  0  0  0  0  0  0  0
  -24.7240  -31.8970   23.2470 C   0  0  0  0  0  0  0  0  0  0  0  0
  -27.3200  -27.1690   20.1930 C   0  0  0  0  0  0  0  0  0  0  0  0
  -23.5390  -30.5070   21.5960 C   0  0  0  0  0  3  0  0  0  0  0  0
  -24.9920  -28.9350   20.1730 C   0  0  0  0  0  0  0  0  0  0  0  0
  -26.0980  -30.7690   21.4460 C   0  0  0  0  0  2  0  0  0  0  0  0
  -26.1750  -29.3780   20.7810 C   0  0  0  0  0  0  0  0  0  0  0  0
  -27.3420  -28.5150   20.7600 C   0  0  0  0  0  3  0  0  0  0  0  0
  -26.1040  -26.8360   19.5590 C   0  0  0  0  0  3  0  0  0  0  0  0
  -24.9710  -27.6760   19.5510 C   0  0  0  0  0  3  0  0  0  0  0  0
  -23.7700  -29.8350   20.2160 C   0  0  0  0  0  2  0  0  0  0  0  0
  -24.8080  -31.0810   22.1500 N   0  0  0  0  0  0  0  0  0  0  0  0
  -23.6340  -32.1720   23.7690 O   0  0  0  0  0  0  0  0  0  0  0  0
  -22.8550  -29.4950   22.5500 C   0  0  0  0  0  0  0  0  0  0  0  0
  -21.5240  -29.3290   22.4250 N   0  0  0  0  0  0  0  0  0  0  0  0
  -23.5220  -28.8610   23.3720 O   0  0  0  0  0  0  0  0  0  0  0  0
  -21.0400  -29.8960   21.7440 H   0  0  0  0  0  0  0  0  0  0  0  0
  -18.1390  -28.1260   22.9270 C   0  0  0  0  0  0  0  0  0  0  0  0
  -20.7010  -28.3820   23.1840 C   0  0  0  0  0  3  0  0  0  0  0  0
  -20.7960  -26.9570   22.5910 C   0  0  0  0  0  2  0  0  0  0  0  0
  -19.6900  -26.6480   21.5770 C   0  0  0  0  0  2  0  0  0  0  0  0
  -18.3110  -26.7850   22.2300 C   0  0  0  0  0  2  0  0  0  0  0  0
  -19.2610  -28.8820   23.3570 C   0  0  0  0  0  0  0  0  0  0  0  0
  -19.0440  -30.1370   23.9690 C   0  0  0  0  0  3  0  0  0  0  0  0
  -17.7400  -30.6330   24.1510 C   0  0  0  0  0  3  0  0  0  0  0  0
  -16.6330  -29.8740   23.7310 C   0  0  0  0  0  3  0  0  0  0  0  0
  -16.8340  -28.6200   23.1250 C   0  0  0  0  0  3  0  0  0  0  0  0
  -25.9930  -32.5360   23.8890 C   0  0  0  0  0  3  0  0  0  0  0  0
  -26.4930  -31.7680   25.1770 C   0  0  1  0  0  0  0  0  0  0  0  0
  -25.3900  -31.5380   26.2370 C   0  0  0  0  0  1  0  0  0  0  0  0
  -27.0760  -30.3880   24.8040 C   0  0  0  0  0  1  0  0  0  0  0  0
  -27.6330  -32.5660   25.8510 C   0  0  0  0  0  1  0  0  0  0  0  0
  -25.6720  -33.9330   24.2220 N   0  0  0  0  0  0  0  0  0  0  0  0
  -26.0150  -34.9970   23.4850 C   0  0  0  0  0  0  0  0  0  0  0  0
  -26.6990  -34.9050   22.4600 O   0  0  0  0  0  0  0  0  0  0  0  0
  -25.0610  -34.0770   25.0140 H   0  0  0  0  0  0  0  0  0  0  0  0
  -24.3010  -36.8090   23.1260 C   0  0  0  0  0  1  0  0  0  0  0  0
  -25.5260  -36.3820   23.9530 C   0  0  0  0  0  3  0  0  0  0  0  0
  -27.6440  -37.2520   24.8400 C   0  0  0  0  0  1  0  0  0  0  0  0
  -26.5640  -37.4330   23.8750 N   0  0  0  0  0  0  0  0  0  0  0  0
  -26.1570  -38.3530   24.0240 H   0  0  0  0  0  0  0  0  0  0  0  0
  1  4  1  0
  2  6  1  0
  2  1  2  0
  4  3  2  0
  4 47  1  0
  5 16  1  0
  5  3  1  0
  6  5  2  0
  7  6  1  0
  8 16  1  0
  9 14  1  0
 10 11  1  0
 10  9  1  0
 12 11  1  0
 12 21  1  0
 12 13  1  0
 14  8  1  0
 14 13  1  0
 15  8  2  0
 16 17  1  0
 18 19  2  0
 19 38  1  0
 20 19  1  0
 20 23  1  0
 21 18  1  0
 21 22  1  0
 22 20  2  0
 23 24  1  0
 24 25  2  0
 26 29  1  0
 26 25  1  0
 27 26  2  0
 28 27  1  0
 28 23  2  0
 29 30  1  0
 30 31  1  0
 31 32  2  0
 33 32  1  0
 33 37  1  0
 34 33  2  0
 35 30  2  0
 35 34  1  0
 36 35  1  0
 38 39  1  0
 39 42  1  0
 39 41  1  0
 40 38  2  0
 43 44  1  0
 43 18  1  0
 45 43  1  0
 47 46  1  0
 48 49  2  0
 48 47  1  0
 50 49  1  0
 51 62  2  0
 52 50  1  0
 52 57  1  0
 53 61  1  0
 53 63  1  0
 54 60  1  0
 54 56  1  0
 55 61  1  0
 56 55  1  0
 57 56  2  0
 58 52  2  0
 59 58  1  0
 59 54  2  0
 60 53  1  0
 61 51  1  0
 63 65  2  0
 64 63  1  0
 66 64  1  0
 67 76  2  0
 67 72  1  0
 68 64  1  0
 68 72  1  0
 69 68  1  0
 70 71  1  0
 70 69  1  0
 71 67  1  0
 72 73  2  0
 73 74  1  0
 75 74  2  0
 76 75  1  0
 77 51  1  0
 77 82  1  0
 77 78  1  0
 78 81  1  1
 78 79  1  0
 80 78  1  0
 82 85  1  0
 83 87  1  0
 83 82  1  0
 84 83  2  0
 87 86  1  0
 89 87  1  0
 89 90  1  0
 89 88  1  0
M  ISO  4   8 100  16 100  49 101  50 101
M  END
>  <TORSDO>  (69) 
F 19

>  <SCORE>  (69) 
-14.954

>  <name>  (69) 
68

>  <ligand_id>  (69) 
68

>  <original_smiles>  (69) 
[H]c1c([H])c([H])c2c(c1[H])C([H])([H])C([H])([H])C([H])([H])C2([H])N([H])C(=O)C1([H])N(C(=O)C([H])(N([H])C(=O)C([H])(N([H])C([H])([H])[H])C([H])([H])[H])C(C([H])([H])[H])(C([H])([H])[H])C([H])([H])[H])C([H])([H])c2c([H])c(OC([H])([H])C([H])([H])N(c3c([H])c([H])c(F)c(N([H])C(=O)N4C([H])([H])C([H])([H])C([H])([H])C([H])(n5nc(-c6c([H])c([H])c(Oc7c([H])c([H])c(F)c([H])c7F)c([H])c6[H])c(C(=O)N([H])[H])c5N([H])[H])C4([H])[H])c3[H])C([H])([H])[H])c([H])c([H])c2C1([H])[H]

>  <smiles>  (69) 
[H]c1c([H])c([H])c2c(c1[H])C([H])([H])C([H])([H])C([H])([H])C2([H])N([H])C(=O)C1([H])N(C(=O)C([H])(N([H])C(=O)C([H])(N([H])C([H])([H])[H])C([H])([H])[H])C(C([H])([H])[H])(C([H])([H])[H])C([H])([H])[H])C([H])([H])c2c([H])c(OC([H])([H])C([H])([H])N(c3c([H])c([H])c(F)c(N([H])C(=O)N4C([H])([H])C([H])([H])C([H])([H])C([H])(n5nc(-c6c([H])c([H])c(Oc7c([H])c([H])c(F)c([H])c7F)c([H])c6[H])c(C(=O)N([H])[H])c5N([H])[H])C4([H])[H])c3[H])C([H])([H])[H])c([H])c([H])c2C1([H])[H]

$$$$
69:0:0
     RDKit          3D

 83 90  0  0  1  0  0  0  0  0999 V2000
  -27.9770  -23.9420   20.2520 C   0  0  0  0  0  3  0  0  0  0  0  0
  -28.1620  -25.6720   20.2750 O   0  0  0  0  0  0  0  0  0  0  0  0
  -24.6340  -31.8930   23.2090 C   0  0  0  0  0  0  0  0  0  0  0  0
  -27.1660  -26.8490   20.2330 C   0  0  0  0  0  0  0  0  0  0  0  0
  -23.4400  -30.4880   21.5810 C   0  0  0  0  0  3  0  0  0  0  0  0
  -24.8850  -28.8420   20.1730 C   0  0  0  0  0  0  0  0  0  0  0  0
  -26.0160  -30.6470   21.4440 C   0  0  0  0  0  2  0  0  0  0  0  0
  -26.0810  -29.2160   20.7960 C   0  0  0  0  0  0  0  0  0  0  0  0
  -27.2080  -28.2460   20.7930 C   0  0  0  0  0  3  0  0  0  0  0  0
  -25.9320  -26.6670   19.5590 C   0  0  0  0  0  3  0  0  0  0  0  0
  -24.8460  -27.5910   19.5320 C   0  0  0  0  0  3  0  0  0  0  0  0
  -23.6760  -29.7870   20.2130 C   0  0  0  0  0  2  0  0  0  0  0  0
  -24.7210  -31.0410   22.1300 N   0  0  0  0  0  0  0  0  0  0  0  0
  -23.5430  -32.1940   23.7230 O   0  0  0  0  0  0  0  0  0  0  0  0
  -22.7310  -29.5100   22.5560 C   0  0  0  0  0  0  0  0  0  0  0  0
  -21.3980  -29.3540   22.4330 N   0  0  0  0  0  0  0  0  0  0  0  0
  -23.3890  -28.8910   23.3950 O   0  0  0  0  0  0  0  0  0  0  0  0
  -20.9190  -29.9100   21.7390 H   0  0  0  0  0  0  0  0  0  0  0  0
  -18.0110  -28.1460   22.9530 C   0  0  0  0  0  0  0  0  0  0  0  0
  -20.5730  -28.4200   23.2090 C   0  0  0  0  0  3  0  0  0  0  0  0
  -20.6740  -26.9830   22.6430 C   0  0  0  0  0  2  0  0  0  0  0  0
  -19.5720  -26.6560   21.6300 C   0  0  0  0  0  2  0  0  0  0  0  0
  -18.1910  -26.7970   22.2780 C   0  0  0  0  0  2  0  0  0  0  0  0
  -19.1290  -28.9140   23.3750 C   0  0  0  0  0  0  0  0  0  0  0  0
  -18.9060  -30.1740   23.9730 C   0  0  0  0  0  3  0  0  0  0  0  0
  -17.5990  -30.6660   24.1490 C   0  0  0  0  0  3  0  0  0  0  0  0
  -16.4960  -29.8960   23.7400 C   0  0  0  0  0  3  0  0  0  0  0  0
  -16.7040  -28.6370   23.1480 C   0  0  0  0  0  3  0  0  0  0  0  0
  -25.9000  -32.5430   23.8440 C   0  0  0  0  0  3  0  0  0  0  0  0
  -26.4050  -31.7810   25.1330 C   0  0  1  0  0  0  0  0  0  0  0  0
  -25.3030  -31.5520   26.1950 C   0  0  0  0  0  1  0  0  0  0  0  0
  -26.9900  -30.4000   24.7650 C   0  0  0  0  0  1  0  0  0  0  0  0
  -27.5520  -32.5800   25.7960 C   0  0  0  0  0  1  0  0  0  0  0  0
  -25.5780  -33.9420   24.1850 N   0  0  0  0  0  0  0  0  0  0  0  0
  -25.8770  -35.0090   23.4300 C   0  0  0  0  0  0  0  0  0  0  0  0
  -26.5140  -34.9190   22.3770 O   0  0  0  0  0  0  0  0  0  0  0  0
  -25.0080  -34.0850   25.0050 H   0  0  0  0  0  0  0  0  0  0  0  0
  -24.1150  -36.7930   23.1700 C   0  0  0  0  0  1  0  0  0  0  0  0
  -25.4000  -36.3940   23.9170 C   0  0  0  0  0  3  0  0  0  0  0  0
  -27.5590  -37.3080   24.6490 C   0  0  0  0  0  1  0  0  0  0  0  0
  -26.4140  -37.4610   23.7560 N   0  0  0  0  0  0  0  0  0  0  0  0
  -26.0030  -38.3760   23.9220 H   0  0  0  0  0  0  0  0  0  0  0  0
  -29.0010  -22.3180   20.2390 C   0  0  0  0  0  3  0  0  0  0  0  0
  -28.7820  -20.4130   20.2980 C   0  0  0  0  0  3  0  0  0  0  0  0
  -29.8210  -18.7980   20.2210 C   0  0  0  0  0  3  0  0  0  0  0  0
  -30.3040  -15.6940   20.1720 C   0  0  0  0  0  0  0  0  0  0  0  0
  -30.3910  -13.1780   19.3000 C   0  0  0  0  0  2  0  0  0  0  0  0
  -29.4600  -12.7830   18.1200 C   0  0  0  0  0  2  0  0  0  0  0  0
  -28.0570  -12.4070   18.6230 C   0  0  0  0  0  2  0  0  0  0  0  0
  -27.5710  -13.3930   19.7060 C   0  0  0  0  0  3  0  0  0  0  0  0
  -28.6400  -13.6720   20.7900 C   0  0  0  0  0  2  0  0  0  0  0  0
  -29.7790  -14.3310   20.0990 N   0  0  0  0  0  0  0  0  0  0  0  0
  -31.5360  -15.6380   19.9800 O   0  0  0  0  0  0  0  0  0  0  0  0
  -28.0950  -16.9420   20.3360 C   0  0  0  0  0  1  0  0  0  0  0  0
  -29.5460  -17.0590   20.2530 N   0  0  0  0  0  0  0  0  0  0  0  0
  -25.2270  -13.9050   20.5530 C   0  0  0  0  0  0  0  0  0  0  0  0
  -24.1820  -13.1120   20.9300 C   0  0  0  0  0  0  0  0  0  0  0  0
  -24.6590  -11.7670   20.8520 C   0  0  0  0  0  0  0  0  0  0  0  0
  -26.2700  -13.0450   20.2580 N   0  0  0  0  0  0  0  0  0  0  0  0
  -25.9430  -11.7510   20.5060 N   0  0  0  0  0  0  0  0  0  0  0  0
  -23.9460  -10.4970   21.0300 C   0  0  0  0  0  0  0  0  0  0  0  0
  -24.3830   -9.5290   21.9600 C   0  0  0  0  0  3  0  0  0  0  0  0
  -23.6650   -8.3240   22.1280 C   0  0  0  0  0  3  0  0  0  0  0  0
  -22.4970   -8.0820   21.3680 C   0  0  0  0  0  0  0  0  0  0  0  0
  -22.0790   -9.0400   20.4260 C   0  0  0  0  0  3  0  0  0  0  0  0
  -22.7970  -10.2350   20.2560 C   0  0  0  0  0  3  0  0  0  0  0  0
  -21.7510   -6.9310   21.4470 O   0  0  0  0  0  0  0  0  0  0  0  0
  -21.6660   -6.2070   22.6100 C   0  0  0  0  0  0  0  0  0  0  0  0
  -21.1570   -6.7690   23.8010 C   0  0  0  0  0  3  0  0  0  0  0  0
  -21.0230   -5.9700   24.9530 C   0  0  0  0  0  3  0  0  0  0  0  0
  -21.3870   -4.6100   24.9160 C   0  0  0  0  0  0  0  0  0  0  0  0
  -21.8880   -4.0490   23.7290 C   0  0  0  0  0  3  0  0  0  0  0  0
  -22.0250   -4.8450   22.5780 C   0  0  0  0  0  0  0  0  0  0  0  0
  -22.4900   -4.2930   21.4300 F   0  0  0  0  0  0  0  0  0  0  0  0
  -21.2500   -3.8400   26.0200 F   0  0  0  0  0  0  0  0  0  0  0  0
  -22.7910  -13.5760   21.2460 C   0  0  0  0  0  0  0  0  0  0  0  0
  -22.0930  -12.8600   22.1190 N   0  0  0  0  0  0  0  0  0  0  0  0
  -22.3340  -14.6080   20.7550 O   0  0  0  0  0  0  0  0  0  0  0  0
  -22.4780  -12.0280   22.5390 H   0  0  0  0  0  0  0  0  0  0  0  0
  -21.1590  -13.1510   22.3740 H   0  0  0  0  0  0  0  0  0  0  0  0
  -25.3630  -15.2790   20.4050 N   0  0  0  0  0  0  0  0  0  0  0  0
  -24.5980  -15.9230   20.5720 H   0  0  0  0  0  0  0  0  0  0  0  0
  -26.2100  -15.7380   20.1030 H   0  0  0  0  0  0  0  0  0  0  0  0
  1  2  1  0
  3 14  2  0
  4  2  1  0
  4  9  1  0
  5 13  1  0
  5 15  1  0
  6 12  1  0
  6  8  1  0
  7 13  1  0
  8  7  1  0
  9  8  2  0
 10  4  2  0
 11 10  1  0
 11  6  2  0
 12  5  1  0
 13  3  1  0
 15 17  2  0
 16 15  1  0
 18 16  1  0
 19 28  2  0
 19 24  1  0
 20 16  1  0
 20 24  1  0
 21 20  1  0
 22 23  1  0
 22 21  1  0
 23 19  1  0
 24 25  2  0
 25 26  1  0
 27 26  2  0
 28 27  1  0
 29  3  1  0
 29 34  1  0
 29 30  1  0
 30 33  1  1
 30 31  1  0
 32 30  1  0
 34 37  1  0
 35 39  1  0
 35 34  1  0
 36 35  2  0
 39 38  1  0
 41 39  1  0
 41 42  1  0
 41 40  1  0
 43  1  2  0
 43 44  1  0
 45 55  1  0
 45 44  2  0
 46 55  1  0
 47 52  1  0
 48 49  1  0
 48 47  1  0
 50 49  1  0
 50 59  1  0
 50 51  1  0
 52 46  1  0
 52 51  1  0
 53 46  2  0
 55 54  1  0
 56 57  2  0
 57 76  1  0
 58 57  1  0
 58 61  1  0
 59 60  1  0
 59 56  1  0
 60 58  2  0
 61 62  1  0
 62 63  2  0
 64 67  1  0
 64 63  1  0
 65 64  2  0
 66 65  1  0
 66 61  2  0
 67 68  1  0
 68 69  1  0
 69 70  2  0
 71 70  1  0
 71 75  1  0
 72 71  2  0
 73 68  2  0
 73 72  1  0
 74 73  1  0
 76 77  1  0
 77 80  1  0
 77 79  1  0
 78 76  2  0
 81 56  1  0
 81 82  1  0
 83 81  1  0
M  ISO  4   1 101   2 101  46 100  55 100
M  END
>  <TORSDO>  (70) 
F 19

>  <SCORE>  (70) 
-16.403

>  <name>  (70) 
69

>  <ligand_id>  (70) 
69

>  <original_smiles>  (70) 
[H]c1c([H])c([H])c2c(c1[H])C([H])([H])C([H])([H])C([H])([H])C2([H])N([H])C(=O)C1([H])N(C(=O)C([H])(N([H])C(=O)C([H])(N([H])C([H])([H])[H])C([H])([H])[H])C(C([H])([H])[H])(C([H])([H])[H])C([H])([H])[H])C([H])([H])c2c([H])c(OC([H])([H])C([H])([H])C([H])([H])C([H])([H])N(C(=O)N3C([H])([H])C([H])([H])C([H])([H])C([H])(n4nc(-c5c([H])c([H])c(Oc6c([H])c([H])c(F)c([H])c6F)c([H])c5[H])c(C(=O)N([H])[H])c4N([H])[H])C3([H])[H])C([H])([H])[H])c([H])c([H])c2C1([H])[H]

>  <smiles>  (70) 
[H]c1c([H])c([H])c2c(c1[H])C([H])([H])C([H])([H])C([H])([H])C2([H])N([H])C(=O)C1([H])N(C(=O)C([H])(N([H])C(=O)C([H])(N([H])C([H])([H])[H])C([H])([H])[H])C(C([H])([H])[H])(C([H])([H])[H])C([H])([H])[H])C([H])([H])c2c([H])c(OC([H])([H])C([H])([H])C([H])([H])C([H])([H])N(C(=O)N3C([H])([H])C([H])([H])C([H])([H])C([H])(n4nc(-c5c([H])c([H])c(Oc6c([H])c([H])c(F)c([H])c6F)c([H])c5[H])c(C(=O)N([H])[H])c4N([H])[H])C3([H])[H])C([H])([H])[H])c([H])c([H])c2C1([H])[H]

$$$$
70:0:0
     RDKit          3D

102110  0  0  1  0  0  0  0  0999 V2000
  -33.7660  -19.8450   21.1280 C   0  0  0  0  0  0  0  0  0  0  0  0
  -33.8810  -21.1760   21.0770 N   0  0  0  0  0  0  0  0  0  0  0  0
  -34.4680  -19.0870   20.4540 O   0  0  0  0  0  0  0  0  0  0  0  0
  -33.2860  -21.7130   21.6940 H   0  0  0  0  0  0  0  0  0  0  0  0
  -32.6960  -19.2810   22.0680 C   0  0  0  0  0  2  0  0  0  0  0  0
  -31.6120  -17.0600   21.4820 C   0  0  0  0  0  3  0  0  0  0  0  0
  -30.7450  -19.0910   20.4340 C   0  0  0  0  0  3  0  0  0  0  0  0
  -29.7400  -16.9390   19.9220 C   0  0  0  0  0  3  0  0  0  0  0  0
  -31.6630  -18.4590   21.3070 C   0  0  0  0  0  0  0  0  0  0  0  0
  -30.6540  -16.3010   20.7810 C   0  0  0  0  0  0  0  0  0  0  0  0
  -29.7700  -18.3410   19.7330 C   0  0  0  0  0  0  0  0  0  0  0  0
  -30.9940  -13.9830   20.1090 C   0  0  0  0  0  0  0  0  0  0  0  0
  -30.5820  -11.7270   19.1970 C   0  0  0  0  0  2  0  0  0  0  0  0
  -29.6250  -11.7690   17.9900 C   0  0  0  0  0  2  0  0  0  0  0  0
  -28.1520  -11.7570   18.4460 C   0  0  0  0  0  2  0  0  0  0  0  0
  -27.8640  -12.8030   19.5520 C   0  0  0  0  0  3  0  0  0  0  0  0
  -28.9100  -12.6910   20.6830 C   0  0  0  0  0  2  0  0  0  0  0  0
  -30.2550  -12.8440   20.0950 N   0  0  0  0  0  0  0  0  0  0  0  0
  -32.0150  -14.1490   19.4370 O   0  0  0  0  0  0  0  0  0  0  0  0
  -30.5440  -14.9080   20.9660 N   0  0  0  0  0  0  0  0  0  0  0  0
  -29.7350  -14.5970   21.4830 H   0  0  0  0  0  0  0  0  0  0  0  0
  -25.5320  -13.6360   20.2700 C   0  0  0  0  0  0  0  0  0  0  0  0
  -24.4140  -12.9730   20.6970 C   0  0  0  0  0  0  0  0  0  0  0  0
  -24.7630  -11.5870   20.7140 C   0  0  0  0  0  0  0  0  0  0  0  0
  -26.5000  -12.6650   20.0640 N   0  0  0  0  0  0  0  0  0  0  0  0
  -26.0390  -11.4290   20.3840 N   0  0  0  0  0  0  0  0  0  0  0  0
  -23.9400  -10.3970   20.9710 C   0  0  0  0  0  0  0  0  0  0  0  0
  -24.3570   -9.3990   21.8790 C   0  0  0  0  0  3  0  0  0  0  0  0
  -23.5470   -8.2690   22.1220 C   0  0  0  0  0  3  0  0  0  0  0  0
  -22.3030   -8.1340   21.4620 C   0  0  0  0  0  0  0  0  0  0  0  0
  -21.9020   -9.1180   20.5430 C   0  0  0  0  0  3  0  0  0  0  0  0
  -22.7120  -10.2400   20.2960 C   0  0  0  0  0  3  0  0  0  0  0  0
  -21.4590   -7.0610   21.6230 O   0  0  0  0  0  0  0  0  0  0  0  0
  -21.4910   -6.2800   22.7490 C   0  0  0  0  0  0  0  0  0  0  0  0
  -21.2820   -6.8200   24.0390 C   0  0  0  0  0  3  0  0  0  0  0  0
  -21.2530   -5.9690   25.1610 C   0  0  0  0  0  3  0  0  0  0  0  0
  -21.4250   -4.5820   24.9980 C   0  0  0  0  0  0  0  0  0  0  0  0
  -21.6300   -4.0420   23.7150 C   0  0  0  0  0  3  0  0  0  0  0  0
  -21.6600   -4.8890   22.5950 C   0  0  0  0  0  0  0  0  0  0  0  0
  -21.8350   -4.3620   21.3580 F   0  0  0  0  0  0  0  0  0  0  0  0
  -21.3910   -3.7630   26.0750 F   0  0  0  0  0  0  0  0  0  0  0  0
  -23.0660  -13.5730   20.9780 C   0  0  0  0  0  0  0  0  0  0  0  0
  -22.3130  -12.9880   21.9040 N   0  0  0  0  0  0  0  0  0  0  0  0
  -22.6900  -14.5940   20.4050 O   0  0  0  0  0  0  0  0  0  0  0  0
  -22.6310  -12.1620   22.3900 H   0  0  0  0  0  0  0  0  0  0  0  0
  -21.4070  -13.3700   22.1320 H   0  0  0  0  0  0  0  0  0  0  0  0
  -25.8020  -14.9770   20.0190 N   0  0  0  0  0  0  0  0  0  0  0  0
  -25.0850  -15.6880   20.0910 H   0  0  0  0  0  0  0  0  0  0  0  0
  -26.6510  -15.3020   19.5760 H   0  0  0  0  0  0  0  0  0  0  0  0
  -28.2620  -18.1250   17.8040 C   0  0  0  0  0  1  0  0  0  0  0  0
  -28.8420  -18.9520   18.8630 N   0  0  0  0  0  0  0  0  0  0  0  0
  -27.1000  -20.7210   18.8720 C   0  0  0  0  0  1  0  0  0  0  0  0
  -29.3820  -21.1410   17.8230 C   0  0  0  0  0  1  0  0  0  0  0  0
  -28.6020  -20.3970   18.9180 C   0  0  0  0  0  3  0  0  0  0  0  0
  -34.7460  -21.9330   20.1780 C   0  0  0  0  0  2  0  0  0  0  0  0
  -33.9210  -22.7620   19.1810 C   0  0  0  0  0  2  0  0  0  0  0  0
  -32.9410  -23.7340   19.8560 C   0  0  0  0  0  2  0  0  0  0  0  0
  -32.0060  -24.4060   18.8460 C   0  0  0  0  0  2  0  0  0  0  0  0
  -31.1440  -25.5010   19.4860 C   0  0  0  0  0  2  0  0  0  0  0  0
  -30.1650  -26.1260   18.4830 C   0  0  0  0  0  2  0  0  0  0  0  0
  -29.4180  -27.3360   19.0540 C   0  0  0  0  0  2  0  0  0  0  0  0
  -28.5400  -26.8860   20.0770 O   0  0  0  0  0  0  0  0  0  0  0  0
  -24.5880  -31.8880   23.2380 C   0  0  0  0  0  0  0  0  0  0  0  0
  -27.3630  -27.5800   20.1230 C   0  0  0  0  0  0  0  0  0  0  0  0
  -23.4330  -30.4970   21.5490 C   0  0  0  0  0  3  0  0  0  0  0  0
  -24.9360  -29.0040   20.1320 C   0  0  0  0  0  0  0  0  0  0  0  0
  -25.9510  -30.9090   21.3980 C   0  0  0  0  0  2  0  0  0  0  0  0
  -26.0720  -29.5500   20.7450 C   0  0  0  0  0  0  0  0  0  0  0  0
  -27.2900  -28.8420   20.7430 C   0  0  0  0  0  3  0  0  0  0  0  0
  -26.2160  -27.0280   19.5210 C   0  0  0  0  0  3  0  0  0  0  0  0
  -25.0000  -27.7380   19.5190 C   0  0  0  0  0  3  0  0  0  0  0  0
  -23.6770  -29.8400   20.1640 C   0  0  0  0  0  2  0  0  0  0  0  0
  -24.6740  -31.1120   22.1220 N   0  0  0  0  0  0  0  0  0  0  0  0
  -23.4950  -32.1350   23.7640 O   0  0  0  0  0  0  0  0  0  0  0  0
  -22.7820  -29.4500   22.4810 C   0  0  0  0  0  0  0  0  0  0  0  0
  -21.4560  -29.2830   22.3550 N   0  0  0  0  0  0  0  0  0  0  0  0
  -23.4660  -28.7920   23.2680 O   0  0  0  0  0  0  0  0  0  0  0  0
  -20.9660  -29.8660   21.6900 H   0  0  0  0  0  0  0  0  0  0  0  0
  -18.0690  -28.1250   22.8460 C   0  0  0  0  0  0  0  0  0  0  0  0
  -20.6340  -28.3280   23.0970 C   0  0  0  0  0  3  0  0  0  0  0  0
  -20.7070  -26.9220   22.4610 C   0  0  0  0  0  2  0  0  0  0  0  0
  -19.5870  -26.6580   21.4500 C   0  0  0  0  0  2  0  0  0  0  0  0
  -18.2160  -26.8000   22.1160 C   0  0  0  0  0  2  0  0  0  0  0  0
  -19.2060  -28.8510   23.2930 C   0  0  0  0  0  0  0  0  0  0  0  0
  -19.0160  -30.0930   23.9350 C   0  0  0  0  0  3  0  0  0  0  0  0
  -17.7230  -30.6100   24.1350 C   0  0  0  0  0  3  0  0  0  0  0  0
  -16.6010  -29.8790   23.7070 C   0  0  0  0  0  3  0  0  0  0  0  0
  -16.7760  -28.6390   23.0680 C   0  0  0  0  0  3  0  0  0  0  0  0
  -25.8560  -32.5250   23.8920 C   0  0  0  0  0  3  0  0  0  0  0  0
  -25.5360  -33.9230   24.2080 N   0  0  0  0  0  0  0  0  0  0  0  0
  -25.8900  -34.9720   23.4540 C   0  0  0  0  0  0  0  0  0  0  0  0
  -26.5930  -34.8650   22.4450 O   0  0  0  0  0  0  0  0  0  0  0  0
  -24.9170  -34.0800   24.9900 H   0  0  0  0  0  0  0  0  0  0  0  0
  -24.1610  -36.7490   23.0440 C   0  0  0  0  0  1  0  0  0  0  0  0
  -25.3850  -36.3610   23.8880 C   0  0  0  0  0  3  0  0  0  0  0  0
  -27.4950  -37.2640   24.7600 C   0  0  0  0  0  1  0  0  0  0  0  0
  -26.4140  -37.4190   23.7900 N   0  0  0  0  0  0  0  0  0  0  0  0
  -26.0000  -38.3380   23.9200 H   0  0  0  0  0  0  0  0  0  0  0  0
  -26.3430  -31.7580   25.1820 C   0  0  1  0  0  0  0  0  0  0  0  0
  -25.2250  -31.5230   26.2250 C   0  0  0  0  0  1  0  0  0  0  0  0
  -26.9320  -30.3780   24.8030 C   0  0  0  0  0  1  0  0  0  0  0  0
  -27.4790  -32.5520   25.8680 C   0  0  0  0  0  1  0  0  0  0  0  0
  1  5  1  0
  2  1  1  0
  2  4  1  0
  3  1  2  0
  7  9  2  0
  8 10  1  0
  9  6  1  0
  9  5  1  0
 10 20  1  0
 10  6  2  0
 11  8  2  0
 11  7  1  0
 12 20  1  0
 13 18  1  0
 14 15  1  0
 14 13  1  0
 16 15  1  0
 16 25  1  0
 16 17  1  0
 18 12  1  0
 18 17  1  0
 19 12  2  0
 20 21  1  0
 22 23  2  0
 23 24  1  0
 23 42  1  0
 24 27  1  0
 25 22  1  0
 25 26  1  0
 26 24  2  0
 27 28  1  0
 28 29  2  0
 30 33  1  0
 30 29  1  0
 31 30  2  0
 32 31  1  0
 32 27  2  0
 33 34  1  0
 34 35  1  0
 35 36  2  0
 37 36  1  0
 37 41  1  0
 38 37  2  0
 39 34  2  0
 39 38  1  0
 40 39  1  0
 42 43  1  0
 43 46  1  0
 43 45  1  0
 44 42  2  0
 47 48  1  0
 47 22  1  0
 49 47  1  0
 50 51  1  0
 51 54  1  0
 51 11  1  0
 52 54  1  0
 53 54  1  0
 55  2  1  0
 56 57  1  0
 56 55  1  0
 58 59  1  0
 58 57  1  0
 60 61  1  0
 60 59  1  0
 61 62  1  0
 62 64  1  0
 63 74  2  0
 64 69  1  0
 65 73  1  0
 65 75  1  0
 66 72  1  0
 66 68  1  0
 67 73  1  0
 68 67  1  0
 69 68  2  0
 70 64  2  0
 71 70  1  0
 71 66  2  0
 72 65  1  0
 73 63  1  0
 75 77  2  0
 76 75  1  0
 78 76  1  0
 79 88  2  0
 79 84  1  0
 80 76  1  0
 80 84  1  0
 81 80  1  0
 82 83  1  0
 82 81  1  0
 83 79  1  0
 84 85  2  0
 85 86  1  0
 87 86  2  0
 88 87  1  0
 89 63  1  0
 89 90  1  0
 89 99  1  0
 90 93  1  0
 91 95  1  0
 91 90  1  0
 92 91  2  0
 95 94  1  0
 97 95  1  0
 97 98  1  0
 97 96  1  0
 99102  1  1
 99100  1  0
101 99  1  0
M  ISO  4  12 100  20 100  61 101  62 101
M  END
>  <TORSDO>  (71) 
F 27

>  <SCORE>  (71) 
-11.627

>  <name>  (71) 
70

>  <ligand_id>  (71) 
70

>  <original_smiles>  (71) 
[H]c1c([H])c([H])c2c(c1[H])C([H])([H])C([H])([H])C([H])([H])C2([H])N([H])C(=O)C1([H])N(C(=O)C([H])(N([H])C(=O)C([H])(N([H])C([H])([H])[H])C([H])([H])[H])C(C([H])([H])[H])(C([H])([H])[H])C([H])([H])[H])C([H])([H])c2c([H])c(OC([H])([H])C([H])([H])C([H])([H])C([H])([H])C([H])([H])C([H])([H])C([H])([H])N([H])C(=O)C([H])([H])c3c([H])c(N([H])C(=O)N4C([H])([H])C([H])([H])C([H])([H])C([H])(n5nc(-c6c([H])c([H])c(Oc7c([H])c([H])c(F)c([H])c7F)c([H])c6[H])c(C(=O)N([H])[H])c5N([H])[H])C4([H])[H])c([H])c(N(C([H])([H])[H])C([H])(C([H])([H])[H])C([H])([H])[H])c3[H])c([H])c([H])c2C1([H])[H]

>  <smiles>  (71) 
[H]c1c([H])c([H])c2c(c1[H])C([H])([H])C([H])([H])C([H])([H])C2([H])N([H])C(=O)C1([H])N(C(=O)C([H])(N([H])C(=O)C([H])(N([H])C([H])([H])[H])C([H])([H])[H])C(C([H])([H])[H])(C([H])([H])[H])C([H])([H])[H])C([H])([H])c2c([H])c(OC([H])([H])C([H])([H])C([H])([H])C([H])([H])C([H])([H])C([H])([H])C([H])([H])N([H])C(=O)C([H])([H])c3c([H])c(N([H])C(=O)N4C([H])([H])C([H])([H])C([H])([H])C([H])(n5nc(-c6c([H])c([H])c(Oc7c([H])c([H])c(F)c([H])c7F)c([H])c6[H])c(C(=O)N([H])[H])c5N([H])[H])C4([H])[H])c([H])c(N(C([H])([H])[H])C([H])(C([H])([H])[H])C([H])([H])[H])c3[H])c([H])c([H])c2C1([H])[H]

$$$$
71:0:0
     RDKit          3D

 91 99  0  0  1  0  0  0  0  0999 V2000
  -28.8640  -23.4360   20.4200 C   0  0  0  0  0  0  0  0  0  0  0  0
  -28.5660  -22.1230   19.9750 N   0  0  0  0  0  0  0  0  0  0  0  0
  -29.8230  -23.6340   21.1690 O   0  0  0  0  0  0  0  0  0  0  0  0
  -27.7870  -22.1740   19.3320 H   0  0  0  0  0  0  0  0  0  0  0  0
  -29.9680  -20.0950   21.0900 C   0  0  0  0  0  3  0  0  0  0  0  0
  -30.2410  -18.6590   21.2010 C   0  0  0  0  0  3  0  0  0  0  0  0
  -28.4700  -19.6430   19.3310 C   0  0  0  0  0  3  0  0  0  0  0  0
  -28.7380  -18.2200   19.4300 C   0  0  0  0  0  0  0  0  0  0  0  0
  -29.0390  -20.6720   20.1540 C   0  0  0  0  0  0  0  0  0  0  0  0
  -29.6360  -17.6320   20.3850 C   0  0  0  0  0  0  0  0  0  0  0  0
  -27.9880  -17.3060   18.4760 C   0  0  0  0  0  1  0  0  0  0  0  0
  -30.5120  -15.0110   20.4260 C   0  0  0  0  0  0  0  0  0  0  0  0
  -30.4420  -12.6530   19.5020 C   0  0  0  0  0  2  0  0  0  0  0  0
  -29.5160  -12.6120   18.2620 C   0  0  0  0  0  2  0  0  0  0  0  0
  -28.0470  -12.4000   18.6790 C   0  0  0  0  0  2  0  0  0  0  0  0
  -27.6280  -13.3220   19.8530 C   0  0  0  0  0  3  0  0  0  0  0  0
  -28.6730  -13.3200   20.9900 C   0  0  0  0  0  2  0  0  0  0  0  0
  -29.9550  -13.7350   20.4020 N   0  0  0  0  0  0  0  0  0  0  0  0
  -31.7030  -15.1280   20.1210 O   0  0  0  0  0  0  0  0  0  0  0  0
  -29.6580  -16.1200   20.6440 N   0  0  0  0  0  0  0  0  0  0  0  0
  -28.7370  -15.7720   20.8630 H   0  0  0  0  0  0  0  0  0  0  0  0
  -25.2330  -13.8960   20.5660 C   0  0  0  0  0  0  0  0  0  0  0  0
  -24.1680  -13.1180   20.9240 C   0  0  0  0  0  0  0  0  0  0  0  0
  -24.6370  -11.7690   20.8970 C   0  0  0  0  0  0  0  0  0  0  0  0
  -26.2830  -13.0210   20.3370 N   0  0  0  0  0  0  0  0  0  0  0  0
  -25.9320  -11.7360   20.6010 N   0  0  0  0  0  0  0  0  0  0  0  0
  -23.9120  -10.5040   21.0800 C   0  0  0  0  0  0  0  0  0  0  0  0
  -24.3390   -9.5370   22.0160 C   0  0  0  0  0  3  0  0  0  0  0  0
  -23.6130   -8.3380   22.1880 C   0  0  0  0  0  3  0  0  0  0  0  0
  -22.4460   -8.1000   21.4240 C   0  0  0  0  0  0  0  0  0  0  0  0
  -22.0390   -9.0560   20.4770 C   0  0  0  0  0  3  0  0  0  0  0  0
  -22.7650  -10.2460   20.3030 C   0  0  0  0  0  3  0  0  0  0  0  0
  -21.6920   -6.9540   21.5040 O   0  0  0  0  0  0  0  0  0  0  0  0
  -21.6370   -6.2070   22.6540 C   0  0  0  0  0  0  0  0  0  0  0  0
  -21.1860   -6.7540   23.8750 C   0  0  0  0  0  3  0  0  0  0  0  0
  -21.0800   -5.9340   25.0170 C   0  0  0  0  0  3  0  0  0  0  0  0
  -21.4140   -4.5690   24.9370 C   0  0  0  0  0  0  0  0  0  0  0  0
  -21.8580   -4.0220   23.7200 C   0  0  0  0  0  3  0  0  0  0  0  0
  -21.9660   -4.8390   22.5810 C   0  0  0  0  0  0  0  0  0  0  0  0
  -22.3740   -4.3030   21.4060 F   0  0  0  0  0  0  0  0  0  0  0  0
  -21.3050   -3.7790   26.0310 F   0  0  0  0  0  0  0  0  0  0  0  0
  -22.7670  -13.5910   21.1790 C   0  0  0  0  0  0  0  0  0  0  0  0
  -22.0340  -12.8980   22.0440 N   0  0  0  0  0  0  0  0  0  0  0  0
  -22.3300  -14.6110   20.6490 O   0  0  0  0  0  0  0  0  0  0  0  0
  -22.3990  -12.0730   22.4940 H   0  0  0  0  0  0  0  0  0  0  0  0
  -21.0920  -13.1980   22.2570 H   0  0  0  0  0  0  0  0  0  0  0  0
  -25.3910  -15.2670   20.3940 N   0  0  0  0  0  0  0  0  0  0  0  0
  -24.6150  -15.9110   20.5050 H   0  0  0  0  0  0  0  0  0  0  0  0
  -26.2350  -15.7180   20.0710 H   0  0  0  0  0  0  0  0  0  0  0  0
  -27.9360  -24.7350   19.9640 C   0  0  0  0  0  2  0  0  0  0  0  0
  -28.2350  -26.2250   20.3050 O   0  0  0  0  0  0  0  0  0  0  0  0
  -24.6230  -31.9270   23.2730 C   0  0  0  0  0  0  0  0  0  0  0  0
  -27.1900  -27.2200   20.2250 C   0  0  0  0  0  0  0  0  0  0  0  0
  -23.4170  -30.5340   21.6370 C   0  0  0  0  0  3  0  0  0  0  0  0
  -24.8610  -28.9650   20.2030 C   0  0  0  0  0  0  0  0  0  0  0  0
  -25.9710  -30.7980   21.4670 C   0  0  0  0  0  2  0  0  0  0  0  0
  -26.0420  -29.4070   20.8110 C   0  0  0  0  0  0  0  0  0  0  0  0
  -27.2060  -28.5490   20.8100 C   0  0  0  0  0  3  0  0  0  0  0  0
  -25.9830  -26.8860   19.5660 C   0  0  0  0  0  3  0  0  0  0  0  0
  -24.8440  -27.7170   19.5660 C   0  0  0  0  0  3  0  0  0  0  0  0
  -23.6330  -29.8600   20.2570 C   0  0  0  0  0  2  0  0  0  0  0  0
  -24.6910  -31.1070   22.1800 N   0  0  0  0  0  0  0  0  0  0  0  0
  -23.5390  -32.2120   23.8050 O   0  0  0  0  0  0  0  0  0  0  0  0
  -22.7410  -29.5250   22.6000 C   0  0  0  0  0  0  0  0  0  0  0  0
  -21.4140  -29.3490   22.4720 N   0  0  0  0  0  0  0  0  0  0  0  0
  -23.4130  -28.9030   23.4270 O   0  0  0  0  0  0  0  0  0  0  0  0
  -20.9270  -29.9030   21.7790 H   0  0  0  0  0  0  0  0  0  0  0  0
  -18.0360  -28.1340   22.9650 C   0  0  0  0  0  0  0  0  0  0  0  0
  -20.5930  -28.4120   23.2430 C   0  0  0  0  0  3  0  0  0  0  0  0
  -20.7060  -26.9760   22.6790 C   0  0  0  0  0  2  0  0  0  0  0  0
  -19.6110  -26.6410   21.6610 C   0  0  0  0  0  2  0  0  0  0  0  0
  -18.2240  -26.7820   22.2970 C   0  0  0  0  0  2  0  0  0  0  0  0
  -19.1480  -28.9060   23.3950 C   0  0  0  0  0  0  0  0  0  0  0  0
  -18.9180  -30.1690   23.9810 C   0  0  0  0  0  3  0  0  0  0  0  0
  -17.6080  -30.6610   24.1400 C   0  0  0  0  0  3  0  0  0  0  0  0
  -16.5120  -29.8870   23.7250 C   0  0  0  0  0  3  0  0  0  0  0  0
  -16.7260  -28.6240   23.1440 C   0  0  0  0  0  3  0  0  0  0  0  0
  -25.9040  -32.5610   23.8960 C   0  0  0  0  0  3  0  0  0  0  0  0
  -25.6010  -33.9650   24.2100 N   0  0  0  0  0  0  0  0  0  0  0  0
  -25.9210  -35.0090   23.4320 C   0  0  0  0  0  0  0  0  0  0  0  0
  -26.5700  -34.8890   22.3900 O   0  0  0  0  0  0  0  0  0  0  0  0
  -25.0230  -34.1320   25.0200 H   0  0  0  0  0  0  0  0  0  0  0  0
  -24.1810  -36.7980   23.1060 C   0  0  0  0  0  1  0  0  0  0  0  0
  -25.4500  -36.4060   23.8830 C   0  0  0  0  0  3  0  0  0  0  0  0
  -27.6080  -37.3090   24.6280 C   0  0  0  0  0  1  0  0  0  0  0  0
  -26.4770  -37.4580   23.7160 N   0  0  0  0  0  0  0  0  0  0  0  0
  -26.0740  -38.3800   23.8570 H   0  0  0  0  0  0  0  0  0  0  0  0
  -26.4040  -31.8050   25.1890 C   0  0  1  0  0  0  0  0  0  0  0  0
  -25.3010  -31.5930   26.2520 C   0  0  0  0  0  1  0  0  0  0  0  0
  -26.9790  -30.4150   24.8270 C   0  0  0  0  0  1  0  0  0  0  0  0
  -27.5560  -32.6000   25.8470 C   0  0  0  0  0  1  0  0  0  0  0  0
  1  3  2  0
  2  9  1  0
  2  1  1  0
  4  2  1  0
  5  6  1  0
  7  8  2  0
  7  9  1  0
  8 10  1  0
  9  5  2  0
 10 20  1  0
 10  6  2  0
 11  8  1  0
 12 20  1  0
 13 18  1  0
 14 15  1  0
 14 13  1  0
 16 15  1  0
 16 25  1  0
 16 17  1  0
 18 12  1  0
 18 17  1  0
 19 12  2  0
 20 21  1  0
 22 23  2  0
 23 42  1  0
 24 23  1  0
 24 27  1  0
 25 22  1  0
 25 26  1  0
 26 24  2  0
 27 28  1  0
 28 29  2  0
 30 33  1  0
 30 29  1  0
 31 30  2  0
 32 31  1  0
 32 27  2  0
 33 34  1  0
 34 35  1  0
 35 36  2  0
 37 36  1  0
 37 41  1  0
 38 37  2  0
 39 34  2  0
 39 38  1  0
 40 39  1  0
 42 43  1  0
 43 46  1  0
 43 45  1  0
 44 42  2  0
 47 48  1  0
 47 22  1  0
 49 47  1  0
 50 51  1  0
 50  1  1  0
 52 63  2  0
 53 51  1  0
 53 58  1  0
 54 62  1  0
 54 64  1  0
 55 61  1  0
 55 57  1  0
 56 62  1  0
 57 56  1  0
 58 57  2  0
 59 60  1  0
 59 53  2  0
 60 55  2  0
 61 54  1  0
 62 52  1  0
 64 66  2  0
 65 64  1  0
 67 65  1  0
 68 77  2  0
 68 73  1  0
 69 65  1  0
 69 73  1  0
 70 69  1  0
 71 72  1  0
 71 70  1  0
 72 68  1  0
 73 74  2  0
 74 75  1  0
 76 75  2  0
 77 76  1  0
 78 52  1  0
 78 79  1  0
 78 88  1  0
 79 82  1  0
 80 84  1  0
 80 79  1  0
 81 80  2  0
 84 83  1  0
 86 87  1  0
 86 84  1  0
 86 85  1  0
 88 91  1  1
 88 89  1  0
 90 88  1  0
M  ISO  4  12 100  20 100  50 101  51 101
M  END
>  <TORSDO>  (72) 
F 18

>  <SCORE>  (72) 
-14.712

>  <name>  (72) 
71

>  <ligand_id>  (72) 
71

>  <original_smiles>  (72) 
[H]c1c([H])c([H])c2c(c1[H])C([H])([H])C([H])([H])C([H])([H])C2([H])N([H])C(=O)C1([H])N(C(=O)C([H])(N([H])C(=O)C([H])(N([H])C([H])([H])[H])C([H])([H])[H])C(C([H])([H])[H])(C([H])([H])[H])C([H])([H])[H])C([H])([H])c2c([H])c(OC([H])([H])C(=O)N([H])c3c([H])c([H])c(N([H])C(=O)N4C([H])([H])C([H])([H])C([H])([H])C([H])(n5nc(-c6c([H])c([H])c(Oc7c([H])c([H])c(F)c([H])c7F)c([H])c6[H])c(C(=O)N([H])[H])c5N([H])[H])C4([H])[H])c(C([H])([H])[H])c3[H])c([H])c([H])c2C1([H])[H]

>  <smiles>  (72) 
[H]c1c([H])c([H])c2c(c1[H])C([H])([H])C([H])([H])C([H])([H])C2([H])N([H])C(=O)C1([H])N(C(=O)C([H])(N([H])C(=O)C([H])(N([H])C([H])([H])[H])C([H])([H])[H])C(C([H])([H])[H])(C([H])([H])[H])C([H])([H])[H])C([H])([H])c2c([H])c(OC([H])([H])C(=O)N([H])c3c([H])c([H])c(N([H])C(=O)N4C([H])([H])C([H])([H])C([H])([H])C([H])(n5nc(-c6c([H])c([H])c(Oc7c([H])c([H])c(F)c([H])c7F)c([H])c6[H])c(C(=O)N([H])[H])c5N([H])[H])C4([H])[H])c(C([H])([H])[H])c3[H])c([H])c([H])c2C1([H])[H]

$$$$
72:0:0
     RDKit          3D

 87 94  0  0  1  0  0  0  0  0999 V2000
  -30.3300  -15.6950   20.2150 C   0  0  0  0  0  0  0  0  0  0  0  0
  -30.5330  -13.0850   19.6150 C   0  0  0  0  0  2  0  0  0  0  0  0
  -29.7400  -12.5430   18.3910 C   0  0  0  0  0  2  0  0  0  0  0  0
  -28.2950  -12.1890   18.7770 C   0  0  0  0  0  2  0  0  0  0  0  0
  -27.6880  -13.2610   19.7100 C   0  0  0  0  0  3  0  0  0  0  0  0
  -28.6340  -13.7020   20.8540 C   0  0  0  0  0  2  0  0  0  0  0  0
  -29.8310  -14.3100   20.2210 N   0  0  0  0  0  0  0  0  0  0  0  0
  -31.5770  -15.6460   20.1430 O   0  0  0  0  0  0  0  0  0  0  0  0
  -28.8100  -18.6750   19.9410 C   0  0  0  0  0  3  0  0  0  0  0  0
  -29.4690  -17.2220   20.0770 N   0  0  0  0  0  0  0  0  0  0  0  0
  -28.7010  -20.2630   19.7900 N   0  0  0  0  0  0  0  0  0  0  0  0
  -30.3170  -17.7650   20.0470 H   0  0  0  0  0  0  0  0  0  0  0  0
  -27.6950  -20.3630   19.7850 H   0  0  0  0  0  0  0  0  0  0  0  0
  -25.2710  -13.7800   20.2920 C   0  0  0  0  0  0  0  0  0  0  0  0
  -24.2030  -13.0080   20.6360 C   0  0  0  0  0  0  0  0  0  0  0  0
  -24.6970  -11.6700   20.7100 C   0  0  0  0  0  0  0  0  0  0  0  0
  -26.3470  -12.9240   20.1670 N   0  0  0  0  0  0  0  0  0  0  0  0
  -26.0090  -11.6460   20.4860 N   0  0  0  0  0  0  0  0  0  0  0  0
  -23.9750  -10.4100   20.9190 C   0  0  0  0  0  0  0  0  0  0  0  0
  -24.3650   -9.4900   21.9160 C   0  0  0  0  0  3  0  0  0  0  0  0
  -23.6370   -8.2970   22.1130 C   0  0  0  0  0  3  0  0  0  0  0  0
  -22.5040   -8.0160   21.3130 C   0  0  0  0  0  0  0  0  0  0  0  0
  -22.1330   -8.9250   20.3060 C   0  0  0  0  0  3  0  0  0  0  0  0
  -22.8630  -10.1090   20.1070 C   0  0  0  0  0  3  0  0  0  0  0  0
  -21.7530   -6.8710   21.4170 O   0  0  0  0  0  0  0  0  0  0  0  0
  -21.6600   -6.1760   22.5940 C   0  0  0  0  0  0  0  0  0  0  0  0
  -21.1890   -6.7790   23.7810 C   0  0  0  0  0  3  0  0  0  0  0  0
  -21.0440   -6.0100   24.9530 C   0  0  0  0  0  3  0  0  0  0  0  0
  -21.3610   -4.6390   24.9390 C   0  0  0  0  0  0  0  0  0  0  0  0
  -21.8270   -4.0350   23.7570 C   0  0  0  0  0  3  0  0  0  0  0  0
  -21.9730   -4.8010   22.5870 C   0  0  0  0  0  0  0  0  0  0  0  0
  -22.4010   -4.2110   21.4460 F   0  0  0  0  0  0  0  0  0  0  0  0
  -21.2150   -3.8970   26.0610 F   0  0  0  0  0  0  0  0  0  0  0  0
  -22.7860  -13.4780   20.7800 C   0  0  0  0  0  0  0  0  0  0  0  0
  -22.0140  -12.8360   21.6460 N   0  0  0  0  0  0  0  0  0  0  0  0
  -22.3720  -14.4570   20.1580 O   0  0  0  0  0  0  0  0  0  0  0  0
  -22.3630  -12.0470   22.1710 H   0  0  0  0  0  0  0  0  0  0  0  0
  -21.0600  -13.1360   21.7880 H   0  0  0  0  0  0  0  0  0  0  0  0
  -25.4050  -15.1370   20.0420 N   0  0  0  0  0  0  0  0  0  0  0  0
  -24.6050  -15.7590   20.0590 H   0  0  0  0  0  0  0  0  0  0  0  0
  -26.2520  -15.5800   19.7170 H   0  0  0  0  0  0  0  0  0  0  0  0
  -26.9180  -17.7410   18.5930 C   0  0  0  0  0  1  0  0  0  0  0  0
  -26.9700  -17.4770   21.1830 C   0  0  0  0  0  1  0  0  0  0  0  0
  -27.3260  -18.3340   19.9530 C   0  0  0  0  0  3  0  0  0  0  0  0
  -29.0430  -22.0180   19.6340 C   0  0  0  0  0  3  0  0  0  0  0  0
  -28.0020  -23.6800   19.5650 C   0  0  0  0  0  3  0  0  0  0  0  0
  -28.1450  -25.4500   19.6240 O   0  0  0  0  0  0  0  0  0  0  0  0
  -24.6290  -31.5820   22.9010 C   0  0  0  0  0  0  0  0  0  0  0  0
  -27.1480  -26.6500   19.6490 C   0  0  0  0  0  0  0  0  0  0  0  0
  -23.4220  -30.2460   21.2280 C   0  0  0  0  0  3  0  0  0  0  0  0
  -24.8560  -28.6680   19.7220 C   0  0  0  0  0  0  0  0  0  0  0  0
  -25.9980  -30.4120   21.0670 C   0  0  0  0  0  2  0  0  0  0  0  0
  -26.0620  -29.0080   20.3470 C   0  0  0  0  0  0  0  0  0  0  0  0
  -27.1890  -28.0310   20.2770 C   0  0  0  0  0  3  0  0  0  0  0  0
  -25.9030  -26.5240   18.9810 C   0  0  0  0  0  3  0  0  0  0  0  0
  -24.8150  -27.4520   19.0160 C   0  0  0  0  0  3  0  0  0  0  0  0
  -23.6430  -29.6070   19.8260 C   0  0  0  0  0  2  0  0  0  0  0  0
  -24.7080  -30.7780   21.7860 N   0  0  0  0  0  0  0  0  0  0  0  0
  -23.5430  -31.8510   23.4440 O   0  0  0  0  0  0  0  0  0  0  0  0
  -22.7290  -29.2240   22.1700 C   0  0  0  0  0  0  0  0  0  0  0  0
  -21.3920  -29.0900   22.0870 N   0  0  0  0  0  0  0  0  0  0  0  0
  -23.4080  -28.5490   22.9480 O   0  0  0  0  0  0  0  0  0  0  0  0
  -20.8930  -29.6840   21.4400 H   0  0  0  0  0  0  0  0  0  0  0  0
  -18.0080  -27.9030   22.6840 C   0  0  0  0  0  0  0  0  0  0  0  0
  -20.5830  -28.1190   22.8370 C   0  0  0  0  0  3  0  0  0  0  0  0
  -20.6310  -26.7240   22.1700 C   0  0  0  0  0  2  0  0  0  0  0  0
  -19.4780  -26.4830   21.1920 C   0  0  0  0  0  2  0  0  0  0  0  0
  -18.1300  -26.6020   21.9090 C   0  0  0  0  0  2  0  0  0  0  0  0
  -19.1590  -28.6240   23.1060 C   0  0  0  0  0  0  0  0  0  0  0  0
  -18.9850  -29.8410   23.7990 C   0  0  0  0  0  3  0  0  0  0  0  0
  -17.6960  -30.3410   24.0680 C   0  0  0  0  0  3  0  0  0  0  0  0
  -16.5620  -29.6180   23.6580 C   0  0  0  0  0  3  0  0  0  0  0  0
  -16.7200  -28.4000   22.9720 C   0  0  0  0  0  3  0  0  0  0  0  0
  -25.8990  -32.2160   23.5480 C   0  0  0  0  0  3  0  0  0  0  0  0
  -25.5540  -33.5790   23.9990 N   0  0  0  0  0  0  0  0  0  0  0  0
  -25.8480  -34.7090   23.3390 C   0  0  0  0  0  0  0  0  0  0  0  0
  -26.4930  -34.7140   22.2880 O   0  0  0  0  0  0  0  0  0  0  0  0
  -24.9740  -33.6450   24.8220 H   0  0  0  0  0  0  0  0  0  0  0  0
  -24.0770  -36.4980   23.2090 C   0  0  0  0  0  1  0  0  0  0  0  0
  -25.3530  -36.0440   23.9380 C   0  0  0  0  0  3  0  0  0  0  0  0
  -27.4960  -36.9030   24.7770 C   0  0  0  0  0  1  0  0  0  0  0  0
  -26.3610  -37.1260   23.8850 N   0  0  0  0  0  0  0  0  0  0  0  0
  -25.9420  -38.0210   24.1240 H   0  0  0  0  0  0  0  0  0  0  0  0
  -26.4560  -31.3770   24.7640 C   0  0  1  0  0  0  0  0  0  0  0  0
  -25.3930  -31.0600   25.8440 C   0  0  0  0  0  1  0  0  0  0  0  0
  -27.0490  -30.0330   24.2880 C   0  0  0  0  0  1  0  0  0  0  0  0
  -27.6130  -32.1470   25.4450 C   0  0  0  0  0  1  0  0  0  0  0  0
  1  7  1  0
  2  7  1  0
  3  4  1  0
  3  2  1  0
  5  4  1  0
  5 17  1  0
  5  6  1  0
  7  6  1  0
  8  1  2  0
  9 44  1  0
  9 10  1  0
 10  1  1  0
 11  9  1  0
 12 10  1  0
 13 11  1  0
 14 15  2  0
 15 16  1  0
 15 34  1  0
 16 19  1  0
 17 14  1  0
 17 18  1  0
 18 16  2  0
 19 20  1  0
 20 21  2  0
 22 25  1  0
 22 21  1  0
 23 22  2  0
 24 23  1  0
 24 19  2  0
 25 26  1  0
 26 27  1  0
 27 28  2  0
 29 28  1  0
 29 33  1  0
 30 29  2  0
 31 26  2  0
 31 30  1  0
 32 31  1  0
 34 35  1  0
 35 38  1  0
 35 37  1  0
 36 34  2  0
 39 40  1  0
 39 14  1  0
 41 39  1  0
 42 44  1  0
 44 43  1  0
 45 11  1  0
 46 47  1  0
 46 45  2  0
 47 49  1  0
 48 59  2  0
 49 54  1  0
 50 58  1  0
 50 60  1  0
 51 57  1  0
 51 53  1  0
 52 58  1  0
 53 52  1  0
 54 53  2  0
 55 56  1  0
 55 49  2  0
 56 51  2  0
 57 50  1  0
 58 48  1  0
 60 62  2  0
 61 60  1  0
 63 61  1  0
 64 73  2  0
 64 69  1  0
 65 61  1  0
 65 69  1  0
 66 65  1  0
 67 68  1  0
 67 66  1  0
 68 64  1  0
 69 70  2  0
 70 71  1  0
 72 71  2  0
 73 72  1  0
 74 48  1  0
 74 75  1  0
 74 84  1  0
 75 78  1  0
 76 80  1  0
 76 75  1  0
 77 76  2  0
 80 79  1  0
 82 80  1  0
 82 83  1  0
 82 81  1  0
 84 87  1  1
 84 85  1  0
 86 84  1  0
M  ISO  4   1 100  10 100  46 101  47 101
M  END
>  <TORSDO>  (73) 
F 18

>  <SCORE>  (73) 
-12.673

>  <name>  (73) 
72

>  <ligand_id>  (73) 
72

>  <original_smiles>  (73) 
[H]c1c([H])c([H])c2c(c1[H])C([H])([H])C([H])([H])C([H])([H])C2([H])N([H])C(=O)C1([H])N(C(=O)C([H])(N([H])C(=O)C([H])(N([H])C([H])([H])[H])C([H])([H])[H])C(C([H])([H])[H])(C([H])([H])[H])C([H])([H])[H])C([H])([H])c2c([H])c(OC([H])([H])C([H])([H])[N+]([H])=C(N([H])C(=O)N3C([H])([H])C([H])([H])C([H])([H])C([H])(n4nc(-c5c([H])c([H])c(Oc6c([H])c([H])c(F)c([H])c6F)c([H])c5[H])c(C(=O)N([H])[H])c4N([H])[H])C3([H])[H])C([H])(C([H])([H])[H])C([H])([H])[H])c([H])c([H])c2C1([H])[H]

>  <smiles>  (73) 
[H]c1c([H])c([H])c2c(c1[H])C([H])([H])C([H])([H])C([H])([H])C2([H])N([H])C(=O)C1([H])N(C(=O)C([H])(N([H])C(=O)C([H])(N([H])C([H])([H])[H])C([H])([H])[H])C(C([H])([H])[H])(C([H])([H])[H])C([H])([H])[H])C([H])([H])c2c([H])c(OC([H])([H])C([H])([H])[N+]([H])=C(N([H])C(=O)N3C([H])([H])C([H])([H])C([H])([H])C([H])(n4nc(-c5c([H])c([H])c(Oc6c([H])c([H])c(F)c([H])c6F)c([H])c5[H])c(C(=O)N([H])[H])c4N([H])[H])C3([H])[H])C([H])(C([H])([H])[H])C([H])([H])[H])c([H])c([H])c2C1([H])[H]

$$$$
73:0:0
     RDKit          3D

 89 97  0  0  1  0  0  0  0  0999 V2000
  -28.5390  -18.1200   19.6230 C   0  0  0  0  0  3  0  0  0  0  0  0
  -28.1980  -19.5280   19.4980 C   0  0  0  0  0  3  0  0  0  0  0  0
  -30.5580  -18.7390   20.6690 C   0  0  0  0  0  3  0  0  0  0  0  0
  -29.7430  -17.6260   20.2280 C   0  0  0  0  0  0  0  0  0  0  0  0
  -28.9920  -20.6350   19.9640 C   0  0  0  0  0  0  0  0  0  0  0  0
  -30.2180  -20.1570   20.5420 C   0  0  0  0  0  0  0  0  0  0  0  0
  -31.1040  -21.0730   21.0070 F   0  0  0  0  0  0  0  0  0  0  0  0
  -30.6070  -15.0370   20.0330 C   0  0  0  0  0  0  0  0  0  0  0  0
  -30.4250  -12.7360   18.9630 C   0  0  0  0  0  2  0  0  0  0  0  0
  -29.3920  -12.7110   17.8090 C   0  0  0  0  0  2  0  0  0  0  0  0
  -27.9610  -12.5030   18.3340 C   0  0  0  0  0  2  0  0  0  0  0  0
  -27.6560  -13.3620   19.5860 C   0  0  0  0  0  3  0  0  0  0  0  0
  -28.7900  -13.2890   20.6230 C   0  0  0  0  0  2  0  0  0  0  0  0
  -30.0150  -13.7690   19.9610 N   0  0  0  0  0  0  0  0  0  0  0  0
  -31.7230  -15.1580   19.5130 O   0  0  0  0  0  0  0  0  0  0  0  0
  -29.8500  -16.0130   22.1040 C   0  0  0  0  0  1  0  0  0  0  0  0
  -29.9500  -16.1550   20.6420 N   0  0  0  0  0  0  0  0  0  0  0  0
  -25.3450  -13.9070   20.5390 C   0  0  0  0  0  0  0  0  0  0  0  0
  -24.3100  -13.1190   20.9530 C   0  0  0  0  0  0  0  0  0  0  0  0
  -24.7590  -11.7690   20.8120 C   0  0  0  0  0  0  0  0  0  0  0  0
  -26.3590  -13.0410   20.1710 N   0  0  0  0  0  0  0  0  0  0  0  0
  -26.0210  -11.7440   20.4000 N   0  0  0  0  0  0  0  0  0  0  0  0
  -24.0390  -10.5020   20.9910 C   0  0  0  0  0  0  0  0  0  0  0  0
  -24.4890   -9.5160   21.8970 C   0  0  0  0  0  3  0  0  0  0  0  0
  -23.7670   -8.3140   22.0640 C   0  0  0  0  0  3  0  0  0  0  0  0
  -22.5810   -8.0900   21.3260 C   0  0  0  0  0  0  0  0  0  0  0  0
  -22.1490   -9.0650   20.4110 C   0  0  0  0  0  3  0  0  0  0  0  0
  -22.8700  -10.2590   20.2420 C   0  0  0  0  0  3  0  0  0  0  0  0
  -21.8290   -6.9430   21.4050 O   0  0  0  0  0  0  0  0  0  0  0  0
  -21.7340   -6.2230   22.5690 C   0  0  0  0  0  0  0  0  0  0  0  0
  -21.2260   -6.7920   23.7570 C   0  0  0  0  0  3  0  0  0  0  0  0
  -21.0830   -6.0000   24.9130 C   0  0  0  0  0  3  0  0  0  0  0  0
  -21.4300   -4.6360   24.8800 C   0  0  0  0  0  0  0  0  0  0  0  0
  -21.9310   -4.0650   23.6970 C   0  0  0  0  0  3  0  0  0  0  0  0
  -22.0790   -4.8560   22.5430 C   0  0  0  0  0  0  0  0  0  0  0  0
  -22.5400   -4.2960   21.3990 F   0  0  0  0  0  0  0  0  0  0  0  0
  -21.2840   -3.8730   25.9880 F   0  0  0  0  0  0  0  0  0  0  0  0
  -22.9420  -13.5870   21.3570 C   0  0  0  0  0  0  0  0  0  0  0  0
  -22.2860  -12.8590   22.2520 N   0  0  0  0  0  0  0  0  0  0  0  0
  -22.4690  -14.6340   20.9160 O   0  0  0  0  0  0  0  0  0  0  0  0
  -22.6830  -12.0130   22.6320 H   0  0  0  0  0  0  0  0  0  0  0  0
  -21.3700  -13.1520   22.5630 H   0  0  0  0  0  0  0  0  0  0  0  0
  -25.5010  -15.2860   20.4130 N   0  0  0  0  0  0  0  0  0  0  0  0
  -24.7370  -15.9300   20.5880 H   0  0  0  0  0  0  0  0  0  0  0  0
  -26.3150  -15.7320   20.0140 H   0  0  0  0  0  0  0  0  0  0  0  0
  -28.4920  -22.0060   19.7860 O   0  0  0  0  0  0  0  0  0  0  0  0
  -28.9210  -23.3680   20.3580 C   0  0  0  0  0  3  0  0  0  0  0  0
  -28.0590  -24.7600   19.9530 C   0  0  0  0  0  3  0  0  0  0  0  0
  -28.2720  -26.2510   20.3550 O   0  0  0  0  0  0  0  0  0  0  0  0
  -24.6280  -31.9160   23.3490 C   0  0  0  0  0  0  0  0  0  0  0  0
  -27.2130  -27.2280   20.2830 C   0  0  0  0  0  0  0  0  0  0  0  0
  -23.4270  -30.5350   21.7000 C   0  0  0  0  0  3  0  0  0  0  0  0
  -24.8760  -28.9640   20.2660 C   0  0  0  0  0  0  0  0  0  0  0  0
  -25.9800  -30.7960   21.5380 C   0  0  0  0  0  2  0  0  0  0  0  0
  -26.0540  -29.4070   20.8820 C   0  0  0  0  0  0  0  0  0  0  0  0
  -27.2190  -28.5520   20.8820 C   0  0  0  0  0  3  0  0  0  0  0  0
  -26.0110  -26.8910   19.6200 C   0  0  0  0  0  3  0  0  0  0  0  0
  -24.8670  -27.7190   19.6220 C   0  0  0  0  0  3  0  0  0  0  0  0
  -23.6470  -29.8600   20.3190 C   0  0  0  0  0  2  0  0  0  0  0  0
  -24.6990  -31.1040   22.2520 N   0  0  0  0  0  0  0  0  0  0  0  0
  -23.5420  -32.2030   23.8760 O   0  0  0  0  0  0  0  0  0  0  0  0
  -22.7450  -29.5230   22.6520 C   0  0  0  0  0  0  0  0  0  0  0  0
  -21.4210  -29.3390   22.5020 N   0  0  0  0  0  0  0  0  0  0  0  0
  -23.4070  -28.9080   23.4910 O   0  0  0  0  0  0  0  0  0  0  0  0
  -20.9450  -29.8910   21.8010 H   0  0  0  0  0  0  0  0  0  0  0  0
  -18.0480  -28.0930   22.9380 C   0  0  0  0  0  0  0  0  0  0  0  0
  -20.5950  -28.3970   23.2620 C   0  0  0  0  0  3  0  0  0  0  0  0
  -20.7310  -26.9610   22.7030 C   0  0  0  0  0  2  0  0  0  0  0  0
  -19.6570  -26.6110   21.6690 C   0  0  0  0  0  2  0  0  0  0  0  0
  -18.2580  -26.7400   22.2780 C   0  0  0  0  0  2  0  0  0  0  0  0
  -19.1440  -28.8770   23.3840 C   0  0  0  0  0  0  0  0  0  0  0  0
  -18.8920  -30.1400   23.9620 C   0  0  0  0  0  3  0  0  0  0  0  0
  -17.5760  -30.6200   24.0960 C   0  0  0  0  0  3  0  0  0  0  0  0
  -16.4940  -29.8360   23.6610 C   0  0  0  0  0  3  0  0  0  0  0  0
  -16.7300  -28.5730   23.0900 C   0  0  0  0  0  3  0  0  0  0  0  0
  -25.9050  -32.5420   23.9870 C   0  0  0  0  0  3  0  0  0  0  0  0
  -26.3930  -31.7820   25.2810 C   0  0  1  0  0  0  0  0  0  0  0  0
  -25.2790  -31.5590   26.3320 C   0  0  0  0  0  1  0  0  0  0  0  0
  -26.9760  -30.3960   24.9170 C   0  0  0  0  0  1  0  0  0  0  0  0
  -27.5410  -32.5750   25.9530 C   0  0  0  0  0  1  0  0  0  0  0  0
  -25.6020  -33.9470   24.3020 N   0  0  0  0  0  0  0  0  0  0  0  0
  -25.9260  -34.9930   23.5280 C   0  0  0  0  0  0  0  0  0  0  0  0
  -26.5800  -34.8750   22.4870 O   0  0  0  0  0  0  0  0  0  0  0  0
  -25.0050  -34.1090   25.0980 H   0  0  0  0  0  0  0  0  0  0  0  0
  -24.1820  -36.7830   23.2120 C   0  0  0  0  0  1  0  0  0  0  0  0
  -25.4530  -36.3890   23.9790 C   0  0  0  0  0  3  0  0  0  0  0  0
  -27.6170  -37.2910   24.7180 C   0  0  0  0  0  1  0  0  0  0  0  0
  -26.4800  -37.4420   23.8120 N   0  0  0  0  0  0  0  0  0  0  0  0
  -26.0780  -38.3630   23.9580 H   0  0  0  0  0  0  0  0  0  0  0  0
  1  4  1  0
  2  1  2  0
  2  5  1  0
  4 17  1  0
  4  3  2  0
  5  6  2  0
  6  3  1  0
  6  7  1  0
  8 17  1  0
  9 14  1  0
 10 11  1  0
 10  9  1  0
 12 11  1  0
 12 21  1  0
 12 13  1  0
 14  8  1  0
 14 13  1  0
 15  8  2  0
 17 16  1  0
 18 19  2  0
 19 38  1  0
 20 19  1  0
 20 23  1  0
 21 22  1  0
 21 18  1  0
 22 20  2  0
 23 24  1  0
 24 25  2  0
 26 29  1  0
 26 25  1  0
 27 26  2  0
 28 27  1  0
 28 23  2  0
 29 30  1  0
 30 31  1  0
 31 32  2  0
 33 32  1  0
 33 37  1  0
 34 33  2  0
 35 30  2  0
 35 34  1  0
 36 35  1  0
 38 39  1  0
 39 42  1  0
 39 41  1  0
 40 38  2  0
 43 18  1  0
 43 44  1  0
 45 43  1  0
 46  5  1  0
 46 47  1  0
 48 49  1  0
 48 47  2  0
 50 61  2  0
 51 49  1  0
 51 56  1  0
 52 60  1  0
 52 62  1  0
 53 59  1  0
 53 55  1  0
 54 60  1  0
 55 54  1  0
 56 55  2  0
 57 58  1  0
 57 51  2  0
 58 53  2  0
 59 52  1  0
 60 50  1  0
 62 64  2  0
 63 62  1  0
 65 63  1  0
 66 75  2  0
 66 71  1  0
 67 63  1  0
 67 71  1  0
 68 67  1  0
 69 70  1  0
 69 68  1  0
 70 66  1  0
 71 72  2  0
 72 73  1  0
 74 73  2  0
 75 74  1  0
 76 50  1  0
 76 81  1  0
 76 77  1  0
 77 80  1  1
 77 78  1  0
 79 77  1  0
 81 84  1  0
 82 86  1  0
 82 81  1  0
 83 82  2  0
 86 85  1  0
 88 89  1  0
 88 86  1  0
 88 87  1  0
M  ISO  4   8 100  17 100  48 101  49 101
M  END
>  <TORSDO>  (74) 
F 19

>  <SCORE>  (74) 
-13.628

>  <name>  (74) 
73

>  <ligand_id>  (74) 
73

>  <original_smiles>  (74) 
[H]c1c([H])c([H])c2c(c1[H])C([H])([H])C([H])([H])C([H])([H])C2([H])N([H])C(=O)C1([H])N(C(=O)C([H])(N([H])C(=O)C([H])(N([H])C([H])([H])[H])C([H])([H])[H])C(C([H])([H])[H])(C([H])([H])[H])C([H])([H])[H])C([H])([H])c2c([H])c(OC([H])([H])C([H])([H])Oc3c([H])c([H])c(N(C(=O)N4C([H])([H])C([H])([H])C([H])([H])C([H])(n5nc(-c6c([H])c([H])c(Oc7c([H])c([H])c(F)c([H])c7F)c([H])c6[H])c(C(=O)N([H])[H])c5N([H])[H])C4([H])[H])C([H])([H])[H])c([H])c3F)c([H])c([H])c2C1([H])[H]

>  <smiles>  (74) 
[H]c1c([H])c([H])c2c(c1[H])C([H])([H])C([H])([H])C([H])([H])C2([H])N([H])C(=O)C1([H])N(C(=O)C([H])(N([H])C(=O)C([H])(N([H])C([H])([H])[H])C([H])([H])[H])C(C([H])([H])[H])(C([H])([H])[H])C([H])([H])[H])C([H])([H])c2c([H])c(OC([H])([H])C([H])([H])Oc3c([H])c([H])c(N(C(=O)N4C([H])([H])C([H])([H])C([H])([H])C([H])(n5nc(-c6c([H])c([H])c(Oc7c([H])c([H])c(F)c([H])c7F)c([H])c6[H])c(C(=O)N([H])[H])c5N([H])[H])C4([H])[H])C([H])([H])[H])c([H])c3F)c([H])c([H])c2C1([H])[H]

$$$$
74:0:0
     RDKit          3D

 89 97  0  0  1  0  0  0  0  0999 V2000
  -31.8640  -19.4860   20.7210 C   0  0  0  0  0  3  0  0  0  0  0  0
  -31.4230  -18.1510   20.6510 C   0  0  0  0  0  3  0  0  0  0  0  0
  -29.1940  -19.0350   20.3760 C   0  0  0  0  0  3  0  0  0  0  0  0
  -31.0180  -20.6210   20.6250 C   0  0  0  0  0  0  0  0  0  0  0  0
  -30.0700  -17.8100   20.4730 C   0  0  0  0  0  0  0  0  0  0  0  0
  -29.6040  -20.4890   20.4380 C   0  0  0  0  0  0  0  0  0  0  0  0
  -31.7410  -21.9540   20.7310 C   0  0  0  0  0  1  0  0  0  0  0  0
  -30.4900  -15.0680   20.3220 C   0  0  0  0  0  0  0  0  0  0  0  0
  -30.3750  -12.7040   19.3740 C   0  0  0  0  0  2  0  0  0  0  0  0
  -29.4320  -12.6240   18.1520 C   0  0  0  0  0  2  0  0  0  0  0  0
  -27.9780  -12.3930   18.6020 C   0  0  0  0  0  2  0  0  0  0  0  0
  -27.5690  -13.3160   19.7800 C   0  0  0  0  0  3  0  0  0  0  0  0
  -28.6370  -13.3630   20.8920 C   0  0  0  0  0  2  0  0  0  0  0  0
  -29.8870  -13.8050   20.2600 N   0  0  0  0  0  0  0  0  0  0  0  0
  -31.6980  -15.0870   20.0590 O   0  0  0  0  0  0  0  0  0  0  0  0
  -29.7250  -16.2870   20.4420 N   0  0  0  0  0  0  0  0  0  0  0  0
  -28.7370  -16.0980   20.5190 H   0  0  0  0  0  0  0  0  0  0  0  0
  -25.1940  -13.8630   20.5500 C   0  0  0  0  0  0  0  0  0  0  0  0
  -24.1400  -13.0760   20.9240 C   0  0  0  0  0  0  0  0  0  0  0  0
  -24.6170  -11.7300   20.8810 C   0  0  0  0  0  0  0  0  0  0  0  0
  -26.2430  -12.9970   20.2950 N   0  0  0  0  0  0  0  0  0  0  0  0
  -25.9070  -11.7080   20.5610 N   0  0  0  0  0  0  0  0  0  0  0  0
  -23.9030  -10.4600   21.0680 C   0  0  0  0  0  0  0  0  0  0  0  0
  -24.3500   -9.4880   21.9910 C   0  0  0  0  0  3  0  0  0  0  0  0
  -23.6320   -8.2850   22.1660 C   0  0  0  0  0  3  0  0  0  0  0  0
  -22.4550   -8.0450   21.4210 C   0  0  0  0  0  0  0  0  0  0  0  0
  -22.0260   -9.0060   20.4870 C   0  0  0  0  0  3  0  0  0  0  0  0
  -22.7450  -10.2000   20.3100 C   0  0  0  0  0  3  0  0  0  0  0  0
  -21.7070   -6.8950   21.5070 O   0  0  0  0  0  0  0  0  0  0  0  0
  -21.6720   -6.1450   22.6550 C   0  0  0  0  0  0  0  0  0  0  0  0
  -21.2370   -6.6830   23.8860 C   0  0  0  0  0  3  0  0  0  0  0  0
  -21.1510   -5.8580   25.0250 C   0  0  0  0  0  3  0  0  0  0  0  0
  -21.4910   -4.4940   24.9330 C   0  0  0  0  0  0  0  0  0  0  0  0
  -21.9200   -3.9550   23.7080 C   0  0  0  0  0  3  0  0  0  0  0  0
  -22.0070   -4.7770   22.5710 C   0  0  0  0  0  0  0  0  0  0  0  0
  -22.4000   -4.2480   21.3880 F   0  0  0  0  0  0  0  0  0  0  0  0
  -21.4020   -3.6990   26.0250 F   0  0  0  0  0  0  0  0  0  0  0  0
  -22.7410  -13.5400   21.2050 C   0  0  0  0  0  0  0  0  0  0  0  0
  -22.0250  -12.8360   22.0740 N   0  0  0  0  0  0  0  0  0  0  0  0
  -22.2920  -14.5620   20.6900 O   0  0  0  0  0  0  0  0  0  0  0  0
  -22.4020  -12.0090   22.5130 H   0  0  0  0  0  0  0  0  0  0  0  0
  -21.0870  -13.1300   22.3060 H   0  0  0  0  0  0  0  0  0  0  0  0
  -25.3400  -15.2370   20.3780 N   0  0  0  0  0  0  0  0  0  0  0  0
  -24.5630  -15.8770   20.4960 H   0  0  0  0  0  0  0  0  0  0  0  0
  -26.1660  -15.6860   20.0040 H   0  0  0  0  0  0  0  0  0  0  0  0
  -28.7020  -21.6740   20.3190 O   0  0  0  0  0  0  0  0  0  0  0  0
  -28.9920  -23.2290   20.4210 C   0  0  0  0  0  3  0  0  0  0  0  0
  -27.9420  -24.5690   20.1980 C   0  0  0  0  0  3  0  0  0  0  0  0
  -28.2190  -26.1220   20.3370 O   0  0  0  0  0  0  0  0  0  0  0  0
  -24.6420  -31.9290   23.2510 C   0  0  0  0  0  0  0  0  0  0  0  0
  -27.1800  -27.1370   20.2620 C   0  0  0  0  0  0  0  0  0  0  0  0
  -23.4340  -30.5330   21.6190 C   0  0  0  0  0  3  0  0  0  0  0  0
  -24.8720  -28.9310   20.2070 C   0  0  0  0  0  0  0  0  0  0  0  0
  -25.9940  -30.7650   21.4610 C   0  0  0  0  0  2  0  0  0  0  0  0
  -26.0560  -29.3640   20.8160 C   0  0  0  0  0  0  0  0  0  0  0  0
  -27.2110  -28.4850   20.8220 C   0  0  0  0  0  3  0  0  0  0  0  0
  -25.9670  -26.8160   19.6150 C   0  0  0  0  0  3  0  0  0  0  0  0
  -24.8430  -27.6730   19.5890 C   0  0  0  0  0  3  0  0  0  0  0  0
  -23.6540  -29.8440   20.2450 C   0  0  0  0  0  2  0  0  0  0  0  0
  -24.7110  -31.0990   22.1640 N   0  0  0  0  0  0  0  0  0  0  0  0
  -23.5570  -32.2270   23.7740 O   0  0  0  0  0  0  0  0  0  0  0  0
  -22.7420  -29.5410   22.5870 C   0  0  0  0  0  0  0  0  0  0  0  0
  -21.4130  -29.3830   22.4600 N   0  0  0  0  0  0  0  0  0  0  0  0
  -23.4060  -28.9140   23.4180 O   0  0  0  0  0  0  0  0  0  0  0  0
  -20.9340  -29.9370   21.7640 H   0  0  0  0  0  0  0  0  0  0  0  0
  -18.0190  -28.2180   22.9700 C   0  0  0  0  0  0  0  0  0  0  0  0
  -20.5800  -28.4580   23.2360 C   0  0  0  0  0  3  0  0  0  0  0  0
  -20.6680  -27.0220   22.6720 C   0  0  0  0  0  2  0  0  0  0  0  0
  -19.5640  -26.7030   21.6590 C   0  0  0  0  0  2  0  0  0  0  0  0
  -18.1830  -26.8640   22.3010 C   0  0  0  0  0  2  0  0  0  0  0  0
  -19.1450  -28.9740   23.3950 C   0  0  0  0  0  0  0  0  0  0  0  0
  -18.9350  -30.2390   23.9840 C   0  0  0  0  0  3  0  0  0  0  0  0
  -17.6340  -30.7510   24.1500 C   0  0  0  0  0  3  0  0  0  0  0  0
  -16.5240  -29.9930   23.7390 C   0  0  0  0  0  3  0  0  0  0  0  0
  -16.7170  -28.7290   23.1550 C   0  0  0  0  0  3  0  0  0  0  0  0
  -25.9230  -32.5590   23.8780 C   0  0  0  0  0  3  0  0  0  0  0  0
  -26.4260  -31.7920   25.1630 C   0  0  1  0  0  0  0  0  0  0  0  0
  -25.3270  -31.5680   26.2270 C   0  0  0  0  0  1  0  0  0  0  0  0
  -27.0020  -30.4060   24.7870 C   0  0  0  0  0  1  0  0  0  0  0  0
  -27.5800  -32.5820   25.8240 C   0  0  0  0  0  1  0  0  0  0  0  0
  -25.6170  -33.9610   24.2080 N   0  0  0  0  0  0  0  0  0  0  0  0
  -25.9300  -35.0140   23.4410 C   0  0  0  0  0  0  0  0  0  0  0  0
  -26.5720  -34.9080   22.3930 O   0  0  0  0  0  0  0  0  0  0  0  0
  -25.0410  -34.1160   25.0210 H   0  0  0  0  0  0  0  0  0  0  0  0
  -24.1820  -36.8020   23.1520 C   0  0  0  0  0  1  0  0  0  0  0  0
  -25.4580  -36.4050   23.9100 C   0  0  0  0  0  3  0  0  0  0  0  0
  -27.6220  -37.3090   24.6430 C   0  0  0  0  0  1  0  0  0  0  0  0
  -26.4820  -37.4610   23.7440 N   0  0  0  0  0  0  0  0  0  0  0  0
  -26.0780  -38.3810   23.8980 H   0  0  0  0  0  0  0  0  0  0  0  0
  2  1  1  0
  3  6  2  0
  3  5  1  0
  4  1  2  0
  4  7  1  0
  5  2  2  0
  6  4  1  0
  8 16  1  0
  9 14  1  0
 10 11  1  0
 10  9  1  0
 12 11  1  0
 12 21  1  0
 12 13  1  0
 14  8  1  0
 14 13  1  0
 15  8  2  0
 16  5  1  0
 16 17  1  0
 18 19  2  0
 19 38  1  0
 20 19  1  0
 20 23  1  0
 21 18  1  0
 21 22  1  0
 22 20  2  0
 23 24  1  0
 24 25  2  0
 26 29  1  0
 26 25  1  0
 27 26  2  0
 28 27  1  0
 28 23  2  0
 29 30  1  0
 30 31  1  0
 31 32  2  0
 33 32  1  0
 33 37  1  0
 34 33  2  0
 35 30  2  0
 35 34  1  0
 36 35  1  0
 38 39  1  0
 39 42  1  0
 39 41  1  0
 40 38  2  0
 43 44  1  0
 43 18  1  0
 45 43  1  0
 46 47  1  0
 46  6  1  0
 48 49  1  0
 48 47  2  0
 50 61  2  0
 51 49  1  0
 51 56  1  0
 52 60  1  0
 52 62  1  0
 53 59  1  0
 53 55  1  0
 54 60  1  0
 55 56  2  0
 55 54  1  0
 57 51  2  0
 58 57  1  0
 58 53  2  0
 59 52  1  0
 60 50  1  0
 62 64  2  0
 63 62  1  0
 65 63  1  0
 66 75  2  0
 66 71  1  0
 67 63  1  0
 67 71  1  0
 68 67  1  0
 69 70  1  0
 69 68  1  0
 70 66  1  0
 71 72  2  0
 72 73  1  0
 74 73  2  0
 75 74  1  0
 76 50  1  0
 76 81  1  0
 76 77  1  0
 77 80  1  1
 77 78  1  0
 79 77  1  0
 81 84  1  0
 82 86  1  0
 82 81  1  0
 83 82  2  0
 86 85  1  0
 88 89  1  0
 88 86  1  0
 88 87  1  0
M  ISO  4   8 100  16 100  48 101  49 101
M  END
>  <TORSDO>  (75) 
F 19

>  <SCORE>  (75) 
-15.133

>  <name>  (75) 
74

>  <ligand_id>  (75) 
74

>  <original_smiles>  (75) 
[H]c1c([H])c([H])c2c(c1[H])C([H])([H])C([H])([H])C([H])([H])C2([H])N([H])C(=O)C1([H])N(C(=O)C([H])(N([H])C(=O)C([H])(N([H])C([H])([H])[H])C([H])([H])[H])C(C([H])([H])[H])(C([H])([H])[H])C([H])([H])[H])C([H])([H])c2c([H])c(OC([H])([H])C([H])([H])Oc3c([H])c(N([H])C(=O)N4C([H])([H])C([H])([H])C([H])([H])C([H])(n5nc(-c6c([H])c([H])c(Oc7c([H])c([H])c(F)c([H])c7F)c([H])c6[H])c(C(=O)N([H])[H])c5N([H])[H])C4([H])[H])c([H])c([H])c3C([H])([H])[H])c([H])c([H])c2C1([H])[H]

>  <smiles>  (75) 
[H]c1c([H])c([H])c2c(c1[H])C([H])([H])C([H])([H])C([H])([H])C2([H])N([H])C(=O)C1([H])N(C(=O)C([H])(N([H])C(=O)C([H])(N([H])C([H])([H])[H])C([H])([H])[H])C(C([H])([H])[H])(C([H])([H])[H])C([H])([H])[H])C([H])([H])c2c([H])c(OC([H])([H])C([H])([H])Oc3c([H])c(N([H])C(=O)N4C([H])([H])C([H])([H])C([H])([H])C([H])(n5nc(-c6c([H])c([H])c(Oc7c([H])c([H])c(F)c([H])c7F)c([H])c6[H])c(C(=O)N([H])[H])c5N([H])[H])C4([H])[H])c([H])c([H])c3C([H])([H])[H])c([H])c([H])c2C1([H])[H]

$$$$
75:0:0
     RDKit          3D

 92100  0  0  1  0  0  0  0  0999 V2000
  -29.4880  -21.2790   21.0670 C   0  0  0  0  0  2  0  0  0  0  0  0
  -30.1720  -19.8880   19.0070 C   0  0  0  0  0  3  0  0  0  0  0  0
  -30.4530  -18.6860   18.3300 C   0  0  0  0  0  3  0  0  0  0  0  0
  -29.7980  -18.5840   21.0240 C   0  0  0  0  0  3  0  0  0  0  0  0
  -29.8010  -19.8840   20.3630 C   0  0  0  0  0  0  0  0  0  0  0  0
  -30.3930  -17.4250   18.9690 C   0  0  0  0  0  0  0  0  0  0  0  0
  -30.1230  -17.3250   20.3660 C   0  0  0  0  0  0  0  0  0  0  0  0
  -30.5470  -16.2010   18.0830 C   0  0  0  0  0  1  0  0  0  0  0  0
  -30.8480  -14.8670   20.8910 C   0  0  0  0  0  0  0  0  0  0  0  0
  -30.7680  -12.5400   19.9970 C   0  0  0  0  0  2  0  0  0  0  0  0
  -29.9510  -12.5240   18.6850 C   0  0  0  0  0  2  0  0  0  0  0  0
  -28.4370  -12.4330   18.9600 C   0  0  0  0  0  2  0  0  0  0  0  0
  -27.9550  -13.3570   20.1120 C   0  0  0  0  0  3  0  0  0  0  0  0
  -28.8990  -13.2930   21.3300 C   0  0  0  0  0  2  0  0  0  0  0  0
  -30.2480  -13.6290   20.8560 N   0  0  0  0  0  0  0  0  0  0  0  0
  -32.0550  -14.9700   20.6490 O   0  0  0  0  0  0  0  0  0  0  0  0
  -30.0470  -15.9920   21.0290 N   0  0  0  0  0  0  0  0  0  0  0  0
  -29.1720  -15.8090   21.4960 H   0  0  0  0  0  0  0  0  0  0  0  0
  -25.5080  -13.9600   20.6020 C   0  0  0  0  0  0  0  0  0  0  0  0
  -24.4130  -13.1930   20.8950 C   0  0  0  0  0  0  0  0  0  0  0  0
  -24.8790  -11.8430   20.9450 C   0  0  0  0  0  0  0  0  0  0  0  0
  -26.5700  -13.0780   20.4840 N   0  0  0  0  0  0  0  0  0  0  0  0
  -26.1920  -11.8020   20.7540 N   0  0  0  0  0  0  0  0  0  0  0  0
  -24.1400  -10.5840   21.1020 C   0  0  0  0  0  0  0  0  0  0  0  0
  -24.4900   -9.6380   22.0920 C   0  0  0  0  0  3  0  0  0  0  0  0
  -23.7520   -8.4430   22.2330 C   0  0  0  0  0  3  0  0  0  0  0  0
  -22.6500   -8.1860   21.3840 C   0  0  0  0  0  0  0  0  0  0  0  0
  -22.3210   -9.1190   20.3830 C   0  0  0  0  0  3  0  0  0  0  0  0
  -23.0610  -10.3040   20.2400 C   0  0  0  0  0  3  0  0  0  0  0  0
  -21.8880   -7.0440   21.4370 O   0  0  0  0  0  0  0  0  0  0  0  0
  -21.7390   -6.3300   22.6000 C   0  0  0  0  0  0  0  0  0  0  0  0
  -21.1880   -6.9090   23.7650 C   0  0  0  0  0  3  0  0  0  0  0  0
  -20.9840   -6.1170   24.9140 C   0  0  0  0  0  3  0  0  0  0  0  0
  -21.3250   -4.7520   24.9020 C   0  0  0  0  0  0  0  0  0  0  0  0
  -21.8740   -4.1750   23.7420 C   0  0  0  0  0  3  0  0  0  0  0  0
  -22.0770   -4.9610   22.5940 C   0  0  0  0  0  0  0  0  0  0  0  0
  -22.5860   -4.3950   21.4740 F   0  0  0  0  0  0  0  0  0  0  0  0
  -21.1250   -3.9920   26.0030 F   0  0  0  0  0  0  0  0  0  0  0  0
  -22.9950  -13.6720   21.0230 C   0  0  0  0  0  0  0  0  0  0  0  0
  -22.1880  -13.0000   21.8370 N   0  0  0  0  0  0  0  0  0  0  0  0
  -22.6060  -14.6790   20.4330 O   0  0  0  0  0  0  0  0  0  0  0  0
  -22.5100  -12.1900   22.3460 H   0  0  0  0  0  0  0  0  0  0  0  0
  -21.2320  -13.3060   21.9600 H   0  0  0  0  0  0  0  0  0  0  0  0
  -25.6890  -15.3270   20.4090 N   0  0  0  0  0  0  0  0  0  0  0  0
  -24.9220  -15.9870   20.4690 H   0  0  0  0  0  0  0  0  0  0  0  0
  -26.5660  -15.7610   20.1540 H   0  0  0  0  0  0  0  0  0  0  0  0
  -29.1080  -23.8520   20.5560 C   0  0  0  0  0  0  0  0  0  0  0  0
  -28.9710  -22.4940   20.2890 N   0  0  0  0  0  0  0  0  0  0  0  0
  -29.8910  -24.2340   21.4280 O   0  0  0  0  0  0  0  0  0  0  0  0
  -28.3210  -22.2710   19.5470 H   0  0  0  0  0  0  0  0  0  0  0  0
  -28.2210  -24.9530   19.7910 C   0  0  0  0  0  2  0  0  0  0  0  0
  -28.4300  -26.4270   20.0730 O   0  0  0  0  0  0  0  0  0  0  0  0
  -24.6080  -31.8300   23.0990 C   0  0  0  0  0  0  0  0  0  0  0  0
  -27.3260  -27.3170   19.9940 C   0  0  0  0  0  0  0  0  0  0  0  0
  -23.4490  -30.4410   21.4230 C   0  0  0  0  0  3  0  0  0  0  0  0
  -24.9420  -28.9390   19.9810 C   0  0  0  0  0  0  0  0  0  0  0  0
  -25.9910  -30.7860   21.2840 C   0  0  0  0  0  2  0  0  0  0  0  0
  -26.0990  -29.4170   20.6100 C   0  0  0  0  0  0  0  0  0  0  0  0
  -27.2880  -28.6160   20.6130 C   0  0  0  0  0  3  0  0  0  0  0  0
  -26.1470  -26.9260   19.3170 C   0  0  0  0  0  3  0  0  0  0  0  0
  -24.9730  -27.7020   19.3240 C   0  0  0  0  0  3  0  0  0  0  0  0
  -23.6920  -29.7970   20.0320 C   0  0  0  0  0  2  0  0  0  0  0  0
  -24.7010  -31.0370   21.9910 N   0  0  0  0  0  0  0  0  0  0  0  0
  -23.5140  -32.0810   23.6230 O   0  0  0  0  0  0  0  0  0  0  0  0
  -22.7890  -29.3980   22.3560 C   0  0  0  0  0  0  0  0  0  0  0  0
  -21.4560  -29.2510   22.2590 N   0  0  0  0  0  0  0  0  0  0  0  0
  -23.4760  -28.7260   23.1320 O   0  0  0  0  0  0  0  0  0  0  0  0
  -20.9600  -29.8440   21.6070 H   0  0  0  0  0  0  0  0  0  0  0  0
  -18.0650  -28.1440   22.8630 C   0  0  0  0  0  0  0  0  0  0  0  0
  -20.6410  -28.2980   23.0150 C   0  0  0  0  0  3  0  0  0  0  0  0
  -20.6610  -26.9000   22.3540 C   0  0  0  0  0  2  0  0  0  0  0  0
  -19.4980  -26.6770   21.3800 C   0  0  0  0  0  2  0  0  0  0  0  0
  -18.1560  -26.8330   22.1010 C   0  0  0  0  0  2  0  0  0  0  0  0
  -19.2310  -28.8390   23.2790 C   0  0  0  0  0  0  0  0  0  0  0  0
  -19.0900  -30.0680   23.9560 C   0  0  0  0  0  3  0  0  0  0  0  0
  -17.8140  -30.6020   24.2230 C   0  0  0  0  0  3  0  0  0  0  0  0
  -16.6620  -29.9030   23.8210 C   0  0  0  0  0  3  0  0  0  0  0  0
  -16.7890  -28.6760   23.1450 C   0  0  0  0  0  3  0  0  0  0  0  0
  -25.8720  -32.4750   23.7460 C   0  0  0  0  0  3  0  0  0  0  0  0
  -26.3960  -31.6820   25.0070 C   0  0  1  0  0  0  0  0  0  0  0  0
  -25.3000  -31.4000   26.0610 C   0  0  0  0  0  1  0  0  0  0  0  0
  -27.0090  -30.3250   24.5910 C   0  0  0  0  0  1  0  0  0  0  0  0
  -27.5280  -32.4830   25.6930 C   0  0  0  0  0  1  0  0  0  0  0  0
  -25.5270  -33.8560   24.1120 N   0  0  0  0  0  0  0  0  0  0  0  0
  -25.8740  -34.9400   23.4060 C   0  0  0  0  0  0  0  0  0  0  0  0
  -26.5860  -34.8830   22.3990 O   0  0  0  0  0  0  0  0  0  0  0  0
  -24.8960  -33.9730   24.8910 H   0  0  0  0  0  0  0  0  0  0  0  0
  -24.1620  -36.7440   23.0220 C   0  0  0  0  0  1  0  0  0  0  0  0
  -25.3510  -36.3060   23.8930 C   0  0  0  0  0  3  0  0  0  0  0  0
  -27.4190  -37.1630   24.9020 C   0  0  0  0  0  1  0  0  0  0  0  0
  -26.3830  -37.3670   23.8930 N   0  0  0  0  0  0  0  0  0  0  0  0
  -25.9620  -38.2790   24.0500 H   0  0  0  0  0  0  0  0  0  0  0  0
  2  5  1  0
  3  6  1  0
  3  2  2  0
  5  4  2  0
  5  1  1  0
  6  7  2  0
  7  4  1  0
  7 17  1  0
  8  6  1  0
  9 17  1  0
 10 15  1  0
 11 12  1  0
 11 10  1  0
 13 12  1  0
 13 22  1  0
 13 14  1  0
 15  9  1  0
 15 14  1  0
 16  9  2  0
 17 18  1  0
 19 20  2  0
 20 21  1  0
 20 39  1  0
 21 24  1  0
 22 19  1  0
 22 23  1  0
 23 21  2  0
 24 25  1  0
 25 26  2  0
 27 30  1  0
 27 26  1  0
 28 27  2  0
 29 28  1  0
 29 24  2  0
 30 31  1  0
 31 32  1  0
 32 33  2  0
 34 33  1  0
 34 38  1  0
 35 34  2  0
 36 31  2  0
 36 35  1  0
 37 36  1  0
 39 40  1  0
 40 43  1  0
 40 42  1  0
 41 39  2  0
 44 45  1  0
 44 19  1  0
 46 44  1  0
 47 49  2  0
 48 47  1  0
 48  1  1  0
 50 48  1  0
 51 52  1  0
 51 47  1  0
 53 64  2  0
 54 52  1  0
 54 59  1  0
 55 63  1  0
 55 65  1  0
 56 62  1  0
 56 58  1  0
 57 63  1  0
 58 59  2  0
 58 57  1  0
 60 61  1  0
 60 54  2  0
 61 56  2  0
 62 55  1  0
 63 53  1  0
 65 67  2  0
 66 65  1  0
 68 66  1  0
 69 78  2  0
 69 74  1  0
 70 66  1  0
 70 74  1  0
 71 70  1  0
 72 73  1  0
 72 71  1  0
 73 69  1  0
 74 75  2  0
 75 76  1  0
 77 76  2  0
 78 77  1  0
 79 53  1  0
 79 84  1  0
 79 80  1  0
 80 83  1  1
 80 81  1  0
 82 80  1  0
 84 87  1  0
 85 89  1  0
 85 84  1  0
 86 85  2  0
 89 88  1  0
 89 91  1  0
 91 92  1  0
 91 90  1  0
M  ISO  4   9 100  17 100  51 101  52 101
M  END
>  <TORSDO>  (76) 
F 19

>  <SCORE>  (76) 
-13.535

>  <name>  (76) 
75

>  <ligand_id>  (76) 
75

>  <original_smiles>  (76) 
[H]c1c([H])c([H])c2c(c1[H])C([H])([H])C([H])([H])C([H])([H])C2([H])N([H])C(=O)C1([H])N(C(=O)C([H])(N([H])C(=O)C([H])(N([H])C([H])([H])[H])C([H])([H])[H])C(C([H])([H])[H])(C([H])([H])[H])C([H])([H])[H])C([H])([H])c2c([H])c(OC([H])([H])C(=O)N([H])C([H])([H])c3c([H])c([H])c(C([H])([H])[H])c(N([H])C(=O)N4C([H])([H])C([H])([H])C([H])([H])C([H])(n5nc(-c6c([H])c([H])c(Oc7c([H])c([H])c(F)c([H])c7F)c([H])c6[H])c(C(=O)N([H])[H])c5N([H])[H])C4([H])[H])c3[H])c([H])c([H])c2C1([H])[H]

>  <smiles>  (76) 
[H]c1c([H])c([H])c2c(c1[H])C([H])([H])C([H])([H])C([H])([H])C2([H])N([H])C(=O)C1([H])N(C(=O)C([H])(N([H])C(=O)C([H])(N([H])C([H])([H])[H])C([H])([H])[H])C(C([H])([H])[H])(C([H])([H])[H])C([H])([H])[H])C([H])([H])c2c([H])c(OC([H])([H])C(=O)N([H])C([H])([H])c3c([H])c([H])c(C([H])([H])[H])c(N([H])C(=O)N4C([H])([H])C([H])([H])C([H])([H])C([H])(n5nc(-c6c([H])c([H])c(Oc7c([H])c([H])c(F)c([H])c7F)c([H])c6[H])c(C(=O)N([H])[H])c5N([H])[H])C4([H])[H])c3[H])c([H])c([H])c2C1([H])[H]

$$$$
76:0:0
     RDKit          3D

 93101  0  0  1  0  0  0  0  0999 V2000
  -30.0220  -19.1990   17.8160 C   0  0  0  0  0  3  0  0  0  0  0  0
  -29.6230  -19.0400   20.5030 C   0  0  0  0  0  3  0  0  0  0  0  0
  -30.2000  -17.9320   18.4260 C   0  0  0  0  0  0  0  0  0  0  0  0
  -30.0170  -17.7370   19.8260 C   0  0  0  0  0  0  0  0  0  0  0  0
  -29.4420  -20.4100   19.8900 C   0  0  0  0  0  0  0  0  0  0  0  0
  -29.6240  -20.3910   18.4830 C   0  0  0  0  0  0  0  0  0  0  0  0
  -30.5120  -16.7870   17.4710 C   0  0  0  0  0  1  0  0  0  0  0  0
  -30.7890  -15.0510   20.0120 C   0  0  0  0  0  0  0  0  0  0  0  0
  -30.5750  -12.7330   18.9410 C   0  0  0  0  0  2  0  0  0  0  0  0
  -29.5580  -12.7170   17.7740 C   0  0  0  0  0  2  0  0  0  0  0  0
  -28.1240  -12.4960   18.2910 C   0  0  0  0  0  2  0  0  0  0  0  0
  -27.8120  -13.3590   19.5410 C   0  0  0  0  0  3  0  0  0  0  0  0
  -28.9430  -13.2940   20.5830 C   0  0  0  0  0  2  0  0  0  0  0  0
  -30.1600  -13.7910   19.9210 N   0  0  0  0  0  0  0  0  0  0  0  0
  -31.9530  -15.0740   19.5910 O   0  0  0  0  0  0  0  0  0  0  0  0
  -29.6970  -16.2320   21.8350 C   0  0  0  0  0  1  0  0  0  0  0  0
  -30.1250  -16.2830   20.4340 N   0  0  0  0  0  0  0  0  0  0  0  0
  -25.4960  -13.9240   20.4600 C   0  0  0  0  0  0  0  0  0  0  0  0
  -24.4510  -13.1440   20.8710 C   0  0  0  0  0  0  0  0  0  0  0  0
  -24.8990  -11.7920   20.7620 C   0  0  0  0  0  0  0  0  0  0  0  0
  -26.5110  -13.0470   20.1190 N   0  0  0  0  0  0  0  0  0  0  0  0
  -26.1670  -11.7570   20.3660 N   0  0  0  0  0  0  0  0  0  0  0  0
  -24.1740  -10.5280   20.9550 C   0  0  0  0  0  0  0  0  0  0  0  0
  -24.6160   -9.5570   21.8810 C   0  0  0  0  0  3  0  0  0  0  0  0
  -23.8910   -8.3600   22.0610 C   0  0  0  0  0  3  0  0  0  0  0  0
  -22.7100   -8.1260   21.3180 C   0  0  0  0  0  0  0  0  0  0  0  0
  -22.2880   -9.0850   20.3820 C   0  0  0  0  0  3  0  0  0  0  0  0
  -23.0130  -10.2740   20.1980 C   0  0  0  0  0  3  0  0  0  0  0  0
  -21.9530   -6.9830   21.4110 O   0  0  0  0  0  0  0  0  0  0  0  0
  -21.8540   -6.2780   22.5830 C   0  0  0  0  0  0  0  0  0  0  0  0
  -21.3170   -6.8520   23.7560 C   0  0  0  0  0  3  0  0  0  0  0  0
  -21.1710   -6.0700   24.9190 C   0  0  0  0  0  3  0  0  0  0  0  0
  -21.5510   -4.7140   24.9090 C   0  0  0  0  0  0  0  0  0  0  0  0
  -22.0800   -4.1390   23.7400 C   0  0  0  0  0  3  0  0  0  0  0  0
  -22.2280   -4.9190   22.5800 C   0  0  0  0  0  0  0  0  0  0  0  0
  -22.7190   -4.3550   21.4500 F   0  0  0  0  0  0  0  0  0  0  0  0
  -21.4030   -3.9600   26.0230 F   0  0  0  0  0  0  0  0  0  0  0  0
  -23.0800  -13.6220   21.2480 C   0  0  0  0  0  0  0  0  0  0  0  0
  -22.4020  -12.9030   22.1360 N   0  0  0  0  0  0  0  0  0  0  0  0
  -22.6200  -14.6670   20.7890 O   0  0  0  0  0  0  0  0  0  0  0  0
  -22.7880  -12.0570   22.5280 H   0  0  0  0  0  0  0  0  0  0  0  0
  -21.4830  -13.2040   22.4290 H   0  0  0  0  0  0  0  0  0  0  0  0
  -25.6610  -15.2990   20.3240 N   0  0  0  0  0  0  0  0  0  0  0  0
  -24.9090  -15.9520   20.5180 H   0  0  0  0  0  0  0  0  0  0  0  0
  -26.4980  -15.7500   19.9760 H   0  0  0  0  0  0  0  0  0  0  0  0
  -29.1830  -23.1710   20.3010 C   0  0  0  0  0  0  0  0  0  0  0  0
  -28.9350  -21.7590   20.5190 N   0  0  0  0  0  0  0  0  0  0  0  0
  -30.2400  -23.4970   19.7530 O   0  0  0  0  0  0  0  0  0  0  0  0
  -28.1780  -21.6220   21.1750 H   0  0  0  0  0  0  0  0  0  0  0  0
  -28.1950  -24.4610   20.7650 C   0  0  0  0  0  2  0  0  0  0  0  0
  -28.5230  -26.0130   20.6000 O   0  0  0  0  0  0  0  0  0  0  0  0
  -24.7020  -31.8220   23.2990 C   0  0  0  0  0  0  0  0  0  0  0  0
  -27.4820  -27.0300   20.4990 C   0  0  0  0  0  0  0  0  0  0  0  0
  -23.6120  -30.3840   21.6220 C   0  0  0  0  0  3  0  0  0  0  0  0
  -25.1530  -28.7980   20.3060 C   0  0  0  0  0  0  0  0  0  0  0  0
  -26.1730  -30.6570   21.6030 C   0  0  0  0  0  2  0  0  0  0  0  0
  -26.2960  -29.2500   20.9780 C   0  0  0  0  0  0  0  0  0  0  0  0
  -27.4610  -28.3840   21.0570 C   0  0  0  0  0  3  0  0  0  0  0  0
  -26.3150  -26.7040   19.7740 C   0  0  0  0  0  3  0  0  0  0  0  0
  -25.1800  -27.5400   19.6870 C   0  0  0  0  0  3  0  0  0  0  0  0
  -23.9200  -29.6880   20.2700 C   0  0  0  0  0  2  0  0  0  0  0  0
  -24.8460  -30.9800   22.2290 N   0  0  0  0  0  0  0  0  0  0  0  0
  -23.5840  -32.1050   23.7580 O   0  0  0  0  0  0  0  0  0  0  0  0
  -22.8870  -29.3890   22.5630 C   0  0  0  0  0  0  0  0  0  0  0  0
  -21.5690  -29.2040   22.3690 N   0  0  0  0  0  0  0  0  0  0  0  0
  -23.5170  -28.7830   23.4340 O   0  0  0  0  0  0  0  0  0  0  0  0
  -21.1170  -29.7420   21.6430 H   0  0  0  0  0  0  0  0  0  0  0  0
  -18.1700  -27.9980   22.7340 C   0  0  0  0  0  0  0  0  0  0  0  0
  -20.7150  -28.2710   23.1090 C   0  0  0  0  0  3  0  0  0  0  0  0
  -20.8440  -26.8360   22.5470 C   0  0  0  0  0  2  0  0  0  0  0  0
  -19.7880  -26.5040   21.4880 C   0  0  0  0  0  2  0  0  0  0  0  0
  -18.3800  -26.6470   22.0710 C   0  0  0  0  0  2  0  0  0  0  0  0
  -19.2680  -28.7680   23.2060 C   0  0  0  0  0  0  0  0  0  0  0  0
  -19.0180  -30.0310   23.7860 C   0  0  0  0  0  3  0  0  0  0  0  0
  -17.7050  -30.5260   23.8970 C   0  0  0  0  0  3  0  0  0  0  0  0
  -16.6230  -29.7550   23.4400 C   0  0  0  0  0  3  0  0  0  0  0  0
  -16.8550  -28.4930   22.8660 C   0  0  0  0  0  3  0  0  0  0  0  0
  -25.9330  -32.4840   23.9870 C   0  0  0  0  0  3  0  0  0  0  0  0
  -26.3600  -31.7610   25.3260 C   0  0  1  0  0  0  0  0  0  0  0  0
  -25.1920  -31.5540   26.3180 C   0  0  0  0  0  1  0  0  0  0  0  0
  -26.9770  -30.3750   25.0310 C   0  0  0  0  0  1  0  0  0  0  0  0
  -27.4570  -32.5870   26.0400 C   0  0  0  0  0  1  0  0  0  0  0  0
  -25.5980  -33.8930   24.2530 N   0  0  0  0  0  0  0  0  0  0  0  0
  -25.9620  -34.9260   23.4830 C   0  0  0  0  0  0  0  0  0  0  0  0
  -26.6810  -34.7950   22.4900 O   0  0  0  0  0  0  0  0  0  0  0  0
  -24.9640  -34.0690   25.0200 H   0  0  0  0  0  0  0  0  0  0  0  0
  -24.2440  -36.7010   22.9980 C   0  0  0  0  0  1  0  0  0  0  0  0
  -25.4490  -36.3280   23.8750 C   0  0  0  0  0  3  0  0  0  0  0  0
  -27.5330  -37.2600   24.7820 C   0  0  0  0  0  1  0  0  0  0  0  0
  -26.4820  -37.3820   23.7760 N   0  0  0  0  0  0  0  0  0  0  0  0
  -26.0660  -38.3040   23.8610 H   0  0  0  0  0  0  0  0  0  0  0  0
  -29.3030  -21.5030   16.3580 C   0  0  0  0  0  1  0  0  0  0  0  0
  -29.3360  -21.5440   17.7820 O   0  0  0  0  0  0  0  0  0  0  0  0
  1  3  2  0
  1  6  1  0
  3  4  1  0
  4 17  1  0
  4  2  2  0
  5  2  1  0
  5 47  1  0
  6  5  2  0
  7  3  1  0
  8 17  1  0
  9 14  1  0
 10 11  1  0
 10  9  1  0
 12 11  1  0
 12 21  1  0
 12 13  1  0
 14  8  1  0
 14 13  1  0
 15  8  2  0
 17 16  1  0
 18 19  2  0
 19 38  1  0
 20 19  1  0
 20 23  1  0
 21 22  1  0
 21 18  1  0
 22 20  2  0
 23 24  1  0
 24 25  2  0
 26 29  1  0
 26 25  1  0
 27 26  2  0
 28 27  1  0
 28 23  2  0
 29 30  1  0
 30 31  1  0
 31 32  2  0
 33 32  1  0
 33 37  1  0
 34 33  2  0
 35 30  2  0
 35 34  1  0
 36 35  1  0
 38 39  1  0
 39 42  1  0
 39 41  1  0
 40 38  2  0
 43 18  1  0
 43 44  1  0
 45 43  1  0
 46 47  1  0
 46 50  1  0
 47 49  1  0
 48 46  2  0
 51 50  1  0
 52 63  2  0
 53 51  1  0
 53 58  1  0
 54 62  1  0
 54 64  1  0
 55 57  1  0
 56 62  1  0
 57 58  2  0
 57 56  1  0
 59 53  2  0
 60 59  1  0
 60 55  2  0
 61 55  1  0
 61 54  1  0
 62 52  1  0
 64 66  2  0
 65 64  1  0
 67 65  1  0
 68 77  2  0
 68 73  1  0
 69 65  1  0
 69 73  1  0
 70 69  1  0
 71 72  1  0
 71 70  1  0
 72 68  1  0
 73 74  2  0
 74 75  1  0
 76 75  2  0
 77 76  1  0
 78 52  1  0
 78 83  1  0
 78 79  1  0
 79 82  1  1
 79 80  1  0
 81 79  1  0
 83 86  1  0
 84 88  1  0
 84 83  1  0
 85 84  2  0
 88 87  1  0
 90 91  1  0
 90 88  1  0
 90 89  1  0
 92 93  1  0
 93  6  1  0
M  ISO  4   8 100  17 100  50 101  51 101
M  END
>  <TORSDO>  (77) 
F 19

>  <SCORE>  (77) 
-12.956

>  <name>  (77) 
76

>  <ligand_id>  (77) 
76

>  <original_smiles>  (77) 
[H]c1c([H])c([H])c2c(c1[H])C([H])([H])C([H])([H])C([H])([H])C2([H])N([H])C(=O)C1([H])N(C(=O)C([H])(N([H])C(=O)C([H])(N([H])C([H])([H])[H])C([H])([H])[H])C(C([H])([H])[H])(C([H])([H])[H])C([H])([H])[H])C([H])([H])c2c([H])c(OC([H])([H])C(=O)N([H])c3c([H])c(N(C(=O)N4C([H])([H])C([H])([H])C([H])([H])C([H])(n5nc(-c6c([H])c([H])c(Oc7c([H])c([H])c(F)c([H])c7F)c([H])c6[H])c(C(=O)N([H])[H])c5N([H])[H])C4([H])[H])C([H])([H])[H])c(C([H])([H])[H])c([H])c3OC([H])([H])[H])c([H])c([H])c2C1([H])[H]

>  <smiles>  (77) 
[H]c1c([H])c([H])c2c(c1[H])C([H])([H])C([H])([H])C([H])([H])C2([H])N([H])C(=O)C1([H])N(C(=O)C([H])(N([H])C(=O)C([H])(N([H])C([H])([H])[H])C([H])([H])[H])C(C([H])([H])[H])(C([H])([H])[H])C([H])([H])[H])C([H])([H])c2c([H])c(OC([H])([H])C(=O)N([H])c3c([H])c(N(C(=O)N4C([H])([H])C([H])([H])C([H])([H])C([H])(n5nc(-c6c([H])c([H])c(Oc7c([H])c([H])c(F)c([H])c7F)c([H])c6[H])c(C(=O)N([H])[H])c5N([H])[H])C4([H])[H])C([H])([H])[H])c(C([H])([H])[H])c([H])c3OC([H])([H])[H])c([H])c([H])c2C1([H])[H]

$$$$
77:0:0
     RDKit          3D

100108  0  0  1  0  0  0  0  0999 V2000
  -31.3220  -21.1420   24.9020 C   0  0  0  0  0  1  0  0  0  0  0  0
  -29.6140  -20.1470   23.3810 C   0  0  0  0  0  1  0  0  0  0  0  0
  -30.8800  -21.0300   23.4210 C   0  0  1  0  0  0  0  0  0  0  0  0
  -30.4940  -22.4290   22.8560 C   0  0  0  0  0  0  0  0  0  0  0  0
  -30.3570  -22.5690   21.5280 N   0  0  0  0  0  0  0  0  0  0  0  0
  -30.2950  -23.3750   23.6230 O   0  0  0  0  0  0  0  0  0  0  0  0
  -30.4650  -21.7560   20.9400 H   0  0  0  0  0  0  0  0  0  0  0  0
  -29.8350  -23.7590   20.8600 C   0  0  0  0  0  2  0  0  0  0  0  0
  -30.9090  -24.8220   20.5480 C   0  0  0  0  0  2  0  0  0  0  0  0
  -30.3070  -25.9250   19.6650 C   0  0  0  0  0  2  0  0  0  0  0  0
  -31.0810  -27.2690   19.5940 C   0  0  0  0  0  2  0  0  0  0  0  0
  -30.7210  -28.2220   20.6070 O   0  0  0  0  0  0  0  0  0  0  0  0
  -25.6720  -29.4280   25.4670 C   0  0  0  0  0  0  0  0  0  0  0  0
  -29.3840  -28.5160   20.8110 C   0  0  0  0  0  0  0  0  0  0  0  0
  -24.8730  -29.0080   23.1660 C   0  0  0  0  0  3  0  0  0  0  0  0
  -26.6560  -29.0510   21.3470 C   0  0  0  0  0  0  0  0  0  0  0  0
  -27.1780  -30.0420   23.5810 C   0  0  0  0  0  2  0  0  0  0  0  0
  -27.6350  -29.3950   22.2880 C   0  0  0  0  0  0  0  0  0  0  0  0
  -28.9970  -29.1250   22.0260 C   0  0  0  0  0  3  0  0  0  0  0  0
  -28.3780  -28.2090   19.8620 C   0  0  0  0  0  3  0  0  0  0  0  0
  -27.0230  -28.4520   20.1330 C   0  0  0  0  0  3  0  0  0  0  0  0
  -25.2190  -29.3590   21.6970 C   0  0  0  0  0  2  0  0  0  0  0  0
  -25.9240  -29.4740   24.1280 N   0  0  0  0  0  0  0  0  0  0  0  0
  -24.5770  -29.0450   25.9000 O   0  0  0  0  0  0  0  0  0  0  0  0
  -24.5880  -27.4920   23.2600 C   0  0  0  0  0  0  0  0  0  0  0  0
  -23.5810  -27.0260   22.5030 N   0  0  0  0  0  0  0  0  0  0  0  0
  -25.2750  -26.7610   23.9790 O   0  0  0  0  0  0  0  0  0  0  0  0
  -23.0580  -27.6900   21.9510 H   0  0  0  0  0  0  0  0  0  0  0  0
  -21.5040  -24.7420   20.6220 C   0  0  0  0  0  0  0  0  0  0  0  0
  -23.1560  -25.6290   22.4020 C   0  0  0  0  0  3  0  0  0  0  0  0
  -24.2260  -24.7700   21.6900 C   0  0  0  0  0  2  0  0  0  0  0  0
  -23.9950  -24.6460   20.1810 C   0  0  0  0  0  2  0  0  0  0  0  0
  -22.6270  -24.0200   19.8960 C   0  0  0  0  0  2  0  0  0  0  0  0
  -21.7560  -25.5110   21.7900 C   0  0  0  0  0  0  0  0  0  0  0  0
  -20.6850  -26.1910   22.4060 C   0  0  0  0  0  3  0  0  0  0  0  0
  -19.3830  -26.1130   21.8800 C   0  0  0  0  0  3  0  0  0  0  0  0
  -19.1340  -25.3370   20.7350 C   0  0  0  0  0  3  0  0  0  0  0  0
  -20.1930  -24.6510   20.1100 C   0  0  0  0  0  3  0  0  0  0  0  0
  -26.7380  -29.8780   26.5140 C   0  0  0  0  0  3  0  0  0  0  0  0
  -26.5950  -31.3290   26.6940 N   0  0  0  0  0  0  0  0  0  0  0  0
  -27.3650  -32.2500   26.0970 C   0  0  0  0  0  0  0  0  0  0  0  0
  -28.3280  -31.9550   25.3850 O   0  0  0  0  0  0  0  0  0  0  0  0
  -25.7940  -31.6420   27.2230 H   0  0  0  0  0  0  0  0  0  0  0  0
  -26.2100  -34.2600   25.1280 C   0  0  0  0  0  1  0  0  0  0  0  0
  -27.0090  -33.7290   26.3290 C   0  0  0  0  0  3  0  0  0  0  0  0
  -28.9160  -34.2540   27.7830 C   0  0  0  0  0  1  0  0  0  0  0  0
  -28.1890  -34.5900   26.5620 N   0  0  0  0  0  0  0  0  0  0  0  0
  -27.9180  -35.5690   26.6130 H   0  0  0  0  0  0  0  0  0  0  0  0
  -26.6070  -29.1290   27.8970 C   0  0  1  0  0  0  0  0  0  0  0  0
  -25.1670  -29.1150   28.4610 C   0  0  0  0  0  1  0  0  0  0  0  0
  -27.0810  -27.6630   27.7710 C   0  0  0  0  0  1  0  0  0  0  0  0
  -27.5250  -29.8020   28.9440 C   0  0  0  0  0  1  0  0  0  0  0  0
  -31.9620  -20.3800   22.6210 N   0  0  0  0  0  4  0  0  0  0  0  0
  -32.8390  -20.7480   22.9460 H   0  0  0  0  0  0  0  0  0  0  0  0
  -31.9750  -19.3930   22.8150 H   0  0  0  0  0  0  0  0  0  0  0  0
  -31.9490  -20.5500   21.1480 C   0  0  0  0  0  2  0  0  0  0  0  0
  -34.1830  -18.3780   18.9100 C   0  0  0  0  0  3  0  0  0  0  0  0
  -33.6380  -19.4910   19.5780 C   0  0  0  0  0  3  0  0  0  0  0  0
  -33.6380  -17.0970   19.1100 C   0  0  0  0  0  3  0  0  0  0  0  0
  -31.9970  -18.0380   20.6520 C   0  0  0  0  0  3  0  0  0  0  0  0
  -32.5400  -19.3310   20.4480 C   0  0  0  0  0  0  0  0  0  0  0  0
  -32.5380  -16.9180   19.9820 C   0  0  0  0  0  0  0  0  0  0  0  0
  -32.6580  -14.4510   20.1870 C   0  0  0  0  0  0  0  0  0  0  0  0
  -32.5710  -12.0380   20.7140 C   0  0  0  0  0  2  0  0  0  0  0  0
  -31.8100  -11.2370   19.6420 C   0  0  0  0  0  2  0  0  0  0  0  0
  -30.2990  -11.2310   19.9370 C   0  0  0  0  0  2  0  0  0  0  0  0
  -29.7430  -12.6520   20.2170 C   0  0  0  0  0  3  0  0  0  0  0  0
  -30.6220  -13.3920   21.2500 C   0  0  0  0  0  2  0  0  0  0  0  0
  -32.0120  -13.3980   20.7580 N   0  0  0  0  0  0  0  0  0  0  0  0
  -33.7570  -14.3420   19.6340 O   0  0  0  0  0  0  0  0  0  0  0  0
  -32.0100  -15.6270   20.2560 N   0  0  0  0  0  0  0  0  0  0  0  0
  -31.0550  -15.5820   20.5770 H   0  0  0  0  0  0  0  0  0  0  0  0
  -27.4620  -13.6460   20.8830 C   0  0  0  0  0  0  0  0  0  0  0  0
  -26.2590  -13.0600   21.1740 C   0  0  0  0  0  0  0  0  0  0  0  0
  -26.4730  -11.6500   21.0780 C   0  0  0  0  0  0  0  0  0  0  0  0
  -28.3430  -12.6040   20.6340 N   0  0  0  0  0  0  0  0  0  0  0  0
  -27.7470  -11.3960   20.8070 N   0  0  0  0  0  0  0  0  0  0  0  0
  -25.5280  -10.5320   21.1740 C   0  0  0  0  0  0  0  0  0  0  0  0
  -25.6160   -9.5760   22.2100 C   0  0  0  0  0  3  0  0  0  0  0  0
  -24.6850   -8.5190   22.2910 C   0  0  0  0  0  3  0  0  0  0  0  0
  -23.6480   -8.4110   21.3330 C   0  0  0  0  0  0  0  0  0  0  0  0
  -23.5780   -9.3520   20.2910 C   0  0  0  0  0  3  0  0  0  0  0  0
  -24.5090  -10.4010   20.2080 C   0  0  0  0  0  3  0  0  0  0  0  0
  -22.7140   -7.4040   21.3180 O   0  0  0  0  0  0  0  0  0  0  0  0
  -22.0110   -7.0570   22.4440 C   0  0  0  0  0  0  0  0  0  0  0  0
  -21.1690   -7.9740   23.1090 C   0  0  0  0  0  3  0  0  0  0  0  0
  -20.4110   -7.5560   24.2220 C   0  0  0  0  0  3  0  0  0  0  0  0
  -20.4860   -6.2210   24.6640 C   0  0  0  0  0  0  0  0  0  0  0  0
  -21.3200   -5.3040   23.9990 C   0  0  0  0  0  3  0  0  0  0  0  0
  -22.0780   -5.7210   22.8900 C   0  0  0  0  0  0  0  0  0  0  0  0
  -22.8630   -4.8290   22.2400 F   0  0  0  0  0  0  0  0  0  0  0  0
  -19.7530   -5.8170   25.7260 F   0  0  0  0  0  0  0  0  0  0  0  0
  -24.9590  -13.7660   21.4320 C   0  0  0  0  0  0  0  0  0  0  0  0
  -24.1600  -13.2580   22.3640 N   0  0  0  0  0  0  0  0  0  0  0  0
  -24.6660  -14.8030   20.8410 O   0  0  0  0  0  0  0  0  0  0  0  0
  -24.4090  -12.4160   22.8640 H   0  0  0  0  0  0  0  0  0  0  0  0
  -23.2850  -13.7150   22.5800 H   0  0  0  0  0  0  0  0  0  0  0  0
  -27.8750  -14.9720   20.7900 N   0  0  0  0  0  0  0  0  0  0  0  0
  -27.2300  -15.7460   20.9000 H   0  0  0  0  0  0  0  0  0  0  0  0
  -28.8030  -15.2660   20.5100 H   0  0  0  0  0  0  0  0  0  0  0  0
  3  2  1  1
  3  1  1  0
  4  3  1  0
  4  6  2  0
  5  4  1  0
  7  5  1  0
  8  5  1  0
  9  8  1  0
 10  9  1  0
 11 10  1  0
 11 12  1  0
 12 14  1  0
 13 24  2  0
 14 19  1  0
 15 25  1  0
 15 23  1  0
 16 22  1  0
 16 18  1  0
 17 23  1  0
 18 17  1  0
 19 18  2  0
 20 21  1  0
 20 14  2  0
 21 16  2  0
 22 15  1  0
 23 13  1  0
 25 27  2  0
 26 25  1  0
 28 26  1  0
 29 34  1  0
 30 26  1  0
 31 30  1  0
 32 31  1  0
 33 32  1  0
 33 29  1  0
 34 30  1  0
 34 35  2  0
 36 35  1  0
 37 36  2  0
 38 29  2  0
 38 37  1  0
 39 13  1  0
 39 40  1  0
 39 49  1  0
 40 43  1  0
 41 45  1  0
 41 40  1  0
 42 41  2  0
 45 44  1  0
 45 47  1  0
 47 48  1  0
 47 46  1  0
 49 50  1  1
 49 52  1  0
 51 49  1  0
 53 55  1  0
 53 54  1  0
 53  3  1  0
 56 53  1  0
 57 59  2  0
 57 58  1  0
 58 61  2  0
 59 62  1  0
 61 60  1  0
 61 56  1  0
 62 71  1  0
 62 60  2  0
 63 71  1  0
 63 69  1  0
 64 69  1  0
 65 66  1  0
 65 64  1  0
 67 66  1  0
 67 76  1  0
 67 68  1  0
 69 68  1  0
 70 63  2  0
 71 72  1  0
 73 74  2  0
 74 93  1  0
 75 74  1  0
 75 78  1  0
 76 77  1  0
 76 73  1  0
 77 75  2  0
 78 79  1  0
 79 80  2  0
 81 80  1  0
 82 81  2  0
 83 82  1  0
 83 78  2  0
 84 81  1  0
 84 85  1  0
 85 90  2  0
 85 86  1  0
 86 87  2  0
 87 88  1  0
 88 92  1  0
 89 88  2  0
 90 89  1  0
 91 90  1  0
 93 94  1  0
 94 97  1  0
 94 96  1  0
 95 93  2  0
 98 73  1  0
 98 99  1  0
100 98  1  0
M  ISO  4  11 101  12 101  63 100  71 100
M  END
>  <TORSDO>  (78) 
F 24

>  <SCORE>  (78) 
-6.546

>  <name>  (78) 
77

>  <ligand_id>  (78) 
77

>  <original_smiles>  (78) 
[H]c1c([H])c([H])c2c(c1[H])C([H])([H])C([H])([H])C([H])([H])C2([H])N([H])C(=O)C1([H])N(C(=O)C([H])(N([H])C(=O)C([H])(N([H])C([H])([H])[H])C([H])([H])[H])C(C([H])([H])[H])(C([H])([H])[H])C([H])([H])[H])C([H])([H])c2c([H])c(OC([H])([H])C([H])([H])C([H])([H])C([H])([H])N([H])C(=O)C(C([H])([H])[H])(C([H])([H])[H])[N+]([H])([H])C([H])([H])c3c([H])c([H])c([H])c(N([H])C(=O)N4C([H])([H])C([H])([H])C([H])([H])C([H])(n5nc(-c6c([H])c([H])c(Oc7c([H])c([H])c(F)c([H])c7F)c([H])c6[H])c(C(=O)N([H])[H])c5N([H])[H])C4([H])[H])c3[H])c([H])c([H])c2C1([H])[H]

>  <smiles>  (78) 
[H]c1c([H])c([H])c2c(c1[H])C([H])([H])C([H])([H])C([H])([H])C2([H])N([H])C(=O)C1([H])N(C(=O)C([H])(N([H])C(=O)C([H])(N([H])C([H])([H])[H])C([H])([H])[H])C(C([H])([H])[H])(C([H])([H])[H])C([H])([H])[H])C([H])([H])c2c([H])c(OC([H])([H])C([H])([H])C([H])([H])C([H])([H])N([H])C(=O)C(C([H])([H])[H])(C([H])([H])[H])[N+]([H])([H])C([H])([H])c3c([H])c([H])c([H])c(N([H])C(=O)N4C([H])([H])C([H])([H])C([H])([H])C([H])(n5nc(-c6c([H])c([H])c(Oc7c([H])c([H])c(F)c([H])c7F)c([H])c6[H])c(C(=O)N([H])[H])c5N([H])[H])C4([H])[H])c3[H])c([H])c([H])c2C1([H])[H]

$$$$
78:0:0
     RDKit          3D

 98106  0  0  1  0  0  0  0  0999 V2000
  -28.5780  -23.5100   19.9600 C   0  0  0  0  0  0  0  0  0  0  0  0
  -29.5480  -22.5090   20.2850 N   0  0  0  0  0  0  0  0  0  0  0  0
  -27.7230  -23.2420   19.1090 O   0  0  0  0  0  0  0  0  0  0  0  0
  -29.2850  -20.1180   19.0590 C   0  0  0  0  0  3  0  0  0  0  0  0
  -30.0910  -18.6840   21.2740 C   0  0  0  0  0  3  0  0  0  0  0  0
  -29.5280  -20.9540   20.2140 C   0  0  0  0  0  0  0  0  0  0  0  0
  -29.8870  -17.8500   20.1240 C   0  0  0  0  0  0  0  0  0  0  0  0
  -29.4310  -18.6480   19.0120 C   0  0  0  0  0  0  0  0  0  0  0  0
  -29.9300  -20.1270   21.3240 C   0  0  0  0  0  0  0  0  0  0  0  0
  -30.2200  -20.8750   22.8570 Cl  0  0  0  0  0  0  0  0  0  0  0  0
  -30.6880  -15.1990   19.8820 C   0  0  0  0  0  0  0  0  0  0  0  0
  -30.5770  -12.8350   18.9600 C   0  0  0  0  0  2  0  0  0  0  0  0
  -29.5750  -12.7920   17.7830 C   0  0  0  0  0  2  0  0  0  0  0  0
  -28.1420  -12.5540   18.2940 C   0  0  0  0  0  2  0  0  0  0  0  0
  -27.7910  -13.4610   19.5040 C   0  0  0  0  0  3  0  0  0  0  0  0
  -28.9120  -13.4690   20.5650 C   0  0  0  0  0  2  0  0  0  0  0  0
  -30.1430  -13.9120   19.8940 N   0  0  0  0  0  0  0  0  0  0  0  0
  -31.8450  -15.3210   19.4660 O   0  0  0  0  0  0  0  0  0  0  0  0
  -29.8670  -16.3100   20.2200 N   0  0  0  0  0  0  0  0  0  0  0  0
  -29.0120  -15.9750   20.6390 H   0  0  0  0  0  0  0  0  0  0  0  0
  -25.4680  -14.0110   20.4280 C   0  0  0  0  0  0  0  0  0  0  0  0
  -24.4320  -13.2220   20.8440 C   0  0  0  0  0  0  0  0  0  0  0  0
  -24.8860  -11.8740   20.7230 C   0  0  0  0  0  0  0  0  0  0  0  0
  -26.4880  -13.1430   20.0770 N   0  0  0  0  0  0  0  0  0  0  0  0
  -26.1530  -11.8490   20.3200 N   0  0  0  0  0  0  0  0  0  0  0  0
  -24.1700  -10.6060   20.9100 C   0  0  0  0  0  0  0  0  0  0  0  0
  -24.5950   -9.6490   21.8580 C   0  0  0  0  0  3  0  0  0  0  0  0
  -23.8750   -8.4480   22.0350 C   0  0  0  0  0  3  0  0  0  0  0  0
  -22.7160   -8.1930   21.2640 C   0  0  0  0  0  0  0  0  0  0  0  0
  -22.3110   -9.1380   20.3040 C   0  0  0  0  0  3  0  0  0  0  0  0
  -23.0310  -10.3310   20.1270 C   0  0  0  0  0  3  0  0  0  0  0  0
  -21.9710   -7.0420   21.3480 O   0  0  0  0  0  0  0  0  0  0  0  0
  -21.8070   -6.3760   22.5360 C   0  0  0  0  0  0  0  0  0  0  0  0
  -21.2290   -6.9930   23.6660 C   0  0  0  0  0  3  0  0  0  0  0  0
  -21.0190   -6.2490   24.8440 C   0  0  0  0  0  3  0  0  0  0  0  0
  -21.3770   -4.8880   24.8920 C   0  0  0  0  0  0  0  0  0  0  0  0
  -21.9490   -4.2700   23.7660 C   0  0  0  0  0  3  0  0  0  0  0  0
  -22.1620   -5.0120   22.5910 C   0  0  0  0  0  0  0  0  0  0  0  0
  -22.6920   -4.4060   21.5020 F   0  0  0  0  0  0  0  0  0  0  0  0
  -21.1680   -4.1720   26.0220 F   0  0  0  0  0  0  0  0  0  0  0  0
  -23.0590  -13.6900   21.2320 C   0  0  0  0  0  0  0  0  0  0  0  0
  -22.3940  -12.9660   22.1250 N   0  0  0  0  0  0  0  0  0  0  0  0
  -22.5850  -14.7300   20.7750 O   0  0  0  0  0  0  0  0  0  0  0  0
  -22.7940  -12.1310   22.5230 H   0  0  0  0  0  0  0  0  0  0  0  0
  -21.4710  -13.2530   22.4180 H   0  0  0  0  0  0  0  0  0  0  0  0
  -25.6210  -15.3900   20.2920 N   0  0  0  0  0  0  0  0  0  0  0  0
  -24.8520  -16.0310   20.4590 H   0  0  0  0  0  0  0  0  0  0  0  0
  -26.4320  -15.8430   19.8870 H   0  0  0  0  0  0  0  0  0  0  0  0
  -28.2460  -18.5130   16.9300 C   0  0  0  0  0  1  0  0  0  0  0  0
  -29.1040  -17.9140   17.8910 O   0  0  0  0  0  0  0  0  0  0  0  0
  -28.4100  -25.0000   20.7120 C   0  0  0  0  0  2  0  0  0  0  0  0
  -28.5090  -26.4080   20.0610 O   0  0  0  0  0  0  0  0  0  0  0  0
  -24.6260  -31.8970   23.1840 C   0  0  0  0  0  0  0  0  0  0  0  0
  -27.4080  -27.3340   20.1030 C   0  0  0  0  0  0  0  0  0  0  0  0
  -23.4890  -30.4690   21.5270 C   0  0  0  0  0  3  0  0  0  0  0  0
  -25.0050  -28.9640   20.0960 C   0  0  0  0  0  0  0  0  0  0  0  0
  -26.0300  -30.8430   21.3700 C   0  0  0  0  0  2  0  0  0  0  0  0
  -26.1650  -29.4600   20.7070 C   0  0  0  0  0  0  0  0  0  0  0  0
  -27.3720  -28.6620   20.6880 C   0  0  0  0  0  3  0  0  0  0  0  0
  -26.2170  -26.9290   19.4710 C   0  0  0  0  0  3  0  0  0  0  0  0
  -25.0420  -27.7100   19.4670 C   0  0  0  0  0  3  0  0  0  0  0  0
  -23.7420  -29.8090   20.1450 C   0  0  0  0  0  2  0  0  0  0  0  0
  -24.7350  -31.0920   22.0830 N   0  0  0  0  0  0  0  0  0  0  0  0
  -23.5270  -32.1340   23.7080 O   0  0  0  0  0  0  0  0  0  0  0  0
  -22.8490  -29.4270   22.4770 C   0  0  0  0  0  0  0  0  0  0  0  0
  -21.5340  -29.1850   22.3270 N   0  0  0  0  0  0  0  0  0  0  0  0
  -23.5390  -28.8370   23.3140 O   0  0  0  0  0  0  0  0  0  0  0  0
  -21.0330  -29.7140   21.6270 H   0  0  0  0  0  0  0  0  0  0  0  0
  -18.2240  -27.7730   22.7440 C   0  0  0  0  0  0  0  0  0  0  0  0
  -20.7510  -28.2040   23.0830 C   0  0  0  0  0  3  0  0  0  0  0  0
  -20.9630  -26.7760   22.5300 C   0  0  0  0  0  2  0  0  0  0  0  0
  -19.9160  -26.3720   21.4870 C   0  0  0  0  0  2  0  0  0  0  0  0
  -18.5080  -26.4320   22.0870 C   0  0  0  0  0  2  0  0  0  0  0  0
  -19.2760  -28.6110   23.1980 C   0  0  0  0  0  0  0  0  0  0  0  0
  -18.9560  -29.8610   23.7700 C   0  0  0  0  0  3  0  0  0  0  0  0
  -17.6160  -30.2740   23.8960 C   0  0  0  0  0  3  0  0  0  0  0  0
  -16.5780  -29.4340   23.4560 C   0  0  0  0  0  3  0  0  0  0  0  0
  -16.8820  -28.1860   22.8850 C   0  0  0  0  0  3  0  0  0  0  0  0
  -25.8740  -32.5790   23.8230 C   0  0  0  0  0  3  0  0  0  0  0  0
  -25.5030  -33.9610   24.1630 N   0  0  0  0  0  0  0  0  0  0  0  0
  -25.7860  -35.0340   23.4130 C   0  0  0  0  0  0  0  0  0  0  0  0
  -26.4520  -34.9670   22.3770 O   0  0  0  0  0  0  0  0  0  0  0  0
  -24.9040  -34.0840   24.9660 H   0  0  0  0  0  0  0  0  0  0  0  0
  -23.9780  -36.7570   23.0980 C   0  0  0  0  0  1  0  0  0  0  0  0
  -25.2490  -36.4000   23.8870 C   0  0  0  0  0  3  0  0  0  0  0  0
  -27.3530  -37.3730   24.6930 C   0  0  0  0  0  1  0  0  0  0  0  0
  -26.2330  -37.4960   23.7640 N   0  0  0  0  0  0  0  0  0  0  0  0
  -25.7910  -38.3990   23.9160 H   0  0  0  0  0  0  0  0  0  0  0  0
  -26.4060  -31.8210   25.1010 C   0  0  1  0  0  0  0  0  0  0  0  0
  -25.3120  -31.5320   26.1560 C   0  0  0  0  0  1  0  0  0  0  0  0
  -27.0500  -30.4700   24.7120 C   0  0  0  0  0  1  0  0  0  0  0  0
  -27.5200  -32.6540   25.7790 C   0  0  0  0  0  1  0  0  0  0  0  0
  -30.8570  -23.0590   20.7020 C   0  0  0  0  0  2  0  0  0  0  0  0
  -31.7200  -23.5180   19.5080 C   0  0  0  0  0  2  0  0  0  0  0  0
  -31.1280  -24.6330   18.8550 O   0  0  0  0  0  0  0  0  0  0  0  0
  -31.2930  -23.9890   16.5160 C   0  0  0  0  0  1  0  0  0  0  0  0
  -31.2400  -26.4040   17.2790 C   0  0  0  0  0  1  0  0  0  0  0  0
  -31.7160  -24.9870   17.6080 C   0  0  0  0  0  3  0  0  0  0  0  0
  1  2  1  0
  1 51  1  0
  2 93  1  0
  3  1  2  0
  4  6  1  0
  5  9  1  0
  6  2  1  0
  6  9  2  0
  7 19  1  0
  7  5  2  0
  8  4  2  0
  8  7  1  0
  9 10  1  0
 11 17  1  0
 11 19  1  0
 12 17  1  0
 13 14  1  0
 13 12  1  0
 15 14  1  0
 15 24  1  0
 15 16  1  0
 17 16  1  0
 18 11  2  0
 19 20  1  0
 21 22  2  0
 22 41  1  0
 23 22  1  0
 23 26  1  0
 24 25  1  0
 24 21  1  0
 25 23  2  0
 26 27  1  0
 27 28  2  0
 29 32  1  0
 29 28  1  0
 30 29  2  0
 31 30  1  0
 31 26  2  0
 32 33  1  0
 33 38  2  0
 33 34  1  0
 34 35  2  0
 35 36  1  0
 36 40  1  0
 37 36  2  0
 38 37  1  0
 39 38  1  0
 41 42  1  0
 42 45  1  0
 42 44  1  0
 43 41  2  0
 46 21  1  0
 46 47  1  0
 48 46  1  0
 49 50  1  0
 50  8  1  0
 52 54  1  0
 52 51  1  0
 53 64  2  0
 54 59  1  0
 55 63  1  0
 55 65  1  0
 56 62  1  0
 56 58  1  0
 57 63  1  0
 58 57  1  0
 59 58  2  0
 60 54  2  0
 61 60  1  0
 61 56  2  0
 62 55  1  0
 63 53  1  0
 65 67  2  0
 66 65  1  0
 68 66  1  0
 69 78  2  0
 69 74  1  0
 70 66  1  0
 70 74  1  0
 71 70  1  0
 72 73  1  0
 72 71  1  0
 73 69  1  0
 74 75  2  0
 75 76  1  0
 77 76  2  0
 78 77  1  0
 79 53  1  0
 79 80  1  0
 79 89  1  0
 80 83  1  0
 81 85  1  0
 81 80  1  0
 82 81  2  0
 85 84  1  0
 87 85  1  0
 87 88  1  0
 87 86  1  0
 89 92  1  1
 89 90  1  0
 91 89  1  0
 94 93  1  0
 95 94  1  0
 96 98  1  0
 97 98  1  0
 98 95  1  0
M  ISO  4  11 100  19 100  51 101  52 101
M  END
>  <TORSDO>  (79) 
F 23

>  <SCORE>  (79) 
-12.513

>  <name>  (79) 
78

>  <ligand_id>  (79) 
78

>  <original_smiles>  (79) 
[H]c1c([H])c([H])c2c(c1[H])C([H])([H])C([H])([H])C([H])([H])C2([H])N([H])C(=O)C1([H])N(C(=O)C([H])(N([H])C(=O)C([H])(N([H])C([H])([H])[H])C([H])([H])[H])C(C([H])([H])[H])(C([H])([H])[H])C([H])([H])[H])C([H])([H])c2c([H])c(OC([H])([H])C(=O)N(c3c([H])c(OC([H])([H])[H])c(N([H])C(=O)N4C([H])([H])C([H])([H])C([H])([H])C([H])(n5nc(-c6c([H])c([H])c(Oc7c([H])c([H])c(F)c([H])c7F)c([H])c6[H])c(C(=O)N([H])[H])c5N([H])[H])C4([H])[H])c([H])c3Cl)C([H])([H])C([H])([H])OC([H])(C([H])([H])[H])C([H])([H])[H])c([H])c([H])c2C1([H])[H]

>  <smiles>  (79) 
[H]c1c([H])c([H])c2c(c1[H])C([H])([H])C([H])([H])C([H])([H])C2([H])N([H])C(=O)C1([H])N(C(=O)C([H])(N([H])C(=O)C([H])(N([H])C([H])([H])[H])C([H])([H])[H])C(C([H])([H])[H])(C([H])([H])[H])C([H])([H])[H])C([H])([H])c2c([H])c(OC([H])([H])C(=O)N(c3c([H])c(OC([H])([H])[H])c(N([H])C(=O)N4C([H])([H])C([H])([H])C([H])([H])C([H])(n5nc(-c6c([H])c([H])c(Oc7c([H])c([H])c(F)c([H])c7F)c([H])c6[H])c(C(=O)N([H])[H])c5N([H])[H])C4([H])[H])c([H])c3Cl)C([H])([H])C([H])([H])OC([H])(C([H])([H])[H])C([H])([H])[H])c([H])c([H])c2C1([H])[H]

$$$$
79:0:0
     RDKit          3D

 92100  0  0  1  0  0  0  0  0999 V2000
  -30.3650  -18.6290   21.0640 C   0  0  0  0  0  3  0  0  0  0  0  0
  -28.3240  -19.6300   19.5020 C   0  0  0  0  0  3  0  0  0  0  0  0
  -29.6150  -17.6100   20.3690 C   0  0  0  0  0  0  0  0  0  0  0  0
  -29.0340  -20.6550   20.2100 C   0  0  0  0  0  0  0  0  0  0  0  0
  -30.0980  -20.0700   20.9940 C   0  0  0  0  0  0  0  0  0  0  0  0
  -28.5850  -18.2090   19.5740 C   0  0  0  0  0  0  0  0  0  0  0  0
  -30.8760  -20.8900   21.7370 F   0  0  0  0  0  0  0  0  0  0  0  0
  -27.5600  -17.1700   18.6510 Cl  0  0  0  0  0  0  0  0  0  0  0  0
  -30.5030  -14.9840   20.3620 C   0  0  0  0  0  0  0  0  0  0  0  0
  -30.4090  -12.6450   19.3920 C   0  0  0  0  0  2  0  0  0  0  0  0
  -29.4670  -12.6350   18.1650 C   0  0  0  0  0  2  0  0  0  0  0  0
  -28.0010  -12.4270   18.5940 C   0  0  0  0  0  2  0  0  0  0  0  0
  -27.6020  -13.3280   19.7920 C   0  0  0  0  0  3  0  0  0  0  0  0
  -28.6630  -13.2950   20.9140 C   0  0  0  0  0  2  0  0  0  0  0  0
  -29.9400  -13.7120   20.3160 N   0  0  0  0  0  0  0  0  0  0  0  0
  -31.6980  -15.1040   20.0690 O   0  0  0  0  0  0  0  0  0  0  0  0
  -29.6410  -16.0860   20.5630 N   0  0  0  0  0  0  0  0  0  0  0  0
  -28.7060  -15.7290   20.6820 H   0  0  0  0  0  0  0  0  0  0  0  0
  -25.2170  -13.9070   20.5260 C   0  0  0  0  0  0  0  0  0  0  0  0
  -24.1530  -13.1300   20.8940 C   0  0  0  0  0  0  0  0  0  0  0  0
  -24.6190  -11.7800   20.8590 C   0  0  0  0  0  0  0  0  0  0  0  0
  -26.2610  -13.0300   20.2840 N   0  0  0  0  0  0  0  0  0  0  0  0
  -25.9100  -11.7460   20.5510 N   0  0  0  0  0  0  0  0  0  0  0  0
  -23.8930  -10.5170   21.0450 C   0  0  0  0  0  0  0  0  0  0  0  0
  -24.3220   -9.5490   21.9800 C   0  0  0  0  0  3  0  0  0  0  0  0
  -23.5950   -8.3510   22.1540 C   0  0  0  0  0  3  0  0  0  0  0  0
  -22.4260   -8.1140   21.3930 C   0  0  0  0  0  0  0  0  0  0  0  0
  -22.0170   -9.0700   20.4470 C   0  0  0  0  0  3  0  0  0  0  0  0
  -22.7440  -10.2600   20.2710 C   0  0  0  0  0  3  0  0  0  0  0  0
  -21.6710   -6.9690   21.4760 O   0  0  0  0  0  0  0  0  0  0  0  0
  -21.6100   -6.2300   22.6300 C   0  0  0  0  0  0  0  0  0  0  0  0
  -21.1550   -6.7830   23.8460 C   0  0  0  0  0  3  0  0  0  0  0  0
  -21.0430   -5.9690   24.9920 C   0  0  0  0  0  3  0  0  0  0  0  0
  -21.3750   -4.6030   24.9200 C   0  0  0  0  0  0  0  0  0  0  0  0
  -21.8230   -4.0490   23.7090 C   0  0  0  0  0  3  0  0  0  0  0  0
  -21.9370   -4.8600   22.5650 C   0  0  0  0  0  0  0  0  0  0  0  0
  -22.3490   -4.3160   21.3950 F   0  0  0  0  0  0  0  0  0  0  0  0
  -21.2600   -3.8190   26.0180 F   0  0  0  0  0  0  0  0  0  0  0  0
  -22.7550  -13.6070   21.1610 C   0  0  0  0  0  0  0  0  0  0  0  0
  -22.0270  -12.9130   22.0290 N   0  0  0  0  0  0  0  0  0  0  0  0
  -22.3150  -14.6280   20.6340 O   0  0  0  0  0  0  0  0  0  0  0  0
  -22.3950  -12.0880   22.4780 H   0  0  0  0  0  0  0  0  0  0  0  0
  -21.0890  -13.2140   22.2500 H   0  0  0  0  0  0  0  0  0  0  0  0
  -25.3720  -15.2770   20.3510 N   0  0  0  0  0  0  0  0  0  0  0  0
  -24.5830  -15.9080   20.4350 H   0  0  0  0  0  0  0  0  0  0  0  0
  -26.1700  -15.7110   19.9020 H   0  0  0  0  0  0  0  0  0  0  0  0
  -28.9040  -23.4320   20.4520 C   0  0  0  0  0  0  0  0  0  0  0  0
  -28.5560  -22.1110   20.0690 N   0  0  0  0  0  0  0  0  0  0  0  0
  -29.9330  -23.6480   21.0950 O   0  0  0  0  0  0  0  0  0  0  0  0
  -27.7070  -22.1580   19.5230 H   0  0  0  0  0  0  0  0  0  0  0  0
  -27.9470  -24.7240   20.0480 C   0  0  0  0  0  2  0  0  0  0  0  0
  -28.2620  -26.2150   20.3670 O   0  0  0  0  0  0  0  0  0  0  0  0
  -24.6420  -31.9310   23.3010 C   0  0  0  0  0  0  0  0  0  0  0  0
  -27.2190  -27.2120   20.2820 C   0  0  0  0  0  0  0  0  0  0  0  0
  -23.4460  -30.5410   21.6560 C   0  0  0  0  0  3  0  0  0  0  0  0
  -24.8960  -28.9640   20.2380 C   0  0  0  0  0  0  0  0  0  0  0  0
  -26.0020  -30.7950   21.5060 C   0  0  0  0  0  2  0  0  0  0  0  0
  -26.0740  -29.4040   20.8550 C   0  0  0  0  0  0  0  0  0  0  0  0
  -27.2360  -28.5430   20.8620 C   0  0  0  0  0  3  0  0  0  0  0  0
  -26.0150  -26.8780   19.6190 C   0  0  0  0  0  3  0  0  0  0  0  0
  -24.8790  -27.7140   19.6050 C   0  0  0  0  0  3  0  0  0  0  0  0
  -23.6720  -29.8640   20.2790 C   0  0  0  0  0  2  0  0  0  0  0  0
  -24.7170  -31.1100   22.2090 N   0  0  0  0  0  0  0  0  0  0  0  0
  -23.5550  -32.2210   23.8220 O   0  0  0  0  0  0  0  0  0  0  0  0
  -22.7580  -29.5360   22.6140 C   0  0  0  0  0  0  0  0  0  0  0  0
  -21.4300  -29.3690   22.4790 N   0  0  0  0  0  0  0  0  0  0  0  0
  -23.4210  -28.9080   23.4430 O   0  0  0  0  0  0  0  0  0  0  0  0
  -20.9510  -29.9240   21.7840 H   0  0  0  0  0  0  0  0  0  0  0  0
  -18.0400  -28.1860   22.9630 C   0  0  0  0  0  0  0  0  0  0  0  0
  -20.5990  -28.4370   23.2450 C   0  0  0  0  0  3  0  0  0  0  0  0
  -20.6970  -27.0030   22.6750 C   0  0  0  0  0  2  0  0  0  0  0  0
  -19.6000  -26.6830   21.6540 C   0  0  0  0  0  2  0  0  0  0  0  0
  -18.2150  -26.8350   22.2900 C   0  0  0  0  0  2  0  0  0  0  0  0
  -19.1590  -28.9450   23.3980 C   0  0  0  0  0  0  0  0  0  0  0  0
  -18.9410  -30.2090   23.9880 C   0  0  0  0  0  3  0  0  0  0  0  0
  -17.6360  -30.7130   24.1480 C   0  0  0  0  0  3  0  0  0  0  0  0
  -16.5320  -29.9510   23.7290 C   0  0  0  0  0  3  0  0  0  0  0  0
  -16.7340  -28.6900   23.1420 C   0  0  0  0  0  3  0  0  0  0  0  0
  -25.9200  -32.5610   23.9330 C   0  0  0  0  0  3  0  0  0  0  0  0
  -25.6150  -33.9640   24.2570 N   0  0  0  0  0  0  0  0  0  0  0  0
  -25.9310  -35.0120   23.4840 C   0  0  0  0  0  0  0  0  0  0  0  0
  -26.5760  -34.9000   22.4390 O   0  0  0  0  0  0  0  0  0  0  0  0
  -25.0370  -34.1250   25.0680 H   0  0  0  0  0  0  0  0  0  0  0  0
  -24.1800  -36.7950   23.1780 C   0  0  0  0  0  1  0  0  0  0  0  0
  -25.4560  -36.4050   23.9420 C   0  0  0  0  0  3  0  0  0  0  0  0
  -27.6160  -37.3150   24.6770 C   0  0  0  0  0  1  0  0  0  0  0  0
  -26.4780  -37.4610   23.7730 N   0  0  0  0  0  0  0  0  0  0  0  0
  -26.0720  -38.3820   23.9200 H   0  0  0  0  0  0  0  0  0  0  0  0
  -26.4140  -31.7960   25.2240 C   0  0  1  0  0  0  0  0  0  0  0  0
  -25.3060  -31.5760   26.2800 C   0  0  0  0  0  1  0  0  0  0  0  0
  -26.9910  -30.4100   24.8540 C   0  0  0  0  0  1  0  0  0  0  0  0
  -27.5640  -32.5870   25.8930 C   0  0  0  0  0  1  0  0  0  0  0  0
  2  6  2  0
  2  4  1  0
  3 17  1  0
  3  1  2  0
  4  5  2  0
  5  1  1  0
  5  7  1  0
  6  3  1  0
  8  6  1  0
  9 17  1  0
 10 15  1  0
 11 12  1  0
 11 10  1  0
 13 12  1  0
 13 22  1  0
 13 14  1  0
 15  9  1  0
 15 14  1  0
 16  9  2  0
 17 18  1  0
 19 20  2  0
 20 39  1  0
 21 20  1  0
 21 24  1  0
 22 19  1  0
 22 23  1  0
 23 21  2  0
 24 25  1  0
 25 26  2  0
 27 30  1  0
 27 26  1  0
 28 27  2  0
 29 28  1  0
 29 24  2  0
 30 31  1  0
 31 32  1  0
 32 33  2  0
 34 33  1  0
 34 38  1  0
 35 34  2  0
 36 31  2  0
 36 35  1  0
 37 36  1  0
 39 40  1  0
 40 43  1  0
 40 42  1  0
 41 39  2  0
 44 45  1  0
 44 19  1  0
 46 44  1  0
 47 49  2  0
 48  4  1  0
 48 47  1  0
 50 48  1  0
 51 52  1  0
 51 47  1  0
 53 64  2  0
 54 52  1  0
 54 59  1  0
 55 63  1  0
 55 65  1  0
 56 62  1  0
 56 58  1  0
 57 63  1  0
 58 59  2  0
 58 57  1  0
 60 54  2  0
 61 60  1  0
 61 56  2  0
 62 55  1  0
 63 53  1  0
 65 67  2  0
 66 65  1  0
 68 66  1  0
 69 78  2  0
 69 74  1  0
 70 66  1  0
 70 74  1  0
 71 70  1  0
 72 73  1  0
 72 71  1  0
 73 69  1  0
 74 75  2  0
 75 76  1  0
 77 76  2  0
 78 77  1  0
 79 53  1  0
 79 80  1  0
 79 89  1  0
 80 83  1  0
 81 85  1  0
 81 80  1  0
 82 81  2  0
 85 84  1  0
 87 88  1  0
 87 85  1  0
 87 86  1  0
 89 92  1  1
 89 90  1  0
 91 89  1  0
M  ISO  4   9 100  17 100  51 101  52 101
M  END
>  <TORSDO>  (80) 
F 18

>  <SCORE>  (80) 
-14.892

>  <name>  (80) 
79

>  <ligand_id>  (80) 
79

>  <original_smiles>  (80) 
[H]c1c([H])c([H])c2c(c1[H])C([H])([H])C([H])([H])C([H])([H])C2([H])N([H])C(=O)C1([H])N(C(=O)C([H])(N([H])C(=O)C([H])(N([H])C([H])([H])[H])C([H])([H])[H])C(C([H])([H])[H])(C([H])([H])[H])C([H])([H])[H])C([H])([H])c2c([H])c(OC([H])([H])C(=O)N([H])c3c([H])c(Cl)c(N([H])C(=O)N4C([H])([H])C([H])([H])C([H])([H])C([H])(n5nc(-c6c([H])c([H])c(Oc7c([H])c([H])c(F)c([H])c7F)c([H])c6[H])c(C(=O)N([H])[H])c5N([H])[H])C4([H])[H])c([H])c3F)c([H])c([H])c2C1([H])[H]

>  <smiles>  (80) 
[H]c1c([H])c([H])c2c(c1[H])C([H])([H])C([H])([H])C([H])([H])C2([H])N([H])C(=O)C1([H])N(C(=O)C([H])(N([H])C(=O)C([H])(N([H])C([H])([H])[H])C([H])([H])[H])C(C([H])([H])[H])(C([H])([H])[H])C([H])([H])[H])C([H])([H])c2c([H])c(OC([H])([H])C(=O)N([H])c3c([H])c(Cl)c(N([H])C(=O)N4C([H])([H])C([H])([H])C([H])([H])C([H])(n5nc(-c6c([H])c([H])c(Oc7c([H])c([H])c(F)c([H])c7F)c([H])c6[H])c(C(=O)N([H])[H])c5N([H])[H])C4([H])[H])c([H])c3F)c([H])c([H])c2C1([H])[H]

$$$$
80:0:0
     RDKit          3D

 92100  0  0  1  0  0  0  0  0999 V2000
  -31.8560  -19.5380   20.5770 C   0  0  0  0  0  3  0  0  0  0  0  0
  -31.0130  -20.6450   20.3330 C   0  0  0  0  0  3  0  0  0  0  0  0
  -31.4250  -18.1960   20.4910 C   0  0  0  0  0  3  0  0  0  0  0  0
  -29.6490  -20.5110   19.9850 C   0  0  0  0  0  0  0  0  0  0  0  0
  -30.1020  -17.8410   20.1540 C   0  0  0  0  0  0  0  0  0  0  0  0
  -29.2270  -19.0580   19.9130 C   0  0  0  0  0  0  0  0  0  0  0  0
  -30.5240  -15.0900   19.9310 C   0  0  0  0  0  0  0  0  0  0  0  0
  -30.3630  -12.7370   18.9470 C   0  0  0  0  0  2  0  0  0  0  0  0
  -29.3610  -12.6720   17.7710 C   0  0  0  0  0  2  0  0  0  0  0  0
  -27.9310  -12.4280   18.2880 C   0  0  0  0  0  2  0  0  0  0  0  0
  -27.5810  -13.3350   19.4960 C   0  0  0  0  0  3  0  0  0  0  0  0
  -28.7010  -13.3680   20.5580 C   0  0  0  0  0  2  0  0  0  0  0  0
  -29.9180  -13.8250   19.8730 N   0  0  0  0  0  0  0  0  0  0  0  0
  -31.7200  -15.1100   19.6150 O   0  0  0  0  0  0  0  0  0  0  0  0
  -29.7670  -16.3110   20.1120 N   0  0  0  0  0  0  0  0  0  0  0  0
  -28.7840  -16.1210   20.2220 H   0  0  0  0  0  0  0  0  0  0  0  0
  -25.2480  -13.8770   20.3860 C   0  0  0  0  0  0  0  0  0  0  0  0
  -24.2130  -13.0880   20.8020 C   0  0  0  0  0  0  0  0  0  0  0  0
  -24.6820  -11.7410   20.7200 C   0  0  0  0  0  0  0  0  0  0  0  0
  -26.2810  -13.0110   20.0690 N   0  0  0  0  0  0  0  0  0  0  0  0
  -25.9550  -11.7200   20.3380 N   0  0  0  0  0  0  0  0  0  0  0  0
  -23.9740  -10.4710   20.9250 C   0  0  0  0  0  0  0  0  0  0  0  0
  -24.4360   -9.5080   21.8490 C   0  0  0  0  0  3  0  0  0  0  0  0
  -23.7240   -8.3040   22.0440 C   0  0  0  0  0  3  0  0  0  0  0  0
  -22.5370   -8.0540   21.3140 C   0  0  0  0  0  0  0  0  0  0  0  0
  -22.0950   -9.0060   20.3780 C   0  0  0  0  0  3  0  0  0  0  0  0
  -22.8080  -10.2020   20.1820 C   0  0  0  0  0  3  0  0  0  0  0  0
  -21.7950   -6.9020   21.4180 O   0  0  0  0  0  0  0  0  0  0  0  0
  -21.7340   -6.1890   22.5890 C   0  0  0  0  0  0  0  0  0  0  0  0
  -21.2820   -6.7700   23.7930 C   0  0  0  0  0  3  0  0  0  0  0  0
  -21.1700   -5.9820   24.9560 C   0  0  0  0  0  3  0  0  0  0  0  0
  -21.5000   -4.6150   24.9150 C   0  0  0  0  0  0  0  0  0  0  0  0
  -21.9470   -4.0330   23.7160 C   0  0  0  0  0  3  0  0  0  0  0  0
  -22.0600   -4.8180   22.5550 C   0  0  0  0  0  0  0  0  0  0  0  0
  -22.4700   -4.2480   21.3960 F   0  0  0  0  0  0  0  0  0  0  0  0
  -21.3860   -3.8550   26.0310 F   0  0  0  0  0  0  0  0  0  0  0  0
  -22.8300  -13.5510   21.1550 C   0  0  0  0  0  0  0  0  0  0  0  0
  -22.1600  -12.8460   22.0590 N   0  0  0  0  0  0  0  0  0  0  0  0
  -22.3540  -14.5740   20.6640 O   0  0  0  0  0  0  0  0  0  0  0  0
  -22.5580  -12.0190   22.4780 H   0  0  0  0  0  0  0  0  0  0  0  0
  -21.2340  -13.1380   22.3390 H   0  0  0  0  0  0  0  0  0  0  0  0
  -25.3890  -15.2520   20.2190 N   0  0  0  0  0  0  0  0  0  0  0  0
  -24.6060  -15.8820   20.3530 H   0  0  0  0  0  0  0  0  0  0  0  0
  -26.1750  -15.6910   19.7590 H   0  0  0  0  0  0  0  0  0  0  0  0
  -29.0830  -23.2510   19.8820 C   0  0  0  0  0  0  0  0  0  0  0  0
  -28.8360  -21.8280   19.7230 N   0  0  0  0  0  0  0  0  0  0  0  0
  -30.1390  -23.6100   20.4060 O   0  0  0  0  0  0  0  0  0  0  0  0
  -27.9190  -21.6500   19.3340 H   0  0  0  0  0  0  0  0  0  0  0  0
  -28.0710  -24.5280   19.4390 C   0  0  0  0  0  2  0  0  0  0  0  0
  -28.3500  -26.0700   19.7200 O   0  0  0  0  0  0  0  0  0  0  0  0
  -24.6040  -31.6050   22.9850 C   0  0  0  0  0  0  0  0  0  0  0  0
  -27.2930  -27.0780   19.7050 C   0  0  0  0  0  0  0  0  0  0  0  0
  -23.4430  -30.2740   21.2680 C   0  0  0  0  0  3  0  0  0  0  0  0
  -24.9320  -28.8110   19.7600 C   0  0  0  0  0  0  0  0  0  0  0  0
  -25.9960  -30.5950   21.1280 C   0  0  0  0  0  2  0  0  0  0  0  0
  -26.1040  -29.2380   20.3970 C   0  0  0  0  0  0  0  0  0  0  0  0
  -27.2840  -28.3910   20.3500 C   0  0  0  0  0  3  0  0  0  0  0  0
  -26.0910  -26.7740   19.0300 C   0  0  0  0  0  3  0  0  0  0  0  0
  -24.9420  -27.5970   19.0580 C   0  0  0  0  0  3  0  0  0  0  0  0
  -23.6850  -29.6810   19.8540 C   0  0  0  0  0  2  0  0  0  0  0  0
  -24.7010  -30.8450   21.8500 N   0  0  0  0  0  0  0  0  0  0  0  0
  -23.5090  -31.8330   23.5230 O   0  0  0  0  0  0  0  0  0  0  0  0
  -22.7840  -29.2000   22.1720 C   0  0  0  0  0  0  0  0  0  0  0  0
  -21.4530  -29.0370   22.0640 N   0  0  0  0  0  0  0  0  0  0  0  0
  -23.4740  -28.5190   22.9350 O   0  0  0  0  0  0  0  0  0  0  0  0
  -20.9500  -29.6390   21.4280 H   0  0  0  0  0  0  0  0  0  0  0  0
  -18.0780  -27.8330   22.6140 C   0  0  0  0  0  0  0  0  0  0  0  0
  -20.6510  -28.0430   22.7870 C   0  0  0  0  0  3  0  0  0  0  0  0
  -20.7050  -26.6670   22.0840 C   0  0  0  0  0  2  0  0  0  0  0  0
  -19.5540  -26.4480   21.0970 C   0  0  0  0  0  2  0  0  0  0  0  0
  -18.2050  -26.5490   21.8130 C   0  0  0  0  0  2  0  0  0  0  0  0
  -19.2260  -28.5430   23.0580 C   0  0  0  0  0  0  0  0  0  0  0  0
  -19.0500  -29.7470   23.7750 C   0  0  0  0  0  3  0  0  0  0  0  0
  -17.7620  -30.2430   24.0460 C   0  0  0  0  0  3  0  0  0  0  0  0
  -16.6290  -29.5290   23.6170 C   0  0  0  0  0  3  0  0  0  0  0  0
  -16.7890  -28.3260   22.9070 C   0  0  0  0  0  3  0  0  0  0  0  0
  -25.8620  -32.2400   23.6490 C   0  0  0  0  0  3  0  0  0  0  0  0
  -26.3790  -31.4260   24.9000 C   0  0  1  0  0  0  0  0  0  0  0  0
  -25.2800  -31.1270   25.9470 C   0  0  0  0  0  1  0  0  0  0  0  0
  -26.9880  -30.0730   24.4630 C   0  0  0  0  0  1  0  0  0  0  0  0
  -27.5110  -32.2100   25.6040 C   0  0  0  0  0  1  0  0  0  0  0  0
  -25.5170  -33.6160   24.0460 N   0  0  0  0  0  0  0  0  0  0  0  0
  -25.8120  -34.7140   23.3370 C   0  0  0  0  0  0  0  0  0  0  0  0
  -26.4700  -34.6750   22.2940 O   0  0  0  0  0  0  0  0  0  0  0  0
  -24.9290  -33.7150   24.8600 H   0  0  0  0  0  0  0  0  0  0  0  0
  -24.0230  -36.4700   23.1140 C   0  0  0  0  0  1  0  0  0  0  0  0
  -25.3000  -36.0670   23.8690 C   0  0  0  0  0  3  0  0  0  0  0  0
  -27.4300  -36.9850   24.6750 C   0  0  0  0  0  1  0  0  0  0  0  0
  -26.2970  -37.1550   23.7700 N   0  0  0  0  0  0  0  0  0  0  0  0
  -25.8680  -38.0560   23.9660 H   0  0  0  0  0  0  0  0  0  0  0  0
  -27.1320  -18.3590   20.6620 C   0  0  0  0  0  1  0  0  0  0  0  0
  -27.9180  -18.8330   19.5780 O   0  0  0  0  0  0  0  0  0  0  0  0
  2  1  2  0
  3  1  1  0
  4  2  1  0
  5  3  2  0
  6  4  2  0
  6  5  1  0
  7 15  1  0
  8 13  1  0
  9 10  1  0
  9  8  1  0
 11 10  1  0
 11 20  1  0
 11 12  1  0
 13  7  1  0
 13 12  1  0
 14  7  2  0
 15  5  1  0
 15 16  1  0
 17 18  2  0
 18 37  1  0
 19 18  1  0
 19 22  1  0
 20 21  1  0
 20 17  1  0
 21 19  2  0
 22 23  1  0
 23 24  2  0
 25 28  1  0
 25 24  1  0
 26 25  2  0
 27 26  1  0
 27 22  2  0
 28 29  1  0
 29 30  1  0
 30 31  2  0
 32 31  1  0
 32 36  1  0
 33 32  2  0
 34 29  2  0
 34 33  1  0
 35 34  1  0
 37 38  1  0
 38 41  1  0
 38 40  1  0
 39 37  2  0
 42 43  1  0
 42 17  1  0
 44 42  1  0
 45 47  2  0
 46 45  1  0
 46  4  1  0
 48 46  1  0
 49 50  1  0
 49 45  1  0
 51 62  2  0
 52 50  1  0
 52 57  1  0
 53 61  1  0
 53 63  1  0
 54 60  1  0
 54 56  1  0
 55 61  1  0
 56 55  1  0
 57 56  2  0
 58 59  1  0
 58 52  2  0
 59 54  2  0
 60 53  1  0
 61 51  1  0
 63 65  2  0
 64 63  1  0
 66 64  1  0
 67 76  2  0
 67 72  1  0
 68 64  1  0
 68 72  1  0
 69 68  1  0
 70 71  1  0
 70 69  1  0
 71 67  1  0
 72 73  2  0
 73 74  1  0
 75 74  2  0
 76 75  1  0
 77 51  1  0
 77 82  1  0
 77 78  1  0
 78 81  1  1
 78 79  1  0
 80 78  1  0
 82 85  1  0
 83 87  1  0
 83 82  1  0
 84 83  2  0
 87 86  1  0
 89 87  1  0
 89 90  1  0
 89 88  1  0
 92  6  1  0
 92 91  1  0
M  ISO  4   7 100  15 100  49 101  50 101
M  END
>  <TORSDO>  (81) 
F 19

>  <SCORE>  (81) 
-13.244

>  <name>  (81) 
80

>  <ligand_id>  (81) 
80

>  <original_smiles>  (81) 
[H]c1c([H])c(N([H])C(=O)N2C([H])([H])C([H])([H])C([H])([H])C([H])(n3nc(-c4c([H])c([H])c(Oc5c([H])c([H])c(F)c([H])c5F)c([H])c4[H])c(C(=O)N([H])[H])c3N([H])[H])C2([H])[H])c(OC([H])([H])[H])c(N([H])C(=O)C([H])([H])Oc2c([H])c([H])c3c(c2[H])C([H])([H])N(C(=O)C([H])(N([H])C(=O)C([H])(N([H])C([H])([H])[H])C([H])([H])[H])C(C([H])([H])[H])(C([H])([H])[H])C([H])([H])[H])C([H])(C(=O)N([H])C2([H])c4c([H])c([H])c([H])c([H])c4C([H])([H])C([H])([H])C2([H])[H])C3([H])[H])c1[H]

>  <smiles>  (81) 
[H]c1c([H])c(N([H])C(=O)N2C([H])([H])C([H])([H])C([H])([H])C([H])(n3nc(-c4c([H])c([H])c(Oc5c([H])c([H])c(F)c([H])c5F)c([H])c4[H])c(C(=O)N([H])[H])c3N([H])[H])C2([H])[H])c(OC([H])([H])[H])c(N([H])C(=O)C([H])([H])Oc2c([H])c([H])c3c(c2[H])C([H])([H])N(C(=O)C([H])(N([H])C(=O)C([H])(N([H])C([H])([H])[H])C([H])([H])[H])C(C([H])([H])[H])(C([H])([H])[H])C([H])([H])[H])C([H])(C(=O)N([H])C2([H])c4c([H])c([H])c([H])c([H])c4C([H])([H])C([H])([H])C2([H])[H])C3([H])[H])c1[H]

$$$$
81:0:0
     RDKit          3D

 94102  0  0  1  0  0  0  0  0999 V2000
  -29.8990  -18.4350   23.0420 C   0  0  0  0  0  3  0  0  0  0  0  0
  -31.6390  -18.3630   21.3470 C   0  0  0  0  0  3  0  0  0  0  0  0
  -30.0610  -19.8310   23.1630 C   0  0  0  0  0  3  0  0  0  0  0  0
  -31.8210  -19.7550   21.4940 C   0  0  0  0  0  3  0  0  0  0  0  0
  -30.6480  -17.6950   22.1010 C   0  0  0  0  0  0  0  0  0  0  0  0
  -31.0020  -20.5090   22.3580 C   0  0  0  0  0  0  0  0  0  0  0  0
  -31.2160  -15.3210   22.7390 C   0  0  0  0  0  1  0  0  0  0  0  0
  -30.3050  -16.2160   21.8650 C   0  0  0  0  0  3  0  0  0  0  0  0
  -30.8690  -14.7390   19.9530 C   0  0  0  0  0  0  0  0  0  0  0  0
  -30.4630  -12.6130   18.7530 C   0  0  0  0  0  2  0  0  0  0  0  0
  -29.4550  -12.8300   17.6080 C   0  0  0  0  0  2  0  0  0  0  0  0
  -28.0010  -12.7160   18.1100 C   0  0  0  0  0  2  0  0  0  0  0  0
  -27.7420  -13.5190   19.4080 C   0  0  0  0  0  3  0  0  0  0  0  0
  -28.8620  -13.2870   20.4470 C   0  0  0  0  0  2  0  0  0  0  0  0
  -30.1520  -13.5850   19.8060 N   0  0  0  0  0  0  0  0  0  0  0  0
  -32.0090  -14.8740   19.4940 O   0  0  0  0  0  0  0  0  0  0  0  0
  -29.4170  -16.5410   19.5450 C   0  0  0  0  0  0  0  0  0  0  0  0
  -28.4440  -17.6160   20.0500 C   0  0  0  0  0  1  0  0  0  0  0  0
  -30.1750  -15.8120   20.4260 N   0  0  0  0  0  0  0  0  0  0  0  0
  -29.4210  -16.3630   18.3190 O   0  0  0  0  0  0  0  0  0  0  0  0
  -25.4130  -14.1530   20.2900 C   0  0  0  0  0  0  0  0  0  0  0  0
  -24.3640  -13.3890   20.7240 C   0  0  0  0  0  0  0  0  0  0  0  0
  -24.8140  -12.0360   20.6560 C   0  0  0  0  0  0  0  0  0  0  0  0
  -26.4260  -13.2610   19.9760 N   0  0  0  0  0  0  0  0  0  0  0  0
  -26.0780  -11.9850   20.2630 N   0  0  0  0  0  0  0  0  0  0  0  0
  -24.0990  -10.7770   20.8800 C   0  0  0  0  0  0  0  0  0  0  0  0
  -24.5570   -9.8200   21.8110 C   0  0  0  0  0  3  0  0  0  0  0  0
  -23.8410   -8.6220   22.0150 C   0  0  0  0  0  3  0  0  0  0  0  0
  -22.6520   -8.3730   21.2880 C   0  0  0  0  0  0  0  0  0  0  0  0
  -22.2160   -9.3180   20.3420 C   0  0  0  0  0  3  0  0  0  0  0  0
  -22.9350  -10.5080   20.1360 C   0  0  0  0  0  3  0  0  0  0  0  0
  -21.9050   -7.2270   21.4060 O   0  0  0  0  0  0  0  0  0  0  0  0
  -21.8470   -6.5230   22.5810 C   0  0  0  0  0  0  0  0  0  0  0  0
  -21.4240   -7.1220   23.7870 C   0  0  0  0  0  3  0  0  0  0  0  0
  -21.3130   -6.3450   24.9570 C   0  0  0  0  0  3  0  0  0  0  0  0
  -21.6150   -4.9710   24.9220 C   0  0  0  0  0  0  0  0  0  0  0  0
  -22.0370   -4.3720   23.7230 C   0  0  0  0  0  3  0  0  0  0  0  0
  -22.1470   -5.1450   22.5550 C   0  0  0  0  0  0  0  0  0  0  0  0
  -22.5300   -4.5600   21.3940 F   0  0  0  0  0  0  0  0  0  0  0  0
  -21.4960   -4.2240   26.0440 F   0  0  0  0  0  0  0  0  0  0  0  0
  -22.9900  -13.8760   21.0810 C   0  0  0  0  0  0  0  0  0  0  0  0
  -22.3270  -13.1950   22.0100 N   0  0  0  0  0  0  0  0  0  0  0  0
  -22.5180  -14.8940   20.5780 O   0  0  0  0  0  0  0  0  0  0  0  0
  -22.7340  -12.3740   22.4320 H   0  0  0  0  0  0  0  0  0  0  0  0
  -21.4120  -13.5010   22.3060 H   0  0  0  0  0  0  0  0  0  0  0  0
  -25.5740  -15.5230   20.1160 N   0  0  0  0  0  0  0  0  0  0  0  0
  -24.8080  -16.1620   20.2960 H   0  0  0  0  0  0  0  0  0  0  0  0
  -26.3370  -15.9530   19.6140 H   0  0  0  0  0  0  0  0  0  0  0  0
  -31.1690  -21.8780   22.3670 O   0  0  0  0  0  0  0  0  0  0  0  0
  -30.0060  -22.6980   22.5300 C   0  0  0  0  0  2  0  0  0  0  0  0
  -30.3210  -24.0490   21.8510 C   0  0  0  0  0  2  0  0  0  0  0  0
  -29.1450  -25.0520   21.6990 C   0  0  0  0  0  2  0  0  0  0  0  0
  -29.5790  -26.4400   21.1520 C   0  0  0  0  0  2  0  0  0  0  0  0
  -28.9110  -26.7640   19.9290 O   0  0  0  0  0  0  0  0  0  0  0  0
  -24.7590  -31.6350   23.1240 C   0  0  0  0  0  0  0  0  0  0  0  0
  -27.7170  -27.4430   20.0050 C   0  0  0  0  0  0  0  0  0  0  0  0
  -23.6660  -30.2180   21.4130 C   0  0  0  0  0  3  0  0  0  0  0  0
  -25.2360  -28.7980   19.9910 C   0  0  0  0  0  0  0  0  0  0  0  0
  -26.1660  -30.7210   21.2850 C   0  0  0  0  0  2  0  0  0  0  0  0
  -26.3440  -29.3700   20.6270 C   0  0  0  0  0  0  0  0  0  0  0  0
  -27.5850  -28.6960   20.6470 C   0  0  0  0  0  3  0  0  0  0  0  0
  -26.5970  -26.8870   19.3550 C   0  0  0  0  0  3  0  0  0  0  0  0
  -25.3540  -27.5460   19.3590 C   0  0  0  0  0  3  0  0  0  0  0  0
  -23.9460  -29.5880   20.0220 C   0  0  0  0  0  2  0  0  0  0  0  0
  -24.8790  -30.8730   22.0010 N   0  0  0  0  0  0  0  0  0  0  0  0
  -23.6540  -31.8310   23.6490 O   0  0  0  0  0  0  0  0  0  0  0  0
  -23.0540  -29.1340   22.3300 C   0  0  0  0  0  0  0  0  0  0  0  0
  -21.7460  -28.8760   22.1650 N   0  0  0  0  0  0  0  0  0  0  0  0
  -23.7550  -28.5270   23.1460 O   0  0  0  0  0  0  0  0  0  0  0  0
  -21.2380  -29.4250   21.4850 H   0  0  0  0  0  0  0  0  0  0  0  0
  -18.4410  -27.4750   22.5470 C   0  0  0  0  0  0  0  0  0  0  0  0
  -20.9710  -27.8710   22.8900 C   0  0  0  0  0  3  0  0  0  0  0  0
  -21.1720  -26.4670   22.2770 C   0  0  0  0  0  2  0  0  0  0  0  0
  -20.1160  -26.1100   21.2270 C   0  0  0  0  0  2  0  0  0  0  0  0
  -18.7130  -26.1580   21.8390 C   0  0  0  0  0  2  0  0  0  0  0  0
  -19.5040  -28.2860   23.0270 C   0  0  0  0  0  0  0  0  0  0  0  0
  -19.2000  -29.5170   23.6470 C   0  0  0  0  0  3  0  0  0  0  0  0
  -17.8660  -29.9420   23.7910 C   0  0  0  0  0  3  0  0  0  0  0  0
  -16.8170  -29.1270   23.3290 C   0  0  0  0  0  3  0  0  0  0  0  0
  -17.1050  -27.8960   22.7150 C   0  0  0  0  0  3  0  0  0  0  0  0
  -25.9980  -32.3170   23.7860 C   0  0  0  0  0  3  0  0  0  0  0  0
  -25.6030  -33.6820   24.1640 N   0  0  0  0  0  0  0  0  0  0  0  0
  -25.8830  -34.7790   23.4490 C   0  0  0  0  0  0  0  0  0  0  0  0
  -26.5730  -34.7550   22.4250 O   0  0  0  0  0  0  0  0  0  0  0  0
  -24.9930  -33.7720   24.9640 H   0  0  0  0  0  0  0  0  0  0  0  0
  -24.0540  -36.4740   23.1280 C   0  0  0  0  0  1  0  0  0  0  0  0
  -25.3050  -36.1180   23.9470 C   0  0  0  0  0  3  0  0  0  0  0  0
  -27.3690  -37.0960   24.8450 C   0  0  0  0  0  1  0  0  0  0  0  0
  -26.2740  -37.2340   23.8890 N   0  0  0  0  0  0  0  0  0  0  0  0
  -25.8100  -38.1210   24.0670 H   0  0  0  0  0  0  0  0  0  0  0  0
  -26.5500  -31.5280   25.0370 C   0  0  1  0  0  0  0  0  0  0  0  0
  -25.4590  -31.1610   26.0690 C   0  0  0  0  0  1  0  0  0  0  0  0
  -27.2410  -30.2190   24.5940 C   0  0  0  0  0  1  0  0  0  0  0  0
  -27.6260  -32.3720   25.7610 C   0  0  0  0  0  1  0  0  0  0  0  0
  1  3  1  0
  2  4  2  0
  2  5  1  0
  4  6  1  0
  5  1  2  0
  6 49  1  0
  6  3  2  0
  8  5  1  0
  8  7  1  0
  9 19  1  0
 10 15  1  0
 11 12  1  0
 11 10  1  0
 13 12  1  0
 13 24  1  0
 13 14  1  0
 15  9  1  0
 15 14  1  0
 16  9  2  0
 17 18  1  0
 17 19  1  0
 19  8  1  0
 20 17  2  0
 21 22  2  0
 22 41  1  0
 23 22  1  0
 23 26  1  0
 24 25  1  0
 24 21  1  0
 25 23  2  0
 26 27  1  0
 27 28  2  0
 29 32  1  0
 29 28  1  0
 30 29  2  0
 31 30  1  0
 31 26  2  0
 32 33  1  0
 33 34  1  0
 34 35  2  0
 36 35  1  0
 36 40  1  0
 37 36  2  0
 38 33  2  0
 38 37  1  0
 39 38  1  0
 41 42  1  0
 42 45  1  0
 42 44  1  0
 43 41  2  0
 46 21  1  0
 46 47  1  0
 48 46  1  0
 49 50  1  0
 51 50  1  0
 52 51  1  0
 53 52  1  0
 54 56  1  0
 54 53  1  0
 55 66  2  0
 56 61  1  0
 57 65  1  0
 57 67  1  0
 58 64  1  0
 58 60  1  0
 59 65  1  0
 60 61  2  0
 60 59  1  0
 62 63  1  0
 62 56  2  0
 63 58  2  0
 64 57  1  0
 65 55  1  0
 67 69  2  0
 68 67  1  0
 70 68  1  0
 71 80  2  0
 71 76  1  0
 72 68  1  0
 72 76  1  0
 73 72  1  0
 74 75  1  0
 74 73  1  0
 75 71  1  0
 76 77  2  0
 77 78  1  0
 79 78  2  0
 80 79  1  0
 81 55  1  0
 81 82  1  0
 81 91  1  0
 82 85  1  0
 83 87  1  0
 83 82  1  0
 84 83  2  0
 87 86  1  0
 89 87  1  0
 89 90  1  0
 89 88  1  0
 91 94  1  1
 91 92  1  0
 93 91  1  0
M  ISO  4   9 100  19 100  53 101  54 101
M  END
>  <TORSDO>  (82) 
F 22

>  <SCORE>  (82) 
-8.973

>  <name>  (82) 
81

>  <ligand_id>  (82) 
81

>  <original_smiles>  (82) 
[H]c1c([H])c([H])c2c(c1[H])C([H])([H])C([H])([H])C([H])([H])C2([H])N([H])C(=O)C1([H])N(C(=O)C([H])(N([H])C(=O)C([H])(N([H])C([H])([H])[H])C([H])([H])[H])C(C([H])([H])[H])(C([H])([H])[H])C([H])([H])[H])C([H])([H])c2c([H])c(OC([H])([H])C([H])([H])C([H])([H])C([H])([H])Oc3c([H])c([H])c(C([H])(N(C(=O)N4C([H])([H])C([H])([H])C([H])([H])C([H])(n5nc(-c6c([H])c([H])c(Oc7c([H])c([H])c(F)c([H])c7F)c([H])c6[H])c(C(=O)N([H])[H])c5N([H])[H])C4([H])[H])C(=O)C([H])([H])[H])C([H])([H])[H])c([H])c3[H])c([H])c([H])c2C1([H])[H]

>  <smiles>  (82) 
[H]c1c([H])c([H])c2c(c1[H])C([H])([H])C([H])([H])C([H])([H])C2([H])N([H])C(=O)C1([H])N(C(=O)C([H])(N([H])C(=O)C([H])(N([H])C([H])([H])[H])C([H])([H])[H])C(C([H])([H])[H])(C([H])([H])[H])C([H])([H])[H])C([H])([H])c2c([H])c(OC([H])([H])C([H])([H])C([H])([H])C([H])([H])Oc3c([H])c([H])c(C([H])(N(C(=O)N4C([H])([H])C([H])([H])C([H])([H])C([H])(n5nc(-c6c([H])c([H])c(Oc7c([H])c([H])c(F)c([H])c7F)c([H])c6[H])c(C(=O)N([H])[H])c5N([H])[H])C4([H])[H])C(=O)C([H])([H])[H])C([H])([H])[H])c([H])c3[H])c([H])c([H])c2C1([H])[H]

$$$$
82:0:0
     RDKit          3D

 99103  0  0  1  0  0  0  0  0999 V2000
  -23.1300  -25.6970   19.2920 C   0  0  0  0  0  2  0  0  0  0  0  0
  -23.8140  -26.0110   20.4760 C   0  0  0  0  0  3  0  0  0  0  0  0
  -21.7900  -25.1300   21.6420 C   0  0  0  0  0  3  0  0  0  0  0  0
  -20.8560  -25.2870   20.4610 C   0  0  0  0  0  3  0  0  0  0  0  0
  -22.2360  -24.6590   19.5810 C   0  0  0  0  0  3  0  0  0  0  0  0
  -23.1990  -25.6350   21.7030 C   0  0  0  0  0  0  0  0  0  0  0  0
  -19.1300  -27.4960   19.8350 C   0  0  0  0  0  3  0  0  0  0  0  0
  -19.5330  -28.5630   19.0330 F   0  0  0  0  0  0  0  0  0  0  0  0
  -18.0890  -27.5490   18.9280 F   0  0  0  0  0  0  0  0  0  0  0  0
  -18.6120  -28.5210   20.5800 F   0  0  0  0  0  0  0  0  0  0  0  0
  -24.4800  -22.7720   18.4210 C   0  0  0  0  0  0  0  0  0  0  0  0
  -23.7650  -22.8050   20.8220 C   0  0  0  0  0  1  0  0  0  0  0  0
  -23.5420  -23.4500   19.5300 N   0  0  0  0  0  0  0  0  0  0  0  0
  -23.9510  -22.7820   17.3090 O   0  0  0  0  0  0  0  0  0  0  0  0
  -26.1940  -21.9390   18.2020 C   0  0  0  0  0  1  0  0  0  0  0  0
  -27.1300  -20.1850   18.0960 C   0  0  0  0  0 15  0  0  0  0  0  0
  -28.9260  -19.3250   17.9770 C   0  0  0  0  0  1  0  0  0  0  0  0
  -31.1550  -17.0270   18.7760 C   0  0  0  0  0  0  0  0  0  0  0  0
  -32.1520  -14.5170   19.0210 C   0  0  0  0  0  2  0  0  0  0  0  0
  -31.4940  -13.5380   18.0060 C   0  0  0  0  0  2  0  0  0  0  0  0
  -30.0620  -13.1670   18.4380 C   0  0  0  0  0  2  0  0  0  0  0  0
  -29.3370  -14.4250   18.9730 C   0  0  0  0  0  3  0  0  0  0  0  0
  -30.1410  -15.1260   20.0630 C   0  0  0  0  0  2  0  0  0  0  0  0
  -31.2100  -15.6910   19.3070 N   0  0  0  0  0  0  0  0  0  0  0  0
  -32.3490  -17.3260   18.4710 O   0  0  0  0  0  0  0  0  0  0  0  0
  -29.8030  -17.8360   18.5530 N   0  0  0  0  0  0  0  0  0  0  0  0
  -29.1060  -17.1930   18.9090 H   0  0  0  0  0  0  0  0  0  0  0  0
  -27.0750  -15.1360   19.8040 C   0  0  0  0  0  0  0  0  0  0  0  0
  -25.9940  -14.4200   20.2180 C   0  0  0  0  0  0  0  0  0  0  0  0
  -26.3710  -13.0440   20.1350 C   0  0  0  0  0  0  0  0  0  0  0  0
  -28.0160  -14.1920   19.4650 N   0  0  0  0  0  0  0  0  0  0  0  0
  -27.6290  -12.9300   19.7520 N   0  0  0  0  0  0  0  0  0  0  0  0
  -25.5830  -11.8240   20.3120 C   0  0  0  0  0  0  0  0  0  0  0  0
  -25.8450  -10.9150   21.3610 C   0  0  0  0  0  3  0  0  0  0  0  0
  -25.0540   -9.7580   21.5100 C   0  0  0  0  0  3  0  0  0  0  0  0
  -23.9910   -9.5050   20.6120 C   0  0  0  0  0  0  0  0  0  0  0  0
  -23.7540  -10.4000   19.5560 C   0  0  0  0  0  3  0  0  0  0  0  0
  -24.5440  -11.5480   19.4010 C   0  0  0  0  0  3  0  0  0  0  0  0
  -23.1860   -8.3940   20.6650 O   0  0  0  0  0  0  0  0  0  0  0  0
  -22.6940   -7.9220   21.8560 C   0  0  0  0  0  0  0  0  0  0  0  0
  -21.9070   -8.7270   22.7080 C   0  0  0  0  0  3  0  0  0  0  0  0
  -21.3660   -8.1810   23.8900 C   0  0  0  0  0  3  0  0  0  0  0  0
  -21.6030   -6.8320   24.2140 C   0  0  0  0  0  0  0  0  0  0  0  0
  -22.3830   -6.0280   23.3630 C   0  0  0  0  0  3  0  0  0  0  0  0
  -22.9240   -6.5720   22.1860 C   0  0  0  0  0  0  0  0  0  0  0  0
  -23.6590   -5.7910   21.3580 F   0  0  0  0  0  0  0  0  0  0  0  0
  -21.0730   -6.3020   25.3420 F   0  0  0  0  0  0  0  0  0  0  0  0
  -24.6450  -14.9780   20.5530 C   0  0  0  0  0  0  0  0  0  0  0  0
  -23.9210  -14.3330   21.4590 N   0  0  0  0  0  0  0  0  0  0  0  0
  -24.2490  -16.0230   20.0400 O   0  0  0  0  0  0  0  0  0  0  0  0
  -24.2650  -13.4850   21.8870 H   0  0  0  0  0  0  0  0  0  0  0  0
  -23.0130  -14.6860   21.7230 H   0  0  0  0  0  0  0  0  0  0  0  0
  -27.3250  -16.5010   19.6590 N   0  0  0  0  0  0  0  0  0  0  0  0
  -26.5650  -17.1270   19.9090 H   0  0  0  0  0  0  0  0  0  0  0  0
  -27.8670  -16.8620   18.8750 H   0  0  0  0  0  0  0  0  0  0  0  0
  -24.0320  -25.7030   22.8370 O   0  0  0  0  0  0  0  0  0  0  0  0
  -25.2770  -26.5140   22.8360 C   0  0  0  0  0  2  0  0  0  0  0  0
  -26.7480  -25.9840   22.3630 C   0  0  0  0  0  2  0  0  0  0  0  0
  -27.7660  -26.8340   21.6280 O   0  0  0  0  0  0  0  0  0  0  0  0
  -25.3150  -32.4620   24.3020 C   0  0  0  0  0  0  0  0  0  0  0  0
  -27.1430  -27.8960   21.0630 C   0  0  0  0  0  0  0  0  0  0  0  0
  -23.9510  -31.4130   22.5620 C   0  0  0  0  0  3  0  0  0  0  0  0
  -25.1200  -29.7970   20.9710 C   0  0  0  0  0  0  0  0  0  0  0  0
  -26.4650  -31.4130   22.3490 C   0  0  0  0  0  2  0  0  0  0  0  0
  -26.3370  -30.1040   21.5970 C   0  0  0  0  0  0  0  0  0  0  0  0
  -27.3790  -29.1650   21.6170 C   0  0  0  0  0  3  0  0  0  0  0  0
  -25.9950  -27.6330   20.2970 C   0  0  0  0  0  3  0  0  0  0  0  0
  -24.9580  -28.5800   20.2710 C   0  0  0  0  0  3  0  0  0  0  0  0
  -24.0430  -30.8440   21.1120 C   0  0  0  0  0  2  0  0  0  0  0  0
  -25.2690  -31.7870   23.1210 N   0  0  0  0  0  0  0  0  0  0  0  0
  -24.2810  -32.8250   24.8840 O   0  0  0  0  0  0  0  0  0  0  0  0
  -23.2890  -30.4200   23.5050 C   0  0  0  0  0  0  0  0  0  0  0  0
  -21.9790  -30.3490   23.4060 N   0  0  0  0  0  0  0  0  0  0  0  0
  -23.9330  -29.7320   24.3010 O   0  0  0  0  0  0  0  0  0  0  0  0
  -21.4670  -30.9640   22.7850 H   0  0  0  0  0  0  0  0  0  0  0  0
  -18.5970  -28.2130   23.5080 C   0  0  0  0  0  0  0  0  0  0  0  0
  -21.3920  -29.0950   23.6860 C   0  0  0  0  0  2  0  0  0  0  0  0
  -22.2090  -27.9770   22.2190 C   0  0  0  0  0 15  0  0  0  0  0  0
  -20.7530  -26.4680   21.4700 C   0  0  0  0  0  2  0  0  0  0  0  0
  -19.0160  -26.6780   22.5770 C   0  0  0  0  0  1  0  0  0  0  0  0
  -19.6630  -29.2130   24.0340 C   0  0  0  0  0  0  0  0  0  0  0  0
  -19.2360  -30.5770   24.3040 C   0  0  0  0  0  3  0  0  0  0  0  0
  -17.9670  -31.1240   23.9860 C   0  0  0  0  0  3  0  0  0  0  0  0
  -17.0200  -30.2820   23.3880 C   0  0  0  0  0  3  0  0  0  0  0  0
  -17.3380  -28.9020   23.1700 C   0  0  0  0  0  3  0  0  0  0  0  0
  -26.6750  -32.8290   24.9590 C   0  0  0  0  0  3  0  0  0  0  0  0
  -26.5870  -34.2440   25.3340 N   0  0  0  0  0  0  0  0  0  0  0  0
  -27.0790  -35.2430   24.5920 C   0  0  0  0  0  0  0  0  0  0  0  0
  -27.7340  -35.0550   23.5640 O   0  0  0  0  0  0  0  0  0  0  0  0
  -26.0120  -34.4710   26.1320 H   0  0  0  0  0  0  0  0  0  0  0  0
  -25.6660  -37.2880   24.2430 C   0  0  0  0  0  1  0  0  0  0  0  0
  -26.8040  -36.6760   25.0750 C   0  0  0  0  0  3  0  0  0  0  0  0
  -29.0270  -37.1660   25.9830 C   0  0  0  0  0  1  0  0  0  0  0  0
  -27.9970  -37.5460   25.0210 N   0  0  0  0  0  0  0  0  0  0  0  0
  -27.7430  -38.5140   25.1960 H   0  0  0  0  0  0  0  0  0  0  0  0
  -27.0330  -31.9300   26.2030 C   0  0  1  0  0  0  0  0  0  0  0  0
  -25.8890  -31.8070   27.2330 C   0  0  0  0  0  1  0  0  0  0  0  0
  -27.4110  -30.4980   25.7560 C   0  0  0  0  0  1  0  0  0  0  0  0
  -28.2720  -32.5170   26.9170 C   0  0  0  0  0  1  0  0  0  0  0  0
  1  5  1  0
  1  2  1  0
  2  6  2  0
  3 79  1  0
  3  6  1  0
  4 79  1  0
  4  3  1  0
  5 13  1  0
  5  4  1  0
  6 56  1  0
  7 10  1  0
  8  7  1  0
  9  7  1  0
 11 13  1  0
 13 12  1  0
 14 11  2  0
 15 11  1  0
 17 26  1  0
 18 24  1  0
 19 24  1  0
 20 21  1  0
 20 19  1  0
 22 21  1  0
 22 31  1  0
 22 23  1  0
 24 23  1  0
 25 18  2  0
 26 18  1  0
 26 27  1  0
 28 29  2  0
 29 48  1  0
 30 29  1  0
 30 33  1  0
 31 32  1  0
 31 28  1  0
 32 30  2  0
 33 34  1  0
 34 35  2  0
 36 39  1  0
 36 35  1  0
 37 36  2  0
 38 37  1  0
 38 33  2  0
 39 40  1  0
 40 45  2  0
 40 41  1  0
 41 42  2  0
 42 43  1  0
 43 47  1  0
 44 43  2  0
 45 44  1  0
 46 45  1  0
 48 49  1  0
 49 52  1  0
 49 51  1  0
 50 48  2  0
 53 28  1  0
 53 54  1  0
 55 53  1  0
 57 56  1  0
 58 57  1  0
 59 58  1  0
 60 71  2  0
 61 66  1  0
 61 59  1  0
 62 70  1  0
 62 72  1  0
 63 69  1  0
 63 65  1  0
 64 70  1  0
 65 66  2  0
 65 64  1  0
 67 61  2  0
 68 67  1  0
 68 63  2  0
 69 62  1  0
 70 60  1  0
 72 74  2  0
 73 72  1  0
 73 77  1  0
 75 73  1  0
 76 81  1  0
 77 81  1  0
 80 76  1  0
 81 82  2  0
 83 82  1  0
 84 83  2  0
 85 84  1  0
 85 76  2  0
 86 60  1  0
 86 87  1  0
 86 96  1  0
 87 90  1  0
 88 92  1  0
 88 87  1  0
 89 88  2  0
 92 91  1  0
 94 92  1  0
 94 95  1  0
 94 93  1  0
 96 99  1  1
 96 97  1  0
 98 96  1  0
M  ISO  4  18 100  26 100  58 101  59 101
M  END
>  <TORSDO>  (83) 
F 24

>  <SCORE>  (83) 
-5.712

>  <name>  (83) 
82

>  <ligand_id>  (83) 
82

>  <original_smiles>  (83) 
[H]c1c([H])c([H])c2c(c1[H])C([H])([H])C([H])([H])C([H])([H])C2([H])N([H])C(=O)C1([H])N(C(=O)C([H])(N([H])C(=O)C([H])(N([H])C([H])([H])[H])C([H])([H])[H])C(C([H])([H])[H])(C([H])([H])[H])C([H])([H])[H])C([H])([H])c2c([H])c(OC([H])([H])C([H])([H])Oc3c([H])c([H])c(N(C(=O)C([H])([H])C([H])([H])C([H])([H])N([H])C(=O)N4C([H])([H])C([H])([H])C([H])([H])C([H])(n5nc(-c6c([H])c([H])c(Oc7c([H])c([H])c(F)c([H])c7F)c([H])c6[H])c(C(=O)N([H])[H])c5N([H])[H])C4([H])[H])C([H])([H])[H])c(C(F)(F)F)c3[H])c([H])c([H])c2C1([H])[H]

>  <smiles>  (83) 
[H]c1c([H])c([H])c2c(c1[H])C([H])([H])C([H])([H])C([H])([H])C2([H])N([H])C(=O)C1([H])N(C(=O)C([H])(N([H])C(=O)C([H])(N([H])C([H])([H])[H])C([H])([H])[H])C(C([H])([H])[H])(C([H])([H])[H])C([H])([H])[H])C([H])([H])c2c([H])c(OC([H])([H])C([H])([H])Oc3c([H])c([H])c(N(C(=O)C([H])([H])C([H])([H])C([H])([H])N([H])C(=O)N4C([H])([H])C([H])([H])C([H])([H])C([H])(n5nc(-c6c([H])c([H])c(Oc7c([H])c([H])c(F)c([H])c7F)c([H])c6[H])c(C(=O)N([H])[H])c5N([H])[H])C4([H])[H])C([H])([H])[H])c(C(F)(F)F)c3[H])c([H])c([H])c2C1([H])[H]

$$$$
83:0:0
     RDKit          3D

 89 97  0  0  1  0  0  0  0  0999 V2000
  -28.5200  -22.0200   20.1530 O   0  0  0  0  0  0  0  0  0  0  0  0
  -30.7450  -18.7280   19.7750 C   0  0  0  0  0  3  0  0  0  0  0  0
  -28.6850  -18.2170   20.7840 C   0  0  0  0  0  3  0  0  0  0  0  0
  -30.3680  -20.1510   19.7470 C   0  0  0  0  0  3  0  0  0  0  0  0
  -28.3060  -19.6090   20.7300 C   0  0  0  0  0  3  0  0  0  0  0  0
  -29.9190  -17.6640   20.3060 C   0  0  0  0  0  0  0  0  0  0  0  0
  -29.1090  -20.6770   20.2190 C   0  0  0  0  0  0  0  0  0  0  0  0
  -30.7930  -15.0920   19.8160 C   0  0  0  0  0  0  0  0  0  0  0  0
  -30.5460  -12.7950   18.7420 C   0  0  0  0  0  2  0  0  0  0  0  0
  -29.4830  -12.7660   17.6160 C   0  0  0  0  0  2  0  0  0  0  0  0
  -28.0720  -12.5400   18.1890 C   0  0  0  0  0  2  0  0  0  0  0  0
  -27.7900  -13.4320   19.4240 C   0  0  0  0  0  3  0  0  0  0  0  0
  -28.9520  -13.3760   20.4350 C   0  0  0  0  0  2  0  0  0  0  0  0
  -30.1700  -13.8380   19.7460 N   0  0  0  0  0  0  0  0  0  0  0  0
  -31.8670  -15.2170   19.2180 O   0  0  0  0  0  0  0  0  0  0  0  0
  -30.2770  -15.8900   22.0140 C   0  0  0  0  0  1  0  0  0  0  0  0
  -30.2370  -16.1730   20.5680 N   0  0  0  0  0  0  0  0  0  0  0  0
  -25.5130  -13.9980   20.4570 C   0  0  0  0  0  0  0  0  0  0  0  0
  -24.4780  -13.2160   20.8890 C   0  0  0  0  0  0  0  0  0  0  0  0
  -24.9070  -11.8640   20.7210 C   0  0  0  0  0  0  0  0  0  0  0  0
  -26.5050  -13.1240   20.0460 N   0  0  0  0  0  0  0  0  0  0  0  0
  -26.1570  -11.8300   20.2690 N   0  0  0  0  0  0  0  0  0  0  0  0
  -24.1790  -10.6010   20.9070 C   0  0  0  0  0  0  0  0  0  0  0  0
  -24.6040   -9.6340   21.8450 C   0  0  0  0  0  3  0  0  0  0  0  0
  -23.8760   -8.4380   22.0200 C   0  0  0  0  0  3  0  0  0  0  0  0
  -22.7070   -8.2000   21.2560 C   0  0  0  0  0  0  0  0  0  0  0  0
  -22.3000   -9.1560   20.3100 C   0  0  0  0  0  3  0  0  0  0  0  0
  -23.0300  -10.3440   20.1330 C   0  0  0  0  0  3  0  0  0  0  0  0
  -21.9520   -7.0540   21.3390 O   0  0  0  0  0  0  0  0  0  0  0  0
  -21.7940   -6.3790   22.5230 C   0  0  0  0  0  0  0  0  0  0  0  0
  -21.2230   -6.9930   23.6590 C   0  0  0  0  0  3  0  0  0  0  0  0
  -21.0150   -6.2450   24.8340 C   0  0  0  0  0  3  0  0  0  0  0  0
  -21.3680   -4.8830   24.8740 C   0  0  0  0  0  0  0  0  0  0  0  0
  -21.9320   -4.2680   23.7420 C   0  0  0  0  0  3  0  0  0  0  0  0
  -22.1410   -5.0140   22.5690 C   0  0  0  0  0  0  0  0  0  0  0  0
  -22.6640   -4.4120   21.4740 F   0  0  0  0  0  0  0  0  0  0  0  0
  -21.1610   -4.1610   26.0000 F   0  0  0  0  0  0  0  0  0  0  0  0
  -23.1270  -13.6930   21.3380 C   0  0  0  0  0  0  0  0  0  0  0  0
  -22.5090  -12.9860   22.2760 N   0  0  0  0  0  0  0  0  0  0  0  0
  -22.6330  -14.7280   20.8920 O   0  0  0  0  0  0  0  0  0  0  0  0
  -22.9290  -12.1540   22.6640 H   0  0  0  0  0  0  0  0  0  0  0  0
  -21.6040  -13.2820   22.6120 H   0  0  0  0  0  0  0  0  0  0  0  0
  -25.6870  -15.3760   20.3570 N   0  0  0  0  0  0  0  0  0  0  0  0
  -24.9570  -16.0340   20.6030 H   0  0  0  0  0  0  0  0  0  0  0  0
  -26.5140  -15.8220   19.9810 H   0  0  0  0  0  0  0  0  0  0  0  0
  -29.7890  -23.5420   21.5560 C   0  0  0  0  0  1  0  0  0  0  0  0
  -29.0900  -23.4470   20.1930 C   0  0  0  0  0  3  0  0  0  0  0  0
  -28.0520  -24.7690   19.9680 C   0  0  0  0  0  2  0  0  0  0  0  0
  -28.3050  -26.3000   20.1080 O   0  0  0  0  0  0  0  0  0  0  0  0
  -24.5090  -31.8590   23.1020 C   0  0  0  0  0  0  0  0  0  0  0  0
  -27.2220  -27.2520   20.0360 C   0  0  0  0  0  0  0  0  0  0  0  0
  -23.3490  -30.4540   21.4430 C   0  0  0  0  0  3  0  0  0  0  0  0
  -24.8440  -28.9340   20.0080 C   0  0  0  0  0  0  0  0  0  0  0  0
  -25.8990  -30.7880   21.2890 C   0  0  0  0  0  2  0  0  0  0  0  0
  -26.0110  -29.4060   20.6220 C   0  0  0  0  0  0  0  0  0  0  0  0
  -27.2020  -28.5850   20.6130 C   0  0  0  0  0  3  0  0  0  0  0  0
  -26.0220  -26.8790   19.3850 C   0  0  0  0  0  3  0  0  0  0  0  0
  -24.8620  -27.6830   19.3770 C   0  0  0  0  0  3  0  0  0  0  0  0
  -23.5940  -29.8030   20.0580 C   0  0  0  0  0  2  0  0  0  0  0  0
  -24.6050  -31.0540   22.0010 N   0  0  0  0  0  0  0  0  0  0  0  0
  -23.4140  -32.1150   23.6240 O   0  0  0  0  0  0  0  0  0  0  0  0
  -22.6890  -29.4200   22.3890 C   0  0  0  0  0  0  0  0  0  0  0  0
  -21.3640  -29.2370   22.2650 N   0  0  0  0  0  0  0  0  0  0  0  0
  -23.3740  -28.7870   23.1960 O   0  0  0  0  0  0  0  0  0  0  0  0
  -20.8690  -29.7970   21.5840 H   0  0  0  0  0  0  0  0  0  0  0  0
  -17.9880  -28.0290   22.7940 C   0  0  0  0  0  0  0  0  0  0  0  0
  -20.5540  -28.2790   23.0230 C   0  0  0  0  0  3  0  0  0  0  0  0
  -20.6440  -26.8660   22.4010 C   0  0  0  0  0  2  0  0  0  0  0  0
  -19.5230  -26.5750   21.3980 C   0  0  0  0  0  2  0  0  0  0  0  0
  -18.1510  -26.7020   22.0700 C   0  0  0  0  0  2  0  0  0  0  0  0
  -19.1170  -28.7770   23.2250 C   0  0  0  0  0  0  0  0  0  0  0  0
  -18.9120  -30.0180   23.8660 C   0  0  0  0  0  3  0  0  0  0  0  0
  -17.6140  -30.5180   24.0710 C   0  0  0  0  0  3  0  0  0  0  0  0
  -16.4990  -29.7680   23.6560 C   0  0  0  0  0  3  0  0  0  0  0  0
  -16.6870  -28.5250   23.0260 C   0  0  0  0  0  3  0  0  0  0  0  0
  -25.7690  -32.5160   23.7430 C   0  0  0  0  0  3  0  0  0  0  0  0
  -26.2700  -31.7590   25.0330 C   0  0  1  0  0  0  0  0  0  0  0  0
  -25.1560  -31.5030   26.0780 C   0  0  0  0  0  1  0  0  0  0  0  0
  -26.8880  -30.3920   24.6610 C   0  0  0  0  0  1  0  0  0  0  0  0
  -27.3920  -32.5790   25.7170 C   0  0  0  0  0  1  0  0  0  0  0  0
  -25.4300  -33.9120   24.0660 N   0  0  0  0  0  0  0  0  0  0  0  0
  -25.7480  -34.9700   23.3080 C   0  0  0  0  0  0  0  0  0  0  0  0
  -26.4200  -34.8740   22.2780 O   0  0  0  0  0  0  0  0  0  0  0  0
  -24.8260  -34.0610   24.8600 H   0  0  0  0  0  0  0  0  0  0  0  0
  -23.9820  -36.7320   22.9610 C   0  0  0  0  0  1  0  0  0  0  0  0
  -25.2380  -36.3530   23.7640 C   0  0  0  0  0  3  0  0  0  0  0  0
  -27.3590  -37.2840   24.5800 C   0  0  0  0  0  1  0  0  0  0  0  0
  -26.2520  -37.4240   23.6370 N   0  0  0  0  0  0  0  0  0  0  0  0
  -25.8290  -38.3370   23.7800 H   0  0  0  0  0  0  0  0  0  0  0  0
  1 47  1  0
  1  7  1  0
  2  6  1  0
  4  2  2  0
  4  7  1  0
  5  3  1  0
  6 17  1  0
  6  3  2  0
  7  5  2  0
  8 17  1  0
  9 14  1  0
 10 11  1  0
 10  9  1  0
 12 11  1  0
 12 21  1  0
 12 13  1  0
 14  8  1  0
 14 13  1  0
 15  8  2  0
 17 16  1  0
 18 19  2  0
 19 38  1  0
 20 19  1  0
 20 23  1  0
 21 22  1  0
 21 18  1  0
 22 20  2  0
 23 24  1  0
 24 25  2  0
 26 29  1  0
 26 25  1  0
 27 26  2  0
 28 27  1  0
 28 23  2  0
 29 30  1  0
 30 35  2  0
 30 31  1  0
 31 32  2  0
 32 33  1  0
 33 37  1  0
 34 33  2  0
 35 34  1  0
 36 35  1  0
 38 39  1  0
 39 42  1  0
 39 41  1  0
 40 38  2  0
 43 18  1  0
 43 44  1  0
 45 43  1  0
 47 46  1  0
 48 49  1  0
 48 47  1  0
 50 61  2  0
 51 49  1  0
 51 56  1  0
 52 60  1  0
 52 62  1  0
 53 59  1  0
 53 55  1  0
 54 60  1  0
 55 54  1  0
 56 55  2  0
 57 51  2  0
 58 57  1  0
 58 53  2  0
 59 52  1  0
 60 50  1  0
 62 64  2  0
 63 62  1  0
 65 63  1  0
 66 75  2  0
 66 71  1  0
 67 63  1  0
 67 71  1  0
 68 67  1  0
 69 70  1  0
 69 68  1  0
 70 66  1  0
 71 72  2  0
 72 73  1  0
 74 73  2  0
 75 74  1  0
 76 50  1  0
 76 81  1  0
 76 77  1  0
 77 80  1  1
 77 78  1  0
 79 77  1  0
 81 84  1  0
 82 86  1  0
 82 81  1  0
 83 82  2  0
 86 85  1  0
 88 86  1  0
 88 89  1  0
 88 87  1  0
M  ISO  4   8 100  17 100  48 101  49 101
M  END
>  <TORSDO>  (84) 
F 19

>  <SCORE>  (84) 
-13.811

>  <name>  (84) 
83

>  <ligand_id>  (84) 
83

>  <original_smiles>  (84) 
[H]c1c([H])c([H])c2c(c1[H])C([H])([H])C([H])([H])C([H])([H])C2([H])N([H])C(=O)C1([H])N(C(=O)C([H])(N([H])C(=O)C([H])(N([H])C([H])([H])[H])C([H])([H])[H])C(C([H])([H])[H])(C([H])([H])[H])C([H])([H])[H])C([H])([H])c2c([H])c(OC([H])([H])C([H])(Oc3c([H])c([H])c(N(C(=O)N4C([H])([H])C([H])([H])C([H])([H])C([H])(n5nc(-c6c([H])c([H])c(Oc7c([H])c([H])c(F)c([H])c7F)c([H])c6[H])c(C(=O)N([H])[H])c5N([H])[H])C4([H])[H])C([H])([H])[H])c([H])c3[H])C([H])([H])[H])c([H])c([H])c2C1([H])[H]

>  <smiles>  (84) 
[H]c1c([H])c([H])c2c(c1[H])C([H])([H])C([H])([H])C([H])([H])C2([H])N([H])C(=O)C1([H])N(C(=O)C([H])(N([H])C(=O)C([H])(N([H])C([H])([H])[H])C([H])([H])[H])C(C([H])([H])[H])(C([H])([H])[H])C([H])([H])[H])C([H])([H])c2c([H])c(OC([H])([H])C([H])(Oc3c([H])c([H])c(N(C(=O)N4C([H])([H])C([H])([H])C([H])([H])C([H])(n5nc(-c6c([H])c([H])c(Oc7c([H])c([H])c(F)c([H])c7F)c([H])c6[H])c(C(=O)N([H])[H])c5N([H])[H])C4([H])[H])C([H])([H])[H])c([H])c3[H])C([H])([H])[H])c([H])c([H])c2C1([H])[H]

$$$$
84:0:0
     RDKit          3D

 89 97  0  0  1  0  0  0  0  0999 V2000
  -30.6180  -18.5840   20.2340 C   0  0  0  0  0  3  0  0  0  0  0  0
  -30.3220  -20.0210   20.1180 C   0  0  0  0  0  3  0  0  0  0  0  0
  -28.3230  -18.1100   19.9970 C   0  0  0  0  0  3  0  0  0  0  0  0
  -29.6220  -17.5390   20.1790 C   0  0  0  0  0  0  0  0  0  0  0  0
  -28.9990  -20.5680   19.9200 C   0  0  0  0  0  0  0  0  0  0  0  0
  -28.0300  -19.5160   19.8660 C   0  0  0  0  0  0  0  0  0  0  0  0
  -26.7350  -19.8670   19.6790 F   0  0  0  0  0  0  0  0  0  0  0  0
  -30.5800  -14.9230   20.0660 C   0  0  0  0  0  0  0  0  0  0  0  0
  -30.4510  -12.5660   19.1460 C   0  0  0  0  0  2  0  0  0  0  0  0
  -29.4680  -12.5400   17.9490 C   0  0  0  0  0  2  0  0  0  0  0  0
  -28.0140  -12.3550   18.4280 C   0  0  0  0  0  2  0  0  0  0  0  0
  -27.6620  -13.2860   19.6170 C   0  0  0  0  0  3  0  0  0  0  0  0
  -28.7540  -13.2570   20.7090 C   0  0  0  0  0  2  0  0  0  0  0  0
  -30.0190  -13.6500   20.0680 N   0  0  0  0  0  0  0  0  0  0  0  0
  -31.7560  -15.0460   19.7010 O   0  0  0  0  0  0  0  0  0  0  0  0
  -29.7160  -16.0150   20.3160 N   0  0  0  0  0  0  0  0  0  0  0  0
  -28.8300  -15.6250   20.5980 H   0  0  0  0  0  0  0  0  0  0  0  0
  -25.3230  -13.9140   20.4530 C   0  0  0  0  0  0  0  0  0  0  0  0
  -24.2550  -13.1600   20.8530 C   0  0  0  0  0  0  0  0  0  0  0  0
  -24.6820  -11.7990   20.7750 C   0  0  0  0  0  0  0  0  0  0  0  0
  -26.3340  -13.0150   20.1560 N   0  0  0  0  0  0  0  0  0  0  0  0
  -25.9580  -11.7360   20.4130 N   0  0  0  0  0  0  0  0  0  0  0  0
  -23.9310  -10.5510   20.9660 C   0  0  0  0  0  0  0  0  0  0  0  0
  -24.3600   -9.5610   21.8760 C   0  0  0  0  0  3  0  0  0  0  0  0
  -23.6090   -8.3800   22.0560 C   0  0  0  0  0  3  0  0  0  0  0  0
  -22.4150   -8.1800   21.3260 C   0  0  0  0  0  0  0  0  0  0  0  0
  -22.0020   -9.1580   20.4040 C   0  0  0  0  0  3  0  0  0  0  0  0
  -22.7540  -10.3310   20.2210 C   0  0  0  0  0  3  0  0  0  0  0  0
  -21.6350   -7.0520   21.4170 O   0  0  0  0  0  0  0  0  0  0  0  0
  -21.5790   -6.3060   22.5670 C   0  0  0  0  0  0  0  0  0  0  0  0
  -21.1440   -6.8560   23.7920 C   0  0  0  0  0  3  0  0  0  0  0  0
  -21.0370   -6.0370   24.9340 C   0  0  0  0  0  3  0  0  0  0  0  0
  -21.3540   -4.6680   24.8510 C   0  0  0  0  0  0  0  0  0  0  0  0
  -21.7830   -4.1170   23.6300 C   0  0  0  0  0  3  0  0  0  0  0  0
  -21.8920   -4.9330   22.4910 C   0  0  0  0  0  0  0  0  0  0  0  0
  -22.2850   -4.3930   21.3120 F   0  0  0  0  0  0  0  0  0  0  0  0
  -21.2440   -3.8790   25.9450 F   0  0  0  0  0  0  0  0  0  0  0  0
  -22.8820  -13.6670   21.1860 C   0  0  0  0  0  0  0  0  0  0  0  0
  -22.1720  -12.9770   22.0720 N   0  0  0  0  0  0  0  0  0  0  0  0
  -22.4480  -14.7080   20.6950 O   0  0  0  0  0  0  0  0  0  0  0  0
  -22.5360  -12.1340   22.4910 H   0  0  0  0  0  0  0  0  0  0  0  0
  -21.2520  -13.2980   22.3390 H   0  0  0  0  0  0  0  0  0  0  0  0
  -25.5110  -15.2840   20.2900 N   0  0  0  0  0  0  0  0  0  0  0  0
  -24.7430  -15.9360   20.4050 H   0  0  0  0  0  0  0  0  0  0  0  0
  -26.3000  -15.6870   19.8030 H   0  0  0  0  0  0  0  0  0  0  0  0
  -28.5040  -21.9350   19.7320 O   0  0  0  0  0  0  0  0  0  0  0  0
  -29.0950  -23.3350   19.9090 C   0  0  0  0  0  3  0  0  0  0  0  0
  -28.1160  -24.6810   19.6400 C   0  0  0  0  0  3  0  0  0  0  0  0
  -28.3620  -26.1910   19.9150 O   0  0  0  0  0  0  0  0  0  0  0  0
  -24.5360  -31.6270   23.0850 C   0  0  0  0  0  0  0  0  0  0  0  0
  -27.2770  -27.1420   19.8750 C   0  0  0  0  0  0  0  0  0  0  0  0
  -23.3960  -30.2890   21.3560 C   0  0  0  0  0  3  0  0  0  0  0  0
  -24.9060  -28.8230   19.8830 C   0  0  0  0  0  0  0  0  0  0  0  0
  -25.9460  -30.6220   21.2520 C   0  0  0  0  0  2  0  0  0  0  0  0
  -26.0640  -29.2680   20.5340 C   0  0  0  0  0  0  0  0  0  0  0  0
  -27.2500  -28.4450   20.5130 C   0  0  0  0  0  3  0  0  0  0  0  0
  -26.0890  -26.7970   19.1910 C   0  0  0  0  0  3  0  0  0  0  0  0
  -24.9310  -27.6010   19.1980 C   0  0  0  0  0  3  0  0  0  0  0  0
  -23.6570  -29.6880   19.9500 C   0  0  0  0  0  2  0  0  0  0  0  0
  -24.6450  -30.8640   21.9540 N   0  0  0  0  0  0  0  0  0  0  0  0
  -23.4340  -31.8620   23.6050 O   0  0  0  0  0  0  0  0  0  0  0  0
  -22.7240  -29.2200   22.2530 C   0  0  0  0  0  0  0  0  0  0  0  0
  -21.3950  -29.0550   22.1190 N   0  0  0  0  0  0  0  0  0  0  0  0
  -23.3990  -28.5440   23.0340 O   0  0  0  0  0  0  0  0  0  0  0  0
  -20.9070  -29.6540   21.4680 H   0  0  0  0  0  0  0  0  0  0  0  0
  -18.0080  -27.8640   22.6020 C   0  0  0  0  0  0  0  0  0  0  0  0
  -20.5770  -28.0710   22.8320 C   0  0  0  0  0  3  0  0  0  0  0  0
  -20.6440  -26.6870   22.1430 C   0  0  0  0  0  2  0  0  0  0  0  0
  -19.5160  -26.4610   21.1320 C   0  0  0  0  0  2  0  0  0  0  0  0
  -18.1500  -26.5720   21.8170 C   0  0  0  0  0  2  0  0  0  0  0  0
  -19.1480  -28.5760   23.0650 C   0  0  0  0  0  0  0  0  0  0  0  0
  -18.9590  -29.7890   23.7640 C   0  0  0  0  0  3  0  0  0  0  0  0
  -17.6650  -30.2900   24.0000 C   0  0  0  0  0  3  0  0  0  0  0  0
  -16.5420  -29.5740   23.5510 C   0  0  0  0  0  3  0  0  0  0  0  0
  -16.7140  -28.3630   22.8590 C   0  0  0  0  0  3  0  0  0  0  0  0
  -25.7880  -32.2560   23.7670 C   0  0  0  0  0  3  0  0  0  0  0  0
  -26.2640  -31.4600   25.0450 C   0  0  1  0  0  0  0  0  0  0  0  0
  -25.1360  -31.1940   26.0690 C   0  0  0  0  0  1  0  0  0  0  0  0
  -26.8680  -30.0930   24.6470 C   0  0  0  0  0  1  0  0  0  0  0  0
  -27.3860  -32.2460   25.7630 C   0  0  0  0  0  1  0  0  0  0  0  0
  -25.4530  -33.6440   24.1230 N   0  0  0  0  0  0  0  0  0  0  0  0
  -25.7720  -34.7190   23.3900 C   0  0  0  0  0  0  0  0  0  0  0  0
  -26.4450  -34.6480   22.3590 O   0  0  0  0  0  0  0  0  0  0  0  0
  -24.8550  -33.7720   24.9260 H   0  0  0  0  0  0  0  0  0  0  0  0
  -24.0050  -36.4870   23.0910 C   0  0  0  0  0  1  0  0  0  0  0  0
  -25.2650  -36.0920   23.8780 C   0  0  0  0  0  3  0  0  0  0  0  0
  -27.3890  -37.0120   24.7010 C   0  0  0  0  0  1  0  0  0  0  0  0
  -26.2770  -37.1660   23.7680 N   0  0  0  0  0  0  0  0  0  0  0  0
  -25.8530  -38.0770   23.9260 H   0  0  0  0  0  0  0  0  0  0  0  0
  2  1  2  0
  3  4  2  0
  4  1  1  0
  4 16  1  0
  5  2  1  0
  6  5  2  0
  6  3  1  0
  7  6  1  0
  8 14  1  0
  8 16  1  0
  9 14  1  0
 10 11  1  0
 10  9  1  0
 12 11  1  0
 12 21  1  0
 12 13  1  0
 14 13  1  0
 15  8  2  0
 16 17  1  0
 18 19  2  0
 19 38  1  0
 20 19  1  0
 20 23  1  0
 21 22  1  0
 21 18  1  0
 22 20  2  0
 23 24  1  0
 24 25  2  0
 26 29  1  0
 26 25  1  0
 27 26  2  0
 28 27  1  0
 28 23  2  0
 29 30  1  0
 30 31  1  0
 31 32  2  0
 33 32  1  0
 33 37  1  0
 34 33  2  0
 35 30  2  0
 35 34  1  0
 36 35  1  0
 38 39  1  0
 39 42  1  0
 39 41  1  0
 40 38  2  0
 43 44  1  0
 43 18  1  0
 45 43  1  0
 46 47  1  0
 46  5  1  0
 48 47  2  0
 48 49  1  0
 50 61  2  0
 51 49  1  0
 51 56  1  0
 52 60  1  0
 52 62  1  0
 53 59  1  0
 53 55  1  0
 54 60  1  0
 55 54  1  0
 56 55  2  0
 57 58  1  0
 57 51  2  0
 58 53  2  0
 59 52  1  0
 60 50  1  0
 62 64  2  0
 63 62  1  0
 65 63  1  0
 66 75  2  0
 66 71  1  0
 67 63  1  0
 67 71  1  0
 68 67  1  0
 69 70  1  0
 69 68  1  0
 70 66  1  0
 71 72  2  0
 72 73  1  0
 74 73  2  0
 75 74  1  0
 76 50  1  0
 76 81  1  0
 76 77  1  0
 77 80  1  1
 77 78  1  0
 79 77  1  0
 81 84  1  0
 82 86  1  0
 82 81  1  0
 83 82  2  0
 86 85  1  0
 88 86  1  0
 88 89  1  0
 88 87  1  0
M  ISO  4   8 100  16 100  48 101  49 101
M  END
>  <TORSDO>  (85) 
F 19

>  <SCORE>  (85) 
-13.742

>  <name>  (85) 
84

>  <ligand_id>  (85) 
84

>  <original_smiles>  (85) 
[H]c1c([H])c([H])c2c(c1[H])C([H])([H])C([H])([H])C([H])([H])C2([H])N([H])C(=O)C1([H])N(C(=O)C([H])(N([H])C(=O)C([H])(N([H])C([H])([H])[H])C([H])([H])[H])C(C([H])([H])[H])(C([H])([H])[H])C([H])([H])[H])C([H])([H])c2c([H])c(OC([H])([H])C([H])([H])Oc3c([H])c([H])c(N([H])C(=O)N4C([H])([H])C([H])([H])C([H])([H])C([H])(n5nc(-c6c([H])c([H])c(Oc7c([H])c([H])c(F)c([H])c7F)c([H])c6[H])c(C(=O)N([H])[H])c5N([H])[H])C4([H])[H])c([H])c3F)c([H])c([H])c2C1([H])[H]

>  <smiles>  (85) 
[H]c1c([H])c([H])c2c(c1[H])C([H])([H])C([H])([H])C([H])([H])C2([H])N([H])C(=O)C1([H])N(C(=O)C([H])(N([H])C(=O)C([H])(N([H])C([H])([H])[H])C([H])([H])[H])C(C([H])([H])[H])(C([H])([H])[H])C([H])([H])[H])C([H])([H])c2c([H])c(OC([H])([H])C([H])([H])Oc3c([H])c([H])c(N([H])C(=O)N4C([H])([H])C([H])([H])C([H])([H])C([H])(n5nc(-c6c([H])c([H])c(Oc7c([H])c([H])c(F)c([H])c7F)c([H])c6[H])c(C(=O)N([H])[H])c5N([H])[H])C4([H])[H])c([H])c3F)c([H])c([H])c2C1([H])[H]

$$$$
85:0:0
     RDKit          3D

 91 99  0  0  1  0  0  0  0  0999 V2000
  -29.3410  -20.9020   19.9650 O   0  0  0  0  0  0  0  0  0  0  0  0
  -29.9040  -17.6650   21.8030 C   0  0  0  0  0  3  0  0  0  0  0  0
  -29.6910  -19.0470   21.5820 C   0  0  0  0  0  3  0  0  0  0  0  0
  -29.7100  -17.2500   19.4230 C   0  0  0  0  0  3  0  0  0  0  0  0
  -29.4760  -18.6290   19.2010 C   0  0  0  0  0  0  0  0  0  0  0  0
  -29.9440  -16.7520   20.7260 C   0  0  0  0  0  0  0  0  0  0  0  0
  -29.4880  -19.5550   20.2720 C   0  0  0  0  0  0  0  0  0  0  0  0
  -29.1680  -19.1080   17.7910 C   0  0  0  0  0  1  0  0  0  0  0  0
  -30.7240  -14.4560   20.1780 C   0  0  0  0  0  0  0  0  0  0  0  0
  -30.3920  -12.3520   18.9360 C   0  0  0  0  0  2  0  0  0  0  0  0
  -29.3900  -12.6180   17.7940 C   0  0  0  0  0  2  0  0  0  0  0  0
  -27.9350  -12.4630   18.2850 C   0  0  0  0  0  2  0  0  0  0  0  0
  -27.6690  -13.2340   19.6080 C   0  0  0  0  0  3  0  0  0  0  0  0
  -28.7720  -12.9300   20.6450 C   0  0  0  0  0  2  0  0  0  0  0  0
  -30.0750  -13.2690   20.0410 N   0  0  0  0  0  0  0  0  0  0  0  0
  -31.7720  -14.7190   19.5760 O   0  0  0  0  0  0  0  0  0  0  0  0
  -30.1260  -15.3560   20.9830 N   0  0  0  0  0  0  0  0  0  0  0  0
  -29.5140  -14.9620   21.6830 H   0  0  0  0  0  0  0  0  0  0  0  0
  -25.3040  -13.8300   20.4380 C   0  0  0  0  0  0  0  0  0  0  0  0
  -24.2530  -13.0520   20.8430 C   0  0  0  0  0  0  0  0  0  0  0  0
  -24.7110  -11.7020   20.7680 C   0  0  0  0  0  0  0  0  0  0  0  0
  -26.3370  -12.9520   20.1400 N   0  0  0  0  0  0  0  0  0  0  0  0
  -25.9840  -11.6670   20.3920 N   0  0  0  0  0  0  0  0  0  0  0  0
  -23.9960  -10.4380   20.9760 C   0  0  0  0  0  0  0  0  0  0  0  0
  -24.4450   -9.4820   21.9140 C   0  0  0  0  0  3  0  0  0  0  0  0
  -23.7300   -8.2800   22.1110 C   0  0  0  0  0  3  0  0  0  0  0  0
  -22.5510   -8.0260   21.3690 C   0  0  0  0  0  0  0  0  0  0  0  0
  -22.1210   -8.9690   20.4200 C   0  0  0  0  0  3  0  0  0  0  0  0
  -22.8390  -10.1630   20.2210 C   0  0  0  0  0  3  0  0  0  0  0  0
  -21.8110   -6.8720   21.4710 O   0  0  0  0  0  0  0  0  0  0  0  0
  -21.7360   -6.1660   22.6450 C   0  0  0  0  0  0  0  0  0  0  0  0
  -21.2710   -6.7550   23.8400 C   0  0  0  0  0  3  0  0  0  0  0  0
  -21.1410   -5.9730   25.0060 C   0  0  0  0  0  3  0  0  0  0  0  0
  -21.4680   -4.6050   24.9770 C   0  0  0  0  0  0  0  0  0  0  0  0
  -21.9300   -4.0180   23.7860 C   0  0  0  0  0  3  0  0  0  0  0  0
  -22.0600   -4.7950   22.6220 C   0  0  0  0  0  0  0  0  0  0  0  0
  -22.4820   -4.2180   21.4720 F   0  0  0  0  0  0  0  0  0  0  0  0
  -21.3380   -3.8520   26.0940 F   0  0  0  0  0  0  0  0  0  0  0  0
  -22.8720  -13.5240   21.1920 C   0  0  0  0  0  0  0  0  0  0  0  0
  -22.1890  -12.8180   22.0860 N   0  0  0  0  0  0  0  0  0  0  0  0
  -22.4070  -14.5570   20.7100 O   0  0  0  0  0  0  0  0  0  0  0  0
  -22.5780  -11.9840   22.5010 H   0  0  0  0  0  0  0  0  0  0  0  0
  -21.2640  -13.1150   22.3580 H   0  0  0  0  0  0  0  0  0  0  0  0
  -25.4690  -15.2030   20.2790 N   0  0  0  0  0  0  0  0  0  0  0  0
  -24.7260  -15.8730   20.4390 H   0  0  0  0  0  0  0  0  0  0  0  0
  -26.3290  -15.6360   19.9710 H   0  0  0  0  0  0  0  0  0  0  0  0
  -28.6480  -21.7920   20.8550 C   0  0  0  0  0  2  0  0  0  0  0  0
  -28.9360  -23.2780   20.4850 C   0  0  0  0  0  2  0  0  0  0  0  0
  -28.0410  -24.3130   21.2240 C   0  0  0  0  0  2  0  0  0  0  0  0
  -28.5980  -25.7630   21.3510 C   0  0  0  0  0  2  0  0  0  0  0  0
  -28.4460  -26.6110   20.1990 O   0  0  0  0  0  0  0  0  0  0  0  0
  -24.6400  -31.8500   23.2210 C   0  0  0  0  0  0  0  0  0  0  0  0
  -27.3030  -27.3800   20.2030 C   0  0  0  0  0  0  0  0  0  0  0  0
  -23.4400  -30.4290   21.5840 C   0  0  0  0  0  3  0  0  0  0  0  0
  -24.9100  -28.8830   20.1780 C   0  0  0  0  0  0  0  0  0  0  0  0
  -25.9640  -30.7950   21.3930 C   0  0  0  0  0  2  0  0  0  0  0  0
  -26.0610  -29.4160   20.7720 C   0  0  0  0  0  0  0  0  0  0  0  0
  -27.2630  -28.6680   20.7900 C   0  0  0  0  0  3  0  0  0  0  0  0
  -26.1400  -26.8660   19.5970 C   0  0  0  0  0  3  0  0  0  0  0  0
  -24.9440  -27.6060   19.5890 C   0  0  0  0  0  3  0  0  0  0  0  0
  -23.6590  -29.7340   20.2110 C   0  0  0  0  0  2  0  0  0  0  0  0
  -24.6980  -31.0400   22.1260 N   0  0  0  0  0  0  0  0  0  0  0  0
  -23.5580  -32.1250   23.7590 O   0  0  0  0  0  0  0  0  0  0  0  0
  -22.7900  -29.4160   22.5550 C   0  0  0  0  0  0  0  0  0  0  0  0
  -21.4640  -29.2410   22.4380 N   0  0  0  0  0  0  0  0  0  0  0  0
  -23.4760  -28.7890   23.3670 O   0  0  0  0  0  0  0  0  0  0  0  0
  -20.9700  -29.8050   21.7620 H   0  0  0  0  0  0  0  0  0  0  0  0
  -18.0880  -28.0600   22.9560 C   0  0  0  0  0  0  0  0  0  0  0  0
  -20.6500  -28.3070   23.2150 C   0  0  0  0  0  3  0  0  0  0  0  0
  -20.7440  -26.8730   22.6450 C   0  0  0  0  0  2  0  0  0  0  0  0
  -19.6360  -26.5500   21.6350 C   0  0  0  0  0  2  0  0  0  0  0  0
  -18.2570  -26.7060   22.2830 C   0  0  0  0  0  2  0  0  0  0  0  0
  -19.2150  -28.8160   23.3800 C   0  0  0  0  0  0  0  0  0  0  0  0
  -19.0070  -30.0810   23.9700 C   0  0  0  0  0  3  0  0  0  0  0  0
  -17.7080  -30.5920   24.1400 C   0  0  0  0  0  3  0  0  0  0  0  0
  -16.5960  -29.8310   23.7370 C   0  0  0  0  0  3  0  0  0  0  0  0
  -16.7870  -28.5670   23.1510 C   0  0  0  0  0  3  0  0  0  0  0  0
  -25.9260  -32.4930   23.8360 C   0  0  0  0  0  3  0  0  0  0  0  0
  -25.6040  -33.8840   24.1760 N   0  0  0  0  0  0  0  0  0  0  0  0
  -25.9160  -34.9450   23.4190 C   0  0  0  0  0  0  0  0  0  0  0  0
  -26.5770  -34.8540   22.3800 O   0  0  0  0  0  0  0  0  0  0  0  0
  -25.0240  -34.0290   24.9870 H   0  0  0  0  0  0  0  0  0  0  0  0
  -24.1650  -36.7170   23.0800 C   0  0  0  0  0  1  0  0  0  0  0  0
  -25.4140  -36.3250   23.8850 C   0  0  0  0  0  3  0  0  0  0  0  0
  -27.5420  -37.2240   24.7130 C   0  0  0  0  0  1  0  0  0  0  0  0
  -26.4330  -37.3900   23.7770 N   0  0  0  0  0  0  0  0  0  0  0  0
  -26.0160  -38.3020   23.9440 H   0  0  0  0  0  0  0  0  0  0  0  0
  -26.4620  -31.7180   25.1020 C   0  0  1  0  0  0  0  0  0  0  0  0
  -25.3820  -31.4670   26.1780 C   0  0  0  0  0  1  0  0  0  0  0  0
  -27.0530  -30.3470   24.6970 C   0  0  0  0  0  1  0  0  0  0  0  0
  -27.6070  -32.5180   25.7660 C   0  0  0  0  0  1  0  0  0  0  0  0
  1  7  1  0
  1 47  1  0
  3  2  1  0
  4  6  1  0
  5  4  2  0
  5  7  1  0
  6 17  1  0
  6  2  2  0
  7  3  2  0
  8  5  1  0
  9 17  1  0
 10 15  1  0
 11 12  1  0
 11 10  1  0
 13 12  1  0
 13 22  1  0
 13 14  1  0
 15  9  1  0
 15 14  1  0
 16  9  2  0
 17 18  1  0
 19 20  2  0
 20 39  1  0
 21 20  1  0
 21 24  1  0
 22 23  1  0
 22 19  1  0
 23 21  2  0
 24 25  1  0
 25 26  2  0
 27 30  1  0
 27 26  1  0
 28 27  2  0
 29 28  1  0
 29 24  2  0
 30 31  1  0
 31 32  1  0
 32 33  2  0
 34 33  1  0
 34 38  1  0
 35 34  2  0
 36 31  2  0
 36 35  1  0
 37 36  1  0
 39 40  1  0
 40 43  1  0
 40 42  1  0
 41 39  2  0
 44 19  1  0
 44 45  1  0
 46 44  1  0
 48 47  1  0
 48 49  1  0
 49 50  1  0
 51 53  1  0
 51 50  1  0
 52 63  2  0
 53 58  1  0
 54 62  1  0
 54 64  1  0
 55 61  1  0
 55 57  1  0
 56 62  1  0
 57 58  2  0
 57 56  1  0
 59 53  2  0
 60 59  1  0
 60 55  2  0
 61 54  1  0
 62 52  1  0
 64 66  2  0
 65 64  1  0
 67 65  1  0
 68 77  2  0
 68 73  1  0
 69 65  1  0
 69 73  1  0
 70 69  1  0
 71 72  1  0
 71 70  1  0
 72 68  1  0
 73 74  2  0
 74 75  1  0
 76 75  2  0
 77 76  1  0
 78 52  1  0
 78 79  1  0
 78 88  1  0
 79 82  1  0
 80 84  1  0
 80 79  1  0
 81 80  2  0
 84 83  1  0
 86 84  1  0
 86 87  1  0
 86 85  1  0
 88 91  1  1
 88 89  1  0
 90 88  1  0
M  ISO  4   9 100  17 100  50 101  51 101
M  END
>  <TORSDO>  (86) 
F 21

>  <SCORE>  (86) 
-12.953

>  <name>  (86) 
85

>  <ligand_id>  (86) 
85

>  <original_smiles>  (86) 
[H]c1c([H])c([H])c2c(c1[H])C([H])([H])C([H])([H])C([H])([H])C2([H])N([H])C(=O)C1([H])N(C(=O)C([H])(N([H])C(=O)C([H])(N([H])C([H])([H])[H])C([H])([H])[H])C(C([H])([H])[H])(C([H])([H])[H])C([H])([H])[H])C([H])([H])c2c([H])c(OC([H])([H])C([H])([H])C([H])([H])C([H])([H])Oc3c([H])c([H])c(N([H])C(=O)N4C([H])([H])C([H])([H])C([H])([H])C([H])(n5nc(-c6c([H])c([H])c(Oc7c([H])c([H])c(F)c([H])c7F)c([H])c6[H])c(C(=O)N([H])[H])c5N([H])[H])C4([H])[H])c([H])c3C([H])([H])[H])c([H])c([H])c2C1([H])[H]

>  <smiles>  (86) 
[H]c1c([H])c([H])c2c(c1[H])C([H])([H])C([H])([H])C([H])([H])C2([H])N([H])C(=O)C1([H])N(C(=O)C([H])(N([H])C(=O)C([H])(N([H])C([H])([H])[H])C([H])([H])[H])C(C([H])([H])[H])(C([H])([H])[H])C([H])([H])[H])C([H])([H])c2c([H])c(OC([H])([H])C([H])([H])C([H])([H])C([H])([H])Oc3c([H])c([H])c(N([H])C(=O)N4C([H])([H])C([H])([H])C([H])([H])C([H])(n5nc(-c6c([H])c([H])c(Oc7c([H])c([H])c(F)c([H])c7F)c([H])c6[H])c(C(=O)N([H])[H])c5N([H])[H])C4([H])[H])c([H])c3C([H])([H])[H])c([H])c([H])c2C1([H])[H]

$$$$
86:0:0
     RDKit          3D

 96104  0  0  1  0  0  0  0  0999 V2000
  -29.7700  -21.5530   18.7180 C   0  0  0  0  0  0  0  0  0  0  0  0
  -29.4630  -22.8270   20.9420 C   0  0  0  0  0  1  0  0  0  0  0  0
  -29.5260  -22.7270   19.4640 N   0  0  0  0  0  0  0  0  0  0  0  0
  -29.9970  -21.6860   17.5060 O   0  0  0  0  0  0  0  0  0  0  0  0
  -30.5640  -19.0130   18.5120 C   0  0  0  0  0  3  0  0  0  0  0  0
  -29.1070  -18.1420   20.6840 C   0  0  0  0  0  3  0  0  0  0  0  0
  -29.8520  -20.0520   19.2280 C   0  0  0  0  0  0  0  0  0  0  0  0
  -29.8860  -17.1380   20.0380 C   0  0  0  0  0  0  0  0  0  0  0  0
  -30.5740  -17.6190   18.8860 C   0  0  0  0  0  0  0  0  0  0  0  0
  -29.0860  -19.5210   20.3010 C   0  0  0  0  0  0  0  0  0  0  0  0
  -31.1750  -16.7280   18.0590 F   0  0  0  0  0  0  0  0  0  0  0  0
  -28.2390  -20.3220   20.9670 F   0  0  0  0  0  0  0  0  0  0  0  0
  -30.6230  -14.6360   20.3130 C   0  0  0  0  0  0  0  0  0  0  0  0
  -30.3820  -12.3440   19.3660 C   0  0  0  0  0  2  0  0  0  0  0  0
  -29.4890  -12.5630   18.1290 C   0  0  0  0  0  2  0  0  0  0  0  0
  -28.0000  -12.4260   18.5120 C   0  0  0  0  0  2  0  0  0  0  0  0
  -27.6420  -13.2430   19.7890 C   0  0  0  0  0  3  0  0  0  0  0  0
  -28.6950  -13.0990   20.9190 C   0  0  0  0  0  2  0  0  0  0  0  0
  -30.0120  -13.4010   20.3350 N   0  0  0  0  0  0  0  0  0  0  0  0
  -31.8070  -14.7600   20.0040 O   0  0  0  0  0  0  0  0  0  0  0  0
  -29.8010  -15.7240   20.4780 N   0  0  0  0  0  0  0  0  0  0  0  0
  -28.9140  -15.4470   20.8680 H   0  0  0  0  0  0  0  0  0  0  0  0
  -25.2360  -13.8380   20.4790 C   0  0  0  0  0  0  0  0  0  0  0  0
  -24.1690  -13.0570   20.8410 C   0  0  0  0  0  0  0  0  0  0  0  0
  -24.6390  -11.7130   20.8290 C   0  0  0  0  0  0  0  0  0  0  0  0
  -26.2880  -12.9590   20.2600 N   0  0  0  0  0  0  0  0  0  0  0  0
  -25.9350  -11.6770   20.5320 N   0  0  0  0  0  0  0  0  0  0  0  0
  -23.9110  -10.4500   21.0290 C   0  0  0  0  0  0  0  0  0  0  0  0
  -24.3430   -9.4870   21.9670 C   0  0  0  0  0  3  0  0  0  0  0  0
  -23.6210   -8.2880   22.1460 C   0  0  0  0  0  3  0  0  0  0  0  0
  -22.4440   -8.0500   21.3910 C   0  0  0  0  0  0  0  0  0  0  0  0
  -22.0300   -9.0020   20.4440 C   0  0  0  0  0  3  0  0  0  0  0  0
  -22.7560  -10.1930   20.2610 C   0  0  0  0  0  3  0  0  0  0  0  0
  -21.6830   -6.9090   21.4920 O   0  0  0  0  0  0  0  0  0  0  0  0
  -21.6480   -6.1580   22.6420 C   0  0  0  0  0  0  0  0  0  0  0  0
  -21.2440   -6.7060   23.8780 C   0  0  0  0  0  3  0  0  0  0  0  0
  -21.1530   -5.8830   25.0180 C   0  0  0  0  0  3  0  0  0  0  0  0
  -21.4580   -4.5140   24.9240 C   0  0  0  0  0  0  0  0  0  0  0  0
  -21.8580   -3.9620   23.6950 C   0  0  0  0  0  3  0  0  0  0  0  0
  -21.9520   -4.7800   22.5560 C   0  0  0  0  0  0  0  0  0  0  0  0
  -22.3170   -4.2410   21.3690 F   0  0  0  0  0  0  0  0  0  0  0  0
  -21.3640   -3.7220   26.0190 F   0  0  0  0  0  0  0  0  0  0  0  0
  -22.7680  -13.5420   21.0890 C   0  0  0  0  0  0  0  0  0  0  0  0
  -22.0310  -12.8550   21.9590 N   0  0  0  0  0  0  0  0  0  0  0  0
  -22.3380  -14.5600   20.5590 O   0  0  0  0  0  0  0  0  0  0  0  0
  -22.3930  -12.0280   22.4040 H   0  0  0  0  0  0  0  0  0  0  0  0
  -21.0930  -13.1610   22.1630 H   0  0  0  0  0  0  0  0  0  0  0  0
  -25.3810  -15.2050   20.2990 N   0  0  0  0  0  0  0  0  0  0  0  0
  -24.5700  -15.8040   20.4070 H   0  0  0  0  0  0  0  0  0  0  0  0
  -26.1960  -15.6990   19.9560 H   0  0  0  0  0  0  0  0  0  0  0  0
  -29.5440  -24.1680   18.9000 C   0  0  0  0  0  3  0  0  0  0  0  0
  -31.5010  -25.6100   17.8610 C   0  0  0  0  0  1  0  0  0  0  0  0
  -32.1070  -23.9590   19.6090 C   0  0  0  0  0  1  0  0  0  0  0  0
  -30.9510  -24.8660   19.1050 C   0  0  0  0  0  3  0  0  0  0  0  0
  -28.2900  -25.1320   19.3030 C   0  0  0  0  0  2  0  0  0  0  0  0
  -28.4230  -26.5110   19.8880 O   0  0  0  0  0  0  0  0  0  0  0  0
  -24.6160  -31.8690   23.2240 C   0  0  0  0  0  0  0  0  0  0  0  0
  -27.2720  -27.3290   20.0400 C   0  0  0  0  0  0  0  0  0  0  0  0
  -23.4170  -30.4590   21.5880 C   0  0  0  0  0  3  0  0  0  0  0  0
  -24.8730  -28.9140   20.1630 C   0  0  0  0  0  0  0  0  0  0  0  0
  -25.9630  -30.7680   21.4180 C   0  0  0  0  0  2  0  0  0  0  0  0
  -26.0490  -29.3940   20.7590 C   0  0  0  0  0  0  0  0  0  0  0  0
  -27.2490  -28.6120   20.6940 C   0  0  0  0  0  3  0  0  0  0  0  0
  -26.0420  -26.9000   19.4860 C   0  0  0  0  0  3  0  0  0  0  0  0
  -24.8770  -27.6750   19.5170 C   0  0  0  0  0  3  0  0  0  0  0  0
  -23.6350  -29.7790   20.2140 C   0  0  0  0  0  2  0  0  0  0  0  0
  -24.6830  -31.0520   22.1310 N   0  0  0  0  0  0  0  0  0  0  0  0
  -23.5270  -32.1440   23.7560 O   0  0  0  0  0  0  0  0  0  0  0  0
  -22.7490  -29.4500   22.5520 C   0  0  0  0  0  0  0  0  0  0  0  0
  -21.4190  -29.2790   22.4340 N   0  0  0  0  0  0  0  0  0  0  0  0
  -23.4270  -28.8230   23.3690 O   0  0  0  0  0  0  0  0  0  0  0  0
  -20.9290  -29.8430   21.7530 H   0  0  0  0  0  0  0  0  0  0  0  0
  -18.0410  -28.0930   22.9540 C   0  0  0  0  0  0  0  0  0  0  0  0
  -20.6010  -28.3470   23.2100 C   0  0  0  0  0  3  0  0  0  0  0  0
  -20.6950  -26.9150   22.6350 C   0  0  0  0  0  2  0  0  0  0  0  0
  -19.5890  -26.5920   21.6270 C   0  0  0  0  0  2  0  0  0  0  0  0
  -18.2110  -26.7440   22.2770 C   0  0  0  0  0  2  0  0  0  0  0  0
  -19.1630  -28.8530   23.3800 C   0  0  0  0  0  0  0  0  0  0  0  0
  -18.9470  -30.1140   23.9760 C   0  0  0  0  0  3  0  0  0  0  0  0
  -17.6410  -30.6190   24.1440 C   0  0  0  0  0  3  0  0  0  0  0  0
  -16.5350  -29.8560   23.7330 C   0  0  0  0  0  3  0  0  0  0  0  0
  -16.7360  -28.5930   23.1490 C   0  0  0  0  0  3  0  0  0  0  0  0
  -25.8950  -32.5030   23.8480 C   0  0  0  0  0  3  0  0  0  0  0  0
  -26.4140  -31.7370   25.1290 C   0  0  1  0  0  0  0  0  0  0  0  0
  -25.3150  -31.5080   26.1940 C   0  0  0  0  0  1  0  0  0  0  0  0
  -26.9950  -30.3570   24.7480 C   0  0  0  0  0  1  0  0  0  0  0  0
  -27.5680  -32.5310   25.7880 C   0  0  0  0  0  1  0  0  0  0  0  0
  -25.5840  -33.9000   24.1780 N   0  0  0  0  0  0  0  0  0  0  0  0
  -25.9130  -34.9550   23.4240 C   0  0  0  0  0  0  0  0  0  0  0  0
  -26.5780  -34.8560   22.3890 O   0  0  0  0  0  0  0  0  0  0  0  0
  -24.9930  -34.0520   24.9830 H   0  0  0  0  0  0  0  0  0  0  0  0
  -24.1800  -36.7500   23.0860 C   0  0  0  0  0  1  0  0  0  0  0  0
  -25.4280  -36.3440   23.8880 C   0  0  0  0  0  3  0  0  0  0  0  0
  -27.5700  -37.2290   24.7030 C   0  0  0  0  0  1  0  0  0  0  0  0
  -26.4590  -37.4010   23.7720 N   0  0  0  0  0  0  0  0  0  0  0  0
  -26.0520  -38.3210   23.9260 H   0  0  0  0  0  0  0  0  0  0  0  0
  1  7  1  0
  1  3  1  0
  3  2  1  0
  4  1  2  0
  5  9  2  0
  5  7  1  0
  7 10  2  0
  8 21  1  0
  8  6  2  0
  9  8  1  0
 10  6  1  0
 10 12  1  0
 11  9  1  0
 13 19  1  0
 13 21  1  0
 14 19  1  0
 15 16  1  0
 15 14  1  0
 17 16  1  0
 17 26  1  0
 17 18  1  0
 19 18  1  0
 20 13  2  0
 21 22  1  0
 23 24  2  0
 24 43  1  0
 25 24  1  0
 25 28  1  0
 26 23  1  0
 26 27  1  0
 27 25  2  0
 28 29  1  0
 29 30  2  0
 31 34  1  0
 31 30  1  0
 32 31  2  0
 33 32  1  0
 33 28  2  0
 34 35  1  0
 35 36  1  0
 36 37  2  0
 38 37  1  0
 38 42  1  0
 39 38  2  0
 40 35  2  0
 40 39  1  0
 41 40  1  0
 43 44  1  0
 44 47  1  0
 44 46  1  0
 45 43  2  0
 48 49  1  0
 48 23  1  0
 50 48  1  0
 51 54  1  0
 51 55  1  0
 51  3  1  0
 52 54  1  0
 54 53  1  0
 55 56  1  0
 56 58  1  0
 57 68  2  0
 58 63  1  0
 59 67  1  0
 59 69  1  0
 60 66  1  0
 60 62  1  0
 61 67  1  0
 62 61  1  0
 63 62  2  0
 64 65  1  0
 64 58  2  0
 65 60  2  0
 66 59  1  0
 67 57  1  0
 69 71  2  0
 70 69  1  0
 72 70  1  0
 73 82  2  0
 73 78  1  0
 74 70  1  0
 74 78  1  0
 75 74  1  0
 76 77  1  0
 76 75  1  0
 77 73  1  0
 78 79  2  0
 79 80  1  0
 81 80  2  0
 82 81  1  0
 83 57  1  0
 83 88  1  0
 83 84  1  0
 84 87  1  1
 84 85  1  0
 86 84  1  0
 88 91  1  0
 89 93  1  0
 89 88  1  0
 90 89  2  0
 93 92  1  0
 95 93  1  0
 95 96  1  0
 95 94  1  0
M  ISO  4  13 100  21 100  55 101  56 101
M  END
>  <TORSDO>  (87) 
F 20

>  <SCORE>  (87) 
-14.117

>  <name>  (87) 
86

>  <ligand_id>  (87) 
86

>  <original_smiles>  (87) 
[H]c1c([H])c([H])c2c(c1[H])C([H])([H])C([H])([H])C([H])([H])C2([H])N([H])C(=O)C1([H])N(C(=O)C([H])(N([H])C(=O)C([H])(N([H])C([H])([H])[H])C([H])([H])[H])C(C([H])([H])[H])(C([H])([H])[H])C([H])([H])[H])C([H])([H])c2c([H])c(OC([H])([H])C([H])(N(C(=O)c3c([H])c(F)c(N([H])C(=O)N4C([H])([H])C([H])([H])C([H])([H])C([H])(n5nc(-c6c([H])c([H])c(Oc7c([H])c([H])c(F)c([H])c7F)c([H])c6[H])c(C(=O)N([H])[H])c5N([H])[H])C4([H])[H])c([H])c3F)C([H])([H])[H])C([H])(C([H])([H])[H])C([H])([H])[H])c([H])c([H])c2C1([H])[H]

>  <smiles>  (87) 
[H]c1c([H])c([H])c2c(c1[H])C([H])([H])C([H])([H])C([H])([H])C2([H])N([H])C(=O)C1([H])N(C(=O)C([H])(N([H])C(=O)C([H])(N([H])C([H])([H])[H])C([H])([H])[H])C(C([H])([H])[H])(C([H])([H])[H])C([H])([H])[H])C([H])([H])c2c([H])c(OC([H])([H])C([H])(N(C(=O)c3c([H])c(F)c(N([H])C(=O)N4C([H])([H])C([H])([H])C([H])([H])C([H])(n5nc(-c6c([H])c([H])c(Oc7c([H])c([H])c(F)c([H])c7F)c([H])c6[H])c(C(=O)N([H])[H])c5N([H])[H])C4([H])[H])c([H])c3F)C([H])([H])[H])C([H])(C([H])([H])[H])C([H])([H])[H])c([H])c([H])c2C1([H])[H]

$$$$
87:0:0
     RDKit          3D

 93101  0  0  1  0  0  0  0  0999 V2000
  -29.8910  -21.6370   19.5940 C   0  0  0  0  0  2  0  0  0  0  0  0
  -29.3100  -19.1290   19.1970 C   0  0  0  0  0  3  0  0  0  0  0  0
  -30.6950  -18.2090   21.3980 C   0  0  0  0  0  3  0  0  0  0  0  0
  -29.8800  -20.1200   20.0410 C   0  0  0  0  0  0  0  0  0  0  0  0
  -29.4310  -17.7180   19.4190 C   0  0  0  0  0  0  0  0  0  0  0  0
  -30.5780  -19.6160   21.1690 C   0  0  0  0  0  0  0  0  0  0  0  0
  -30.1620  -17.1960   20.5370 C   0  0  0  0  0  0  0  0  0  0  0  0
  -28.7070  -16.8170   18.4340 C   0  0  0  0  0  1  0  0  0  0  0  0
  -31.2650  -20.5740   22.1290 C   0  0  0  0  0  1  0  0  0  0  0  0
  -30.8590  -14.7520   20.0950 C   0  0  0  0  0  0  0  0  0  0  0  0
  -30.5360  -12.5680   18.9120 C   0  0  0  0  0  2  0  0  0  0  0  0
  -29.5070  -12.7040   17.7680 C   0  0  0  0  0  2  0  0  0  0  0  0
  -28.0740  -12.4970   18.2960 C   0  0  0  0  0  2  0  0  0  0  0  0
  -27.7960  -13.3180   19.5810 C   0  0  0  0  0  3  0  0  0  0  0  0
  -28.9270  -13.1590   20.6110 C   0  0  0  0  0  2  0  0  0  0  0  0
  -30.1920  -13.5500   19.9670 N   0  0  0  0  0  0  0  0  0  0  0  0
  -31.9150  -14.9410   19.4830 O   0  0  0  0  0  0  0  0  0  0  0  0
  -30.4250  -15.4610   22.3280 C   0  0  0  0  0  1  0  0  0  0  0  0
  -30.3130  -15.7510   20.8860 N   0  0  0  0  0  0  0  0  0  0  0  0
  -25.4780  -13.8730   20.5320 C   0  0  0  0  0  0  0  0  0  0  0  0
  -24.4430  -13.0780   20.9430 C   0  0  0  0  0  0  0  0  0  0  0  0
  -24.8980  -11.7320   20.8030 C   0  0  0  0  0  0  0  0  0  0  0  0
  -26.4940  -13.0070   20.1600 N   0  0  0  0  0  0  0  0  0  0  0  0
  -26.1580  -11.7120   20.3850 N   0  0  0  0  0  0  0  0  0  0  0  0
  -24.1880  -10.4600   20.9860 C   0  0  0  0  0  0  0  0  0  0  0  0
  -24.6270   -9.4970   21.9200 C   0  0  0  0  0  3  0  0  0  0  0  0
  -23.9180   -8.2890   22.0920 C   0  0  0  0  0  3  0  0  0  0  0  0
  -22.7560   -8.0350   21.3270 C   0  0  0  0  0  0  0  0  0  0  0  0
  -22.3350   -8.9870   20.3810 C   0  0  0  0  0  3  0  0  0  0  0  0
  -23.0450  -10.1880   20.2090 C   0  0  0  0  0  3  0  0  0  0  0  0
  -22.0180   -6.8790   21.4050 O   0  0  0  0  0  0  0  0  0  0  0  0
  -21.8800   -6.1920   22.5840 C   0  0  0  0  0  0  0  0  0  0  0  0
  -21.3180   -6.7900   23.7330 C   0  0  0  0  0  3  0  0  0  0  0  0
  -21.1310   -6.0280   24.9040 C   0  0  0  0  0  3  0  0  0  0  0  0
  -21.4950   -4.6670   24.9250 C   0  0  0  0  0  0  0  0  0  0  0  0
  -22.0490   -4.0690   23.7790 C   0  0  0  0  0  3  0  0  0  0  0  0
  -22.2370   -4.8280   22.6120 C   0  0  0  0  0  0  0  0  0  0  0  0
  -22.7530   -4.2420   21.5050 F   0  0  0  0  0  0  0  0  0  0  0  0
  -21.3080   -3.9330   26.0460 F   0  0  0  0  0  0  0  0  0  0  0  0
  -23.0750  -13.5370   21.3580 C   0  0  0  0  0  0  0  0  0  0  0  0
  -22.4220  -12.7930   22.2440 N   0  0  0  0  0  0  0  0  0  0  0  0
  -22.5960  -14.5870   20.9330 O   0  0  0  0  0  0  0  0  0  0  0  0
  -22.8250  -11.9420   22.6060 H   0  0  0  0  0  0  0  0  0  0  0  0
  -21.5080  -13.0800   22.5660 H   0  0  0  0  0  0  0  0  0  0  0  0
  -25.6360  -15.2520   20.4260 N   0  0  0  0  0  0  0  0  0  0  0  0
  -24.8940  -15.9040   20.6530 H   0  0  0  0  0  0  0  0  0  0  0  0
  -26.4890  -15.7090   20.1310 H   0  0  0  0  0  0  0  0  0  0  0  0
  -29.1580  -24.0610   19.9520 C   0  0  0  0  0  0  0  0  0  0  0  0
  -29.1180  -22.7260   20.2890 N   0  0  0  0  0  0  0  0  0  0  0  0
  -29.8920  -24.4500   19.0370 O   0  0  0  0  0  0  0  0  0  0  0  0
  -28.5020  -22.4480   21.0400 H   0  0  0  0  0  0  0  0  0  0  0  0
  -28.2720  -25.1330   20.7060 C   0  0  0  0  0  2  0  0  0  0  0  0
  -28.4730  -26.5510   20.3040 O   0  0  0  0  0  0  0  0  0  0  0  0
  -24.6510  -31.9370   23.2370 C   0  0  0  0  0  0  0  0  0  0  0  0
  -27.3430  -27.3800   20.2670 C   0  0  0  0  0  0  0  0  0  0  0  0
  -23.4750  -30.4990   21.6110 C   0  0  0  0  0  3  0  0  0  0  0  0
  -24.9550  -28.9490   20.2160 C   0  0  0  0  0  0  0  0  0  0  0  0
  -26.0080  -30.8550   21.4350 C   0  0  0  0  0  2  0  0  0  0  0  0
  -26.1130  -29.4680   20.8090 C   0  0  0  0  0  0  0  0  0  0  0  0
  -27.3120  -28.6950   20.8220 C   0  0  0  0  0  3  0  0  0  0  0  0
  -26.1660  -26.9130   19.6420 C   0  0  0  0  0  3  0  0  0  0  0  0
  -24.9840  -27.6770   19.6210 C   0  0  0  0  0  3  0  0  0  0  0  0
  -23.7050  -29.8050   20.2430 C   0  0  0  0  0  2  0  0  0  0  0  0
  -24.7300  -31.1160   22.1510 N   0  0  0  0  0  0  0  0  0  0  0  0
  -23.5610  -32.2080   23.7620 O   0  0  0  0  0  0  0  0  0  0  0  0
  -22.8210  -29.4880   22.5830 C   0  0  0  0  0  0  0  0  0  0  0  0
  -21.4990  -29.2900   22.4490 N   0  0  0  0  0  0  0  0  0  0  0  0
  -23.5010  -28.8850   23.4160 O   0  0  0  0  0  0  0  0  0  0  0  0
  -21.0080  -29.8280   21.7480 H   0  0  0  0  0  0  0  0  0  0  0  0
  -18.1350  -28.0440   22.9260 C   0  0  0  0  0  0  0  0  0  0  0  0
  -20.6850  -28.3530   23.2270 C   0  0  0  0  0  3  0  0  0  0  0  0
  -20.8210  -26.9120   22.6810 C   0  0  0  0  0  2  0  0  0  0  0  0
  -19.7380  -26.5500   21.6590 C   0  0  0  0  0  2  0  0  0  0  0  0
  -18.3450  -26.6840   22.2800 C   0  0  0  0  0  2  0  0  0  0  0  0
  -19.2350  -28.8340   23.3560 C   0  0  0  0  0  0  0  0  0  0  0  0
  -18.9860  -30.1040   23.9180 C   0  0  0  0  0  3  0  0  0  0  0  0
  -17.6710  -30.5860   24.0550 C   0  0  0  0  0  3  0  0  0  0  0  0
  -16.5860  -29.7940   23.6420 C   0  0  0  0  0  3  0  0  0  0  0  0
  -16.8190  -28.5240   23.0840 C   0  0  0  0  0  3  0  0  0  0  0  0
  -25.9230  -32.5950   23.8580 C   0  0  0  0  0  3  0  0  0  0  0  0
  -26.4470  -31.8410   25.1410 C   0  0  1  0  0  0  0  0  0  0  0  0
  -25.3530  -31.5880   26.2050 C   0  0  0  0  0  1  0  0  0  0  0  0
  -27.0600  -30.4740   24.7610 C   0  0  0  0  0  1  0  0  0  0  0  0
  -27.5760  -32.6640   25.8060 C   0  0  0  0  0  1  0  0  0  0  0  0
  -25.5890  -33.9900   24.1760 N   0  0  0  0  0  0  0  0  0  0  0  0
  -25.9170  -35.0440   23.4170 C   0  0  0  0  0  0  0  0  0  0  0  0
  -26.5980  -34.9440   22.3930 O   0  0  0  0  0  0  0  0  0  0  0  0
  -24.9840  -34.1410   24.9700 H   0  0  0  0  0  0  0  0  0  0  0  0
  -24.1740  -36.8150   23.0290 C   0  0  0  0  0  1  0  0  0  0  0  0
  -25.4070  -36.4280   23.8620 C   0  0  0  0  0  3  0  0  0  0  0  0
  -27.5160  -37.3390   24.7260 C   0  0  0  0  0  1  0  0  0  0  0  0
  -26.4280  -37.4940   23.7640 N   0  0  0  0  0  0  0  0  0  0  0  0
  -26.0090  -38.4080   23.9060 H   0  0  0  0  0  0  0  0  0  0  0  0
  1  4  1  0
  1 49  1  0
  2  5  2  0
  2  4  1  0
  4  6  2  0
  5  7  1  0
  6  3  1  0
  6  9  1  0
  7 19  1  0
  7  3  2  0
  8  5  1  0
 10 19  1  0
 11 16  1  0
 12 13  1  0
 12 11  1  0
 14 13  1  0
 14 23  1  0
 14 15  1  0
 16 10  1  0
 16 15  1  0
 17 10  2  0
 19 18  1  0
 20 21  2  0
 21 40  1  0
 22 21  1  0
 22 25  1  0
 23 24  1  0
 23 20  1  0
 24 22  2  0
 25 26  1  0
 26 27  2  0
 28 31  1  0
 28 27  1  0
 29 28  2  0
 30 29  1  0
 30 25  2  0
 31 32  1  0
 32 37  2  0
 32 33  1  0
 33 34  2  0
 34 35  1  0
 35 39  1  0
 36 35  2  0
 37 36  1  0
 38 37  1  0
 40 41  1  0
 41 44  1  0
 41 43  1  0
 42 40  2  0
 45 20  1  0
 45 46  1  0
 47 45  1  0
 48 49  1  0
 48 52  1  0
 49 51  1  0
 50 48  2  0
 53 52  1  0
 54 65  2  0
 55 53  1  0
 55 60  1  0
 56 64  1  0
 56 66  1  0
 57 63  1  0
 57 59  1  0
 58 64  1  0
 59 60  2  0
 59 58  1  0
 61 55  2  0
 62 61  1  0
 62 57  2  0
 63 56  1  0
 64 54  1  0
 66 68  2  0
 67 66  1  0
 69 67  1  0
 70 79  2  0
 70 75  1  0
 71 67  1  0
 71 75  1  0
 72 71  1  0
 73 74  1  0
 73 72  1  0
 74 70  1  0
 75 76  2  0
 76 77  1  0
 78 77  2  0
 79 78  1  0
 80 54  1  0
 80 85  1  0
 80 81  1  0
 81 84  1  1
 81 82  1  0
 83 81  1  0
 85 88  1  0
 86 90  1  0
 86 85  1  0
 87 86  2  0
 90 89  1  0
 92 90  1  0
 92 93  1  0
 92 91  1  0
M  ISO  4  10 100  19 100  52 101  53 101
M  END
>  <TORSDO>  (88) 
F 19

>  <SCORE>  (88) 
-13.192

>  <name>  (88) 
87

>  <ligand_id>  (88) 
87

>  <original_smiles>  (88) 
[H]c1c([H])c([H])c2c(c1[H])C([H])([H])C([H])([H])C([H])([H])C2([H])N([H])C(=O)C1([H])N(C(=O)C([H])(N([H])C(=O)C([H])(N([H])C([H])([H])[H])C([H])([H])[H])C(C([H])([H])[H])(C([H])([H])[H])C([H])([H])[H])C([H])([H])c2c([H])c(OC([H])([H])C(=O)N([H])C([H])([H])c3c([H])c(C([H])([H])[H])c(N(C(=O)N4C([H])([H])C([H])([H])C([H])([H])C([H])(n5nc(-c6c([H])c([H])c(Oc7c([H])c([H])c(F)c([H])c7F)c([H])c6[H])c(C(=O)N([H])[H])c5N([H])[H])C4([H])[H])C([H])([H])[H])c([H])c3C([H])([H])[H])c([H])c([H])c2C1([H])[H]

>  <smiles>  (88) 
[H]c1c([H])c([H])c2c(c1[H])C([H])([H])C([H])([H])C([H])([H])C2([H])N([H])C(=O)C1([H])N(C(=O)C([H])(N([H])C(=O)C([H])(N([H])C([H])([H])[H])C([H])([H])[H])C(C([H])([H])[H])(C([H])([H])[H])C([H])([H])[H])C([H])([H])c2c([H])c(OC([H])([H])C(=O)N([H])C([H])([H])c3c([H])c(C([H])([H])[H])c(N(C(=O)N4C([H])([H])C([H])([H])C([H])([H])C([H])(n5nc(-c6c([H])c([H])c(Oc7c([H])c([H])c(F)c([H])c7F)c([H])c6[H])c(C(=O)N([H])[H])c5N([H])[H])C4([H])[H])C([H])([H])[H])c([H])c3C([H])([H])[H])c([H])c([H])c2C1([H])[H]

$$$$
88:0:0
     RDKit          3D

 90 98  0  0  1  0  0  0  0  0999 V2000
  -30.6570  -18.5130   19.3130 C   0  0  0  0  0  3  0  0  0  0  0  0
  -28.8130  -18.5700   20.7720 C   0  0  0  0  0  3  0  0  0  0  0  0
  -29.8090  -17.7250   20.1560 C   0  0  0  0  0  0  0  0  0  0  0  0
  -29.4920  -20.7840   19.7060 C   0  0  0  0  0  0  0  0  0  0  0  0
  -30.4980  -19.9440   19.0970 C   0  0  0  0  0  0  0  0  0  0  0  0
  -28.6600  -20.0070   20.5780 C   0  0  0  0  0  0  0  0  0  0  0  0
  -31.3640  -20.5360   18.2380 F   0  0  0  0  0  0  0  0  0  0  0  0
  -27.6530  -20.6360   21.2330 F   0  0  0  0  0  0  0  0  0  0  0  0
  -30.6360  -15.0830   20.0470 C   0  0  0  0  0  0  0  0  0  0  0  0
  -30.5190  -12.7180   19.1430 C   0  0  0  0  0  2  0  0  0  0  0  0
  -29.5520  -12.6820   17.9350 C   0  0  0  0  0  2  0  0  0  0  0  0
  -28.0970  -12.4850   18.4010 C   0  0  0  0  0  2  0  0  0  0  0  0
  -27.7260  -13.4160   19.5850 C   0  0  0  0  0  3  0  0  0  0  0  0
  -28.8080  -13.4080   20.6870 C   0  0  0  0  0  2  0  0  0  0  0  0
  -30.0740  -13.8080   20.0560 N   0  0  0  0  0  0  0  0  0  0  0  0
  -31.8040  -15.1940   19.6590 O   0  0  0  0  0  0  0  0  0  0  0  0
  -29.8180  -16.1990   20.3530 N   0  0  0  0  0  0  0  0  0  0  0  0
  -28.9670  -15.8690   20.7840 H   0  0  0  0  0  0  0  0  0  0  0  0
  -25.3690  -14.0170   20.3850 C   0  0  0  0  0  0  0  0  0  0  0  0
  -24.3080  -13.2500   20.7820 C   0  0  0  0  0  0  0  0  0  0  0  0
  -24.7590  -11.8950   20.7320 C   0  0  0  0  0  0  0  0  0  0  0  0
  -26.3970  -13.1300   20.1140 N   0  0  0  0  0  0  0  0  0  0  0  0
  -26.0400  -11.8480   20.3870 N   0  0  0  0  0  0  0  0  0  0  0  0
  -24.0250  -10.6380   20.9360 C   0  0  0  0  0  0  0  0  0  0  0  0
  -24.4590   -9.6730   21.8720 C   0  0  0  0  0  3  0  0  0  0  0  0
  -23.7260   -8.4830   22.0640 C   0  0  0  0  0  3  0  0  0  0  0  0
  -22.5440   -8.2480   21.3230 C   0  0  0  0  0  0  0  0  0  0  0  0
  -22.1280   -9.2030   20.3760 C   0  0  0  0  0  3  0  0  0  0  0  0
  -22.8620  -10.3850   20.1820 C   0  0  0  0  0  3  0  0  0  0  0  0
  -21.7810   -7.1100   21.4240 O   0  0  0  0  0  0  0  0  0  0  0  0
  -21.7350   -6.3760   22.5830 C   0  0  0  0  0  0  0  0  0  0  0  0
  -21.2940   -6.9370   23.8010 C   0  0  0  0  0  3  0  0  0  0  0  0
  -21.1950   -6.1290   24.9520 C   0  0  0  0  0  3  0  0  0  0  0  0
  -21.5250   -4.7620   24.8850 C   0  0  0  0  0  0  0  0  0  0  0  0
  -21.9590   -4.2010   23.6710 C   0  0  0  0  0  3  0  0  0  0  0  0
  -22.0600   -5.0060   22.5220 C   0  0  0  0  0  0  0  0  0  0  0  0
  -22.4580   -4.4570   21.3500 F   0  0  0  0  0  0  0  0  0  0  0  0
  -21.4230   -3.9850   25.9880 F   0  0  0  0  0  0  0  0  0  0  0  0
  -22.9230  -13.7390   21.0910 C   0  0  0  0  0  0  0  0  0  0  0  0
  -22.2120  -13.0470   21.9740 N   0  0  0  0  0  0  0  0  0  0  0  0
  -22.4820  -14.7700   20.5850 O   0  0  0  0  0  0  0  0  0  0  0  0
  -22.5830  -12.2130   22.4060 H   0  0  0  0  0  0  0  0  0  0  0  0
  -21.2830  -13.3570   22.2250 H   0  0  0  0  0  0  0  0  0  0  0  0
  -25.5400  -15.3870   20.2080 N   0  0  0  0  0  0  0  0  0  0  0  0
  -24.7740  -16.0410   20.3280 H   0  0  0  0  0  0  0  0  0  0  0  0
  -26.3660  -15.8150   19.8120 H   0  0  0  0  0  0  0  0  0  0  0  0
  -29.3980  -22.2060   19.3380 O   0  0  0  0  0  0  0  0  0  0  0  0
  -28.7500  -23.4230   20.0190 C   0  0  0  0  0  2  0  0  0  0  0  0
  -28.5080  -24.8840   19.2020 C   0  0  0  0  0  2  0  0  0  0  0  0
  -28.4500  -26.3510   19.7250 O   0  0  0  0  0  0  0  0  0  0  0  0
  -24.5700  -31.6870   22.9660 C   0  0  0  0  0  0  0  0  0  0  0  0
  -27.3300  -27.2580   19.6730 C   0  0  0  0  0  0  0  0  0  0  0  0
  -23.4200  -30.3320   21.2570 C   0  0  0  0  0  3  0  0  0  0  0  0
  -24.9240  -28.8980   19.7440 C   0  0  0  0  0  0  0  0  0  0  0  0
  -25.9590  -30.7120   21.1010 C   0  0  0  0  0  2  0  0  0  0  0  0
  -26.0850  -29.3620   20.3740 C   0  0  0  0  0  0  0  0  0  0  0  0
  -27.2820  -28.5560   20.3260 C   0  0  0  0  0  3  0  0  0  0  0  0
  -26.1350  -26.8940   19.0120 C   0  0  0  0  0  3  0  0  0  0  0  0
  -24.9610  -27.6790   19.0510 C   0  0  0  0  0  3  0  0  0  0  0  0
  -23.6620  -29.7380   19.8430 C   0  0  0  0  0  2  0  0  0  0  0  0
  -24.6690  -30.9300   21.8300 N   0  0  0  0  0  0  0  0  0  0  0  0
  -23.4770  -31.9000   23.5100 O   0  0  0  0  0  0  0  0  0  0  0  0
  -22.7880  -29.2500   22.1660 C   0  0  0  0  0  0  0  0  0  0  0  0
  -21.4590  -29.0630   22.0650 N   0  0  0  0  0  0  0  0  0  0  0  0
  -23.4940  -28.5810   22.9260 O   0  0  0  0  0  0  0  0  0  0  0  0
  -20.9450  -29.6570   21.4300 H   0  0  0  0  0  0  0  0  0  0  0  0
  -18.1060  -27.8140   22.6270 C   0  0  0  0  0  0  0  0  0  0  0  0
  -20.6750  -28.0620   22.7920 C   0  0  0  0  0  3  0  0  0  0  0  0
  -20.7490  -26.6830   22.0950 C   0  0  0  0  0  2  0  0  0  0  0  0
  -19.5990  -26.4430   21.1110 C   0  0  0  0  0  2  0  0  0  0  0  0
  -18.2500  -26.5280   21.8310 C   0  0  0  0  0  2  0  0  0  0  0  0
  -19.2450  -28.5420   23.0660 C   0  0  0  0  0  0  0  0  0  0  0  0
  -19.0540  -29.7470   23.7750 C   0  0  0  0  0  3  0  0  0  0  0  0
  -17.7580  -30.2250   24.0490 C   0  0  0  0  0  3  0  0  0  0  0  0
  -16.6360  -29.4930   23.6240 C   0  0  0  0  0  3  0  0  0  0  0  0
  -16.8110  -28.2890   22.9200 C   0  0  0  0  0  3  0  0  0  0  0  0
  -25.8250  -32.3410   23.6230 C   0  0  0  0  0  3  0  0  0  0  0  0
  -26.3650  -31.5320   24.8670 C   0  0  1  0  0  0  0  0  0  0  0  0
  -25.2790  -31.2160   25.9230 C   0  0  0  0  0  1  0  0  0  0  0  0
  -26.9920  -30.1910   24.4230 C   0  0  0  0  0  1  0  0  0  0  0  0
  -27.4900  -32.3340   25.5630 C   0  0  0  0  0  1  0  0  0  0  0  0
  -25.4610  -33.7100   24.0190 N   0  0  0  0  0  0  0  0  0  0  0  0
  -25.7740  -34.8150   23.3310 C   0  0  0  0  0  0  0  0  0  0  0  0
  -26.4660  -34.7900   22.3090 O   0  0  0  0  0  0  0  0  0  0  0  0
  -24.8460  -33.8000   24.8150 H   0  0  0  0  0  0  0  0  0  0  0  0
  -24.0100  -36.5860   23.0330 C   0  0  0  0  0  1  0  0  0  0  0  0
  -25.2370  -36.1610   23.8570 C   0  0  0  0  0  3  0  0  0  0  0  0
  -27.3160  -37.0530   24.8120 C   0  0  0  0  0  1  0  0  0  0  0  0
  -26.2440  -37.2450   23.8390 N   0  0  0  0  0  0  0  0  0  0  0  0
  -25.8070  -38.1450   24.0200 H   0  0  0  0  0  0  0  0  0  0  0  0
  1  3  1  0
  3 17  1  0
  3  2  2  0
  4  6  2  0
  5  1  2  0
  5  4  1  0
  6  2  1  0
  6  8  1  0
  7  5  1  0
  9 15  1  0
  9 17  1  0
 10 15  1  0
 11 12  1  0
 11 10  1  0
 13 12  1  0
 13 22  1  0
 13 14  1  0
 15 14  1  0
 16  9  2  0
 17 18  1  0
 19 20  2  0
 20 39  1  0
 21 20  1  0
 21 24  1  0
 22 19  1  0
 22 23  1  0
 23 21  2  0
 24 25  1  0
 25 26  2  0
 27 30  1  0
 27 26  1  0
 28 27  2  0
 29 28  1  0
 29 24  2  0
 30 31  1  0
 31 32  1  0
 32 33  2  0
 34 33  1  0
 34 38  1  0
 35 34  2  0
 36 31  2  0
 36 35  1  0
 37 36  1  0
 39 40  1  0
 40 43  1  0
 40 42  1  0
 41 39  2  0
 44 45  1  0
 44 19  1  0
 46 44  1  0
 47  4  1  0
 47 48  1  0
 49 50  1  0
 49 48  1  0
 51 62  2  0
 52 50  1  0
 52 57  1  0
 53 61  1  0
 53 63  1  0
 54 60  1  0
 54 56  1  0
 55 61  1  0
 56 55  1  0
 57 56  2  0
 58 59  1  0
 58 52  2  0
 59 54  2  0
 60 53  1  0
 61 51  1  0
 63 65  2  0
 64 63  1  0
 66 64  1  0
 67 76  2  0
 67 72  1  0
 68 64  1  0
 68 72  1  0
 69 68  1  0
 70 71  1  0
 70 69  1  0
 71 67  1  0
 72 73  2  0
 73 74  1  0
 75 74  2  0
 76 75  1  0
 77 51  1  0
 77 82  1  0
 77 78  1  0
 78 81  1  1
 78 79  1  0
 80 78  1  0
 82 85  1  0
 83 87  1  0
 83 82  1  0
 84 83  2  0
 87 86  1  0
 89 87  1  0
 89 90  1  0
 89 88  1  0
M  ISO  4   9 100  17 100  49 101  50 101
M  END
>  <TORSDO>  (89) 
F 19

>  <SCORE>  (89) 
-13.523

>  <name>  (89) 
88

>  <ligand_id>  (89) 
88

>  <original_smiles>  (89) 
[H]c1c([H])c([H])c2c(c1[H])C([H])([H])C([H])([H])C([H])([H])C2([H])N([H])C(=O)C1([H])N(C(=O)C([H])(N([H])C(=O)C([H])(N([H])C([H])([H])[H])C([H])([H])[H])C(C([H])([H])[H])(C([H])([H])[H])C([H])([H])[H])C([H])([H])c2c([H])c(OC([H])([H])C([H])([H])Oc3c(F)c([H])c(N([H])C(=O)N4C([H])([H])C([H])([H])C([H])([H])C([H])(n5nc(-c6c([H])c([H])c(Oc7c([H])c([H])c(F)c([H])c7F)c([H])c6[H])c(C(=O)N([H])[H])c5N([H])[H])C4([H])[H])c([H])c3F)c([H])c([H])c2C1([H])[H]

>  <smiles>  (89) 
[H]c1c([H])c([H])c2c(c1[H])C([H])([H])C([H])([H])C([H])([H])C2([H])N([H])C(=O)C1([H])N(C(=O)C([H])(N([H])C(=O)C([H])(N([H])C([H])([H])[H])C([H])([H])[H])C(C([H])([H])[H])(C([H])([H])[H])C([H])([H])[H])C([H])([H])c2c([H])c(OC([H])([H])C([H])([H])Oc3c(F)c([H])c(N([H])C(=O)N4C([H])([H])C([H])([H])C([H])([H])C([H])(n5nc(-c6c([H])c([H])c(Oc7c([H])c([H])c(F)c([H])c7F)c([H])c6[H])c(C(=O)N([H])[H])c5N([H])[H])C4([H])[H])c([H])c3F)c([H])c([H])c2C1([H])[H]

$$$$
89:0:0
     RDKit          3D

 92100  0  0  1  0  0  0  0  0999 V2000
  -28.4160  -19.5880   20.3650 C   0  0  0  0  0  3  0  0  0  0  0  0
  -30.9430  -18.4470   20.1940 C   0  0  0  0  0  3  0  0  0  0  0  0
  -29.4580  -20.5450   20.1480 C   0  0  0  0  0  0  0  0  0  0  0  0
  -29.8780  -17.4980   20.3510 C   0  0  0  0  0  0  0  0  0  0  0  0
  -28.6010  -18.1420   20.4550 C   0  0  0  0  0  0  0  0  0  0  0  0
  -30.7480  -19.8900   20.0940 C   0  0  0  0  0  0  0  0  0  0  0  0
  -32.1630  -20.8510   19.8270 Cl  0  0  0  0  0  0  0  0  0  0  0  0
  -30.6840  -14.8870   19.9130 C   0  0  0  0  0  0  0  0  0  0  0  0
  -30.4520  -12.6200   18.8160 C   0  0  0  0  0  2  0  0  0  0  0  0
  -29.4240  -12.7240   17.6620 C   0  0  0  0  0  2  0  0  0  0  0  0
  -27.9840  -12.5320   18.1810 C   0  0  0  0  0  2  0  0  0  0  0  0
  -27.7050  -13.3450   19.4730 C   0  0  0  0  0  3  0  0  0  0  0  0
  -28.8490  -13.2090   20.5060 C   0  0  0  0  0  2  0  0  0  0  0  0
  -30.0900  -13.6330   19.8420 N   0  0  0  0  0  0  0  0  0  0  0  0
  -31.8330  -15.0190   19.4700 O   0  0  0  0  0  0  0  0  0  0  0  0
  -29.9030  -15.9710   20.3590 N   0  0  0  0  0  0  0  0  0  0  0  0
  -29.0640  -15.6120   20.7880 H   0  0  0  0  0  0  0  0  0  0  0  0
  -25.3750  -13.9030   20.3780 C   0  0  0  0  0  0  0  0  0  0  0  0
  -24.3360  -13.1160   20.7960 C   0  0  0  0  0  0  0  0  0  0  0  0
  -24.8000  -11.7670   20.7050 C   0  0  0  0  0  0  0  0  0  0  0  0
  -26.4010  -13.0340   20.0480 N   0  0  0  0  0  0  0  0  0  0  0  0
  -26.0680  -11.7440   20.3090 N   0  0  0  0  0  0  0  0  0  0  0  0
  -24.0910  -10.4990   20.9180 C   0  0  0  0  0  0  0  0  0  0  0  0
  -24.5390   -9.5480   21.8610 C   0  0  0  0  0  3  0  0  0  0  0  0
  -23.8260   -8.3460   22.0610 C   0  0  0  0  0  3  0  0  0  0  0  0
  -22.6500   -8.0870   21.3160 C   0  0  0  0  0  0  0  0  0  0  0  0
  -22.2190   -9.0280   20.3650 C   0  0  0  0  0  3  0  0  0  0  0  0
  -22.9340  -10.2210   20.1630 C   0  0  0  0  0  3  0  0  0  0  0  0
  -21.9050   -6.9370   21.4260 O   0  0  0  0  0  0  0  0  0  0  0  0
  -21.8080   -6.2560   22.6120 C   0  0  0  0  0  0  0  0  0  0  0  0
  -21.3060   -6.8650   23.7840 C   0  0  0  0  0  3  0  0  0  0  0  0
  -21.1500   -6.1050   24.9600 C   0  0  0  0  0  3  0  0  0  0  0  0
  -21.4920   -4.7400   24.9680 C   0  0  0  0  0  0  0  0  0  0  0  0
  -21.9910   -4.1310   23.8030 C   0  0  0  0  0  3  0  0  0  0  0  0
  -22.1470   -4.8880   22.6280 C   0  0  0  0  0  0  0  0  0  0  0  0
  -22.6060   -4.2900   21.5010 F   0  0  0  0  0  0  0  0  0  0  0  0
  -21.3400   -4.0100   26.0970 F   0  0  0  0  0  0  0  0  0  0  0  0
  -22.9580  -13.5870   21.1660 C   0  0  0  0  0  0  0  0  0  0  0  0
  -22.2990  -12.8980   22.0900 N   0  0  0  0  0  0  0  0  0  0  0  0
  -22.4790  -14.6070   20.6740 O   0  0  0  0  0  0  0  0  0  0  0  0
  -22.6990  -12.0750   22.5170 H   0  0  0  0  0  0  0  0  0  0  0  0
  -21.3820  -13.2050   22.3790 H   0  0  0  0  0  0  0  0  0  0  0  0
  -25.5220  -15.2790   20.2370 N   0  0  0  0  0  0  0  0  0  0  0  0
  -24.7680  -15.9210   20.4590 H   0  0  0  0  0  0  0  0  0  0  0  0
  -26.3790  -15.7570   19.9800 H   0  0  0  0  0  0  0  0  0  0  0  0
  -29.3380  -22.0650   18.2930 C   0  0  0  0  0  1  0  0  0  0  0  0
  -29.1610  -21.9530   19.7400 N   0  0  0  0  0  0  0  0  0  0  0  0
  -29.2670  -23.3300   20.4600 C   0  0  0  0  0  3  0  0  0  0  0  0
  -28.3650  -24.6660   19.9550 C   0  0  0  0  0  3  0  0  0  0  0  0
  -28.5470  -26.1690   20.2970 O   0  0  0  0  0  0  0  0  0  0  0  0
  -24.5650  -31.6640   23.0830 C   0  0  0  0  0  0  0  0  0  0  0  0
  -27.4640  -27.1080   20.1560 C   0  0  0  0  0  0  0  0  0  0  0  0
  -23.5030  -30.2630   21.3540 C   0  0  0  0  0  3  0  0  0  0  0  0
  -25.0810  -28.7600   19.9980 C   0  0  0  0  0  0  0  0  0  0  0  0
  -26.0470  -30.6270   21.3280 C   0  0  0  0  0  2  0  0  0  0  0  0
  -26.2080  -29.2470   20.6740 C   0  0  0  0  0  0  0  0  0  0  0  0
  -27.4020  -28.4380   20.7340 C   0  0  0  0  0  3  0  0  0  0  0  0
  -26.3110  -26.7230   19.4350 C   0  0  0  0  0  3  0  0  0  0  0  0
  -25.1430  -27.5120   19.3660 C   0  0  0  0  0  3  0  0  0  0  0  0
  -23.8250  -29.6130   19.9810 C   0  0  0  0  0  2  0  0  0  0  0  0
  -24.7210  -30.8720   21.9790 N   0  0  0  0  0  0  0  0  0  0  0  0
  -23.4460  -31.8990   23.5590 O   0  0  0  0  0  0  0  0  0  0  0  0
  -22.8070  -29.2170   22.2590 C   0  0  0  0  0  0  0  0  0  0  0  0
  -21.4850  -29.0360   22.0810 N   0  0  0  0  0  0  0  0  0  0  0  0
  -23.4580  -28.5730   23.0830 O   0  0  0  0  0  0  0  0  0  0  0  0
  -21.0130  -29.6090   21.3960 H   0  0  0  0  0  0  0  0  0  0  0  0
  -18.0930  -27.8400   22.4840 C   0  0  0  0  0  0  0  0  0  0  0  0
  -20.6520  -28.0660   22.7960 C   0  0  0  0  0  3  0  0  0  0  0  0
  -20.7470  -26.6610   22.1530 C   0  0  0  0  0  2  0  0  0  0  0  0
  -19.6560  -26.4000   21.1110 C   0  0  0  0  0  2  0  0  0  0  0  0
  -18.2670  -26.5240   21.7440 C   0  0  0  0  0  2  0  0  0  0  0  0
  -19.2130  -28.5700   22.9670 C   0  0  0  0  0  0  0  0  0  0  0  0
  -18.9940  -29.8040   23.6190 C   0  0  0  0  0  3  0  0  0  0  0  0
  -17.6900  -30.3020   23.7970 C   0  0  0  0  0  3  0  0  0  0  0  0
  -16.5860  -29.5680   23.3310 C   0  0  0  0  0  3  0  0  0  0  0  0
  -16.7880  -28.3410   22.6770 C   0  0  0  0  0  3  0  0  0  0  0  0
  -25.7860  -32.3270   23.7890 C   0  0  0  0  0  3  0  0  0  0  0  0
  -26.2640  -31.5400   25.0720 C   0  0  1  0  0  0  0  0  0  0  0  0
  -25.1230  -31.2240   26.0660 C   0  0  0  0  0  1  0  0  0  0  0  0
  -26.9290  -30.2000   24.6770 C   0  0  0  0  0  1  0  0  0  0  0  0
  -27.3330  -32.3630   25.8260 C   0  0  0  0  0  1  0  0  0  0  0  0
  -25.4050  -33.7040   24.1420 N   0  0  0  0  0  0  0  0  0  0  0  0
  -25.7220  -34.7900   23.4250 C   0  0  0  0  0  0  0  0  0  0  0  0
  -26.4310  -34.7420   22.4160 O   0  0  0  0  0  0  0  0  0  0  0  0
  -24.7760  -33.8130   24.9230 H   0  0  0  0  0  0  0  0  0  0  0  0
  -23.9320  -36.5240   23.0730 C   0  0  0  0  0  1  0  0  0  0  0  0
  -25.1680  -36.1460   23.9040 C   0  0  0  0  0  3  0  0  0  0  0  0
  -27.2370  -37.1070   24.8150 C   0  0  0  0  0  1  0  0  0  0  0  0
  -26.1560  -37.2450   23.8430 N   0  0  0  0  0  0  0  0  0  0  0  0
  -25.7040  -38.1400   24.0000 H   0  0  0  0  0  0  0  0  0  0  0  0
  -26.2160  -17.7010   20.3830 C   0  0  0  0  0  1  0  0  0  0  0  0
  -27.5490  -17.2570   20.6040 O   0  0  0  0  0  0  0  0  0  0  0  0
  1  5  1  0
  2  4  1  0
  3  1  2  0
  4 16  1  0
  4  5  2  0
  5 92  1  0
  6  3  1  0
  6  2  2  0
  7  6  1  0
  8 16  1  0
  9 14  1  0
 10 11  1  0
 10  9  1  0
 12 11  1  0
 12 21  1  0
 12 13  1  0
 14  8  1  0
 14 13  1  0
 15  8  2  0
 16 17  1  0
 18 19  2  0
 19 38  1  0
 20 19  1  0
 20 23  1  0
 21 22  1  0
 21 18  1  0
 22 20  2  0
 23 24  1  0
 24 25  2  0
 26 29  1  0
 26 25  1  0
 27 26  2  0
 28 27  1  0
 28 23  2  0
 29 30  1  0
 30 35  2  0
 30 31  1  0
 31 32  2  0
 32 33  1  0
 33 37  1  0
 34 33  2  0
 35 34  1  0
 36 35  1  0
 38 39  1  0
 39 42  1  0
 39 41  1  0
 40 38  2  0
 43 18  1  0
 43 44  1  0
 45 43  1  0
 46 47  1  0
 47  3  1  0
 47 48  1  0
 49 50  1  0
 49 48  2  0
 51 62  2  0
 52 50  1  0
 52 57  1  0
 53 61  1  0
 53 63  1  0
 54 56  1  0
 55 61  1  0
 56 57  2  0
 56 55  1  0
 58 52  2  0
 59 58  1  0
 59 54  2  0
 60 54  1  0
 60 53  1  0
 61 51  1  0
 63 65  2  0
 64 63  1  0
 66 64  1  0
 67 76  2  0
 67 72  1  0
 68 64  1  0
 68 72  1  0
 69 68  1  0
 70 71  1  0
 70 69  1  0
 71 67  1  0
 72 73  2  0
 73 74  1  0
 75 74  2  0
 76 75  1  0
 77 51  1  0
 77 82  1  0
 77 78  1  0
 78 81  1  1
 78 79  1  0
 80 78  1  0
 82 85  1  0
 83 87  1  0
 83 82  1  0
 84 83  2  0
 87 86  1  0
 89 87  1  0
 89 90  1  0
 89 88  1  0
 91 92  1  0
M  ISO  4   8 100  16 100  49 101  50 101
M  END
>  <TORSDO>  (90) 
F 20

>  <SCORE>  (90) 
-13.253

>  <name>  (90) 
89

>  <ligand_id>  (90) 
89

>  <original_smiles>  (90) 
[H]c1c([H])c([H])c2c(c1[H])C([H])([H])C([H])([H])C([H])([H])C2([H])N([H])C(=O)C1([H])N(C(=O)C([H])(N([H])C(=O)C([H])(N([H])C([H])([H])[H])C([H])([H])[H])C(C([H])([H])[H])(C([H])([H])[H])C([H])([H])[H])C([H])([H])c2c([H])c(OC([H])([H])C([H])([H])N(c3c([H])c(OC([H])([H])[H])c(N([H])C(=O)N4C([H])([H])C([H])([H])C([H])([H])C([H])(n5nc(-c6c([H])c([H])c(Oc7c([H])c([H])c(F)c([H])c7F)c([H])c6[H])c(C(=O)N([H])[H])c5N([H])[H])C4([H])[H])c([H])c3Cl)C([H])([H])[H])c([H])c([H])c2C1([H])[H]

>  <smiles>  (90) 
[H]c1c([H])c([H])c2c(c1[H])C([H])([H])C([H])([H])C([H])([H])C2([H])N([H])C(=O)C1([H])N(C(=O)C([H])(N([H])C(=O)C([H])(N([H])C([H])([H])[H])C([H])([H])[H])C(C([H])([H])[H])(C([H])([H])[H])C([H])([H])[H])C([H])([H])c2c([H])c(OC([H])([H])C([H])([H])N(c3c([H])c(OC([H])([H])[H])c(N([H])C(=O)N4C([H])([H])C([H])([H])C([H])([H])C([H])(n5nc(-c6c([H])c([H])c(Oc7c([H])c([H])c(F)c([H])c7F)c([H])c6[H])c(C(=O)N([H])[H])c5N([H])[H])C4([H])[H])c([H])c3Cl)C([H])([H])[H])c([H])c([H])c2C1([H])[H]

$$$$
90:0:0
     RDKit          3D

 95103  0  0  1  0  0  0  0  0999 V2000
  -28.7420  -19.9270   18.8170 C   0  0  0  0  0  3  0  0  0  0  0  0
  -30.2500  -20.4800   20.5280 C   0  0  0  0  0  3  0  0  0  0  0  0
  -29.0270  -18.5150   18.9910 C   0  0  0  0  0  0  0  0  0  0  0  0
  -30.5590  -19.0560   20.7530 C   0  0  0  0  0  0  0  0  0  0  0  0
  -29.3130  -21.0000   19.5750 C   0  0  0  0  0  0  0  0  0  0  0  0
  -29.9400  -17.9860   19.9680 C   0  0  0  0  0  0  0  0  0  0  0  0
  -28.2650  -17.5340   18.1160 C   0  0  0  0  0  1  0  0  0  0  0  0
  -30.7960  -15.3550   20.0810 C   0  0  0  0  0  0  0  0  0  0  0  0
  -30.7570  -12.9280   19.3520 C   0  0  0  0  0  2  0  0  0  0  0  0
  -29.8360  -12.7740   18.1200 C   0  0  0  0  0  2  0  0  0  0  0  0
  -28.3710  -12.5710   18.5520 C   0  0  0  0  0  2  0  0  0  0  0  0
  -27.9360  -13.5760   19.6500 C   0  0  0  0  0  3  0  0  0  0  0  0
  -28.9810  -13.6870   20.7840 C   0  0  0  0  0  2  0  0  0  0  0  0
  -30.2550  -14.0730   20.1630 N   0  0  0  0  0  0  0  0  0  0  0  0
  -31.9740  -15.4560   19.7200 O   0  0  0  0  0  0  0  0  0  0  0  0
  -29.9560  -16.4790   20.2850 N   0  0  0  0  0  0  0  0  0  0  0  0
  -29.0620  -16.1670   20.6310 H   0  0  0  0  0  0  0  0  0  0  0  0
  -25.5870  -14.1850   20.4710 C   0  0  0  0  0  0  0  0  0  0  0  0
  -24.5070  -13.4220   20.8200 C   0  0  0  0  0  0  0  0  0  0  0  0
  -24.9280  -12.0620   20.6990 C   0  0  0  0  0  0  0  0  0  0  0  0
  -26.5980  -13.2910   20.1570 N   0  0  0  0  0  0  0  0  0  0  0  0
  -26.2100  -12.0050   20.3570 N   0  0  0  0  0  0  0  0  0  0  0  0
  -24.1650  -10.8140   20.8320 C   0  0  0  0  0  0  0  0  0  0  0  0
  -24.5190   -9.8270   21.7790 C   0  0  0  0  0  3  0  0  0  0  0  0
  -23.7570   -8.6450   21.9010 C   0  0  0  0  0  3  0  0  0  0  0  0
  -22.6270   -8.4410   21.0750 C   0  0  0  0  0  0  0  0  0  0  0  0
  -22.2920   -9.4140   20.1180 C   0  0  0  0  0  3  0  0  0  0  0  0
  -23.0550  -10.5880   19.9940 C   0  0  0  0  0  3  0  0  0  0  0  0
  -21.8430   -7.3110   21.1050 O   0  0  0  0  0  0  0  0  0  0  0  0
  -21.5700   -6.6570   22.2790 C   0  0  0  0  0  0  0  0  0  0  0  0
  -20.9090   -7.2940   23.3520 C   0  0  0  0  0  3  0  0  0  0  0  0
  -20.5850   -6.5640   24.5120 C   0  0  0  0  0  3  0  0  0  0  0  0
  -20.9110   -5.1980   24.6000 C   0  0  0  0  0  0  0  0  0  0  0  0
  -21.5650   -4.5600   23.5310 C   0  0  0  0  0  3  0  0  0  0  0  0
  -21.8890   -5.2870   22.3720 C   0  0  0  0  0  0  0  0  0  0  0  0
  -22.5000   -4.6620   21.3370 F   0  0  0  0  0  0  0  0  0  0  0  0
  -20.5940   -4.4950   25.7130 F   0  0  0  0  0  0  0  0  0  0  0  0
  -23.1320  -13.9240   21.1500 C   0  0  0  0  0  0  0  0  0  0  0  0
  -22.4080  -13.2120   22.0050 N   0  0  0  0  0  0  0  0  0  0  0  0
  -22.7100  -14.9840   20.6860 O   0  0  0  0  0  0  0  0  0  0  0  0
  -22.7620  -12.3550   22.4020 H   0  0  0  0  0  0  0  0  0  0  0  0
  -21.4850  -13.5300   22.2670 H   0  0  0  0  0  0  0  0  0  0  0  0
  -25.7880  -15.5580   20.3690 N   0  0  0  0  0  0  0  0  0  0  0  0
  -25.0390  -16.2220   20.5360 H   0  0  0  0  0  0  0  0  0  0  0  0
  -26.6330  -15.9970   20.0270 H   0  0  0  0  0  0  0  0  0  0  0  0
  -32.0330  -19.9380   22.7070 C   0  0  0  0  0  1  0  0  0  0  0  0
  -32.8410  -18.0730   21.3250 C   0  0  0  0  0  1  0  0  0  0  0  0
  -30.9060  -17.7570   22.9280 C   0  0  0  0  0  1  0  0  0  0  0  0
  -31.5570  -18.7060   21.8980 C   0  0  2  0  0  0  0  0  0  0  0  0
  -29.1090  -23.7570   19.8350 C   0  0  0  0  0  0  0  0  0  0  0  0
  -28.8270  -22.4450   19.3730 N   0  0  0  0  0  0  0  0  0  0  0  0
  -30.0700  -23.9530   20.5840 O   0  0  0  0  0  0  0  0  0  0  0  0
  -28.0700  -22.4900   18.7040 H   0  0  0  0  0  0  0  0  0  0  0  0
  -28.1670  -25.0580   19.4140 C   0  0  0  0  0  2  0  0  0  0  0  0
  -28.3960  -26.5290   19.8810 O   0  0  0  0  0  0  0  0  0  0  0  0
  -24.6060  -31.9340   23.1630 C   0  0  0  0  0  0  0  0  0  0  0  0
  -27.3210  -27.4950   19.8500 C   0  0  0  0  0  0  0  0  0  0  0  0
  -23.4460  -30.6020   21.4450 C   0  0  0  0  0  3  0  0  0  0  0  0
  -24.9390  -29.1670   19.9230 C   0  0  0  0  0  0  0  0  0  0  0  0
  -25.9910  -30.9550   21.2950 C   0  0  0  0  0  2  0  0  0  0  0  0
  -26.1040  -29.6080   20.5610 C   0  0  0  0  0  0  0  0  0  0  0  0
  -27.2940  -28.7880   20.5140 C   0  0  0  0  0  3  0  0  0  0  0  0
  -26.1280  -27.1680   19.1640 C   0  0  0  0  0  3  0  0  0  0  0  0
  -24.9630  -27.9610   19.2100 C   0  0  0  0  0  3  0  0  0  0  0  0
  -23.6840  -30.0190   20.0270 C   0  0  0  0  0  2  0  0  0  0  0  0
  -24.7010  -31.1820   22.0240 N   0  0  0  0  0  0  0  0  0  0  0  0
  -23.5130  -32.1540   23.7070 O   0  0  0  0  0  0  0  0  0  0  0  0
  -22.8010  -29.5190   22.3440 C   0  0  0  0  0  0  0  0  0  0  0  0
  -21.4730  -29.3400   22.2330 N   0  0  0  0  0  0  0  0  0  0  0  0
  -23.4980  -28.8440   23.1070 O   0  0  0  0  0  0  0  0  0  0  0  0
  -20.9660  -29.9380   21.5950 H   0  0  0  0  0  0  0  0  0  0  0  0
  -18.1090  -28.1040   22.7660 C   0  0  0  0  0  0  0  0  0  0  0  0
  -20.6780  -28.3400   22.9520 C   0  0  0  0  0  3  0  0  0  0  0  0
  -20.7510  -26.9630   22.2520 C   0  0  0  0  0  2  0  0  0  0  0  0
  -19.6070  -26.7300   21.2580 C   0  0  0  0  0  2  0  0  0  0  0  0
  -18.2540  -26.8180   21.9670 C   0  0  0  0  0  2  0  0  0  0  0  0
  -19.2470  -28.8260   23.2140 C   0  0  0  0  0  0  0  0  0  0  0  0
  -19.0560  -30.0300   23.9260 C   0  0  0  0  0  3  0  0  0  0  0  0
  -17.7610  -30.5130   24.1900 C   0  0  0  0  0  3  0  0  0  0  0  0
  -16.6380  -29.7870   23.7540 C   0  0  0  0  0  3  0  0  0  0  0  0
  -16.8130  -28.5830   23.0490 C   0  0  0  0  0  3  0  0  0  0  0  0
  -25.8670  -32.5690   23.8260 C   0  0  0  0  0  3  0  0  0  0  0  0
  -26.3450  -31.7960   25.1160 C   0  0  1  0  0  0  0  0  0  0  0  0
  -25.2200  -31.5550   26.1490 C   0  0  0  0  0  1  0  0  0  0  0  0
  -26.9420  -30.4190   24.7430 C   0  0  0  0  0  1  0  0  0  0  0  0
  -27.4740  -32.5910   25.8150 C   0  0  0  0  0  1  0  0  0  0  0  0
  -25.5420  -33.9660   24.1560 N   0  0  0  0  0  0  0  0  0  0  0  0
  -25.8570  -35.0250   23.3980 C   0  0  0  0  0  0  0  0  0  0  0  0
  -26.5200  -34.9290   22.3620 O   0  0  0  0  0  0  0  0  0  0  0  0
  -24.9510  -34.1140   24.9610 H   0  0  0  0  0  0  0  0  0  0  0  0
  -24.1040  -36.8020   23.0710 C   0  0  0  0  0  1  0  0  0  0  0  0
  -25.3620  -36.4090   23.8630 C   0  0  0  0  0  3  0  0  0  0  0  0
  -27.4930  -37.3280   24.6690 C   0  0  0  0  0  1  0  0  0  0  0  0
  -26.3820  -37.4730   23.7330 N   0  0  0  0  0  0  0  0  0  0  0  0
  -25.9650  -38.3900   23.8750 H   0  0  0  0  0  0  0  0  0  0  0  0
  1  3  2  0
  1  5  1  0
  2  4  1  0
  3  6  1  0
  4 49  1  0
  5  2  2  0
  6 16  1  0
  6  4  2  0
  7  3  1  0
  8 14  1  0
  8 16  1  0
  9 14  1  0
 10 11  1  0
 10  9  1  0
 12 11  1  0
 12 21  1  0
 12 13  1  0
 14 13  1  0
 15  8  2  0
 16 17  1  0
 18 19  2  0
 19 38  1  0
 20 19  1  0
 20 23  1  0
 21 22  1  0
 21 18  1  0
 22 20  2  0
 23 24  1  0
 24 25  2  0
 26 29  1  0
 26 25  1  0
 27 26  2  0
 28 27  1  0
 28 23  2  0
 29 30  1  0
 30 35  2  0
 30 31  1  0
 31 32  2  0
 32 33  1  0
 33 37  1  0
 34 33  2  0
 35 34  1  0
 36 35  1  0
 38 39  1  0
 39 42  1  0
 39 41  1  0
 40 38  2  0
 43 18  1  0
 43 44  1  0
 45 43  1  0
 49 47  1  6
 49 46  1  0
 49 48  1  0
 50 52  2  0
 51  5  1  0
 51 50  1  0
 53 51  1  0
 54 50  1  0
 54 55  1  0
 56 67  2  0
 57 55  1  0
 57 62  1  0
 58 66  1  0
 58 68  1  0
 59 65  1  0
 59 61  1  0
 60 66  1  0
 61 60  1  0
 62 61  2  0
 63 64  1  0
 63 57  2  0
 64 59  2  0
 65 58  1  0
 66 56  1  0
 68 70  2  0
 69 68  1  0
 71 69  1  0
 72 81  2  0
 72 77  1  0
 73 69  1  0
 73 77  1  0
 74 73  1  0
 75 76  1  0
 75 74  1  0
 76 72  1  0
 77 78  2  0
 78 79  1  0
 80 79  2  0
 81 80  1  0
 82 56  1  0
 82 87  1  0
 82 83  1  0
 83 86  1  1
 83 84  1  0
 85 83  1  0
 87 90  1  0
 88 92  1  0
 88 87  1  0
 89 88  2  0
 92 91  1  0
 94 92  1  0
 94 95  1  0
 94 93  1  0
M  ISO  4   8 100  16 100  54 101  55 101
M  END
>  <TORSDO>  (91) 
F 19

>  <SCORE>  (91) 
-13.034

>  <name>  (91) 
90

>  <ligand_id>  (91) 
90

>  <original_smiles>  (91) 
[H]c1c([H])c([H])c2c(c1[H])C([H])([H])C([H])([H])C([H])([H])C2([H])N([H])C(=O)C1([H])N(C(=O)C([H])(N([H])C(=O)C([H])(N([H])C([H])([H])[H])C([H])([H])[H])C(C([H])([H])[H])(C([H])([H])[H])C([H])([H])[H])C([H])([H])c2c([H])c(OC([H])([H])C(=O)N([H])c3c([H])c(C([H])([H])[H])c(N([H])C(=O)N4C([H])([H])C([H])([H])C([H])([H])C([H])(n5nc(-c6c([H])c([H])c(Oc7c([H])c([H])c(F)c([H])c7F)c([H])c6[H])c(C(=O)N([H])[H])c5N([H])[H])C4([H])[H])c(C(C([H])([H])[H])(C([H])([H])[H])C([H])([H])[H])c3[H])c([H])c([H])c2C1([H])[H]

>  <smiles>  (91) 
[H]c1c([H])c([H])c2c(c1[H])C([H])([H])C([H])([H])C([H])([H])C2([H])N([H])C(=O)C1([H])N(C(=O)C([H])(N([H])C(=O)C([H])(N([H])C([H])([H])[H])C([H])([H])[H])C(C([H])([H])[H])(C([H])([H])[H])C([H])([H])[H])C([H])([H])c2c([H])c(OC([H])([H])C(=O)N([H])c3c([H])c(C([H])([H])[H])c(N([H])C(=O)N4C([H])([H])C([H])([H])C([H])([H])C([H])(n5nc(-c6c([H])c([H])c(Oc7c([H])c([H])c(F)c([H])c7F)c([H])c6[H])c(C(=O)N([H])[H])c5N([H])[H])C4([H])[H])c(C(C([H])([H])[H])(C([H])([H])[H])C([H])([H])[H])c3[H])c([H])c([H])c2C1([H])[H]

$$$$
91:0:0
     RDKit          3D

 94102  0  0  1  0  0  0  0  0999 V2000
  -30.9430  -20.7130   20.7370 C   0  0  0  0  0  3  0  0  0  0  0  0
  -31.3830  -18.2670   20.7470 C   0  0  0  0  0  3  0  0  0  0  0  0
  -29.1580  -19.1300   20.3490 C   0  0  0  0  0  3  0  0  0  0  0  0
  -31.8210  -19.6080   20.8830 C   0  0  0  0  0  0  0  0  0  0  0  0
  -29.5600  -20.5830   20.4640 C   0  0  0  0  0  0  0  0  0  0  0  0
  -30.0460  -17.9130   20.4770 C   0  0  0  0  0  0  0  0  0  0  0  0
  -30.5000  -15.1640   20.3000 C   0  0  0  0  0  0  0  0  0  0  0  0
  -30.4080  -12.7870   19.3620 C   0  0  0  0  0  2  0  0  0  0  0  0
  -29.4590  -12.6670   18.1460 C   0  0  0  0  0  2  0  0  0  0  0  0
  -28.0150  -12.4120   18.6120 C   0  0  0  0  0  2  0  0  0  0  0  0
  -27.5960  -13.3610   19.7640 C   0  0  0  0  0  3  0  0  0  0  0  0
  -28.6640  -13.4430   20.8750 C   0  0  0  0  0  2  0  0  0  0  0  0
  -29.9080  -13.8940   20.2370 N   0  0  0  0  0  0  0  0  0  0  0  0
  -31.7110  -15.1910   20.0490 O   0  0  0  0  0  0  0  0  0  0  0  0
  -29.7240  -16.3820   20.4040 N   0  0  0  0  0  0  0  0  0  0  0  0
  -28.7360  -16.1780   20.4400 H   0  0  0  0  0  0  0  0  0  0  0  0
  -25.2290  -13.9090   20.5540 C   0  0  0  0  0  0  0  0  0  0  0  0
  -24.1790  -13.1230   20.9350 C   0  0  0  0  0  0  0  0  0  0  0  0
  -24.6530  -11.7750   20.8830 C   0  0  0  0  0  0  0  0  0  0  0  0
  -26.2740  -13.0410   20.2880 N   0  0  0  0  0  0  0  0  0  0  0  0
  -25.9390  -11.7530   20.5540 N   0  0  0  0  0  0  0  0  0  0  0  0
  -23.9390  -10.5050   21.0670 C   0  0  0  0  0  0  0  0  0  0  0  0
  -24.3850   -9.5330   21.9890 C   0  0  0  0  0  3  0  0  0  0  0  0
  -23.6680   -8.3290   22.1620 C   0  0  0  0  0  3  0  0  0  0  0  0
  -22.4920   -8.0890   21.4130 C   0  0  0  0  0  0  0  0  0  0  0  0
  -22.0650   -9.0510   20.4800 C   0  0  0  0  0  3  0  0  0  0  0  0
  -22.7830  -10.2460   20.3060 C   0  0  0  0  0  3  0  0  0  0  0  0
  -21.7450   -6.9390   21.4980 O   0  0  0  0  0  0  0  0  0  0  0  0
  -21.7010   -6.1930   22.6480 C   0  0  0  0  0  0  0  0  0  0  0  0
  -21.2430   -6.7320   23.8710 C   0  0  0  0  0  3  0  0  0  0  0  0
  -21.1500   -5.9100   25.0100 C   0  0  0  0  0  3  0  0  0  0  0  0
  -21.5030   -4.5500   24.9310 C   0  0  0  0  0  0  0  0  0  0  0  0
  -21.9520   -4.0100   23.7130 C   0  0  0  0  0  3  0  0  0  0  0  0
  -22.0490   -4.8290   22.5750 C   0  0  0  0  0  0  0  0  0  0  0  0
  -22.4640   -4.2980   21.3990 F   0  0  0  0  0  0  0  0  0  0  0  0
  -21.4050   -3.7580   26.0250 F   0  0  0  0  0  0  0  0  0  0  0  0
  -22.7810  -13.5860   21.2270 C   0  0  0  0  0  0  0  0  0  0  0  0
  -22.0660  -12.8740   22.0910 N   0  0  0  0  0  0  0  0  0  0  0  0
  -22.3320  -14.6140   20.7230 O   0  0  0  0  0  0  0  0  0  0  0  0
  -22.4430  -12.0410   22.5180 H   0  0  0  0  0  0  0  0  0  0  0  0
  -21.1290  -13.1660   22.3270 H   0  0  0  0  0  0  0  0  0  0  0  0
  -25.3760  -15.2830   20.3830 N   0  0  0  0  0  0  0  0  0  0  0  0
  -24.5910  -15.9180   20.4780 H   0  0  0  0  0  0  0  0  0  0  0  0
  -26.1890  -15.7210   19.9720 H   0  0  0  0  0  0  0  0  0  0  0  0
  -33.2960  -19.8390   21.1910 C   0  0  1  0  0  0  0  0  0  0  0  0
  -33.5630  -21.1130   21.4820 F   0  0  0  0  0  0  0  0  0  0  0  0
  -33.6700  -19.0930   22.2310 F   0  0  0  0  0  0  0  0  0  0  0  0
  -34.0300  -19.4860   20.1340 F   0  0  0  0  0  0  0  0  0  0  0  0
  -28.9670  -23.3240   20.4390 C   0  0  0  0  0  0  0  0  0  0  0  0
  -28.7090  -21.8990   20.3330 N   0  0  0  0  0  0  0  0  0  0  0  0
  -30.1090  -23.6960   20.7180 O   0  0  0  0  0  0  0  0  0  0  0  0
  -27.7350  -21.7250   20.1220 H   0  0  0  0  0  0  0  0  0  0  0  0
  -27.8650  -24.5850   20.2320 C   0  0  0  0  0  2  0  0  0  0  0  0
  -28.1970  -26.1370   20.3500 O   0  0  0  0  0  0  0  0  0  0  0  0
  -24.6280  -31.9770   23.2500 C   0  0  0  0  0  0  0  0  0  0  0  0
  -27.1690  -27.1720   20.2690 C   0  0  0  0  0  0  0  0  0  0  0  0
  -23.4200  -30.5750   21.6230 C   0  0  0  0  0  3  0  0  0  0  0  0
  -24.8580  -28.9730   20.2110 C   0  0  0  0  0  0  0  0  0  0  0  0
  -25.9770  -30.8140   21.4510 C   0  0  0  0  0  2  0  0  0  0  0  0
  -26.0440  -29.4050   20.8190 C   0  0  0  0  0  0  0  0  0  0  0  0
  -27.2000  -28.5230   20.8290 C   0  0  0  0  0  3  0  0  0  0  0  0
  -25.9560  -26.8620   19.6120 C   0  0  0  0  0  3  0  0  0  0  0  0
  -24.8320  -27.7170   19.5880 C   0  0  0  0  0  3  0  0  0  0  0  0
  -23.6400  -29.8870   20.2490 C   0  0  0  0  0  2  0  0  0  0  0  0
  -24.6970  -31.1450   22.1640 N   0  0  0  0  0  0  0  0  0  0  0  0
  -23.5430  -32.2710   23.7780 O   0  0  0  0  0  0  0  0  0  0  0  0
  -22.7320  -29.5830   22.5940 C   0  0  0  0  0  0  0  0  0  0  0  0
  -21.4050  -29.4080   22.4570 N   0  0  0  0  0  0  0  0  0  0  0  0
  -23.3950  -28.9730   23.4360 O   0  0  0  0  0  0  0  0  0  0  0  0
  -20.9240  -29.9540   21.7550 H   0  0  0  0  0  0  0  0  0  0  0  0
  -18.0280  -28.1760   22.9270 C   0  0  0  0  0  0  0  0  0  0  0  0
  -20.5790  -28.4770   23.2320 C   0  0  0  0  0  3  0  0  0  0  0  0
  -20.7070  -27.0320   22.6910 C   0  0  0  0  0  2  0  0  0  0  0  0
  -19.6270  -26.6760   21.6660 C   0  0  0  0  0  2  0  0  0  0  0  0
  -18.2330  -26.8160   22.2820 C   0  0  0  0  0  2  0  0  0  0  0  0
  -19.1290  -28.9620   23.3600 C   0  0  0  0  0  0  0  0  0  0  0  0
  -18.8840  -30.2310   23.9250 C   0  0  0  0  0  3  0  0  0  0  0  0
  -17.5700  -30.7190   24.0590 C   0  0  0  0  0  3  0  0  0  0  0  0
  -16.4830  -29.9330   23.6410 C   0  0  0  0  0  3  0  0  0  0  0  0
  -16.7120  -28.6620   23.0810 C   0  0  0  0  0  3  0  0  0  0  0  0
  -25.9100  -32.6130   23.8740 C   0  0  0  0  0  3  0  0  0  0  0  0
  -26.4230  -31.8400   25.1510 C   0  0  1  0  0  0  0  0  0  0  0  0
  -25.3260  -31.5990   26.2160 C   0  0  0  0  0  1  0  0  0  0  0  0
  -27.0070  -30.4640   24.7600 C   0  0  0  0  0  1  0  0  0  0  0  0
  -27.5710  -32.6320   25.8170 C   0  0  0  0  0  1  0  0  0  0  0  0
  -25.6000  -34.0110   24.2100 N   0  0  0  0  0  0  0  0  0  0  0  0
  -25.9080  -35.0690   23.4480 C   0  0  0  0  0  0  0  0  0  0  0  0
  -26.5510  -34.9680   22.4010 O   0  0  0  0  0  0  0  0  0  0  0  0
  -25.0250  -34.1600   25.0270 H   0  0  0  0  0  0  0  0  0  0  0  0
  -24.1600  -36.8560   23.1620 C   0  0  0  0  0  1  0  0  0  0  0  0
  -25.4330  -36.4580   23.9230 C   0  0  0  0  0  3  0  0  0  0  0  0
  -27.5920  -37.3610   24.6690 C   0  0  0  0  0  1  0  0  0  0  0  0
  -26.4560  -37.5150   23.7650 N   0  0  0  0  0  0  0  0  0  0  0  0
  -26.0520  -38.4350   23.9210 H   0  0  0  0  0  0  0  0  0  0  0  0
  1  4  1  0
  2  4  2  0
  3  5  1  0
  3  6  2  0
  4 45  1  0
  5  1  2  0
  6  2  1  0
  7 15  1  0
  8 13  1  0
  9 10  1  0
  9  8  1  0
 11 10  1  0
 11 20  1  0
 11 12  1  0
 13  7  1  0
 13 12  1  0
 14  7  2  0
 15 16  1  0
 15  6  1  0
 17 18  2  0
 18 37  1  0
 19 18  1  0
 19 22  1  0
 20 21  1  0
 20 17  1  0
 21 19  2  0
 22 23  1  0
 23 24  2  0
 25 28  1  0
 25 24  1  0
 26 25  2  0
 27 26  1  0
 27 22  2  0
 28 29  1  0
 29 30  1  0
 30 31  2  0
 32 31  1  0
 32 36  1  0
 33 32  2  0
 34 29  2  0
 34 33  1  0
 35 34  1  0
 37 38  1  0
 38 41  1  0
 38 40  1  0
 39 37  2  0
 42 43  1  0
 42 17  1  0
 44 42  1  0
 45 46  1  1
 45 47  1  0
 48 45  1  0
 49 51  2  0
 50 49  1  0
 50  5  1  0
 52 50  1  0
 53 54  1  0
 53 49  1  0
 55 66  2  0
 56 54  1  0
 56 61  1  0
 57 65  1  0
 57 67  1  0
 58 64  1  0
 58 60  1  0
 59 65  1  0
 60 61  2  0
 60 59  1  0
 62 56  2  0
 63 62  1  0
 63 58  2  0
 64 57  1  0
 65 55  1  0
 67 69  2  0
 68 67  1  0
 70 68  1  0
 71 80  2  0
 71 76  1  0
 72 68  1  0
 72 76  1  0
 73 72  1  0
 74 75  1  0
 74 73  1  0
 75 71  1  0
 76 77  2  0
 77 78  1  0
 79 78  2  0
 80 79  1  0
 81 55  1  0
 81 86  1  0
 81 82  1  0
 82 85  1  1
 82 83  1  0
 84 82  1  0
 86 89  1  0
 87 91  1  0
 87 86  1  0
 88 87  2  0
 91 90  1  0
 93 94  1  0
 93 91  1  0
 93 92  1  0
M  ISO  4   7 100  15 100  53 101  54 101
M  END
>  <TORSDO>  (92) 
F 19

>  <SCORE>  (92) 
-14.478

>  <name>  (92) 
91

>  <ligand_id>  (92) 
91

>  <original_smiles>  (92) 
[H]c1c([H])c([H])c2c(c1[H])C([H])([H])C([H])([H])C([H])([H])C2([H])N([H])C(=O)C1([H])N(C(=O)C([H])(N([H])C(=O)C([H])(N([H])C([H])([H])[H])C([H])([H])[H])C(C([H])([H])[H])(C([H])([H])[H])C([H])([H])[H])C([H])([H])c2c([H])c(OC([H])([H])C(=O)N([H])c3c([H])c(N([H])C(=O)N4C([H])([H])C([H])([H])C([H])([H])C([H])(n5nc(-c6c([H])c([H])c(Oc7c([H])c([H])c(F)c([H])c7F)c([H])c6[H])c(C(=O)N([H])[H])c5N([H])[H])C4([H])[H])c([H])c(C(F)(F)F)c3[H])c([H])c([H])c2C1([H])[H]

>  <smiles>  (92) 
[H]c1c([H])c([H])c2c(c1[H])C([H])([H])C([H])([H])C([H])([H])C2([H])N([H])C(=O)C1([H])N(C(=O)C([H])(N([H])C(=O)C([H])(N([H])C([H])([H])[H])C([H])([H])[H])C(C([H])([H])[H])(C([H])([H])[H])C([H])([H])[H])C([H])([H])c2c([H])c(OC([H])([H])C(=O)N([H])c3c([H])c(N([H])C(=O)N4C([H])([H])C([H])([H])C([H])([H])C([H])(n5nc(-c6c([H])c([H])c(Oc7c([H])c([H])c(F)c([H])c7F)c([H])c6[H])c(C(=O)N([H])[H])c5N([H])[H])C4([H])[H])c([H])c(C(F)(F)F)c3[H])c([H])c([H])c2C1([H])[H]

$$$$
92:0:0
     RDKit          3D

 92100  0  0  1  0  0  0  0  0999 V2000
  -30.9070  -18.9170   17.9000 C   0  0  0  0  0  3  0  0  0  0  0  0
  -30.7160  -20.0690   18.6760 C   0  0  0  0  0  3  0  0  0  0  0  0
  -30.7860  -17.6190   18.4370 C   0  0  0  0  0  0  0  0  0  0  0  0
  -30.2550  -18.6400   20.5970 C   0  0  0  0  0  0  0  0  0  0  0  0
  -30.3770  -19.9950   20.0390 C   0  0  0  0  0  0  0  0  0  0  0  0
  -30.5080  -17.4240   19.8230 C   0  0  0  0  0  0  0  0  0  0  0  0
  -30.8850  -16.4820   17.4330 C   0  0  0  0  0  1  0  0  0  0  0  0
  -29.7940  -18.4570   22.0380 C   0  0  0  0  0  1  0  0  0  0  0  0
  -31.1270  -14.9040   20.2550 C   0  0  0  0  0  0  0  0  0  0  0  0
  -30.9130  -12.5980   19.3410 C   0  0  0  0  0  2  0  0  0  0  0  0
  -29.9840  -12.6290   18.1070 C   0  0  0  0  0  2  0  0  0  0  0  0
  -28.5070  -12.5050   18.5290 C   0  0  0  0  0  2  0  0  0  0  0  0
  -28.1340  -13.4360   19.7140 C   0  0  0  0  0  3  0  0  0  0  0  0
  -29.1850  -13.3730   20.8450 C   0  0  0  0  0  2  0  0  0  0  0  0
  -30.4900  -13.6850   20.2520 N   0  0  0  0  0  0  0  0  0  0  0  0
  -32.3270  -14.9700   19.9790 O   0  0  0  0  0  0  0  0  0  0  0  0
  -30.3490  -16.0460   20.3790 N   0  0  0  0  0  0  0  0  0  0  0  0
  -29.4520  -15.8690   20.8030 H   0  0  0  0  0  0  0  0  0  0  0  0
  -25.7580  -14.0660   20.4500 C   0  0  0  0  0  0  0  0  0  0  0  0
  -24.6770  -13.3080   20.8130 C   0  0  0  0  0  0  0  0  0  0  0  0
  -25.1150  -11.9490   20.7700 C   0  0  0  0  0  0  0  0  0  0  0  0
  -26.7850  -13.1700   20.2050 N   0  0  0  0  0  0  0  0  0  0  0  0
  -26.4050  -11.8910   20.4630 N   0  0  0  0  0  0  0  0  0  0  0  0
  -24.3660  -10.6980   20.9480 C   0  0  0  0  0  0  0  0  0  0  0  0
  -24.7350   -9.7480   21.9260 C   0  0  0  0  0  3  0  0  0  0  0  0
  -23.9870   -8.5620   22.0900 C   0  0  0  0  0  3  0  0  0  0  0  0
  -22.8560   -8.3180   21.2750 C   0  0  0  0  0  0  0  0  0  0  0  0
  -22.5060   -9.2570   20.2880 C   0  0  0  0  0  3  0  0  0  0  0  0
  -23.2550  -10.4340   20.1220 C   0  0  0  0  0  3  0  0  0  0  0  0
  -22.0840   -7.1830   21.3460 O   0  0  0  0  0  0  0  0  0  0  0  0
  -21.8920   -6.5160   22.5290 C   0  0  0  0  0  0  0  0  0  0  0  0
  -21.2570   -7.1250   23.6330 C   0  0  0  0  0  3  0  0  0  0  0  0
  -21.0170   -6.3810   24.8060 C   0  0  0  0  0  3  0  0  0  0  0  0
  -21.4030   -5.0300   24.8740 C   0  0  0  0  0  0  0  0  0  0  0  0
  -22.0320   -4.4200   23.7740 C   0  0  0  0  0  3  0  0  0  0  0  0
  -22.2730   -5.1610   22.6040 C   0  0  0  0  0  0  0  0  0  0  0  0
  -22.8590   -4.5630   21.5400 F   0  0  0  0  0  0  0  0  0  0  0  0
  -21.1670   -4.3130   25.9980 F   0  0  0  0  0  0  0  0  0  0  0  0
  -23.2880  -13.8080   21.0880 C   0  0  0  0  0  0  0  0  0  0  0  0
  -22.5510  -13.1230   21.9530 N   0  0  0  0  0  0  0  0  0  0  0  0
  -22.8680  -14.8400   20.5680 O   0  0  0  0  0  0  0  0  0  0  0  0
  -22.9050  -12.2860   22.3940 H   0  0  0  0  0  0  0  0  0  0  0  0
  -21.6190  -13.4400   22.1800 H   0  0  0  0  0  0  0  0  0  0  0  0
  -25.9450  -15.4350   20.2830 N   0  0  0  0  0  0  0  0  0  0  0  0
  -25.1850  -16.0960   20.3900 H   0  0  0  0  0  0  0  0  0  0  0  0
  -26.7900  -15.8600   19.9240 H   0  0  0  0  0  0  0  0  0  0  0  0
  -31.0130  -21.4440   21.9560 C   0  0  0  0  0  1  0  0  0  0  0  0
  -30.2530  -21.2750   20.7210 N   0  0  0  0  0  0  0  0  0  0  0  0
  -29.3160  -22.3970   20.3040 C   0  0  0  0  0  2  0  0  0  0  0  0
  -29.6910  -23.9450   20.6000 C   0  0  0  0  0  3  0  0  0  0  0  0
  -28.6170  -25.0730   20.1900 C   0  0  0  0  0  3  0  0  0  0  0  0
  -28.7820  -26.5330   20.4960 O   0  0  0  0  0  0  0  0  0  0  0  0
  -24.7720  -31.8270   23.3900 C   0  0  0  0  0  0  0  0  0  0  0  0
  -27.6540  -27.3770   20.3870 C   0  0  0  0  0  0  0  0  0  0  0  0
  -23.6800  -30.4000   21.7000 C   0  0  0  0  0  3  0  0  0  0  0  0
  -25.2360  -28.9250   20.3050 C   0  0  0  0  0  0  0  0  0  0  0  0
  -26.2120  -30.8110   21.6080 C   0  0  0  0  0  2  0  0  0  0  0  0
  -26.3660  -29.4430   20.9480 C   0  0  0  0  0  0  0  0  0  0  0  0
  -27.5780  -28.6810   20.9810 C   0  0  0  0  0  3  0  0  0  0  0  0
  -26.5000  -26.9320   19.7000 C   0  0  0  0  0  3  0  0  0  0  0  0
  -25.3060  -27.6780   19.6700 C   0  0  0  0  0  3  0  0  0  0  0  0
  -23.9660  -29.7520   20.3210 C   0  0  0  0  0  2  0  0  0  0  0  0
  -24.9050  -31.0310   22.2890 N   0  0  0  0  0  0  0  0  0  0  0  0
  -23.6620  -32.0580   23.8900 O   0  0  0  0  0  0  0  0  0  0  0  0
  -23.0250  -29.3480   22.6290 C   0  0  0  0  0  0  0  0  0  0  0  0
  -21.7250  -29.0810   22.4220 N   0  0  0  0  0  0  0  0  0  0  0  0
  -23.6900  -28.7760   23.4970 O   0  0  0  0  0  0  0  0  0  0  0  0
  -21.2450  -29.5980   21.6990 H   0  0  0  0  0  0  0  0  0  0  0  0
  -18.4130  -27.6530   22.7130 C   0  0  0  0  0  0  0  0  0  0  0  0
  -20.9220  -28.0960   23.1520 C   0  0  0  0  0  3  0  0  0  0  0  0
  -21.1630  -26.6680   22.6090 C   0  0  0  0  0  2  0  0  0  0  0  0
  -20.1590  -26.2570   21.5280 C   0  0  0  0  0  2  0  0  0  0  0  0
  -18.7290  -26.3110   22.0740 C   0  0  0  0  0  2  0  0  0  0  0  0
  -19.4430  -28.4980   23.2040 C   0  0  0  0  0  0  0  0  0  0  0  0
  -19.0960  -29.7490   23.7570 C   0  0  0  0  0  3  0  0  0  0  0  0
  -17.7510  -30.1580   23.8270 C   0  0  0  0  0  3  0  0  0  0  0  0
  -16.7340  -29.3120   23.3530 C   0  0  0  0  0  3  0  0  0  0  0  0
  -17.0640  -28.0610   22.8020 C   0  0  0  0  0  3  0  0  0  0  0  0
  -26.0080  -32.5050   24.0580 C   0  0  0  0  0  3  0  0  0  0  0  0
  -26.4540  -31.7980   25.3980 C   0  0  1  0  0  0  0  0  0  0  0  0
  -25.2990  -31.5840   26.4020 C   0  0  0  0  0  1  0  0  0  0  0  0
  -27.0840  -30.4170   25.1040 C   0  0  0  0  0  1  0  0  0  0  0  0
  -27.5470  -32.6420   26.0960 C   0  0  0  0  0  1  0  0  0  0  0  0
  -25.6610  -33.9120   24.3090 N   0  0  0  0  0  0  0  0  0  0  0  0
  -26.0030  -34.9340   23.5120 C   0  0  0  0  0  0  0  0  0  0  0  0
  -26.7100  -34.7940   22.5100 O   0  0  0  0  0  0  0  0  0  0  0  0
  -25.0350  -34.0920   25.0800 H   0  0  0  0  0  0  0  0  0  0  0  0
  -24.2530  -36.6740   23.0180 C   0  0  0  0  0  1  0  0  0  0  0  0
  -25.4760  -36.3340   23.8860 C   0  0  0  0  0  3  0  0  0  0  0  0
  -27.5570  -37.3120   24.7460 C   0  0  0  0  0  1  0  0  0  0  0  0
  -26.4930  -37.4000   23.7510 N   0  0  0  0  0  0  0  0  0  0  0  0
  -26.0640  -38.3180   23.8250 H   0  0  0  0  0  0  0  0  0  0  0  0
  1  3  2  0
  1  2  1  0
  2  5  2  0
  3  6  1  0
  4  8  1  0
  5  4  1  0
  5 48  1  0
  6 17  1  0
  6  4  2  0
  7  3  1  0
  9 17  1  0
 10 15  1  0
 11 12  1  0
 11 10  1  0
 13 12  1  0
 13 22  1  0
 13 14  1  0
 15  9  1  0
 15 14  1  0
 16  9  2  0
 17 18  1  0
 19 20  2  0
 20 39  1  0
 21 20  1  0
 21 24  1  0
 22 19  1  0
 22 23  1  0
 23 21  2  0
 24 25  1  0
 25 26  2  0
 27 30  1  0
 27 26  1  0
 28 27  2  0
 29 28  1  0
 29 24  2  0
 30 31  1  0
 31 36  2  0
 31 32  1  0
 32 33  2  0
 33 34  1  0
 34 38  1  0
 35 34  2  0
 36 35  1  0
 37 36  1  0
 39 40  1  0
 40 43  1  0
 40 42  1  0
 41 39  2  0
 44 45  1  0
 44 19  1  0
 46 44  1  0
 48 47  1  0
 49 50  1  0
 49 48  1  0
 51 52  1  0
 51 50  2  0
 53 64  2  0
 54 52  1  0
 54 59  1  0
 55 63  1  0
 55 65  1  0
 56 62  1  0
 56 58  1  0
 57 63  1  0
 58 59  2  0
 58 57  1  0
 60 54  2  0
 61 60  1  0
 61 56  2  0
 62 55  1  0
 63 53  1  0
 65 67  2  0
 66 65  1  0
 68 66  1  0
 69 78  2  0
 69 74  1  0
 70 66  1  0
 70 74  1  0
 71 70  1  0
 72 73  1  0
 72 71  1  0
 73 69  1  0
 74 75  2  0
 75 76  1  0
 77 76  2  0
 78 77  1  0
 79 53  1  0
 79 84  1  0
 79 80  1  0
 80 83  1  1
 80 81  1  0
 82 80  1  0
 84 87  1  0
 85 89  1  0
 85 84  1  0
 86 85  2  0
 89 88  1  0
 91 92  1  0
 91 89  1  0
 91 90  1  0
M  ISO  4   9 100  17 100  51 101  52 101
M  END
>  <TORSDO>  (93) 
F 20

>  <SCORE>  (93) 
-12.113

>  <name>  (93) 
92

>  <ligand_id>  (93) 
92

>  <original_smiles>  (93) 
[H]c1c([H])c([H])c2c(c1[H])C([H])([H])C([H])([H])C([H])([H])C2([H])N([H])C(=O)C1([H])N(C(=O)C([H])(N([H])C(=O)C([H])(N([H])C([H])([H])[H])C([H])([H])[H])C(C([H])([H])[H])(C([H])([H])[H])C([H])([H])[H])C([H])([H])c2c([H])c(OC([H])([H])C([H])([H])C([H])([H])N(c3c([H])c([H])c(C([H])([H])[H])c(N([H])C(=O)N4C([H])([H])C([H])([H])C([H])([H])C([H])(n5nc(-c6c([H])c([H])c(Oc7c([H])c([H])c(F)c([H])c7F)c([H])c6[H])c(C(=O)N([H])[H])c5N([H])[H])C4([H])[H])c3C([H])([H])[H])C([H])([H])[H])c([H])c([H])c2C1([H])[H]

>  <smiles>  (93) 
[H]c1c([H])c([H])c2c(c1[H])C([H])([H])C([H])([H])C([H])([H])C2([H])N([H])C(=O)C1([H])N(C(=O)C([H])(N([H])C(=O)C([H])(N([H])C([H])([H])[H])C([H])([H])[H])C(C([H])([H])[H])(C([H])([H])[H])C([H])([H])[H])C([H])([H])c2c([H])c(OC([H])([H])C([H])([H])C([H])([H])N(c3c([H])c([H])c(C([H])([H])[H])c(N([H])C(=O)N4C([H])([H])C([H])([H])C([H])([H])C([H])(n5nc(-c6c([H])c([H])c(Oc7c([H])c([H])c(F)c([H])c7F)c([H])c6[H])c(C(=O)N([H])[H])c5N([H])[H])C4([H])[H])c3C([H])([H])[H])C([H])([H])[H])c([H])c([H])c2C1([H])[H]

$$$$
93:0:0
     RDKit          3D

 90 98  0  0  1  0  0  0  0  0999 V2000
  -28.9100  -17.6550   20.9850 C   0  0  0  0  0  3  0  0  0  0  0  0
  -28.6100  -19.0360   21.1920 C   0  0  0  0  0  3  0  0  0  0  0  0
  -30.4420  -19.6810   19.7880 C   0  0  0  0  0  3  0  0  0  0  0  0
  -29.9810  -17.2420   20.1520 C   0  0  0  0  0  0  0  0  0  0  0  0
  -29.3320  -20.0930   20.5720 C   0  0  0  0  0  0  0  0  0  0  0  0
  -30.7650  -18.3020   19.5950 C   0  0  0  0  0  0  0  0  0  0  0  0
  -31.8120  -18.0000   18.7900 F   0  0  0  0  0  0  0  0  0  0  0  0
  -30.8380  -14.8080   20.1110 C   0  0  0  0  0  0  0  0  0  0  0  0
  -30.6620  -12.4840   19.2390 C   0  0  0  0  0  2  0  0  0  0  0  0
  -29.7100  -12.4500   18.0220 C   0  0  0  0  0  2  0  0  0  0  0  0
  -28.2320  -12.3620   18.4640 C   0  0  0  0  0  2  0  0  0  0  0  0
  -27.8640  -13.2810   19.6640 C   0  0  0  0  0  3  0  0  0  0  0  0
  -28.9430  -13.2540   20.7650 C   0  0  0  0  0  2  0  0  0  0  0  0
  -30.2210  -13.5800   20.1230 N   0  0  0  0  0  0  0  0  0  0  0  0
  -32.0650  -14.8780   19.9900 O   0  0  0  0  0  0  0  0  0  0  0  0
  -29.8860  -15.8370   18.1690 C   0  0  0  0  0  1  0  0  0  0  0  0
  -30.0660  -15.8630   19.6370 N   0  0  0  0  0  0  0  0  0  0  0  0
  -25.4890  -13.8780   20.4240 C   0  0  0  0  0  0  0  0  0  0  0  0
  -24.4260  -13.1030   20.7990 C   0  0  0  0  0  0  0  0  0  0  0  0
  -24.8900  -11.7520   20.7630 C   0  0  0  0  0  0  0  0  0  0  0  0
  -26.5310  -12.9970   20.1780 N   0  0  0  0  0  0  0  0  0  0  0  0
  -26.1780  -11.7150   20.4460 N   0  0  0  0  0  0  0  0  0  0  0  0
  -24.1690  -10.4900   20.9530 C   0  0  0  0  0  0  0  0  0  0  0  0
  -24.5880   -9.5390   21.9090 C   0  0  0  0  0  3  0  0  0  0  0  0
  -23.8660   -8.3390   22.0890 C   0  0  0  0  0  3  0  0  0  0  0  0
  -22.7130   -8.0820   21.3110 C   0  0  0  0  0  0  0  0  0  0  0  0
  -22.3150   -9.0220   20.3420 C   0  0  0  0  0  3  0  0  0  0  0  0
  -23.0380  -10.2120   20.1610 C   0  0  0  0  0  3  0  0  0  0  0  0
  -21.9640   -6.9340   21.4000 O   0  0  0  0  0  0  0  0  0  0  0  0
  -21.8610   -6.2330   22.5740 C   0  0  0  0  0  0  0  0  0  0  0  0
  -21.3140   -6.8100   23.7410 C   0  0  0  0  0  3  0  0  0  0  0  0
  -21.1610   -6.0320   24.9060 C   0  0  0  0  0  3  0  0  0  0  0  0
  -21.5430   -4.6760   24.9040 C   0  0  0  0  0  0  0  0  0  0  0  0
  -22.0810   -4.0990   23.7410 C   0  0  0  0  0  3  0  0  0  0  0  0
  -22.2370   -4.8740   22.5780 C   0  0  0  0  0  0  0  0  0  0  0  0
  -22.7350   -4.3060   21.4540 F   0  0  0  0  0  0  0  0  0  0  0  0
  -21.3890   -3.9270   26.0200 F   0  0  0  0  0  0  0  0  0  0  0  0
  -23.0310  -13.5780   21.0810 C   0  0  0  0  0  0  0  0  0  0  0  0
  -22.3110  -12.8810   21.9540 N   0  0  0  0  0  0  0  0  0  0  0  0
  -22.5870  -14.6020   20.5640 O   0  0  0  0  0  0  0  0  0  0  0  0
  -22.6820  -12.0510   22.3940 H   0  0  0  0  0  0  0  0  0  0  0  0
  -21.3740  -13.1800   22.1840 H   0  0  0  0  0  0  0  0  0  0  0  0
  -25.6520  -15.2490   20.2500 N   0  0  0  0  0  0  0  0  0  0  0  0
  -24.8910  -15.9070   20.3820 H   0  0  0  0  0  0  0  0  0  0  0  0
  -26.5060  -15.6880   19.9300 H   0  0  0  0  0  0  0  0  0  0  0  0
  -28.9230  -21.4290   20.7980 O   0  0  0  0  0  0  0  0  0  0  0  0
  -29.2430  -22.5490   19.9020 C   0  0  0  0  0  3  0  0  0  0  0  0
  -28.7460  -23.9920   20.3950 C   0  0  0  0  0  3  0  0  0  0  0  0
  -28.8290  -25.2230   19.3840 C   0  0  0  0  0  2  0  0  0  0  0  0
  -28.6800  -26.6130   19.8760 O   0  0  0  0  0  0  0  0  0  0  0  0
  -24.6420  -31.6510   23.0420 C   0  0  0  0  0  0  0  0  0  0  0  0
  -27.4890  -27.3530   19.8260 C   0  0  0  0  0  0  0  0  0  0  0  0
  -23.5160  -30.2760   21.3260 C   0  0  0  0  0  3  0  0  0  0  0  0
  -25.0470  -28.8500   19.8520 C   0  0  0  0  0  0  0  0  0  0  0  0
  -26.0390  -30.7150   21.1860 C   0  0  0  0  0  2  0  0  0  0  0  0
  -26.1840  -29.3700   20.4820 C   0  0  0  0  0  0  0  0  0  0  0  0
  -27.4030  -28.6330   20.4580 C   0  0  0  0  0  3  0  0  0  0  0  0
  -26.3220  -26.8740   19.1870 C   0  0  0  0  0  3  0  0  0  0  0  0
  -25.1180  -27.6090   19.1980 C   0  0  0  0  0  3  0  0  0  0  0  0
  -23.7730  -29.6670   19.9210 C   0  0  0  0  0  2  0  0  0  0  0  0
  -24.7500  -30.8960   21.9100 N   0  0  0  0  0  0  0  0  0  0  0  0
  -23.5430  -31.8570   23.5760 O   0  0  0  0  0  0  0  0  0  0  0  0
  -22.8890  -29.1920   22.2340 C   0  0  0  0  0  0  0  0  0  0  0  0
  -21.5650  -28.9910   22.1070 N   0  0  0  0  0  0  0  0  0  0  0  0
  -23.5900  -28.5370   23.0090 O   0  0  0  0  0  0  0  0  0  0  0  0
  -21.0590  -29.5750   21.4570 H   0  0  0  0  0  0  0  0  0  0  0  0
  -18.2100  -27.7460   22.6220 C   0  0  0  0  0  0  0  0  0  0  0  0
  -20.7750  -27.9940   22.8280 C   0  0  0  0  0  3  0  0  0  0  0  0
  -20.8600  -26.6110   22.1400 C   0  0  0  0  0  2  0  0  0  0  0  0
  -19.7270  -26.3640   21.1400 C   0  0  0  0  0  2  0  0  0  0  0  0
  -18.3670  -26.4530   21.8370 C   0  0  0  0  0  2  0  0  0  0  0  0
  -19.3410  -28.4760   23.0730 C   0  0  0  0  0  0  0  0  0  0  0  0
  -19.1390  -29.6890   23.7680 C   0  0  0  0  0  3  0  0  0  0  0  0
  -17.8390  -30.1700   24.0140 C   0  0  0  0  0  3  0  0  0  0  0  0
  -16.7230  -29.4350   23.5780 C   0  0  0  0  0  3  0  0  0  0  0  0
  -16.9100  -28.2230   22.8880 C   0  0  0  0  0  3  0  0  0  0  0  0
  -25.8900  -32.3070   23.7100 C   0  0  0  0  0  3  0  0  0  0  0  0
  -26.4060  -31.5190   24.9750 C   0  0  1  0  0  0  0  0  0  0  0  0
  -25.3010  -31.2220   26.0170 C   0  0  0  0  0  1  0  0  0  0  0  0
  -27.0360  -30.1690   24.5590 C   0  0  0  0  0  1  0  0  0  0  0  0
  -27.5200  -32.3290   25.6790 C   0  0  0  0  0  1  0  0  0  0  0  0
  -25.5290  -33.6850   24.0710 N   0  0  0  0  0  0  0  0  0  0  0  0
  -25.8510  -34.7700   23.3550 C   0  0  0  0  0  0  0  0  0  0  0  0
  -26.5540  -34.7180   22.3420 O   0  0  0  0  0  0  0  0  0  0  0  0
  -24.9080  -33.7970   24.8590 H   0  0  0  0  0  0  0  0  0  0  0  0
  -24.0970  -36.5340   22.9840 C   0  0  0  0  0  1  0  0  0  0  0  0
  -25.3090  -36.1290   23.8390 C   0  0  0  0  0  3  0  0  0  0  0  0
  -27.3700  -37.0400   24.8130 C   0  0  0  0  0  1  0  0  0  0  0  0
  -26.3180  -37.2100   23.8130 N   0  0  0  0  0  0  0  0  0  0  0  0
  -25.8810  -38.1150   23.9630 H   0  0  0  0  0  0  0  0  0  0  0  0
  1  2  1  0
  3  5  1  0
  4  1  2  0
  5 46  1  0
  5  2  2  0
  6  3  2  0
  6  4  1  0
  7  6  1  0
  8 14  1  0
  9 14  1  0
 10 11  1  0
 10  9  1  0
 12 11  1  0
 12 21  1  0
 12 13  1  0
 14 13  1  0
 15  8  2  0
 16 17  1  0
 17  8  1  0
 17  4  1  0
 18 19  2  0
 19 38  1  0
 20 19  1  0
 20 23  1  0
 21 18  1  0
 21 22  1  0
 22 20  2  0
 23 24  1  0
 24 25  2  0
 26 29  1  0
 26 25  1  0
 27 26  2  0
 28 27  1  0
 28 23  2  0
 29 30  1  0
 30 35  2  0
 30 31  1  0
 31 32  2  0
 33 32  1  0
 33 37  1  0
 34 33  2  0
 35 34  1  0
 36 35  1  0
 38 39  1  0
 39 42  1  0
 39 41  1  0
 40 38  2  0
 43 44  1  0
 43 18  1  0
 45 43  1  0
 47 48  2  0
 47 46  1  0
 49 50  1  0
 49 48  1  0
 51 62  2  0
 52 50  1  0
 52 57  1  0
 53 61  1  0
 53 63  1  0
 54 60  1  0
 54 56  1  0
 55 61  1  0
 56 55  1  0
 57 56  2  0
 58 59  1  0
 58 52  2  0
 59 54  2  0
 60 53  1  0
 61 51  1  0
 63 65  2  0
 64 63  1  0
 66 64  1  0
 67 76  2  0
 67 72  1  0
 68 64  1  0
 68 72  1  0
 69 68  1  0
 70 71  1  0
 70 69  1  0
 71 67  1  0
 72 73  2  0
 73 74  1  0
 75 74  2  0
 76 75  1  0
 77 51  1  0
 77 82  1  0
 77 78  1  0
 78 81  1  1
 78 79  1  0
 80 78  1  0
 82 85  1  0
 83 87  1  0
 83 82  1  0
 84 83  2  0
 87 86  1  0
 89 87  1  0
 89 90  1  0
 89 88  1  0
M  ISO  4   8 100  17 100  49 101  50 101
M  END
>  <TORSDO>  (94) 
F 20

>  <SCORE>  (94) 
-11.861

>  <name>  (94) 
93

>  <ligand_id>  (94) 
93

>  <original_smiles>  (94) 
[H]c1c([H])c([H])c2c(c1[H])C([H])([H])C([H])([H])C([H])([H])C2([H])N([H])C(=O)C1([H])N(C(=O)C([H])(N([H])C(=O)C([H])(N([H])C([H])([H])[H])C([H])([H])[H])C(C([H])([H])[H])(C([H])([H])[H])C([H])([H])[H])C([H])([H])c2c([H])c(OC([H])([H])C([H])([H])C([H])([H])Oc3c([H])c([H])c(N(C(=O)N4C([H])([H])C([H])([H])C([H])([H])C([H])(n5nc(-c6c([H])c([H])c(Oc7c([H])c([H])c(F)c([H])c7F)c([H])c6[H])c(C(=O)N([H])[H])c5N([H])[H])C4([H])[H])C([H])([H])[H])c(F)c3[H])c([H])c([H])c2C1([H])[H]

>  <smiles>  (94) 
[H]c1c([H])c([H])c2c(c1[H])C([H])([H])C([H])([H])C([H])([H])C2([H])N([H])C(=O)C1([H])N(C(=O)C([H])(N([H])C(=O)C([H])(N([H])C([H])([H])[H])C([H])([H])[H])C(C([H])([H])[H])(C([H])([H])[H])C([H])([H])[H])C([H])([H])c2c([H])c(OC([H])([H])C([H])([H])C([H])([H])Oc3c([H])c([H])c(N(C(=O)N4C([H])([H])C([H])([H])C([H])([H])C([H])(n5nc(-c6c([H])c([H])c(Oc7c([H])c([H])c(F)c([H])c7F)c([H])c6[H])c(C(=O)N([H])[H])c5N([H])[H])C4([H])[H])C([H])([H])[H])c(F)c3[H])c([H])c([H])c2C1([H])[H]

$$$$
94:0:0
     RDKit          3D

 91 99  0  0  1  0  0  0  0  0999 V2000
  -30.5630  -20.0200   22.2520 C   0  0  0  0  0  3  0  0  0  0  0  0
  -29.9930  -21.2170   21.7360 C   0  0  0  0  0  0  0  0  0  0  0  0
  -30.4560  -18.7130   21.6980 C   0  0  0  0  0  0  0  0  0  0  0  0
  -29.2150  -21.2550   20.5500 C   0  0  0  0  0  0  0  0  0  0  0  0
  -29.1150  -19.7880   19.9840 C   0  0  0  0  0  0  0  0  0  0  0  0
  -29.7260  -18.4360   20.5100 C   0  0  0  0  0  0  0  0  0  0  0  0
  -30.2750  -22.5000   22.5000 C   0  0  0  0  0  1  0  0  0  0  0  0
  -31.1340  -17.5950   22.4770 C   0  0  0  0  0  1  0  0  0  0  0  0
  -28.3110  -19.6420   18.7100 C   0  0  0  0  0  1  0  0  0  0  0  0
  -30.3640  -15.5370   20.0370 C   0  0  0  0  0  0  0  0  0  0  0  0
  -30.3420  -13.1000   19.0600 C   0  0  0  0  0  2  0  0  0  0  0  0
  -29.3670  -12.8500   17.8810 C   0  0  0  0  0  2  0  0  0  0  0  0
  -27.9540  -12.5280   18.3950 C   0  0  0  0  0  2  0  0  0  0  0  0
  -27.5360  -13.4690   19.5510 C   0  0  0  0  0  3  0  0  0  0  0  0
  -28.6360  -13.6460   20.6170 C   0  0  0  0  0  2  0  0  0  0  0  0
  -29.8000  -14.2230   19.9200 N   0  0  0  0  0  0  0  0  0  0  0  0
  -31.5890  -15.5090   19.8330 O   0  0  0  0  0  0  0  0  0  0  0  0
  -29.5930  -16.8400   20.0840 N   0  0  0  0  0  0  0  0  0  0  0  0
  -28.6350  -16.6270   19.8500 H   0  0  0  0  0  0  0  0  0  0  0  0
  -25.2010  -13.9770   20.4300 C   0  0  0  0  0  0  0  0  0  0  0  0
  -24.1670  -13.1790   20.8310 C   0  0  0  0  0  0  0  0  0  0  0  0
  -24.6520  -11.8360   20.7590 C   0  0  0  0  0  0  0  0  0  0  0  0
  -26.2420  -13.1210   20.1240 N   0  0  0  0  0  0  0  0  0  0  0  0
  -25.9300  -11.8260   20.3900 N   0  0  0  0  0  0  0  0  0  0  0  0
  -23.9510  -10.5610   20.9580 C   0  0  0  0  0  0  0  0  0  0  0  0
  -24.4120   -9.5990   21.8840 C   0  0  0  0  0  3  0  0  0  0  0  0
  -23.7060   -8.3910   22.0730 C   0  0  0  0  0  3  0  0  0  0  0  0
  -22.5240   -8.1370   21.3360 C   0  0  0  0  0  0  0  0  0  0  0  0
  -22.0810   -9.0880   20.4000 C   0  0  0  0  0  3  0  0  0  0  0  0
  -22.7890  -10.2870   20.2080 C   0  0  0  0  0  3  0  0  0  0  0  0
  -21.7870   -6.9810   21.4360 O   0  0  0  0  0  0  0  0  0  0  0  0
  -21.7460   -6.2520   22.5970 C   0  0  0  0  0  0  0  0  0  0  0  0
  -21.2830   -6.8070   23.8110 C   0  0  0  0  0  3  0  0  0  0  0  0
  -21.1930   -6.0020   24.9640 C   0  0  0  0  0  3  0  0  0  0  0  0
  -21.5520   -4.6430   24.9050 C   0  0  0  0  0  0  0  0  0  0  0  0
  -22.0070   -4.0870   23.6960 C   0  0  0  0  0  3  0  0  0  0  0  0
  -22.0990   -4.8890   22.5450 C   0  0  0  0  0  0  0  0  0  0  0  0
  -22.5180   -4.3420   21.3780 F   0  0  0  0  0  0  0  0  0  0  0  0
  -21.4580   -3.8670   26.0100 F   0  0  0  0  0  0  0  0  0  0  0  0
  -22.7770  -13.6310   21.1630 C   0  0  0  0  0  0  0  0  0  0  0  0
  -22.0890  -12.9100   22.0410 N   0  0  0  0  0  0  0  0  0  0  0  0
  -22.3100  -14.6630   20.6820 O   0  0  0  0  0  0  0  0  0  0  0  0
  -22.4820  -12.0760   22.4530 H   0  0  0  0  0  0  0  0  0  0  0  0
  -21.1570  -13.1950   22.3040 H   0  0  0  0  0  0  0  0  0  0  0  0
  -25.3340  -15.3520   20.2670 N   0  0  0  0  0  0  0  0  0  0  0  0
  -24.5600  -15.9890   20.4260 H   0  0  0  0  0  0  0  0  0  0  0  0
  -26.1560  -15.8140   19.9020 H   0  0  0  0  0  0  0  0  0  0  0  0
  -28.7570  -22.9020   19.9900 C   0  0  0  0  0  2  0  0  0  0  0  0
  -28.1060  -24.2530   20.7220 N   0  0  0  0  0  0  0  0  0  0  0  0
  -27.0980  -24.1280   20.7000 H   0  0  0  0  0  0  0  0  0  0  0  0
  -28.3330  -25.9130   20.2540 O   0  0  0  0  0  0  0  0  0  0  0  0
  -24.6580  -31.9380   23.2540 C   0  0  0  0  0  0  0  0  0  0  0  0
  -27.2880  -27.0030   20.3120 C   0  0  0  0  0  0  0  0  0  0  0  0
  -23.4950  -30.5130   21.6200 C   0  0  0  0  0  3  0  0  0  0  0  0
  -24.9710  -28.8980   20.2300 C   0  0  0  0  0  0  0  0  0  0  0  0
  -26.0620  -30.7350   21.4960 C   0  0  0  0  0  2  0  0  0  0  0  0
  -26.1510  -29.3090   20.8630 C   0  0  0  0  0  0  0  0  0  0  0  0
  -27.3010  -28.3830   20.8800 C   0  0  0  0  0  3  0  0  0  0  0  0
  -26.0760  -26.7640   19.6250 C   0  0  0  0  0  3  0  0  0  0  0  0
  -24.9610  -27.6470   19.5930 C   0  0  0  0  0  3  0  0  0  0  0  0
  -23.7450  -29.8160   20.2540 C   0  0  0  0  0  2  0  0  0  0  0  0
  -24.7600  -31.0930   22.1760 N   0  0  0  0  0  0  0  0  0  0  0  0
  -23.5610  -32.2220   23.7630 O   0  0  0  0  0  0  0  0  0  0  0  0
  -22.8020  -29.5220   22.5920 C   0  0  0  0  0  0  0  0  0  0  0  0
  -21.4750  -29.3370   22.4560 N   0  0  0  0  0  0  0  0  0  0  0  0
  -23.4670  -28.9180   23.4370 O   0  0  0  0  0  0  0  0  0  0  0  0
  -20.9890  -29.8750   21.7520 H   0  0  0  0  0  0  0  0  0  0  0  0
  -18.1070  -28.0740   22.9490 C   0  0  0  0  0  0  0  0  0  0  0  0
  -20.6590  -28.3930   23.2300 C   0  0  0  0  0  3  0  0  0  0  0  0
  -20.7920  -26.9560   22.6720 C   0  0  0  0  0  2  0  0  0  0  0  0
  -19.7050  -26.6020   21.6530 C   0  0  0  0  0  2  0  0  0  0  0  0
  -18.3150  -26.7240   22.2830 C   0  0  0  0  0  2  0  0  0  0  0  0
  -19.2070  -28.8650   23.3790 C   0  0  0  0  0  0  0  0  0  0  0  0
  -18.9550  -30.1240   23.9640 C   0  0  0  0  0  3  0  0  0  0  0  0
  -17.6390  -30.5960   24.1230 C   0  0  0  0  0  3  0  0  0  0  0  0
  -16.5540  -29.8050   23.7060 C   0  0  0  0  0  3  0  0  0  0  0  0
  -16.7890  -28.5460   23.1250 C   0  0  0  0  0  3  0  0  0  0  0  0
  -25.9150  -32.6060   23.8900 C   0  0  0  0  0  3  0  0  0  0  0  0
  -25.5810  -34.0100   24.1930 N   0  0  0  0  0  0  0  0  0  0  0  0
  -25.9210  -35.0620   23.4350 C   0  0  0  0  0  0  0  0  0  0  0  0
  -26.6080  -34.9530   22.4170 O   0  0  0  0  0  0  0  0  0  0  0  0
  -24.9710  -34.1670   24.9810 H   0  0  0  0  0  0  0  0  0  0  0  0
  -24.1920  -36.8520   23.0440 C   0  0  0  0  0  1  0  0  0  0  0  0
  -25.4220  -36.4540   23.8750 C   0  0  0  0  0  3  0  0  0  0  0  0
  -27.5370  -37.3630   24.7350 C   0  0  0  0  0  1  0  0  0  0  0  0
  -26.4520  -37.5120   23.7690 N   0  0  0  0  0  0  0  0  0  0  0  0
  -26.0390  -38.4320   23.8960 H   0  0  0  0  0  0  0  0  0  0  0  0
  -26.4050  -31.8740   25.2010 C   0  0  1  0  0  0  0  0  0  0  0  0
  -25.2870  -31.6510   26.2460 C   0  0  0  0  0  1  0  0  0  0  0  0
  -27.0150  -30.4930   24.8690 C   0  0  0  0  0  1  0  0  0  0  0  0
  -27.5290  -32.6990   25.8720 C   0  0  0  0  0  1  0  0  0  0  0  0
  2  1  1  0
  2  7  1  0
  3  1  2  0
  3  8  1  0
  4  2  2  0
  5  6  2  0
  5  4  1  0
  6  3  1  0
  9  5  1  0
 10 18  1  0
 11 16  1  0
 12 13  1  0
 12 11  1  0
 14 13  1  0
 14 23  1  0
 14 15  1  0
 16 10  1  0
 16 15  1  0
 17 10  2  0
 18  6  1  0
 19 18  1  0
 20 21  2  0
 21 40  1  0
 22 21  1  0
 22 25  1  0
 23 24  1  0
 23 20  1  0
 24 22  2  0
 25 26  1  0
 26 27  2  0
 28 31  1  0
 28 27  1  0
 29 28  2  0
 30 29  1  0
 30 25  2  0
 31 32  1  0
 32 33  1  0
 33 34  2  0
 35 34  1  0
 35 39  1  0
 36 35  2  0
 37 32  2  0
 37 36  1  0
 38 37  1  0
 40 41  1  0
 41 44  1  0
 41 43  1  0
 42 40  2  0
 45 46  1  0
 45 20  1  0
 47 45  1  0
 48  4  1  0
 48 49  1  0
 50 49  1  0
 51 53  1  0
 51 49  1  0
 52 63  2  0
 53 58  1  0
 54 62  1  0
 54 64  1  0
 55 61  1  0
 55 57  1  0
 56 62  1  0
 57 58  2  0
 57 56  1  0
 59 53  2  0
 60 59  1  0
 60 55  2  0
 61 54  1  0
 62 52  1  0
 64 66  2  0
 65 64  1  0
 67 65  1  0
 68 77  2  0
 68 73  1  0
 69 65  1  0
 69 73  1  0
 70 69  1  0
 71 72  1  0
 71 70  1  0
 72 68  1  0
 73 74  2  0
 74 75  1  0
 76 75  2  0
 77 76  1  0
 78 52  1  0
 78 79  1  0
 78 88  1  0
 79 82  1  0
 80 84  1  0
 80 79  1  0
 81 80  2  0
 84 83  1  0
 86 84  1  0
 86 87  1  0
 86 85  1  0
 88 91  1  1
 88 89  1  0
 90 88  1  0
M  ISO  4  10 100  18 100  49 101  51 101
M  END
>  <TORSDO>  (95) 
F 18

>  <SCORE>  (95) 
-16.029

>  <name>  (95) 
94

>  <ligand_id>  (95) 
94

>  <original_smiles>  (95) 
[H]c1c([H])c([H])c2c(c1[H])C([H])([H])C([H])([H])C([H])([H])C2([H])N([H])C(=O)C1([H])N(C(=O)C([H])(N([H])C(=O)C([H])(N([H])C([H])([H])[H])C([H])([H])[H])C(C([H])([H])[H])(C([H])([H])[H])C([H])([H])[H])C([H])([H])c2c([H])c(ON([H])C([H])([H])c3c(C([H])([H])[H])c([H])c(C([H])([H])[H])c(N([H])C(=O)N4C([H])([H])C([H])([H])C([H])([H])C([H])(n5nc(-c6c([H])c([H])c(Oc7c([H])c([H])c(F)c([H])c7F)c([H])c6[H])c(C(=O)N([H])[H])c5N([H])[H])C4([H])[H])c3C([H])([H])[H])c([H])c([H])c2C1([H])[H]

>  <smiles>  (95) 
[H]c1c([H])c([H])c2c(c1[H])C([H])([H])C([H])([H])C([H])([H])C2([H])N([H])C(=O)C1([H])N(C(=O)C([H])(N([H])C(=O)C([H])(N([H])C([H])([H])[H])C([H])([H])[H])C(C([H])([H])[H])(C([H])([H])[H])C([H])([H])[H])C([H])([H])c2c([H])c(ON([H])C([H])([H])c3c(C([H])([H])[H])c([H])c(C([H])([H])[H])c(N([H])C(=O)N4C([H])([H])C([H])([H])C([H])([H])C([H])(n5nc(-c6c([H])c([H])c(Oc7c([H])c([H])c(F)c([H])c7F)c([H])c6[H])c(C(=O)N([H])[H])c5N([H])[H])C4([H])[H])c3C([H])([H])[H])c([H])c([H])c2C1([H])[H]

$$$$
95:0:0
     RDKit          3D

100108  0  0  1  0  0  0  0  0999 V2000
  -31.6770  -18.0900   22.8210 C   0  0  0  0  0  3  0  0  0  0  0  0
  -31.0970  -17.1690   21.9370 C   0  0  0  0  0  3  0  0  0  0  0  0
  -30.6870  -19.8710   21.5550 C   0  0  0  0  0  3  0  0  0  0  0  0
  -30.0220  -18.9930   20.6450 C   0  0  0  0  0  0  0  0  0  0  0  0
  -31.4650  -19.4600   22.6460 C   0  0  0  0  0  0  0  0  0  0  0  0
  -30.2750  -17.5260   20.8260 C   0  0  0  0  0  0  0  0  0  0  0  0
  -30.4520  -15.0960   19.8960 C   0  0  0  0  0  0  0  0  0  0  0  0
  -30.2510  -12.7290   19.0450 C   0  0  0  0  0  2  0  0  0  0  0  0
  -29.2800  -12.5930   17.8540 C   0  0  0  0  0  2  0  0  0  0  0  0
  -27.8420  -12.3900   18.3570 C   0  0  0  0  0  2  0  0  0  0  0  0
  -27.4530  -13.4090   19.4600 C   0  0  0  0  0  3  0  0  0  0  0  0
  -28.5380  -13.5310   20.5500 C   0  0  0  0  0  2  0  0  0  0  0  0
  -29.7970  -13.8740   19.8780 N   0  0  0  0  0  0  0  0  0  0  0  0
  -31.6220  -15.1370   19.5070 O   0  0  0  0  0  0  0  0  0  0  0  0
  -29.7650  -16.2950   20.1390 N   0  0  0  0  0  0  0  0  0  0  0  0
  -28.7590  -16.2220   20.0960 H   0  0  0  0  0  0  0  0  0  0  0  0
  -25.0920  -13.9990   20.2580 C   0  0  0  0  0  0  0  0  0  0  0  0
  -24.0500  -13.2300   20.6980 C   0  0  0  0  0  0  0  0  0  0  0  0
  -24.5280  -11.8840   20.7030 C   0  0  0  0  0  0  0  0  0  0  0  0
  -26.1360  -13.1230   20.0190 N   0  0  0  0  0  0  0  0  0  0  0  0
  -25.8090  -11.8470   20.3520 N   0  0  0  0  0  0  0  0  0  0  0  0
  -23.8260  -10.6200   20.9690 C   0  0  0  0  0  0  0  0  0  0  0  0
  -24.2910   -9.7030   21.9360 C   0  0  0  0  0  3  0  0  0  0  0  0
  -23.5860   -8.5060   22.1860 C   0  0  0  0  0  3  0  0  0  0  0  0
  -22.4010   -8.2190   21.4700 C   0  0  0  0  0  0  0  0  0  0  0  0
  -21.9530   -9.1240   20.4920 C   0  0  0  0  0  3  0  0  0  0  0  0
  -22.6580  -10.3120   20.2410 C   0  0  0  0  0  3  0  0  0  0  0  0
  -21.6630   -7.0700   21.6280 O   0  0  0  0  0  0  0  0  0  0  0  0
  -21.6650   -6.3710   22.8090 C   0  0  0  0  0  0  0  0  0  0  0  0
  -21.2480   -6.9610   24.0230 C   0  0  0  0  0  3  0  0  0  0  0  0
  -21.1970   -6.1870   25.1990 C   0  0  0  0  0  3  0  0  0  0  0  0
  -21.5540   -4.8260   25.1640 C   0  0  0  0  0  0  0  0  0  0  0  0
  -21.9640   -4.2360   23.9550 C   0  0  0  0  0  3  0  0  0  0  0  0
  -22.0150   -5.0070   22.7810 C   0  0  0  0  0  0  0  0  0  0  0  0
  -22.3900   -4.4290   21.6150 F   0  0  0  0  0  0  0  0  0  0  0  0
  -21.4980   -4.0810   26.2920 F   0  0  0  0  0  0  0  0  0  0  0  0
  -22.6580  -13.7020   21.0000 C   0  0  0  0  0  0  0  0  0  0  0  0
  -21.9800  -13.0480   21.9370 N   0  0  0  0  0  0  0  0  0  0  0  0
  -22.1820  -14.6880   20.4400 O   0  0  0  0  0  0  0  0  0  0  0  0
  -22.3800  -12.2510   22.4110 H   0  0  0  0  0  0  0  0  0  0  0  0
  -21.0490  -13.3480   22.1870 H   0  0  0  0  0  0  0  0  0  0  0  0
  -25.2320  -15.3610   20.0110 N   0  0  0  0  0  0  0  0  0  0  0  0
  -24.4490  -16.0040   20.0710 H   0  0  0  0  0  0  0  0  0  0  0  0
  -26.0470  -15.7750   19.5780 H   0  0  0  0  0  0  0  0  0  0  0  0
  -29.2520  -19.7950   19.5380 C   0  0  0  0  0  0  0  0  0  0  0  0
  -28.0840  -21.3100   21.1150 C   0  0  0  0  0  1  0  0  0  0  0  0
  -28.7220  -21.0790   19.8140 N   0  0  0  0  0  0  0  0  0  0  0  0
  -29.2250  -19.3300   18.3950 O   0  0  0  0  0  0  0  0  0  0  0  0
  -28.3490  -22.2110   18.8330 C   0  0  0  0  0  2  0  0  0  0  0  0
  -28.6470  -23.7940   19.1720 C   0  0  0  0  0  3  0  0  0  0  0  0
  -27.7210  -24.9770   18.5210 C   0  0  0  0  0  3  0  0  0  0  0  0
  -27.9700  -26.4770   18.6470 O   0  0  0  0  0  0  0  0  0  0  0  0
  -24.6020  -31.5030   22.6890 C   0  0  0  0  0  0  0  0  0  0  0  0
  -26.8880  -27.3930   18.7780 C   0  0  0  0  0  0  0  0  0  0  0  0
  -23.2450  -30.3200   21.0070 C   0  0  0  0  0  3  0  0  0  0  0  0
  -24.5460  -29.0200   19.2220 C   0  0  0  0  0  0  0  0  0  0  0  0
  -25.7590  -30.6940   20.6130 C   0  0  0  0  0  2  0  0  0  0  0  0
  -25.7750  -29.4200   19.7620 C   0  0  0  0  0  0  0  0  0  0  0  0
  -26.9450  -28.6220   19.5290 C   0  0  0  0  0  3  0  0  0  0  0  0
  -25.6350  -27.0900   18.1990 C   0  0  0  0  0  3  0  0  0  0  0  0
  -24.4820  -27.8670   18.4280 C   0  0  0  0  0  3  0  0  0  0  0  0
  -23.3180  -29.8590   19.5280 C   0  0  0  0  0  2  0  0  0  0  0  0
  -24.5590  -30.8510   21.4900 N   0  0  0  0  0  0  0  0  0  0  0  0
  -23.5770  -31.6810   23.3660 O   0  0  0  0  0  0  0  0  0  0  0  0
  -22.6940  -29.1610   21.8760 C   0  0  0  0  0  0  0  0  0  0  0  0
  -21.3600  -28.9940   21.8950 N   0  0  0  0  0  0  0  0  0  0  0  0
  -23.4620  -28.4260   22.5000 O   0  0  0  0  0  0  0  0  0  0  0  0
  -20.7950  -29.6430   21.3670 H   0  0  0  0  0  0  0  0  0  0  0  0
  -18.0630  -27.6700   22.5870 C   0  0  0  0  0  0  0  0  0  0  0  0
  -20.6360  -27.9430   22.6120 C   0  0  0  0  0  3  0  0  0  0  0  0
  -20.6800  -26.6040   21.8390 C   0  0  0  0  0  2  0  0  0  0  0  0
  -19.4750  -26.4010   20.9150 C   0  0  0  0  0  2  0  0  0  0  0  0
  -18.1710  -26.4290   21.7180 C   0  0  0  0  0  2  0  0  0  0  0  0
  -19.2190  -28.3900   22.9950 C   0  0  0  0  0  0  0  0  0  0  0  0
  -19.0580  -29.5540   23.7770 C   0  0  0  0  0  3  0  0  0  0  0  0
  -17.7770  -30.0000   24.1510 C   0  0  0  0  0  3  0  0  0  0  0  0
  -16.6390  -29.2750   23.7620 C   0  0  0  0  0  3  0  0  0  0  0  0
  -16.7830  -28.1110   22.9830 C   0  0  0  0  0  3  0  0  0  0  0  0
  -25.9360  -32.0760   23.2570 C   0  0  0  0  0  3  0  0  0  0  0  0
  -25.6260  -33.3630   23.8980 N   0  0  0  0  0  0  0  0  0  0  0  0
  -25.8910  -34.5640   23.3680 C   0  0  0  0  0  0  0  0  0  0  0  0
  -26.4880  -34.7050   22.2990 O   0  0  0  0  0  0  0  0  0  0  0  0
  -25.0840  -33.3220   24.7490 H   0  0  0  0  0  0  0  0  0  0  0  0
  -24.1320  -36.3580   23.5130 C   0  0  0  0  0  1  0  0  0  0  0  0
  -25.4170  -35.8060   24.1500 C   0  0  0  0  0  3  0  0  0  0  0  0
  -27.5830  -36.5260   25.0530 C   0  0  0  0  0  1  0  0  0  0  0  0
  -26.4340  -36.8790   24.2240 N   0  0  0  0  0  0  0  0  0  0  0  0
  -26.0280  -37.7340   24.5940 H   0  0  0  0  0  0  0  0  0  0  0  0
  -26.6400  -31.1060   24.2850 C   0  0  1  0  0  0  0  0  0  0  0  0
  -25.7070  -30.6140   25.4170 C   0  0  0  0  0  1  0  0  0  0  0  0
  -27.2060  -29.8610   23.5660 C   0  0  0  0  0  1  0  0  0  0  0  0
  -27.8450  -31.8260   24.9360 C   0  0  0  0  0  1  0  0  0  0  0  0
  -31.1360  -21.1890   24.3920 C   0  0  0  0  0  1  0  0  0  0  0  0
  -32.0210  -20.4050   23.5310 N   0  0  0  0  0  0  0  0  0  0  0  0
  -33.4560  -20.7010   23.4850 C   0  0  0  0  0  2  0  0  0  0  0  0
  -33.9180  -21.1800   22.0910 C   0  0  0  0  0  2  0  0  0  0  0  0
  -36.2650  -20.3790   22.1700 C   0  0  0  0  0  1  0  0  0  0  0  0
  -35.6720  -22.3360   20.8250 C   0  0  0  0  0  1  0  0  0  0  0  0
  -35.3570  -21.5420   22.0350 N   0  0  1  0  0  4  0  0  0  0  0  0
  -35.5350  -22.1490   22.8220 H   0  0  0  0  0  0  0  0  0  0  0  0
  2  1  2  0
  3  5  2  0
  4  6  2  0
  4  3  1  0
  5  1  1  0
  5 94  1  0
  6  2  1  0
  7 15  1  0
  8 13  1  0
  9 10  1  0
  9  8  1  0
 11 10  1  0
 11 20  1  0
 11 12  1  0
 13  7  1  0
 13 12  1  0
 14  7  2  0
 15  6  1  0
 16 15  1  0
 17 18  2  0
 18 19  1  0
 18 37  1  0
 19 22  1  0
 20 17  1  0
 20 21  1  0
 21 19  2  0
 22 23  1  0
 23 24  2  0
 25 28  1  0
 25 24  1  0
 26 25  2  0
 27 26  1  0
 27 22  2  0
 28 29  1  0
 29 30  1  0
 30 31  2  0
 32 31  1  0
 32 36  1  0
 33 32  2  0
 34 29  2  0
 34 33  1  0
 35 34  1  0
 37 38  1  0
 38 41  1  0
 38 40  1  0
 39 37  2  0
 42 43  1  0
 42 17  1  0
 44 42  1  0
 45 47  1  0
 45  4  1  0
 47 46  1  0
 48 45  2  0
 49 50  1  0
 49 47  1  0
 51 52  1  0
 51 50  2  0
 52 54  1  0
 53 64  2  0
 54 59  1  0
 55 63  1  0
 55 65  1  0
 56 62  1  0
 56 58  1  0
 57 63  1  0
 58 57  1  0
 59 58  2  0
 60 61  1  0
 60 54  2  0
 61 56  2  0
 62 55  1  0
 63 53  1  0
 65 66  1  0
 65 67  2  0
 68 66  1  0
 69 78  2  0
 69 74  1  0
 70 66  1  0
 70 74  1  0
 71 70  1  0
 72 73  1  0
 72 71  1  0
 73 69  1  0
 74 75  2  0
 75 76  1  0
 77 76  2  0
 78 77  1  0
 79 53  1  0
 79 80  1  0
 79 89  1  0
 80 83  1  0
 81 80  1  0
 81 85  1  0
 82 81  2  0
 85 84  1  0
 85 87  1  0
 87 88  1  0
 87 86  1  0
 89 92  1  1
 89 90  1  0
 91 89  1  0
 94 93  1  0
 95 94  1  0
 96 95  1  0
 98 99  1  0
 99 96  1  0
 99 97  1  0
 99100  1  1
M  ISO  4   7 100  15 100  51 101  52 101
M  END
>  <TORSDO>  (96) 
F 24

>  <SCORE>  (96) 
-10.580

>  <name>  (96) 
95

>  <ligand_id>  (96) 
95

>  <original_smiles>  (96) 
[H]c1c([H])c([H])c2c(c1[H])C([H])([H])C([H])([H])C([H])([H])C2([H])N([H])C(=O)C1([H])N(C(=O)C([H])(N([H])C(=O)C([H])(N([H])C([H])([H])[H])C([H])([H])[H])C(C([H])([H])[H])(C([H])([H])[H])C([H])([H])[H])C([H])([H])c2c([H])c(OC([H])([H])C([H])([H])C([H])([H])N(C(=O)c3c([H])c(N(C([H])([H])[H])C([H])([H])C([H])([H])[N+]([H])(C([H])([H])[H])C([H])([H])[H])c([H])c([H])c3N([H])C(=O)N3C([H])([H])C([H])([H])C([H])([H])C([H])(n4nc(-c5c([H])c([H])c(Oc6c([H])c([H])c(F)c([H])c6F)c([H])c5[H])c(C(=O)N([H])[H])c4N([H])[H])C3([H])[H])C([H])([H])[H])c([H])c([H])c2C1([H])[H]

>  <smiles>  (96) 
[H]c1c([H])c([H])c2c(c1[H])C([H])([H])C([H])([H])C([H])([H])C2([H])N([H])C(=O)C1([H])N(C(=O)C([H])(N([H])C(=O)C([H])(N([H])C([H])([H])[H])C([H])([H])[H])C(C([H])([H])[H])(C([H])([H])[H])C([H])([H])[H])C([H])([H])c2c([H])c(OC([H])([H])C([H])([H])C([H])([H])N(C(=O)c3c([H])c(N(C([H])([H])[H])C([H])([H])C([H])([H])[N+]([H])(C([H])([H])[H])C([H])([H])[H])c([H])c([H])c3N([H])C(=O)N3C([H])([H])C([H])([H])C([H])([H])C([H])(n4nc(-c5c([H])c([H])c(Oc6c([H])c([H])c(F)c([H])c6F)c([H])c5[H])c(C(=O)N([H])[H])c4N([H])[H])C3([H])[H])C([H])([H])[H])c([H])c([H])c2C1([H])[H]

$$$$
96:0:0
     RDKit          3D

 88 95  0  0  1  0  0  0  0  0999 V2000
  -31.4210  -20.6260   20.9030 C   0  0  0  0  0  3  0  0  0  0  0  0
  -31.0510  -19.2420   20.7460 C   0  0  0  0  0  3  0  0  0  0  0  0
  -30.5590  -21.7760   20.7370 C   0  0  0  0  0  3  0  0  0  0  0  0
  -28.8470  -20.1080   20.2700 C   0  0  0  0  0  3  0  0  0  0  0  0
  -29.7450  -18.7780   20.4050 C   0  0  0  0  0  0  0  0  0  0  0  0
  -29.1580  -21.6810   20.4100 C   0  0  0  0  0  3  0  0  0  0  0  0
  -30.2700  -15.6890   20.1990 C   0  0  0  0  0  0  0  0  0  0  0  0
  -30.3350  -13.1350   19.4080 C   0  0  0  0  0  2  0  0  0  0  0  0
  -29.4770  -12.7880   18.1610 C   0  0  0  0  0  2  0  0  0  0  0  0
  -28.0490  -12.4180   18.5950 C   0  0  0  0  0  2  0  0  0  0  0  0
  -27.5200  -13.4030   19.6690 C   0  0  0  0  0  3  0  0  0  0  0  0
  -28.5350  -13.6990   20.8050 C   0  0  0  0  0  2  0  0  0  0  0  0
  -29.7310  -14.3210   20.1790 N   0  0  0  0  0  0  0  0  0  0  0  0
  -31.4710  -15.6210   19.8750 O   0  0  0  0  0  0  0  0  0  0  0  0
  -29.5420  -17.0620   20.3690 N   0  0  0  0  0  0  0  0  0  0  0  0
  -28.6150  -16.8350   20.6840 H   0  0  0  0  0  0  0  0  0  0  0  0
  -25.1610  -13.8920   20.4710 C   0  0  0  0  0  0  0  0  0  0  0  0
  -24.1130  -13.0990   20.8520 C   0  0  0  0  0  0  0  0  0  0  0  0
  -24.5970  -11.7550   20.7970 C   0  0  0  0  0  0  0  0  0  0  0  0
  -26.2050  -13.0360   20.1890 N   0  0  0  0  0  0  0  0  0  0  0  0
  -25.8850  -11.7400   20.4630 N   0  0  0  0  0  0  0  0  0  0  0  0
  -23.8850  -10.4880   21.0020 C   0  0  0  0  0  0  0  0  0  0  0  0
  -24.3290   -9.5290   21.9410 C   0  0  0  0  0  3  0  0  0  0  0  0
  -23.6200   -8.3210   22.1220 C   0  0  0  0  0  3  0  0  0  0  0  0
  -22.4490   -8.0690   21.3670 C   0  0  0  0  0  0  0  0  0  0  0  0
  -22.0230   -9.0190   20.4240 C   0  0  0  0  0  3  0  0  0  0  0  0
  -22.7350  -10.2160   20.2410 C   0  0  0  0  0  3  0  0  0  0  0  0
  -21.7040   -6.9180   21.4650 O   0  0  0  0  0  0  0  0  0  0  0  0
  -21.6540   -6.1810   22.6190 C   0  0  0  0  0  0  0  0  0  0  0  0
  -21.2110   -6.7400   23.8400 C   0  0  0  0  0  3  0  0  0  0  0  0
  -21.1100   -5.9310   24.9880 C   0  0  0  0  0  3  0  0  0  0  0  0
  -21.4510   -4.5670   24.9230 C   0  0  0  0  0  0  0  0  0  0  0  0
  -21.8910   -4.0060   23.7100 C   0  0  0  0  0  3  0  0  0  0  0  0
  -21.9950   -4.8120   22.5620 C   0  0  0  0  0  0  0  0  0  0  0  0
  -22.4010   -4.2650   21.3890 F   0  0  0  0  0  0  0  0  0  0  0  0
  -21.3480   -3.7880   26.0250 F   0  0  0  0  0  0  0  0  0  0  0  0
  -22.7150  -13.5630   21.1260 C   0  0  0  0  0  0  0  0  0  0  0  0
  -21.9890  -12.8670   21.9950 N   0  0  0  0  0  0  0  0  0  0  0  0
  -22.2680  -14.5790   20.6040 O   0  0  0  0  0  0  0  0  0  0  0  0
  -22.3620  -12.0540   22.4520 H   0  0  0  0  0  0  0  0  0  0  0  0
  -21.0490  -13.1730   22.2070 H   0  0  0  0  0  0  0  0  0  0  0  0
  -25.3130  -15.2700   20.3090 N   0  0  0  0  0  0  0  0  0  0  0  0
  -24.5720  -15.9360   20.5160 H   0  0  0  0  0  0  0  0  0  0  0  0
  -26.1810  -15.7100   20.0180 H   0  0  0  0  0  0  0  0  0  0  0  0
  -27.1170  -23.4680   21.6340 O   0  0  0  0  0  1  0  0  0  0  0  0
  -27.0250  -23.3710   19.1540 O   0  0  0  0  0  0  0  0  0  0  0  0
  -27.8560  -23.5760   20.3660 S   0  0  0  0  0  0  0  0  0  0  0  0
  -28.2360  -25.5570   20.3050 O   0  0  0  0  0  0  0  0  0  0  0  0
  -24.6690  -31.8820   23.1920 C   0  0  0  0  0  0  0  0  0  0  0  0
  -27.2540  -26.7800   20.2730 C   0  0  0  0  0  0  0  0  0  0  0  0
  -23.4890  -30.4750   21.5640 C   0  0  0  0  0  3  0  0  0  0  0  0
  -24.9560  -28.8000   20.1990 C   0  0  0  0  0  0  0  0  0  0  0  0
  -26.0740  -30.6100   21.4590 C   0  0  0  0  0  2  0  0  0  0  0  0
  -26.1490  -29.1650   20.8280 C   0  0  0  0  0  0  0  0  0  0  0  0
  -27.2780  -28.1890   20.8330 C   0  0  0  0  0  3  0  0  0  0  0  0
  -26.0190  -26.6240   19.5820 C   0  0  0  0  0  3  0  0  0  0  0  0
  -24.9260  -27.5460   19.5560 C   0  0  0  0  0  3  0  0  0  0  0  0
  -23.7350  -29.7380   20.2190 C   0  0  0  0  0  2  0  0  0  0  0  0
  -24.7710  -31.0260   22.1200 N   0  0  0  0  0  0  0  0  0  0  0  0
  -23.5750  -32.1980   23.6880 O   0  0  0  0  0  0  0  0  0  0  0  0
  -22.7540  -29.5230   22.5410 C   0  0  0  0  0  0  0  0  0  0  0  0
  -21.4220  -29.3840   22.4070 N   0  0  0  0  0  0  0  0  0  0  0  0
  -23.3960  -28.9000   23.3890 O   0  0  0  0  0  0  0  0  0  0  0  0
  -20.9570  -29.9270   21.6910 H   0  0  0  0  0  0  0  0  0  0  0  0
  -18.0110  -28.2270   22.9090 C   0  0  0  0  0  0  0  0  0  0  0  0
  -20.5770  -28.4650   23.1790 C   0  0  0  0  0  3  0  0  0  0  0  0
  -20.6570  -27.0300   22.6060 C   0  0  0  0  0  2  0  0  0  0  0  0
  -19.5520  -26.7180   21.5890 C   0  0  0  0  0  2  0  0  0  0  0  0
  -18.1710  -26.8770   22.2270 C   0  0  0  0  0  2  0  0  0  0  0  0
  -19.1380  -28.9800   23.3380 C   0  0  0  0  0  0  0  0  0  0  0  0
  -18.9270  -30.2380   23.9420 C   0  0  0  0  0  3  0  0  0  0  0  0
  -17.6270  -30.7510   24.1110 C   0  0  0  0  0  3  0  0  0  0  0  0
  -16.5170  -29.9980   23.7000 C   0  0  0  0  0  3  0  0  0  0  0  0
  -16.7070  -28.7390   23.1040 C   0  0  0  0  0  3  0  0  0  0  0  0
  -25.9280  -32.5350   23.8460 C   0  0  0  0  0  3  0  0  0  0  0  0
  -25.6060  -33.9390   24.1800 N   0  0  0  0  0  0  0  0  0  0  0  0
  -25.9340  -35.0060   23.4390 C   0  0  0  0  0  0  0  0  0  0  0  0
  -26.5960  -34.9160   22.4040 O   0  0  0  0  0  0  0  0  0  0  0  0
  -25.0050  -34.0780   24.9800 H   0  0  0  0  0  0  0  0  0  0  0  0
  -24.1910  -36.8010   23.1450 C   0  0  0  0  0  1  0  0  0  0  0  0
  -25.4570  -36.3930   23.9160 C   0  0  0  0  0  3  0  0  0  0  0  0
  -27.6150  -37.2840   24.6900 C   0  0  0  0  0  1  0  0  0  0  0  0
  -26.4810  -37.4520   23.7800 N   0  0  0  0  0  0  0  0  0  0  0  0
  -26.0780  -38.3680   23.9430 H   0  0  0  0  0  0  0  0  0  0  0  0
  -26.4120  -31.7730   25.1470 C   0  0  1  0  0  0  0  0  0  0  0  0
  -25.2930  -31.5670   26.1950 C   0  0  0  0  0  1  0  0  0  0  0  0
  -26.9760  -30.3770   24.7900 C   0  0  0  0  0  1  0  0  0  0  0  0
  -27.5630  -32.5550   25.8220 C   0  0  0  0  0  1  0  0  0  0  0  0
  2  1  1  0
  3  1  2  0
  4  5  1  0
  4  6  2  0
  5  2  2  0
  6  3  1  0
  7 15  1  0
  8 13  1  0
  9 10  1  0
  9  8  1  0
 11 10  1  0
 11 20  1  0
 11 12  1  0
 13  7  1  0
 13 12  1  0
 14  7  2  0
 15  5  1  0
 15 16  1  0
 17 18  2  0
 18 37  1  0
 19 18  1  0
 19 22  1  0
 20 21  1  0
 20 17  1  0
 21 19  2  0
 22 23  1  0
 23 24  2  0
 25 28  1  0
 25 24  1  0
 26 25  2  0
 27 26  1  0
 27 22  2  0
 28 29  1  0
 29 30  1  0
 30 31  2  0
 32 31  1  0
 32 36  1  0
 33 32  2  0
 34 29  2  0
 34 33  1  0
 35 34  1  0
 37 38  1  0
 38 41  1  0
 38 40  1  0
 39 37  2  0
 42 17  1  0
 42 43  1  0
 44 42  1  0
 47 46  2  0
 47 45  1  0
 48 47  1  0
 49 60  2  0
 50 48  1  0
 50 55  1  0
 51 59  1  0
 51 61  1  0
 52 58  1  0
 52 54  1  0
 53 59  1  0
 54 55  2  0
 54 53  1  0
 56 50  2  0
 57 56  1  0
 57 52  2  0
 58 51  1  0
 59 49  1  0
 61 63  2  0
 62 61  1  0
 64 62  1  0
 65 74  2  0
 65 70  1  0
 66 62  1  0
 66 70  1  0
 67 66  1  0
 68 69  1  0
 68 67  1  0
 69 65  1  0
 70 71  2  0
 71 72  1  0
 73 72  2  0
 74 73  1  0
 75 49  1  0
 75 76  1  0
 75 85  1  0
 76 79  1  0
 77 81  1  0
 77 76  1  0
 78 77  2  0
 81 80  1  0
 83 81  1  0
 83 84  1  0
 83 82  1  0
 85 88  1  1
 85 86  1  0
 87 85  1  0
M  ISO  4   7 100  15 100  47 101  48 101
M  END
>  <TORSDO>  (97) 
F 17

>  <SCORE>  (97) 
-16.794

>  <name>  (97) 
96

>  <ligand_id>  (97) 
96

>  <original_smiles>  (97) 
[H]c1c([H])c([H])c2c(c1[H])C([H])([H])C([H])([H])C([H])([H])C2([H])N([H])C(=O)C1([H])N(C(=O)C([H])(N([H])C(=O)C([H])(N([H])C([H])([H])[H])C([H])([H])[H])C(C([H])([H])[H])(C([H])([H])[H])C([H])([H])[H])C([H])([H])c2c([H])c(OS(=O)(=O)c3c([H])c([H])c([H])c(N([H])C(=O)N4C([H])([H])C([H])([H])C([H])([H])C([H])(n5nc(-c6c([H])c([H])c(Oc7c([H])c([H])c(F)c([H])c7F)c([H])c6[H])c(C(=O)N([H])[H])c5N([H])[H])C4([H])[H])c3[H])c([H])c([H])c2C1([H])[H]

>  <smiles>  (97) 
[H]c1c([H])c([H])c2c(c1[H])C([H])([H])C([H])([H])C([H])([H])C2([H])N([H])C(=O)C1([H])N(C(=O)C([H])(N([H])C(=O)C([H])(N([H])C([H])([H])[H])C([H])([H])[H])C(C([H])([H])[H])(C([H])([H])[H])C([H])([H])[H])C([H])([H])c2c([H])c(OS(=O)(=O)c3c([H])c([H])c([H])c(N([H])C(=O)N4C([H])([H])C([H])([H])C([H])([H])C([H])(n5nc(-c6c([H])c([H])c(Oc7c([H])c([H])c(F)c([H])c7F)c([H])c6[H])c(C(=O)N([H])[H])c5N([H])[H])C4([H])[H])c3[H])c([H])c([H])c2C1([H])[H]

$$$$
