0:0:0
     RDKit          3D

 94102  0  0  1  0  0  0  0  0999 V2000
  -31.5900  -17.7820   20.3570 C   0  0  0  0  0  3  0  0  0  0  0  0
  -29.6480  -19.9030   20.4820 C   0  0  0  0  0  0  0  0  0  0  0  0
  -30.2380  -17.3880   20.5110 C   0  0  0  0  0  0  0  0  0  0  0  0
  -31.9690  -19.1370   20.2560 C   0  0  0  0  0  0  0  0  0  0  0  0
  -29.2830  -18.4880   20.5830 C   0  0  0  0  0  0  0  0  0  0  0  0
  -31.0210  -20.1770   20.3120 C   0  0  0  0  0  0  0  0  0  0  0  0
  -33.2820  -19.4440   20.1160 F   0  0  0  0  0  0  0  0  0  0  0  0
  -27.9790  -18.1700   20.7620 F   0  0  0  0  0  0  0  0  0  0  0  0
  -31.4590  -21.4570   20.2220 F   0  0  0  0  0  0  0  0  0  0  0  0
  -30.5950  -14.7710   20.3820 C   0  0  0  0  0  0  0  0  0  0  0  0
  -30.3500  -12.5000   19.3690 C   0  0  0  0  0  2  0  0  0  0  0  0
  -29.4170  -12.5850   18.1400 C   0  0  0  0  0  2  0  0  0  0  0  0
  -27.9470  -12.4250   18.5670 C   0  0  0  0  0  2  0  0  0  0  0  0
  -27.5790  -13.3100   19.7880 C   0  0  0  0  0  3  0  0  0  0  0  0
  -28.6370  -13.2240   20.9100 C   0  0  0  0  0  2  0  0  0  0  0  0
  -29.9350  -13.5640   20.3150 N   0  0  0  0  0  0  0  0  0  0  0  0
  -31.7830  -14.8080   20.0550 O   0  0  0  0  0  0  0  0  0  0  0  0
  -29.8650  -15.9390   20.6070 N   0  0  0  0  0  0  0  0  0  0  0  0
  -28.8890  -15.7770   20.8080 H   0  0  0  0  0  0  0  0  0  0  0  0
  -25.1910  -13.9020   20.5100 C   0  0  0  0  0  0  0  0  0  0  0  0
  -24.1240  -13.1290   20.8790 C   0  0  0  0  0  0  0  0  0  0  0  0
  -24.5890  -11.7780   20.8600 C   0  0  0  0  0  0  0  0  0  0  0  0
  -26.2360  -13.0210   20.2810 N   0  0  0  0  0  0  0  0  0  0  0  0
  -25.8810  -11.7400   20.5570 N   0  0  0  0  0  0  0  0  0  0  0  0
  -23.8610  -10.5160   21.0560 C   0  0  0  0  0  0  0  0  0  0  0  0
  -24.3000   -9.5460   21.9820 C   0  0  0  0  0  3  0  0  0  0  0  0
  -23.5710   -8.3510   22.1660 C   0  0  0  0  0  3  0  0  0  0  0  0
  -22.3890   -8.1180   21.4230 C   0  0  0  0  0  0  0  0  0  0  0  0
  -21.9700   -9.0770   20.4850 C   0  0  0  0  0  3  0  0  0  0  0  0
  -22.6990  -10.2640   20.2990 C   0  0  0  0  0  3  0  0  0  0  0  0
  -21.6330   -6.9760   21.5160 O   0  0  0  0  0  0  0  0  0  0  0  0
  -21.6060   -6.2200   22.6600 C   0  0  0  0  0  0  0  0  0  0  0  0
  -21.2240   -6.7680   23.9050 C   0  0  0  0  0  3  0  0  0  0  0  0
  -21.1430   -5.9410   25.0430 C   0  0  0  0  0  3  0  0  0  0  0  0
  -21.4350   -4.5680   24.9390 C   0  0  0  0  0  0  0  0  0  0  0  0
  -21.8090   -4.0190   23.6990 C   0  0  0  0  0  3  0  0  0  0  0  0
  -21.8910   -4.8440   22.5630 C   0  0  0  0  0  0  0  0  0  0  0  0
  -22.2330   -4.3060   21.3670 F   0  0  0  0  0  0  0  0  0  0  0  0
  -21.3490   -3.7710   26.0300 F   0  0  0  0  0  0  0  0  0  0  0  0
  -22.7260  -13.6090   21.1410 C   0  0  0  0  0  0  0  0  0  0  0  0
  -21.9960  -12.9180   22.0100 N   0  0  0  0  0  0  0  0  0  0  0  0
  -22.2910  -14.6310   20.6120 O   0  0  0  0  0  0  0  0  0  0  0  0
  -22.3610  -12.0910   22.4580 H   0  0  0  0  0  0  0  0  0  0  0  0
  -21.0590  -13.2220   22.2340 H   0  0  0  0  0  0  0  0  0  0  0  0
  -25.3540  -15.2720   20.3240 N   0  0  0  0  0  0  0  0  0  0  0  0
  -24.5840  -15.9250   20.4300 H   0  0  0  0  0  0  0  0  0  0  0  0
  -26.2040  -15.7180   20.0050 H   0  0  0  0  0  0  0  0  0  0  0  0
  -28.6210  -21.1220   20.6380 C   0  0  0  0  0  2  0  0  0  0  0  0
  -28.4070  -23.7670   20.5390 C   0  0  0  0  0  0  0  0  0  0  0  0
  -28.8690  -22.5360   20.0880 N   0  0  0  0  0  0  0  0  0  0  0  0
  -27.8500  -23.8490   21.6370 O   0  0  0  0  0  0  0  0  0  0  0  0
  -29.3380  -22.5640   19.1920 H   0  0  0  0  0  0  0  0  0  0  0  0
  -28.5220  -25.0960   19.6460 C   0  0  0  0  0  2  0  0  0  0  0  0
  -28.3930  -26.4480   20.2970 O   0  0  0  0  0  0  0  0  0  0  0  0
  -24.6240  -31.8850   23.2410 C   0  0  0  0  0  0  0  0  0  0  0  0
  -27.2620  -27.2910   20.2030 C   0  0  0  0  0  0  0  0  0  0  0  0
  -23.4320  -30.4780   21.6000 C   0  0  0  0  0  3  0  0  0  0  0  0
  -24.8930  -28.9260   20.1750 C   0  0  0  0  0  0  0  0  0  0  0  0
  -25.9730  -30.7940   21.4270 C   0  0  0  0  0  2  0  0  0  0  0  0
  -26.0570  -29.4100   20.7810 C   0  0  0  0  0  0  0  0  0  0  0  0
  -27.2390  -28.6040   20.7880 C   0  0  0  0  0  3  0  0  0  0  0  0
  -26.0690  -26.8660   19.5760 C   0  0  0  0  0  3  0  0  0  0  0  0
  -24.9050  -27.6620   19.5610 C   0  0  0  0  0  3  0  0  0  0  0  0
  -23.6520  -29.7970   20.2220 C   0  0  0  0  0  2  0  0  0  0  0  0
  -24.6960  -31.0710   22.1460 N   0  0  0  0  0  0  0  0  0  0  0  0
  -23.5380  -32.1590   23.7710 O   0  0  0  0  0  0  0  0  0  0  0  0
  -22.7690  -29.4630   22.5630 C   0  0  0  0  0  0  0  0  0  0  0  0
  -21.4420  -29.2870   22.4400 N   0  0  0  0  0  0  0  0  0  0  0  0
  -23.4490  -28.8370   23.3800 O   0  0  0  0  0  0  0  0  0  0  0  0
  -20.9530  -29.8450   21.7530 H   0  0  0  0  0  0  0  0  0  0  0  0
  -18.0640  -28.0930   22.9490 C   0  0  0  0  0  0  0  0  0  0  0  0
  -20.6230  -28.3490   23.2110 C   0  0  0  0  0  3  0  0  0  0  0  0
  -20.7210  -26.9180   22.6340 C   0  0  0  0  0  2  0  0  0  0  0  0
  -19.6160  -26.5980   21.6230 C   0  0  0  0  0  2  0  0  0  0  0  0
  -18.2370  -26.7450   22.2700 C   0  0  0  0  0  2  0  0  0  0  0  0
  -19.1850  -28.8530   23.3760 C   0  0  0  0  0  0  0  0  0  0  0  0
  -18.9700  -30.1150   23.9710 C   0  0  0  0  0  3  0  0  0  0  0  0
  -17.6670  -30.6180   24.1430 C   0  0  0  0  0  3  0  0  0  0  0  0
  -16.5600  -29.8550   23.7310 C   0  0  0  0  0  3  0  0  0  0  0  0
  -16.7590  -28.5940   23.1400 C   0  0  0  0  0  3  0  0  0  0  0  0
  -25.9010  -32.5260   23.8660 C   0  0  0  0  0  3  0  0  0  0  0  0
  -26.4130  -31.7630   25.1490 C   0  0  1  0  0  0  0  0  0  0  0  0
  -25.3160  -31.5300   26.2140 C   0  0  0  0  0  1  0  0  0  0  0  0
  -27.0000  -30.3840   24.7670 C   0  0  0  0  0  1  0  0  0  0  0  0
  -27.5600  -32.5640   25.8110 C   0  0  0  0  0  1  0  0  0  0  0  0
  -25.5830  -33.9240   24.1900 N   0  0  0  0  0  0  0  0  0  0  0  0
  -25.9160  -34.9780   23.4330 C   0  0  0  0  0  0  0  0  0  0  0  0
  -26.5930  -34.8750   22.4060 O   0  0  0  0  0  0  0  0  0  0  0  0
  -24.9800  -34.0770   24.9860 H   0  0  0  0  0  0  0  0  0  0  0  0
  -24.1820  -36.7640   23.0730 C   0  0  0  0  0  1  0  0  0  0  0  0
  -25.4240  -36.3650   23.8860 C   0  0  0  0  0  3  0  0  0  0  0  0
  -27.5570  -37.2570   24.7140 C   0  0  0  0  0  1  0  0  0  0  0  0
  -26.4530  -37.4230   23.7720 N   0  0  0  0  0  0  0  0  0  0  0  0
  -26.0440  -38.3410   23.9230 H   0  0  0  0  0  0  0  0  0  0  0  0
  1  3  1  0
  2  5  1  0
  2 48  1  0
  3  5  2  0
  3 18  1  0
  4  6  1  0
  4  1  2  0
  5  8  1  0
  6  2  2  0
  7  4  1  0
  9  6  1  0
 10 18  1  0
 11 16  1  0
 12 13  1  0
 12 11  1  0
 14 13  1  0
 14 23  1  0
 14 15  1  0
 16 10  1  0
 16 15  1  0
 17 10  2  0
 18 19  1  0
 20 21  2  0
 21 40  1  0
 22 21  1  0
 22 25  1  0
 23 20  1  0
 23 24  1  0
 24 22  2  0
 25 26  1  0
 26 27  2  0
 28 31  1  0
 28 27  1  0
 29 28  2  0
 30 29  1  0
 30 25  2  0
 31 32  1  0
 32 33  1  0
 33 34  2  0
 35 34  1  0
 35 39  1  0
 36 35  2  0
 37 32  2  0
 37 36  1  0
 38 37  1  0
 40 41  1  0
 41 44  1  0
 41 43  1  0
 42 40  2  0
 45 46  1  0
 45 20  1  0
 47 45  1  0
 49 51  2  0
 50 49  1  0
 50 48  1  0
 52 50  1  0
 53 54  1  0
 53 49  1  0
 55 66  2  0
 56 54  1  0
 56 61  1  0
 57 65  1  0
 57 67  1  0
 58 64  1  0
 58 60  1  0
 59 65  1  0
 60 61  2  0
 60 59  1  0
 62 56  2  0
 63 62  1  0
 63 58  2  0
 64 57  1  0
 65 55  1  0
 67 69  2  0
 68 67  1  0
 70 68  1  0
 71 80  2  0
 71 76  1  0
 72 68  1  0
 72 76  1  0
 73 72  1  0
 74 75  1  0
 74 73  1  0
 75 71  1  0
 76 77  2  0
 77 78  1  0
 79 78  2  0
 80 79  1  0
 81 55  1  0
 81 86  1  0
 81 82  1  0
 82 85  1  1
 82 83  1  0
 84 82  1  0
 86 89  1  0
 87 91  1  0
 87 86  1  0
 88 87  2  0
 91 90  1  0
 93 91  1  0
 93 94  1  0
 93 92  1  0
M  ISO  4  10 100  18 100  53 101  54 101
M  END
>  <TORSDO>  (1) 
F 19

>  <SCORE>  (1) 
-14.627

>  <name>  (1) 
0

>  <ligand_id>  (1) 
0

>  <original_smiles>  (1) 
[H]c1c([H])c([H])c2c(c1[H])C([H])([H])C([H])([H])C([H])([H])C2([H])N([H])C(=O)C1([H])N(C(=O)C([H])(N([H])C(=O)C([H])(N([H])C([H])([H])[H])C([H])([H])[H])C(C([H])([H])[H])(C([H])([H])[H])C([H])([H])[H])C([H])([H])c2c([H])c(OC([H])([H])C(=O)N([H])C([H])([H])c3c(F)c(F)c([H])c(N([H])C(=O)N4C([H])([H])C([H])([H])C([H])([H])C([H])(n5nc(-c6c([H])c([H])c(Oc7c([H])c([H])c(F)c([H])c7F)c([H])c6[H])c(C(=O)N([H])[H])c5N([H])[H])C4([H])[H])c3F)c([H])c([H])c2C1([H])[H]

>  <smiles>  (1) 
[H]c1c([H])c([H])c2c(c1[H])C([H])([H])C([H])([H])C([H])([H])C2([H])N([H])C(=O)C1([H])N(C(=O)C([H])(N([H])C(=O)C([H])(N([H])C([H])([H])[H])C([H])([H])[H])C(C([H])([H])[H])(C([H])([H])[H])C([H])([H])[H])C([H])([H])c2c([H])c(OC([H])([H])C(=O)N([H])C([H])([H])c3c(F)c(F)c([H])c(N([H])C(=O)N4C([H])([H])C([H])([H])C([H])([H])C([H])(n5nc(-c6c([H])c([H])c(Oc7c([H])c([H])c(F)c([H])c7F)c([H])c6[H])c(C(=O)N([H])[H])c5N([H])[H])C4([H])[H])c3F)c([H])c([H])c2C1([H])[H]

$$$$
1:0:0
     RDKit          3D

 91 98  0  0  1  0  0  0  0  0999 V2000
  -29.7980  -24.8410   19.9860 C   0  0  0  0  0  0  0  0  0  0  0  0
  -29.9300  -23.5110   19.8750 N   0  0  0  0  0  0  0  0  0  0  0  0
  -30.7340  -25.5660   20.3370 O   0  0  0  0  0  0  0  0  0  0  0  0
  -29.1250  -22.9790   19.5700 H   0  0  0  0  0  0  0  0  0  0  0  0
  -28.4210  -25.4430   19.6720 C   0  0  0  0  0  2  0  0  0  0  0  0
  -28.3900  -26.8010   20.1120 O   0  0  0  0  0  0  0  0  0  0  0  0
  -24.5650  -31.8860   23.2410 C   0  0  0  0  0  0  0  0  0  0  0  0
  -27.1860  -27.4700   20.1170 C   0  0  0  0  0  0  0  0  0  0  0  0
  -23.3420  -30.4910   21.6030 C   0  0  0  0  0  3  0  0  0  0  0  0
  -24.7810  -28.9570   20.1640 C   0  0  0  0  0  0  0  0  0  0  0  0
  -25.8640  -30.8500   21.3880 C   0  0  0  0  0  2  0  0  0  0  0  0
  -25.9410  -29.4830   20.7420 C   0  0  0  0  0  0  0  0  0  0  0  0
  -27.1430  -28.7460   20.7190 C   0  0  0  0  0  3  0  0  0  0  0  0
  -26.0040  -26.9460   19.5440 C   0  0  0  0  0  3  0  0  0  0  0  0
  -24.8070  -27.6860   19.5640 C   0  0  0  0  0  3  0  0  0  0  0  0
  -23.5370  -29.8140   20.2200 C   0  0  0  0  0  2  0  0  0  0  0  0
  -24.6080  -31.0900   22.1350 N   0  0  0  0  0  0  0  0  0  0  0  0
  -23.4880  -32.1580   23.7900 O   0  0  0  0  0  0  0  0  0  0  0  0
  -22.6980  -29.4670   22.5650 C   0  0  0  0  0  0  0  0  0  0  0  0
  -21.3760  -29.2750   22.4340 N   0  0  0  0  0  0  0  0  0  0  0  0
  -23.3850  -28.8470   23.3820 O   0  0  0  0  0  0  0  0  0  0  0  0
  -20.8830  -29.8270   21.7470 H   0  0  0  0  0  0  0  0  0  0  0  0
  -18.0150  -28.0380   22.9010 C   0  0  0  0  0  0  0  0  0  0  0  0
  -20.5630  -28.3330   23.2050 C   0  0  0  0  0  3  0  0  0  0  0  0
  -20.6940  -26.8980   22.6450 C   0  0  0  0  0  2  0  0  0  0  0  0
  -19.6100  -26.5490   21.6200 C   0  0  0  0  0  2  0  0  0  0  0  0
  -18.2180  -26.6840   22.2430 C   0  0  0  0  0  2  0  0  0  0  0  0
  -19.1170  -28.8200   23.3370 C   0  0  0  0  0  0  0  0  0  0  0  0
  -18.8730  -30.0880   23.9090 C   0  0  0  0  0  3  0  0  0  0  0  0
  -17.5600  -30.5740   24.0500 C   0  0  0  0  0  3  0  0  0  0  0  0
  -16.4720  -29.7890   23.6310 C   0  0  0  0  0  3  0  0  0  0  0  0
  -16.7000  -28.5230   23.0620 C   0  0  0  0  0  3  0  0  0  0  0  0
  -25.8570  -32.5110   23.8520 C   0  0  0  0  0  3  0  0  0  0  0  0
  -25.5500  -33.9030   24.2020 N   0  0  0  0  0  0  0  0  0  0  0  0
  -25.8590  -34.9640   23.4440 C   0  0  0  0  0  0  0  0  0  0  0  0
  -26.5050  -34.8730   22.3950 O   0  0  0  0  0  0  0  0  0  0  0  0
  -24.9770  -34.0490   25.0210 H   0  0  0  0  0  0  0  0  0  0  0  0
  -24.1030  -36.7400   23.1550 C   0  0  0  0  0  1  0  0  0  0  0  0
  -25.3750  -36.3460   23.9230 C   0  0  0  0  0  3  0  0  0  0  0  0
  -27.5290  -37.2430   24.6840 C   0  0  0  0  0  1  0  0  0  0  0  0
  -26.3940  -37.4080   23.7810 N   0  0  0  0  0  0  0  0  0  0  0  0
  -25.9850  -38.3240   23.9500 H   0  0  0  0  0  0  0  0  0  0  0  0
  -26.3940  -31.7250   25.1100 C   0  0  1  0  0  0  0  0  0  0  0  0
  -25.3160  -31.4690   26.1900 C   0  0  0  0  0  1  0  0  0  0  0  0
  -26.9750  -30.3540   24.6900 C   0  0  0  0  0  1  0  0  0  0  0  0
  -27.5530  -32.5120   25.7660 C   0  0  0  0  0  1  0  0  0  0  0  0
  -31.1600  -22.7830   20.1810 C   0  0  0  0  0  2  0  0  0  0  0  0
  -31.2330  -21.4190   19.4690 C   0  0  0  0  0  2  0  0  0  0  0  0
  -30.7880  -20.2200   20.3310 C   0  0  0  0  0  2  0  0  0  0  0  0
  -31.0920  -18.8810   19.6280 C   0  0  0  0  0  2  0  0  0  0  0  0
  -30.0760  -16.8120   20.5440 C   0  0  0  0  0  0  0  0  0  0  0  0
  -32.3130  -17.5740   21.3230 C   0  0  0  0  0  1  0  0  0  0  0  0
  -31.0780  -17.7300   20.5420 N   0  0  0  0  0  0  0  0  0  0  0  0
  -29.0090  -17.0080   19.9490 O   0  0  0  0  0  0  0  0  0  0  0  0
  -30.2600  -15.4720   21.2830 C   0  0  0  0  0  2  0  0  0  0  0  0
  -30.6770  -14.4230   20.2220 C   0  0  0  0  0  0  0  0  0  0  0  0
  -30.2330  -12.3760   18.9030 C   0  0  0  0  0  2  0  0  0  0  0  0
  -29.2230  -12.6650   17.7760 C   0  0  0  0  0  2  0  0  0  0  0  0
  -27.7740  -12.5270   18.2850 C   0  0  0  0  0  2  0  0  0  0  0  0
  -27.5370  -13.2990   19.6110 C   0  0  0  0  0  3  0  0  0  0  0  0
  -28.6460  -12.9660   20.6310 C   0  0  0  0  0  2  0  0  0  0  0  0
  -29.9430  -13.2940   20.0180 N   0  0  0  0  0  0  0  0  0  0  0  0
  -31.7050  -14.6420   19.5690 O   0  0  0  0  0  0  0  0  0  0  0  0
  -25.1790  -13.9140   20.4430 C   0  0  0  0  0  0  0  0  0  0  0  0
  -24.1260  -13.1440   20.8570 C   0  0  0  0  0  0  0  0  0  0  0  0
  -24.5770  -11.7900   20.7860 C   0  0  0  0  0  0  0  0  0  0  0  0
  -26.2060  -13.0310   20.1520 N   0  0  0  0  0  0  0  0  0  0  0  0
  -25.8490  -11.7460   20.4110 N   0  0  0  0  0  0  0  0  0  0  0  0
  -23.8540  -10.5300   20.9980 C   0  0  0  0  0  0  0  0  0  0  0  0
  -24.3290   -9.5490   21.8970 C   0  0  0  0  0  3  0  0  0  0  0  0
  -23.6070   -8.3540   22.0980 C   0  0  0  0  0  3  0  0  0  0  0  0
  -22.3960   -8.1290   21.4000 C   0  0  0  0  0  0  0  0  0  0  0  0
  -21.9410   -9.0980   20.4890 C   0  0  0  0  0  3  0  0  0  0  0  0
  -22.6630  -10.2860   20.2870 C   0  0  0  0  0  3  0  0  0  0  0  0
  -21.6390   -6.9880   21.5130 O   0  0  0  0  0  0  0  0  0  0  0  0
  -21.6430   -6.2340   22.6590 C   0  0  0  0  0  0  0  0  0  0  0  0
  -21.3040   -6.7810   23.9150 C   0  0  0  0  0  3  0  0  0  0  0  0
  -21.2550   -5.9530   25.0540 C   0  0  0  0  0  3  0  0  0  0  0  0
  -21.5360   -4.5780   24.9370 C   0  0  0  0  0  0  0  0  0  0  0  0
  -21.8690   -4.0310   23.6860 C   0  0  0  0  0  3  0  0  0  0  0  0
  -21.9200   -4.8570   22.5500 C   0  0  0  0  0  0  0  0  0  0  0  0
  -22.2210   -4.3200   21.3420 F   0  0  0  0  0  0  0  0  0  0  0  0
  -21.4810   -3.7790   26.0290 F   0  0  0  0  0  0  0  0  0  0  0  0
  -22.7480  -13.6250   21.2110 C   0  0  0  0  0  0  0  0  0  0  0  0
  -22.0630  -12.9180   22.1020 N   0  0  0  0  0  0  0  0  0  0  0  0
  -22.2900  -14.6620   20.7320 O   0  0  0  0  0  0  0  0  0  0  0  0
  -22.4460  -12.0790   22.5110 H   0  0  0  0  0  0  0  0  0  0  0  0
  -21.1390  -13.2200   22.3800 H   0  0  0  0  0  0  0  0  0  0  0  0
  -25.3440  -15.2870   20.2740 N   0  0  0  0  0  0  0  0  0  0  0  0
  -24.5950  -15.9490   20.4420 H   0  0  0  0  0  0  0  0  0  0  0  0
  -26.1980  -15.7280   19.9520 H   0  0  0  0  0  0  0  0  0  0  0  0
  1  3  2  0
  2  1  1  0
  2 47  1  0
  4  2  1  0
  5  1  1  0
  5  6  1  0
  6  8  1  0
  7 18  2  0
  8 13  1  0
  9 17  1  0
  9 19  1  0
 10 16  1  0
 10 12  1  0
 11 17  1  0
 12 11  1  0
 13 12  2  0
 14 15  1  0
 14  8  2  0
 15 10  2  0
 16  9  1  0
 17  7  1  0
 19 21  2  0
 20 19  1  0
 22 20  1  0
 23 32  2  0
 23 28  1  0
 24 20  1  0
 24 28  1  0
 25 24  1  0
 26 27  1  0
 26 25  1  0
 27 23  1  0
 28 29  2  0
 29 30  1  0
 31 30  2  0
 32 31  1  0
 33  7  1  0
 33 34  1  0
 33 43  1  0
 34 37  1  0
 35 39  1  0
 35 34  1  0
 36 35  2  0
 39 38  1  0
 41 39  1  0
 41 42  1  0
 41 40  1  0
 43 46  1  1
 43 44  1  0
 45 43  1  0
 48 47  1  0
 48 49  1  0
 50 49  1  0
 50 53  1  0
 51 55  1  0
 53 51  1  0
 53 52  1  0
 54 51  2  0
 56 55  1  0
 57 62  1  0
 58 59  1  0
 58 57  1  0
 60 59  1  0
 60 67  1  0
 60 61  1  0
 62 56  1  0
 62 61  1  0
 63 56  2  0
 64 65  2  0
 65 84  1  0
 66 65  1  0
 66 69  1  0
 67 68  1  0
 67 64  1  0
 68 66  2  0
 69 70  1  0
 70 71  2  0
 72 75  1  0
 72 71  1  0
 73 72  2  0
 74 73  1  0
 74 69  2  0
 75 76  1  0
 76 77  1  0
 77 78  2  0
 79 78  1  0
 79 83  1  0
 80 79  2  0
 81 76  2  0
 81 80  1  0
 82 81  1  0
 84 85  1  0
 85 88  1  0
 85 87  1  0
 86 84  2  0
 89 90  1  0
 89 64  1  0
 91 89  1  0
M  ISO  4   5 101   6 101  55 100  56 100
M  END
>  <TORSDO>  (2) 
F 23

>  <SCORE>  (2) 
-12.247

>  <name>  (2) 
1

>  <ligand_id>  (2) 
1

>  <original_smiles>  (2) 
[H]c1c([H])c([H])c2c(c1[H])C([H])([H])C([H])([H])C([H])([H])C2([H])N([H])C(=O)C1([H])N(C(=O)C([H])(N([H])C(=O)C([H])(N([H])C([H])([H])[H])C([H])([H])[H])C(C([H])([H])[H])(C([H])([H])[H])C([H])([H])[H])C([H])([H])c2c([H])c(OC([H])([H])C(=O)N([H])C([H])([H])C([H])([H])C([H])([H])C([H])([H])N(C(=O)C([H])([H])C(=O)N3C([H])([H])C([H])([H])C([H])([H])C([H])(n4nc(-c5c([H])c([H])c(Oc6c([H])c([H])c(F)c([H])c6F)c([H])c5[H])c(C(=O)N([H])[H])c4N([H])[H])C3([H])[H])C([H])([H])[H])c([H])c([H])c2C1([H])[H]

>  <smiles>  (2) 
[H]c1c([H])c([H])c2c(c1[H])C([H])([H])C([H])([H])C([H])([H])C2([H])N([H])C(=O)C1([H])N(C(=O)C([H])(N([H])C(=O)C([H])(N([H])C([H])([H])[H])C([H])([H])[H])C(C([H])([H])[H])(C([H])([H])[H])C([H])([H])[H])C([H])([H])c2c([H])c(OC([H])([H])C(=O)N([H])C([H])([H])C([H])([H])C([H])([H])C([H])([H])N(C(=O)C([H])([H])C(=O)N3C([H])([H])C([H])([H])C([H])([H])C([H])(n4nc(-c5c([H])c([H])c(Oc6c([H])c([H])c(F)c([H])c6F)c([H])c5[H])c(C(=O)N([H])[H])c4N([H])[H])C3([H])[H])C([H])([H])[H])c([H])c([H])c2C1([H])[H]

$$$$
2:0:0
     RDKit          3D

 88 95  0  0  1  0  0  0  0  0999 V2000
  -28.4230  -20.1460   19.9700 C   0  0  0  0  0  0  0  0  0  0  0  0
  -28.7220  -21.7050   20.3120 C   0  0  0  0  0  3  0  0  0  0  0  0
  -29.3570  -18.9970   20.3550 C   0  0  0  0  0  0  0  0  0  0  0  0
  -27.1650  -19.8120   19.2140 C   0  0  0  0  0  1  0  0  0  0  0  0
  -29.9060  -21.3610   20.9210 N   0  0  0  0  0  0  0  0  0  0  0  0
  -30.2470  -19.9410   20.9610 N   0  0  0  0  0  0  0  0  0  0  0  0
  -30.1940  -15.9660   20.2830 C   0  0  0  0  0  0  0  0  0  0  0  0
  -30.3920  -13.3640   19.4670 C   0  0  0  0  0  2  0  0  0  0  0  0
  -29.5310  -12.8320   18.2780 C   0  0  0  0  0  2  0  0  0  0  0  0
  -28.1340  -12.4040   18.7510 C   0  0  0  0  0  2  0  0  0  0  0  0
  -27.5740  -13.4190   19.7720 C   0  0  0  0  0  3  0  0  0  0  0  0
  -28.5890  -13.8440   20.8670 C   0  0  0  0  0  2  0  0  0  0  0  0
  -29.7110  -14.5550   20.1860 N   0  0  0  0  0  0  0  0  0  0  0  0
  -31.4400  -15.8730   20.1800 O   0  0  0  0  0  0  0  0  0  0  0  0
  -29.3980  -17.3670   20.2600 N   0  0  0  0  0  0  0  0  0  0  0  0
  -28.4460  -17.0750   20.1030 H   0  0  0  0  0  0  0  0  0  0  0  0
  -25.2140  -13.8960   20.5530 C   0  0  0  0  0  0  0  0  0  0  0  0
  -24.1650  -13.0980   20.9070 C   0  0  0  0  0  0  0  0  0  0  0  0
  -24.6560  -11.7560   20.8700 C   0  0  0  0  0  0  0  0  0  0  0  0
  -26.2700  -13.0450   20.3010 N   0  0  0  0  0  0  0  0  0  0  0  0
  -25.9510  -11.7480   20.5570 N   0  0  0  0  0  0  0  0  0  0  0  0
  -23.9440  -10.4830   21.0490 C   0  0  0  0  0  0  0  0  0  0  0  0
  -24.3650   -9.5290   22.0010 C   0  0  0  0  0  3  0  0  0  0  0  0
  -23.6460   -8.3270   22.1760 C   0  0  0  0  0  3  0  0  0  0  0  0
  -22.4940   -8.0680   21.3960 C   0  0  0  0  0  0  0  0  0  0  0  0
  -22.0920   -9.0120   20.4350 C   0  0  0  0  0  3  0  0  0  0  0  0
  -22.8110  -10.2050   20.2590 C   0  0  0  0  0  3  0  0  0  0  0  0
  -21.7510   -6.9160   21.4760 O   0  0  0  0  0  0  0  0  0  0  0  0
  -21.6580   -6.1970   22.6400 C   0  0  0  0  0  0  0  0  0  0  0  0
  -21.1220   -6.7600   23.8200 C   0  0  0  0  0  3  0  0  0  0  0  0
  -20.9780   -5.9670   24.9760 C   0  0  0  0  0  3  0  0  0  0  0  0
  -21.3620   -4.6120   24.9540 C   0  0  0  0  0  0  0  0  0  0  0  0
  -21.8920   -4.0490   23.7800 C   0  0  0  0  0  3  0  0  0  0  0  0
  -22.0350   -4.8400   22.6260 C   0  0  0  0  0  0  0  0  0  0  0  0
  -22.5260   -4.2850   21.4910 F   0  0  0  0  0  0  0  0  0  0  0  0
  -21.2170   -3.8490   26.0620 F   0  0  0  0  0  0  0  0  0  0  0  0
  -22.7600  -13.5560   21.1670 C   0  0  0  0  0  0  0  0  0  0  0  0
  -22.0380  -12.8560   22.0340 N   0  0  0  0  0  0  0  0  0  0  0  0
  -22.3130  -14.5730   20.6390 O   0  0  0  0  0  0  0  0  0  0  0  0
  -22.4120  -12.0340   22.4850 H   0  0  0  0  0  0  0  0  0  0  0  0
  -21.0980  -13.1510   22.2520 H   0  0  0  0  0  0  0  0  0  0  0  0
  -25.3560  -15.2720   20.3920 N   0  0  0  0  0  0  0  0  0  0  0  0
  -24.5940  -15.9200   20.5510 H   0  0  0  0  0  0  0  0  0  0  0  0
  -26.2190  -15.7290   20.1340 H   0  0  0  0  0  0  0  0  0  0  0  0
  -31.8820  -20.4310   22.8230 C   0  0  0  0  0  1  0  0  0  0  0  0
  -31.5080  -19.5720   21.6010 C   0  0  0  0  0  2  0  0  0  0  0  0
  -27.9110  -23.5090   20.1320 C   0  0  0  0  0  1  0  0  0  0  0  0
  -28.1210  -25.3290   20.3400 O   0  0  0  0  0  0  0  0  0  0  0  0
  -24.6530  -31.8510   23.2090 C   0  0  0  0  0  0  0  0  0  0  0  0
  -27.1800  -26.6250   20.2710 C   0  0  0  0  0  0  0  0  0  0  0  0
  -23.4770  -30.4460   21.5700 C   0  0  0  0  0  3  0  0  0  0  0  0
  -24.9290  -28.7600   20.1850 C   0  0  0  0  0  0  0  0  0  0  0  0
  -26.0650  -30.5410   21.4800 C   0  0  0  0  0  2  0  0  0  0  0  0
  -26.1270  -29.0890   20.8300 C   0  0  0  0  0  0  0  0  0  0  0  0
  -27.2290  -28.0570   20.8340 C   0  0  0  0  0  3  0  0  0  0  0  0
  -25.9470  -26.5500   19.5590 C   0  0  0  0  0  3  0  0  0  0  0  0
  -24.8900  -27.5210   19.5220 C   0  0  0  0  0  3  0  0  0  0  0  0
  -23.7300  -29.7310   20.2120 C   0  0  0  0  0  2  0  0  0  0  0  0
  -24.7560  -30.9840   22.1370 N   0  0  0  0  0  0  0  0  0  0  0  0
  -23.5570  -32.1580   23.7060 O   0  0  0  0  0  0  0  0  0  0  0  0
  -22.7420  -29.4890   22.5480 C   0  0  0  0  0  0  0  0  0  0  0  0
  -21.4080  -29.3390   22.4160 N   0  0  0  0  0  0  0  0  0  0  0  0
  -23.3890  -28.8720   23.3990 O   0  0  0  0  0  0  0  0  0  0  0  0
  -20.9340  -29.8810   21.7050 H   0  0  0  0  0  0  0  0  0  0  0  0
  -18.0110  -28.1420   22.9380 C   0  0  0  0  0  0  0  0  0  0  0  0
  -20.5750  -28.4080   23.1930 C   0  0  0  0  0  3  0  0  0  0  0  0
  -20.6710  -26.9730   22.6240 C   0  0  0  0  0  2  0  0  0  0  0  0
  -19.5670  -26.6550   21.6100 C   0  0  0  0  0  2  0  0  0  0  0  0
  -18.1850  -26.7980   22.2540 C   0  0  0  0  0  2  0  0  0  0  0  0
  -19.1310  -28.9070   23.3650 C   0  0  0  0  0  0  0  0  0  0  0  0
  -18.9090  -30.1620   23.9700 C   0  0  0  0  0  3  0  0  0  0  0  0
  -17.6030  -30.6560   24.1470 C   0  0  0  0  0  3  0  0  0  0  0  0
  -16.4980  -29.8930   23.7330 C   0  0  0  0  0  3  0  0  0  0  0  0
  -16.7050  -28.6380   23.1360 C   0  0  0  0  0  3  0  0  0  0  0  0
  -25.9070  -32.5100   23.8600 C   0  0  0  0  0  3  0  0  0  0  0  0
  -25.5860  -33.9170   24.1750 N   0  0  0  0  0  0  0  0  0  0  0  0
  -25.9240  -34.9740   23.4240 C   0  0  0  0  0  0  0  0  0  0  0  0
  -26.5910  -34.8670   22.3950 O   0  0  0  0  0  0  0  0  0  0  0  0
  -24.9960  -34.0740   24.9790 H   0  0  0  0  0  0  0  0  0  0  0  0
  -24.2010  -36.7810   23.0780 C   0  0  0  0  0  1  0  0  0  0  0  0
  -25.4440  -36.3690   23.8820 C   0  0  0  0  0  3  0  0  0  0  0  0
  -27.5820  -37.2550   24.7110 C   0  0  0  0  0  1  0  0  0  0  0  0
  -26.4790  -37.4210   23.7670 N   0  0  0  0  0  0  0  0  0  0  0  0
  -26.0730  -38.3420   23.9100 H   0  0  0  0  0  0  0  0  0  0  0  0
  -26.3750  -31.7740   25.1770 C   0  0  1  0  0  0  0  0  0  0  0  0
  -25.2450  -31.5840   26.2170 C   0  0  0  0  0  1  0  0  0  0  0  0
  -26.9540  -30.3770   24.8600 C   0  0  0  0  0  1  0  0  0  0  0  0
  -27.5160  -32.5730   25.8500 C   0  0  0  0  0  1  0  0  0  0  0  0
  1  2  1  0
  1  3  2  0
  2  5  2  0
  3  6  1  0
  4  1  1  0
  5  6  1  0
  6 46  1  0
  8 13  1  0
  9 10  1  0
  9  8  1  0
 11 10  1  0
 11 20  1  0
 11 12  1  0
 13  7  1  0
 13 12  1  0
 14  7  2  0
 15  7  1  0
 15  3  1  0
 16 15  1  0
 17 18  2  0
 18 37  1  0
 19 18  1  0
 19 22  1  0
 20 17  1  0
 20 21  1  0
 21 19  2  0
 22 23  1  0
 23 24  2  0
 25 28  1  0
 25 24  1  0
 26 25  2  0
 27 26  1  0
 27 22  2  0
 28 29  1  0
 29 30  1  0
 30 31  2  0
 32 31  1  0
 32 36  1  0
 33 32  2  0
 34 29  2  0
 34 33  1  0
 35 34  1  0
 37 38  1  0
 38 41  1  0
 38 40  1  0
 39 37  2  0
 42 43  1  0
 42 17  1  0
 44 42  1  0
 46 45  1  0
 47 48  1  0
 49 60  2  0
 50 48  1  0
 50 55  1  0
 51 59  1  0
 51 61  1  0
 52 58  1  0
 52 54  1  0
 53 59  1  0
 54 55  2  0
 54 53  1  0
 56 50  2  0
 57 56  1  0
 57 52  2  0
 58 51  1  0
 59 49  1  0
 61 63  2  0
 62 61  1  0
 64 62  1  0
 65 74  2  0
 65 70  1  0
 66 62  1  0
 66 70  1  0
 67 66  1  0
 68 69  1  0
 68 67  1  0
 69 65  1  0
 70 71  2  0
 71 72  1  0
 73 72  2  0
 74 73  1  0
 75 49  1  0
 75 76  1  0
 75 85  1  0
 76 79  1  0
 77 81  1  0
 77 76  1  0
 78 77  2  0
 81 80  1  0
 83 81  1  0
 83 84  1  0
 83 82  1  0
 85 88  1  1
 85 86  1  0
 87 85  1  0
M  ISO  4   7 100  15 100  47 101  48 101
M  END
>  <TORSDO>  (3) 
F 18

>  <SCORE>  (3) 
-15.742

>  <name>  (3) 
2

>  <ligand_id>  (3) 
2

>  <original_smiles>  (3) 
[H]c1c([H])c([H])c2c(c1[H])C([H])([H])C([H])([H])C([H])([H])C2([H])N([H])C(=O)C1([H])N(C(=O)C([H])(N([H])C(=O)C([H])(N([H])C([H])([H])[H])C([H])([H])[H])C(C([H])([H])[H])(C([H])([H])[H])C([H])([H])[H])C([H])([H])c2c([H])c(OC([H])([H])c3nn(C([H])([H])C([H])([H])[H])c(N([H])C(=O)N4C([H])([H])C([H])([H])C([H])([H])C([H])(n5nc(-c6c([H])c([H])c(Oc7c([H])c([H])c(F)c([H])c7F)c([H])c6[H])c(C(=O)N([H])[H])c5N([H])[H])C4([H])[H])c3C([H])([H])[H])c([H])c([H])c2C1([H])[H]

>  <smiles>  (3) 
[H]c1c([H])c([H])c2c(c1[H])C([H])([H])C([H])([H])C([H])([H])C2([H])N([H])C(=O)C1([H])N(C(=O)C([H])(N([H])C(=O)C([H])(N([H])C([H])([H])[H])C([H])([H])[H])C(C([H])([H])[H])(C([H])([H])[H])C([H])([H])[H])C([H])([H])c2c([H])c(OC([H])([H])c3nn(C([H])([H])C([H])([H])[H])c(N([H])C(=O)N4C([H])([H])C([H])([H])C([H])([H])C([H])(n5nc(-c6c([H])c([H])c(Oc7c([H])c([H])c(F)c([H])c7F)c([H])c6[H])c(C(=O)N([H])[H])c5N([H])[H])C4([H])[H])c3C([H])([H])[H])c([H])c([H])c2C1([H])[H]

$$$$
3:0:0
     RDKit          3D

 94102  0  0  1  0  0  0  0  0999 V2000
  -31.1360  -17.7190   21.6710 C   0  0  0  0  0  3  0  0  0  0  0  0
  -29.5550  -19.9760   20.7580 C   0  0  0  0  0  0  0  0  0  0  0  0
  -30.0710  -17.4370   20.7910 C   0  0  0  0  0  0  0  0  0  0  0  0
  -31.3830  -19.0310   22.1240 C   0  0  0  0  0  0  0  0  0  0  0  0
  -30.5990  -20.1280   21.7030 C   0  0  0  0  0  0  0  0  0  0  0  0
  -29.2960  -18.5930   20.3410 C   0  0  0  0  0  0  0  0  0  0  0  0
  -32.3810  -19.2370   23.0180 F   0  0  0  0  0  0  0  0  0  0  0  0
  -30.8520  -21.3310   22.2650 F   0  0  0  0  0  0  0  0  0  0  0  0
  -27.9760  -18.2930   19.2670 Cl  0  0  0  0  0  0  0  0  0  0  0  0
  -30.5510  -14.8790   20.3590 C   0  0  0  0  0  0  0  0  0  0  0  0
  -30.3720  -12.6070   19.3130 C   0  0  0  0  0  2  0  0  0  0  0  0
  -29.4230  -12.6630   18.0950 C   0  0  0  0  0  2  0  0  0  0  0  0
  -27.9600  -12.4620   18.5380 C   0  0  0  0  0  2  0  0  0  0  0  0
  -27.5810  -13.3480   19.7560 C   0  0  0  0  0  3  0  0  0  0  0  0
  -28.6480  -13.2750   20.8680 C   0  0  0  0  0  2  0  0  0  0  0  0
  -29.9290  -13.6530   20.2620 N   0  0  0  0  0  0  0  0  0  0  0  0
  -31.7480  -14.9810   20.0780 O   0  0  0  0  0  0  0  0  0  0  0  0
  -29.7500  -16.0100   20.4910 N   0  0  0  0  0  0  0  0  0  0  0  0
  -28.7640  -15.8200   20.4120 H   0  0  0  0  0  0  0  0  0  0  0  0
  -25.1880  -13.9120   20.4870 C   0  0  0  0  0  0  0  0  0  0  0  0
  -24.1330  -13.1260   20.8630 C   0  0  0  0  0  0  0  0  0  0  0  0
  -24.6160  -11.7810   20.8380 C   0  0  0  0  0  0  0  0  0  0  0  0
  -26.2430  -13.0450   20.2530 N   0  0  0  0  0  0  0  0  0  0  0  0
  -25.9060  -11.7590   20.5280 N   0  0  0  0  0  0  0  0  0  0  0  0
  -23.9070  -10.5090   21.0320 C   0  0  0  0  0  0  0  0  0  0  0  0
  -24.3510   -9.5500   21.9690 C   0  0  0  0  0  3  0  0  0  0  0  0
  -23.6400   -8.3450   22.1520 C   0  0  0  0  0  3  0  0  0  0  0  0
  -22.4710   -8.0900   21.3960 C   0  0  0  0  0  0  0  0  0  0  0  0
  -22.0470   -9.0360   20.4470 C   0  0  0  0  0  3  0  0  0  0  0  0
  -22.7580  -10.2340   20.2630 C   0  0  0  0  0  3  0  0  0  0  0  0
  -21.7310   -6.9350   21.4870 O   0  0  0  0  0  0  0  0  0  0  0  0
  -21.6860   -6.2000   22.6440 C   0  0  0  0  0  0  0  0  0  0  0  0
  -21.2280   -6.7510   23.8600 C   0  0  0  0  0  3  0  0  0  0  0  0
  -21.1320   -5.9410   25.0090 C   0  0  0  0  0  3  0  0  0  0  0  0
  -21.4830   -4.5790   24.9420 C   0  0  0  0  0  0  0  0  0  0  0  0
  -21.9330   -4.0260   23.7290 C   0  0  0  0  0  3  0  0  0  0  0  0
  -22.0310   -4.8350   22.5840 C   0  0  0  0  0  0  0  0  0  0  0  0
  -22.4460   -4.2920   21.4130 F   0  0  0  0  0  0  0  0  0  0  0  0
  -21.3830   -3.7970   26.0420 F   0  0  0  0  0  0  0  0  0  0  0  0
  -22.7290  -13.5850   21.1310 C   0  0  0  0  0  0  0  0  0  0  0  0
  -22.0110  -12.8800   21.9970 N   0  0  0  0  0  0  0  0  0  0  0  0
  -22.2800  -14.6040   20.6090 O   0  0  0  0  0  0  0  0  0  0  0  0
  -22.3880  -12.0550   22.4380 H   0  0  0  0  0  0  0  0  0  0  0  0
  -21.0700  -13.1710   22.2230 H   0  0  0  0  0  0  0  0  0  0  0  0
  -25.3310  -15.2840   20.3000 N   0  0  0  0  0  0  0  0  0  0  0  0
  -24.5460  -15.9190   20.3970 H   0  0  0  0  0  0  0  0  0  0  0  0
  -26.1560  -15.7350   19.9280 H   0  0  0  0  0  0  0  0  0  0  0  0
  -28.6780  -21.2500   20.2810 C   0  0  0  0  0  2  0  0  0  0  0  0
  -28.1590  -23.8170   20.4130 C   0  0  0  0  0  0  0  0  0  0  0  0
  -30.4560  -23.0690   20.0480 C   0  0  0  0  0  1  0  0  0  0  0  0
  -29.0670  -22.7480   20.3880 N   0  0  0  0  0  0  0  0  0  0  0  0
  -26.9790  -23.6070   20.1210 O   0  0  0  0  0  0  0  0  0  0  0  0
  -28.5080  -25.2950   20.9680 C   0  0  0  0  0  2  0  0  0  0  0  0
  -28.3530  -26.5190   20.1120 O   0  0  0  0  0  0  0  0  0  0  0  0
  -24.5860  -31.9440   23.2340 C   0  0  0  0  0  0  0  0  0  0  0  0
  -27.2260  -27.3620   20.1980 C   0  0  0  0  0  0  0  0  0  0  0  0
  -23.3960  -30.5470   21.5840 C   0  0  0  0  0  3  0  0  0  0  0  0
  -24.8590  -28.9900   20.1720 C   0  0  0  0  0  0  0  0  0  0  0  0
  -25.9380  -30.8630   21.4150 C   0  0  0  0  0  2  0  0  0  0  0  0
  -26.0260  -29.4790   20.7740 C   0  0  0  0  0  0  0  0  0  0  0  0
  -27.2150  -28.6790   20.7710 C   0  0  0  0  0  3  0  0  0  0  0  0
  -26.0360  -26.9300   19.5820 C   0  0  0  0  0  3  0  0  0  0  0  0
  -24.8680  -27.7210   19.5670 C   0  0  0  0  0  3  0  0  0  0  0  0
  -23.6220  -29.8690   20.2060 C   0  0  0  0  0  2  0  0  0  0  0  0
  -24.6600  -31.1370   22.1350 N   0  0  0  0  0  0  0  0  0  0  0  0
  -23.4990  -32.2170   23.7640 O   0  0  0  0  0  0  0  0  0  0  0  0
  -22.7280  -29.5290   22.5400 C   0  0  0  0  0  0  0  0  0  0  0  0
  -21.4030  -29.3480   22.4060 N   0  0  0  0  0  0  0  0  0  0  0  0
  -23.4030  -28.9040   23.3610 O   0  0  0  0  0  0  0  0  0  0  0  0
  -20.9150  -29.9040   21.7170 H   0  0  0  0  0  0  0  0  0  0  0  0
  -18.0240  -28.1470   22.8950 C   0  0  0  0  0  0  0  0  0  0  0  0
  -20.5830  -28.4040   23.1690 C   0  0  0  0  0  3  0  0  0  0  0  0
  -20.6860  -26.9770   22.5840 C   0  0  0  0  0  2  0  0  0  0  0  0
  -19.5840  -26.6620   21.5670 C   0  0  0  0  0  2  0  0  0  0  0  0
  -18.2020  -26.8040   22.2100 C   0  0  0  0  0  2  0  0  0  0  0  0
  -19.1440  -28.9050   23.3330 C   0  0  0  0  0  0  0  0  0  0  0  0
  -18.9240  -30.1640   23.9320 C   0  0  0  0  0  3  0  0  0  0  0  0
  -17.6190  -30.6640   24.1030 C   0  0  0  0  0  3  0  0  0  0  0  0
  -16.5150  -29.9010   23.6830 C   0  0  0  0  0  3  0  0  0  0  0  0
  -16.7180  -28.6460   23.0820 C   0  0  0  0  0  3  0  0  0  0  0  0
  -25.8620  -32.5800   23.8660 C   0  0  0  0  0  3  0  0  0  0  0  0
  -26.3630  -31.8170   25.1540 C   0  0  1  0  0  0  0  0  0  0  0  0
  -25.2580  -31.5870   26.2120 C   0  0  0  0  0  1  0  0  0  0  0  0
  -26.9480  -30.4350   24.7790 C   0  0  0  0  0  1  0  0  0  0  0  0
  -27.5060  -32.6130   25.8250 C   0  0  0  0  0  1  0  0  0  0  0  0
  -25.5500  -33.9810   24.1860 N   0  0  0  0  0  0  0  0  0  0  0  0
  -25.8920  -35.0300   23.4280 C   0  0  0  0  0  0  0  0  0  0  0  0
  -26.5740  -34.9210   22.4050 O   0  0  0  0  0  0  0  0  0  0  0  0
  -24.9510  -34.1400   24.9830 H   0  0  0  0  0  0  0  0  0  0  0  0
  -24.1800  -36.8300   23.0410 C   0  0  0  0  0  1  0  0  0  0  0  0
  -25.4050  -36.4210   23.8760 C   0  0  0  0  0  3  0  0  0  0  0  0
  -27.5280  -37.3010   24.7420 C   0  0  0  0  0  1  0  0  0  0  0  0
  -26.4440  -37.4700   23.7770 N   0  0  0  0  0  0  0  0  0  0  0  0
  -26.0390  -38.3910   23.9130 H   0  0  0  0  0  0  0  0  0  0  0  0
  1  4  1  0
  2  5  1  0
  3  1  2  0
  4  7  1  0
  5  4  2  0
  5  8  1  0
  6  2  2  0
  6  3  1  0
  9  6  1  0
 10 18  1  0
 11 16  1  0
 12 13  1  0
 12 11  1  0
 14 13  1  0
 14 23  1  0
 14 15  1  0
 16 10  1  0
 16 15  1  0
 17 10  2  0
 18  3  1  0
 19 18  1  0
 20 21  2  0
 21 40  1  0
 22 21  1  0
 22 25  1  0
 23 20  1  0
 23 24  1  0
 24 22  2  0
 25 26  1  0
 26 27  2  0
 28 31  1  0
 28 27  1  0
 29 28  2  0
 30 29  1  0
 30 25  2  0
 31 32  1  0
 32 33  1  0
 33 34  2  0
 35 34  1  0
 35 39  1  0
 36 35  2  0
 37 32  2  0
 37 36  1  0
 38 37  1  0
 40 41  1  0
 41 44  1  0
 41 43  1  0
 42 40  2  0
 45 46  1  0
 45 20  1  0
 47 45  1  0
 48 51  1  0
 48  2  1  0
 49 53  1  0
 50 51  1  0
 51 49  1  0
 52 49  2  0
 54 56  1  0
 54 53  1  0
 55 66  2  0
 56 61  1  0
 57 65  1  0
 57 67  1  0
 58 64  1  0
 58 60  1  0
 59 65  1  0
 60 59  1  0
 61 60  2  0
 62 56  2  0
 63 62  1  0
 63 58  2  0
 64 57  1  0
 65 55  1  0
 67 69  2  0
 68 67  1  0
 70 68  1  0
 71 80  2  0
 71 76  1  0
 72 68  1  0
 72 76  1  0
 73 72  1  0
 74 75  1  0
 74 73  1  0
 75 71  1  0
 76 77  2  0
 77 78  1  0
 79 78  2  0
 80 79  1  0
 81 55  1  0
 81 86  1  0
 81 82  1  0
 82 85  1  1
 82 83  1  0
 84 82  1  0
 86 89  1  0
 87 91  1  0
 87 86  1  0
 88 87  2  0
 91 90  1  0
 93 91  1  0
 93 94  1  0
 93 92  1  0
M  ISO  4  10 100  18 100  53 101  54 101
M  END
>  <TORSDO>  (4) 
F 19

>  <SCORE>  (4) 
-14.679

>  <name>  (4) 
3

>  <ligand_id>  (4) 
3

>  <original_smiles>  (4) 
[H]c1c([H])c([H])c2c(c1[H])C([H])([H])C([H])([H])C([H])([H])C2([H])N([H])C(=O)C1([H])N(C(=O)C([H])(N([H])C(=O)C([H])(N([H])C([H])([H])[H])C([H])([H])[H])C(C([H])([H])[H])(C([H])([H])[H])C([H])([H])[H])C([H])([H])c2c([H])c(OC([H])([H])C(=O)N(C([H])([H])[H])C([H])([H])c3c(F)c(F)c([H])c(N([H])C(=O)N4C([H])([H])C([H])([H])C([H])([H])C([H])(n5nc(-c6c([H])c([H])c(Oc7c([H])c([H])c(F)c([H])c7F)c([H])c6[H])c(C(=O)N([H])[H])c5N([H])[H])C4([H])[H])c3Cl)c([H])c([H])c2C1([H])[H]

>  <smiles>  (4) 
[H]c1c([H])c([H])c2c(c1[H])C([H])([H])C([H])([H])C([H])([H])C2([H])N([H])C(=O)C1([H])N(C(=O)C([H])(N([H])C(=O)C([H])(N([H])C([H])([H])[H])C([H])([H])[H])C(C([H])([H])[H])(C([H])([H])[H])C([H])([H])[H])C([H])([H])c2c([H])c(OC([H])([H])C(=O)N(C([H])([H])[H])C([H])([H])c3c(F)c(F)c([H])c(N([H])C(=O)N4C([H])([H])C([H])([H])C([H])([H])C([H])(n5nc(-c6c([H])c([H])c(Oc7c([H])c([H])c(F)c([H])c7F)c([H])c6[H])c(C(=O)N([H])[H])c5N([H])[H])C4([H])[H])c3Cl)c([H])c([H])c2C1([H])[H]

$$$$
4:0:0
     RDKit          3D

100109  0  0  1  0  0  0  0  0999 V2000
  -29.4010  -23.2000   19.1590 C   0  0  0  0  0  3  0  0  0  0  0  0
  -29.4020  -22.4780   20.3880 C   0  0  0  0  0  0  0  0  0  0  0  0
  -28.6300  -25.2880   20.2160 C   0  0  0  0  0  0  0  0  0  0  0  0
  -29.0410  -24.5680   19.0730 C   0  0  0  0  0  0  0  0  0  0  0  0
  -28.8940  -23.2010   21.5040 C   0  0  0  0  0  0  0  0  0  0  0  0
  -28.5190  -24.5700   21.4290 C   0  0  0  0  0  0  0  0  0  0  0  0
  -29.1560  -25.2080   17.8840 F   0  0  0  0  0  0  0  0  0  0  0  0
  -28.8350  -22.5840   22.7100 F   0  0  0  0  0  0  0  0  0  0  0  0
  -28.1190  -25.2140   22.5530 F   0  0  0  0  0  0  0  0  0  0  0  0
  -28.5250  -26.6740   20.1550 O   0  0  0  0  0  0  0  0  0  0  0  0
  -24.6050  -31.8270   23.1790 C   0  0  0  0  0  0  0  0  0  0  0  0
  -27.3210  -27.3510   20.1850 C   0  0  0  0  0  0  0  0  0  0  0  0
  -23.4310  -30.4030   21.5300 C   0  0  0  0  0  3  0  0  0  0  0  0
  -24.9160  -28.8520   20.1460 C   0  0  0  0  0  0  0  0  0  0  0  0
  -25.9580  -30.7680   21.3690 C   0  0  0  0  0  2  0  0  0  0  0  0
  -26.0600  -29.3870   20.7490 C   0  0  0  0  0  0  0  0  0  0  0  0
  -27.2640  -28.6430   20.7660 C   0  0  0  0  0  3  0  0  0  0  0  0
  -26.1620  -26.8330   19.5730 C   0  0  0  0  0  3  0  0  0  0  0  0
  -24.9620  -27.5740   19.5570 C   0  0  0  0  0  3  0  0  0  0  0  0
  -23.6670  -29.7070   20.1610 C   0  0  0  0  0  2  0  0  0  0  0  0
  -24.6810  -31.0180   22.0840 N   0  0  0  0  0  0  0  0  0  0  0  0
  -23.5150  -32.0960   23.7020 O   0  0  0  0  0  0  0  0  0  0  0  0
  -22.7740  -29.3870   22.4930 C   0  0  0  0  0  0  0  0  0  0  0  0
  -21.4490  -29.2130   22.3660 N   0  0  0  0  0  0  0  0  0  0  0  0
  -23.4540  -28.7610   23.3090 O   0  0  0  0  0  0  0  0  0  0  0  0
  -20.9610  -29.7720   21.6800 H   0  0  0  0  0  0  0  0  0  0  0  0
  -18.0670  -28.0400   22.8630 C   0  0  0  0  0  0  0  0  0  0  0  0
  -20.6260  -28.2780   23.1340 C   0  0  0  0  0  3  0  0  0  0  0  0
  -20.7190  -26.8470   22.5530 C   0  0  0  0  0  2  0  0  0  0  0  0
  -19.6140  -26.5360   21.5400 C   0  0  0  0  0  2  0  0  0  0  0  0
  -18.2340  -26.6900   22.1840 C   0  0  0  0  0  2  0  0  0  0  0  0
  -19.1910  -28.7910   23.2950 C   0  0  0  0  0  0  0  0  0  0  0  0
  -18.9820  -30.0550   23.8870 C   0  0  0  0  0  3  0  0  0  0  0  0
  -17.6810  -30.5660   24.0540 C   0  0  0  0  0  3  0  0  0  0  0  0
  -16.5710  -29.8100   23.6390 C   0  0  0  0  0  3  0  0  0  0  0  0
  -16.7650  -28.5500   23.0480 C   0  0  0  0  0  3  0  0  0  0  0  0
  -25.8790  -32.4710   23.8110 C   0  0  0  0  0  3  0  0  0  0  0  0
  -26.4020  -31.6930   25.0820 C   0  0  1  0  0  0  0  0  0  0  0  0
  -25.3090  -31.4270   26.1420 C   0  0  0  0  0  1  0  0  0  0  0  0
  -27.0070  -30.3290   24.6760 C   0  0  0  0  0  1  0  0  0  0  0  0
  -27.5380  -32.4970   25.7570 C   0  0  0  0  0  1  0  0  0  0  0  0
  -25.5500  -33.8610   24.1520 N   0  0  0  0  0  0  0  0  0  0  0  0
  -25.8690  -34.9250   23.4010 C   0  0  0  0  0  0  0  0  0  0  0  0
  -26.5420  -34.8380   22.3690 O   0  0  0  0  0  0  0  0  0  0  0  0
  -24.9510  -34.0010   24.9520 H   0  0  0  0  0  0  0  0  0  0  0  0
  -24.1190  -36.6950   23.0510 C   0  0  0  0  0  1  0  0  0  0  0  0
  -25.3610  -36.3010   23.8660 C   0  0  0  0  0  3  0  0  0  0  0  0
  -27.4770  -37.2130   24.7170 C   0  0  0  0  0  1  0  0  0  0  0  0
  -26.3790  -37.3690   23.7660 N   0  0  0  0  0  0  0  0  0  0  0  0
  -25.9590  -38.2820   23.9150 H   0  0  0  0  0  0  0  0  0  0  0  0
  -30.0220  -21.0720   20.5840 C   0  0  0  0  0  3  0  0  0  0  0  0
  -28.0520  -20.0670   19.3800 C   0  0  0  0  0  1  0  0  0  0  0  0
  -29.4150  -19.8480   19.9330 N   0  0  2  0  0  4  0  0  0  0  0  0
  -30.0150  -19.7480   19.1200 H   0  0  0  0  0  0  0  0  0  0  0  0
  -30.7310  -14.4880   20.1420 C   0  0  0  0  0  0  0  0  0  0  0  0
  -30.3440  -12.3300   18.9730 C   0  0  0  0  0  2  0  0  0  0  0  0
  -29.3400  -12.5010   17.8150 C   0  0  0  0  0  2  0  0  0  0  0  0
  -27.8950  -12.3290   18.3200 C   0  0  0  0  0  2  0  0  0  0  0  0
  -27.6200  -13.1730   19.5890 C   0  0  0  0  0  3  0  0  0  0  0  0
  -28.7370  -12.9570   20.6470 C   0  0  0  0  0  2  0  0  0  0  0  0
  -30.0120  -13.3240   20.0180 N   0  0  0  0  0  0  0  0  0  0  0  0
  -31.8320  -14.5860   19.5900 O   0  0  0  0  0  0  0  0  0  0  0  0
  -31.0340  -17.9730   20.7210 C   0  0  0  0  0  2  0  0  0  0  0  0
  -28.6640  -17.3720   20.2650 C   0  0  0  0  0  2  0  0  0  0  0  0
  -31.1940  -16.5860   21.4200 C   0  0  0  0  0  2  0  0  0  0  0  0
  -28.9020  -16.0750   21.0760 C   0  0  0  0  0  2  0  0  0  0  0  0
  -29.5800  -18.5470   20.7190 C   0  0  0  0  0  3  0  0  0  0  0  0
  -30.2720  -15.5500   20.8970 N   0  0  0  0  0  0  0  0  0  0  0  0
  -25.2860  -13.8230   20.4600 C   0  0  0  0  0  0  0  0  0  0  0  0
  -24.2250  -13.0640   20.8730 C   0  0  0  0  0  0  0  0  0  0  0  0
  -24.6550  -11.7050   20.7800 C   0  0  0  0  0  0  0  0  0  0  0  0
  -26.2940  -12.9250   20.1430 N   0  0  0  0  0  0  0  0  0  0  0  0
  -25.9230  -11.6460   20.3950 N   0  0  0  0  0  0  0  0  0  0  0  0
  -23.9160  -10.4530   20.9700 C   0  0  0  0  0  0  0  0  0  0  0  0
  -24.3440   -9.4760   21.8970 C   0  0  0  0  0  3  0  0  0  0  0  0
  -23.6060   -8.2860   22.0720 C   0  0  0  0  0  3  0  0  0  0  0  0
  -22.4260   -8.0660   21.3220 C   0  0  0  0  0  0  0  0  0  0  0  0
  -22.0190   -9.0300   20.3830 C   0  0  0  0  0  3  0  0  0  0  0  0
  -22.7580  -10.2110   20.2050 C   0  0  0  0  0  3  0  0  0  0  0  0
  -21.6600   -6.9290   21.4090 O   0  0  0  0  0  0  0  0  0  0  0  0
  -21.5690   -6.2110   22.5750 C   0  0  0  0  0  0  0  0  0  0  0  0
  -21.0880   -6.7900   23.7700 C   0  0  0  0  0  3  0  0  0  0  0  0
  -20.9470   -5.9980   24.9280 C   0  0  0  0  0  3  0  0  0  0  0  0
  -21.2760   -4.6300   24.8900 C   0  0  0  0  0  0  0  0  0  0  0  0
  -21.7510   -4.0510   23.6990 C   0  0  0  0  0  3  0  0  0  0  0  0
  -21.8940   -4.8400   22.5450 C   0  0  0  0  0  0  0  0  0  0  0  0
  -22.3320   -4.2750   21.3940 F   0  0  0  0  0  0  0  0  0  0  0  0
  -21.1330   -3.8670   25.9980 F   0  0  0  0  0  0  0  0  0  0  0  0
  -22.8560  -13.5620   21.2380 C   0  0  0  0  0  0  0  0  0  0  0  0
  -22.1600  -12.8480   22.1160 N   0  0  0  0  0  0  0  0  0  0  0  0
  -22.4150  -14.6140   20.7790 O   0  0  0  0  0  0  0  0  0  0  0  0
  -22.5300  -11.9950   22.5070 H   0  0  0  0  0  0  0  0  0  0  0  0
  -21.2440  -13.1610   22.4030 H   0  0  0  0  0  0  0  0  0  0  0  0
  -25.4650  -15.1950   20.3030 N   0  0  0  0  0  0  0  0  0  0  0  0
  -24.7080  -15.8520   20.4480 H   0  0  0  0  0  0  0  0  0  0  0  0
  -26.2790  -15.6140   19.8750 H   0  0  0  0  0  0  0  0  0  0  0  0
  -31.4290  -21.1990   19.9630 C   0  0  0  0  0  0  0  0  0  0  0  0
  -31.6890  -20.7060   18.8590 O   0  0  0  0  0  0  0  0  0  0  0  0
  -32.4890  -21.9780   20.7430 C   0  0  0  0  0  2  0  0  0  0  0  0
  -34.1260  -21.8320   20.0350 Cl  0  0  0  0  0  0  0  0  0  0  0  0
  1  2  1  0
  2 51  1  0
  2  5  2  0
  3  6  2  0
  4  1  2  0
  4  3  1  0
  5  8  1  0
  6  5  1  0
  6  9  1  0
  7  4  1  0
 10 12  1  0
 10  3  1  0
 11 22  2  0
 12 17  1  0
 13 21  1  0
 13 23  1  0
 14 20  1  0
 14 16  1  0
 15 21  1  0
 16 17  2  0
 16 15  1  0
 18 12  2  0
 19 18  1  0
 19 14  2  0
 20 13  1  0
 21 11  1  0
 23 25  2  0
 24 23  1  0
 26 24  1  0
 27 36  2  0
 27 32  1  0
 28 24  1  0
 28 32  1  0
 29 28  1  0
 30 31  1  0
 30 29  1  0
 31 27  1  0
 32 33  2  0
 33 34  1  0
 35 34  2  0
 36 35  1  0
 37 11  1  0
 37 42  1  0
 37 38  1  0
 38 41  1  1
 38 39  1  0
 40 38  1  0
 42 45  1  0
 43 47  1  0
 43 42  1  0
 44 43  2  0
 47 46  1  0
 49 47  1  0
 49 50  1  0
 49 48  1  0
 51 97  1  0
 52 53  1  0
 53 51  1  0
 53 54  1  6
 55 68  1  0
 56 61  1  0
 57 58  1  0
 57 56  1  0
 59 58  1  0
 59 72  1  0
 59 60  1  0
 61 55  1  0
 61 60  1  0
 62 55  2  0
 63 65  1  0
 64 67  1  0
 64 66  1  0
 67 53  1  0
 67 63  1  0
 68 66  1  0
 68 65  1  0
 69 70  2  0
 70 89  1  0
 71 70  1  0
 71 74  1  0
 72 73  1  0
 72 69  1  0
 73 71  2  0
 74 75  1  0
 75 76  2  0
 77 80  1  0
 77 76  1  0
 78 77  2  0
 79 78  1  0
 79 74  2  0
 80 81  1  0
 81 82  1  0
 82 83  2  0
 84 83  1  0
 84 88  1  0
 85 84  2  0
 86 81  2  0
 86 85  1  0
 87 86  1  0
 89 90  1  0
 90 93  1  0
 90 92  1  0
 91 89  2  0
 94 95  1  0
 94 69  1  0
 96 94  1  0
 97 99  1  0
 98 97  2  0
100 99  1  0
M  ISO  4   3 101  10 101  55 100  68 100
M  END
>  <TORSDO>  (5) 
F 20

>  <SCORE>  (5) 
-14.250

>  <name>  (5) 
4

>  <ligand_id>  (5) 
4

>  <original_smiles>  (5) 
[H]c1c([H])c([H])c2c(c1[H])C([H])([H])C([H])([H])C([H])([H])C2([H])N([H])C(=O)C1([H])N(C(=O)C([H])(N([H])C(=O)C([H])(N([H])C([H])([H])[H])C([H])([H])[H])C(C([H])([H])[H])(C([H])([H])[H])C([H])([H])[H])C([H])([H])c2c([H])c(Oc3c(F)c([H])c(C([H])(C(=O)C([H])([H])Cl)[N+]([H])(C([H])([H])[H])C4([H])C([H])([H])C([H])([H])N(C(=O)N5C([H])([H])C([H])([H])C([H])([H])C([H])(n6nc(-c7c([H])c([H])c(Oc8c([H])c([H])c(F)c([H])c8F)c([H])c7[H])c(C(=O)N([H])[H])c6N([H])[H])C5([H])[H])C([H])([H])C4([H])[H])c(F)c3F)c([H])c([H])c2C1([H])[H]

>  <smiles>  (5) 
[H]c1c([H])c([H])c2c(c1[H])C([H])([H])C([H])([H])C([H])([H])C2([H])N([H])C(=O)C1([H])N(C(=O)C([H])(N([H])C(=O)C([H])(N([H])C([H])([H])[H])C([H])([H])[H])C(C([H])([H])[H])(C([H])([H])[H])C([H])([H])[H])C([H])([H])c2c([H])c(Oc3c(F)c([H])c(C([H])(C(=O)C([H])([H])Cl)[N+]([H])(C([H])([H])[H])C4([H])C([H])([H])C([H])([H])N(C(=O)N5C([H])([H])C([H])([H])C([H])([H])C([H])(n6nc(-c7c([H])c([H])c(Oc8c([H])c([H])c(F)c([H])c8F)c([H])c7[H])c(C(=O)N([H])[H])c6N([H])[H])C5([H])[H])C([H])([H])C4([H])[H])c(F)c3F)c([H])c([H])c2C1([H])[H]

$$$$
5:0:0
     RDKit          3D

 93101  0  0  1  0  0  0  0  0999 V2000
  -31.5870  -17.7650   20.9390 C   0  0  0  0  0  3  0  0  0  0  0  0
  -32.0300  -19.0970   21.0710 C   0  0  0  0  0  0  0  0  0  0  0  0
  -29.7790  -20.0050   20.6110 C   0  0  0  0  0  0  0  0  0  0  0  0
  -30.2430  -17.4460   20.6450 C   0  0  0  0  0  0  0  0  0  0  0  0
  -31.1470  -20.1870   20.9250 C   0  0  0  0  0  0  0  0  0  0  0  0
  -29.3480  -18.6020   20.4880 C   0  0  0  0  0  0  0  0  0  0  0  0
  -33.4850  -19.3720   21.4010 C   0  0  0  0  0  1  0  0  0  0  0  0
  -31.6450  -21.4300   21.1280 F   0  0  0  0  0  0  0  0  0  0  0  0
  -27.6850  -18.2700   20.1550 Cl  0  0  0  0  0  0  0  0  0  0  0  0
  -30.5810  -14.8280   20.3890 C   0  0  0  0  0  0  0  0  0  0  0  0
  -30.3660  -12.5440   19.3780 C   0  0  0  0  0  2  0  0  0  0  0  0
  -29.4320  -12.6020   18.1500 C   0  0  0  0  0  2  0  0  0  0  0  0
  -27.9630  -12.4250   18.5790 C   0  0  0  0  0  2  0  0  0  0  0  0
  -27.5840  -13.3160   19.7920 C   0  0  0  0  0  3  0  0  0  0  0  0
  -28.6420  -13.2520   20.9140 C   0  0  0  0  0  2  0  0  0  0  0  0
  -29.9330  -13.6110   20.3140 N   0  0  0  0  0  0  0  0  0  0  0  0
  -31.7740  -14.8720   20.0770 O   0  0  0  0  0  0  0  0  0  0  0  0
  -29.8370  -16.0000   20.5740 N   0  0  0  0  0  0  0  0  0  0  0  0
  -28.8430  -15.8450   20.6500 H   0  0  0  0  0  0  0  0  0  0  0  0
  -25.1940  -13.8960   20.5170 C   0  0  0  0  0  0  0  0  0  0  0  0
  -24.1310  -13.1190   20.8870 C   0  0  0  0  0  0  0  0  0  0  0  0
  -24.6000  -11.7700   20.8640 C   0  0  0  0  0  0  0  0  0  0  0  0
  -26.2410  -13.0210   20.2850 N   0  0  0  0  0  0  0  0  0  0  0  0
  -25.8920  -11.7360   20.5580 N   0  0  0  0  0  0  0  0  0  0  0  0
  -23.8760  -10.5060   21.0550 C   0  0  0  0  0  0  0  0  0  0  0  0
  -24.3180   -9.5340   21.9810 C   0  0  0  0  0  3  0  0  0  0  0  0
  -23.5930   -8.3350   22.1620 C   0  0  0  0  0  3  0  0  0  0  0  0
  -22.4130   -8.1000   21.4180 C   0  0  0  0  0  0  0  0  0  0  0  0
  -21.9900   -9.0610   20.4820 C   0  0  0  0  0  3  0  0  0  0  0  0
  -22.7150  -10.2500   20.2980 C   0  0  0  0  0  3  0  0  0  0  0  0
  -21.6600   -6.9550   21.5090 O   0  0  0  0  0  0  0  0  0  0  0  0
  -21.6330   -6.2000   22.6540 C   0  0  0  0  0  0  0  0  0  0  0  0
  -21.2460   -6.7470   23.8980 C   0  0  0  0  0  3  0  0  0  0  0  0
  -21.1650   -5.9190   25.0350 C   0  0  0  0  0  3  0  0  0  0  0  0
  -21.4610   -4.5460   24.9310 C   0  0  0  0  0  0  0  0  0  0  0  0
  -21.8420   -4.0000   23.6930 C   0  0  0  0  0  3  0  0  0  0  0  0
  -21.9240   -4.8240   22.5580 C   0  0  0  0  0  0  0  0  0  0  0  0
  -22.2710   -4.2890   21.3620 F   0  0  0  0  0  0  0  0  0  0  0  0
  -21.3770   -3.7490   26.0220 F   0  0  0  0  0  0  0  0  0  0  0  0
  -22.7300  -13.5930   21.1490 C   0  0  0  0  0  0  0  0  0  0  0  0
  -22.0010  -12.9000   22.0160 N   0  0  0  0  0  0  0  0  0  0  0  0
  -22.2920  -14.6130   20.6190 O   0  0  0  0  0  0  0  0  0  0  0  0
  -22.3690  -12.0760   22.4670 H   0  0  0  0  0  0  0  0  0  0  0  0
  -21.0620  -13.2000   22.2350 H   0  0  0  0  0  0  0  0  0  0  0  0
  -25.3510  -15.2660   20.3320 N   0  0  0  0  0  0  0  0  0  0  0  0
  -24.5770  -15.9130   20.4420 H   0  0  0  0  0  0  0  0  0  0  0  0
  -26.1890  -15.7160   19.9920 H   0  0  0  0  0  0  0  0  0  0  0  0
  -28.8580  -21.3350   20.5180 C   0  0  0  0  0  2  0  0  0  0  0  0
  -29.2100  -23.8770   19.8360 C   0  0  0  0  0  0  0  0  0  0  0  0
  -30.1700  -24.6800   18.9810 C   0  0  0  0  0  1  0  0  0  0  0  0
  -29.4620  -22.5680   19.8570 N   0  0  0  0  0  0  0  0  0  0  0  0
  -28.1270  -24.8840   20.4680 C   0  0  0  0  0  2  0  0  0  0  0  0
  -28.3200  -26.3820   20.2520 O   0  0  0  0  0  0  0  0  0  0  0  0
  -24.6280  -31.9200   23.2420 C   0  0  0  0  0  0  0  0  0  0  0  0
  -27.2180  -27.2760   20.2220 C   0  0  0  0  0  0  0  0  0  0  0  0
  -23.4250  -30.5130   21.6110 C   0  0  0  0  0  3  0  0  0  0  0  0
  -24.8720  -28.9450   20.1930 C   0  0  0  0  0  0  0  0  0  0  0  0
  -25.9700  -30.8090   21.4310 C   0  0  0  0  0  2  0  0  0  0  0  0
  -26.0450  -29.4200   20.7910 C   0  0  0  0  0  0  0  0  0  0  0  0
  -27.2220  -28.5990   20.7890 C   0  0  0  0  0  3  0  0  0  0  0  0
  -26.0220  -26.8790   19.5860 C   0  0  0  0  0  3  0  0  0  0  0  0
  -24.8670  -27.6850   19.5790 C   0  0  0  0  0  3  0  0  0  0  0  0
  -23.6390  -29.8300   20.2350 C   0  0  0  0  0  2  0  0  0  0  0  0
  -24.6930  -31.1010   22.1500 N   0  0  0  0  0  0  0  0  0  0  0  0
  -23.5440  -32.2020   23.7720 O   0  0  0  0  0  0  0  0  0  0  0  0
  -22.7580  -29.5040   22.5780 C   0  0  0  0  0  0  0  0  0  0  0  0
  -21.4310  -29.3270   22.4530 N   0  0  0  0  0  0  0  0  0  0  0  0
  -23.4350  -28.8820   23.4020 O   0  0  0  0  0  0  0  0  0  0  0  0
  -20.9430  -29.8780   21.7620 H   0  0  0  0  0  0  0  0  0  0  0  0
  -18.0540  -28.1270   22.9600 C   0  0  0  0  0  0  0  0  0  0  0  0
  -20.6120  -28.3940   23.2310 C   0  0  0  0  0  3  0  0  0  0  0  0
  -20.7170  -26.9580   22.6670 C   0  0  0  0  0  2  0  0  0  0  0  0
  -19.6180  -26.6250   21.6540 C   0  0  0  0  0  2  0  0  0  0  0  0
  -18.2350  -26.7730   22.2940 C   0  0  0  0  0  2  0  0  0  0  0  0
  -19.1710  -28.8940   23.3860 C   0  0  0  0  0  0  0  0  0  0  0  0
  -18.9480  -30.1610   23.9690 C   0  0  0  0  0  3  0  0  0  0  0  0
  -17.6410  -30.6600   24.1300 C   0  0  0  0  0  3  0  0  0  0  0  0
  -16.5400  -29.8890   23.7200 C   0  0  0  0  0  3  0  0  0  0  0  0
  -16.7470  -28.6240   23.1410 C   0  0  0  0  0  3  0  0  0  0  0  0
  -25.9100  -32.5580   23.8600 C   0  0  0  0  0  3  0  0  0  0  0  0
  -26.4300  -31.7900   25.1360 C   0  0  1  0  0  0  0  0  0  0  0  0
  -25.3410  -31.5530   26.2090 C   0  0  0  0  0  1  0  0  0  0  0  0
  -27.0130  -30.4110   24.7490 C   0  0  0  0  0  1  0  0  0  0  0  0
  -27.5810  -32.5860   25.7930 C   0  0  0  0  0  1  0  0  0  0  0  0
  -25.5940  -33.9550   24.1930 N   0  0  0  0  0  0  0  0  0  0  0  0
  -25.9200  -35.0120   23.4360 C   0  0  0  0  0  0  0  0  0  0  0  0
  -26.5850  -34.9130   22.4010 O   0  0  0  0  0  0  0  0  0  0  0  0
  -25.0030  -34.1060   24.9970 H   0  0  0  0  0  0  0  0  0  0  0  0
  -24.1850  -36.8020   23.0960 C   0  0  0  0  0  1  0  0  0  0  0  0
  -25.4310  -36.3980   23.9000 C   0  0  0  0  0  3  0  0  0  0  0  0
  -27.5690  -37.2850   24.7210 C   0  0  0  0  0  1  0  0  0  0  0  0
  -26.4600  -37.4540   23.7850 N   0  0  0  0  0  0  0  0  0  0  0  0
  -26.0520  -38.3730   23.9390 H   0  0  0  0  0  0  0  0  0  0  0  0
  1  2  1  0
  2  7  1  0
  3  5  1  0
  4  1  2  0
  5  2  2  0
  5  8  1  0
  6  3  2  0
  6  4  1  0
  9  6  1  0
 10 18  1  0
 11 16  1  0
 12 13  1  0
 12 11  1  0
 14 13  1  0
 14 23  1  0
 14 15  1  0
 16 10  1  0
 16 15  1  0
 17 10  2  0
 18  4  1  0
 18 19  1  0
 20 21  2  0
 21 40  1  0
 22 21  1  0
 22 25  1  0
 23 20  1  0
 23 24  1  0
 24 22  2  0
 25 26  1  0
 26 27  2  0
 28 31  1  0
 28 27  1  0
 29 28  2  0
 30 29  1  0
 30 25  2  0
 31 32  1  0
 32 33  1  0
 33 34  2  0
 35 34  1  0
 35 39  1  0
 36 35  2  0
 37 32  2  0
 37 36  1  0
 38 37  1  0
 40 41  1  0
 41 44  1  0
 41 43  1  0
 42 40  2  0
 45 46  1  0
 45 20  1  0
 47 45  1  0
 48  3  1  0
 49 51  2  0
 49 52  1  0
 50 49  1  0
 51 48  1  0
 53 52  1  0
 54 65  2  0
 55 53  1  0
 55 60  1  0
 56 64  1  0
 56 66  1  0
 57 63  1  0
 57 59  1  0
 58 64  1  0
 59 58  1  0
 60 59  2  0
 61 55  2  0
 62 61  1  0
 62 57  2  0
 63 56  1  0
 64 54  1  0
 66 68  2  0
 67 66  1  0
 69 67  1  0
 70 79  2  0
 70 75  1  0
 71 67  1  0
 71 75  1  0
 72 71  1  0
 73 74  1  0
 73 72  1  0
 74 70  1  0
 75 76  2  0
 76 77  1  0
 78 77  2  0
 79 78  1  0
 80 54  1  0
 80 85  1  0
 80 81  1  0
 81 84  1  1
 81 82  1  0
 83 81  1  0
 85 88  1  0
 86 90  1  0
 86 85  1  0
 87 86  2  0
 90 89  1  0
 92 90  1  0
 92 93  1  0
 92 91  1  0
M  ISO  4  10 100  18 100  52 101  53 101
M  END
>  <TORSDO>  (6) 
F 19

>  <SCORE>  (6) 
-14.763

>  <name>  (6) 
5

>  <ligand_id>  (6) 
5

>  <original_smiles>  (6) 
[H]c1c([H])c([H])c2c(c1[H])C([H])([H])C([H])([H])C([H])([H])C2([H])N([H])C(=O)C1([H])N(C(=O)C([H])(N([H])C(=O)C([H])(N([H])C([H])([H])[H])C([H])([H])[H])C(C([H])([H])[H])(C([H])([H])[H])C([H])([H])[H])C([H])([H])c2c([H])c(OC([H])([H])C(=NC([H])([H])c3c(F)c(C([H])([H])[H])c([H])c(N([H])C(=O)N4C([H])([H])C([H])([H])C([H])([H])C([H])(n5nc(-c6c([H])c([H])c(Oc7c([H])c([H])c(F)c([H])c7F)c([H])c6[H])c(C(=O)N([H])[H])c5N([H])[H])C4([H])[H])c3Cl)C([H])([H])[H])c([H])c([H])c2C1([H])[H]

>  <smiles>  (6) 
[H]c1c([H])c([H])c2c(c1[H])C([H])([H])C([H])([H])C([H])([H])C2([H])N([H])C(=O)C1([H])N(C(=O)C([H])(N([H])C(=O)C([H])(N([H])C([H])([H])[H])C([H])([H])[H])C(C([H])([H])[H])(C([H])([H])[H])C([H])([H])[H])C([H])([H])c2c([H])c(OC([H])([H])C(=NC([H])([H])c3c(F)c(C([H])([H])[H])c([H])c(N([H])C(=O)N4C([H])([H])C([H])([H])C([H])([H])C([H])(n5nc(-c6c([H])c([H])c(Oc7c([H])c([H])c(F)c([H])c7F)c([H])c6[H])c(C(=O)N([H])[H])c5N([H])[H])C4([H])[H])c3Cl)C([H])([H])[H])c([H])c([H])c2C1([H])[H]

$$$$
6:0:0
     RDKit          3D

 95103  0  0  1  0  0  0  0  0999 V2000
  -28.8130  -21.6720   20.1740 C   0  0  0  0  0  2  0  0  0  0  0  0
  -30.3490  -18.1850   21.2310 C   0  0  0  0  0  3  0  0  0  0  0  0
  -30.0910  -19.5890   21.1790 C   0  0  0  0  0  0  0  0  0  0  0  0
  -29.0190  -19.2880   19.0280 C   0  0  0  0  0  0  0  0  0  0  0  0
  -29.3700  -20.1800   20.0970 C   0  0  0  0  0  0  0  0  0  0  0  0
  -29.2370  -17.8610   19.1150 C   0  0  0  0  0  0  0  0  0  0  0  0
  -29.9110  -17.2800   20.2320 C   0  0  0  0  0  0  0  0  0  0  0  0
  -30.5660  -20.4370   22.3480 C   0  0  0  0  0  1  0  0  0  0  0  0
  -28.3440  -19.8700   17.7870 C   0  0  0  0  0  1  0  0  0  0  0  0
  -28.6660  -16.9280   18.0480 C   0  0  0  0  0  1  0  0  0  0  0  0
  -30.7730  -14.8250   20.0490 C   0  0  0  0  0  0  0  0  0  0  0  0
  -30.6000  -12.5410   19.0750 C   0  0  0  0  0  2  0  0  0  0  0  0
  -29.6010  -12.6020   17.8970 C   0  0  0  0  0  2  0  0  0  0  0  0
  -28.1490  -12.4280   18.3910 C   0  0  0  0  0  2  0  0  0  0  0  0
  -27.8250  -13.3170   19.6210 C   0  0  0  0  0  3  0  0  0  0  0  0
  -28.9310  -13.2120   20.6950 C   0  0  0  0  0  2  0  0  0  0  0  0
  -30.2070  -13.5740   20.0540 N   0  0  0  0  0  0  0  0  0  0  0  0
  -31.8880  -15.0220   19.5570 O   0  0  0  0  0  0  0  0  0  0  0  0
  -29.9790  -15.8420   20.5150 N   0  0  0  0  0  0  0  0  0  0  0  0
  -29.2090  -15.5030   21.0710 H   0  0  0  0  0  0  0  0  0  0  0  0
  -25.4770  -13.8960   20.4890 C   0  0  0  0  0  0  0  0  0  0  0  0
  -24.4280  -13.1120   20.8880 C   0  0  0  0  0  0  0  0  0  0  0  0
  -24.8820  -11.7620   20.7820 C   0  0  0  0  0  0  0  0  0  0  0  0
  -26.5020  -13.0210   20.1670 N   0  0  0  0  0  0  0  0  0  0  0  0
  -26.1520  -11.7310   20.4010 N   0  0  0  0  0  0  0  0  0  0  0  0
  -24.1600  -10.4950   20.9660 C   0  0  0  0  0  0  0  0  0  0  0  0
  -24.5680   -9.5490   21.9330 C   0  0  0  0  0  3  0  0  0  0  0  0
  -23.8470   -8.3460   22.1040 C   0  0  0  0  0  3  0  0  0  0  0  0
  -22.7060   -8.0830   21.3120 C   0  0  0  0  0  0  0  0  0  0  0  0
  -22.3170   -9.0190   20.3360 C   0  0  0  0  0  3  0  0  0  0  0  0
  -23.0380  -10.2130   20.1620 C   0  0  0  0  0  3  0  0  0  0  0  0
  -21.9610   -6.9310   21.3920 O   0  0  0  0  0  0  0  0  0  0  0  0
  -21.7700   -6.2800   22.5840 C   0  0  0  0  0  0  0  0  0  0  0  0
  -21.1370   -6.9040   23.6810 C   0  0  0  0  0  3  0  0  0  0  0  0
  -20.8980   -6.1760   24.8640 C   0  0  0  0  0  3  0  0  0  0  0  0
  -21.2800   -4.8230   24.9480 C   0  0  0  0  0  0  0  0  0  0  0  0
  -21.9040   -4.1990   23.8540 C   0  0  0  0  0  3  0  0  0  0  0  0
  -22.1450   -4.9250   22.6740 C   0  0  0  0  0  0  0  0  0  0  0  0
  -22.7290   -4.3120   21.6160 F   0  0  0  0  0  0  0  0  0  0  0  0
  -21.0420   -4.1210   26.0810 F   0  0  0  0  0  0  0  0  0  0  0  0
  -23.0500  -13.5830   21.2560 C   0  0  0  0  0  0  0  0  0  0  0  0
  -22.3750  -12.8670   22.1480 N   0  0  0  0  0  0  0  0  0  0  0  0
  -22.5830  -14.6200   20.7870 O   0  0  0  0  0  0  0  0  0  0  0  0
  -22.7680  -12.0280   22.5500 H   0  0  0  0  0  0  0  0  0  0  0  0
  -21.4530  -13.1620   22.4360 H   0  0  0  0  0  0  0  0  0  0  0  0
  -25.6380  -15.2710   20.3530 N   0  0  0  0  0  0  0  0  0  0  0  0
  -24.8850  -15.9210   20.5490 H   0  0  0  0  0  0  0  0  0  0  0  0
  -26.4720  -15.7240   20.0000 H   0  0  0  0  0  0  0  0  0  0  0  0
  -29.7670  -22.8440   20.1560 N   0  0  0  0  0  4  0  0  0  0  0  0
  -30.5200  -22.5460   19.5560 H   0  0  0  0  0  0  0  0  0  0  0  0
  -30.1770  -22.9580   21.0690 H   0  0  0  0  0  0  0  0  0  0  0  0
  -29.3260  -24.2050   19.6060 C   0  0  0  0  0  2  0  0  0  0  0  0
  -29.1230  -25.2310   21.9820 C   0  0  0  0  0  1  0  0  0  0  0  0
  -28.5840  -25.2590   20.5450 C   0  0  0  0  0  3  0  0  0  0  0  0
  -28.6840  -26.6790   20.1250 O   0  0  0  0  0  0  0  0  0  0  0  0
  -24.7250  -31.7980   23.3430 C   0  0  0  0  0  0  0  0  0  0  0  0
  -27.5310  -27.4770   20.1390 C   0  0  0  0  0  0  0  0  0  0  0  0
  -23.5990  -30.4620   21.5960 C   0  0  0  0  0  3  0  0  0  0  0  0
  -25.1260  -29.0170   20.1400 C   0  0  0  0  0  0  0  0  0  0  0  0
  -26.1330  -30.8520   21.4990 C   0  0  0  0  0  2  0  0  0  0  0  0
  -26.2640  -29.5100   20.7900 C   0  0  0  0  0  0  0  0  0  0  0  0
  -27.4730  -28.7530   20.7770 C   0  0  0  0  0  3  0  0  0  0  0  0
  -26.3720  -27.0330   19.4660 C   0  0  0  0  0  3  0  0  0  0  0  0
  -25.1800  -27.7840   19.4700 C   0  0  0  0  0  3  0  0  0  0  0  0
  -23.8670  -29.8570   20.1930 C   0  0  0  0  0  2  0  0  0  0  0  0
  -24.8350  -31.0500   22.2050 N   0  0  0  0  0  0  0  0  0  0  0  0
  -23.6210  -32.0240   23.8600 O   0  0  0  0  0  0  0  0  0  0  0  0
  -22.9330  -29.3840   22.4840 C   0  0  0  0  0  0  0  0  0  0  0  0
  -21.6190  -29.1740   22.2930 N   0  0  0  0  0  0  0  0  0  0  0  0
  -23.5980  -28.7420   23.3000 O   0  0  0  0  0  0  0  0  0  0  0  0
  -21.1390  -29.7490   21.6150 H   0  0  0  0  0  0  0  0  0  0  0  0
  -18.2680  -27.8500   22.5930 C   0  0  0  0  0  0  0  0  0  0  0  0
  -20.8010  -28.1780   22.9860 C   0  0  0  0  0  3  0  0  0  0  0  0
  -20.9760  -26.7760   22.3570 C   0  0  0  0  0  2  0  0  0  0  0  0
  -19.9310  -26.4640   21.2810 C   0  0  0  0  0  2  0  0  0  0  0  0
  -18.5190  -26.5380   21.8680 C   0  0  0  0  0  2  0  0  0  0  0  0
  -19.3410  -28.6280   23.1040 C   0  0  0  0  0  0  0  0  0  0  0  0
  -19.0560  -29.8550   23.7390 C   0  0  0  0  0  3  0  0  0  0  0  0
  -17.7300  -30.3100   23.8670 C   0  0  0  0  0  3  0  0  0  0  0  0
  -16.6700  -29.5280   23.3740 C   0  0  0  0  0  3  0  0  0  0  0  0
  -16.9390  -28.3000   22.7450 C   0  0  0  0  0  3  0  0  0  0  0  0
  -25.9760  -32.4250   24.0340 C   0  0  0  0  0  3  0  0  0  0  0  0
  -26.4470  -31.6220   25.3080 C   0  0  1  0  0  0  0  0  0  0  0  0
  -25.3150  -31.3420   26.3240 C   0  0  0  0  0  1  0  0  0  0  0  0
  -27.0600  -30.2620   24.9020 C   0  0  0  0  0  1  0  0  0  0  0  0
  -27.5610  -32.4080   26.0400 C   0  0  0  0  0  1  0  0  0  0  0  0
  -25.6410  -33.8110   24.3880 N   0  0  0  0  0  0  0  0  0  0  0  0
  -25.9940  -34.8870   23.6720 C   0  0  0  0  0  0  0  0  0  0  0  0
  -26.7030  -34.8150   22.6650 O   0  0  0  0  0  0  0  0  0  0  0  0
  -25.0200  -33.9390   25.1730 H   0  0  0  0  0  0  0  0  0  0  0  0
  -24.2710  -36.6790   23.2900 C   0  0  0  0  0  1  0  0  0  0  0  0
  -25.4790  -36.2600   24.1460 C   0  0  0  0  0  3  0  0  0  0  0  0
  -27.5630  -37.1360   25.1000 C   0  0  0  0  0  1  0  0  0  0  0  0
  -26.5080  -37.3210   24.1080 N   0  0  0  0  0  0  0  0  0  0  0  0
  -26.0870  -38.2330   24.2580 H   0  0  0  0  0  0  0  0  0  0  0  0
  3  2  1  0
  3  8  1  0
  4  6  2  0
  4  5  1  0
  5  1  1  0
  5  3  2  0
  6  7  1  0
  7 19  1  0
  7  2  2  0
  9  4  1  0
 10  6  1  0
 11 17  1  0
 11 19  1  0
 12 17  1  0
 13 14  1  0
 13 12  1  0
 15 14  1  0
 15 24  1  0
 15 16  1  0
 17 16  1  0
 18 11  2  0
 19 20  1  0
 21 22  2  0
 22 41  1  0
 23 22  1  0
 23 26  1  0
 24 25  1  0
 24 21  1  0
 25 23  2  0
 26 27  1  0
 27 28  2  0
 29 32  1  0
 29 28  1  0
 30 29  2  0
 31 30  1  0
 31 26  2  0
 32 33  1  0
 33 38  2  0
 33 34  1  0
 34 35  2  0
 35 36  1  0
 36 40  1  0
 37 36  2  0
 38 37  1  0
 39 38  1  0
 41 42  1  0
 42 45  1  0
 42 44  1  0
 43 41  2  0
 46 21  1  0
 46 47  1  0
 48 46  1  0
 49  1  1  0
 49 51  1  0
 50 49  1  0
 52 49  1  0
 52 54  1  0
 54 53  1  0
 55 57  1  0
 55 54  1  0
 56 67  2  0
 57 62  1  0
 58 66  1  0
 58 68  1  0
 59 65  1  0
 59 61  1  0
 60 66  1  0
 61 60  1  0
 62 61  2  0
 63 64  1  0
 63 57  2  0
 64 59  2  0
 65 58  1  0
 66 56  1  0
 68 70  2  0
 69 68  1  0
 71 69  1  0
 72 81  2  0
 72 77  1  0
 73 69  1  0
 73 77  1  0
 74 73  1  0
 75 76  1  0
 75 74  1  0
 76 72  1  0
 77 78  2  0
 78 79  1  0
 80 79  2  0
 81 80  1  0
 82 56  1  0
 82 87  1  0
 82 83  1  0
 83 86  1  1
 83 84  1  0
 85 83  1  0
 87 90  1  0
 88 92  1  0
 88 87  1  0
 89 88  2  0
 92 91  1  0
 94 92  1  0
 94 95  1  0
 94 93  1  0
M  ISO  4  11 100  19 100  54 101  55 101
M  END
>  <TORSDO>  (7) 
F 20

>  <SCORE>  (7) 
-12.931

>  <name>  (7) 
6

>  <ligand_id>  (7) 
6

>  <original_smiles>  (7) 
[H]c1c([H])c([H])c2c(c1[H])C([H])([H])C([H])([H])C([H])([H])C2([H])N([H])C(=O)C1([H])N(C(=O)C([H])(N([H])C(=O)C([H])(N([H])C([H])([H])[H])C([H])([H])[H])C(C([H])([H])[H])(C([H])([H])[H])C([H])([H])[H])C([H])([H])c2c([H])c(OC([H])(C([H])([H])[H])C([H])([H])[N+]([H])([H])C([H])([H])c3c(C([H])([H])[H])c([H])c(N([H])C(=O)N4C([H])([H])C([H])([H])C([H])([H])C([H])(n5nc(-c6c([H])c([H])c(Oc7c([H])c([H])c(F)c([H])c7F)c([H])c6[H])c(C(=O)N([H])[H])c5N([H])[H])C4([H])[H])c(C([H])([H])[H])c3C([H])([H])[H])c([H])c([H])c2C1([H])[H]

>  <smiles>  (7) 
[H]c1c([H])c([H])c2c(c1[H])C([H])([H])C([H])([H])C([H])([H])C2([H])N([H])C(=O)C1([H])N(C(=O)C([H])(N([H])C(=O)C([H])(N([H])C([H])([H])[H])C([H])([H])[H])C(C([H])([H])[H])(C([H])([H])[H])C([H])([H])[H])C([H])([H])c2c([H])c(OC([H])(C([H])([H])[H])C([H])([H])[N+]([H])([H])C([H])([H])c3c(C([H])([H])[H])c([H])c(N([H])C(=O)N4C([H])([H])C([H])([H])C([H])([H])C([H])(n5nc(-c6c([H])c([H])c(Oc7c([H])c([H])c(F)c([H])c7F)c([H])c6[H])c(C(=O)N([H])[H])c5N([H])[H])C4([H])[H])c(C([H])([H])[H])c3C([H])([H])[H])c([H])c([H])c2C1([H])[H]

$$$$
7:0:0
     RDKit          3D

 93101  0  0  1  0  0  0  0  0999 V2000
  -30.4690  -20.7180   21.2490 C   0  0  0  0  0  3  0  0  0  0  0  0
  -31.2100  -19.6080   21.7170 C   0  0  0  0  0  0  0  0  0  0  0  0
  -29.3230  -20.6040   20.4360 C   0  0  0  0  0  0  0  0  0  0  0  0
  -29.8090  -17.9310   20.5160 C   0  0  0  0  0  0  0  0  0  0  0  0
  -30.8810  -18.2620   21.3970 C   0  0  0  0  0  0  0  0  0  0  0  0
  -29.0320  -19.1590   20.0840 C   0  0  0  0  0  0  0  0  0  0  0  0
  -32.3900  -19.8970   22.6350 C   0  0  0  0  0  1  0  0  0  0  0  0
  -31.7790  -17.0330   22.2320 Cl  0  0  0  0  0  0  0  0  0  0  0  0
  -27.6480  -18.8770   19.0920 Cl  0  0  0  0  0  0  0  0  0  0  0  0
  -30.2820  -15.2050   20.0300 C   0  0  0  0  0  0  0  0  0  0  0  0
  -30.1540  -12.8560   19.0250 C   0  0  0  0  0  2  0  0  0  0  0  0
  -29.1620  -12.7850   17.8410 C   0  0  0  0  0  2  0  0  0  0  0  0
  -27.7320  -12.5210   18.3460 C   0  0  0  0  0  2  0  0  0  0  0  0
  -27.3620  -13.4170   19.5560 C   0  0  0  0  0  3  0  0  0  0  0  0
  -28.4740  -13.4580   20.6260 C   0  0  0  0  0  2  0  0  0  0  0  0
  -29.6900  -13.9350   19.9530 N   0  0  0  0  0  0  0  0  0  0  0  0
  -31.4680  -15.2490   19.6840 O   0  0  0  0  0  0  0  0  0  0  0  0
  -29.5110  -16.4130   20.2330 N   0  0  0  0  0  0  0  0  0  0  0  0
  -28.5230  -16.2180   20.2190 H   0  0  0  0  0  0  0  0  0  0  0  0
  -25.0150  -13.9260   20.4300 C   0  0  0  0  0  0  0  0  0  0  0  0
  -23.9860  -13.1220   20.8340 C   0  0  0  0  0  0  0  0  0  0  0  0
  -24.4760  -11.7820   20.7530 C   0  0  0  0  0  0  0  0  0  0  0  0
  -26.0620  -13.0750   20.1190 N   0  0  0  0  0  0  0  0  0  0  0  0
  -25.7510  -11.7790   20.3800 N   0  0  0  0  0  0  0  0  0  0  0  0
  -23.7830  -10.5010   20.9500 C   0  0  0  0  0  0  0  0  0  0  0  0
  -24.2320   -9.5550   21.8960 C   0  0  0  0  0  3  0  0  0  0  0  0
  -23.5350   -8.3400   22.0810 C   0  0  0  0  0  3  0  0  0  0  0  0
  -22.3740   -8.0650   21.3210 C   0  0  0  0  0  0  0  0  0  0  0  0
  -21.9430   -9.0020   20.3640 C   0  0  0  0  0  3  0  0  0  0  0  0
  -22.6420  -10.2060   20.1770 C   0  0  0  0  0  3  0  0  0  0  0  0
  -21.6480   -6.9030   21.4140 O   0  0  0  0  0  0  0  0  0  0  0  0
  -21.5700   -6.1970   22.5880 C   0  0  0  0  0  0  0  0  0  0  0  0
  -21.0430   -6.7660   23.7670 C   0  0  0  0  0  3  0  0  0  0  0  0
  -20.9160   -5.9830   24.9320 C   0  0  0  0  0  3  0  0  0  0  0  0
  -21.3050   -4.6310   24.9180 C   0  0  0  0  0  0  0  0  0  0  0  0
  -21.8250   -4.0600   23.7420 C   0  0  0  0  0  3  0  0  0  0  0  0
  -21.9540   -4.8410   22.5800 C   0  0  0  0  0  0  0  0  0  0  0  0
  -22.4350   -4.2790   21.4450 F   0  0  0  0  0  0  0  0  0  0  0  0
  -21.1770   -3.8760   26.0340 F   0  0  0  0  0  0  0  0  0  0  0  0
  -22.5950  -13.5660   21.1780 C   0  0  0  0  0  0  0  0  0  0  0  0
  -21.9190  -12.8340   22.0570 N   0  0  0  0  0  0  0  0  0  0  0  0
  -22.1180  -14.5960   20.7040 O   0  0  0  0  0  0  0  0  0  0  0  0
  -22.3190  -12.0010   22.4610 H   0  0  0  0  0  0  0  0  0  0  0  0
  -20.9870  -13.1140   22.3290 H   0  0  0  0  0  0  0  0  0  0  0  0
  -25.1400  -15.3030   20.2720 N   0  0  0  0  0  0  0  0  0  0  0  0
  -24.3580  -15.9300   20.4270 H   0  0  0  0  0  0  0  0  0  0  0  0
  -25.9410  -15.7680   19.8660 H   0  0  0  0  0  0  0  0  0  0  0  0
  -28.7720  -23.3540   20.3380 C   0  0  0  0  0  0  0  0  0  0  0  0
  -28.5640  -21.9370   20.0810 N   0  0  0  0  0  0  0  0  0  0  0  0
  -29.8060  -23.7020   20.9130 O   0  0  0  0  0  0  0  0  0  0  0  0
  -27.7120  -21.7740   19.5600 H   0  0  0  0  0  0  0  0  0  0  0  0
  -27.7590  -24.6430   19.9290 C   0  0  0  0  0  2  0  0  0  0  0  0
  -28.0560  -26.1780   20.2310 O   0  0  0  0  0  0  0  0  0  0  0  0
  -24.5360  -31.9910   23.2510 C   0  0  0  0  0  0  0  0  0  0  0  0
  -27.0290  -27.2160   20.1730 C   0  0  0  0  0  0  0  0  0  0  0  0
  -23.3030  -30.6040   21.6310 C   0  0  0  0  0  3  0  0  0  0  0  0
  -24.7190  -29.0190   20.1760 C   0  0  0  0  0  0  0  0  0  0  0  0
  -25.8590  -30.8410   21.4270 C   0  0  0  0  0  2  0  0  0  0  0  0
  -25.9140  -29.4440   20.7700 C   0  0  0  0  0  0  0  0  0  0  0  0
  -27.0670  -28.5600   20.7480 C   0  0  0  0  0  3  0  0  0  0  0  0
  -25.8060  -26.9120   19.5330 C   0  0  0  0  0  3  0  0  0  0  0  0
  -24.6830  -27.7690   19.5390 C   0  0  0  0  0  3  0  0  0  0  0  0
  -23.4990  -29.9280   20.2470 C   0  0  0  0  0  2  0  0  0  0  0  0
  -24.5880  -31.1690   22.1570 N   0  0  0  0  0  0  0  0  0  0  0  0
  -23.4600  -32.2820   23.7960 O   0  0  0  0  0  0  0  0  0  0  0  0
  -22.6310  -29.6020   22.6040 C   0  0  0  0  0  0  0  0  0  0  0  0
  -21.3060  -29.4140   22.4780 N   0  0  0  0  0  0  0  0  0  0  0  0
  -23.3080  -28.9950   23.4370 O   0  0  0  0  0  0  0  0  0  0  0  0
  -20.8140  -29.9550   21.7810 H   0  0  0  0  0  0  0  0  0  0  0  0
  -17.9410  -28.1650   22.9860 C   0  0  0  0  0  0  0  0  0  0  0  0
  -20.4950  -28.4740   23.2590 C   0  0  0  0  0  3  0  0  0  0  0  0
  -20.6220  -27.0360   22.7050 C   0  0  0  0  0  2  0  0  0  0  0  0
  -19.5300  -26.6810   21.6910 C   0  0  0  0  0  2  0  0  0  0  0  0
  -18.1430  -26.8100   22.3280 C   0  0  0  0  0  2  0  0  0  0  0  0
  -19.0450  -28.9530   23.4090 C   0  0  0  0  0  0  0  0  0  0  0  0
  -18.8000  -30.2170   23.9870 C   0  0  0  0  0  3  0  0  0  0  0  0
  -17.4860  -30.6950   24.1450 C   0  0  0  0  0  3  0  0  0  0  0  0
  -16.3970  -29.9060   23.7360 C   0  0  0  0  0  3  0  0  0  0  0  0
  -16.6260  -28.6420   23.1630 C   0  0  0  0  0  3  0  0  0  0  0  0
  -25.8250  -32.6230   23.8590 C   0  0  0  0  0  3  0  0  0  0  0  0
  -25.5320  -34.0320   24.1690 N   0  0  0  0  0  0  0  0  0  0  0  0
  -25.8300  -35.0690   23.3740 C   0  0  0  0  0  0  0  0  0  0  0  0
  -26.4460  -34.9390   22.3130 O   0  0  0  0  0  0  0  0  0  0  0  0
  -24.9800  -34.2060   24.9950 H   0  0  0  0  0  0  0  0  0  0  0  0
  -24.0720  -36.8500   23.1070 C   0  0  0  0  0  1  0  0  0  0  0  0
  -25.3770  -36.4710   23.8270 C   0  0  0  0  0  3  0  0  0  0  0  0
  -27.5610  -37.3970   24.4640 C   0  0  0  0  0  1  0  0  0  0  0  0
  -26.3910  -37.5230   23.5980 N   0  0  0  0  0  0  0  0  0  0  0  0
  -25.9920  -38.4460   23.7370 H   0  0  0  0  0  0  0  0  0  0  0  0
  -26.3320  -31.8720   25.1520 C   0  0  1  0  0  0  0  0  0  0  0  0
  -25.2330  -31.6610   26.2200 C   0  0  0  0  0  1  0  0  0  0  0  0
  -26.9090  -30.4840   24.7930 C   0  0  0  0  0  1  0  0  0  0  0  0
  -27.4840  -32.6720   25.8030 C   0  0  0  0  0  1  0  0  0  0  0  0
  1  2  1  0
  2  7  1  0
  3  1  2  0
  4  5  1  0
  5  2  2  0
  5  8  1  0
  6  3  1  0
  6  4  2  0
  9  6  1  0
 10 18  1  0
 11 16  1  0
 12 13  1  0
 12 11  1  0
 14 13  1  0
 14 23  1  0
 14 15  1  0
 16 10  1  0
 16 15  1  0
 17 10  2  0
 18  4  1  0
 19 18  1  0
 20 21  2  0
 21 40  1  0
 22 21  1  0
 22 25  1  0
 23 24  1  0
 23 20  1  0
 24 22  2  0
 25 26  1  0
 26 27  2  0
 28 31  1  0
 28 27  1  0
 29 28  2  0
 30 29  1  0
 30 25  2  0
 31 32  1  0
 32 33  1  0
 33 34  2  0
 35 34  1  0
 35 39  1  0
 36 35  2  0
 37 32  2  0
 37 36  1  0
 38 37  1  0
 40 41  1  0
 41 44  1  0
 41 43  1  0
 42 40  2  0
 45 46  1  0
 45 20  1  0
 47 45  1  0
 48 50  2  0
 49 48  1  0
 49  3  1  0
 51 49  1  0
 52 53  1  0
 52 48  1  0
 54 65  2  0
 55 53  1  0
 55 60  1  0
 56 64  1  0
 56 66  1  0
 57 63  1  0
 57 59  1  0
 58 64  1  0
 59 58  1  0
 60 59  2  0
 61 62  1  0
 61 55  2  0
 62 57  2  0
 63 56  1  0
 64 54  1  0
 66 68  2  0
 67 66  1  0
 69 67  1  0
 70 79  2  0
 70 75  1  0
 71 67  1  0
 71 75  1  0
 72 71  1  0
 73 74  1  0
 73 72  1  0
 74 70  1  0
 75 76  2  0
 76 77  1  0
 78 77  2  0
 79 78  1  0
 80 54  1  0
 80 81  1  0
 80 90  1  0
 81 84  1  0
 82 86  1  0
 82 81  1  0
 83 82  2  0
 86 85  1  0
 88 89  1  0
 88 86  1  0
 88 87  1  0
 90 93  1  1
 90 91  1  0
 92 90  1  0
M  ISO  4  10 100  18 100  52 101  53 101
M  END
>  <TORSDO>  (8) 
F 18

>  <SCORE>  (8) 
-14.048

>  <name>  (8) 
7

>  <ligand_id>  (8) 
7

>  <original_smiles>  (8) 
[H]c1c([H])c([H])c2c(c1[H])C([H])([H])C([H])([H])C([H])([H])C2([H])N([H])C(=O)C1([H])N(C(=O)C([H])(N([H])C(=O)C([H])(N([H])C([H])([H])[H])C([H])([H])[H])C(C([H])([H])[H])(C([H])([H])[H])C([H])([H])[H])C([H])([H])c2c([H])c(OC([H])([H])C(=O)N([H])c3c([H])c(C([H])([H])[H])c(Cl)c(N([H])C(=O)N4C([H])([H])C([H])([H])C([H])([H])C([H])(n5nc(-c6c([H])c([H])c(Oc7c([H])c([H])c(F)c([H])c7F)c([H])c6[H])c(C(=O)N([H])[H])c5N([H])[H])C4([H])[H])c3Cl)c([H])c([H])c2C1([H])[H]

>  <smiles>  (8) 
[H]c1c([H])c([H])c2c(c1[H])C([H])([H])C([H])([H])C([H])([H])C2([H])N([H])C(=O)C1([H])N(C(=O)C([H])(N([H])C(=O)C([H])(N([H])C([H])([H])[H])C([H])([H])[H])C(C([H])([H])[H])(C([H])([H])[H])C([H])([H])[H])C([H])([H])c2c([H])c(OC([H])([H])C(=O)N([H])c3c([H])c(C([H])([H])[H])c(Cl)c(N([H])C(=O)N4C([H])([H])C([H])([H])C([H])([H])C([H])(n5nc(-c6c([H])c([H])c(Oc7c([H])c([H])c(F)c([H])c7F)c([H])c6[H])c(C(=O)N([H])[H])c5N([H])[H])C4([H])[H])c3Cl)c([H])c([H])c2C1([H])[H]

$$$$
8:0:0
     RDKit          3D

 92100  0  0  1  0  0  0  0  0999 V2000
  -30.7290  -20.6800   20.9640 C   0  0  0  0  0  3  0  0  0  0  0  0
  -31.5580  -19.5810   21.2800 C   0  0  0  0  0  3  0  0  0  0  0  0
  -29.4330  -20.5380   20.4140 C   0  0  0  0  0  0  0  0  0  0  0  0
  -29.9560  -17.8700   20.4960 C   0  0  0  0  0  0  0  0  0  0  0  0
  -31.1960  -18.2330   21.0740 C   0  0  0  0  0  0  0  0  0  0  0  0
  -29.0900  -19.0720   20.1950 C   0  0  0  0  0  0  0  0  0  0  0  0
  -32.0640  -17.2870   21.5000 F   0  0  0  0  0  0  0  0  0  0  0  0
  -27.8710  -18.7860   19.6790 F   0  0  0  0  0  0  0  0  0  0  0  0
  -30.4090  -15.1280   20.2040 C   0  0  0  0  0  0  0  0  0  0  0  0
  -30.2840  -12.7640   19.2380 C   0  0  0  0  0  2  0  0  0  0  0  0
  -29.3250  -12.6850   18.0280 C   0  0  0  0  0  2  0  0  0  0  0  0
  -27.8780  -12.4460   18.4960 C   0  0  0  0  0  2  0  0  0  0  0  0
  -27.4840  -13.3670   19.6800 C   0  0  0  0  0  3  0  0  0  0  0  0
  -28.5650  -13.4130   20.7800 C   0  0  0  0  0  2  0  0  0  0  0  0
  -29.8070  -13.8620   20.1360 N   0  0  0  0  0  0  0  0  0  0  0  0
  -31.6100  -15.1480   19.9100 O   0  0  0  0  0  0  0  0  0  0  0  0
  -29.6400  -16.3430   20.3400 N   0  0  0  0  0  0  0  0  0  0  0  0
  -28.6500  -16.1570   20.3490 H   0  0  0  0  0  0  0  0  0  0  0  0
  -25.1220  -13.9180   20.4850 C   0  0  0  0  0  0  0  0  0  0  0  0
  -24.0710  -13.1320   20.8670 C   0  0  0  0  0  0  0  0  0  0  0  0
  -24.5430  -11.7840   20.8110 C   0  0  0  0  0  0  0  0  0  0  0  0
  -26.1630  -13.0490   20.2100 N   0  0  0  0  0  0  0  0  0  0  0  0
  -25.8270  -11.7600   20.4730 N   0  0  0  0  0  0  0  0  0  0  0  0
  -23.8260  -10.5150   20.9980 C   0  0  0  0  0  0  0  0  0  0  0  0
  -24.2630   -9.5500   21.9310 C   0  0  0  0  0  3  0  0  0  0  0  0
  -23.5440   -8.3470   22.1080 C   0  0  0  0  0  3  0  0  0  0  0  0
  -22.3720   -8.1030   21.3520 C   0  0  0  0  0  0  0  0  0  0  0  0
  -21.9550   -9.0580   20.4090 C   0  0  0  0  0  3  0  0  0  0  0  0
  -22.6740  -10.2510   20.2300 C   0  0  0  0  0  3  0  0  0  0  0  0
  -21.6240   -6.9540   21.4390 O   0  0  0  0  0  0  0  0  0  0  0  0
  -21.5640   -6.2210   22.5970 C   0  0  0  0  0  0  0  0  0  0  0  0
  -21.0900   -6.7760   23.8060 C   0  0  0  0  0  3  0  0  0  0  0  0
  -20.9790   -5.9680   24.9560 C   0  0  0  0  0  3  0  0  0  0  0  0
  -21.3290   -4.6060   24.8970 C   0  0  0  0  0  0  0  0  0  0  0  0
  -21.7940   -4.0500   23.6910 C   0  0  0  0  0  3  0  0  0  0  0  0
  -21.9070   -4.8550   22.5440 C   0  0  0  0  0  0  0  0  0  0  0  0
  -22.3360   -4.3090   21.3810 F   0  0  0  0  0  0  0  0  0  0  0  0
  -21.2140   -3.8280   25.9980 F   0  0  0  0  0  0  0  0  0  0  0  0
  -22.6760  -13.5980   21.1700 C   0  0  0  0  0  0  0  0  0  0  0  0
  -21.9670  -12.8860   22.0380 N   0  0  0  0  0  0  0  0  0  0  0  0
  -22.2270  -14.6290   20.6730 O   0  0  0  0  0  0  0  0  0  0  0  0
  -22.3440  -12.0510   22.4620 H   0  0  0  0  0  0  0  0  0  0  0  0
  -21.0320  -13.1800   22.2830 H   0  0  0  0  0  0  0  0  0  0  0  0
  -25.2700  -15.2910   20.3180 N   0  0  0  0  0  0  0  0  0  0  0  0
  -24.4950  -15.9320   20.4450 H   0  0  0  0  0  0  0  0  0  0  0  0
  -26.0910  -15.7420   19.9350 H   0  0  0  0  0  0  0  0  0  0  0  0
  -28.8570  -23.2740   20.3920 C   0  0  0  0  0  0  0  0  0  0  0  0
  -27.3140  -21.5780   19.4850 C   0  0  0  0  0  1  0  0  0  0  0  0
  -28.6000  -21.8540   20.1310 N   0  0  0  0  0  0  0  0  0  0  0  0
  -29.9080  -23.6060   20.9480 O   0  0  0  0  0  0  0  0  0  0  0  0
  -27.8640  -24.5950   20.0240 C   0  0  0  0  0  2  0  0  0  0  0  0
  -28.1840  -26.1230   20.3220 O   0  0  0  0  0  0  0  0  0  0  0  0
  -24.6260  -31.9270   23.3010 C   0  0  0  0  0  0  0  0  0  0  0  0
  -27.1610  -27.1620   20.2510 C   0  0  0  0  0  0  0  0  0  0  0  0
  -23.4180  -30.5470   21.6580 C   0  0  0  0  0  3  0  0  0  0  0  0
  -24.8550  -28.9640   20.2230 C   0  0  0  0  0  0  0  0  0  0  0  0
  -25.9770  -30.7820   21.4950 C   0  0  0  0  0  2  0  0  0  0  0  0
  -26.0400  -29.3870   20.8360 C   0  0  0  0  0  0  0  0  0  0  0  0
  -27.1940  -28.5030   20.8310 C   0  0  0  0  0  3  0  0  0  0  0  0
  -25.9490  -26.8600   19.5910 C   0  0  0  0  0  3  0  0  0  0  0  0
  -24.8250  -27.7170   19.5820 C   0  0  0  0  0  3  0  0  0  0  0  0
  -23.6350  -29.8750   20.2760 C   0  0  0  0  0  2  0  0  0  0  0  0
  -24.6950  -31.1080   22.2060 N   0  0  0  0  0  0  0  0  0  0  0  0
  -23.5410  -32.2160   23.8300 O   0  0  0  0  0  0  0  0  0  0  0  0
  -22.7300  -29.5410   22.6180 C   0  0  0  0  0  0  0  0  0  0  0  0
  -21.4020  -29.3700   22.4830 N   0  0  0  0  0  0  0  0  0  0  0  0
  -23.3950  -28.9170   23.4480 O   0  0  0  0  0  0  0  0  0  0  0  0
  -20.9200  -29.9250   21.7910 H   0  0  0  0  0  0  0  0  0  0  0  0
  -18.0200  -28.1570   22.9620 C   0  0  0  0  0  0  0  0  0  0  0  0
  -20.5770  -28.4320   23.2500 C   0  0  0  0  0  3  0  0  0  0  0  0
  -20.6890  -26.9980   22.6830 C   0  0  0  0  0  2  0  0  0  0  0  0
  -19.5970  -26.6670   21.6600 C   0  0  0  0  0  2  0  0  0  0  0  0
  -18.2090  -26.8070   22.2900 C   0  0  0  0  0  2  0  0  0  0  0  0
  -19.1320  -28.9270   23.3980 C   0  0  0  0  0  0  0  0  0  0  0  0
  -18.9000  -30.1890   23.9880 C   0  0  0  0  0  3  0  0  0  0  0  0
  -17.5910  -30.6820   24.1440 C   0  0  0  0  0  3  0  0  0  0  0  0
  -16.4940  -29.9100   23.7220 C   0  0  0  0  0  3  0  0  0  0  0  0
  -16.7100  -28.6490   23.1380 C   0  0  0  0  0  3  0  0  0  0  0  0
  -25.9060  -32.5540   23.9310 C   0  0  0  0  0  3  0  0  0  0  0  0
  -25.6060  -33.9590   24.2560 N   0  0  0  0  0  0  0  0  0  0  0  0
  -25.9230  -35.0080   23.4850 C   0  0  0  0  0  0  0  0  0  0  0  0
  -26.5650  -34.8950   22.4370 O   0  0  0  0  0  0  0  0  0  0  0  0
  -25.0330  -34.1210   25.0710 H   0  0  0  0  0  0  0  0  0  0  0  0
  -24.1790  -36.7990   23.1900 C   0  0  0  0  0  1  0  0  0  0  0  0
  -25.4560  -36.4030   23.9470 C   0  0  0  0  0  3  0  0  0  0  0  0
  -27.6220  -37.3060   24.6750 C   0  0  0  0  0  1  0  0  0  0  0  0
  -26.4820  -37.4550   23.7740 N   0  0  0  0  0  0  0  0  0  0  0  0
  -26.0800  -38.3770   23.9210 H   0  0  0  0  0  0  0  0  0  0  0  0
  -26.4020  -31.7900   25.2200 C   0  0  1  0  0  0  0  0  0  0  0  0
  -25.2950  -31.5740   26.2800 C   0  0  0  0  0  1  0  0  0  0  0  0
  -26.9740  -30.4030   24.8510 C   0  0  0  0  0  1  0  0  0  0  0  0
  -27.5530  -32.5780   25.8870 C   0  0  0  0  0  1  0  0  0  0  0  0
  1  2  1  0
  3  1  2  0
  4  5  1  0
  5  2  2  0
  5  7  1  0
  6  3  1  0
  6  4  2  0
  8  6  1  0
  9 17  1  0
 10 15  1  0
 11 12  1  0
 11 10  1  0
 13 12  1  0
 13 22  1  0
 13 14  1  0
 15  9  1  0
 15 14  1  0
 16  9  2  0
 17 18  1  0
 17  4  1  0
 19 20  2  0
 20 39  1  0
 21 20  1  0
 21 24  1  0
 22 23  1  0
 22 19  1  0
 23 21  2  0
 24 25  1  0
 25 26  2  0
 27 30  1  0
 27 26  1  0
 28 27  2  0
 29 28  1  0
 29 24  2  0
 30 31  1  0
 31 32  1  0
 32 33  2  0
 34 33  1  0
 34 38  1  0
 35 34  2  0
 36 31  2  0
 36 35  1  0
 37 36  1  0
 39 40  1  0
 40 43  1  0
 40 42  1  0
 41 39  2  0
 44 45  1  0
 44 19  1  0
 46 44  1  0
 47 50  2  0
 48 49  1  0
 49 47  1  0
 49  3  1  0
 51 52  1  0
 51 47  1  0
 53 64  2  0
 54 52  1  0
 54 59  1  0
 55 63  1  0
 55 65  1  0
 56 62  1  0
 56 58  1  0
 57 63  1  0
 58 57  1  0
 59 58  2  0
 60 54  2  0
 61 60  1  0
 61 56  2  0
 62 55  1  0
 63 53  1  0
 65 67  2  0
 66 65  1  0
 68 66  1  0
 69 78  2  0
 69 74  1  0
 70 66  1  0
 70 74  1  0
 71 70  1  0
 72 73  1  0
 72 71  1  0
 73 69  1  0
 74 75  2  0
 75 76  1  0
 77 76  2  0
 78 77  1  0
 79 53  1  0
 79 80  1  0
 79 89  1  0
 80 83  1  0
 81 85  1  0
 81 80  1  0
 82 81  2  0
 85 84  1  0
 87 88  1  0
 87 85  1  0
 87 86  1  0
 89 92  1  1
 89 90  1  0
 91 89  1  0
M  ISO  4   9 100  17 100  51 101  52 101
M  END
>  <TORSDO>  (9) 
F 18

>  <SCORE>  (9) 
-14.877

>  <name>  (9) 
8

>  <ligand_id>  (9) 
8

>  <original_smiles>  (9) 
[H]c1c([H])c([H])c2c(c1[H])C([H])([H])C([H])([H])C([H])([H])C2([H])N([H])C(=O)C1([H])N(C(=O)C([H])(N([H])C(=O)C([H])(N([H])C([H])([H])[H])C([H])([H])[H])C(C([H])([H])[H])(C([H])([H])[H])C([H])([H])[H])C([H])([H])c2c([H])c(OC([H])([H])C(=O)N(c3c([H])c([H])c(F)c(N([H])C(=O)N4C([H])([H])C([H])([H])C([H])([H])C([H])(n5nc(-c6c([H])c([H])c(Oc7c([H])c([H])c(F)c([H])c7F)c([H])c6[H])c(C(=O)N([H])[H])c5N([H])[H])C4([H])[H])c3F)C([H])([H])[H])c([H])c([H])c2C1([H])[H]

>  <smiles>  (9) 
[H]c1c([H])c([H])c2c(c1[H])C([H])([H])C([H])([H])C([H])([H])C2([H])N([H])C(=O)C1([H])N(C(=O)C([H])(N([H])C(=O)C([H])(N([H])C([H])([H])[H])C([H])([H])[H])C(C([H])([H])[H])(C([H])([H])[H])C([H])([H])[H])C([H])([H])c2c([H])c(OC([H])([H])C(=O)N(c3c([H])c([H])c(F)c(N([H])C(=O)N4C([H])([H])C([H])([H])C([H])([H])C([H])(n5nc(-c6c([H])c([H])c(Oc7c([H])c([H])c(F)c([H])c7F)c([H])c6[H])c(C(=O)N([H])[H])c5N([H])[H])C4([H])[H])c3F)C([H])([H])[H])c([H])c([H])c2C1([H])[H]

$$$$
9:0:0
     RDKit          3D

 90 97  0  0  1  0  0  0  0  0999 V2000
  -29.6270  -21.2800   20.5660 C   0  0  0  0  0  0  0  0  0  0  0  0
  -28.7190  -22.3220   20.3990 N   0  0  0  0  0  0  0  0  0  0  0  0
  -30.8360  -21.5150   20.4890 O   0  0  0  0  0  0  0  0  0  0  0  0
  -29.2300  -19.7990   21.0200 C   0  0  0  0  0  2  0  0  0  0  0  0
  -29.6740  -18.4690   20.2250 C   0  0  0  0  0  2  0  0  0  0  0  0
  -30.2450  -17.2110   21.0540 C   0  0  0  0  0  2  0  0  0  0  0  0
  -30.6590  -14.6970   20.3780 C   0  0  0  0  0  0  0  0  0  0  0  0
  -30.4380  -12.4720   19.2740 C   0  0  0  0  0  2  0  0  0  0  0  0
  -29.4840  -12.5980   18.0690 C   0  0  0  0  0  2  0  0  0  0  0  0
  -28.0140  -12.4320   18.5060 C   0  0  0  0  0  2  0  0  0  0  0  0
  -27.6620  -13.2780   19.7610 C   0  0  0  0  0  3  0  0  0  0  0  0
  -28.7330  -13.1240   20.8620 C   0  0  0  0  0  2  0  0  0  0  0  0
  -30.0260  -13.4840   20.2650 N   0  0  0  0  0  0  0  0  0  0  0  0
  -31.8430  -14.8270   20.0570 O   0  0  0  0  0  0  0  0  0  0  0  0
  -29.8760  -15.7880   20.6780 N   0  0  0  0  0  0  0  0  0  0  0  0
  -28.9060  -15.5520   20.8250 H   0  0  0  0  0  0  0  0  0  0  0  0
  -25.2710  -13.8620   20.4980 C   0  0  0  0  0  0  0  0  0  0  0  0
  -24.2110  -13.0820   20.8720 C   0  0  0  0  0  0  0  0  0  0  0  0
  -24.6780  -11.7340   20.8330 C   0  0  0  0  0  0  0  0  0  0  0  0
  -26.3180  -12.9870   20.2550 N   0  0  0  0  0  0  0  0  0  0  0  0
  -25.9680  -11.7020   20.5210 N   0  0  0  0  0  0  0  0  0  0  0  0
  -23.9560  -10.4680   21.0200 C   0  0  0  0  0  0  0  0  0  0  0  0
  -24.3770   -9.5120   21.9700 C   0  0  0  0  0  3  0  0  0  0  0  0
  -23.6550   -8.3110   22.1450 C   0  0  0  0  0  3  0  0  0  0  0  0
  -22.4980   -8.0590   21.3690 C   0  0  0  0  0  0  0  0  0  0  0  0
  -22.0990   -9.0030   20.4060 C   0  0  0  0  0  3  0  0  0  0  0  0
  -22.8210  -10.1960   20.2290 C   0  0  0  0  0  3  0  0  0  0  0  0
  -21.7490   -6.9090   21.4530 O   0  0  0  0  0  0  0  0  0  0  0  0
  -21.6620   -6.1900   22.6190 C   0  0  0  0  0  0  0  0  0  0  0  0
  -21.1460   -6.7550   23.8060 C   0  0  0  0  0  3  0  0  0  0  0  0
  -21.0100   -5.9580   24.9610 C   0  0  0  0  0  3  0  0  0  0  0  0
  -21.3800   -4.6000   24.9300 C   0  0  0  0  0  0  0  0  0  0  0  0
  -21.8890   -4.0370   23.7460 C   0  0  0  0  0  3  0  0  0  0  0  0
  -22.0260   -4.8290   22.5930 C   0  0  0  0  0  0  0  0  0  0  0  0
  -22.4970   -4.2750   21.4490 F   0  0  0  0  0  0  0  0  0  0  0  0
  -21.2420   -3.8340   26.0370 F   0  0  0  0  0  0  0  0  0  0  0  0
  -22.8110  -13.5520   21.1500 C   0  0  0  0  0  0  0  0  0  0  0  0
  -22.0850  -12.8450   22.0070 N   0  0  0  0  0  0  0  0  0  0  0  0
  -22.3710  -14.5810   20.6360 O   0  0  0  0  0  0  0  0  0  0  0  0
  -22.4560  -12.0160   22.4470 H   0  0  0  0  0  0  0  0  0  0  0  0
  -21.1420  -13.1350   22.2280 H   0  0  0  0  0  0  0  0  0  0  0  0
  -25.4270  -15.2350   20.3250 N   0  0  0  0  0  0  0  0  0  0  0  0
  -24.6520  -15.8780   20.4480 H   0  0  0  0  0  0  0  0  0  0  0  0
  -26.2590  -15.6850   19.9680 H   0  0  0  0  0  0  0  0  0  0  0  0
  -27.3590  -22.0320   19.9120 C   0  0  0  0  0  2  0  0  0  0  0  0
  -25.9840  -21.5530   17.7950 C   0  0  0  0  0  1  0  0  0  0  0  0
  -27.3810  -21.7510   18.3960 C   0  0  0  0  0  2  0  0  0  0  0  0
  -29.1090  -23.8100   20.4460 C   0  0  0  0  0  3  0  0  0  0  0  0
  -27.9890  -24.9540   20.2480 C   0  0  0  0  0  3  0  0  0  0  0  0
  -28.2640  -26.4200   20.3540 O   0  0  0  0  0  0  0  0  0  0  0  0
  -24.6180  -31.9790   23.2530 C   0  0  0  0  0  0  0  0  0  0  0  0
  -27.1610  -27.3020   20.2880 C   0  0  0  0  0  0  0  0  0  0  0  0
  -23.3880  -30.5500   21.6640 C   0  0  0  0  0  3  0  0  0  0  0  0
  -24.8110  -28.9550   20.2600 C   0  0  0  0  0  0  0  0  0  0  0  0
  -25.9310  -30.8350   21.4500 C   0  0  0  0  0  2  0  0  0  0  0  0
  -25.9930  -29.4400   20.8330 C   0  0  0  0  0  0  0  0  0  0  0  0
  -27.1700  -28.6270   20.8340 C   0  0  0  0  0  3  0  0  0  0  0  0
  -25.9480  -26.8800   19.6900 C   0  0  0  0  0  3  0  0  0  0  0  0
  -24.7930  -27.6800   19.6790 C   0  0  0  0  0  3  0  0  0  0  0  0
  -23.5830  -29.8410   20.2990 C   0  0  0  0  0  2  0  0  0  0  0  0
  -24.6660  -31.1390   22.1780 N   0  0  0  0  0  0  0  0  0  0  0  0
  -23.5400  -32.2790   23.7890 O   0  0  0  0  0  0  0  0  0  0  0  0
  -22.7260  -29.5620   22.6550 C   0  0  0  0  0  0  0  0  0  0  0  0
  -21.4040  -29.3570   22.5120 N   0  0  0  0  0  0  0  0  0  0  0  0
  -23.4000  -28.9820   23.5100 O   0  0  0  0  0  0  0  0  0  0  0  0
  -20.9190  -29.8720   21.7900 H   0  0  0  0  0  0  0  0  0  0  0  0
  -18.0430  -28.1080   22.9920 C   0  0  0  0  0  0  0  0  0  0  0  0
  -20.5880  -28.4400   23.3100 C   0  0  0  0  0  3  0  0  0  0  0  0
  -20.7360  -26.9850   22.8080 C   0  0  0  0  0  2  0  0  0  0  0  0
  -19.6670  -26.5870   21.7870 C   0  0  0  0  0  2  0  0  0  0  0  0
  -18.2660  -26.7320   22.3880 C   0  0  0  0  0  2  0  0  0  0  0  0
  -19.1340  -28.9170   23.4110 C   0  0  0  0  0  0  0  0  0  0  0  0
  -18.8730  -30.2010   23.9340 C   0  0  0  0  0  3  0  0  0  0  0  0
  -17.5530  -30.6800   24.0440 C   0  0  0  0  0  3  0  0  0  0  0  0
  -16.4760  -29.8700   23.6430 C   0  0  0  0  0  3  0  0  0  0  0  0
  -16.7220  -28.5860   23.1240 C   0  0  0  0  0  3  0  0  0  0  0  0
  -25.9100  -32.6180   23.8480 C   0  0  0  0  0  3  0  0  0  0  0  0
  -25.6050  -34.0190   24.1710 N   0  0  0  0  0  0  0  0  0  0  0  0
  -25.9200  -35.0660   23.3980 C   0  0  0  0  0  0  0  0  0  0  0  0
  -26.5670  -34.9540   22.3540 O   0  0  0  0  0  0  0  0  0  0  0  0
  -25.0300  -34.1790   24.9850 H   0  0  0  0  0  0  0  0  0  0  0  0
  -24.1920  -36.8600   23.0530 C   0  0  0  0  0  1  0  0  0  0  0  0
  -25.4410  -36.4590   23.8520 C   0  0  0  0  0  3  0  0  0  0  0  0
  -27.5840  -37.3470   24.6580 C   0  0  0  0  0  1  0  0  0  0  0  0
  -26.4750  -37.5090   23.7200 N   0  0  0  0  0  0  0  0  0  0  0  0
  -26.0730  -38.4320   23.8630 H   0  0  0  0  0  0  0  0  0  0  0  0
  -26.4440  -31.8590   25.1240 C   0  0  1  0  0  0  0  0  0  0  0  0
  -25.3640  -31.6230   26.2050 C   0  0  0  0  0  1  0  0  0  0  0  0
  -27.0330  -30.4830   24.7360 C   0  0  0  0  0  1  0  0  0  0  0  0
  -27.5990  -32.6650   25.7640 C   0  0  0  0  0  1  0  0  0  0  0  0
  1  4  1  0
  2 48  1  0
  2  1  1  0
  3  1  2  0
  5  4  1  0
  5  6  1  0
  7 15  1  0
  8 13  1  0
  9 10  1  0
  9  8  1  0
 11 10  1  0
 11 20  1  0
 11 12  1  0
 13  7  1  0
 13 12  1  0
 14  7  2  0
 15 16  1  0
 15  6  1  0
 17 18  2  0
 18 37  1  0
 19 18  1  0
 19 22  1  0
 20 17  1  0
 20 21  1  0
 21 19  2  0
 22 23  1  0
 23 24  2  0
 25 28  1  0
 25 24  1  0
 26 25  2  0
 27 26  1  0
 27 22  2  0
 28 29  1  0
 29 30  1  0
 30 31  2  0
 32 31  1  0
 32 36  1  0
 33 32  2  0
 34 29  2  0
 34 33  1  0
 35 34  1  0
 37 38  1  0
 38 41  1  0
 38 40  1  0
 39 37  2  0
 42 43  1  0
 42 17  1  0
 44 42  1  0
 45  2  1  0
 46 47  1  0
 47 45  1  0
 49 50  1  0
 49 48  2  0
 51 62  2  0
 52 50  1  0
 52 57  1  0
 53 61  1  0
 53 63  1  0
 54 60  1  0
 54 56  1  0
 55 61  1  0
 56 57  2  0
 56 55  1  0
 58 52  2  0
 59 58  1  0
 59 54  2  0
 60 53  1  0
 61 51  1  0
 63 65  2  0
 64 63  1  0
 66 64  1  0
 67 76  2  0
 67 72  1  0
 68 64  1  0
 68 72  1  0
 69 68  1  0
 70 71  1  0
 70 69  1  0
 71 67  1  0
 72 73  2  0
 73 74  1  0
 75 74  2  0
 76 75  1  0
 77 51  1  0
 77 78  1  0
 77 87  1  0
 78 81  1  0
 79 83  1  0
 79 78  1  0
 80 79  2  0
 83 82  1  0
 85 83  1  0
 85 86  1  0
 85 84  1  0
 87 90  1  1
 87 88  1  0
 89 87  1  0
M  ISO  4   7 100  15 100  49 101  50 101
M  END
>  <TORSDO>  (10) 
F 23

>  <SCORE>  (10) 
-12.686

>  <name>  (10) 
9

>  <ligand_id>  (10) 
9

>  <original_smiles>  (10) 
[H]c1c([H])c([H])c2c(c1[H])C([H])([H])C([H])([H])C([H])([H])C2([H])N([H])C(=O)C1([H])N(C(=O)C([H])(N([H])C(=O)C([H])(N([H])C([H])([H])[H])C([H])([H])[H])C(C([H])([H])[H])(C([H])([H])[H])C([H])([H])[H])C([H])([H])c2c([H])c(OC([H])([H])C([H])([H])N(C(=O)C([H])([H])C([H])([H])C([H])([H])N([H])C(=O)N3C([H])([H])C([H])([H])C([H])([H])C([H])(n4nc(-c5c([H])c([H])c(Oc6c([H])c([H])c(F)c([H])c6F)c([H])c5[H])c(C(=O)N([H])[H])c4N([H])[H])C3([H])[H])C([H])([H])C([H])([H])C([H])([H])[H])c([H])c([H])c2C1([H])[H]

>  <smiles>  (10) 
[H]c1c([H])c([H])c2c(c1[H])C([H])([H])C([H])([H])C([H])([H])C2([H])N([H])C(=O)C1([H])N(C(=O)C([H])(N([H])C(=O)C([H])(N([H])C([H])([H])[H])C([H])([H])[H])C(C([H])([H])[H])(C([H])([H])[H])C([H])([H])[H])C([H])([H])c2c([H])c(OC([H])([H])C([H])([H])N(C(=O)C([H])([H])C([H])([H])C([H])([H])N([H])C(=O)N3C([H])([H])C([H])([H])C([H])([H])C([H])(n4nc(-c5c([H])c([H])c(Oc6c([H])c([H])c(F)c([H])c6F)c([H])c5[H])c(C(=O)N([H])[H])c4N([H])[H])C3([H])[H])C([H])([H])C([H])([H])C([H])([H])[H])c([H])c([H])c2C1([H])[H]

$$$$
10:0:0
     RDKit          3D

 93101  0  0  1  0  0  0  0  0999 V2000
  -30.4000  -18.5470   17.9760 C   0  0  0  0  0  3  0  0  0  0  0  0
  -30.0350  -17.2010   20.0010 C   0  0  0  0  0  0  0  0  0  0  0  0
  -29.7460  -19.7590   20.0180 C   0  0  0  0  0  0  0  0  0  0  0  0
  -30.3540  -17.3000   18.6250 C   0  0  0  0  0  0  0  0  0  0  0  0
  -30.1170  -19.7510   18.6480 C   0  0  0  0  0  0  0  0  0  0  0  0
  -29.7130  -18.4530   20.6710 C   0  0  0  0  0  0  0  0  0  0  0  0
  -30.5780  -16.1880   17.8830 F   0  0  0  0  0  0  0  0  0  0  0  0
  -30.2360  -20.9070   17.9510 F   0  0  0  0  0  0  0  0  0  0  0  0
  -29.3600  -18.4020   21.9810 F   0  0  0  0  0  0  0  0  0  0  0  0
  -30.6820  -14.7230   20.3510 C   0  0  0  0  0  0  0  0  0  0  0  0
  -30.4430  -12.4530   19.3630 C   0  0  0  0  0  2  0  0  0  0  0  0
  -29.5140  -12.5610   18.1330 C   0  0  0  0  0  2  0  0  0  0  0  0
  -28.0420  -12.4090   18.5540 C   0  0  0  0  0  2  0  0  0  0  0  0
  -27.6770  -13.2980   19.7730 C   0  0  0  0  0  3  0  0  0  0  0  0
  -28.7290  -13.1900   20.9000 C   0  0  0  0  0  2  0  0  0  0  0  0
  -30.0400  -13.5090   20.3210 N   0  0  0  0  0  0  0  0  0  0  0  0
  -31.8630  -14.8070   20.0050 O   0  0  0  0  0  0  0  0  0  0  0  0
  -29.9420  -15.8590   20.6260 N   0  0  0  0  0  0  0  0  0  0  0  0
  -29.1010  -15.7020   21.1600 H   0  0  0  0  0  0  0  0  0  0  0  0
  -25.2940  -13.9150   20.4960 C   0  0  0  0  0  0  0  0  0  0  0  0
  -24.2190  -13.1510   20.8620 C   0  0  0  0  0  0  0  0  0  0  0  0
  -24.6670  -11.7950   20.8260 C   0  0  0  0  0  0  0  0  0  0  0  0
  -26.3290  -13.0240   20.2580 N   0  0  0  0  0  0  0  0  0  0  0  0
  -25.9580  -11.7440   20.5200 N   0  0  0  0  0  0  0  0  0  0  0  0
  -23.9270  -10.5400   21.0100 C   0  0  0  0  0  0  0  0  0  0  0  0
  -24.3440   -9.5630   21.9420 C   0  0  0  0  0  3  0  0  0  0  0  0
  -23.6040   -8.3740   22.1110 C   0  0  0  0  0  3  0  0  0  0  0  0
  -22.4340   -8.1500   21.3490 C   0  0  0  0  0  0  0  0  0  0  0  0
  -22.0360   -9.1130   20.4050 C   0  0  0  0  0  3  0  0  0  0  0  0
  -22.7770  -10.2960   20.2330 C   0  0  0  0  0  3  0  0  0  0  0  0
  -21.6660   -7.0140   21.4300 O   0  0  0  0  0  0  0  0  0  0  0  0
  -21.5910   -6.2750   22.5830 C   0  0  0  0  0  0  0  0  0  0  0  0
  -21.1250   -6.8300   23.7950 C   0  0  0  0  0  3  0  0  0  0  0  0
  -20.9980   -6.0180   24.9390 C   0  0  0  0  0  3  0  0  0  0  0  0
  -21.3290   -4.6510   24.8730 C   0  0  0  0  0  0  0  0  0  0  0  0
  -21.7900   -4.0960   23.6660 C   0  0  0  0  0  3  0  0  0  0  0  0
  -21.9170   -4.9060   22.5250 C   0  0  0  0  0  0  0  0  0  0  0  0
  -22.3400   -4.3600   21.3590 F   0  0  0  0  0  0  0  0  0  0  0  0
  -21.2020   -3.8680   25.9700 F   0  0  0  0  0  0  0  0  0  0  0  0
  -22.8270  -13.6420   21.1330 C   0  0  0  0  0  0  0  0  0  0  0  0
  -22.0900  -12.9490   21.9940 N   0  0  0  0  0  0  0  0  0  0  0  0
  -22.4010  -14.6740   20.6180 O   0  0  0  0  0  0  0  0  0  0  0  0
  -22.4480  -12.1110   22.4320 H   0  0  0  0  0  0  0  0  0  0  0  0
  -21.1560  -13.2580   22.2230 H   0  0  0  0  0  0  0  0  0  0  0  0
  -25.4770  -15.2830   20.3220 N   0  0  0  0  0  0  0  0  0  0  0  0
  -24.7170  -15.9490   20.4170 H   0  0  0  0  0  0  0  0  0  0  0  0
  -26.3300  -15.7050   19.9830 H   0  0  0  0  0  0  0  0  0  0  0  0
  -29.4830  -21.0160   20.7020 N   0  0  0  0  0  0  0  0  0  0  0  0
  -29.3830  -20.8920   21.7060 H   0  0  0  0  0  0  0  0  0  0  0  0
  -28.7220  -22.2070   20.1440 C   0  0  0  0  0  2  0  0  0  0  0  0
  -29.1010  -23.7120   20.6060 C   0  0  0  0  0  3  0  0  0  0  0  0
  -28.1380  -24.9190   20.1230 C   0  0  0  0  0  3  0  0  0  0  0  0
  -28.3890  -26.3780   20.3900 O   0  0  0  0  0  0  0  0  0  0  0  0
  -24.6400  -31.8900   23.2500 C   0  0  0  0  0  0  0  0  0  0  0  0
  -27.3040  -27.2830   20.2760 C   0  0  0  0  0  0  0  0  0  0  0  0
  -23.4750  -30.4900   21.5880 C   0  0  0  0  0  3  0  0  0  0  0  0
  -24.9550  -28.9380   20.1920 C   0  0  0  0  0  0  0  0  0  0  0  0
  -26.0210  -30.7970   21.4620 C   0  0  0  0  0  2  0  0  0  0  0  0
  -26.1130  -29.4120   20.8210 C   0  0  0  0  0  0  0  0  0  0  0  0
  -27.2910  -28.5960   20.8540 C   0  0  0  0  0  3  0  0  0  0  0  0
  -26.1260  -26.8860   19.6010 C   0  0  0  0  0  3  0  0  0  0  0  0
  -24.9670  -27.6830   19.5700 C   0  0  0  0  0  3  0  0  0  0  0  0
  -23.7210  -29.8170   20.2120 C   0  0  0  0  0  2  0  0  0  0  0  0
  -24.7300  -31.0780   22.1570 N   0  0  0  0  0  0  0  0  0  0  0  0
  -23.5450  -32.1680   23.7610 O   0  0  0  0  0  0  0  0  0  0  0  0
  -22.7900  -29.4740   22.5330 C   0  0  0  0  0  0  0  0  0  0  0  0
  -21.4650  -29.3030   22.3840 N   0  0  0  0  0  0  0  0  0  0  0  0
  -23.4510  -28.8420   23.3610 O   0  0  0  0  0  0  0  0  0  0  0  0
  -20.9900  -29.8640   21.6900 H   0  0  0  0  0  0  0  0  0  0  0  0
  -18.0700  -28.1380   22.8430 C   0  0  0  0  0  0  0  0  0  0  0  0
  -20.6280  -28.3700   23.1400 C   0  0  0  0  0  3  0  0  0  0  0  0
  -20.7210  -26.9410   22.5600 C   0  0  0  0  0  2  0  0  0  0  0  0
  -19.6270  -26.6370   21.5310 C   0  0  0  0  0  2  0  0  0  0  0  0
  -18.2390  -26.7920   22.1610 C   0  0  0  0  0  2  0  0  0  0  0  0
  -19.1910  -28.8870   23.2890 C   0  0  0  0  0  0  0  0  0  0  0  0
  -18.9800  -30.1470   23.8870 C   0  0  0  0  0  3  0  0  0  0  0  0
  -17.6790  -30.6600   24.0440 C   0  0  0  0  0  3  0  0  0  0  0  0
  -16.5710  -29.9100   23.6140 C   0  0  0  0  0  3  0  0  0  0  0  0
  -16.7670  -28.6510   23.0190 C   0  0  0  0  0  3  0  0  0  0  0  0
  -25.9070  -32.5250   23.8990 C   0  0  0  0  0  3  0  0  0  0  0  0
  -26.3880  -31.7630   25.1940 C   0  0  1  0  0  0  0  0  0  0  0  0
  -25.2640  -31.5380   26.2340 C   0  0  0  0  0  1  0  0  0  0  0  0
  -26.9790  -30.3830   24.8290 C   0  0  0  0  0  1  0  0  0  0  0  0
  -27.5230  -32.5600   25.8790 C   0  0  0  0  0  1  0  0  0  0  0  0
  -25.5930  -33.9260   24.2110 N   0  0  0  0  0  0  0  0  0  0  0  0
  -25.9380  -34.9720   23.4480 C   0  0  0  0  0  0  0  0  0  0  0  0
  -26.6220  -34.8580   22.4280 O   0  0  0  0  0  0  0  0  0  0  0  0
  -24.9860  -34.0890   25.0000 H   0  0  0  0  0  0  0  0  0  0  0  0
  -24.2180  -36.7640   23.0500 C   0  0  0  0  0  1  0  0  0  0  0  0
  -25.4450  -36.3650   23.8840 C   0  0  0  0  0  3  0  0  0  0  0  0
  -27.5630  -37.2600   24.7450 C   0  0  0  0  0  1  0  0  0  0  0  0
  -26.4800  -37.4170   23.7780 N   0  0  0  0  0  0  0  0  0  0  0  0
  -26.0720  -38.3390   23.9050 H   0  0  0  0  0  0  0  0  0  0  0  0
  1  4  2  0
  1  5  1  0
  2 18  1  0
  2  6  2  0
  3  6  1  0
  3 48  1  0
  4  2  1  0
  5  3  2  0
  6  9  1  0
  7  4  1  0
  8  5  1  0
 10 18  1  0
 11 16  1  0
 12 13  1  0
 12 11  1  0
 14 13  1  0
 14 23  1  0
 14 15  1  0
 16 10  1  0
 16 15  1  0
 17 10  2  0
 18 19  1  0
 20 21  2  0
 21 40  1  0
 22 21  1  0
 22 25  1  0
 23 20  1  0
 23 24  1  0
 24 22  2  0
 25 26  1  0
 26 27  2  0
 28 31  1  0
 28 27  1  0
 29 28  2  0
 30 29  1  0
 30 25  2  0
 31 32  1  0
 32 33  1  0
 33 34  2  0
 35 34  1  0
 35 39  1  0
 36 35  2  0
 37 32  2  0
 37 36  1  0
 38 37  1  0
 40 41  1  0
 41 44  1  0
 41 43  1  0
 42 40  2  0
 45 46  1  0
 45 20  1  0
 47 45  1  0
 48 49  1  0
 50 51  1  0
 50 48  1  0
 52 53  1  0
 52 51  2  0
 54 65  2  0
 55 53  1  0
 55 60  1  0
 56 64  1  0
 56 66  1  0
 57 63  1  0
 57 59  1  0
 58 64  1  0
 59 60  2  0
 59 58  1  0
 61 55  2  0
 62 61  1  0
 62 57  2  0
 63 56  1  0
 64 54  1  0
 66 68  2  0
 67 66  1  0
 69 67  1  0
 70 79  2  0
 70 75  1  0
 71 67  1  0
 71 75  1  0
 72 71  1  0
 73 74  1  0
 73 72  1  0
 74 70  1  0
 75 76  2  0
 76 77  1  0
 78 77  2  0
 79 78  1  0
 80 54  1  0
 80 85  1  0
 80 81  1  0
 81 84  1  1
 81 82  1  0
 83 81  1  0
 85 88  1  0
 86 90  1  0
 86 85  1  0
 87 86  2  0
 90 89  1  0
 92 90  1  0
 92 93  1  0
 92 91  1  0
M  ISO  4  10 100  18 100  52 101  53 101
M  END
>  <TORSDO>  (11) 
F 20

>  <SCORE>  (11) 
-13.273

>  <name>  (11) 
10

>  <ligand_id>  (11) 
10

>  <original_smiles>  (11) 
[H]c1c([H])c([H])c2c(c1[H])C([H])([H])C([H])([H])C([H])([H])C2([H])N([H])C(=O)C1([H])N(C(=O)C([H])(N([H])C(=O)C([H])(N([H])C([H])([H])[H])C([H])([H])[H])C(C([H])([H])[H])(C([H])([H])[H])C([H])([H])[H])C([H])([H])c2c([H])c(OC([H])([H])C([H])([H])C([H])([H])N([H])c3c(F)c([H])c(F)c(N([H])C(=O)N4C([H])([H])C([H])([H])C([H])([H])C([H])(n5nc(-c6c([H])c([H])c(Oc7c([H])c([H])c(F)c([H])c7F)c([H])c6[H])c(C(=O)N([H])[H])c5N([H])[H])C4([H])[H])c3F)c([H])c([H])c2C1([H])[H]

>  <smiles>  (11) 
[H]c1c([H])c([H])c2c(c1[H])C([H])([H])C([H])([H])C([H])([H])C2([H])N([H])C(=O)C1([H])N(C(=O)C([H])(N([H])C(=O)C([H])(N([H])C([H])([H])[H])C([H])([H])[H])C(C([H])([H])[H])(C([H])([H])[H])C([H])([H])[H])C([H])([H])c2c([H])c(OC([H])([H])C([H])([H])C([H])([H])N([H])c3c(F)c([H])c(F)c(N([H])C(=O)N4C([H])([H])C([H])([H])C([H])([H])C([H])(n5nc(-c6c([H])c([H])c(Oc7c([H])c([H])c(F)c([H])c7F)c([H])c6[H])c(C(=O)N([H])[H])c5N([H])[H])C4([H])[H])c3F)c([H])c([H])c2C1([H])[H]

$$$$
11:0:0
     RDKit          3D

 93101  0  0  1  0  0  0  0  0999 V2000
  -29.8710  -20.4490   21.5090 C   0  0  0  0  0  3  0  0  0  0  0  0
  -30.6170  -19.3200   21.9340 C   0  0  0  0  0  0  0  0  0  0  0  0
  -29.1600  -19.1350   19.6000 C   0  0  0  0  0  0  0  0  0  0  0  0
  -29.1230  -20.4850   20.3150 C   0  0  0  0  0  0  0  0  0  0  0  0
  -29.9950  -17.9200   19.9880 C   0  0  0  0  0  0  0  0  0  0  0  0
  -30.7090  -18.1170   21.1900 C   0  0  0  0  0  0  0  0  0  0  0  0
  -31.3430  -19.3950   23.2670 C   0  0  0  0  0  1  0  0  0  0  0  0
  -28.1780  -18.9100   18.4640 C   0  0  0  0  0  1  0  0  0  0  0  0
  -31.4370  -17.0870   21.6890 F   0  0  0  0  0  0  0  0  0  0  0  0
  -30.8750  -15.2730   19.5580 C   0  0  0  0  0  0  0  0  0  0  0  0
  -30.7280  -12.8890   18.6210 C   0  0  0  0  0  2  0  0  0  0  0  0
  -29.6770  -12.8020   17.4920 C   0  0  0  0  0  2  0  0  0  0  0  0
  -28.2610  -12.6010   18.0640 C   0  0  0  0  0  2  0  0  0  0  0  0
  -27.9700  -13.5330   19.2690 C   0  0  0  0  0  3  0  0  0  0  0  0
  -29.1270  -13.5610   20.2840 C   0  0  0  0  0  2  0  0  0  0  0  0
  -30.3080  -13.9960   19.5310 N   0  0  0  0  0  0  0  0  0  0  0  0
  -32.0910  -15.3240   19.3080 O   0  0  0  0  0  0  0  0  0  0  0  0
  -30.0300  -16.4440   19.4610 N   0  0  0  0  0  0  0  0  0  0  0  0
  -29.1010  -16.1400   19.2200 H   0  0  0  0  0  0  0  0  0  0  0  0
  -25.7250  -14.1580   20.3060 C   0  0  0  0  0  0  0  0  0  0  0  0
  -24.6720  -13.4030   20.7460 C   0  0  0  0  0  0  0  0  0  0  0  0
  -25.0730  -12.0390   20.5970 C   0  0  0  0  0  0  0  0  0  0  0  0
  -26.6920  -13.2510   19.9040 N   0  0  0  0  0  0  0  0  0  0  0  0
  -26.3190  -11.9680   20.1470 N   0  0  0  0  0  0  0  0  0  0  0  0
  -24.3180  -10.7980   20.7970 C   0  0  0  0  0  0  0  0  0  0  0  0
  -24.7280   -9.8270   21.7390 C   0  0  0  0  0  3  0  0  0  0  0  0
  -23.9720   -8.6500   21.9260 C   0  0  0  0  0  3  0  0  0  0  0  0
  -22.7930   -8.4370   21.1720 C   0  0  0  0  0  0  0  0  0  0  0  0
  -22.4040   -9.3950   20.2200 C   0  0  0  0  0  3  0  0  0  0  0  0
  -23.1600  -10.5650   20.0310 C   0  0  0  0  0  3  0  0  0  0  0  0
  -22.0110   -7.3110   21.2660 O   0  0  0  0  0  0  0  0  0  0  0  0
  -21.8310   -6.6580   22.4580 C   0  0  0  0  0  0  0  0  0  0  0  0
  -21.2630   -7.3010   23.5800 C   0  0  0  0  0  3  0  0  0  0  0  0
  -21.0300   -6.5740   24.7650 C   0  0  0  0  0  3  0  0  0  0  0  0
  -21.3590   -5.2060   24.8270 C   0  0  0  0  0  0  0  0  0  0  0  0
  -21.9200   -4.5630   23.7110 C   0  0  0  0  0  3  0  0  0  0  0  0
  -22.1530   -5.2890   22.5280 C   0  0  0  0  0  0  0  0  0  0  0  0
  -22.6740   -4.6600   21.4470 F   0  0  0  0  0  0  0  0  0  0  0  0
  -21.1280   -4.5040   25.9620 F   0  0  0  0  0  0  0  0  0  0  0  0
  -23.3320  -13.9200   21.1820 C   0  0  0  0  0  0  0  0  0  0  0  0
  -22.6770  -13.2210   22.0990 N   0  0  0  0  0  0  0  0  0  0  0  0
  -22.8860  -14.9820   20.7480 O   0  0  0  0  0  0  0  0  0  0  0  0
  -23.0490  -12.3560   22.4650 H   0  0  0  0  0  0  0  0  0  0  0  0
  -21.7870  -13.5560   22.4410 H   0  0  0  0  0  0  0  0  0  0  0  0
  -25.9300  -15.5290   20.1840 N   0  0  0  0  0  0  0  0  0  0  0  0
  -25.2100  -16.2060   20.4210 H   0  0  0  0  0  0  0  0  0  0  0  0
  -26.7450  -15.9580   19.7680 H   0  0  0  0  0  0  0  0  0  0  0  0
  -27.8410  -22.9580   20.6700 C   0  0  0  0  0  0  0  0  0  0  0  0
  -28.6150  -22.2250   18.5010 C   0  0  0  0  0  1  0  0  0  0  0  0
  -28.5650  -21.9220   19.9340 N   0  0  0  0  0  0  0  0  0  0  0  0
  -26.7680  -22.6110   21.1780 O   0  0  0  0  0  0  0  0  0  0  0  0
  -28.2390  -24.5890   20.9920 C   0  0  0  0  0  2  0  0  0  0  0  0
  -28.0620  -25.9190   20.1230 O   0  0  0  0  0  0  0  0  0  0  0  0
  -24.6100  -31.8210   23.1990 C   0  0  0  0  0  0  0  0  0  0  0  0
  -27.0320  -26.9460   20.2210 C   0  0  0  0  0  0  0  0  0  0  0  0
  -23.3610  -30.4040   21.6270 C   0  0  0  0  0  3  0  0  0  0  0  0
  -24.7510  -28.7780   20.2030 C   0  0  0  0  0  0  0  0  0  0  0  0
  -25.9180  -30.6210   21.3920 C   0  0  0  0  0  2  0  0  0  0  0  0
  -25.9580  -29.2080   20.7690 C   0  0  0  0  0  0  0  0  0  0  0  0
  -27.1060  -28.3160   20.7390 C   0  0  0  0  0  3  0  0  0  0  0  0
  -25.7960  -26.6320   19.6220 C   0  0  0  0  0  3  0  0  0  0  0  0
  -24.6850  -27.5070   19.6080 C   0  0  0  0  0  3  0  0  0  0  0  0
  -23.5420  -29.7050   20.2570 C   0  0  0  0  0  2  0  0  0  0  0  0
  -24.6530  -30.9720   22.1240 N   0  0  0  0  0  0  0  0  0  0  0  0
  -23.5370  -32.1240   23.7480 O   0  0  0  0  0  0  0  0  0  0  0  0
  -22.7010  -29.4170   22.6250 C   0  0  0  0  0  0  0  0  0  0  0  0
  -21.3860  -29.1760   22.4750 N   0  0  0  0  0  0  0  0  0  0  0  0
  -23.3750  -28.8730   23.5020 O   0  0  0  0  0  0  0  0  0  0  0  0
  -20.8950  -29.6710   21.7430 H   0  0  0  0  0  0  0  0  0  0  0  0
  -18.0770  -27.7530   22.8860 C   0  0  0  0  0  0  0  0  0  0  0  0
  -20.5860  -28.2430   23.2760 C   0  0  0  0  0  3  0  0  0  0  0  0
  -20.8320  -26.7790   22.8400 C   0  0  0  0  0  2  0  0  0  0  0  0
  -19.8250  -26.2840   21.7960 C   0  0  0  0  0  2  0  0  0  0  0  0
  -18.3980  -26.3710   22.3440 C   0  0  0  0  0  2  0  0  0  0  0  0
  -19.1030  -28.6380   23.3100 C   0  0  0  0  0  0  0  0  0  0  0  0
  -18.7500  -29.9230   23.7750 C   0  0  0  0  0  3  0  0  0  0  0  0
  -17.4030  -30.3260   23.8200 C   0  0  0  0  0  3  0  0  0  0  0  0
  -16.3890  -29.4410   23.4120 C   0  0  0  0  0  3  0  0  0  0  0  0
  -16.7270  -28.1560   22.9510 C   0  0  0  0  0  3  0  0  0  0  0  0
  -25.9030  -32.4690   23.7810 C   0  0  0  0  0  3  0  0  0  0  0  0
  -25.5850  -33.8610   24.1400 N   0  0  0  0  0  0  0  0  0  0  0  0
  -25.9080  -34.9350   23.4060 C   0  0  0  0  0  0  0  0  0  0  0  0
  -26.5700  -34.8550   22.3680 O   0  0  0  0  0  0  0  0  0  0  0  0
  -24.9900  -33.9920   24.9440 H   0  0  0  0  0  0  0  0  0  0  0  0
  -24.1750  -36.7380   23.1120 C   0  0  0  0  0  1  0  0  0  0  0  0
  -25.4240  -36.3140   23.9010 C   0  0  0  0  0  3  0  0  0  0  0  0
  -27.5610  -37.1880   24.7400 C   0  0  0  0  0  1  0  0  0  0  0  0
  -26.4570  -37.3670   23.8020 N   0  0  0  0  0  0  0  0  0  0  0  0
  -26.0510  -38.2870   23.9570 H   0  0  0  0  0  0  0  0  0  0  0  0
  -26.4690  -31.6970   25.0380 C   0  0  1  0  0  0  0  0  0  0  0  0
  -25.4070  -31.4180   26.1300 C   0  0  0  0  0  1  0  0  0  0  0  0
  -27.0810  -30.3410   24.6210 C   0  0  0  0  0  1  0  0  0  0  0  0
  -27.6110  -32.5170   25.6830 C   0  0  0  0  0  1  0  0  0  0  0  0
  1  2  1  0
  2  7  1  0
  3  5  2  0
  3  4  1  0
  4  1  2  0
  5  6  1  0
  6  9  1  0
  6  2  2  0
  8  3  1  0
 11 16  1  0
 12 13  1  0
 12 11  1  0
 14 13  1  0
 14 23  1  0
 14 15  1  0
 16 10  1  0
 16 15  1  0
 17 10  2  0
 18 10  1  0
 18  5  1  0
 19 18  1  0
 20 21  2  0
 21 40  1  0
 22 21  1  0
 22 25  1  0
 23 24  1  0
 23 20  1  0
 24 22  2  0
 25 26  1  0
 26 27  2  0
 28 31  1  0
 28 27  1  0
 29 28  2  0
 30 29  1  0
 30 25  2  0
 31 32  1  0
 32 37  2  0
 32 33  1  0
 33 34  2  0
 34 35  1  0
 35 39  1  0
 36 35  2  0
 37 36  1  0
 38 37  1  0
 40 41  1  0
 41 44  1  0
 41 43  1  0
 42 40  2  0
 45 20  1  0
 45 46  1  0
 47 45  1  0
 48 52  1  0
 48 51  2  0
 49 50  1  0
 50  4  1  0
 50 48  1  0
 53 55  1  0
 53 52  1  0
 54 65  2  0
 55 60  1  0
 56 64  1  0
 56 66  1  0
 57 63  1  0
 57 59  1  0
 58 64  1  0
 59 58  1  0
 60 59  2  0
 61 55  2  0
 62 61  1  0
 62 57  2  0
 63 56  1  0
 64 54  1  0
 66 68  2  0
 67 66  1  0
 69 67  1  0
 70 79  2  0
 70 75  1  0
 71 67  1  0
 71 75  1  0
 72 71  1  0
 73 74  1  0
 73 72  1  0
 74 70  1  0
 75 76  2  0
 76 77  1  0
 78 77  2  0
 79 78  1  0
 80 54  1  0
 80 81  1  0
 80 90  1  0
 81 84  1  0
 82 86  1  0
 82 81  1  0
 83 82  2  0
 86 85  1  0
 88 86  1  0
 88 89  1  0
 88 87  1  0
 90 93  1  1
 90 91  1  0
 92 90  1  0
M  ISO  4  10 100  18 100  52 101  53 101
M  END
>  <TORSDO>  (12) 
F 18

>  <SCORE>  (12) 
-14.387

>  <name>  (12) 
11

>  <ligand_id>  (12) 
11

>  <original_smiles>  (12) 
[H]c1c([H])c([H])c2c(c1[H])C([H])([H])C([H])([H])C([H])([H])C2([H])N([H])C(=O)C1([H])N(C(=O)C([H])(N([H])C(=O)C([H])(N([H])C([H])([H])[H])C([H])([H])[H])C(C([H])([H])[H])(C([H])([H])[H])C([H])([H])[H])C([H])([H])c2c([H])c(OC([H])([H])C(=O)N(c3c([H])c(C([H])([H])[H])c(F)c(N([H])C(=O)N4C([H])([H])C([H])([H])C([H])([H])C([H])(n5nc(-c6c([H])c([H])c(Oc7c([H])c([H])c(F)c([H])c7F)c([H])c6[H])c(C(=O)N([H])[H])c5N([H])[H])C4([H])[H])c3C([H])([H])[H])C([H])([H])[H])c([H])c([H])c2C1([H])[H]

>  <smiles>  (12) 
[H]c1c([H])c([H])c2c(c1[H])C([H])([H])C([H])([H])C([H])([H])C2([H])N([H])C(=O)C1([H])N(C(=O)C([H])(N([H])C(=O)C([H])(N([H])C([H])([H])[H])C([H])([H])[H])C(C([H])([H])[H])(C([H])([H])[H])C([H])([H])[H])C([H])([H])c2c([H])c(OC([H])([H])C(=O)N(c3c([H])c(C([H])([H])[H])c(F)c(N([H])C(=O)N4C([H])([H])C([H])([H])C([H])([H])C([H])(n5nc(-c6c([H])c([H])c(Oc7c([H])c([H])c(F)c([H])c7F)c([H])c6[H])c(C(=O)N([H])[H])c5N([H])[H])C4([H])[H])c3C([H])([H])[H])C([H])([H])[H])c([H])c([H])c2C1([H])[H]

$$$$
12:0:0
     RDKit          3D

 92100  0  0  1  0  0  0  0  0999 V2000
  -31.2490  -19.6220   21.6880 C   0  0  0  0  0  3  0  0  0  0  0  0
  -30.5000  -20.7320   21.2570 C   0  0  0  0  0  3  0  0  0  0  0  0
  -30.9330  -18.2780   21.3830 C   0  0  0  0  0  0  0  0  0  0  0  0
  -29.0390  -19.1660   20.1250 C   0  0  0  0  0  0  0  0  0  0  0  0
  -29.3370  -20.6150   20.4710 C   0  0  0  0  0  0  0  0  0  0  0  0
  -29.8350  -17.9370   20.5390 C   0  0  0  0  0  0  0  0  0  0  0  0
  -31.8020  -17.2410   22.0780 C   0  0  0  0  0  1  0  0  0  0  0  0
  -27.8010  -18.9210   19.2840 C   0  0  0  0  0  1  0  0  0  0  0  0
  -30.3000  -15.2040   20.0430 C   0  0  0  0  0  0  0  0  0  0  0  0
  -30.1560  -12.8580   19.0320 C   0  0  0  0  0  2  0  0  0  0  0  0
  -29.1570  -12.7980   17.8540 C   0  0  0  0  0  2  0  0  0  0  0  0
  -27.7290  -12.5370   18.3680 C   0  0  0  0  0  2  0  0  0  0  0  0
  -27.3710  -13.4280   19.5870 C   0  0  0  0  0  3  0  0  0  0  0  0
  -28.4910  -13.4600   20.6480 C   0  0  0  0  0  2  0  0  0  0  0  0
  -29.7020  -13.9350   19.9680 N   0  0  0  0  0  0  0  0  0  0  0  0
  -31.4850  -15.2390   19.6920 O   0  0  0  0  0  0  0  0  0  0  0  0
  -29.5380  -16.4170   20.2680 N   0  0  0  0  0  0  0  0  0  0  0  0
  -28.5510  -16.2100   20.2870 H   0  0  0  0  0  0  0  0  0  0  0  0
  -25.0340  -13.9390   20.4840 C   0  0  0  0  0  0  0  0  0  0  0  0
  -24.0040  -13.1360   20.8890 C   0  0  0  0  0  0  0  0  0  0  0  0
  -24.4860  -11.7950   20.7910 C   0  0  0  0  0  0  0  0  0  0  0  0
  -26.0730  -13.0870   20.1560 N   0  0  0  0  0  0  0  0  0  0  0  0
  -25.7590  -11.7890   20.4080 N   0  0  0  0  0  0  0  0  0  0  0  0
  -23.7890  -10.5160   20.9830 C   0  0  0  0  0  0  0  0  0  0  0  0
  -24.2490   -9.5540   21.9080 C   0  0  0  0  0  3  0  0  0  0  0  0
  -23.5480   -8.3430   22.0890 C   0  0  0  0  0  3  0  0  0  0  0  0
  -22.3710   -8.0850   21.3460 C   0  0  0  0  0  0  0  0  0  0  0  0
  -21.9300   -9.0360   20.4100 C   0  0  0  0  0  3  0  0  0  0  0  0
  -22.6320  -10.2390   20.2260 C   0  0  0  0  0  3  0  0  0  0  0  0
  -21.6410   -6.9250   21.4370 O   0  0  0  0  0  0  0  0  0  0  0  0
  -21.5820   -6.2000   22.5990 C   0  0  0  0  0  0  0  0  0  0  0  0
  -21.0780   -6.7520   23.7980 C   0  0  0  0  0  3  0  0  0  0  0  0
  -20.9710   -5.9500   24.9520 C   0  0  0  0  0  3  0  0  0  0  0  0
  -21.3590   -4.5970   24.9090 C   0  0  0  0  0  0  0  0  0  0  0  0
  -21.8560   -4.0440   23.7160 C   0  0  0  0  0  3  0  0  0  0  0  0
  -21.9640   -4.8430   22.5640 C   0  0  0  0  0  0  0  0  0  0  0  0
  -22.4250   -4.3000   21.4110 F   0  0  0  0  0  0  0  0  0  0  0  0
  -21.2490   -3.8250   26.0150 F   0  0  0  0  0  0  0  0  0  0  0  0
  -22.6180  -13.5840   21.2500 C   0  0  0  0  0  0  0  0  0  0  0  0
  -21.9460  -12.8500   22.1280 N   0  0  0  0  0  0  0  0  0  0  0  0
  -22.1430  -14.6220   20.7900 O   0  0  0  0  0  0  0  0  0  0  0  0
  -22.3450  -12.0100   22.5210 H   0  0  0  0  0  0  0  0  0  0  0  0
  -21.0190  -13.1330   22.4140 H   0  0  0  0  0  0  0  0  0  0  0  0
  -25.1650  -15.3170   20.3380 N   0  0  0  0  0  0  0  0  0  0  0  0
  -24.3890  -15.9490   20.5110 H   0  0  0  0  0  0  0  0  0  0  0  0
  -25.9720  -15.7840   19.9500 H   0  0  0  0  0  0  0  0  0  0  0  0
  -28.8020  -23.3670   20.3840 C   0  0  0  0  0  0  0  0  0  0  0  0
  -28.5770  -21.9500   20.1350 N   0  0  0  0  0  0  0  0  0  0  0  0
  -29.8450  -23.7120   20.9440 O   0  0  0  0  0  0  0  0  0  0  0  0
  -27.7100  -21.8010   19.6380 H   0  0  0  0  0  0  0  0  0  0  0  0
  -27.7910  -24.6580   19.9890 C   0  0  0  0  0  2  0  0  0  0  0  0
  -28.1040  -26.1900   20.2810 O   0  0  0  0  0  0  0  0  0  0  0  0
  -24.6000  -31.9990   23.3130 C   0  0  0  0  0  0  0  0  0  0  0  0
  -27.0870  -27.2330   20.2210 C   0  0  0  0  0  0  0  0  0  0  0  0
  -23.3720  -30.6320   21.6730 C   0  0  0  0  0  3  0  0  0  0  0  0
  -24.7890  -29.0480   20.2190 C   0  0  0  0  0  0  0  0  0  0  0  0
  -25.9310  -30.8540   21.4930 C   0  0  0  0  0  2  0  0  0  0  0  0
  -25.9820  -29.4630   20.8240 C   0  0  0  0  0  0  0  0  0  0  0  0
  -27.1310  -28.5730   20.8050 C   0  0  0  0  0  3  0  0  0  0  0  0
  -25.8680  -26.9410   19.5700 C   0  0  0  0  0  3  0  0  0  0  0  0
  -24.7480  -27.8040   19.5730 C   0  0  0  0  0  3  0  0  0  0  0  0
  -23.5750  -29.9650   20.2870 C   0  0  0  0  0  2  0  0  0  0  0  0
  -24.6550  -31.1840   22.2130 N   0  0  0  0  0  0  0  0  0  0  0  0
  -23.5210  -32.2920   23.8520 O   0  0  0  0  0  0  0  0  0  0  0  0
  -22.6870  -29.6250   22.6330 C   0  0  0  0  0  0  0  0  0  0  0  0
  -21.3610  -29.4440   22.4940 N   0  0  0  0  0  0  0  0  0  0  0  0
  -23.3550  -29.0090   23.4690 O   0  0  0  0  0  0  0  0  0  0  0  0
  -20.8800  -29.9910   21.7940 H   0  0  0  0  0  0  0  0  0  0  0  0
  -17.9880  -28.2080   22.9640 C   0  0  0  0  0  0  0  0  0  0  0  0
  -20.5390  -28.5040   23.2620 C   0  0  0  0  0  3  0  0  0  0  0  0
  -20.6650  -27.0680   22.7020 C   0  0  0  0  0  2  0  0  0  0  0  0
  -19.5810  -26.7250   21.6760 C   0  0  0  0  0  2  0  0  0  0  0  0
  -18.1890  -26.8560   22.3000 C   0  0  0  0  0  2  0  0  0  0  0  0
  -19.0900  -28.9880   23.4020 C   0  0  0  0  0  0  0  0  0  0  0  0
  -18.8470  -30.2500   23.9860 C   0  0  0  0  0  3  0  0  0  0  0  0
  -17.5330  -30.7330   24.1340 C   0  0  0  0  0  3  0  0  0  0  0  0
  -16.4440  -29.9510   23.7110 C   0  0  0  0  0  3  0  0  0  0  0  0
  -16.6720  -28.6910   23.1310 C   0  0  0  0  0  3  0  0  0  0  0  0
  -25.8880  -32.6180   23.9350 C   0  0  0  0  0  3  0  0  0  0  0  0
  -25.5970  -34.0230   24.2670 N   0  0  0  0  0  0  0  0  0  0  0  0
  -25.9080  -35.0710   23.4930 C   0  0  0  0  0  0  0  0  0  0  0  0
  -26.5350  -34.9580   22.4370 O   0  0  0  0  0  0  0  0  0  0  0  0
  -25.0330  -34.1840   25.0880 H   0  0  0  0  0  0  0  0  0  0  0  0
  -24.1620  -36.8670   23.2310 C   0  0  0  0  0  1  0  0  0  0  0  0
  -25.4530  -36.4680   23.9650 C   0  0  0  0  0  3  0  0  0  0  0  0
  -27.6300  -37.3690   24.6550 C   0  0  0  0  0  1  0  0  0  0  0  0
  -26.4760  -37.5170   23.7730 N   0  0  0  0  0  0  0  0  0  0  0  0
  -26.0780  -38.4410   23.9250 H   0  0  0  0  0  0  0  0  0  0  0  0
  -26.3890  -31.8470   25.2190 C   0  0  1  0  0  0  0  0  0  0  0  0
  -25.2860  -31.6190   26.2790 C   0  0  0  0  0  1  0  0  0  0  0  0
  -26.9660  -30.4630   24.8400 C   0  0  0  0  0  1  0  0  0  0  0  0
  -27.5410  -32.6350   25.8870 C   0  0  0  0  0  1  0  0  0  0  0  0
  2  1  2  0
  3  1  1  0
  3  7  1  0
  4  5  2  0
  4  6  1  0
  5  2  1  0
  6  3  2  0
  8  4  1  0
  9 17  1  0
 10 15  1  0
 11 12  1  0
 11 10  1  0
 13 12  1  0
 13 22  1  0
 13 14  1  0
 15  9  1  0
 15 14  1  0
 16  9  2  0
 17 18  1  0
 17  6  1  0
 19 20  2  0
 20 39  1  0
 21 20  1  0
 21 24  1  0
 22 23  1  0
 22 19  1  0
 23 21  2  0
 24 25  1  0
 25 26  2  0
 27 30  1  0
 27 26  1  0
 28 27  2  0
 29 28  1  0
 29 24  2  0
 30 31  1  0
 31 32  1  0
 32 33  2  0
 34 33  1  0
 34 38  1  0
 35 34  2  0
 36 31  2  0
 36 35  1  0
 37 36  1  0
 39 40  1  0
 40 43  1  0
 40 42  1  0
 41 39  2  0
 44 19  1  0
 44 45  1  0
 46 44  1  0
 47 49  2  0
 48 47  1  0
 48  5  1  0
 50 48  1  0
 51 52  1  0
 51 47  1  0
 53 64  2  0
 54 52  1  0
 54 59  1  0
 55 63  1  0
 55 65  1  0
 56 62  1  0
 56 58  1  0
 57 63  1  0
 58 57  1  0
 59 58  2  0
 60 61  1  0
 60 54  2  0
 61 56  2  0
 62 55  1  0
 63 53  1  0
 65 67  2  0
 66 65  1  0
 68 66  1  0
 69 78  2  0
 69 74  1  0
 70 66  1  0
 70 74  1  0
 71 70  1  0
 72 73  1  0
 72 71  1  0
 73 69  1  0
 74 75  2  0
 75 76  1  0
 77 76  2  0
 78 77  1  0
 79 53  1  0
 79 80  1  0
 79 89  1  0
 80 83  1  0
 81 85  1  0
 81 80  1  0
 82 81  2  0
 85 84  1  0
 87 88  1  0
 87 85  1  0
 87 86  1  0
 89 92  1  1
 89 90  1  0
 91 89  1  0
M  ISO  4   9 100  17 100  51 101  52 101
M  END
>  <TORSDO>  (13) 
F 18

>  <SCORE>  (13) 
-14.079

>  <name>  (13) 
12

>  <ligand_id>  (13) 
12

>  <original_smiles>  (13) 
[H]c1c([H])c([H])c2c(c1[H])C([H])([H])C([H])([H])C([H])([H])C2([H])N([H])C(=O)C1([H])N(C(=O)C([H])(N([H])C(=O)C([H])(N([H])C([H])([H])[H])C([H])([H])[H])C(C([H])([H])[H])(C([H])([H])[H])C([H])([H])[H])C([H])([H])c2c([H])c(OC([H])([H])C(=O)N([H])c3c([H])c([H])c(C([H])([H])[H])c(N([H])C(=O)N4C([H])([H])C([H])([H])C([H])([H])C([H])(n5nc(-c6c([H])c([H])c(Oc7c([H])c([H])c(F)c([H])c7F)c([H])c6[H])c(C(=O)N([H])[H])c5N([H])[H])C4([H])[H])c3C([H])([H])[H])c([H])c([H])c2C1([H])[H]

>  <smiles>  (13) 
[H]c1c([H])c([H])c2c(c1[H])C([H])([H])C([H])([H])C([H])([H])C2([H])N([H])C(=O)C1([H])N(C(=O)C([H])(N([H])C(=O)C([H])(N([H])C([H])([H])[H])C([H])([H])[H])C(C([H])([H])[H])(C([H])([H])[H])C([H])([H])[H])C([H])([H])c2c([H])c(OC([H])([H])C(=O)N([H])c3c([H])c([H])c(C([H])([H])[H])c(N([H])C(=O)N4C([H])([H])C([H])([H])C([H])([H])C([H])(n5nc(-c6c([H])c([H])c(Oc7c([H])c([H])c(F)c([H])c7F)c([H])c6[H])c(C(=O)N([H])[H])c5N([H])[H])C4([H])[H])c3C([H])([H])[H])c([H])c([H])c2C1([H])[H]

$$$$
13:0:0
     RDKit          3D

 95103  0  0  1  0  0  0  0  0999 V2000
  -28.8720  -21.1280   20.7320 C   0  0  0  0  0  2  0  0  0  0  0  0
  -31.7010  -17.7420   19.9960 C   0  0  0  0  0  3  0  0  0  0  0  0
  -32.1150  -19.0870   19.9240 C   0  0  0  0  0  0  0  0  0  0  0  0
  -29.8360  -19.8920   20.4020 C   0  0  0  0  0  0  0  0  0  0  0  0
  -30.3690  -17.3700   20.2940 C   0  0  0  0  0  0  0  0  0  0  0  0
  -31.2080  -20.1470   20.1430 C   0  0  0  0  0  0  0  0  0  0  0  0
  -29.4440  -18.4820   20.4820 C   0  0  0  0  0  0  0  0  0  0  0  0
  -33.5770  -19.3810   19.6260 C   0  0  0  0  0  1  0  0  0  0  0  0
  -31.8320  -21.7650   20.1270 Cl  0  0  0  0  0  0  0  0  0  0  0  0
  -27.8050  -18.0850   20.8590 Cl  0  0  0  0  0  0  0  0  0  0  0  0
  -30.6790  -14.7640   20.0830 C   0  0  0  0  0  0  0  0  0  0  0  0
  -30.3440  -12.5700   18.9530 C   0  0  0  0  0  2  0  0  0  0  0  0
  -29.3500  -12.7470   17.7860 C   0  0  0  0  0  2  0  0  0  0  0  0
  -27.9040  -12.5680   18.2840 C   0  0  0  0  0  2  0  0  0  0  0  0
  -27.6100  -13.3760   19.5750 C   0  0  0  0  0  3  0  0  0  0  0  0
  -28.7270  -13.2150   20.6310 C   0  0  0  0  0  2  0  0  0  0  0  0
  -29.9940  -13.5740   19.9850 N   0  0  0  0  0  0  0  0  0  0  0  0
  -31.8530  -14.7920   19.7130 O   0  0  0  0  0  0  0  0  0  0  0  0
  -29.9840  -15.9290   20.3980 N   0  0  0  0  0  0  0  0  0  0  0  0
  -29.0310  -15.7750   20.6900 H   0  0  0  0  0  0  0  0  0  0  0  0
  -25.2510  -13.9260   20.4170 C   0  0  0  0  0  0  0  0  0  0  0  0
  -24.2110  -13.1330   20.8170 C   0  0  0  0  0  0  0  0  0  0  0  0
  -24.6870  -11.7890   20.7450 C   0  0  0  0  0  0  0  0  0  0  0  0
  -26.2930  -13.0630   20.1210 N   0  0  0  0  0  0  0  0  0  0  0  0
  -25.9630  -11.7710   20.3820 N   0  0  0  0  0  0  0  0  0  0  0  0
  -23.9810  -10.5150   20.9430 C   0  0  0  0  0  0  0  0  0  0  0  0
  -24.4180   -9.5680   21.8950 C   0  0  0  0  0  3  0  0  0  0  0  0
  -23.7120   -8.3600   22.0810 C   0  0  0  0  0  3  0  0  0  0  0  0
  -22.5540   -8.0910   21.3140 C   0  0  0  0  0  0  0  0  0  0  0  0
  -22.1360   -9.0260   20.3500 C   0  0  0  0  0  3  0  0  0  0  0  0
  -22.8440  -10.2250   20.1630 C   0  0  0  0  0  3  0  0  0  0  0  0
  -21.8190   -6.9340   21.4070 O   0  0  0  0  0  0  0  0  0  0  0  0
  -21.7140   -6.2400   22.5870 C   0  0  0  0  0  0  0  0  0  0  0  0
  -21.1810   -6.8320   23.7530 C   0  0  0  0  0  3  0  0  0  0  0  0
  -21.0280   -6.0620   24.9240 C   0  0  0  0  0  3  0  0  0  0  0  0
  -21.3970   -4.7040   24.9280 C   0  0  0  0  0  0  0  0  0  0  0  0
  -21.9220   -4.1120   23.7660 C   0  0  0  0  0  3  0  0  0  0  0  0
  -22.0770   -4.8790   22.5980 C   0  0  0  0  0  0  0  0  0  0  0  0
  -22.5640   -4.2990   21.4740 F   0  0  0  0  0  0  0  0  0  0  0  0
  -21.2420   -3.9630   26.0510 F   0  0  0  0  0  0  0  0  0  0  0  0
  -22.8220  -13.5910   21.1540 C   0  0  0  0  0  0  0  0  0  0  0  0
  -22.1330  -12.8670   22.0310 N   0  0  0  0  0  0  0  0  0  0  0  0
  -22.3560  -14.6250   20.6770 O   0  0  0  0  0  0  0  0  0  0  0  0
  -22.5230  -12.0310   22.4380 H   0  0  0  0  0  0  0  0  0  0  0  0
  -21.2020  -13.1540   22.2980 H   0  0  0  0  0  0  0  0  0  0  0  0
  -25.3920  -15.3000   20.2560 N   0  0  0  0  0  0  0  0  0  0  0  0
  -24.6230  -15.9410   20.4240 H   0  0  0  0  0  0  0  0  0  0  0  0
  -26.2210  -15.7640   19.9100 H   0  0  0  0  0  0  0  0  0  0  0  0
  -28.9260  -22.4420   19.9310 N   0  0  0  0  0  4  0  0  0  0  0  0
  -28.4900  -22.2700   19.0380 H   0  0  0  0  0  0  0  0  0  0  0  0
  -29.9080  -22.5920   19.7460 H   0  0  0  0  0  0  0  0  0  0  0  0
  -26.9110  -23.5950   20.9740 C   0  0  0  0  0  1  0  0  0  0  0  0
  -28.3770  -23.7620   20.5270 C   0  0  0  0  0  3  0  0  0  0  0  0
  -28.5140  -25.0920   19.6130 C   0  0  0  0  0  2  0  0  0  0  0  0
  -28.4150  -26.4780   20.1780 O   0  0  0  0  0  0  0  0  0  0  0  0
  -24.6710  -31.8700   23.2000 C   0  0  0  0  0  0  0  0  0  0  0  0
  -27.2720  -27.3010   20.1140 C   0  0  0  0  0  0  0  0  0  0  0  0
  -23.4590  -30.4700   21.5670 C   0  0  0  0  0  3  0  0  0  0  0  0
  -24.9020  -28.9220   20.1240 C   0  0  0  0  0  0  0  0  0  0  0  0
  -25.9970  -30.7920   21.3630 C   0  0  0  0  0  2  0  0  0  0  0  0
  -26.0730  -29.4120   20.7130 C   0  0  0  0  0  0  0  0  0  0  0  0
  -27.2570  -28.6110   20.6980 C   0  0  0  0  0  3  0  0  0  0  0  0
  -26.0720  -26.8660   19.5090 C   0  0  0  0  0  3  0  0  0  0  0  0
  -24.9050  -27.6570   19.5140 C   0  0  0  0  0  3  0  0  0  0  0  0
  -23.6630  -29.7950   20.1840 C   0  0  0  0  0  2  0  0  0  0  0  0
  -24.7290  -31.0620   22.0990 N   0  0  0  0  0  0  0  0  0  0  0  0
  -23.5910  -32.1410   23.7440 O   0  0  0  0  0  0  0  0  0  0  0  0
  -22.8070  -29.4510   22.5330 C   0  0  0  0  0  0  0  0  0  0  0  0
  -21.4800  -29.2700   22.4180 N   0  0  0  0  0  0  0  0  0  0  0  0
  -23.4940  -28.8250   23.3430 O   0  0  0  0  0  0  0  0  0  0  0  0
  -20.9830  -29.8280   21.7370 H   0  0  0  0  0  0  0  0  0  0  0  0
  -18.1080  -28.0690   22.9490 C   0  0  0  0  0  0  0  0  0  0  0  0
  -20.6700  -28.3300   23.1940 C   0  0  0  0  0  3  0  0  0  0  0  0
  -20.7680  -26.9010   22.6110 C   0  0  0  0  0  2  0  0  0  0  0  0
  -19.6550  -26.5800   21.6080 C   0  0  0  0  0  2  0  0  0  0  0  0
  -18.2800  -26.7220   22.2660 C   0  0  0  0  0  2  0  0  0  0  0  0
  -19.2310  -28.8310   23.3690 C   0  0  0  0  0  0  0  0  0  0  0  0
  -19.0160  -30.0910   23.9670 C   0  0  0  0  0  3  0  0  0  0  0  0
  -17.7120  -30.5900   24.1500 C   0  0  0  0  0  3  0  0  0  0  0  0
  -16.6050  -29.8250   23.7450 C   0  0  0  0  0  3  0  0  0  0  0  0
  -16.8040  -28.5650   23.1500 C   0  0  0  0  0  3  0  0  0  0  0  0
  -25.9560  -32.5060   23.8140 C   0  0  0  0  0  3  0  0  0  0  0  0
  -26.4920  -31.7300   25.0790 C   0  0  1  0  0  0  0  0  0  0  0  0
  -25.4100  -31.4760   26.1560 C   0  0  0  0  0  1  0  0  0  0  0  0
  -27.0830  -30.3590   24.6720 C   0  0  0  0  0  1  0  0  0  0  0  0
  -27.6410  -32.5290   25.7370 C   0  0  0  0  0  1  0  0  0  0  0  0
  -25.6400  -33.9000   24.1610 N   0  0  0  0  0  0  0  0  0  0  0  0
  -25.9540  -34.9630   23.4080 C   0  0  0  0  0  0  0  0  0  0  0  0
  -26.6100  -34.8740   22.3660 O   0  0  0  0  0  0  0  0  0  0  0  0
  -25.0580  -34.0420   24.9730 H   0  0  0  0  0  0  0  0  0  0  0  0
  -24.2170  -36.7550   23.0870 C   0  0  0  0  0  1  0  0  0  0  0  0
  -25.4640  -36.3440   23.8860 C   0  0  0  0  0  3  0  0  0  0  0  0
  -27.5970  -37.2310   24.7210 C   0  0  0  0  0  1  0  0  0  0  0  0
  -26.4930  -37.4020   23.7810 N   0  0  0  0  0  0  0  0  0  0  0  0
  -26.0830  -38.3190   23.9380 H   0  0  0  0  0  0  0  0  0  0  0  0
  2  5  1  0
  3  2  2  0
  3  6  1  0
  4  7  1  0
  4  1  1  0
  5 19  1  0
  5  7  2  0
  6  4  2  0
  7 10  1  0
  8  3  1  0
  9  6  1  0
 11 19  1  0
 12 17  1  0
 13 14  1  0
 13 12  1  0
 15 14  1  0
 15 24  1  0
 15 16  1  0
 17 11  1  0
 17 16  1  0
 18 11  2  0
 19 20  1  0
 21 22  2  0
 22 41  1  0
 23 22  1  0
 23 26  1  0
 24 25  1  0
 24 21  1  0
 25 23  2  0
 26 27  1  0
 27 28  2  0
 29 32  1  0
 29 28  1  0
 30 29  2  0
 31 30  1  0
 31 26  2  0
 32 33  1  0
 33 38  2  0
 33 34  1  0
 34 35  2  0
 35 36  1  0
 36 40  1  0
 37 36  2  0
 38 37  1  0
 39 38  1  0
 41 42  1  0
 42 45  1  0
 42 44  1  0
 43 41  2  0
 46 21  1  0
 46 47  1  0
 48 46  1  0
 49 53  1  0
 49  1  1  0
 50 49  1  0
 51 49  1  0
 53 52  1  0
 54 55  1  0
 54 53  1  0
 56 67  2  0
 57 55  1  0
 57 62  1  0
 58 66  1  0
 58 68  1  0
 59 65  1  0
 59 61  1  0
 60 66  1  0
 61 60  1  0
 62 61  2  0
 63 64  1  0
 63 57  2  0
 64 59  2  0
 65 58  1  0
 66 56  1  0
 68 70  2  0
 69 68  1  0
 71 69  1  0
 72 81  2  0
 72 77  1  0
 73 69  1  0
 73 77  1  0
 74 73  1  0
 75 76  1  0
 75 74  1  0
 76 72  1  0
 77 78  2  0
 78 79  1  0
 80 79  2  0
 81 80  1  0
 82 56  1  0
 82 87  1  0
 82 83  1  0
 83 86  1  1
 83 84  1  0
 85 83  1  0
 87 90  1  0
 88 92  1  0
 88 87  1  0
 89 88  2  0
 92 91  1  0
 94 92  1  0
 94 95  1  0
 94 93  1  0
M  ISO  4  11 100  19 100  54 101  55 101
M  END
>  <TORSDO>  (14) 
F 20

>  <SCORE>  (14) 
-13.664

>  <name>  (14) 
13

>  <ligand_id>  (14) 
13

>  <original_smiles>  (14) 
[H]c1c([H])c([H])c2c(c1[H])C([H])([H])C([H])([H])C([H])([H])C2([H])N([H])C(=O)C1([H])N(C(=O)C([H])(N([H])C(=O)C([H])(N([H])C([H])([H])[H])C([H])([H])[H])C(C([H])([H])[H])(C([H])([H])[H])C([H])([H])[H])C([H])([H])c2c([H])c(OC([H])([H])C([H])(C([H])([H])[H])[N+]([H])([H])C([H])([H])c3c(Cl)c(N([H])C(=O)N4C([H])([H])C([H])([H])C([H])([H])C([H])(n5nc(-c6c([H])c([H])c(Oc7c([H])c([H])c(F)c([H])c7F)c([H])c6[H])c(C(=O)N([H])[H])c5N([H])[H])C4([H])[H])c([H])c(C([H])([H])[H])c3Cl)c([H])c([H])c2C1([H])[H]

>  <smiles>  (14) 
[H]c1c([H])c([H])c2c(c1[H])C([H])([H])C([H])([H])C([H])([H])C2([H])N([H])C(=O)C1([H])N(C(=O)C([H])(N([H])C(=O)C([H])(N([H])C([H])([H])[H])C([H])([H])[H])C(C([H])([H])[H])(C([H])([H])[H])C([H])([H])[H])C([H])([H])c2c([H])c(OC([H])([H])C([H])(C([H])([H])[H])[N+]([H])([H])C([H])([H])c3c(Cl)c(N([H])C(=O)N4C([H])([H])C([H])([H])C([H])([H])C([H])(n5nc(-c6c([H])c([H])c(Oc7c([H])c([H])c(F)c([H])c7F)c([H])c6[H])c(C(=O)N([H])[H])c5N([H])[H])C4([H])[H])c([H])c(C([H])([H])[H])c3Cl)c([H])c([H])c2C1([H])[H]

$$$$
14:0:0
     RDKit          3D

100108  0  0  1  0  0  0  0  0999 V2000
  -28.8150  -20.2940   20.0810 C   0  0  0  0  0  3  0  0  0  0  0  0
  -28.8420  -19.0830   19.3770 C   0  0  0  0  0  3  0  0  0  0  0  0
  -29.4570  -20.4280   21.3200 C   0  0  0  0  0  0  0  0  0  0  0  0
  -29.5030  -17.9320   19.8610 C   0  0  0  0  0  0  0  0  0  0  0  0
  -30.0170  -17.9220   21.1930 C   0  0  0  0  0  0  0  0  0  0  0  0
  -29.9930  -19.2020   21.8970 C   0  0  0  0  0  0  0  0  0  0  0  0
  -30.5940  -19.2550   23.5180 Cl  0  0  0  0  0  0  0  0  0  0  0  0
  -31.1730  -15.5860   21.5560 C   0  0  0  0  0  0  0  0  0  0  0  0
  -31.3150  -13.2960   20.5760 C   0  0  0  0  0  2  0  0  0  0  0  0
  -30.5580  -13.2710   19.2330 C   0  0  0  0  0  2  0  0  0  0  0  0
  -29.0550  -13.0010   19.4500 C   0  0  0  0  0  2  0  0  0  0  0  0
  -28.4380  -13.8640   20.5800 C   0  0  0  0  0  3  0  0  0  0  0  0
  -29.3250  -13.8560   21.8470 C   0  0  0  0  0  2  0  0  0  0  0  0
  -30.6700  -14.3090   21.4480 N   0  0  0  0  0  0  0  0  0  0  0  0
  -32.3600  -15.8080   21.3060 O   0  0  0  0  0  0  0  0  0  0  0  0
  -30.2880  -16.6090   21.8450 N   0  0  0  0  0  0  0  0  0  0  0  0
  -29.4700  -16.2570   22.3270 H   0  0  0  0  0  0  0  0  0  0  0  0
  -25.9350  -14.3670   20.8510 C   0  0  0  0  0  0  0  0  0  0  0  0
  -24.8590  -13.5520   21.0450 C   0  0  0  0  0  0  0  0  0  0  0  0
  -25.3820  -12.2220   21.1170 C   0  0  0  0  0  0  0  0  0  0  0  0
  -27.0440  -13.5330   20.8310 N   0  0  0  0  0  0  0  0  0  0  0  0
  -26.7070  -12.2380   21.0370 N   0  0  0  0  0  0  0  0  0  0  0  0
  -24.6950  -10.9320   21.2000 C   0  0  0  0  0  0  0  0  0  0  0  0
  -24.9860  -10.0180   22.2350 C   0  0  0  0  0  3  0  0  0  0  0  0
  -24.3090   -8.7820   22.3060 C   0  0  0  0  0  3  0  0  0  0  0  0
  -23.3270   -8.4570   21.3400 C   0  0  0  0  0  0  0  0  0  0  0  0
  -23.0600   -9.3610   20.2970 C   0  0  0  0  0  3  0  0  0  0  0  0
  -23.7370  -10.5880   20.2250 C   0  0  0  0  0  3  0  0  0  0  0  0
  -22.6320   -7.2750   21.3170 O   0  0  0  0  0  0  0  0  0  0  0  0
  -22.3020   -6.6130   22.4710 C   0  0  0  0  0  0  0  0  0  0  0  0
  -21.5400   -7.2230   23.4920 C   0  0  0  0  0  3  0  0  0  0  0  0
  -21.1640   -6.4800   24.6300 C   0  0  0  0  0  3  0  0  0  0  0  0
  -21.5440   -5.1290   24.7480 C   0  0  0  0  0  0  0  0  0  0  0  0
  -22.2970   -4.5190   23.7300 C   0  0  0  0  0  3  0  0  0  0  0  0
  -22.6740   -5.2600   22.5970 C   0  0  0  0  0  0  0  0  0  0  0  0
  -23.3810   -4.6610   21.6090 F   0  0  0  0  0  0  0  0  0  0  0  0
  -21.1790   -4.4130   25.8380 F   0  0  0  0  0  0  0  0  0  0  0  0
  -23.4140  -13.9620   21.0770 C   0  0  0  0  0  0  0  0  0  0  0  0
  -22.5960  -13.2480   21.8380 N   0  0  0  0  0  0  0  0  0  0  0  0
  -23.0160  -14.9540   20.4650 O   0  0  0  0  0  0  0  0  0  0  0  0
  -22.9300  -12.4490   22.3560 H   0  0  0  0  0  0  0  0  0  0  0  0
  -21.6210  -13.4930   21.8970 H   0  0  0  0  0  0  0  0  0  0  0  0
  -26.0620  -15.7450   20.6930 N   0  0  0  0  0  0  0  0  0  0  0  0
  -25.2590  -16.3620   20.6900 H   0  0  0  0  0  0  0  0  0  0  0  0
  -26.9320  -16.2400   20.5520 H   0  0  0  0  0  0  0  0  0  0  0  0
  -29.6490  -16.5510   17.7340 C   0  0  0  0  0  0  0  0  0  0  0  0
  -29.5170  -16.7490   19.0630 N   0  0  0  0  0  0  0  0  0  0  0  0
  -29.1510  -15.5580   17.2090 O   0  0  0  0  0  0  0  0  0  0  0  0
  -29.2320  -15.9130   19.5450 H   0  0  0  0  0  0  0  0  0  0  0  0
  -31.6830  -17.6790   17.0930 C   0  0  0  0  0  2  0  0  0  0  0  0
  -30.3490  -17.5680   16.9620 C   0  0  0  0  0  0  0  0  0  0  0  0
  -29.5210  -18.4270   16.0130 C   0  0  0  0  0  1  0  0  0  0  0  0
  -29.4990  -21.8780   21.9750 C   0  0  0  0  0  2  0  0  0  0  0  0
  -28.9450  -23.0700   21.1660 N   0  0  0  0  0  4  0  0  0  0  0  0
  -27.9400  -22.9960   21.2130 H   0  0  0  0  0  0  0  0  0  0  0  0
  -29.2030  -22.8970   20.2070 H   0  0  0  0  0  0  0  0  0  0  0  0
  -29.2220  -24.8300   22.9720 C   0  0  0  0  0  1  0  0  0  0  0  0
  -29.3090  -24.5440   21.4610 C   0  0  0  0  0  3  0  0  0  0  0  0
  -28.4560  -25.6350   20.6130 C   0  0  0  0  0  2  0  0  0  0  0  0
  -28.6900  -27.1140   20.6860 O   0  0  0  0  0  0  0  0  0  0  0  0
  -25.0320  -32.3910   23.9600 C   0  0  0  0  0  0  0  0  0  0  0  0
  -27.5870  -28.0010   20.6280 C   0  0  0  0  0  0  0  0  0  0  0  0
  -23.8050  -31.1310   22.2250 C   0  0  0  0  0  3  0  0  0  0  0  0
  -25.2380  -29.6610   20.6930 C   0  0  0  0  0  0  0  0  0  0  0  0
  -26.3470  -31.4240   22.0630 C   0  0  0  0  0  2  0  0  0  0  0  0
  -26.4120  -30.0890   21.3250 C   0  0  0  0  0  0  0  0  0  0  0  0
  -27.5850  -29.2720   21.2860 C   0  0  0  0  0  3  0  0  0  0  0  0
  -26.3950  -27.6450   19.9540 C   0  0  0  0  0  3  0  0  0  0  0  0
  -25.2370  -28.4470   19.9870 C   0  0  0  0  0  3  0  0  0  0  0  0
  -24.0090  -30.5410   20.8020 C   0  0  0  0  0  2  0  0  0  0  0  0
  -25.0790  -31.6640   22.8080 N   0  0  0  0  0  0  0  0  0  0  0  0
  -23.9530  -32.6460   24.5160 O   0  0  0  0  0  0  0  0  0  0  0  0
  -23.1250  -30.0650   23.1200 C   0  0  0  0  0  0  0  0  0  0  0  0
  -21.8270  -29.8150   22.8800 N   0  0  0  0  0  0  0  0  0  0  0  0
  -23.7650  -29.4650   23.9880 O   0  0  0  0  0  0  0  0  0  0  0  0
  -21.3760  -30.3430   22.1460 H   0  0  0  0  0  0  0  0  0  0  0  0
  -18.5310  -28.3290   23.0340 C   0  0  0  0  0  0  0  0  0  0  0  0
  -21.0110  -28.8170   23.5810 C   0  0  0  0  0  3  0  0  0  0  0  0
  -21.2960  -27.3930   23.0600 C   0  0  0  0  0  2  0  0  0  0  0  0
  -20.3550  -26.9630   21.9320 C   0  0  0  0  0  2  0  0  0  0  0  0
  -18.9040  -26.9940   22.4140 C   0  0  0  0  0  2  0  0  0  0  0  0
  -19.5240  -29.1880   23.5750 C   0  0  0  0  0  0  0  0  0  0  0  0
  -19.1310  -30.4290   24.1200 C   0  0  0  0  0  3  0  0  0  0  0  0
  -17.7770  -30.8090   24.1390 C   0  0  0  0  0  3  0  0  0  0  0  0
  -16.7970  -29.9530   23.6080 C   0  0  0  0  0  3  0  0  0  0  0  0
  -17.1760  -28.7150   23.0600 C   0  0  0  0  0  3  0  0  0  0  0  0
  -26.3240  -32.9640   24.6220 C   0  0  0  0  0  3  0  0  0  0  0  0
  -26.0640  -34.3660   24.9760 N   0  0  0  0  0  0  0  0  0  0  0  0
  -26.4720  -35.4220   24.2580 C   0  0  0  0  0  0  0  0  0  0  0  0
  -27.1770  -35.3140   23.2510 O   0  0  0  0  0  0  0  0  0  0  0  0
  -25.4360  -34.5260   25.7510 H   0  0  0  0  0  0  0  0  0  0  0  0
  -24.8370  -37.2990   23.8840 C   0  0  0  0  0  1  0  0  0  0  0  0
  -26.0230  -36.8190   24.7340 C   0  0  0  0  0  3  0  0  0  0  0  0
  -28.1610  -37.5770   25.6720 C   0  0  0  0  0  1  0  0  0  0  0  0
  -27.1030  -37.8280   24.6960 N   0  0  0  0  0  0  0  0  0  0  0  0
  -26.7310  -38.7600   24.8630 H   0  0  0  0  0  0  0  0  0  0  0  0
  -26.7850  -32.1480   25.8950 C   0  0  1  0  0  0  0  0  0  0  0  0
  -25.6500  -31.8950   26.9130 C   0  0  0  0  0  1  0  0  0  0  0  0
  -27.3690  -30.7740   25.4940 C   0  0  0  0  0  1  0  0  0  0  0  0
  -27.9160  -32.9140   26.6270 C   0  0  0  0  0  1  0  0  0  0  0  0
  1  3  1  0
  2  4  1  0
  2  1  2  0
  3  6  2  0
  3 53  1  0
  4  5  2  0
  5 16  1  0
  5  6  1  0
  6  7  1  0
  8 16  1  0
  9 14  1  0
 10 11  1  0
 10  9  1  0
 12 11  1  0
 12 21  1  0
 12 13  1  0
 14  8  1  0
 14 13  1  0
 15  8  2  0
 16 17  1  0
 18 19  2  0
 19 38  1  0
 19 20  1  0
 20 23  1  0
 21 18  1  0
 21 22  1  0
 22 20  2  0
 23 24  1  0
 24 25  2  0
 26 25  1  0
 27 26  2  0
 28 27  1  0
 28 23  2  0
 29 26  1  0
 29 30  1  0
 30 35  2  0
 30 31  1  0
 31 32  2  0
 32 33  1  0
 33 37  1  0
 34 33  2  0
 35 34  1  0
 36 35  1  0
 38 39  1  0
 39 42  1  0
 39 41  1  0
 40 38  2  0
 43 18  1  0
 44 43  1  0
 45 43  1  0
 46 47  1  0
 47 49  1  0
 47  4  1  0
 48 46  2  0
 51 50  2  0
 51 46  1  0
 52 51  1  0
 54 55  1  0
 54 58  1  0
 54 53  1  0
 56 54  1  0
 58 57  1  0
 59 60  1  0
 59 58  1  0
 61 72  2  0
 62 60  1  0
 62 67  1  0
 63 71  1  0
 63 73  1  0
 64 70  1  0
 64 66  1  0
 65 71  1  0
 66 65  1  0
 67 66  2  0
 68 69  1  0
 68 62  2  0
 69 64  2  0
 70 63  1  0
 71 61  1  0
 73 75  2  0
 74 73  1  0
 76 74  1  0
 77 86  2  0
 77 82  1  0
 78 74  1  0
 79 78  1  0
 80 81  1  0
 80 79  1  0
 81 77  1  0
 82 78  1  0
 82 83  2  0
 83 84  1  0
 85 84  2  0
 86 85  1  0
 87 61  1  0
 87 88  1  0
 87 97  1  0
 88 91  1  0
 89 93  1  0
 89 88  1  0
 90 89  2  0
 93 92  1  0
 95 93  1  0
 95 96  1  0
 95 94  1  0
 97100  1  1
 97 98  1  0
 99 97  1  0
M  ISO  4   8 100  16 100  59 101  60 101
M  END
>  <TORSDO>  (15) 
F 22

>  <SCORE>  (15) 
-4.837

>  <name>  (15) 
14

>  <ligand_id>  (15) 
14

>  <original_smiles>  (15) 
[H]C([H])=C(C(=O)N([H])c1c([H])c([H])c(C([H])([H])[N+]([H])([H])C([H])(C([H])([H])[H])C([H])([H])Oc2c([H])c([H])c3c(c2[H])C([H])([H])N(C(=O)C([H])(N([H])C(=O)C([H])(N([H])C([H])([H])[H])C([H])([H])[H])C(C([H])([H])[H])(C([H])([H])[H])C([H])([H])[H])C([H])(C(=O)N([H])C2([H])c4c([H])c([H])c([H])c([H])c4C([H])([H])C([H])([H])C2([H])[H])C3([H])[H])c(Cl)c1N([H])C(=O)N1C([H])([H])C([H])([H])C([H])([H])C([H])(n2nc(-c3c([H])c([H])c(Oc4c([H])c([H])c(F)c([H])c4F)c([H])c3[H])c(C(=O)N([H])[H])c2N([H])[H])C1([H])[H])C([H])([H])[H]

>  <smiles>  (15) 
[H]C([H])=C(C(=O)N([H])c1c([H])c([H])c(C([H])([H])[N+]([H])([H])C([H])(C([H])([H])[H])C([H])([H])Oc2c([H])c([H])c3c(c2[H])C([H])([H])N(C(=O)C([H])(N([H])C(=O)C([H])(N([H])C([H])([H])[H])C([H])([H])[H])C(C([H])([H])[H])(C([H])([H])[H])C([H])([H])[H])C([H])(C(=O)N([H])C2([H])c4c([H])c([H])c([H])c([H])c4C([H])([H])C([H])([H])C2([H])[H])C3([H])[H])c(Cl)c1N([H])C(=O)N1C([H])([H])C([H])([H])C([H])([H])C([H])(n2nc(-c3c([H])c([H])c(Oc4c([H])c([H])c(F)c([H])c4F)c([H])c3[H])c(C(=O)N([H])[H])c2N([H])[H])C1([H])[H])C([H])([H])[H]

$$$$
15:0:0
     RDKit          3D

 88 96  0  0  1  0  0  0  0  0999 V2000
  -29.2000  -23.2330   19.9400 C   0  0  0  0  0  0  0  0  0  0  0  0
  -29.1210  -19.1820   21.1780 C   0  0  0  0  0  2  0  0  0  0  0  0
  -30.1070  -19.2830   19.0090 C   0  0  0  0  0  2  0  0  0  0  0  0
  -28.4550  -20.6670   20.7630 C   0  0  0  0  0  2  0  0  0  0  0  0
  -30.3070  -20.8940   19.3300 C   0  0  0  0  0  2  0  0  0  0  0  0
  -30.0310  -18.2210   20.2080 C   0  0  0  0  0  3  0  0  0  0  0  0
  -29.2460  -21.7540   20.0350 N   0  0  0  0  0  0  0  0  0  0  0  0
  -30.1830  -23.7330   19.3830 O   0  0  0  0  0  0  0  0  0  0  0  0
  -30.4470  -15.3220   19.8920 C   0  0  0  0  0  0  0  0  0  0  0  0
  -30.3360  -12.9150   18.9330 C   0  0  0  0  0  2  0  0  0  0  0  0
  -29.3180  -12.7210   17.7820 C   0  0  0  0  0  2  0  0  0  0  0  0
  -27.9140  -12.4090   18.3320 C   0  0  0  0  0  2  0  0  0  0  0  0
  -27.5350  -13.3440   19.5040 C   0  0  0  0  0  3  0  0  0  0  0  0
  -28.6760  -13.4900   20.5420 C   0  0  0  0  0  2  0  0  0  0  0  0
  -29.8470  -14.0300   19.8200 N   0  0  0  0  0  0  0  0  0  0  0  0
  -31.6700  -15.2950   19.6900 O   0  0  0  0  0  0  0  0  0  0  0  0
  -28.3000  -16.5910   19.6250 C   0  0  0  0  0  1  0  0  0  0  0  0
  -29.7110  -16.6150   19.9830 N   0  0  0  0  0  0  0  0  0  0  0  0
  -25.2180  -13.9020   20.4290 C   0  0  0  0  0  0  0  0  0  0  0  0
  -24.1860  -13.1170   20.8560 C   0  0  0  0  0  0  0  0  0  0  0  0
  -24.6530  -11.7710   20.7580 C   0  0  0  0  0  0  0  0  0  0  0  0
  -26.2470  -13.0320   20.1020 N   0  0  0  0  0  0  0  0  0  0  0  0
  -25.9200  -11.7440   20.3650 N   0  0  0  0  0  0  0  0  0  0  0  0
  -23.9410  -10.5050   20.9550 C   0  0  0  0  0  0  0  0  0  0  0  0
  -24.4030   -9.5360   21.8700 C   0  0  0  0  0  3  0  0  0  0  0  0
  -23.6900   -8.3330   22.0570 C   0  0  0  0  0  3  0  0  0  0  0  0
  -22.5010   -8.0940   21.3280 C   0  0  0  0  0  0  0  0  0  0  0  0
  -22.0580   -9.0520   20.4000 C   0  0  0  0  0  3  0  0  0  0  0  0
  -22.7730  -10.2470   20.2110 C   0  0  0  0  0  3  0  0  0  0  0  0
  -21.7560   -6.9450   21.4270 O   0  0  0  0  0  0  0  0  0  0  0  0
  -21.6980   -6.2250   22.5930 C   0  0  0  0  0  0  0  0  0  0  0  0
  -21.2330   -6.7950   23.7990 C   0  0  0  0  0  3  0  0  0  0  0  0
  -21.1250   -6.0000   24.9570 C   0  0  0  0  0  3  0  0  0  0  0  0
  -21.4710   -4.6360   24.9120 C   0  0  0  0  0  0  0  0  0  0  0  0
  -21.9280   -4.0660   23.7100 C   0  0  0  0  0  3  0  0  0  0  0  0
  -22.0400   -4.8580   22.5550 C   0  0  0  0  0  0  0  0  0  0  0  0
  -22.4610   -4.2990   21.3950 F   0  0  0  0  0  0  0  0  0  0  0  0
  -21.3590   -3.8700   26.0220 F   0  0  0  0  0  0  0  0  0  0  0  0
  -22.8110  -13.5870   21.2300 C   0  0  0  0  0  0  0  0  0  0  0  0
  -22.1420  -12.8710   22.1250 N   0  0  0  0  0  0  0  0  0  0  0  0
  -22.3410  -14.6250   20.7640 O   0  0  0  0  0  0  0  0  0  0  0  0
  -22.5370  -12.0300   22.5200 H   0  0  0  0  0  0  0  0  0  0  0  0
  -21.2220  -13.1660   22.4210 H   0  0  0  0  0  0  0  0  0  0  0  0
  -25.3390  -15.2750   20.2620 N   0  0  0  0  0  0  0  0  0  0  0  0
  -24.5580  -15.9020   20.4220 H   0  0  0  0  0  0  0  0  0  0  0  0
  -26.1320  -15.7320   19.8340 H   0  0  0  0  0  0  0  0  0  0  0  0
  -28.0710  -24.4490   20.3670 C   0  0  0  0  0  2  0  0  0  0  0  0
  -28.3100  -26.0500   20.2230 O   0  0  0  0  0  0  0  0  0  0  0  0
  -24.6660  -31.8930   23.2190 C   0  0  0  0  0  0  0  0  0  0  0  0
  -27.2580  -27.0880   20.1970 C   0  0  0  0  0  0  0  0  0  0  0  0
  -23.4750  -30.4940   21.5780 C   0  0  0  0  0  3  0  0  0  0  0  0
  -24.9310  -28.9050   20.1580 C   0  0  0  0  0  0  0  0  0  0  0  0
  -26.0360  -30.7370   21.4230 C   0  0  0  0  0  2  0  0  0  0  0  0
  -26.1160  -29.3320   20.7710 C   0  0  0  0  0  0  0  0  0  0  0  0
  -27.2760  -28.4460   20.7630 C   0  0  0  0  0  3  0  0  0  0  0  0
  -26.0410  -26.7910   19.5440 C   0  0  0  0  0  3  0  0  0  0  0  0
  -24.9130  -27.6520   19.5240 C   0  0  0  0  0  3  0  0  0  0  0  0
  -23.7050  -29.8120   20.2020 C   0  0  0  0  0  2  0  0  0  0  0  0
  -24.7470  -31.0670   22.1280 N   0  0  0  0  0  0  0  0  0  0  0  0
  -23.5770  -32.1760   23.7430 O   0  0  0  0  0  0  0  0  0  0  0  0
  -22.7890  -29.4930   22.5430 C   0  0  0  0  0  0  0  0  0  0  0  0
  -21.4610  -29.3120   22.4070 N   0  0  0  0  0  0  0  0  0  0  0  0
  -23.4550  -28.8790   23.3780 O   0  0  0  0  0  0  0  0  0  0  0  0
  -20.9760  -29.8590   21.7100 H   0  0  0  0  0  0  0  0  0  0  0  0
  -18.0900  -28.0610   22.8830 C   0  0  0  0  0  0  0  0  0  0  0  0
  -20.6430  -28.3680   23.1760 C   0  0  0  0  0  3  0  0  0  0  0  0
  -20.7730  -26.9320   22.6160 C   0  0  0  0  0  2  0  0  0  0  0  0
  -19.6880  -26.5840   21.5910 C   0  0  0  0  0  2  0  0  0  0  0  0
  -18.2960  -26.7100   22.2180 C   0  0  0  0  0  2  0  0  0  0  0  0
  -19.1910  -28.8450   23.3190 C   0  0  0  0  0  0  0  0  0  0  0  0
  -18.9420  -30.1060   23.9040 C   0  0  0  0  0  3  0  0  0  0  0  0
  -17.6270  -30.5830   24.0550 C   0  0  0  0  0  3  0  0  0  0  0  0
  -16.5410  -29.7970   23.6330 C   0  0  0  0  0  3  0  0  0  0  0  0
  -16.7740  -28.5360   23.0540 C   0  0  0  0  0  3  0  0  0  0  0  0
  -25.9360  -32.5380   23.8510 C   0  0  0  0  0  3  0  0  0  0  0  0
  -25.6120  -33.9330   24.1930 N   0  0  0  0  0  0  0  0  0  0  0  0
  -25.9200  -34.9990   23.4390 C   0  0  0  0  0  0  0  0  0  0  0  0
  -26.5670  -34.9080   22.3930 O   0  0  0  0  0  0  0  0  0  0  0  0
  -25.0340  -34.0760   25.0080 H   0  0  0  0  0  0  0  0  0  0  0  0
  -24.1580  -36.7760   23.1540 C   0  0  0  0  0  1  0  0  0  0  0  0
  -25.4320  -36.3810   23.9190 C   0  0  0  0  0  3  0  0  0  0  0  0
  -27.5810  -37.2950   24.6820 C   0  0  0  0  0  1  0  0  0  0  0  0
  -26.4480  -37.4470   23.7730 N   0  0  0  0  0  0  0  0  0  0  0  0
  -26.0350  -38.3620   23.9320 H   0  0  0  0  0  0  0  0  0  0  0  0
  -26.4470  -31.7690   25.1320 C   0  0  1  0  0  0  0  0  0  0  0  0
  -25.3500  -31.5300   26.1960 C   0  0  0  0  0  1  0  0  0  0  0  0
  -27.0370  -30.3920   24.7490 C   0  0  0  0  0  1  0  0  0  0  0  0
  -27.5940  -32.5670   25.7990 C   0  0  0  0  0  1  0  0  0  0  0  0
  1  7  1  0
  1 47  1  0
  3  5  1  0
  3  6  1  0
  4  2  1  0
  5  7  1  0
  6 18  1  0
  6  2  1  0
  7  4  1  0
  8  1  2  0
  9 18  1  0
 10 15  1  0
 11 12  1  0
 11 10  1  0
 13 12  1  0
 13 22  1  0
 13 14  1  0
 15  9  1  0
 15 14  1  0
 16  9  2  0
 17 18  1  0
 19 20  2  0
 20 39  1  0
 21 20  1  0
 21 24  1  0
 22 23  1  0
 22 19  1  0
 23 21  2  0
 24 25  1  0
 25 26  2  0
 27 30  1  0
 27 26  1  0
 28 27  2  0
 29 28  1  0
 29 24  2  0
 30 31  1  0
 31 32  1  0
 32 33  2  0
 34 33  1  0
 34 38  1  0
 35 34  2  0
 36 31  2  0
 36 35  1  0
 37 36  1  0
 39 40  1  0
 40 43  1  0
 40 42  1  0
 41 39  2  0
 44 45  1  0
 44 19  1  0
 46 44  1  0
 48 47  1  0
 49 60  2  0
 50 48  1  0
 50 55  1  0
 51 59  1  0
 51 61  1  0
 52 58  1  0
 52 54  1  0
 53 59  1  0
 54 53  1  0
 55 54  2  0
 56 50  2  0
 57 56  1  0
 57 52  2  0
 58 51  1  0
 59 49  1  0
 61 63  2  0
 62 61  1  0
 64 62  1  0
 65 74  2  0
 65 70  1  0
 66 62  1  0
 66 70  1  0
 67 66  1  0
 68 69  1  0
 68 67  1  0
 69 65  1  0
 70 71  2  0
 71 72  1  0
 73 72  2  0
 74 73  1  0
 75 49  1  0
 75 76  1  0
 75 85  1  0
 76 79  1  0
 77 81  1  0
 77 76  1  0
 78 77  2  0
 81 80  1  0
 83 81  1  0
 83 84  1  0
 83 82  1  0
 85 88  1  1
 85 86  1  0
 87 85  1  0
M  ISO  4   9 100  18 100  47 101  48 101
M  END
>  <TORSDO>  (16) 
F 17

>  <SCORE>  (16) 
-15.302

>  <name>  (16) 
15

>  <ligand_id>  (16) 
15

>  <original_smiles>  (16) 
[H]c1c([H])c([H])c2c(c1[H])C([H])([H])C([H])([H])C([H])([H])C2([H])N([H])C(=O)C1([H])N(C(=O)C([H])(N([H])C(=O)C([H])(N([H])C([H])([H])[H])C([H])([H])[H])C(C([H])([H])[H])(C([H])([H])[H])C([H])([H])[H])C([H])([H])c2c([H])c(OC([H])([H])C(=O)N3C([H])([H])C([H])([H])C([H])(N(C(=O)N4C([H])([H])C([H])([H])C([H])([H])C([H])(n5nc(-c6c([H])c([H])c(Oc7c([H])c([H])c(F)c([H])c7F)c([H])c6[H])c(C(=O)N([H])[H])c5N([H])[H])C4([H])[H])C([H])([H])[H])C([H])([H])C3([H])[H])c([H])c([H])c2C1([H])[H]

>  <smiles>  (16) 
[H]c1c([H])c([H])c2c(c1[H])C([H])([H])C([H])([H])C([H])([H])C2([H])N([H])C(=O)C1([H])N(C(=O)C([H])(N([H])C(=O)C([H])(N([H])C([H])([H])[H])C([H])([H])[H])C(C([H])([H])[H])(C([H])([H])[H])C([H])([H])[H])C([H])([H])c2c([H])c(OC([H])([H])C(=O)N3C([H])([H])C([H])([H])C([H])(N(C(=O)N4C([H])([H])C([H])([H])C([H])([H])C([H])(n5nc(-c6c([H])c([H])c(Oc7c([H])c([H])c(F)c([H])c7F)c([H])c6[H])c(C(=O)N([H])[H])c5N([H])[H])C4([H])[H])C([H])([H])[H])C([H])([H])C3([H])[H])c([H])c([H])c2C1([H])[H]

$$$$
16:0:0
     RDKit          3D

 91 99  0  0  1  0  0  0  0  0999 V2000
  -29.2100  -19.0060   20.5480 C   0  0  0  0  0  3  0  0  0  0  0  0
  -31.1190  -19.3930   18.6210 C   0  0  0  0  0  3  0  0  0  0  0  0
  -29.9330  -17.7700   20.0730 C   0  0  0  0  0  0  0  0  0  0  0  0
  -29.4220  -20.4290   20.0940 C   0  0  0  0  0  0  0  0  0  0  0  0
  -30.8720  -18.0710   19.0540 C   0  0  0  0  0  0  0  0  0  0  0  0
  -30.4400  -20.5260   19.1140 C   0  0  0  0  0  0  0  0  0  0  0  0
  -31.5370  -17.0850   18.4110 F   0  0  0  0  0  0  0  0  0  0  0  0
  -30.7800  -21.7310   18.5940 F   0  0  0  0  0  0  0  0  0  0  0  0
  -30.4950  -15.0580   20.3010 C   0  0  0  0  0  0  0  0  0  0  0  0
  -30.3900  -12.6870   19.3860 C   0  0  0  0  0  2  0  0  0  0  0  0
  -29.4730  -12.6260   18.1420 C   0  0  0  0  0  2  0  0  0  0  0  0
  -28.0050  -12.4110   18.5590 C   0  0  0  0  0  2  0  0  0  0  0  0
  -27.5840  -13.3290   19.7370 C   0  0  0  0  0  3  0  0  0  0  0  0
  -28.6310  -13.3610   20.8700 C   0  0  0  0  0  2  0  0  0  0  0  0
  -29.8980  -13.7920   20.2660 N   0  0  0  0  0  0  0  0  0  0  0  0
  -31.7090  -15.0740   20.0690 O   0  0  0  0  0  0  0  0  0  0  0  0
  -29.7290  -16.2690   20.4580 N   0  0  0  0  0  0  0  0  0  0  0  0
  -28.8040  -16.0760   20.8120 H   0  0  0  0  0  0  0  0  0  0  0  0
  -25.1940  -13.8840   20.4550 C   0  0  0  0  0  0  0  0  0  0  0  0
  -24.1350  -13.1030   20.8220 C   0  0  0  0  0  0  0  0  0  0  0  0
  -24.6120  -11.7550   20.8060 C   0  0  0  0  0  0  0  0  0  0  0  0
  -26.2470  -13.0150   20.2290 N   0  0  0  0  0  0  0  0  0  0  0  0
  -25.9060  -11.7290   20.5060 N   0  0  0  0  0  0  0  0  0  0  0  0
  -23.8940  -10.4890   20.9970 C   0  0  0  0  0  0  0  0  0  0  0  0
  -24.3180   -9.5350   21.9480 C   0  0  0  0  0  3  0  0  0  0  0  0
  -23.5980   -8.3340   22.1280 C   0  0  0  0  0  3  0  0  0  0  0  0
  -22.4400   -8.0790   21.3560 C   0  0  0  0  0  0  0  0  0  0  0  0
  -22.0340   -9.0210   20.3960 C   0  0  0  0  0  3  0  0  0  0  0  0
  -22.7550  -10.2130   20.2140 C   0  0  0  0  0  3  0  0  0  0  0  0
  -21.6910   -6.9290   21.4450 O   0  0  0  0  0  0  0  0  0  0  0  0
  -21.6240   -6.2020   22.6060 C   0  0  0  0  0  0  0  0  0  0  0  0
  -21.1560   -6.7660   23.8130 C   0  0  0  0  0  3  0  0  0  0  0  0
  -21.0380   -5.9640   24.9660 C   0  0  0  0  0  3  0  0  0  0  0  0
  -21.3760   -4.5990   24.9120 C   0  0  0  0  0  0  0  0  0  0  0  0
  -21.8360   -4.0330   23.7110 C   0  0  0  0  0  3  0  0  0  0  0  0
  -21.9560   -4.8330   22.5600 C   0  0  0  0  0  0  0  0  0  0  0  0
  -22.3800   -4.2780   21.3990 F   0  0  0  0  0  0  0  0  0  0  0  0
  -21.2550   -3.8270   26.0180 F   0  0  0  0  0  0  0  0  0  0  0  0
  -22.7310  -13.5700   21.0730 C   0  0  0  0  0  0  0  0  0  0  0  0
  -21.9970  -12.8740   21.9340 N   0  0  0  0  0  0  0  0  0  0  0  0
  -22.2930  -14.5890   20.5400 O   0  0  0  0  0  0  0  0  0  0  0  0
  -22.3650  -12.0540   22.3900 H   0  0  0  0  0  0  0  0  0  0  0  0
  -21.0530  -13.1690   22.1400 H   0  0  0  0  0  0  0  0  0  0  0  0
  -25.3460  -15.2550   20.2660 N   0  0  0  0  0  0  0  0  0  0  0  0
  -24.5650  -15.8970   20.3530 H   0  0  0  0  0  0  0  0  0  0  0  0
  -26.1770  -15.6930   19.8890 H   0  0  0  0  0  0  0  0  0  0  0  0
  -28.7180  -21.7010   20.5070 N   0  0  0  0  0  0  0  0  0  0  0  0
  -27.9760  -21.5740   21.1900 H   0  0  0  0  0  0  0  0  0  0  0  0
  -28.9630  -23.2200   20.0980 C   0  0  0  0  0  3  0  0  0  0  0  0
  -27.9850  -24.5700   20.5020 C   0  0  0  0  0  3  0  0  0  0  0  0
  -28.2470  -26.1200   20.2870 O   0  0  0  0  0  0  0  0  0  0  0  0
  -24.6170  -31.8990   23.2370 C   0  0  0  0  0  0  0  0  0  0  0  0
  -27.1950  -27.1260   20.2520 C   0  0  0  0  0  0  0  0  0  0  0  0
  -23.4260  -30.4920   21.6040 C   0  0  0  0  0  3  0  0  0  0  0  0
  -24.8780  -28.9040   20.1930 C   0  0  0  0  0  0  0  0  0  0  0  0
  -25.9840  -30.7420   21.4530 C   0  0  0  0  0  2  0  0  0  0  0  0
  -26.0570  -29.3440   20.8080 C   0  0  0  0  0  0  0  0  0  0  0  0
  -27.2170  -28.4710   20.8150 C   0  0  0  0  0  3  0  0  0  0  0  0
  -25.9900  -26.8020   19.5900 C   0  0  0  0  0  3  0  0  0  0  0  0
  -24.8600  -27.6490   19.5670 C   0  0  0  0  0  3  0  0  0  0  0  0
  -23.6530  -29.8060   20.2310 C   0  0  0  0  0  2  0  0  0  0  0  0
  -24.6960  -31.0690   22.1510 N   0  0  0  0  0  0  0  0  0  0  0  0
  -23.5270  -32.1880   23.7570 O   0  0  0  0  0  0  0  0  0  0  0  0
  -22.7430  -29.4920   22.5710 C   0  0  0  0  0  0  0  0  0  0  0  0
  -21.4150  -29.3210   22.4420 N   0  0  0  0  0  0  0  0  0  0  0  0
  -23.4110  -28.8700   23.4010 O   0  0  0  0  0  0  0  0  0  0  0  0
  -20.9330  -29.8700   21.7440 H   0  0  0  0  0  0  0  0  0  0  0  0
  -18.0290  -28.1330   22.9550 C   0  0  0  0  0  0  0  0  0  0  0  0
  -20.5900  -28.3880   23.2160 C   0  0  0  0  0  3  0  0  0  0  0  0
  -20.6850  -26.9550   22.6430 C   0  0  0  0  0  2  0  0  0  0  0  0
  -19.5800  -26.6340   21.6320 C   0  0  0  0  0  2  0  0  0  0  0  0
  -18.2000  -26.7830   22.2780 C   0  0  0  0  0  2  0  0  0  0  0  0
  -19.1510  -28.8940   23.3800 C   0  0  0  0  0  0  0  0  0  0  0  0
  -18.9350  -30.1560   23.9740 C   0  0  0  0  0  3  0  0  0  0  0  0
  -17.6300  -30.6580   24.1470 C   0  0  0  0  0  3  0  0  0  0  0  0
  -16.5240  -29.8950   23.7360 C   0  0  0  0  0  3  0  0  0  0  0  0
  -16.7240  -28.6340   23.1460 C   0  0  0  0  0  3  0  0  0  0  0  0
  -25.8900  -32.5410   23.8660 C   0  0  0  0  0  3  0  0  0  0  0  0
  -26.3900  -31.7860   25.1600 C   0  0  1  0  0  0  0  0  0  0  0  0
  -25.2840  -31.5650   26.2190 C   0  0  0  0  0  1  0  0  0  0  0  0
  -26.9760  -30.4030   24.8000 C   0  0  0  0  0  1  0  0  0  0  0  0
  -27.5350  -32.5890   25.8230 C   0  0  0  0  0  1  0  0  0  0  0  0
  -25.5750  -33.9440   24.1840 N   0  0  0  0  0  0  0  0  0  0  0  0
  -25.9120  -34.9960   23.4260 C   0  0  0  0  0  0  0  0  0  0  0  0
  -26.5870  -34.8880   22.3990 O   0  0  0  0  0  0  0  0  0  0  0  0
  -24.9740  -34.1000   24.9800 H   0  0  0  0  0  0  0  0  0  0  0  0
  -24.1920  -36.7970   23.0560 C   0  0  0  0  0  1  0  0  0  0  0  0
  -25.4250  -36.3880   23.8770 C   0  0  0  0  0  3  0  0  0  0  0  0
  -27.5530  -37.2710   24.7280 C   0  0  0  0  0  1  0  0  0  0  0  0
  -26.4630  -37.4370   23.7700 N   0  0  0  0  0  0  0  0  0  0  0  0
  -26.0580  -38.3600   23.9050 H   0  0  0  0  0  0  0  0  0  0  0  0
  2  5  2  0
  2  6  1  0
  3 17  1  0
  3  1  2  0
  4 47  1  0
  4  1  1  0
  5  3  1  0
  6  4  2  0
  7  5  1  0
  8  6  1  0
  9 17  1  0
 10 15  1  0
 11 12  1  0
 11 10  1  0
 13 12  1  0
 13 22  1  0
 13 14  1  0
 15  9  1  0
 15 14  1  0
 16  9  2  0
 17 18  1  0
 19 20  2  0
 20 39  1  0
 21 20  1  0
 21 24  1  0
 22 19  1  0
 22 23  1  0
 23 21  2  0
 24 25  1  0
 25 26  2  0
 27 30  1  0
 27 26  1  0
 28 27  2  0
 29 28  1  0
 29 24  2  0
 30 31  1  0
 31 32  1  0
 32 33  2  0
 34 33  1  0
 34 38  1  0
 35 34  2  0
 36 31  2  0
 36 35  1  0
 37 36  1  0
 39 40  1  0
 40 43  1  0
 40 42  1  0
 41 39  2  0
 44 45  1  0
 44 19  1  0
 46 44  1  0
 47 48  1  0
 49 50  2  0
 49 47  1  0
 51 50  1  0
 52 63  2  0
 53 51  1  0
 53 58  1  0
 54 62  1  0
 54 64  1  0
 55 61  1  0
 55 57  1  0
 56 62  1  0
 57 58  2  0
 57 56  1  0
 59 53  2  0
 60 59  1  0
 60 55  2  0
 61 54  1  0
 62 52  1  0
 64 66  2  0
 65 64  1  0
 67 65  1  0
 68 77  2  0
 68 73  1  0
 69 65  1  0
 69 73  1  0
 70 69  1  0
 71 72  1  0
 71 70  1  0
 72 68  1  0
 73 74  2  0
 74 75  1  0
 76 75  2  0
 77 76  1  0
 78 52  1  0
 78 83  1  0
 78 79  1  0
 79 82  1  1
 79 80  1  0
 81 79  1  0
 83 86  1  0
 84 88  1  0
 84 83  1  0
 85 84  2  0
 88 87  1  0
 90 88  1  0
 90 91  1  0
 90 89  1  0
M  ISO  4   9 100  17 100  50 101  51 101
M  END
>  <TORSDO>  (17) 
F 19

>  <SCORE>  (17) 
-15.006

>  <name>  (17) 
16

>  <ligand_id>  (17) 
16

>  <original_smiles>  (17) 
[H]c1c([H])c([H])c2c(c1[H])C([H])([H])C([H])([H])C([H])([H])C2([H])N([H])C(=O)C1([H])N(C(=O)C([H])(N([H])C(=O)C([H])(N([H])C([H])([H])[H])C([H])([H])[H])C(C([H])([H])[H])(C([H])([H])[H])C([H])([H])[H])C([H])([H])c2c([H])c(OC([H])([H])C([H])([H])N([H])c3c([H])c(N([H])C(=O)N4C([H])([H])C([H])([H])C([H])([H])C([H])(n5nc(-c6c([H])c([H])c(Oc7c([H])c([H])c(F)c([H])c7F)c([H])c6[H])c(C(=O)N([H])[H])c5N([H])[H])C4([H])[H])c(F)c([H])c3F)c([H])c([H])c2C1([H])[H]

>  <smiles>  (17) 
[H]c1c([H])c([H])c2c(c1[H])C([H])([H])C([H])([H])C([H])([H])C2([H])N([H])C(=O)C1([H])N(C(=O)C([H])(N([H])C(=O)C([H])(N([H])C([H])([H])[H])C([H])([H])[H])C(C([H])([H])[H])(C([H])([H])[H])C([H])([H])[H])C([H])([H])c2c([H])c(OC([H])([H])C([H])([H])N([H])c3c([H])c(N([H])C(=O)N4C([H])([H])C([H])([H])C([H])([H])C([H])(n5nc(-c6c([H])c([H])c(Oc7c([H])c([H])c(F)c([H])c7F)c([H])c6[H])c(C(=O)N([H])[H])c5N([H])[H])C4([H])[H])c(F)c([H])c3F)c([H])c([H])c2C1([H])[H]

$$$$
17:0:0
     RDKit          3D

 92100  0  0  1  0  0  0  0  0999 V2000
  -28.8850  -18.2720   19.5460 C   0  0  0  0  0  3  0  0  0  0  0  0
  -30.3600  -20.2830   20.7820 C   0  0  0  0  0  3  0  0  0  0  0  0
  -29.9530  -17.7950   20.3640 C   0  0  0  0  0  0  0  0  0  0  0  0
  -29.2370  -20.7520   20.0250 C   0  0  0  0  0  0  0  0  0  0  0  0
  -28.5530  -19.6670   19.3830 C   0  0  0  0  0  0  0  0  0  0  0  0
  -30.6960  -18.8790   20.9480 C   0  0  0  0  0  0  0  0  0  0  0  0
  -27.4910  -19.9730   18.5990 F   0  0  0  0  0  0  0  0  0  0  0  0
  -31.7560  -18.5770   21.7370 F   0  0  0  0  0  0  0  0  0  0  0  0
  -30.0650  -16.2840   20.8660 C   0  0  0  0  0  0  0  0  0  0  0  0
  -29.6010  -16.1000   21.9960 O   0  0  0  0  0  0  0  0  0  0  0  0
  -30.7710  -14.9270   20.1600 C   0  0  0  0  0  0  0  0  0  0  0  0
  -30.5090  -12.6530   19.0910 C   0  0  0  0  0  2  0  0  0  0  0  0
  -29.5280  -12.7210   17.8970 C   0  0  0  0  0  2  0  0  0  0  0  0
  -28.0760  -12.5270   18.3750 C   0  0  0  0  0  2  0  0  0  0  0  0
  -27.7420  -13.3990   19.6120 C   0  0  0  0  0  3  0  0  0  0  0  0
  -28.8380  -13.2890   20.6910 C   0  0  0  0  0  2  0  0  0  0  0  0
  -30.1160  -13.6980   20.0800 N   0  0  0  0  0  0  0  0  0  0  0  0
  -31.9110  -15.0120   19.6830 O   0  0  0  0  0  0  0  0  0  0  0  0
  -25.3820  -13.9900   20.4190 C   0  0  0  0  0  0  0  0  0  0  0  0
  -24.3220  -13.2170   20.8090 C   0  0  0  0  0  0  0  0  0  0  0  0
  -24.7760  -11.8650   20.7540 C   0  0  0  0  0  0  0  0  0  0  0  0
  -26.4120  -13.1070   20.1420 N   0  0  0  0  0  0  0  0  0  0  0  0
  -26.0580  -11.8220   20.4060 N   0  0  0  0  0  0  0  0  0  0  0  0
  -24.0480  -10.6040   20.9510 C   0  0  0  0  0  0  0  0  0  0  0  0
  -24.4870   -9.6350   21.8800 C   0  0  0  0  0  3  0  0  0  0  0  0
  -23.7570   -8.4410   22.0670 C   0  0  0  0  0  3  0  0  0  0  0  0
  -22.5750   -8.2090   21.3260 C   0  0  0  0  0  0  0  0  0  0  0  0
  -22.1560   -9.1650   20.3860 C   0  0  0  0  0  3  0  0  0  0  0  0
  -22.8850  -10.3500   20.1970 C   0  0  0  0  0  3  0  0  0  0  0  0
  -21.8160   -7.0660   21.4210 O   0  0  0  0  0  0  0  0  0  0  0  0
  -21.7550   -6.3390   22.5820 C   0  0  0  0  0  0  0  0  0  0  0  0
  -21.3120   -6.9070   23.7970 C   0  0  0  0  0  3  0  0  0  0  0  0
  -21.2000   -6.1050   24.9500 C   0  0  0  0  0  3  0  0  0  0  0  0
  -21.5170   -4.7370   24.8910 C   0  0  0  0  0  0  0  0  0  0  0  0
  -21.9530   -4.1670   23.6830 C   0  0  0  0  0  3  0  0  0  0  0  0
  -22.0680   -4.9650   22.5320 C   0  0  0  0  0  0  0  0  0  0  0  0
  -22.4680   -4.4060   21.3630 F   0  0  0  0  0  0  0  0  0  0  0  0
  -21.4020   -3.9650   25.9960 F   0  0  0  0  0  0  0  0  0  0  0  0
  -22.9360  -13.6990   21.1260 C   0  0  0  0  0  0  0  0  0  0  0  0
  -22.2330  -13.0050   22.0150 N   0  0  0  0  0  0  0  0  0  0  0  0
  -22.4870  -14.7260   20.6200 O   0  0  0  0  0  0  0  0  0  0  0  0
  -22.6100  -12.1730   22.4440 H   0  0  0  0  0  0  0  0  0  0  0  0
  -21.3050  -13.3100   22.2700 H   0  0  0  0  0  0  0  0  0  0  0  0
  -25.5520  -15.3610   20.2560 N   0  0  0  0  0  0  0  0  0  0  0  0
  -24.8000  -16.0270   20.4130 H   0  0  0  0  0  0  0  0  0  0  0  0
  -26.4110  -15.8020   19.9570 H   0  0  0  0  0  0  0  0  0  0  0  0
  -28.7380  -22.1320   19.8410 N   0  0  0  0  0  0  0  0  0  0  0  0
  -28.0040  -22.1550   19.1350 H   0  0  0  0  0  0  0  0  0  0  0  0
  -28.9230  -23.4110   22.0040 C   0  0  0  0  0  1  0  0  0  0  0  0
  -28.9970  -23.5150   20.4680 C   0  0  0  0  0  3  0  0  0  0  0  0
  -28.0360  -24.7830   19.9800 C   0  0  0  0  0  2  0  0  0  0  0  0
  -28.2650  -26.2750   20.2520 O   0  0  0  0  0  0  0  0  0  0  0  0
  -24.6340  -31.8780   23.2490 C   0  0  0  0  0  0  0  0  0  0  0  0
  -27.1930  -27.2190   20.1770 C   0  0  0  0  0  0  0  0  0  0  0  0
  -23.4150  -30.4850   21.6170 C   0  0  0  0  0  3  0  0  0  0  0  0
  -24.8510  -28.9240   20.1720 C   0  0  0  0  0  0  0  0  0  0  0  0
  -25.9650  -30.7630   21.4270 C   0  0  0  0  0  2  0  0  0  0  0  0
  -26.0330  -29.3790   20.7730 C   0  0  0  0  0  0  0  0  0  0  0  0
  -27.2030  -28.5430   20.7600 C   0  0  0  0  0  3  0  0  0  0  0  0
  -25.9880  -26.8570   19.5310 C   0  0  0  0  0  3  0  0  0  0  0  0
  -24.8380  -27.6720   19.5380 C   0  0  0  0  0  3  0  0  0  0  0  0
  -23.6190  -29.8110   20.2340 C   0  0  0  0  0  2  0  0  0  0  0  0
  -24.6900  -31.0630   22.1510 N   0  0  0  0  0  0  0  0  0  0  0  0
  -23.5540  -32.1600   23.7900 O   0  0  0  0  0  0  0  0  0  0  0  0
  -22.7490  -29.4740   22.5840 C   0  0  0  0  0  0  0  0  0  0  0  0
  -21.4230  -29.2910   22.4620 N   0  0  0  0  0  0  0  0  0  0  0  0
  -23.4300  -28.8530   23.4060 O   0  0  0  0  0  0  0  0  0  0  0  0
  -20.9290  -29.8470   21.7780 H   0  0  0  0  0  0  0  0  0  0  0  0
  -18.0560  -28.0520   22.9570 C   0  0  0  0  0  0  0  0  0  0  0  0
  -20.6100  -28.3530   23.2420 C   0  0  0  0  0  3  0  0  0  0  0  0
  -20.7370  -26.9140   22.6870 C   0  0  0  0  0  2  0  0  0  0  0  0
  -19.6470  -26.5610   21.6700 C   0  0  0  0  0  2  0  0  0  0  0  0
  -18.2570  -26.6960   22.2990 C   0  0  0  0  0  2  0  0  0  0  0  0
  -19.1610  -28.8360   23.3840 C   0  0  0  0  0  0  0  0  0  0  0  0
  -18.9180  -30.1020   23.9590 C   0  0  0  0  0  3  0  0  0  0  0  0
  -17.6040  -30.5840   24.1130 C   0  0  0  0  0  3  0  0  0  0  0  0
  -16.5160  -29.7970   23.7030 C   0  0  0  0  0  3  0  0  0  0  0  0
  -16.7420  -28.5330   23.1290 C   0  0  0  0  0  3  0  0  0  0  0  0
  -25.9200  -32.5110   23.8590 C   0  0  0  0  0  3  0  0  0  0  0  0
  -26.4380  -31.7500   25.1420 C   0  0  1  0  0  0  0  0  0  0  0  0
  -25.3480  -31.5310   26.2170 C   0  0  0  0  0  1  0  0  0  0  0  0
  -27.0130  -30.3640   24.7660 C   0  0  0  0  0  1  0  0  0  0  0  0
  -27.5950  -32.5490   25.7880 C   0  0  0  0  0  1  0  0  0  0  0  0
  -25.6170  -33.9130   24.1850 N   0  0  0  0  0  0  0  0  0  0  0  0
  -25.9380  -34.9630   23.4190 C   0  0  0  0  0  0  0  0  0  0  0  0
  -26.5870  -34.8560   22.3750 O   0  0  0  0  0  0  0  0  0  0  0  0
  -25.0440  -34.0730   24.9990 H   0  0  0  0  0  0  0  0  0  0  0  0
  -24.2020  -36.7580   23.0980 C   0  0  0  0  0  1  0  0  0  0  0  0
  -25.4600  -36.3530   23.8830 C   0  0  0  0  0  3  0  0  0  0  0  0
  -27.6170  -37.2380   24.6590 C   0  0  0  0  0  1  0  0  0  0  0  0
  -26.4870  -37.4090   23.7480 N   0  0  0  0  0  0  0  0  0  0  0  0
  -26.0820  -38.3250   23.9210 H   0  0  0  0  0  0  0  0  0  0  0  0
  1  3  1  0
  2  6  1  0
  3  9  1  0
  3  6  2  0
  4  2  2  0
  5  1  2  0
  5  4  1  0
  6  8  1  0
  7  5  1  0
  9 10  2  0
 11  9  1  0
 12 17  1  0
 13 14  1  0
 13 12  1  0
 15 14  1  0
 15 22  1  0
 15 16  1  0
 17 11  1  0
 17 16  1  0
 18 11  2  0
 19 20  2  0
 20 39  1  0
 21 20  1  0
 21 24  1  0
 22 23  1  0
 22 19  1  0
 23 21  2  0
 24 25  1  0
 25 26  2  0
 27 30  1  0
 27 26  1  0
 28 27  2  0
 29 28  1  0
 29 24  2  0
 30 31  1  0
 31 32  1  0
 32 33  2  0
 34 33  1  0
 34 38  1  0
 35 34  2  0
 36 31  2  0
 36 35  1  0
 37 36  1  0
 39 40  1  0
 40 43  1  0
 40 42  1  0
 41 39  2  0
 44 45  1  0
 44 19  1  0
 46 44  1  0
 47  4  1  0
 47 50  1  0
 48 47  1  0
 50 49  1  0
 51 52  1  0
 51 50  1  0
 53 64  2  0
 54 52  1  0
 54 59  1  0
 55 63  1  0
 55 65  1  0
 56 62  1  0
 56 58  1  0
 57 63  1  0
 58 57  1  0
 59 58  2  0
 60 61  1  0
 60 54  2  0
 61 56  2  0
 62 55  1  0
 63 53  1  0
 65 67  2  0
 66 65  1  0
 68 66  1  0
 69 78  2  0
 69 74  1  0
 70 66  1  0
 70 74  1  0
 71 70  1  0
 72 73  1  0
 72 71  1  0
 73 69  1  0
 74 75  2  0
 75 76  1  0
 77 76  2  0
 78 77  1  0
 79 53  1  0
 79 84  1  0
 79 80  1  0
 80 83  1  1
 80 81  1  0
 82 80  1  0
 84 87  1  0
 85 89  1  0
 85 84  1  0
 86 85  2  0
 89 88  1  0
 91 89  1  0
 91 92  1  0
 91 90  1  0
M  ISO  4   9 100  11 100  51 101  52 101
M  END
>  <TORSDO>  (18) 
F 20

>  <SCORE>  (18) 
-14.149

>  <name>  (18) 
17

>  <ligand_id>  (18) 
17

>  <original_smiles>  (18) 
[H]c1c([H])c([H])c2c(c1[H])C([H])([H])C([H])([H])C([H])([H])C2([H])N([H])C(=O)C1([H])N(C(=O)C([H])(N([H])C(=O)C([H])(N([H])C([H])([H])[H])C([H])([H])[H])C(C([H])([H])[H])(C([H])([H])[H])C([H])([H])[H])C([H])([H])c2c([H])c(OC([H])([H])C([H])(N([H])c3c([H])c(F)c(C(=O)C(=O)N4C([H])([H])C([H])([H])C([H])([H])C([H])(n5nc(-c6c([H])c([H])c(Oc7c([H])c([H])c(F)c([H])c7F)c([H])c6[H])c(C(=O)N([H])[H])c5N([H])[H])C4([H])[H])c([H])c3F)C([H])([H])[H])c([H])c([H])c2C1([H])[H]

>  <smiles>  (18) 
[H]c1c([H])c([H])c2c(c1[H])C([H])([H])C([H])([H])C([H])([H])C2([H])N([H])C(=O)C1([H])N(C(=O)C([H])(N([H])C(=O)C([H])(N([H])C([H])([H])[H])C([H])([H])[H])C(C([H])([H])[H])(C([H])([H])[H])C([H])([H])[H])C([H])([H])c2c([H])c(OC([H])([H])C([H])(N([H])c3c([H])c(F)c(C(=O)C(=O)N4C([H])([H])C([H])([H])C([H])([H])C([H])(n5nc(-c6c([H])c([H])c(Oc7c([H])c([H])c(F)c([H])c7F)c([H])c6[H])c(C(=O)N([H])[H])c5N([H])[H])C4([H])[H])c([H])c3F)C([H])([H])[H])c([H])c([H])c2C1([H])[H]

$$$$
18:0:0
     RDKit          3D

 94102  0  0  1  0  0  0  0  0999 V2000
  -31.4810  -17.7760   19.7940 C   0  0  0  0  0  3  0  0  0  0  0  0
  -29.2110  -18.4670   20.3150 C   0  0  0  0  0  0  0  0  0  0  0  0
  -29.5480  -19.8820   20.1040 C   0  0  0  0  0  0  0  0  0  0  0  0
  -30.1730  -17.3730   20.1590 C   0  0  0  0  0  0  0  0  0  0  0  0
  -31.8320  -19.1280   19.6160 C   0  0  0  0  0  0  0  0  0  0  0  0
  -30.8900  -20.1610   19.7630 C   0  0  0  0  0  0  0  0  0  0  0  0
  -27.7870  -18.1240   20.7250 C   0  0  0  0  0  1  0  0  0  0  0  0
  -33.1100  -19.4420   19.2960 F   0  0  0  0  0  0  0  0  0  0  0  0
  -31.3030  -21.4380   19.5810 F   0  0  0  0  0  0  0  0  0  0  0  0
  -30.5900  -14.7540   20.1020 C   0  0  0  0  0  0  0  0  0  0  0  0
  -30.3000  -12.5020   19.0650 C   0  0  0  0  0  2  0  0  0  0  0  0
  -29.3200  -12.6200   17.8780 C   0  0  0  0  0  2  0  0  0  0  0  0
  -27.8680  -12.4520   18.3630 C   0  0  0  0  0  2  0  0  0  0  0  0
  -27.5510  -13.3180   19.6110 C   0  0  0  0  0  3  0  0  0  0  0  0
  -28.6520  -13.2070   20.6880 C   0  0  0  0  0  2  0  0  0  0  0  0
  -29.9280  -13.5480   20.0470 N   0  0  0  0  0  0  0  0  0  0  0  0
  -31.7750  -14.7900   19.7620 O   0  0  0  0  0  0  0  0  0  0  0  0
  -29.8560  -15.9170   20.3410 N   0  0  0  0  0  0  0  0  0  0  0  0
  -28.9070  -15.7250   20.6190 H   0  0  0  0  0  0  0  0  0  0  0  0
  -25.1890  -13.9060   20.4170 C   0  0  0  0  0  0  0  0  0  0  0  0
  -24.1360  -13.1300   20.8210 C   0  0  0  0  0  0  0  0  0  0  0  0
  -24.5990  -11.7800   20.7730 C   0  0  0  0  0  0  0  0  0  0  0  0
  -26.2260  -13.0280   20.1470 N   0  0  0  0  0  0  0  0  0  0  0  0
  -25.8800  -11.7440   20.4240 N   0  0  0  0  0  0  0  0  0  0  0  0
  -23.8790  -10.5160   20.9810 C   0  0  0  0  0  0  0  0  0  0  0  0
  -24.3290   -9.5530   21.9110 C   0  0  0  0  0  3  0  0  0  0  0  0
  -23.6090   -8.3550   22.1070 C   0  0  0  0  0  3  0  0  0  0  0  0
  -22.4230   -8.1120   21.3750 C   0  0  0  0  0  0  0  0  0  0  0  0
  -21.9910   -9.0640   20.4330 C   0  0  0  0  0  3  0  0  0  0  0  0
  -22.7120  -10.2520   20.2350 C   0  0  0  0  0  3  0  0  0  0  0  0
  -21.6710   -6.9660   21.4820 O   0  0  0  0  0  0  0  0  0  0  0  0
  -21.6400   -6.2320   22.6400 C   0  0  0  0  0  0  0  0  0  0  0  0
  -21.2320   -6.7940   23.8700 C   0  0  0  0  0  3  0  0  0  0  0  0
  -21.1490   -5.9850   25.0200 C   0  0  0  0  0  3  0  0  0  0  0  0
  -21.4630   -4.6160   24.9440 C   0  0  0  0  0  0  0  0  0  0  0  0
  -21.8650   -4.0530   23.7190 C   0  0  0  0  0  3  0  0  0  0  0  0
  -21.9500   -4.8580   22.5710 C   0  0  0  0  0  0  0  0  0  0  0  0
  -22.3170   -4.3050   21.3890 F   0  0  0  0  0  0  0  0  0  0  0  0
  -21.3760   -3.8370   26.0480 F   0  0  0  0  0  0  0  0  0  0  0  0
  -22.7470  -13.6050   21.1340 C   0  0  0  0  0  0  0  0  0  0  0  0
  -22.0470  -12.9070   22.0200 N   0  0  0  0  0  0  0  0  0  0  0  0
  -22.2950  -14.6320   20.6280 O   0  0  0  0  0  0  0  0  0  0  0  0
  -22.4270  -12.0760   22.4490 H   0  0  0  0  0  0  0  0  0  0  0  0
  -21.1160  -13.2070   22.2740 H   0  0  0  0  0  0  0  0  0  0  0  0
  -25.3450  -15.2760   20.2300 N   0  0  0  0  0  0  0  0  0  0  0  0
  -24.5690  -15.9200   20.3380 H   0  0  0  0  0  0  0  0  0  0  0  0
  -26.1550  -15.7020   19.8000 H   0  0  0  0  0  0  0  0  0  0  0  0
  -28.5360  -21.1120   20.2840 C   0  0  0  0  0  2  0  0  0  0  0  0
  -28.2840  -23.7430   20.1730 C   0  0  0  0  0  0  0  0  0  0  0  0
  -28.8310  -22.5290   19.7790 N   0  0  0  0  0  0  0  0  0  0  0  0
  -27.5420  -23.7910   21.1570 O   0  0  0  0  0  0  0  0  0  0  0  0
  -29.4670  -22.5740   18.9940 H   0  0  0  0  0  0  0  0  0  0  0  0
  -28.5430  -25.0940   19.3450 C   0  0  0  0  0  2  0  0  0  0  0  0
  -28.3850  -26.4290   20.0210 O   0  0  0  0  0  0  0  0  0  0  0  0
  -24.5090  -31.7330   23.0540 C   0  0  0  0  0  0  0  0  0  0  0  0
  -27.2390  -27.2500   19.9360 C   0  0  0  0  0  0  0  0  0  0  0  0
  -23.3480  -30.3360   21.3810 C   0  0  0  0  0  3  0  0  0  0  0  0
  -24.8410  -28.8370   19.9340 C   0  0  0  0  0  0  0  0  0  0  0  0
  -25.8830  -30.7020   21.2250 C   0  0  0  0  0  2  0  0  0  0  0  0
  -25.9950  -29.3350   20.5500 C   0  0  0  0  0  0  0  0  0  0  0  0
  -27.1920  -28.5530   20.5400 C   0  0  0  0  0  3  0  0  0  0  0  0
  -26.0550  -26.8090   19.3050 C   0  0  0  0  0  3  0  0  0  0  0  0
  -24.8750  -27.5810   19.3030 C   0  0  0  0  0  3  0  0  0  0  0  0
  -23.5860  -29.6870   19.9900 C   0  0  0  0  0  2  0  0  0  0  0  0
  -24.5980  -30.9440   21.9420 N   0  0  0  0  0  0  0  0  0  0  0  0
  -23.4160  -31.9780   23.5860 O   0  0  0  0  0  0  0  0  0  0  0  0
  -22.7000  -29.2920   22.3210 C   0  0  0  0  0  0  0  0  0  0  0  0
  -21.3760  -29.1070   22.2000 N   0  0  0  0  0  0  0  0  0  0  0  0
  -23.3910  -28.6530   23.1200 O   0  0  0  0  0  0  0  0  0  0  0  0
  -20.8790  -29.6750   21.5280 H   0  0  0  0  0  0  0  0  0  0  0  0
  -18.0090  -27.8920   22.7290 C   0  0  0  0  0  0  0  0  0  0  0  0
  -20.5720  -28.1420   22.9540 C   0  0  0  0  0  3  0  0  0  0  0  0
  -20.6620  -26.7330   22.3260 C   0  0  0  0  0  2  0  0  0  0  0  0
  -19.5390  -26.4470   21.3230 C   0  0  0  0  0  2  0  0  0  0  0  0
  -18.1710  -26.5670   21.9990 C   0  0  0  0  0  2  0  0  0  0  0  0
  -19.1360  -28.6380   23.1620 C   0  0  0  0  0  0  0  0  0  0  0  0
  -18.9310  -29.8770   23.8060 C   0  0  0  0  0  3  0  0  0  0  0  0
  -17.6300  -30.3720   24.0190 C   0  0  0  0  0  3  0  0  0  0  0  0
  -16.5170  -29.6230   23.6010 C   0  0  0  0  0  3  0  0  0  0  0  0
  -16.7070  -28.3840   22.9620 C   0  0  0  0  0  3  0  0  0  0  0  0
  -25.7720  -32.3850   23.6960 C   0  0  0  0  0  3  0  0  0  0  0  0
  -26.2950  -31.6090   24.9680 C   0  0  1  0  0  0  0  0  0  0  0  0
  -25.1990  -31.3350   26.0250 C   0  0  0  0  0  1  0  0  0  0  0  0
  -26.9110  -30.2490   24.5660 C   0  0  0  0  0  1  0  0  0  0  0  0
  -27.4240  -32.4200   25.6490 C   0  0  0  0  0  1  0  0  0  0  0  0
  -25.4280  -33.7720   24.0440 N   0  0  0  0  0  0  0  0  0  0  0  0
  -25.7400  -34.8440   23.3050 C   0  0  0  0  0  0  0  0  0  0  0  0
  -26.4170  -34.7710   22.2750 O   0  0  0  0  0  0  0  0  0  0  0  0
  -24.8280  -33.9000   24.8450 H   0  0  0  0  0  0  0  0  0  0  0  0
  -23.9740  -36.6060   22.9740 C   0  0  0  0  0  1  0  0  0  0  0  0
  -25.2210  -36.2150   23.7820 C   0  0  0  0  0  3  0  0  0  0  0  0
  -27.3310  -37.1370   24.6370 C   0  0  0  0  0  1  0  0  0  0  0  0
  -26.2300  -37.2930   23.6900 N   0  0  0  0  0  0  0  0  0  0  0  0
  -25.8030  -38.2020   23.8460 H   0  0  0  0  0  0  0  0  0  0  0  0
  1  4  1  0
  2  7  1  0
  3 48  1  0
  3  2  1  0
  4  2  2  0
  4 18  1  0
  5  6  1  0
  5  1  2  0
  6  3  2  0
  8  5  1  0
  9  6  1  0
 10 18  1  0
 11 16  1  0
 12 13  1  0
 12 11  1  0
 14 13  1  0
 14 23  1  0
 14 15  1  0
 16 10  1  0
 16 15  1  0
 17 10  2  0
 18 19  1  0
 20 21  2  0
 21 40  1  0
 22 21  1  0
 22 25  1  0
 23 20  1  0
 23 24  1  0
 24 22  2  0
 25 26  1  0
 26 27  2  0
 28 31  1  0
 28 27  1  0
 29 28  2  0
 30 29  1  0
 30 25  2  0
 31 32  1  0
 32 33  1  0
 33 34  2  0
 35 34  1  0
 35 39  1  0
 36 35  2  0
 37 32  2  0
 37 36  1  0
 38 37  1  0
 40 41  1  0
 41 44  1  0
 41 43  1  0
 42 40  2  0
 45 46  1  0
 45 20  1  0
 47 45  1  0
 49 51  2  0
 50 49  1  0
 50 48  1  0
 52 50  1  0
 53 54  1  0
 53 49  1  0
 55 66  2  0
 56 54  1  0
 56 61  1  0
 57 65  1  0
 57 67  1  0
 58 64  1  0
 58 60  1  0
 59 65  1  0
 60 59  1  0
 61 60  2  0
 62 56  2  0
 63 62  1  0
 63 58  2  0
 64 57  1  0
 65 55  1  0
 67 69  2  0
 68 67  1  0
 70 68  1  0
 71 80  2  0
 71 76  1  0
 72 68  1  0
 72 76  1  0
 73 72  1  0
 74 75  1  0
 74 73  1  0
 75 71  1  0
 76 77  2  0
 77 78  1  0
 79 78  2  0
 80 79  1  0
 81 55  1  0
 81 86  1  0
 81 82  1  0
 82 85  1  1
 82 83  1  0
 84 82  1  0
 86 89  1  0
 87 91  1  0
 87 86  1  0
 88 87  2  0
 91 90  1  0
 93 91  1  0
 93 94  1  0
 93 92  1  0
M  ISO  4  10 100  18 100  53 101  54 101
M  END
>  <TORSDO>  (19) 
F 19

>  <SCORE>  (19) 
-13.976

>  <name>  (19) 
18

>  <ligand_id>  (19) 
18

>  <original_smiles>  (19) 
[H]c1c([H])c([H])c2c(c1[H])C([H])([H])C([H])([H])C([H])([H])C2([H])N([H])C(=O)C1([H])N(C(=O)C([H])(N([H])C(=O)C([H])(N([H])C([H])([H])[H])C([H])([H])[H])C(C([H])([H])[H])(C([H])([H])[H])C([H])([H])[H])C([H])([H])c2c([H])c(OC([H])([H])C(=O)N([H])C([H])([H])c3c(F)c(F)c([H])c(N([H])C(=O)N4C([H])([H])C([H])([H])C([H])([H])C([H])(n5nc(-c6c([H])c([H])c(Oc7c([H])c([H])c(F)c([H])c7F)c([H])c6[H])c(C(=O)N([H])[H])c5N([H])[H])C4([H])[H])c3C([H])([H])[H])c([H])c([H])c2C1([H])[H]

>  <smiles>  (19) 
[H]c1c([H])c([H])c2c(c1[H])C([H])([H])C([H])([H])C([H])([H])C2([H])N([H])C(=O)C1([H])N(C(=O)C([H])(N([H])C(=O)C([H])(N([H])C([H])([H])[H])C([H])([H])[H])C(C([H])([H])[H])(C([H])([H])[H])C([H])([H])[H])C([H])([H])c2c([H])c(OC([H])([H])C(=O)N([H])C([H])([H])c3c(F)c(F)c([H])c(N([H])C(=O)N4C([H])([H])C([H])([H])C([H])([H])C([H])(n5nc(-c6c([H])c([H])c(Oc7c([H])c([H])c(F)c([H])c7F)c([H])c6[H])c(C(=O)N([H])[H])c5N([H])[H])C4([H])[H])c3C([H])([H])[H])c([H])c([H])c2C1([H])[H]

$$$$
19:0:0
     RDKit          3D

 97105  0  0  1  0  0  0  0  0999 V2000
  -30.2100  -20.0060   20.1190 C   0  0  0  0  0  3  0  0  0  0  0  0
  -30.3620  -21.3360   20.3520 C   0  0  0  0  0  0  0  0  0  0  0  0
  -31.0150  -21.8930   21.6230 C   0  0  0  0  0  1  0  0  0  0  0  0
  -30.2780  -19.1070   22.4420 C   0  0  0  0  0  3  0  0  0  0  0  0
  -30.4830  -18.9000   21.0610 C   0  0  0  0  0  0  0  0  0  0  0  0
  -30.5400  -18.0890   23.3730 C   0  0  0  0  0  0  0  0  0  0  0  0
  -31.2030  -16.5970   21.5470 C   0  0  0  0  0  0  0  0  0  0  0  0
  -30.9400  -17.6350   20.6080 C   0  0  0  0  0  0  0  0  0  0  0  0
  -30.9930  -16.8390   22.9210 C   0  0  0  0  0  0  0  0  0  0  0  0
  -30.3170  -18.3450   24.8510 C   0  0  0  0  0  1  0  0  0  0  0  0
  -31.1140  -17.4360   19.2780 F   0  0  0  0  0  0  0  0  0  0  0  0
  -31.2220  -15.8410   23.8090 F   0  0  0  0  0  0  0  0  0  0  0  0
  -31.8740  -14.7060   20.0710 C   0  0  0  0  0  0  0  0  0  0  0  0
  -31.4190  -12.6410   18.7850 C   0  0  0  0  0  2  0  0  0  0  0  0
  -30.3950  -12.8850   17.6610 C   0  0  0  0  0  2  0  0  0  0  0  0
  -28.9490  -12.7750   18.1870 C   0  0  0  0  0  2  0  0  0  0  0  0
  -28.7200  -13.6010   19.4780 C   0  0  0  0  0  3  0  0  0  0  0  0
  -29.8320  -13.3060   20.5090 C   0  0  0  0  0  2  0  0  0  0  0  0
  -31.1470  -13.5730   19.8870 N   0  0  0  0  0  0  0  0  0  0  0  0
  -32.7910  -15.0580   19.3240 O   0  0  0  0  0  0  0  0  0  0  0  0
  -31.6560  -15.2820   21.2570 N   0  0  0  0  0  0  0  0  0  0  0  0
  -31.2950  -14.6260   21.9340 H   0  0  0  0  0  0  0  0  0  0  0  0
  -26.4030  -14.2690   20.3970 C   0  0  0  0  0  0  0  0  0  0  0  0
  -25.3330  -13.5220   20.8090 C   0  0  0  0  0  0  0  0  0  0  0  0
  -25.7310  -12.1560   20.6760 C   0  0  0  0  0  0  0  0  0  0  0  0
  -27.3890  -13.3610   20.0400 N   0  0  0  0  0  0  0  0  0  0  0  0
  -26.9900  -12.0820   20.2620 N   0  0  0  0  0  0  0  0  0  0  0  0
  -24.9690  -10.9140   20.8570 C   0  0  0  0  0  0  0  0  0  0  0  0
  -25.3090   -9.9750   21.8560 C   0  0  0  0  0  3  0  0  0  0  0  0
  -24.5490   -8.7980   22.0230 C   0  0  0  0  0  3  0  0  0  0  0  0
  -23.4300   -8.5500   21.1910 C   0  0  0  0  0  0  0  0  0  0  0  0
  -23.1080   -9.4760   20.1840 C   0  0  0  0  0  3  0  0  0  0  0  0
  -23.8700  -10.6450   20.0150 C   0  0  0  0  0  3  0  0  0  0  0  0
  -22.6540   -7.4180   21.2640 O   0  0  0  0  0  0  0  0  0  0  0  0
  -22.2260   -6.9130   22.4660 C   0  0  0  0  0  0  0  0  0  0  0  0
  -21.4540   -7.6820   23.3650 C   0  0  0  0  0  3  0  0  0  0  0  0
  -20.9760   -7.1020   24.5570 C   0  0  0  0  0  3  0  0  0  0  0  0
  -21.2590   -5.7540   24.8470 C   0  0  0  0  0  0  0  0  0  0  0  0
  -22.0230   -4.9860   23.9520 C   0  0  0  0  0  3  0  0  0  0  0  0
  -22.5020   -5.5640   22.7630 C   0  0  0  0  0  0  0  0  0  0  0  0
  -23.2180   -4.8120   21.8930 F   0  0  0  0  0  0  0  0  0  0  0  0
  -20.7920   -5.1950   25.9890 F   0  0  0  0  0  0  0  0  0  0  0  0
  -23.9790  -14.0380   21.2100 C   0  0  0  0  0  0  0  0  0  0  0  0
  -23.3200  -13.3740   22.1520 N   0  0  0  0  0  0  0  0  0  0  0  0
  -23.5170  -15.0670   20.7220 O   0  0  0  0  0  0  0  0  0  0  0  0
  -23.7050  -12.5440   22.5770 H   0  0  0  0  0  0  0  0  0  0  0  0
  -22.4180  -13.7070   22.4590 H   0  0  0  0  0  0  0  0  0  0  0  0
  -26.6110  -15.6400   20.2740 N   0  0  0  0  0  0  0  0  0  0  0  0
  -25.8830  -16.3170   20.4770 H   0  0  0  0  0  0  0  0  0  0  0  0
  -27.4470  -16.0610   19.8900 H   0  0  0  0  0  0  0  0  0  0  0  0
  -29.8900  -22.2730   19.3300 C   0  0  0  0  0  0  0  0  0  0  0  0
  -29.9480  -23.5500   19.7360 N   0  0  0  0  0  0  0  0  0  0  0  0
  -29.4720  -21.9630   18.2110 O   0  0  0  0  0  0  0  0  0  0  0  0
  -30.2830  -23.6970   20.6800 H   0  0  0  0  0  0  0  0  0  0  0  0
  -29.5870  -24.7440   18.9720 C   0  0  0  0  0  2  0  0  0  0  0  0
  -28.3670  -25.4460   19.5920 C   0  0  0  0  0  2  0  0  0  0  0  0
  -28.3770  -26.8230   19.2180 O   0  0  0  0  0  0  0  0  0  0  0  0
  -24.7210  -31.6430   22.9580 C   0  0  0  0  0  0  0  0  0  0  0  0
  -27.1910  -27.4990   19.3750 C   0  0  0  0  0  0  0  0  0  0  0  0
  -23.4190  -30.3520   21.2980 C   0  0  0  0  0  3  0  0  0  0  0  0
  -24.7850  -28.9470   19.6710 C   0  0  0  0  0  0  0  0  0  0  0  0
  -25.9180  -30.7660   20.9560 C   0  0  0  0  0  2  0  0  0  0  0  0
  -25.9730  -29.4470   20.2150 C   0  0  0  0  0  0  0  0  0  0  0  0
  -27.1810  -28.7300   20.0640 C   0  0  0  0  0  3  0  0  0  0  0  0
  -25.9840  -27.0090   18.8270 C   0  0  0  0  0  3  0  0  0  0  0  0
  -24.7820  -27.7240   18.9770 C   0  0  0  0  0  3  0  0  0  0  0  0
  -23.5400  -29.7820   19.8600 C   0  0  0  0  0  2  0  0  0  0  0  0
  -24.7080  -30.9310   21.7960 N   0  0  0  0  0  0  0  0  0  0  0  0
  -23.6780  -31.8550   23.5920 O   0  0  0  0  0  0  0  0  0  0  0  0
  -22.8480  -29.2490   22.2180 C   0  0  0  0  0  0  0  0  0  0  0  0
  -21.5220  -29.0470   22.1590 N   0  0  0  0  0  0  0  0  0  0  0  0
  -23.5910  -28.5810   22.9440 O   0  0  0  0  0  0  0  0  0  0  0  0
  -20.9810  -29.6410   21.5460 H   0  0  0  0  0  0  0  0  0  0  0  0
  -18.2120  -27.7140   22.7260 C   0  0  0  0  0  0  0  0  0  0  0  0
  -20.7700  -28.0390   22.9070 C   0  0  0  0  0  3  0  0  0  0  0  0
  -20.8920  -26.6470   22.2450 C   0  0  0  0  0  2  0  0  0  0  0  0
  -19.7570  -26.3450   21.2610 C   0  0  0  0  0  2  0  0  0  0  0  0
  -18.4010  -26.4110   21.9680 C   0  0  0  0  0  2  0  0  0  0  0  0
  -19.3250  -28.4860   23.1530 C   0  0  0  0  0  0  0  0  0  0  0  0
  -19.0940  -29.7070   23.8230 C   0  0  0  0  0  3  0  0  0  0  0  0
  -17.7830  -30.1550   24.0720 C   0  0  0  0  0  3  0  0  0  0  0  0
  -16.6850  -29.3790   23.6590 C   0  0  0  0  0  3  0  0  0  0  0  0
  -16.9010  -28.1600   22.9920 C   0  0  0  0  0  3  0  0  0  0  0  0
  -26.0430  -32.2430   23.5350 C   0  0  0  0  0  3  0  0  0  0  0  0
  -26.6680  -31.3760   24.6960 C   0  0  1  0  0  0  0  0  0  0  0  0
  -25.6730  -31.0410   25.8300 C   0  0  0  0  0  1  0  0  0  0  0  0
  -27.2180  -30.0410   24.1410 C   0  0  0  0  0  1  0  0  0  0  0  0
  -27.8680  -32.1270   25.3220 C   0  0  0  0  0  1  0  0  0  0  0  0
  -25.7420  -33.6030   24.0030 N   0  0  0  0  0  0  0  0  0  0  0  0
  -26.0590  -34.7220   23.3390 C   0  0  0  0  0  0  0  0  0  0  0  0
  -26.7080  -34.7180   22.2890 O   0  0  0  0  0  0  0  0  0  0  0  0
  -25.1660  -33.6800   24.8290 H   0  0  0  0  0  0  0  0  0  0  0  0
  -24.3190  -36.5320   23.1930 C   0  0  0  0  0  1  0  0  0  0  0  0
  -25.5800  -36.0590   23.9330 C   0  0  0  0  0  3  0  0  0  0  0  0
  -27.7320  -36.8730   24.7930 C   0  0  0  0  0  1  0  0  0  0  0  0
  -26.6060  -37.1220   23.8950 N   0  0  0  0  0  0  0  0  0  0  0  0
  -26.2020  -38.0230   24.1360 H   0  0  0  0  0  0  0  0  0  0  0  0
  1  2  2  0
  1  5  1  0
  2  3  1  0
  4  6  1  0
  5  4  2  0
  6 10  1  0
  7  9  1  0
  8  5  1  0
  8  7  2  0
  9  6  2  0
  9 12  1  0
 11  8  1  0
 13 21  1  0
 14 19  1  0
 15 16  1  0
 15 14  1  0
 17 16  1  0
 17 26  1  0
 17 18  1  0
 19 13  1  0
 19 18  1  0
 20 13  2  0
 21  7  1  0
 21 22  1  0
 23 24  2  0
 24 43  1  0
 25 24  1  0
 25 28  1  0
 26 27  1  0
 26 23  1  0
 27 25  2  0
 28 29  1  0
 29 30  2  0
 31 34  1  0
 31 30  1  0
 32 31  2  0
 33 32  1  0
 33 28  2  0
 34 35  1  0
 35 40  2  0
 35 36  1  0
 36 37  2  0
 37 38  1  0
 38 42  1  0
 39 38  2  0
 40 39  1  0
 41 40  1  0
 43 44  1  0
 44 47  1  0
 44 46  1  0
 45 43  2  0
 48 23  1  0
 48 49  1  0
 50 48  1  0
 51 52  1  0
 51  2  1  0
 52 54  1  0
 53 51  2  0
 55 56  1  0
 55 52  1  0
 57 59  1  0
 57 56  1  0
 58 69  2  0
 59 64  1  0
 60 68  1  0
 60 70  1  0
 61 67  1  0
 61 63  1  0
 62 68  1  0
 63 62  1  0
 64 63  2  0
 65 66  1  0
 65 59  2  0
 66 61  2  0
 67 60  1  0
 68 58  1  0
 70 72  2  0
 71 70  1  0
 73 71  1  0
 74 83  2  0
 74 79  1  0
 75 71  1  0
 75 79  1  0
 76 75  1  0
 77 78  1  0
 77 76  1  0
 78 74  1  0
 79 80  2  0
 80 81  1  0
 82 81  2  0
 83 82  1  0
 84 58  1  0
 84 89  1  0
 84 85  1  0
 85 88  1  1
 85 86  1  0
 87 85  1  0
 89 92  1  0
 90 94  1  0
 90 89  1  0
 91 90  2  0
 94 93  1  0
 96 94  1  0
 96 97  1  0
 96 95  1  0
M  ISO  4  13 100  21 100  56 101  57 101
M  END
>  <TORSDO>  (20) 
F 20

>  <SCORE>  (20) 
-7.920

>  <name>  (20) 
19

>  <ligand_id>  (20) 
19

>  <original_smiles>  (20) 
[H]C(=C(C(=O)N([H])C([H])([H])C([H])([H])Oc1c([H])c([H])c2c(c1[H])C([H])([H])N(C(=O)C([H])(N([H])C(=O)C([H])(N([H])C([H])([H])[H])C([H])([H])[H])C(C([H])([H])[H])(C([H])([H])[H])C([H])([H])[H])C([H])(C(=O)N([H])C1([H])c3c([H])c([H])c([H])c([H])c3C([H])([H])C([H])([H])C1([H])[H])C2([H])[H])C([H])([H])[H])c1c([H])c(C([H])([H])[H])c(F)c(N([H])C(=O)N2C([H])([H])C([H])([H])C([H])([H])C([H])(n3nc(-c4c([H])c([H])c(Oc5c([H])c([H])c(F)c([H])c5F)c([H])c4[H])c(C(=O)N([H])[H])c3N([H])[H])C2([H])[H])c1F

>  <smiles>  (20) 
[H]C(=C(C(=O)N([H])C([H])([H])C([H])([H])Oc1c([H])c([H])c2c(c1[H])C([H])([H])N(C(=O)C([H])(N([H])C(=O)C([H])(N([H])C([H])([H])[H])C([H])([H])[H])C(C([H])([H])[H])(C([H])([H])[H])C([H])([H])[H])C([H])(C(=O)N([H])C1([H])c3c([H])c([H])c([H])c([H])c3C([H])([H])C([H])([H])C1([H])[H])C2([H])[H])C([H])([H])[H])c1c([H])c(C([H])([H])[H])c(F)c(N([H])C(=O)N2C([H])([H])C([H])([H])C([H])([H])C([H])(n3nc(-c4c([H])c([H])c(Oc5c([H])c([H])c(F)c([H])c5F)c([H])c4[H])c(C(=O)N([H])[H])c3N([H])[H])C2([H])[H])c1F

$$$$
20:0:0
     RDKit          3D

 99107  0  0  1  0  0  0  0  0999 V2000
  -32.3270  -20.1950   23.0740 N   0  0  0  0  0  4  0  0  0  0  0  0
  -32.9380  -19.4410   22.8060 H   0  0  0  0  0  0  0  0  0  0  0  0
  -32.3730  -20.2670   24.0770 H   0  0  0  0  0  0  0  0  0  0  0  0
  -34.2920  -21.6350   22.5690 C   0  0  0  0  0  1  0  0  0  0  0  0
  -32.7760  -21.4350   22.4020 C   0  0  0  0  0  3  0  0  0  0  0  0
  -31.9810  -22.6830   22.8660 C   0  0  0  0  0  2  0  0  0  0  0  0
  -31.7330  -23.6730   21.7180 C   0  0  0  0  0  2  0  0  0  0  0  0
  -30.8270  -24.8550   22.1060 C   0  0  0  0  0  2  0  0  0  0  0  0
  -30.1850  -25.4870   20.8630 C   0  0  0  0  0  2  0  0  0  0  0  0
  -29.1950  -26.6200   21.1620 C   0  0  0  0  0  2  0  0  0  0  0  0
  -28.3940  -26.7390   19.9940 O   0  0  0  0  0  0  0  0  0  0  0  0
  -24.6070  -31.8720   23.2150 C   0  0  0  0  0  0  0  0  0  0  0  0
  -27.2470  -27.4840   20.0950 C   0  0  0  0  0  0  0  0  0  0  0  0
  -23.3960  -30.4940   21.5520 C   0  0  0  0  0  3  0  0  0  0  0  0
  -24.8490  -28.9640   20.1220 C   0  0  0  0  0  0  0  0  0  0  0  0
  -25.9190  -30.8510   21.3650 C   0  0  0  0  0  2  0  0  0  0  0  0
  -26.0010  -29.4840   20.7250 C   0  0  0  0  0  0  0  0  0  0  0  0
  -27.2030  -28.7470   20.7250 C   0  0  0  0  0  3  0  0  0  0  0  0
  -26.0830  -26.9710   19.4860 C   0  0  0  0  0  3  0  0  0  0  0  0
  -24.8790  -27.7010   19.5060 C   0  0  0  0  0  3  0  0  0  0  0  0
  -23.6090  -29.8260   20.1670 C   0  0  0  0  0  2  0  0  0  0  0  0
  -24.6580  -31.0850   22.1050 N   0  0  0  0  0  0  0  0  0  0  0  0
  -23.5270  -32.1450   23.7570 O   0  0  0  0  0  0  0  0  0  0  0  0
  -22.7380  -29.4660   22.4990 C   0  0  0  0  0  0  0  0  0  0  0  0
  -21.4110  -29.3020   22.3750 N   0  0  0  0  0  0  0  0  0  0  0  0
  -23.4170  -28.8170   23.3000 O   0  0  0  0  0  0  0  0  0  0  0  0
  -20.9230  -29.8770   21.7030 H   0  0  0  0  0  0  0  0  0  0  0  0
  -18.0270  -28.1370   22.8510 C   0  0  0  0  0  0  0  0  0  0  0  0
  -20.5860  -28.3640   23.1340 C   0  0  0  0  0  3  0  0  0  0  0  0
  -20.6760  -26.9380   22.5430 C   0  0  0  0  0  2  0  0  0  0  0  0
  -19.5740  -26.6390   21.5220 C   0  0  0  0  0  2  0  0  0  0  0  0
  -18.1920  -26.7930   22.1630 C   0  0  0  0  0  2  0  0  0  0  0  0
  -19.1520  -28.8820   23.2930 C   0  0  0  0  0  0  0  0  0  0  0  0
  -18.9450  -30.1440   23.8930 C   0  0  0  0  0  3  0  0  0  0  0  0
  -17.6460  -30.6590   24.0580 C   0  0  0  0  0  3  0  0  0  0  0  0
  -16.5350  -29.9100   23.6330 C   0  0  0  0  0  3  0  0  0  0  0  0
  -16.7260  -28.6510   23.0350 C   0  0  0  0  0  3  0  0  0  0  0  0
  -25.8980  -32.4850   23.8430 C   0  0  0  0  0  3  0  0  0  0  0  0
  -26.4440  -31.6620   25.0720 C   0  0  1  0  0  0  0  0  0  0  0  0
  -25.3710  -31.3730   26.1470 C   0  0  0  0  0  1  0  0  0  0  0  0
  -27.0280  -30.3070   24.6060 C   0  0  0  0  0  1  0  0  0  0  0  0
  -27.6040  -32.4310   25.7470 C   0  0  0  0  0  1  0  0  0  0  0  0
  -25.5850  -33.8650   24.2360 N   0  0  0  0  0  0  0  0  0  0  0  0
  -25.9010  -34.9490   23.5150 C   0  0  0  0  0  0  0  0  0  0  0  0
  -26.5580  -34.8930   22.4710 O   0  0  0  0  0  0  0  0  0  0  0  0
  -25.0000  -33.9830   25.0510 H   0  0  0  0  0  0  0  0  0  0  0  0
  -24.1480  -36.7320   23.2640 C   0  0  0  0  0  1  0  0  0  0  0  0
  -25.4110  -36.3130   24.0350 C   0  0  0  0  0  3  0  0  0  0  0  0
  -27.5590  -37.1810   24.8470 C   0  0  0  0  0  1  0  0  0  0  0  0
  -26.4310  -37.3800   23.9410 N   0  0  0  0  0  0  0  0  0  0  0  0
  -26.0200  -38.2880   24.1420 H   0  0  0  0  0  0  0  0  0  0  0  0
  -30.9760  -19.7360   22.6980 C   0  0  0  0  0  2  0  0  0  0  0  0
  -30.6080  -17.2960   21.7520 C   0  0  0  0  0  0  0  0  0  0  0  0
  -30.9120  -18.2360   22.7850 C   0  0  0  0  0  0  0  0  0  0  0  0
  -30.7170  -16.0990   22.4080 C   0  0  0  0  0  0  0  0  0  0  0  0
  -30.2220  -17.5810   20.3210 C   0  0  0  0  0  1  0  0  0  0  0  0
  -31.1730  -17.6510   23.9490 N   0  0  0  0  0  0  0  0  0  0  0  0
  -31.0430  -16.3220   23.7300 N   0  0  0  0  0  0  0  0  0  0  0  0
  -30.7680  -14.3160   20.7550 C   0  0  0  0  0  0  0  0  0  0  0  0
  -30.4250  -12.2940   19.3750 C   0  0  0  0  0  2  0  0  0  0  0  0
  -29.4830  -12.5460   18.1830 C   0  0  0  0  0  2  0  0  0  0  0  0
  -28.0090  -12.3900   18.6010 C   0  0  0  0  0  2  0  0  0  0  0  0
  -27.6700  -13.1960   19.8800 C   0  0  0  0  0  3  0  0  0  0  0  0
  -28.7020  -12.9030   20.9890 C   0  0  0  0  0  2  0  0  0  0  0  0
  -30.0550  -13.1970   20.4720 N   0  0  0  0  0  0  0  0  0  0  0  0
  -31.7290  -14.7050   20.0790 O   0  0  0  0  0  0  0  0  0  0  0  0
  -30.4230  -14.8710   21.9240 N   0  0  0  0  0  0  0  0  0  0  0  0
  -29.8140  -14.3090   22.4980 H   0  0  0  0  0  0  0  0  0  0  0  0
  -25.2620  -13.8150   20.5660 C   0  0  0  0  0  0  0  0  0  0  0  0
  -24.1860  -13.0440   20.9150 C   0  0  0  0  0  0  0  0  0  0  0  0
  -24.6390  -11.6900   20.8700 C   0  0  0  0  0  0  0  0  0  0  0  0
  -26.3060  -12.9290   20.3350 N   0  0  0  0  0  0  0  0  0  0  0  0
  -25.9310  -11.6460   20.5720 N   0  0  0  0  0  0  0  0  0  0  0  0
  -23.9050  -10.4290   21.0390 C   0  0  0  0  0  0  0  0  0  0  0  0
  -24.3600   -9.4210   21.9170 C   0  0  0  0  0  3  0  0  0  0  0  0
  -23.6280   -8.2250   22.0750 C   0  0  0  0  0  3  0  0  0  0  0  0
  -22.4270   -8.0280   21.3540 C   0  0  0  0  0  0  0  0  0  0  0  0
  -21.9890   -9.0250   20.4650 C   0  0  0  0  0  3  0  0  0  0  0  0
  -22.7220  -10.2130   20.3050 C   0  0  0  0  0  3  0  0  0  0  0  0
  -21.6640   -6.8870   21.4240 O   0  0  0  0  0  0  0  0  0  0  0  0
  -21.6850   -6.0730   22.5280 C   0  0  0  0  0  0  0  0  0  0  0  0
  -21.4010   -6.5640   23.8210 C   0  0  0  0  0  3  0  0  0  0  0  0
  -21.3660   -5.6790   24.9180 C   0  0  0  0  0  3  0  0  0  0  0  0
  -21.6040   -4.3050   24.7230 C   0  0  0  0  0  0  0  0  0  0  0  0
  -21.8820   -3.8140   23.4350 C   0  0  0  0  0  3  0  0  0  0  0  0
  -21.9190   -4.6960   22.3400 C   0  0  0  0  0  0  0  0  0  0  0  0
  -22.1660   -4.2140   21.0980 F   0  0  0  0  0  0  0  0  0  0  0  0
  -21.5630   -3.4540   25.7740 F   0  0  0  0  0  0  0  0  0  0  0  0
  -22.7880  -13.5250   21.1830 C   0  0  0  0  0  0  0  0  0  0  0  0
  -22.0510  -12.8250   22.0390 N   0  0  0  0  0  0  0  0  0  0  0  0
  -22.3570  -14.5560   20.6690 O   0  0  0  0  0  0  0  0  0  0  0  0
  -22.4110  -11.9900   22.4780 H   0  0  0  0  0  0  0  0  0  0  0  0
  -21.1130  -13.1280   22.2580 H   0  0  0  0  0  0  0  0  0  0  0  0
  -25.4370  -15.1860   20.4080 N   0  0  0  0  0  0  0  0  0  0  0  0
  -24.6750  -15.8460   20.5230 H   0  0  0  0  0  0  0  0  0  0  0  0
  -26.2990  -15.6240   20.1080 H   0  0  0  0  0  0  0  0  0  0  0  0
  -29.8540  -15.3230   25.6440 C   0  0  0  0  0  1  0  0  0  0  0  0
  -32.3630  -15.6960   25.7460 C   0  0  0  0  0  1  0  0  0  0  0  0
  -31.1620  -15.3760   24.8380 C   0  0  0  0  0  3  0  0  0  0  0  0
  1  3  1  0
  2  1  1  0
  5  4  1  0
  5  6  1  0
  5  1  1  0
  7  8  1  0
  7  6  1  0
  9 10  1  0
  9  8  1  0
 11 13  1  0
 11 10  1  0
 12 23  2  0
 13 18  1  0
 14 22  1  0
 14 24  1  0
 15 21  1  0
 15 17  1  0
 16 22  1  0
 17 18  2  0
 17 16  1  0
 19 20  1  0
 19 13  2  0
 20 15  2  0
 21 14  1  0
 22 12  1  0
 24 26  2  0
 25 24  1  0
 27 25  1  0
 28 37  2  0
 28 33  1  0
 29 25  1  0
 29 33  1  0
 30 29  1  0
 31 32  1  0
 31 30  1  0
 32 28  1  0
 33 34  2  0
 34 35  1  0
 36 35  2  0
 37 36  1  0
 38 12  1  0
 38 43  1  0
 38 39  1  0
 39 42  1  1
 39 40  1  0
 41 39  1  0
 43 46  1  0
 44 48  1  0
 44 43  1  0
 45 44  2  0
 48 47  1  0
 50 48  1  0
 50 51  1  0
 50 49  1  0
 52 54  1  0
 52  1  1  0
 53 55  2  0
 53 54  1  0
 54 57  2  0
 55 58  1  0
 56 53  1  0
 58 57  1  0
 58 99  1  0
 59 67  1  0
 60 65  1  0
 61 62  1  0
 61 60  1  0
 63 62  1  0
 63 72  1  0
 63 64  1  0
 65 59  1  0
 65 64  1  0
 66 59  2  0
 67 55  1  0
 67 68  1  0
 69 70  2  0
 70 89  1  0
 71 70  1  0
 71 74  1  0
 72 69  1  0
 72 73  1  0
 73 71  2  0
 74 75  1  0
 75 76  2  0
 77 80  1  0
 77 76  1  0
 78 77  2  0
 79 78  1  0
 79 74  2  0
 80 81  1  0
 81 82  1  0
 82 83  2  0
 84 83  1  0
 84 88  1  0
 85 84  2  0
 86 81  2  0
 86 85  1  0
 87 86  1  0
 89 90  1  0
 90 93  1  0
 90 92  1  0
 91 89  2  0
 94 95  1  0
 94 69  1  0
 96 94  1  0
 99 97  1  0
 99 98  1  0
M  ISO  4  10 101  11 101  59 100  67 100
M  END
>  <TORSDO>  (21) 
F 25

>  <SCORE>  (21) 
16.657

>  <name>  (21) 
20

>  <ligand_id>  (21) 
20

>  <original_smiles>  (21) 
[H]c1c([H])c([H])c2c(c1[H])C([H])([H])C([H])([H])C([H])([H])C2([H])N([H])C(=O)C1([H])N(C(=O)C([H])(N([H])C(=O)C([H])(N([H])C([H])([H])[H])C([H])([H])[H])C(C([H])([H])[H])(C([H])([H])[H])C([H])([H])[H])C([H])([H])c2c([H])c(OC([H])([H])C([H])([H])C([H])([H])C([H])([H])C([H])([H])C([H])(C([H])([H])[H])[N+]([H])([H])C([H])([H])c3nn(C([H])(C([H])([H])[H])C([H])([H])[H])c(N([H])C(=O)N4C([H])([H])C([H])([H])C([H])([H])C([H])(n5nc(-c6c([H])c([H])c(Oc7c([H])c([H])c(F)c([H])c7F)c([H])c6[H])c(C(=O)N([H])[H])c5N([H])[H])C4([H])[H])c3C([H])([H])[H])c([H])c([H])c2C1([H])[H]

>  <smiles>  (21) 
[H]c1c([H])c([H])c2c(c1[H])C([H])([H])C([H])([H])C([H])([H])C2([H])N([H])C(=O)C1([H])N(C(=O)C([H])(N([H])C(=O)C([H])(N([H])C([H])([H])[H])C([H])([H])[H])C(C([H])([H])[H])(C([H])([H])[H])C([H])([H])[H])C([H])([H])c2c([H])c(OC([H])([H])C([H])([H])C([H])([H])C([H])([H])C([H])([H])C([H])(C([H])([H])[H])[N+]([H])([H])C([H])([H])c3nn(C([H])(C([H])([H])[H])C([H])([H])[H])c(N([H])C(=O)N4C([H])([H])C([H])([H])C([H])([H])C([H])(n5nc(-c6c([H])c([H])c(Oc7c([H])c([H])c(F)c([H])c7F)c([H])c6[H])c(C(=O)N([H])[H])c5N([H])[H])C4([H])[H])c3C([H])([H])[H])c([H])c([H])c2C1([H])[H]

$$$$
21:0:0
     RDKit          3D

 95103  0  0  1  0  0  0  0  0999 V2000
  -31.5750  -17.8610   20.6970 C   0  0  0  0  0  3  0  0  0  0  0  0
  -29.6350  -19.9920   20.5100 C   0  0  0  0  0  0  0  0  0  0  0  0
  -30.2250  -17.4740   20.5460 C   0  0  0  0  0  0  0  0  0  0  0  0
  -31.9780  -19.2190   20.7510 C   0  0  0  0  0  0  0  0  0  0  0  0
  -29.2690  -18.5730   20.4680 C   0  0  0  0  0  0  0  0  0  0  0  0
  -31.0220  -20.2600   20.6630 C   0  0  0  0  0  0  0  0  0  0  0  0
  -27.5990  -18.1430   20.3400 Cl  0  0  0  0  0  0  0  0  0  0  0  0
  -31.6140  -21.8820   20.8130 Cl  0  0  0  0  0  0  0  0  0  0  0  0
  -30.6140  -14.8760   20.2770 C   0  0  0  0  0  0  0  0  0  0  0  0
  -30.3960  -12.6080   19.2440 C   0  0  0  0  0  2  0  0  0  0  0  0
  -29.4410  -12.6810   18.0320 C   0  0  0  0  0  2  0  0  0  0  0  0
  -27.9790  -12.4960   18.4820 C   0  0  0  0  0  2  0  0  0  0  0  0
  -27.6170  -13.3680   19.7160 C   0  0  0  0  0  3  0  0  0  0  0  0
  -28.6950  -13.2890   20.8190 C   0  0  0  0  0  2  0  0  0  0  0  0
  -29.9760  -13.6560   20.2050 N   0  0  0  0  0  0  0  0  0  0  0  0
  -31.7940  -14.9450   19.9220 O   0  0  0  0  0  0  0  0  0  0  0  0
  -29.8610  -16.0220   20.5280 N   0  0  0  0  0  0  0  0  0  0  0  0
  -28.8800  -15.8410   20.6820 H   0  0  0  0  0  0  0  0  0  0  0  0
  -25.2360  -13.9240   20.4850 C   0  0  0  0  0  0  0  0  0  0  0  0
  -24.1860  -13.1350   20.8650 C   0  0  0  0  0  0  0  0  0  0  0  0
  -24.6640  -11.7890   20.8190 C   0  0  0  0  0  0  0  0  0  0  0  0
  -26.2870  -13.0590   20.2260 N   0  0  0  0  0  0  0  0  0  0  0  0
  -25.9510  -11.7690   20.4910 N   0  0  0  0  0  0  0  0  0  0  0  0
  -23.9540  -10.5180   21.0100 C   0  0  0  0  0  0  0  0  0  0  0  0
  -24.3990   -9.5560   21.9440 C   0  0  0  0  0  3  0  0  0  0  0  0
  -23.6870   -8.3500   22.1240 C   0  0  0  0  0  3  0  0  0  0  0  0
  -22.5170   -8.0980   21.3700 C   0  0  0  0  0  0  0  0  0  0  0  0
  -22.0920   -9.0490   20.4250 C   0  0  0  0  0  3  0  0  0  0  0  0
  -22.8040  -10.2450   20.2440 C   0  0  0  0  0  3  0  0  0  0  0  0
  -21.7750   -6.9440   21.4580 O   0  0  0  0  0  0  0  0  0  0  0  0
  -21.7160   -6.2150   22.6190 C   0  0  0  0  0  0  0  0  0  0  0  0
  -21.2490   -6.7740   23.8270 C   0  0  0  0  0  3  0  0  0  0  0  0
  -21.1380   -5.9700   24.9790 C   0  0  0  0  0  3  0  0  0  0  0  0
  -21.4850   -4.6070   24.9230 C   0  0  0  0  0  0  0  0  0  0  0  0
  -21.9460   -4.0470   23.7180 C   0  0  0  0  0  3  0  0  0  0  0  0
  -22.0570   -4.8480   22.5690 C   0  0  0  0  0  0  0  0  0  0  0  0
  -22.4810   -4.2980   21.4050 F   0  0  0  0  0  0  0  0  0  0  0  0
  -21.3730   -3.8320   26.0260 F   0  0  0  0  0  0  0  0  0  0  0  0
  -22.7870  -13.5940   21.1600 C   0  0  0  0  0  0  0  0  0  0  0  0
  -22.0790  -12.8840   22.0300 N   0  0  0  0  0  0  0  0  0  0  0  0
  -22.3320  -14.6200   20.6540 O   0  0  0  0  0  0  0  0  0  0  0  0
  -22.4610  -12.0540   22.4590 H   0  0  0  0  0  0  0  0  0  0  0  0
  -21.1420  -13.1750   22.2730 H   0  0  0  0  0  0  0  0  0  0  0  0
  -25.3780  -15.2970   20.3150 N   0  0  0  0  0  0  0  0  0  0  0  0
  -24.6010  -15.9350   20.4450 H   0  0  0  0  0  0  0  0  0  0  0  0
  -26.2130  -15.7630   19.9820 H   0  0  0  0  0  0  0  0  0  0  0  0
  -34.3050  -18.6020   20.9780 C   0  0  0  0  0  1  0  0  0  0  0  0
  -33.2970  -19.6030   20.9100 O   0  0  0  0  0  0  0  0  0  0  0  0
  -28.5670  -21.1960   20.5300 C   0  0  0  0  0  2  0  0  0  0  0  0
  -28.3530  -23.8420   20.4710 C   0  0  0  0  0  0  0  0  0  0  0  0
  -28.7940  -22.6150   19.9850 N   0  0  0  0  0  0  0  0  0  0  0  0
  -27.8580  -23.9160   21.5970 O   0  0  0  0  0  0  0  0  0  0  0  0
  -29.2130  -22.6500   19.0650 H   0  0  0  0  0  0  0  0  0  0  0  0
  -28.4180  -25.1790   19.5810 C   0  0  0  0  0  2  0  0  0  0  0  0
  -28.2970  -26.5230   20.2500 O   0  0  0  0  0  0  0  0  0  0  0  0
  -24.5530  -31.9350   23.2780 C   0  0  0  0  0  0  0  0  0  0  0  0
  -27.1670  -27.3700   20.1740 C   0  0  0  0  0  0  0  0  0  0  0  0
  -23.3510  -30.5470   21.6270 C   0  0  0  0  0  3  0  0  0  0  0  0
  -24.8010  -29.0080   20.1800 C   0  0  0  0  0  0  0  0  0  0  0  0
  -25.8920  -30.8620   21.4450 C   0  0  0  0  0  2  0  0  0  0  0  0
  -25.9710  -29.4860   20.7830 C   0  0  0  0  0  0  0  0  0  0  0  0
  -27.1520  -28.6780   20.7700 C   0  0  0  0  0  3  0  0  0  0  0  0
  -25.9680  -26.9510   19.5570 C   0  0  0  0  0  3  0  0  0  0  0  0
  -24.8060  -27.7500   19.5590 C   0  0  0  0  0  3  0  0  0  0  0  0
  -23.5640  -29.8820   20.2410 C   0  0  0  0  0  2  0  0  0  0  0  0
  -24.6180  -31.1330   22.1730 N   0  0  0  0  0  0  0  0  0  0  0  0
  -23.4690  -32.2060   23.8150 O   0  0  0  0  0  0  0  0  0  0  0  0
  -22.6890  -29.5230   22.5810 C   0  0  0  0  0  0  0  0  0  0  0  0
  -21.3630  -29.3440   22.4540 N   0  0  0  0  0  0  0  0  0  0  0  0
  -23.3690  -28.8930   23.3950 O   0  0  0  0  0  0  0  0  0  0  0  0
  -20.8740  -29.9060   21.7710 H   0  0  0  0  0  0  0  0  0  0  0  0
  -17.9900  -28.1280   22.9410 C   0  0  0  0  0  0  0  0  0  0  0  0
  -20.5470  -28.3980   23.2170 C   0  0  0  0  0  3  0  0  0  0  0  0
  -20.6570  -26.9700   22.6330 C   0  0  0  0  0  2  0  0  0  0  0  0
  -19.5580  -26.6480   21.6150 C   0  0  0  0  0  2  0  0  0  0  0  0
  -18.1740  -26.7840   22.2570 C   0  0  0  0  0  2  0  0  0  0  0  0
  -19.1040  -28.8930   23.3770 C   0  0  0  0  0  0  0  0  0  0  0  0
  -18.8780  -30.1500   23.9790 C   0  0  0  0  0  3  0  0  0  0  0  0
  -17.5700  -30.6430   24.1450 C   0  0  0  0  0  3  0  0  0  0  0  0
  -16.4700  -29.8750   23.7240 C   0  0  0  0  0  3  0  0  0  0  0  0
  -16.6810  -28.6190   23.1290 C   0  0  0  0  0  3  0  0  0  0  0  0
  -25.8330  -32.5660   23.9060 C   0  0  0  0  0  3  0  0  0  0  0  0
  -26.3270  -31.8110   25.2010 C   0  0  1  0  0  0  0  0  0  0  0  0
  -25.2180  -31.5980   26.2580 C   0  0  0  0  0  1  0  0  0  0  0  0
  -26.9050  -30.4240   24.8370 C   0  0  0  0  0  1  0  0  0  0  0  0
  -27.4760  -32.6060   25.8650 C   0  0  0  0  0  1  0  0  0  0  0  0
  -25.5310  -33.9720   24.2150 N   0  0  0  0  0  0  0  0  0  0  0  0
  -25.8840  -35.0140   23.4490 C   0  0  0  0  0  0  0  0  0  0  0  0
  -26.5660  -34.8920   22.4290 O   0  0  0  0  0  0  0  0  0  0  0  0
  -24.9250  -34.1410   25.0040 H   0  0  0  0  0  0  0  0  0  0  0  0
  -24.1820  -36.8230   23.0490 C   0  0  0  0  0  1  0  0  0  0  0  0
  -25.4050  -36.4120   23.8860 C   0  0  0  0  0  3  0  0  0  0  0  0
  -27.5340  -37.2810   24.7470 C   0  0  0  0  0  1  0  0  0  0  0  0
  -26.4520  -37.4520   23.7810 N   0  0  0  0  0  0  0  0  0  0  0  0
  -26.0540  -38.3790   23.9110 H   0  0  0  0  0  0  0  0  0  0  0  0
  1  4  1  0
  2 49  1  0
  2  6  1  0
  3  1  2  0
  4 48  1  0
  5  2  2  0
  5  3  1  0
  6  4  2  0
  6  8  1  0
  7  5  1  0
  9 17  1  0
 10 15  1  0
 11 12  1  0
 11 10  1  0
 13 12  1  0
 13 22  1  0
 13 14  1  0
 15  9  1  0
 15 14  1  0
 16  9  2  0
 17  3  1  0
 17 18  1  0
 19 20  2  0
 20 39  1  0
 21 20  1  0
 21 24  1  0
 22 19  1  0
 22 23  1  0
 23 21  2  0
 24 25  1  0
 25 26  2  0
 27 30  1  0
 27 26  1  0
 28 27  2  0
 29 28  1  0
 29 24  2  0
 30 31  1  0
 31 32  1  0
 32 33  2  0
 34 33  1  0
 34 38  1  0
 35 34  2  0
 36 31  2  0
 36 35  1  0
 37 36  1  0
 39 40  1  0
 40 43  1  0
 40 42  1  0
 41 39  2  0
 44 45  1  0
 44 19  1  0
 46 44  1  0
 48 47  1  0
 50 52  2  0
 51 50  1  0
 51 49  1  0
 53 51  1  0
 54 55  1  0
 54 50  1  0
 56 67  2  0
 57 55  1  0
 57 62  1  0
 58 66  1  0
 58 68  1  0
 59 65  1  0
 59 61  1  0
 60 66  1  0
 61 60  1  0
 62 61  2  0
 63 64  1  0
 63 57  2  0
 64 59  2  0
 65 58  1  0
 66 56  1  0
 68 70  2  0
 69 68  1  0
 71 69  1  0
 72 81  2  0
 72 77  1  0
 73 69  1  0
 73 77  1  0
 74 73  1  0
 75 76  1  0
 75 74  1  0
 76 72  1  0
 77 78  2  0
 78 79  1  0
 80 79  2  0
 81 80  1  0
 82 56  1  0
 82 87  1  0
 82 83  1  0
 83 86  1  1
 83 84  1  0
 85 83  1  0
 87 90  1  0
 88 92  1  0
 88 87  1  0
 89 88  2  0
 92 91  1  0
 94 92  1  0
 94 95  1  0
 94 93  1  0
M  ISO  4   9 100  17 100  54 101  55 101
M  END
>  <TORSDO>  (22) 
F 20

>  <SCORE>  (22) 
-14.033

>  <name>  (22) 
21

>  <ligand_id>  (22) 
21

>  <original_smiles>  (22) 
[H]c1c([H])c([H])c2c(c1[H])C([H])([H])C([H])([H])C([H])([H])C2([H])N([H])C(=O)C1([H])N(C(=O)C([H])(N([H])C(=O)C([H])(N([H])C([H])([H])[H])C([H])([H])[H])C(C([H])([H])[H])(C([H])([H])[H])C([H])([H])[H])C([H])([H])c2c([H])c(OC([H])([H])C(=O)N([H])C([H])([H])c3c(Cl)c(OC([H])([H])[H])c([H])c(N([H])C(=O)N4C([H])([H])C([H])([H])C([H])([H])C([H])(n5nc(-c6c([H])c([H])c(Oc7c([H])c([H])c(F)c([H])c7F)c([H])c6[H])c(C(=O)N([H])[H])c5N([H])[H])C4([H])[H])c3Cl)c([H])c([H])c2C1([H])[H]

>  <smiles>  (22) 
[H]c1c([H])c([H])c2c(c1[H])C([H])([H])C([H])([H])C([H])([H])C2([H])N([H])C(=O)C1([H])N(C(=O)C([H])(N([H])C(=O)C([H])(N([H])C([H])([H])[H])C([H])([H])[H])C(C([H])([H])[H])(C([H])([H])[H])C([H])([H])[H])C([H])([H])c2c([H])c(OC([H])([H])C(=O)N([H])C([H])([H])c3c(Cl)c(OC([H])([H])[H])c([H])c(N([H])C(=O)N4C([H])([H])C([H])([H])C([H])([H])C([H])(n5nc(-c6c([H])c([H])c(Oc7c([H])c([H])c(F)c([H])c7F)c([H])c6[H])c(C(=O)N([H])[H])c5N([H])[H])C4([H])[H])c3Cl)c([H])c([H])c2C1([H])[H]

$$$$
22:0:0
     RDKit          3D

 92100  0  0  1  0  0  0  0  0999 V2000
  -29.8680  -20.0080   18.8090 C   0  0  0  0  0  3  0  0  0  0  0  0
  -29.7810  -19.9480   20.2140 C   0  0  0  0  0  0  0  0  0  0  0  0
  -29.8860  -18.5830   20.7620 C   0  0  0  0  0  0  0  0  0  0  0  0
  -30.1180  -18.8320   18.0670 C   0  0  0  0  0  0  0  0  0  0  0  0
  -30.0990  -17.3880   19.9340 C   0  0  0  0  0  0  0  0  0  0  0  0
  -30.3060  -18.8930   16.5640 C   0  0  0  0  0  1  0  0  0  0  0  0
  -30.2290  -17.5930   18.6020 N   0  0  0  0  0  0  0  0  0  0  0  0
  -29.8160  -18.4320   22.1060 F   0  0  0  0  0  0  0  0  0  0  0  0
  -30.7220  -14.8150   19.9780 C   0  0  0  0  0  0  0  0  0  0  0  0
  -30.4160  -12.5460   18.9410 C   0  0  0  0  0  2  0  0  0  0  0  0
  -29.4010  -12.6250   17.7800 C   0  0  0  0  0  2  0  0  0  0  0  0
  -27.9560  -12.4580   18.2900 C   0  0  0  0  0  2  0  0  0  0  0  0
  -27.6660  -13.3240   19.5440 C   0  0  0  0  0  3  0  0  0  0  0  0
  -28.7950  -13.2250   20.5960 C   0  0  0  0  0  2  0  0  0  0  0  0
  -30.0630  -13.5910   19.9420 N   0  0  0  0  0  0  0  0  0  0  0  0
  -31.8680  -14.8680   19.5150 O   0  0  0  0  0  0  0  0  0  0  0  0
  -30.0750  -15.9730   20.4360 N   0  0  0  0  0  0  0  0  0  0  0  0
  -29.2990  -15.7960   21.0520 H   0  0  0  0  0  0  0  0  0  0  0  0
  -25.3360  -13.9130   20.4370 C   0  0  0  0  0  0  0  0  0  0  0  0
  -24.2860  -13.1450   20.8530 C   0  0  0  0  0  0  0  0  0  0  0  0
  -24.7270  -11.7870   20.7590 C   0  0  0  0  0  0  0  0  0  0  0  0
  -26.3530  -13.0310   20.1100 N   0  0  0  0  0  0  0  0  0  0  0  0
  -25.9950  -11.7450   20.3610 N   0  0  0  0  0  0  0  0  0  0  0  0
  -23.9950  -10.5270   20.9620 C   0  0  0  0  0  0  0  0  0  0  0  0
  -24.4500   -9.5430   21.8690 C   0  0  0  0  0  3  0  0  0  0  0  0
  -23.7190   -8.3520   22.0600 C   0  0  0  0  0  3  0  0  0  0  0  0
  -22.5180   -8.1320   21.3450 C   0  0  0  0  0  0  0  0  0  0  0  0
  -22.0790   -9.1040   20.4270 C   0  0  0  0  0  3  0  0  0  0  0  0
  -22.8100  -10.2880   20.2330 C   0  0  0  0  0  3  0  0  0  0  0  0
  -21.7560   -6.9940   21.4490 O   0  0  0  0  0  0  0  0  0  0  0  0
  -21.7130   -6.2570   22.6060 C   0  0  0  0  0  0  0  0  0  0  0  0
  -21.2610   -6.8090   23.8240 C   0  0  0  0  0  3  0  0  0  0  0  0
  -21.1690   -5.9980   24.9740 C   0  0  0  0  0  3  0  0  0  0  0  0
  -21.5170   -4.6360   24.9040 C   0  0  0  0  0  0  0  0  0  0  0  0
  -21.9590   -4.0820   23.6900 C   0  0  0  0  0  3  0  0  0  0  0  0
  -22.0540   -4.8910   22.5440 C   0  0  0  0  0  0  0  0  0  0  0  0
  -22.4630   -4.3480   21.3710 F   0  0  0  0  0  0  0  0  0  0  0  0
  -21.4210   -3.8550   26.0060 F   0  0  0  0  0  0  0  0  0  0  0  0
  -22.9150  -13.6300   21.2300 C   0  0  0  0  0  0  0  0  0  0  0  0
  -22.2310  -12.9190   22.1170 N   0  0  0  0  0  0  0  0  0  0  0  0
  -22.4620  -14.6800   20.7690 O   0  0  0  0  0  0  0  0  0  0  0  0
  -22.6120  -12.0720   22.5070 H   0  0  0  0  0  0  0  0  0  0  0  0
  -21.3120  -13.2210   22.4090 H   0  0  0  0  0  0  0  0  0  0  0  0
  -25.5060  -15.2900   20.2880 N   0  0  0  0  0  0  0  0  0  0  0  0
  -24.7450  -15.9420   20.4390 H   0  0  0  0  0  0  0  0  0  0  0  0
  -26.3440  -15.7360   19.9370 H   0  0  0  0  0  0  0  0  0  0  0  0
  -29.6550  -21.2470   21.0800 C   0  0  0  0  0  3  0  0  0  0  0  0
  -29.2650  -22.6050   21.0530 C   0  0  0  0  0  0  0  0  0  0  0  0
  -29.4080  -23.4200   22.3370 C   0  0  0  0  0  1  0  0  0  0  0  0
  -28.5870  -23.5500   19.9740 C   0  0  0  0  0  2  0  0  0  0  0  0
  -28.8980  -25.1560   19.7540 C   0  0  0  0  0  2  0  0  0  0  0  0
  -28.5490  -26.3870   20.5520 O   0  0  0  0  0  0  0  0  0  0  0  0
  -24.6590  -31.8550   23.2770 C   0  0  0  0  0  0  0  0  0  0  0  0
  -27.4370  -27.2470   20.3670 C   0  0  0  0  0  0  0  0  0  0  0  0
  -23.5370  -30.4340   21.5970 C   0  0  0  0  0  3  0  0  0  0  0  0
  -25.0630  -28.8840   20.2270 C   0  0  0  0  0  0  0  0  0  0  0  0
  -26.0780  -30.7630   21.5170 C   0  0  0  0  0  2  0  0  0  0  0  0
  -26.1990  -29.3750   20.8810 C   0  0  0  0  0  0  0  0  0  0  0  0
  -27.3760  -28.5620   20.9500 C   0  0  0  0  0  3  0  0  0  0  0  0
  -26.2770  -26.8180   19.6880 C   0  0  0  0  0  3  0  0  0  0  0  0
  -25.1090  -27.6140   19.6210 C   0  0  0  0  0  3  0  0  0  0  0  0
  -23.8100  -29.7450   20.2300 C   0  0  0  0  0  2  0  0  0  0  0  0
  -24.7750  -31.0380   22.1880 N   0  0  0  0  0  0  0  0  0  0  0  0
  -23.5520  -32.1230   23.7680 O   0  0  0  0  0  0  0  0  0  0  0  0
  -22.8520  -29.4190   22.5420 C   0  0  0  0  0  0  0  0  0  0  0  0
  -21.5300  -29.2400   22.3760 N   0  0  0  0  0  0  0  0  0  0  0  0
  -23.5070  -28.7900   23.3760 O   0  0  0  0  0  0  0  0  0  0  0  0
  -21.0550  -29.7980   21.6810 H   0  0  0  0  0  0  0  0  0  0  0  0
  -18.1380  -28.0610   22.8090 C   0  0  0  0  0  0  0  0  0  0  0  0
  -20.6930  -28.3000   23.1220 C   0  0  0  0  0  3  0  0  0  0  0  0
  -20.7970  -26.8750   22.5310 C   0  0  0  0  0  2  0  0  0  0  0  0
  -19.7090  -26.5690   21.4980 C   0  0  0  0  0  2  0  0  0  0  0  0
  -18.3170  -26.7190   22.1170 C   0  0  0  0  0  2  0  0  0  0  0  0
  -19.2550  -28.8110   23.2660 C   0  0  0  0  0  0  0  0  0  0  0  0
  -19.0340  -30.0680   23.8730 C   0  0  0  0  0  3  0  0  0  0  0  0
  -17.7310  -30.5780   24.0220 C   0  0  0  0  0  3  0  0  0  0  0  0
  -16.6290  -29.8230   23.5820 C   0  0  0  0  0  3  0  0  0  0  0  0
  -16.8340  -28.5660   22.9850 C   0  0  0  0  0  3  0  0  0  0  0  0
  -25.9060  -32.5110   23.9470 C   0  0  0  0  0  3  0  0  0  0  0  0
  -26.3630  -31.7710   25.2640 C   0  0  1  0  0  0  0  0  0  0  0  0
  -25.2170  -31.5440   26.2790 C   0  0  0  0  0  1  0  0  0  0  0  0
  -26.9780  -30.3920   24.9320 C   0  0  0  0  0  1  0  0  0  0  0  0
  -27.4740  -32.5870   25.9670 C   0  0  0  0  0  1  0  0  0  0  0  0
  -25.5720  -33.9120   24.2370 N   0  0  0  0  0  0  0  0  0  0  0  0
  -25.9190  -34.9550   23.4700 C   0  0  0  0  0  0  0  0  0  0  0  0
  -26.6190  -34.8370   22.4590 O   0  0  0  0  0  0  0  0  0  0  0  0
  -24.9450  -34.0750   25.0120 H   0  0  0  0  0  0  0  0  0  0  0  0
  -24.1780  -36.7200   23.0360 C   0  0  0  0  0  1  0  0  0  0  0  0
  -25.4060  -36.3480   23.8840 C   0  0  0  0  0  3  0  0  0  0  0  0
  -27.5050  -37.2800   24.7520 C   0  0  0  0  0  1  0  0  0  0  0  0
  -26.4300  -37.4100   23.7720 N   0  0  0  0  0  0  0  0  0  0  0  0
  -26.0110  -38.3290   23.8800 H   0  0  0  0  0  0  0  0  0  0  0  0
  1  2  1  0
  2  3  2  0
  2 47  1  0
  3  8  1  0
  4  7  1  0
  4  1  2  0
  5 17  1  0
  5  3  1  0
  6  4  1  0
  7  5  2  0
  9 17  1  0
 10 15  1  0
 11 12  1  0
 11 10  1  0
 13 12  1  0
 13 22  1  0
 13 14  1  0
 15  9  1  0
 15 14  1  0
 16  9  2  0
 17 18  1  0
 19 20  2  0
 20 39  1  0
 21 20  1  0
 21 24  1  0
 22 23  1  0
 22 19  1  0
 23 21  2  0
 24 25  1  0
 25 26  2  0
 27 30  1  0
 27 26  1  0
 28 27  2  0
 29 28  1  0
 29 24  2  0
 30 31  1  0
 31 32  1  0
 32 33  2  0
 34 33  1  0
 34 38  1  0
 35 34  2  0
 36 31  2  0
 36 35  1  0
 37 36  1  0
 39 40  1  0
 40 43  1  0
 40 42  1  0
 41 39  2  0
 44 19  1  0
 44 45  1  0
 46 44  1  0
 48 47  2  0
 48 49  1  0
 50 48  1  0
 51 50  1  0
 51 52  1  0
 53 64  2  0
 54 52  1  0
 54 59  1  0
 55 63  1  0
 55 65  1  0
 56 62  1  0
 56 58  1  0
 57 63  1  0
 58 59  2  0
 58 57  1  0
 60 54  2  0
 61 60  1  0
 61 56  2  0
 62 55  1  0
 63 53  1  0
 65 67  2  0
 66 65  1  0
 68 66  1  0
 69 78  2  0
 69 74  1  0
 70 66  1  0
 70 74  1  0
 71 70  1  0
 72 73  1  0
 72 71  1  0
 73 69  1  0
 74 75  2  0
 75 76  1  0
 77 76  2  0
 78 77  1  0
 79 53  1  0
 79 84  1  0
 79 80  1  0
 80 83  1  1
 80 81  1  0
 82 80  1  0
 84 87  1  0
 85 89  1  0
 85 84  1  0
 86 85  2  0
 89 88  1  0
 91 92  1  0
 91 89  1  0
 91 90  1  0
M  ISO  4   9 100  17 100  51 101  52 101
M  END
>  <TORSDO>  (23) 
F 19

>  <SCORE>  (23) 
-14.052

>  <name>  (23) 
22

>  <ligand_id>  (23) 
22

>  <original_smiles>  (23) 
[H]C(=C(C([H])([H])[H])C([H])([H])C([H])([H])Oc1c([H])c([H])c2c(c1[H])C([H])([H])N(C(=O)C([H])(N([H])C(=O)C([H])(N([H])C([H])([H])[H])C([H])([H])[H])C(C([H])([H])[H])(C([H])([H])[H])C([H])([H])[H])C([H])(C(=O)N([H])C1([H])c3c([H])c([H])c([H])c([H])c3C([H])([H])C([H])([H])C1([H])[H])C2([H])[H])c1c([H])c(C([H])([H])[H])nc(N([H])C(=O)N2C([H])([H])C([H])([H])C([H])([H])C([H])(n3nc(-c4c([H])c([H])c(Oc5c([H])c([H])c(F)c([H])c5F)c([H])c4[H])c(C(=O)N([H])[H])c3N([H])[H])C2([H])[H])c1F

>  <smiles>  (23) 
[H]C(=C(C([H])([H])[H])C([H])([H])C([H])([H])Oc1c([H])c([H])c2c(c1[H])C([H])([H])N(C(=O)C([H])(N([H])C(=O)C([H])(N([H])C([H])([H])[H])C([H])([H])[H])C(C([H])([H])[H])(C([H])([H])[H])C([H])([H])[H])C([H])(C(=O)N([H])C1([H])c3c([H])c([H])c([H])c([H])c3C([H])([H])C([H])([H])C1([H])[H])C2([H])[H])c1c([H])c(C([H])([H])[H])nc(N([H])C(=O)N2C([H])([H])C([H])([H])C([H])([H])C([H])(n3nc(-c4c([H])c([H])c(Oc5c([H])c([H])c(F)c([H])c5F)c([H])c4[H])c(C(=O)N([H])[H])c3N([H])[H])C2([H])[H])c1F

$$$$
23:0:0
     RDKit          3D

 95103  0  0  1  0  0  0  0  0999 V2000
  -29.4160  -20.6160   21.3500 C   0  0  0  0  0  2  0  0  0  0  0  0
  -31.7300  -17.4300   19.4240 C   0  0  0  0  0  3  0  0  0  0  0  0
  -32.1890  -18.7520   19.3220 C   0  0  0  0  0  0  0  0  0  0  0  0
  -31.5260  -19.7950   20.0120 C   0  0  0  0  0  0  0  0  0  0  0  0
  -30.3110  -19.5090   20.7160 C   0  0  0  0  0  0  0  0  0  0  0  0
  -29.9080  -18.1350   20.8640 C   0  0  0  0  0  0  0  0  0  0  0  0
  -30.6420  -17.0720   20.2510 C   0  0  0  0  0  0  0  0  0  0  0  0
  -33.4210  -19.0040   18.4620 C   0  0  0  0  0  1  0  0  0  0  0  0
  -32.1650  -21.1840   19.9980 C   0  0  0  0  0  1  0  0  0  0  0  0
  -28.6700  -17.7870   21.6920 C   0  0  0  0  0  1  0  0  0  0  0  0
  -30.9260  -14.5630   20.0510 C   0  0  0  0  0  0  0  0  0  0  0  0
  -30.5030  -12.4290   18.9110 C   0  0  0  0  0  2  0  0  0  0  0  0
  -29.4980  -12.6710   17.7650 C   0  0  0  0  0  2  0  0  0  0  0  0
  -28.0540  -12.5310   18.2820 C   0  0  0  0  0  2  0  0  0  0  0  0
  -27.7970  -13.3380   19.5840 C   0  0  0  0  0  3  0  0  0  0  0  0
  -28.9230  -13.1220   20.6210 C   0  0  0  0  0  2  0  0  0  0  0  0
  -30.2050  -13.4120   19.9660 N   0  0  0  0  0  0  0  0  0  0  0  0
  -32.0860  -14.6140   19.6440 O   0  0  0  0  0  0  0  0  0  0  0  0
  -30.2530  -15.6830   20.4210 N   0  0  0  0  0  0  0  0  0  0  0  0
  -29.3390  -15.5200   20.8140 H   0  0  0  0  0  0  0  0  0  0  0  0
  -25.4520  -13.9160   20.4600 C   0  0  0  0  0  0  0  0  0  0  0  0
  -24.4070  -13.1320   20.8690 C   0  0  0  0  0  0  0  0  0  0  0  0
  -24.8630  -11.7820   20.7710 C   0  0  0  0  0  0  0  0  0  0  0  0
  -26.4790  -13.0440   20.1410 N   0  0  0  0  0  0  0  0  0  0  0  0
  -26.1330  -11.7530   20.3870 N   0  0  0  0  0  0  0  0  0  0  0  0
  -24.1460  -10.5140   20.9630 C   0  0  0  0  0  0  0  0  0  0  0  0
  -24.5660   -9.5670   21.9240 C   0  0  0  0  0  3  0  0  0  0  0  0
  -23.8480   -8.3650   22.1050 C   0  0  0  0  0  3  0  0  0  0  0  0
  -22.6980   -8.1010   21.3240 C   0  0  0  0  0  0  0  0  0  0  0  0
  -22.2980   -9.0370   20.3530 C   0  0  0  0  0  3  0  0  0  0  0  0
  -23.0170  -10.2300   20.1710 C   0  0  0  0  0  3  0  0  0  0  0  0
  -21.9530   -6.9490   21.4120 O   0  0  0  0  0  0  0  0  0  0  0  0
  -21.7900   -6.2870   22.6030 C   0  0  0  0  0  0  0  0  0  0  0  0
  -21.2050   -6.9090   23.7270 C   0  0  0  0  0  3  0  0  0  0  0  0
  -20.9910   -6.1720   24.9090 C   0  0  0  0  0  3  0  0  0  0  0  0
  -21.3540   -4.8130   24.9670 C   0  0  0  0  0  0  0  0  0  0  0  0
  -21.9310   -4.1900   23.8460 C   0  0  0  0  0  3  0  0  0  0  0  0
  -22.1450   -4.9250   22.6660 C   0  0  0  0  0  0  0  0  0  0  0  0
  -22.6830   -4.3130   21.5830 F   0  0  0  0  0  0  0  0  0  0  0  0
  -21.1430   -4.1010   26.0990 F   0  0  0  0  0  0  0  0  0  0  0  0
  -23.0270  -13.6010   21.2360 C   0  0  0  0  0  0  0  0  0  0  0  0
  -22.3490  -12.8770   22.1200 N   0  0  0  0  0  0  0  0  0  0  0  0
  -22.5620  -14.6420   20.7750 O   0  0  0  0  0  0  0  0  0  0  0  0
  -22.7380  -12.0340   22.5140 H   0  0  0  0  0  0  0  0  0  0  0  0
  -21.4260  -13.1730   22.4080 H   0  0  0  0  0  0  0  0  0  0  0  0
  -25.6070  -15.2910   20.3120 N   0  0  0  0  0  0  0  0  0  0  0  0
  -24.8460  -15.9420   20.4800 H   0  0  0  0  0  0  0  0  0  0  0  0
  -26.4240  -15.7350   19.9120 H   0  0  0  0  0  0  0  0  0  0  0  0
  -28.8510  -22.8540   20.2940 C   0  0  0  0  0  0  0  0  0  0  0  0
  -29.6400  -22.0350   21.0140 N   0  0  0  0  0  0  0  0  0  0  0  0
  -27.7860  -22.4750   19.8030 O   0  0  0  0  0  0  0  0  0  0  0  0
  -30.4850  -22.4400   21.3900 H   0  0  0  0  0  0  0  0  0  0  0  0
  -29.3260  -24.3070   20.0630 C   0  0  0  0  0  2  0  0  0  0  0  0
  -28.3640  -25.3790   20.6350 C   0  0  0  0  0  2  0  0  0  0  0  0
  -28.5390  -26.6940   20.0570 O   0  0  0  0  0  0  0  0  0  0  0  0
  -24.7390  -31.8510   23.1820 C   0  0  0  0  0  0  0  0  0  0  0  0
  -27.3940  -27.4630   20.0380 C   0  0  0  0  0  0  0  0  0  0  0  0
  -23.5380  -30.4720   21.5150 C   0  0  0  0  0  3  0  0  0  0  0  0
  -25.0000  -28.9720   20.0590 C   0  0  0  0  0  0  0  0  0  0  0  0
  -26.0630  -30.8470   21.3250 C   0  0  0  0  0  2  0  0  0  0  0  0
  -26.1560  -29.4870   20.6600 C   0  0  0  0  0  0  0  0  0  0  0  0
  -27.3600  -28.7420   20.6420 C   0  0  0  0  0  3  0  0  0  0  0  0
  -26.2260  -26.9760   19.4120 C   0  0  0  0  0  3  0  0  0  0  0  0
  -25.0310  -27.7160   19.4290 C   0  0  0  0  0  3  0  0  0  0  0  0
  -23.7500  -29.8200   20.1230 C   0  0  0  0  0  2  0  0  0  0  0  0
  -24.7990  -31.0710   22.0660 N   0  0  0  0  0  0  0  0  0  0  0  0
  -23.6560  -32.1090   23.7280 O   0  0  0  0  0  0  0  0  0  0  0  0
  -22.8920  -29.4310   22.4580 C   0  0  0  0  0  0  0  0  0  0  0  0
  -21.5640  -29.2650   22.3450 N   0  0  0  0  0  0  0  0  0  0  0  0
  -23.5810  -28.7790   23.2470 O   0  0  0  0  0  0  0  0  0  0  0  0
  -21.0700  -29.8460   21.6830 H   0  0  0  0  0  0  0  0  0  0  0  0
  -18.1780  -28.1240   22.8940 C   0  0  0  0  0  0  0  0  0  0  0  0
  -20.7490  -28.3150   23.1010 C   0  0  0  0  0  3  0  0  0  0  0  0
  -20.8020  -26.9060   22.4670 C   0  0  0  0  0  2  0  0  0  0  0  0
  -19.6640  -26.6490   21.4720 C   0  0  0  0  0  2  0  0  0  0  0  0
  -18.3040  -26.7980   22.1630 C   0  0  0  0  0  2  0  0  0  0  0  0
  -19.3260  -28.8420   23.3210 C   0  0  0  0  0  0  0  0  0  0  0  0
  -19.1550  -30.0850   23.9680 C   0  0  0  0  0  3  0  0  0  0  0  0
  -17.8680  -30.6110   24.1900 C   0  0  0  0  0  3  0  0  0  0  0  0
  -16.7350  -29.8880   23.7790 C   0  0  0  0  0  3  0  0  0  0  0  0
  -16.8920  -28.6460   23.1380 C   0  0  0  0  0  3  0  0  0  0  0  0
  -26.0220  -32.4760   23.8130 C   0  0  0  0  0  3  0  0  0  0  0  0
  -26.5370  -31.6930   25.0810 C   0  0  1  0  0  0  0  0  0  0  0  0
  -25.4390  -31.4400   26.1400 C   0  0  0  0  0  1  0  0  0  0  0  0
  -27.1260  -30.3230   24.6720 C   0  0  0  0  0  1  0  0  0  0  0  0
  -27.6800  -32.4850   25.7570 C   0  0  0  0  0  1  0  0  0  0  0  0
  -25.7140  -33.8710   24.1530 N   0  0  0  0  0  0  0  0  0  0  0  0
  -26.0400  -34.9290   23.3970 C   0  0  0  0  0  0  0  0  0  0  0  0
  -26.7050  -34.8310   22.3610 O   0  0  0  0  0  0  0  0  0  0  0  0
  -25.1230  -34.0210   24.9570 H   0  0  0  0  0  0  0  0  0  0  0  0
  -24.3070  -36.7190   23.0580 C   0  0  0  0  0  1  0  0  0  0  0  0
  -25.5500  -36.3130   23.8640 C   0  0  0  0  0  3  0  0  0  0  0  0
  -27.6800  -37.2000   24.7000 C   0  0  0  0  0  1  0  0  0  0  0  0
  -26.5790  -37.3680   23.7560 N   0  0  0  0  0  0  0  0  0  0  0  0
  -26.1710  -38.2880   23.9060 H   0  0  0  0  0  0  0  0  0  0  0  0
  2  7  1  0
  3  2  2  0
  3  4  1  0
  4  5  2  0
  5  6  1  0
  5  1  1  0
  6 10  1  0
  7 19  1  0
  7  6  2  0
  8  3  1  0
  9  4  1  0
 11 19  1  0
 12 17  1  0
 13 14  1  0
 13 12  1  0
 15 14  1  0
 15 24  1  0
 15 16  1  0
 17 11  1  0
 17 16  1  0
 18 11  2  0
 19 20  1  0
 21 22  2  0
 22 41  1  0
 23 22  1  0
 23 26  1  0
 24 25  1  0
 24 21  1  0
 25 23  2  0
 26 27  1  0
 27 28  2  0
 29 32  1  0
 29 28  1  0
 30 29  2  0
 31 30  1  0
 31 26  2  0
 32 33  1  0
 33 38  2  0
 33 34  1  0
 34 35  2  0
 35 36  1  0
 36 40  1  0
 37 36  2  0
 38 37  1  0
 39 38  1  0
 41 42  1  0
 42 45  1  0
 42 44  1  0
 43 41  2  0
 46 21  1  0
 46 47  1  0
 48 46  1  0
 49 50  1  0
 50  1  1  0
 50 52  1  0
 51 49  2  0
 53 49  1  0
 53 54  1  0
 55 54  1  0
 56 67  2  0
 57 55  1  0
 57 62  1  0
 58 66  1  0
 58 68  1  0
 59 65  1  0
 59 61  1  0
 60 66  1  0
 61 60  1  0
 62 61  2  0
 63 64  1  0
 63 57  2  0
 64 59  2  0
 65 58  1  0
 66 56  1  0
 68 70  2  0
 69 68  1  0
 71 69  1  0
 72 81  2  0
 72 77  1  0
 73 69  1  0
 73 77  1  0
 74 73  1  0
 75 76  1  0
 75 74  1  0
 76 72  1  0
 77 78  2  0
 78 79  1  0
 80 79  2  0
 81 80  1  0
 82 56  1  0
 82 87  1  0
 82 83  1  0
 83 86  1  1
 83 84  1  0
 85 83  1  0
 87 90  1  0
 88 92  1  0
 88 87  1  0
 89 88  2  0
 92 91  1  0
 94 92  1  0
 94 95  1  0
 94 93  1  0
M  ISO  4  11 100  19 100  54 101  55 101
M  END
>  <TORSDO>  (24) 
F 20

>  <SCORE>  (24) 
-12.177

>  <name>  (24) 
23

>  <ligand_id>  (24) 
23

>  <original_smiles>  (24) 
[H]c1c([H])c([H])c2c(c1[H])C([H])([H])C([H])([H])C([H])([H])C2([H])N([H])C(=O)C1([H])N(C(=O)C([H])(N([H])C(=O)C([H])(N([H])C([H])([H])[H])C([H])([H])[H])C(C([H])([H])[H])(C([H])([H])[H])C([H])([H])[H])C([H])([H])c2c([H])c(OC([H])([H])C([H])([H])C(=O)N([H])C([H])([H])c3c(C([H])([H])[H])c(N([H])C(=O)N4C([H])([H])C([H])([H])C([H])([H])C([H])(n5nc(-c6c([H])c([H])c(Oc7c([H])c([H])c(F)c([H])c7F)c([H])c6[H])c(C(=O)N([H])[H])c5N([H])[H])C4([H])[H])c([H])c(C([H])([H])[H])c3C([H])([H])[H])c([H])c([H])c2C1([H])[H]

>  <smiles>  (24) 
[H]c1c([H])c([H])c2c(c1[H])C([H])([H])C([H])([H])C([H])([H])C2([H])N([H])C(=O)C1([H])N(C(=O)C([H])(N([H])C(=O)C([H])(N([H])C([H])([H])[H])C([H])([H])[H])C(C([H])([H])[H])(C([H])([H])[H])C([H])([H])[H])C([H])([H])c2c([H])c(OC([H])([H])C([H])([H])C(=O)N([H])C([H])([H])c3c(C([H])([H])[H])c(N([H])C(=O)N4C([H])([H])C([H])([H])C([H])([H])C([H])(n5nc(-c6c([H])c([H])c(Oc7c([H])c([H])c(F)c([H])c7F)c([H])c6[H])c(C(=O)N([H])[H])c5N([H])[H])C4([H])[H])c([H])c(C([H])([H])[H])c3C([H])([H])[H])c([H])c([H])c2C1([H])[H]

$$$$
24:0:0
     RDKit          3D

 94102  0  0  1  0  0  0  0  0999 V2000
  -28.3120  -17.0190   20.5980 C   0  0  0  0  0  3  0  0  0  0  0  0
  -27.5270  -18.0900   20.1410 C   0  0  0  0  0  0  0  0  0  0  0  0
  -29.4840  -19.5990   20.0900 C   0  0  0  0  0  0  0  0  0  0  0  0
  -29.6980  -17.1180   20.8080 C   0  0  0  0  0  0  0  0  0  0  0  0
  -28.0970  -19.3520   19.8620 C   0  0  0  0  0  0  0  0  0  0  0  0
  -30.2740  -18.4430   20.5630 C   0  0  0  0  0  0  0  0  0  0  0  0
  -26.0280  -17.8710   19.9850 C   0  0  0  0  0  1  0  0  0  0  0  0
  -27.0100  -20.5650   19.2620 Cl  0  0  0  0  0  0  0  0  0  0  0  0
  -31.9500  -18.6770   20.9070 Cl  0  0  0  0  0  0  0  0  0  0  0  0
  -30.9640  -14.7670   21.0840 C   0  0  0  0  0  0  0  0  0  0  0  0
  -30.9330  -12.3050   20.5670 C   0  0  0  0  0  2  0  0  0  0  0  0
  -30.2250  -12.0760   19.2100 C   0  0  0  0  0  2  0  0  0  0  0  0
  -28.6990  -11.9760   19.3900 C   0  0  0  0  0  2  0  0  0  0  0  0
  -28.1360  -13.1060   20.2910 C   0  0  0  0  0  3  0  0  0  0  0  0
  -28.9680  -13.2630   21.5860 C   0  0  0  0  0  2  0  0  0  0  0  0
  -30.3650  -13.5240   21.1960 N   0  0  0  0  0  0  0  0  0  0  0  0
  -32.1430  -14.8510   20.7290 O   0  0  0  0  0  0  0  0  0  0  0  0
  -30.2150  -15.8710   21.4500 N   0  0  0  0  0  0  0  0  0  0  0  0
  -29.5000  -15.5040   22.0580 H   0  0  0  0  0  0  0  0  0  0  0  0
  -25.7160  -13.8680   20.6860 C   0  0  0  0  0  0  0  0  0  0  0  0
  -24.5520  -13.1800   20.8850 C   0  0  0  0  0  0  0  0  0  0  0  0
  -24.9070  -11.7970   20.8560 C   0  0  0  0  0  0  0  0  0  0  0  0
  -26.7140  -12.9150   20.5700 N   0  0  0  0  0  0  0  0  0  0  0  0
  -26.2220  -11.6590   20.7260 N   0  0  0  0  0  0  0  0  0  0  0  0
  -24.0610  -10.5970   20.8840 C   0  0  0  0  0  0  0  0  0  0  0  0
  -24.3600   -9.5020   21.7230 C   0  0  0  0  0  3  0  0  0  0  0  0
  -23.5210   -8.3670   21.7460 C   0  0  0  0  0  3  0  0  0  0  0  0
  -22.3670   -8.3210   20.9260 C   0  0  0  0  0  0  0  0  0  0  0  0
  -22.0870   -9.4040   20.0760 C   0  0  0  0  0  3  0  0  0  0  0  0
  -22.9260  -10.5300   20.0500 C   0  0  0  0  0  3  0  0  0  0  0  0
  -21.5090   -7.2500   20.8650 O   0  0  0  0  0  0  0  0  0  0  0  0
  -21.4050   -6.3510   21.8960 C   0  0  0  0  0  0  0  0  0  0  0  0
  -21.0380   -6.7510   23.1990 C   0  0  0  0  0  3  0  0  0  0  0  0
  -20.8750   -5.7840   24.2110 C   0  0  0  0  0  3  0  0  0  0  0  0
  -21.0700   -4.4210   23.9230 C   0  0  0  0  0  0  0  0  0  0  0  0
  -21.4310   -4.0210   22.6250 C   0  0  0  0  0  3  0  0  0  0  0  0
  -21.5950   -4.9830   21.6130 C   0  0  0  0  0  0  0  0  0  0  0  0
  -21.9230   -4.5910   20.3580 F   0  0  0  0  0  0  0  0  0  0  0  0
  -20.9060   -3.4910   24.8920 F   0  0  0  0  0  0  0  0  0  0  0  0
  -23.1750  -13.7680   20.9870 C   0  0  0  0  0  0  0  0  0  0  0  0
  -22.2880  -13.1210   21.7360 N   0  0  0  0  0  0  0  0  0  0  0  0
  -22.8920  -14.8340   20.4420 O   0  0  0  0  0  0  0  0  0  0  0  0
  -22.5270  -12.2570   22.1980 H   0  0  0  0  0  0  0  0  0  0  0  0
  -21.3570  -13.4970   21.8480 H   0  0  0  0  0  0  0  0  0  0  0  0
  -26.0000  -15.2210   20.5620 N   0  0  0  0  0  0  0  0  0  0  0  0
  -25.2590  -15.9110   20.5380 H   0  0  0  0  0  0  0  0  0  0  0  0
  -26.8970  -15.5920   20.2740 H   0  0  0  0  0  0  0  0  0  0  0  0
  -30.0860  -21.0900   19.9020 C   0  0  0  0  0  2  0  0  0  0  0  0
  -29.4590  -23.7090   19.8450 C   0  0  0  0  0  0  0  0  0  0  0  0
  -29.2340  -22.3500   19.6490 N   0  0  0  0  0  0  0  0  0  0  0  0
  -30.5160  -24.0980   20.3460 O   0  0  0  0  0  0  0  0  0  0  0  0
  -28.3170  -22.1380   19.2740 H   0  0  0  0  0  0  0  0  0  0  0  0
  -28.3580  -24.8000   19.4040 C   0  0  0  0  0  2  0  0  0  0  0  0
  -28.5390  -26.2690   19.7280 O   0  0  0  0  0  0  0  0  0  0  0  0
  -24.2830  -31.3450   22.7610 C   0  0  0  0  0  0  0  0  0  0  0  0
  -27.4040  -27.1220   19.6330 C   0  0  0  0  0  0  0  0  0  0  0  0
  -23.3080  -30.0190   20.9250 C   0  0  0  0  0  3  0  0  0  0  0  0
  -24.9640  -28.6570   19.5250 C   0  0  0  0  0  0  0  0  0  0  0  0
  -25.8390  -30.4650   20.9970 C   0  0  0  0  0  2  0  0  0  0  0  0
  -26.0540  -29.1420   20.2600 C   0  0  0  0  0  0  0  0  0  0  0  0
  -27.2760  -28.3890   20.3020 C   0  0  0  0  0  3  0  0  0  0  0  0
  -26.2830  -26.7130   18.8700 C   0  0  0  0  0  3  0  0  0  0  0  0
  -25.0860  -27.4510   18.8210 C   0  0  0  0  0  3  0  0  0  0  0  0
  -23.6810  -29.4670   19.5250 C   0  0  0  0  0  2  0  0  0  0  0  0
  -24.4900  -30.6260   21.6190 N   0  0  0  0  0  0  0  0  0  0  0  0
  -23.1420  -31.5260   23.2140 O   0  0  0  0  0  0  0  0  0  0  0  0
  -22.6220  -28.9000   21.7460 C   0  0  0  0  0  0  0  0  0  0  0  0
  -21.3150  -28.6870   21.5100 N   0  0  0  0  0  0  0  0  0  0  0  0
  -23.2670  -28.2310   22.5570 O   0  0  0  0  0  0  0  0  0  0  0  0
  -20.8520  -29.2850   20.8400 H   0  0  0  0  0  0  0  0  0  0  0  0
  -17.9600  -27.3350   21.6790 C   0  0  0  0  0  0  0  0  0  0  0  0
  -20.4840  -27.6550   22.1380 C   0  0  0  0  0  3  0  0  0  0  0  0
  -20.6780  -26.2870   21.4460 C   0  0  0  0  0  2  0  0  0  0  0  0
  -19.6550  -26.0200   20.3370 C   0  0  0  0  0  2  0  0  0  0  0  0
  -18.2310  -26.0600   20.8990 C   0  0  0  0  0  2  0  0  0  0  0  0
  -19.0190  -28.0920   22.2470 C   0  0  0  0  0  0  0  0  0  0  0  0
  -18.7130  -29.2870   22.9340 C   0  0  0  0  0  3  0  0  0  0  0  0
  -17.3810  -29.7260   23.0580 C   0  0  0  0  0  3  0  0  0  0  0  0
  -16.3360  -28.9650   22.5050 C   0  0  0  0  0  3  0  0  0  0  0  0
  -16.6260  -27.7710   21.8210 C   0  0  0  0  0  3  0  0  0  0  0  0
  -25.4660  -31.9950   23.5420 C   0  0  0  0  0  3  0  0  0  0  0  0
  -25.8830  -31.1790   24.8280 C   0  0  1  0  0  0  0  0  0  0  0  0
  -24.6990  -30.8600   25.7720 C   0  0  0  0  0  1  0  0  0  0  0  0
  -26.5480  -29.8400   24.4370 C   0  0  0  0  0  1  0  0  0  0  0  0
  -26.9370  -31.9760   25.6330 C   0  0  0  0  0  1  0  0  0  0  0  0
  -25.0630  -33.3610   23.9060 N   0  0  0  0  0  0  0  0  0  0  0  0
  -25.4360  -34.4670   23.2470 C   0  0  0  0  0  0  0  0  0  0  0  0
  -26.2220  -34.4450   22.2950 O   0  0  0  0  0  0  0  0  0  0  0  0
  -24.3770  -33.4490   24.6410 H   0  0  0  0  0  0  0  0  0  0  0  0
  -23.6810  -36.2120   22.8020 C   0  0  0  0  0  1  0  0  0  0  0  0
  -24.8470  -35.8110   23.7190 C   0  0  0  0  0  3  0  0  0  0  0  0
  -26.8440  -36.7310   24.8140 C   0  0  0  0  0  1  0  0  0  0  0  0
  -25.8410  -36.9060   23.7660 N   0  0  0  0  0  0  0  0  0  0  0  0
  -25.3840  -37.8020   23.9100 H   0  0  0  0  0  0  0  0  0  0  0  0
  1  4  1  0
  2  1  2  0
  3  6  1  0
  4 18  1  0
  5  3  2  0
  5  2  1  0
  6  4  2  0
  6  9  1  0
  7  2  1  0
  8  5  1  0
 10 16  1  0
 10 18  1  0
 11 16  1  0
 12 13  1  0
 12 11  1  0
 14 13  1  0
 14 23  1  0
 14 15  1  0
 16 15  1  0
 17 10  2  0
 18 19  1  0
 20 21  2  0
 21 40  1  0
 22 25  1  0
 22 21  1  0
 23 20  1  0
 23 24  1  0
 24 22  2  0
 25 26  1  0
 26 27  2  0
 28 27  1  0
 29 28  2  0
 30 29  1  0
 30 25  2  0
 31 28  1  0
 31 32  1  0
 32 33  1  0
 33 34  2  0
 35 34  1  0
 35 39  1  0
 36 35  2  0
 37 32  2  0
 37 36  1  0
 38 37  1  0
 40 41  1  0
 41 44  1  0
 41 43  1  0
 42 40  2  0
 45 20  1  0
 46 45  1  0
 47 45  1  0
 48  3  1  0
 49 51  2  0
 50 49  1  0
 50 48  1  0
 52 50  1  0
 53 54  1  0
 53 49  1  0
 55 66  2  0
 56 54  1  0
 56 61  1  0
 57 65  1  0
 57 67  1  0
 58 60  1  0
 59 65  1  0
 60 61  2  0
 60 59  1  0
 62 56  2  0
 63 62  1  0
 63 58  2  0
 64 58  1  0
 64 57  1  0
 65 55  1  0
 67 69  2  0
 68 67  1  0
 70 68  1  0
 71 80  2  0
 71 76  1  0
 72 68  1  0
 72 76  1  0
 73 72  1  0
 74 75  1  0
 74 73  1  0
 75 71  1  0
 76 77  2  0
 77 78  1  0
 79 78  2  0
 80 79  1  0
 81 55  1  0
 81 86  1  0
 81 82  1  0
 82 85  1  1
 82 83  1  0
 84 82  1  0
 86 89  1  0
 87 91  1  0
 87 86  1  0
 88 87  2  0
 91 90  1  0
 91 93  1  0
 93 94  1  0
 93 92  1  0
M  ISO  4  10 100  18 100  53 101  54 101
M  END
>  <TORSDO>  (25) 
F 19

>  <SCORE>  (25) 
-11.072

>  <name>  (25) 
24

>  <ligand_id>  (25) 
24

>  <original_smiles>  (25) 
[H]c1c([H])c([H])c2c(c1[H])C([H])([H])C([H])([H])C([H])([H])C2([H])N([H])C(=O)C1([H])N(C(=O)C([H])(N([H])C(=O)C([H])(N([H])C([H])([H])[H])C([H])([H])[H])C(C([H])([H])[H])(C([H])([H])[H])C([H])([H])[H])C([H])([H])c2c([H])c(OC([H])([H])C(=O)N([H])C([H])([H])c3c(Cl)c(N([H])C(=O)N4C([H])([H])C([H])([H])C([H])([H])C([H])(n5nc(-c6c([H])c([H])c(Oc7c([H])c([H])c(F)c([H])c7F)c([H])c6[H])c(C(=O)N([H])[H])c5N([H])[H])C4([H])[H])c([H])c(C([H])([H])[H])c3Cl)c([H])c([H])c2C1([H])[H]

>  <smiles>  (25) 
[H]c1c([H])c([H])c2c(c1[H])C([H])([H])C([H])([H])C([H])([H])C2([H])N([H])C(=O)C1([H])N(C(=O)C([H])(N([H])C(=O)C([H])(N([H])C([H])([H])[H])C([H])([H])[H])C(C([H])([H])[H])(C([H])([H])[H])C([H])([H])[H])C([H])([H])c2c([H])c(OC([H])([H])C(=O)N([H])C([H])([H])c3c(Cl)c(N([H])C(=O)N4C([H])([H])C([H])([H])C([H])([H])C([H])(n5nc(-c6c([H])c([H])c(Oc7c([H])c([H])c(F)c([H])c7F)c([H])c6[H])c(C(=O)N([H])[H])c5N([H])[H])C4([H])[H])c([H])c(C([H])([H])[H])c3Cl)c([H])c([H])c2C1([H])[H]

$$$$
25:0:0
     RDKit          3D

 93101  0  0  1  0  0  0  0  0999 V2000
  -29.3380  -20.9780   19.1770 C   0  0  0  0  0  2  0  0  0  0  0  0
  -27.6870  -19.0940   19.7560 C   0  0  0  0  0  3  0  0  0  0  0  0
  -28.2360  -16.7190   20.1040 C   0  0  0  0  0  3  0  0  0  0  0  0
  -27.2880  -17.7570   19.9740 C   0  0  0  0  0  0  0  0  0  0  0  0
  -29.0430  -19.4520   19.6440 C   0  0  0  0  0  0  0  0  0  0  0  0
  -29.6300  -16.9400   20.0270 C   0  0  0  0  0  0  0  0  0  0  0  0
  -30.0150  -18.3450   19.7970 C   0  0  0  0  0  0  0  0  0  0  0  0
  -25.8110  -17.4280   20.0790 C   0  0  0  0  0  1  0  0  0  0  0  0
  -31.7020  -18.7130   19.7380 Cl  0  0  0  0  0  0  0  0  0  0  0  0
  -30.8720  -14.5580   19.8940 C   0  0  0  0  0  0  0  0  0  0  0  0
  -30.6670  -12.1080   19.3600 C   0  0  0  0  0  2  0  0  0  0  0  0
  -29.7570  -11.8600   18.1420 C   0  0  0  0  0  2  0  0  0  0  0  0
  -28.2820  -11.7680   18.5690 C   0  0  0  0  0  2  0  0  0  0  0  0
  -27.8750  -12.8890   19.5640 C   0  0  0  0  0  3  0  0  0  0  0  0
  -28.9150  -13.0870   20.6920 C   0  0  0  0  0  2  0  0  0  0  0  0
  -30.2120  -13.3450   20.0570 N   0  0  0  0  0  0  0  0  0  0  0  0
  -31.9870  -14.5340   19.3600 O   0  0  0  0  0  0  0  0  0  0  0  0
  -31.3130  -16.1150   21.6150 C   0  0  0  0  0  1  0  0  0  0  0  0
  -30.4390  -15.7520   20.4900 N   0  0  0  0  0  0  0  0  0  0  0  0
  -25.5390  -13.6160   20.3200 C   0  0  0  0  0  0  0  0  0  0  0  0
  -24.4340  -12.9120   20.7170 C   0  0  0  0  0  0  0  0  0  0  0  0
  -24.8140  -11.5360   20.6940 C   0  0  0  0  0  0  0  0  0  0  0  0
  -26.5260  -12.6760   20.0820 N   0  0  0  0  0  0  0  0  0  0  0  0
  -26.0980  -11.4180   20.3720 N   0  0  0  0  0  0  0  0  0  0  0  0
  -24.0140  -10.3210   20.9110 C   0  0  0  0  0  0  0  0  0  0  0  0
  -24.4010   -9.3410   21.8500 C   0  0  0  0  0  3  0  0  0  0  0  0
  -23.6050   -8.1940   22.0580 C   0  0  0  0  0  3  0  0  0  0  0  0
  -22.4050   -8.0190   21.3260 C   0  0  0  0  0  0  0  0  0  0  0  0
  -22.0370   -8.9860   20.3740 C   0  0  0  0  0  3  0  0  0  0  0  0
  -22.8340  -10.1240   20.1650 C   0  0  0  0  0  3  0  0  0  0  0  0
  -21.5820   -6.9240   21.4440 O   0  0  0  0  0  0  0  0  0  0  0  0
  -21.5100   -6.1980   22.6060 C   0  0  0  0  0  0  0  0  0  0  0  0
  -21.1440   -6.7920   23.8320 C   0  0  0  0  0  3  0  0  0  0  0  0
  -21.0140   -5.9960   24.9890 C   0  0  0  0  0  3  0  0  0  0  0  0
  -21.2390   -4.6090   24.9180 C   0  0  0  0  0  0  0  0  0  0  0  0
  -21.5970   -4.0140   23.6950 C   0  0  0  0  0  3  0  0  0  0  0  0
  -21.7290   -4.8070   22.5420 C   0  0  0  0  0  0  0  0  0  0  0  0
  -22.0520   -4.2250   21.3610 F   0  0  0  0  0  0  0  0  0  0  0  0
  -21.1080   -3.8440   26.0270 F   0  0  0  0  0  0  0  0  0  0  0  0
  -23.0720  -13.4740   21.0030 C   0  0  0  0  0  0  0  0  0  0  0  0
  -22.3230  -12.8360   21.8950 N   0  0  0  0  0  0  0  0  0  0  0  0
  -22.6840  -14.5140   20.4710 O   0  0  0  0  0  0  0  0  0  0  0  0
  -22.6490  -11.9930   22.3460 H   0  0  0  0  0  0  0  0  0  0  0  0
  -21.4070  -13.1890   22.1320 H   0  0  0  0  0  0  0  0  0  0  0  0
  -25.7830  -14.9700   20.1160 N   0  0  0  0  0  0  0  0  0  0  0  0
  -25.0620  -15.6770   20.2110 H   0  0  0  0  0  0  0  0  0  0  0  0
  -26.6610  -15.3420   19.7750 H   0  0  0  0  0  0  0  0  0  0  0  0
  -28.2720  -23.4010   19.8050 C   0  0  0  0  0  0  0  0  0  0  0  0
  -29.1520  -22.3170   19.9570 N   0  0  0  0  0  0  0  0  0  0  0  0
  -27.0880  -23.1700   19.5550 O   0  0  0  0  0  0  0  0  0  0  0  0
  -30.0340  -22.6190   20.3520 H   0  0  0  0  0  0  0  0  0  0  0  0
  -28.7540  -24.9640   19.7490 C   0  0  0  0  0  2  0  0  0  0  0  0
  -28.2520  -26.0600   20.6760 O   0  0  0  0  0  0  0  0  0  0  0  0
  -24.4940  -31.6880   23.3150 C   0  0  0  0  0  0  0  0  0  0  0  0
  -27.1770  -26.9680   20.4620 C   0  0  0  0  0  0  0  0  0  0  0  0
  -23.3520  -30.2820   21.6380 C   0  0  0  0  0  3  0  0  0  0  0  0
  -24.8470  -28.6730   20.2990 C   0  0  0  0  0  0  0  0  0  0  0  0
  -25.9060  -30.5330   21.5870 C   0  0  0  0  0  2  0  0  0  0  0  0
  -25.9900  -29.1360   20.9590 C   0  0  0  0  0  0  0  0  0  0  0  0
  -27.1500  -28.2940   21.0330 C   0  0  0  0  0  3  0  0  0  0  0  0
  -26.0180  -26.5820   19.7590 C   0  0  0  0  0  3  0  0  0  0  0  0
  -24.8710  -27.4090   19.6830 C   0  0  0  0  0  3  0  0  0  0  0  0
  -23.6200  -29.5720   20.2810 C   0  0  0  0  0  2  0  0  0  0  0  0
  -24.6000  -30.8580   22.2350 N   0  0  0  0  0  0  0  0  0  0  0  0
  -23.3900  -31.9920   23.7890 O   0  0  0  0  0  0  0  0  0  0  0  0
  -22.6160  -29.3030   22.5840 C   0  0  0  0  0  0  0  0  0  0  0  0
  -21.2890  -29.1760   22.4170 N   0  0  0  0  0  0  0  0  0  0  0  0
  -23.2450  -28.6580   23.4280 O   0  0  0  0  0  0  0  0  0  0  0  0
  -20.8460  -29.7430   21.7070 H   0  0  0  0  0  0  0  0  0  0  0  0
  -17.8530  -28.1400   22.8720 C   0  0  0  0  0  0  0  0  0  0  0  0
  -20.4170  -28.2710   23.1680 C   0  0  0  0  0  3  0  0  0  0  0  0
  -20.4540  -26.8420   22.5740 C   0  0  0  0  0  2  0  0  0  0  0  0
  -19.3470  -26.5880   21.5450 C   0  0  0  0  0  2  0  0  0  0  0  0
  -17.9690  -26.7950   22.1740 C   0  0  0  0  0  2  0  0  0  0  0  0
  -19.0030  -28.8390   23.3240 C   0  0  0  0  0  0  0  0  0  0  0  0
  -18.8360  -30.1020   23.9330 C   0  0  0  0  0  3  0  0  0  0  0  0
  -17.5560  -30.6620   24.0960 C   0  0  0  0  0  3  0  0  0  0  0  0
  -16.4210  -29.9580   23.6560 C   0  0  0  0  0  3  0  0  0  0  0  0
  -16.5720  -28.7000   23.0520 C   0  0  0  0  0  3  0  0  0  0  0  0
  -25.7520  -32.3130   23.9950 C   0  0  0  0  0  3  0  0  0  0  0  0
  -26.1600  -31.5910   25.3380 C   0  0  1  0  0  0  0  0  0  0  0  0
  -24.9880  -31.4170   26.3330 C   0  0  0  0  0  1  0  0  0  0  0  0
  -26.7420  -30.1880   25.0520 C   0  0  0  0  0  1  0  0  0  0  0  0
  -27.2730  -32.3990   26.0490 C   0  0  0  0  0  1  0  0  0  0  0  0
  -25.4620  -33.7350   24.2420 N   0  0  0  0  0  0  0  0  0  0  0  0
  -25.8680  -34.7450   23.4640 C   0  0  0  0  0  0  0  0  0  0  0  0
  -26.5910  -34.5780   22.4770 O   0  0  0  0  0  0  0  0  0  0  0  0
  -24.8160  -33.9370   24.9920 H   0  0  0  0  0  0  0  0  0  0  0  0
  -24.2110  -36.5710   22.9550 C   0  0  0  0  0  1  0  0  0  0  0  0
  -25.4020  -36.1670   23.8370 C   0  0  0  0  0  3  0  0  0  0  0  0
  -27.5220  -37.0290   24.7240 C   0  0  0  0  0  1  0  0  0  0  0  0
  -26.4680  -37.1860   23.7250 N   0  0  0  0  0  0  0  0  0  0  0  0
  -26.0820  -38.1220   23.8150 H   0  0  0  0  0  0  0  0  0  0  0  0
  1  5  1  0
  1 49  1  0
  2  4  1  0
  4  8  1  0
  4  3  2  0
  5  2  2  0
  5  7  1  0
  6  3  1  0
  6 19  1  0
  7  6  2  0
  9  7  1  0
 10 16  1  0
 10 19  1  0
 11 16  1  0
 12 13  1  0
 12 11  1  0
 14 13  1  0
 14 23  1  0
 14 15  1  0
 16 15  1  0
 17 10  2  0
 19 18  1  0
 20 21  2  0
 21 40  1  0
 22 21  1  0
 22 25  1  0
 23 20  1  0
 23 24  1  0
 24 22  2  0
 25 26  1  0
 26 27  2  0
 28 31  1  0
 28 27  1  0
 29 28  2  0
 30 29  1  0
 30 25  2  0
 31 32  1  0
 32 33  1  0
 33 34  2  0
 35 34  1  0
 35 39  1  0
 36 35  2  0
 37 32  2  0
 37 36  1  0
 38 37  1  0
 40 41  1  0
 41 44  1  0
 41 43  1  0
 42 40  2  0
 45 46  1  0
 45 20  1  0
 47 45  1  0
 48 49  1  0
 49 51  1  0
 50 48  2  0
 52 48  1  0
 52 53  1  0
 54 65  2  0
 55 53  1  0
 55 60  1  0
 56 64  1  0
 56 66  1  0
 57 59  1  0
 58 64  1  0
 59 60  2  0
 59 58  1  0
 61 55  2  0
 62 61  1  0
 62 57  2  0
 63 57  1  0
 63 56  1  0
 64 54  1  0
 66 68  2  0
 67 66  1  0
 69 67  1  0
 70 79  2  0
 70 75  1  0
 71 67  1  0
 71 75  1  0
 72 71  1  0
 73 74  1  0
 73 72  1  0
 74 70  1  0
 75 76  2  0
 76 77  1  0
 78 77  2  0
 79 78  1  0
 80 54  1  0
 80 85  1  0
 80 81  1  0
 81 84  1  1
 81 82  1  0
 83 81  1  0
 85 88  1  0
 86 90  1  0
 86 85  1  0
 87 86  2  0
 90 89  1  0
 92 93  1  0
 92 90  1  0
 92 91  1  0
M  ISO  4  10 100  19 100  52 101  53 101
M  END
>  <TORSDO>  (26) 
F 19

>  <SCORE>  (26) 
-13.993

>  <name>  (26) 
25

>  <ligand_id>  (26) 
25

>  <original_smiles>  (26) 
[H]c1c([H])c([H])c2c(c1[H])C([H])([H])C([H])([H])C([H])([H])C2([H])N([H])C(=O)C1([H])N(C(=O)C([H])(N([H])C(=O)C([H])(N([H])C([H])([H])[H])C([H])([H])[H])C(C([H])([H])[H])(C([H])([H])[H])C([H])([H])[H])C([H])([H])c2c([H])c(OC([H])([H])C(=O)N([H])C([H])([H])c3c([H])c(C([H])([H])[H])c([H])c(N(C(=O)N4C([H])([H])C([H])([H])C([H])([H])C([H])(n5nc(-c6c([H])c([H])c(Oc7c([H])c([H])c(F)c([H])c7F)c([H])c6[H])c(C(=O)N([H])[H])c5N([H])[H])C4([H])[H])C([H])([H])[H])c3Cl)c([H])c([H])c2C1([H])[H]

>  <smiles>  (26) 
[H]c1c([H])c([H])c2c(c1[H])C([H])([H])C([H])([H])C([H])([H])C2([H])N([H])C(=O)C1([H])N(C(=O)C([H])(N([H])C(=O)C([H])(N([H])C([H])([H])[H])C([H])([H])[H])C(C([H])([H])[H])(C([H])([H])[H])C([H])([H])[H])C([H])([H])c2c([H])c(OC([H])([H])C(=O)N([H])C([H])([H])c3c([H])c(C([H])([H])[H])c([H])c(N(C(=O)N4C([H])([H])C([H])([H])C([H])([H])C([H])(n5nc(-c6c([H])c([H])c(Oc7c([H])c([H])c(F)c([H])c7F)c([H])c6[H])c(C(=O)N([H])[H])c5N([H])[H])C4([H])[H])C([H])([H])[H])c3Cl)c([H])c([H])c2C1([H])[H]

$$$$
26:0:0
     RDKit          3D

 95103  0  0  1  0  0  0  0  0999 V2000
  -29.2080  -20.6770   21.2470 C   0  0  0  0  0  2  0  0  0  0  0  0
  -31.7060  -17.4910   19.5500 C   0  0  0  0  0  3  0  0  0  0  0  0
  -32.0670  -18.8420   19.4060 C   0  0  0  0  0  0  0  0  0  0  0  0
  -30.0400  -19.5300   20.6070 C   0  0  0  0  0  0  0  0  0  0  0  0
  -30.5440  -17.1000   20.2600 C   0  0  0  0  0  0  0  0  0  0  0  0
  -31.2500  -19.8560   19.9450 C   0  0  0  0  0  0  0  0  0  0  0  0
  -29.6990  -18.1410   20.7610 C   0  0  0  0  0  0  0  0  0  0  0  0
  -33.3610  -19.1900   18.6860 C   0  0  0  0  0  1  0  0  0  0  0  0
  -31.7730  -21.5040   19.7950 Cl  0  0  0  0  0  0  0  0  0  0  0  0
  -28.2540  -17.6780   21.5960 Cl  0  0  0  0  0  0  0  0  0  0  0  0
  -30.8880  -14.5830   20.1060 C   0  0  0  0  0  0  0  0  0  0  0  0
  -30.5140  -12.4450   18.9450 C   0  0  0  0  0  2  0  0  0  0  0  0
  -29.5470  -12.6950   17.7700 C   0  0  0  0  0  2  0  0  0  0  0  0
  -28.0860  -12.5530   18.2400 C   0  0  0  0  0  2  0  0  0  0  0  0
  -27.7920  -13.3490   19.5400 C   0  0  0  0  0  3  0  0  0  0  0  0
  -28.8840  -13.1230   20.6100 C   0  0  0  0  0  2  0  0  0  0  0  0
  -30.1830  -13.4230   19.9970 N   0  0  0  0  0  0  0  0  0  0  0  0
  -32.0600  -14.6430   19.7330 O   0  0  0  0  0  0  0  0  0  0  0  0
  -30.1930  -15.7000   20.4580 N   0  0  0  0  0  0  0  0  0  0  0  0
  -29.2740  -15.5390   20.8410 H   0  0  0  0  0  0  0  0  0  0  0  0
  -25.4100  -13.9260   20.3090 C   0  0  0  0  0  0  0  0  0  0  0  0
  -24.3600  -13.1430   20.7010 C   0  0  0  0  0  0  0  0  0  0  0  0
  -24.8340  -11.7960   20.6630 C   0  0  0  0  0  0  0  0  0  0  0  0
  -26.4590  -13.0560   20.0550 N   0  0  0  0  0  0  0  0  0  0  0  0
  -26.1190  -11.7700   20.3280 N   0  0  0  0  0  0  0  0  0  0  0  0
  -24.1250  -10.5260   20.8670 C   0  0  0  0  0  0  0  0  0  0  0  0
  -24.5340   -9.6000   21.8530 C   0  0  0  0  0  3  0  0  0  0  0  0
  -23.8230   -8.3960   22.0440 C   0  0  0  0  0  3  0  0  0  0  0  0
  -22.6890   -8.1090   21.2470 C   0  0  0  0  0  0  0  0  0  0  0  0
  -22.3010   -9.0210   20.2510 C   0  0  0  0  0  3  0  0  0  0  0  0
  -23.0130  -10.2170   20.0590 C   0  0  0  0  0  3  0  0  0  0  0  0
  -21.9520   -6.9530   21.3440 O   0  0  0  0  0  0  0  0  0  0  0  0
  -21.7950   -6.2980   22.5390 C   0  0  0  0  0  0  0  0  0  0  0  0
  -21.2220   -6.9280   23.6650 C   0  0  0  0  0  3  0  0  0  0  0  0
  -21.0160   -6.1970   24.8520 C   0  0  0  0  0  3  0  0  0  0  0  0
  -21.3700   -4.8360   24.9130 C   0  0  0  0  0  0  0  0  0  0  0  0
  -21.9360   -4.2050   23.7900 C   0  0  0  0  0  3  0  0  0  0  0  0
  -22.1450   -4.9330   22.6060 C   0  0  0  0  0  0  0  0  0  0  0  0
  -22.6700   -4.3150   21.5210 F   0  0  0  0  0  0  0  0  0  0  0  0
  -21.1650   -4.1310   26.0500 F   0  0  0  0  0  0  0  0  0  0  0  0
  -22.9640  -13.6050   21.0040 C   0  0  0  0  0  0  0  0  0  0  0  0
  -22.2640  -12.9010   21.8850 N   0  0  0  0  0  0  0  0  0  0  0  0
  -22.5040  -14.6250   20.4930 O   0  0  0  0  0  0  0  0  0  0  0  0
  -22.6510  -12.0750   22.3180 H   0  0  0  0  0  0  0  0  0  0  0  0
  -21.3280  -13.1900   22.1320 H   0  0  0  0  0  0  0  0  0  0  0  0
  -25.5590  -15.2980   20.1270 N   0  0  0  0  0  0  0  0  0  0  0  0
  -24.7930  -15.9480   20.2600 H   0  0  0  0  0  0  0  0  0  0  0  0
  -26.4020  -15.7450   19.7920 H   0  0  0  0  0  0  0  0  0  0  0  0
  -28.7870  -21.8020   20.3470 N   0  0  0  0  0  4  0  0  0  0  0  0
  -27.9750  -21.5050   19.8300 H   0  0  0  0  0  0  0  0  0  0  0  0
  -29.5430  -21.9560   19.6960 H   0  0  0  0  0  0  0  0  0  0  0  0
  -28.5040  -23.0990   21.0460 C   0  0  0  0  0  2  0  0  0  0  0  0
  -27.7340  -24.1900   20.2220 C   0  0  0  0  0  2  0  0  0  0  0  0
  -28.5530  -25.3010   19.4830 C   0  0  0  0  0  2  0  0  0  0  0  0
  -28.4720  -26.6480   20.0120 O   0  0  0  0  0  0  0  0  0  0  0  0
  -24.5930  -31.7620   23.1120 C   0  0  0  0  0  0  0  0  0  0  0  0
  -27.2930  -27.3780   19.9600 C   0  0  0  0  0  0  0  0  0  0  0  0
  -23.4130  -30.3870   21.4300 C   0  0  0  0  0  3  0  0  0  0  0  0
  -24.8890  -28.8940   19.9800 C   0  0  0  0  0  0  0  0  0  0  0  0
  -25.9400  -30.7630   21.2620 C   0  0  0  0  0  2  0  0  0  0  0  0
  -26.0410  -29.4060   20.5890 C   0  0  0  0  0  0  0  0  0  0  0  0
  -27.2420  -28.6550   20.5770 C   0  0  0  0  0  3  0  0  0  0  0  0
  -26.1190  -26.8930   19.3380 C   0  0  0  0  0  3  0  0  0  0  0  0
  -24.9250  -27.6380   19.3510 C   0  0  0  0  0  3  0  0  0  0  0  0
  -23.6400  -29.7440   20.0360 C   0  0  0  0  0  2  0  0  0  0  0  0
  -24.6660  -30.9860   21.9920 N   0  0  0  0  0  0  0  0  0  0  0  0
  -23.5050  -32.0110   23.6500 O   0  0  0  0  0  0  0  0  0  0  0  0
  -22.7650  -29.3390   22.3630 C   0  0  0  0  0  0  0  0  0  0  0  0
  -21.4410  -29.1550   22.2320 N   0  0  0  0  0  0  0  0  0  0  0  0
  -23.4510  -28.6950   23.1620 O   0  0  0  0  0  0  0  0  0  0  0  0
  -20.9490  -29.7250   21.5580 H   0  0  0  0  0  0  0  0  0  0  0  0
  -18.0660  -27.9580   22.7200 C   0  0  0  0  0  0  0  0  0  0  0  0
  -20.6280  -28.1950   22.9780 C   0  0  0  0  0  3  0  0  0  0  0  0
  -20.7190  -26.7840   22.3530 C   0  0  0  0  0  2  0  0  0  0  0  0
  -19.6060  -26.5020   21.3370 C   0  0  0  0  0  2  0  0  0  0  0  0
  -18.2300  -26.6330   21.9980 C   0  0  0  0  0  2  0  0  0  0  0  0
  -19.1910  -28.6990   23.1660 C   0  0  0  0  0  0  0  0  0  0  0  0
  -18.9840  -29.9430   23.8010 C   0  0  0  0  0  3  0  0  0  0  0  0
  -17.6820  -30.4460   23.9930 C   0  0  0  0  0  3  0  0  0  0  0  0
  -16.5710  -29.7010   23.5620 C   0  0  0  0  0  3  0  0  0  0  0  0
  -16.7640  -28.4580   22.9310 C   0  0  0  0  0  3  0  0  0  0  0  0
  -25.8680  -32.3910   23.7550 C   0  0  0  0  0  3  0  0  0  0  0  0
  -25.5430  -33.7810   24.1040 N   0  0  0  0  0  0  0  0  0  0  0  0
  -25.8820  -34.8500   23.3690 C   0  0  0  0  0  0  0  0  0  0  0  0
  -26.5700  -34.7690   22.3470 O   0  0  0  0  0  0  0  0  0  0  0  0
  -24.9220  -33.9150   24.8880 H   0  0  0  0  0  0  0  0  0  0  0  0
  -24.1530  -36.6460   23.0150 C   0  0  0  0  0  1  0  0  0  0  0  0
  -25.3800  -36.2270   23.8430 C   0  0  0  0  0  3  0  0  0  0  0  0
  -27.4910  -37.1070   24.7370 C   0  0  0  0  0  1  0  0  0  0  0  0
  -26.4100  -37.2850   23.7710 N   0  0  0  0  0  0  0  0  0  0  0  0
  -25.9960  -38.2000   23.9240 H   0  0  0  0  0  0  0  0  0  0  0  0
  -26.3820  -31.6010   25.0200 C   0  0  1  0  0  0  0  0  0  0  0  0
  -25.2830  -31.3300   26.0740 C   0  0  0  0  0  1  0  0  0  0  0  0
  -26.9820  -30.2370   24.6050 C   0  0  0  0  0  1  0  0  0  0  0  0
  -27.5200  -32.3910   25.7090 C   0  0  0  0  0  1  0  0  0  0  0  0
  2  5  1  0
  3  2  2  0
  3  6  1  0
  4  7  1  0
  4  1  1  0
  5 19  1  0
  5  7  2  0
  6  4  2  0
  7 10  1  0
  8  3  1  0
  9  6  1  0
 11 19  1  0
 12 17  1  0
 13 14  1  0
 13 12  1  0
 15 14  1  0
 15 24  1  0
 15 16  1  0
 17 11  1  0
 17 16  1  0
 18 11  2  0
 19 20  1  0
 21 22  2  0
 22 41  1  0
 23 22  1  0
 23 26  1  0
 24 21  1  0
 24 25  1  0
 25 23  2  0
 26 27  1  0
 27 28  2  0
 29 32  1  0
 29 28  1  0
 30 29  2  0
 31 30  1  0
 31 26  2  0
 32 33  1  0
 33 38  2  0
 33 34  1  0
 34 35  2  0
 35 36  1  0
 36 40  1  0
 37 36  2  0
 38 37  1  0
 39 38  1  0
 41 42  1  0
 42 45  1  0
 42 44  1  0
 43 41  2  0
 46 47  1  0
 46 21  1  0
 48 46  1  0
 49 52  1  0
 49  1  1  0
 50 49  1  0
 51 49  1  0
 53 52  1  0
 54 55  1  0
 54 53  1  0
 56 67  2  0
 57 55  1  0
 57 62  1  0
 58 66  1  0
 58 68  1  0
 59 65  1  0
 59 61  1  0
 60 66  1  0
 61 60  1  0
 62 61  2  0
 63 64  1  0
 63 57  2  0
 64 59  2  0
 65 58  1  0
 66 56  1  0
 68 70  2  0
 69 68  1  0
 71 69  1  0
 72 81  2  0
 72 77  1  0
 73 69  1  0
 73 77  1  0
 74 73  1  0
 75 76  1  0
 75 74  1  0
 76 72  1  0
 77 78  2  0
 78 79  1  0
 80 79  2  0
 81 80  1  0
 82 56  1  0
 82 83  1  0
 82 92  1  0
 83 86  1  0
 84 88  1  0
 84 83  1  0
 85 84  2  0
 88 87  1  0
 90 88  1  0
 90 91  1  0
 90 89  1  0
 92 95  1  1
 92 93  1  0
 94 92  1  0
M  ISO  4  11 100  19 100  54 101  55 101
M  END
>  <TORSDO>  (27) 
F 21

>  <SCORE>  (27) 
-11.886

>  <name>  (27) 
26

>  <ligand_id>  (27) 
26

>  <original_smiles>  (27) 
[H]c1c([H])c([H])c2c(c1[H])C([H])([H])C([H])([H])C([H])([H])C2([H])N([H])C(=O)C1([H])N(C(=O)C([H])(N([H])C(=O)C([H])(N([H])C([H])([H])[H])C([H])([H])[H])C(C([H])([H])[H])(C([H])([H])[H])C([H])([H])[H])C([H])([H])c2c([H])c(OC([H])([H])C([H])([H])C([H])([H])[N+]([H])([H])C([H])([H])c3c(Cl)c(N([H])C(=O)N4C([H])([H])C([H])([H])C([H])([H])C([H])(n5nc(-c6c([H])c([H])c(Oc7c([H])c([H])c(F)c([H])c7F)c([H])c6[H])c(C(=O)N([H])[H])c5N([H])[H])C4([H])[H])c([H])c(C([H])([H])[H])c3Cl)c([H])c([H])c2C1([H])[H]

>  <smiles>  (27) 
[H]c1c([H])c([H])c2c(c1[H])C([H])([H])C([H])([H])C([H])([H])C2([H])N([H])C(=O)C1([H])N(C(=O)C([H])(N([H])C(=O)C([H])(N([H])C([H])([H])[H])C([H])([H])[H])C(C([H])([H])[H])(C([H])([H])[H])C([H])([H])[H])C([H])([H])c2c([H])c(OC([H])([H])C([H])([H])C([H])([H])[N+]([H])([H])C([H])([H])c3c(Cl)c(N([H])C(=O)N4C([H])([H])C([H])([H])C([H])([H])C([H])(n5nc(-c6c([H])c([H])c(Oc7c([H])c([H])c(F)c([H])c7F)c([H])c6[H])c(C(=O)N([H])[H])c5N([H])[H])C4([H])[H])c([H])c(C([H])([H])[H])c3Cl)c([H])c([H])c2C1([H])[H]

$$$$
27:0:0
     RDKit          3D

101109  0  0  1  0  0  0  0  0999 V2000
  -29.1300  -21.2500   20.1160 N   0  0  0  0  0  4  0  0  0  0  0  0
  -29.6810  -21.2340   19.2730 H   0  0  0  0  0  0  0  0  0  0  0  0
  -29.6210  -21.8530   20.7560 H   0  0  0  0  0  0  0  0  0  0  0  0
  -26.8390  -21.8720   20.9680 C   0  0  0  0  0  1  0  0  0  0  0  0
  -27.1540  -21.1200   18.5930 C   0  0  0  0  0  1  0  0  0  0  0  0
  -27.8230  -21.8760   19.7710 C   0  0  2  0  0  0  0  0  0  0  0  0
  -28.0920  -23.3420   19.3370 C   0  0  0  0  0  0  0  0  0  0  0  0
  -28.5350  -24.2100   20.2630 N   0  0  0  0  0  0  0  0  0  0  0  0
  -27.8490  -23.6940   18.1830 O   0  0  0  0  0  0  0  0  0  0  0  0
  -28.7480  -23.8340   21.1780 H   0  0  0  0  0  0  0  0  0  0  0  0
  -28.3780  -25.6700   20.2380 C   0  0  0  0  0  2  0  0  0  0  0  0
  -28.8930  -26.4200   18.9820 C   0  0  0  0  0  2  0  0  0  0  0  0
  -28.6900  -27.8230   19.1410 O   0  0  0  0  0  0  0  0  0  0  0  0
  -24.3700  -31.6950   23.2160 C   0  0  0  0  0  0  0  0  0  0  0  0
  -27.3990  -28.2820   19.3070 C   0  0  0  0  0  0  0  0  0  0  0  0
  -23.2570  -30.3950   21.4290 C   0  0  0  0  0  3  0  0  0  0  0  0
  -24.8070  -29.3390   19.7010 C   0  0  0  0  0  0  0  0  0  0  0  0
  -25.6750  -31.1760   21.1610 C   0  0  0  0  0  2  0  0  0  0  0  0
  -25.9120  -29.9510   20.3040 C   0  0  0  0  0  0  0  0  0  0  0  0
  -27.2060  -29.4270   20.1080 C   0  0  0  0  0  3  0  0  0  0  0  0
  -26.2700  -27.6650   18.7150 C   0  0  0  0  0  3  0  0  0  0  0  0
  -24.9780  -28.1930   18.9080 C   0  0  0  0  0  3  0  0  0  0  0  0
  -23.4590  -29.9780   19.9470 C   0  0  0  0  0  2  0  0  0  0  0  0
  -24.4540  -31.0980   21.9950 N   0  0  0  0  0  0  0  0  0  0  0  0
  -23.3050  -31.7060   23.8500 O   0  0  0  0  0  0  0  0  0  0  0  0
  -22.8370  -29.1490   22.2390 C   0  0  0  0  0  0  0  0  0  0  0  0
  -21.5850  -28.7040   22.0440 N   0  0  0  0  0  0  0  0  0  0  0  0
  -23.6360  -28.5880   22.9930 O   0  0  0  0  0  0  0  0  0  0  0  0
  -20.9900  -29.2260   21.4170 H   0  0  0  0  0  0  0  0  0  0  0  0
  -18.6030  -26.6700   22.1490 C   0  0  0  0  0  0  0  0  0  0  0  0
  -20.9880  -27.5230   22.6630 C   0  0  0  0  0  3  0  0  0  0  0  0
  -21.4880  -26.2220   21.9940 C   0  0  0  0  0  2  0  0  0  0  0  0
  -20.5730  -25.7340   20.8660 C   0  0  0  0  0  2  0  0  0  0  0  0
  -19.1600  -25.4730   21.3970 C   0  0  0  0  0  2  0  0  0  0  0  0
  -19.4610  -27.6390   22.7320 C   0  0  0  0  0  0  0  0  0  0  0  0
  -18.8920  -28.7500   23.3930 C   0  0  0  0  0  3  0  0  0  0  0  0
  -17.4940  -28.8990   23.4760 C   0  0  0  0  0  3  0  0  0  0  0  0
  -16.6490  -27.9280   22.9100 C   0  0  0  0  0  3  0  0  0  0  0  0
  -17.2030  -26.8150   22.2540 C   0  0  0  0  0  3  0  0  0  0  0  0
  -25.5970  -32.4130   23.8630 C   0  0  0  0  0  3  0  0  0  0  0  0
  -25.2000  -33.8000   24.1400 N   0  0  0  0  0  0  0  0  0  0  0  0
  -25.5560  -34.8540   23.3930 C   0  0  0  0  0  0  0  0  0  0  0  0
  -26.3200  -34.7650   22.4270 O   0  0  0  0  0  0  0  0  0  0  0  0
  -24.5330  -33.9410   24.8850 H   0  0  0  0  0  0  0  0  0  0  0  0
  -23.8120  -36.5750   22.8300 C   0  0  0  0  0  1  0  0  0  0  0  0
  -24.9700  -36.2260   23.7790 C   0  0  0  0  0  3  0  0  0  0  0  0
  -26.9660  -37.1960   24.8280 C   0  0  0  0  0  1  0  0  0  0  0  0
  -25.9680  -37.3160   23.7680 N   0  0  0  0  0  0  0  0  0  0  0  0
  -25.5150  -38.2210   23.8620 H   0  0  0  0  0  0  0  0  0  0  0  0
  -26.1130  -31.7040   25.1760 C   0  0  1  0  0  0  0  0  0  0  0  0
  -24.9970  -31.4180   26.2070 C   0  0  0  0  0  1  0  0  0  0  0  0
  -26.7960  -30.3590   24.8370 C   0  0  0  0  0  1  0  0  0  0  0  0
  -27.1860  -32.5820   25.8600 C   0  0  0  0  0  1  0  0  0  0  0  0
  -29.0690  -19.8820   20.6970 C   0  0  0  0  0  2  0  0  0  0  0  0
  -32.8800  -17.7660   20.7120 C   0  0  0  0  0  3  0  0  0  0  0  0
  -32.6960  -18.8920   21.5310 C   0  0  0  0  0  0  0  0  0  0  0  0
  -30.5940  -17.9820   19.8640 C   0  0  0  0  0  0  0  0  0  0  0  0
  -30.4130  -19.1390   20.6770 C   0  0  0  0  0  0  0  0  0  0  0  0
  -31.8550  -17.3050   19.8500 C   0  0  0  0  0  0  0  0  0  0  0  0
  -31.4720  -19.5890   21.5050 C   0  0  0  0  0  0  0  0  0  0  0  0
  -33.8400  -19.3620   22.4120 C   0  0  0  0  0  1  0  0  0  0  0  0
  -29.4260  -17.4830   19.0080 C   0  0  0  0  0  1  0  0  0  0  0  0
  -31.2940  -20.9960   22.5030 Cl  0  0  0  0  0  0  0  0  0  0  0  0
  -32.8250  -15.1220   19.2470 C   0  0  0  0  0  0  0  0  0  0  0  0
  -32.3680  -12.7480   18.8810 C   0  0  0  0  0  2  0  0  0  0  0  0
  -31.3900  -12.6330   17.6960 C   0  0  0  0  0  2  0  0  0  0  0  0
  -29.9380  -12.6730   18.2070 C   0  0  0  0  0  2  0  0  0  0  0  0
  -29.6710  -13.8650   19.1660 C   0  0  0  0  0  3  0  0  0  0  0  0
  -30.7820  -14.0070   20.2330 C   0  0  0  0  0  2  0  0  0  0  0  0
  -32.0780  -14.0270   19.5430 N   0  0  0  0  0  0  0  0  0  0  0  0
  -34.0090  -15.0400   18.9090 O   0  0  0  0  0  0  0  0  0  0  0  0
  -32.2860  -16.6450   17.5010 C   0  0  0  0  0  1  0  0  0  0  0  0
  -32.1370  -16.2440   18.9170 N   0  0  0  0  0  0  0  0  0  0  0  0
  -27.4780  -14.7950   20.1410 C   0  0  0  0  0  0  0  0  0  0  0  0
  -26.3350  -14.1820   20.5790 C   0  0  0  0  0  0  0  0  0  0  0  0
  -26.5650  -12.7810   20.4370 C   0  0  0  0  0  0  0  0  0  0  0  0
  -28.3420  -13.7780   19.7690 N   0  0  0  0  0  0  0  0  0  0  0  0
  -27.8000  -12.5560   20.0070 N   0  0  0  0  0  0  0  0  0  0  0  0
  -25.6580  -11.6430   20.6360 C   0  0  0  0  0  0  0  0  0  0  0  0
  -25.9060  -10.6670   21.6270 C   0  0  0  0  0  3  0  0  0  0  0  0
  -25.0110   -9.5920   21.8140 C   0  0  0  0  0  3  0  0  0  0  0  0
  -23.8510   -9.4870   21.0090 C   0  0  0  0  0  0  0  0  0  0  0  0
  -23.6220  -10.4480   20.0100 C   0  0  0  0  0  3  0  0  0  0  0  0
  -24.5160  -11.5150   19.8210 C   0  0  0  0  0  3  0  0  0  0  0  0
  -22.9410   -8.4610   21.1000 O   0  0  0  0  0  0  0  0  0  0  0  0
  -22.5820   -7.9270   22.3110 C   0  0  0  0  0  0  0  0  0  0  0  0
  -22.0130   -8.7120   23.3350 C   0  0  0  0  0  3  0  0  0  0  0  0
  -21.5910   -8.1060   24.5360 C   0  0  0  0  0  3  0  0  0  0  0  0
  -21.7330   -6.7170   24.7110 C   0  0  0  0  0  0  0  0  0  0  0  0
  -22.2950   -5.9310   23.6890 C   0  0  0  0  0  3  0  0  0  0  0  0
  -22.7160   -6.5340   22.4920 C   0  0  0  0  0  0  0  0  0  0  0  0
  -23.2380   -5.7690   21.5030 F   0  0  0  0  0  0  0  0  0  0  0  0
  -21.3210   -6.1330   25.8620 F   0  0  0  0  0  0  0  0  0  0  0  0
  -25.0670  -14.8600   21.0080 C   0  0  0  0  0  0  0  0  0  0  0  0
  -24.3390  -14.2610   21.9430 N   0  0  0  0  0  0  0  0  0  0  0  0
  -24.7410  -15.9540   20.5500 O   0  0  0  0  0  0  0  0  0  0  0  0
  -24.6170  -13.3740   22.3340 H   0  0  0  0  0  0  0  0  0  0  0  0
  -23.4890  -14.6960   22.2680 H   0  0  0  0  0  0  0  0  0  0  0  0
  -27.8400  -16.1290   20.0080 N   0  0  0  0  0  0  0  0  0  0  0  0
  -27.1940  -16.8860   20.2030 H   0  0  0  0  0  0  0  0  0  0  0  0
  -28.7160  -16.4370   19.6140 H   0  0  0  0  0  0  0  0  0  0  0  0
  1 54  1  0
  1  3  1  0
  2  1  1  0
  6  5  1  6
  6  1  1  0
  6  4  1  0
  7  6  1  0
  7  8  1  0
  8 10  1  0
  9  7  2  0
 11  8  1  0
 12 13  1  0
 12 11  1  0
 13 15  1  0
 14 25  2  0
 15 20  1  0
 16 24  1  0
 16 26  1  0
 17 23  1  0
 17 19  1  0
 18 24  1  0
 19 18  1  0
 20 19  2  0
 21 22  1  0
 21 15  2  0
 22 17  2  0
 23 16  1  0
 24 14  1  0
 26 28  2  0
 27 26  1  0
 29 27  1  0
 30 39  2  0
 30 35  1  0
 31 27  1  0
 31 35  1  0
 32 31  1  0
 33 34  1  0
 33 32  1  0
 34 30  1  0
 35 36  2  0
 36 37  1  0
 38 37  2  0
 39 38  1  0
 40 14  1  0
 40 41  1  0
 40 50  1  0
 41 44  1  0
 42 46  1  0
 42 41  1  0
 43 42  2  0
 46 45  1  0
 48 46  1  0
 48 49  1  0
 48 47  1  0
 50 53  1  1
 50 51  1  0
 52 50  1  0
 55 56  1  0
 56 61  1  0
 57 58  2  0
 58 54  1  0
 58 60  1  0
 59 57  1  0
 59 55  2  0
 60 56  2  0
 60 63  1  0
 62 57  1  0
 64 70  1  0
 65 70  1  0
 66 67  1  0
 66 65  1  0
 68 67  1  0
 68 77  1  0
 68 69  1  0
 70 69  1  0
 71 64  2  0
 72 73  1  0
 73 64  1  0
 73 59  1  0
 74 75  2  0
 75 94  1  0
 76 75  1  0
 76 79  1  0
 77 78  1  0
 77 74  1  0
 78 76  2  0
 79 80  1  0
 80 81  2  0
 82 85  1  0
 82 81  1  0
 83 82  2  0
 84 83  1  0
 84 79  2  0
 85 86  1  0
 86 91  2  0
 86 87  1  0
 87 88  2  0
 88 89  1  0
 89 93  1  0
 90 89  2  0
 91 90  1  0
 92 91  1  0
 94 95  1  0
 95 98  1  0
 95 97  1  0
 96 94  2  0
 99 74  1  0
 99100  1  0
101 99  1  0
M  ISO  4  12 101  13 101  64 100  73 100
M  END
>  <TORSDO>  (28) 
F 22

>  <SCORE>  (28) 
-7.692

>  <name>  (28) 
27

>  <ligand_id>  (28) 
27

>  <original_smiles>  (28) 
[H]c1c([H])c([H])c2c(c1[H])C([H])([H])C([H])([H])C([H])([H])C2([H])N([H])C(=O)C1([H])N(C(=O)C([H])(N([H])C(=O)C([H])(N([H])C([H])([H])[H])C([H])([H])[H])C(C([H])([H])[H])(C([H])([H])[H])C([H])([H])[H])C([H])([H])c2c([H])c(OC([H])([H])C([H])([H])N([H])C(=O)C(C([H])([H])[H])(C([H])([H])[H])[N+]([H])([H])C([H])([H])c3c(Cl)c(C([H])([H])[H])c([H])c(N(C(=O)N4C([H])([H])C([H])([H])C([H])([H])C([H])(n5nc(-c6c([H])c([H])c(Oc7c([H])c([H])c(F)c([H])c7F)c([H])c6[H])c(C(=O)N([H])[H])c5N([H])[H])C4([H])[H])C([H])([H])[H])c3C([H])([H])[H])c([H])c([H])c2C1([H])[H]

>  <smiles>  (28) 
[H]c1c([H])c([H])c2c(c1[H])C([H])([H])C([H])([H])C([H])([H])C2([H])N([H])C(=O)C1([H])N(C(=O)C([H])(N([H])C(=O)C([H])(N([H])C([H])([H])[H])C([H])([H])[H])C(C([H])([H])[H])(C([H])([H])[H])C([H])([H])[H])C([H])([H])c2c([H])c(OC([H])([H])C([H])([H])N([H])C(=O)C(C([H])([H])[H])(C([H])([H])[H])[N+]([H])([H])C([H])([H])c3c(Cl)c(C([H])([H])[H])c([H])c(N(C(=O)N4C([H])([H])C([H])([H])C([H])([H])C([H])(n5nc(-c6c([H])c([H])c(Oc7c([H])c([H])c(F)c([H])c7F)c([H])c6[H])c(C(=O)N([H])[H])c5N([H])[H])C4([H])[H])C([H])([H])[H])c3C([H])([H])[H])c([H])c([H])c2C1([H])[H]

$$$$
28:0:0
     RDKit          3D

102109  0  0  1  0  0  0  0  0999 V2000
  -29.7110  -22.2420   19.8290 C   0  0  0  0  0  0  0  0  0  0  0  0
  -29.0550  -23.0130   17.5840 C   0  0  0  0  0  1  0  0  0  0  0  0
  -29.5810  -23.2800   18.9360 N   0  0  0  0  0  0  0  0  0  0  0  0
  -30.1820  -22.4040   20.9560 O   0  0  0  0  0  0  0  0  0  0  0  0
  -29.2070  -20.7850   19.4890 C   0  0  0  0  0  3  0  0  0  0  0  0
  -30.1090  -18.4120   19.8010 C   0  0  0  0  0  0  0  0  0  0  0  0
  -29.8960  -19.6840   20.2320 N   0  0  0  0  0  0  0  0  0  0  0  0
  -29.7680  -18.0460   18.6760 O   0  0  0  0  0  0  0  0  0  0  0  0
  -30.2080  -19.9290   21.1630 H   0  0  0  0  0  0  0  0  0  0  0  0
  -30.8000  -17.3810   20.7390 C   0  0  0  0  0  2  0  0  0  0  0  0
  -31.0830  -14.8970   20.1200 C   0  0  0  0  0  0  0  0  0  0  0  0
  -30.7870  -12.6780   19.0520 C   0  0  0  0  0  2  0  0  0  0  0  0
  -29.8290  -12.8170   17.8490 C   0  0  0  0  0  2  0  0  0  0  0  0
  -28.3570  -12.7020   18.2980 C   0  0  0  0  0  2  0  0  0  0  0  0
  -28.0360  -13.5820   19.5370 C   0  0  0  0  0  3  0  0  0  0  0  0
  -29.1060  -13.4140   20.6390 C   0  0  0  0  0  2  0  0  0  0  0  0
  -30.4150  -13.7090   20.0380 N   0  0  0  0  0  0  0  0  0  0  0  0
  -32.2320  -15.0330   19.6870 O   0  0  0  0  0  0  0  0  0  0  0  0
  -30.3700  -15.9610   20.5660 N   0  0  0  0  0  0  0  0  0  0  0  0
  -29.4030  -15.7790   20.7850 H   0  0  0  0  0  0  0  0  0  0  0  0
  -25.6690  -14.2370   20.2980 C   0  0  0  0  0  0  0  0  0  0  0  0
  -24.5860  -13.4900   20.6780 C   0  0  0  0  0  0  0  0  0  0  0  0
  -25.0100  -12.1290   20.6270 C   0  0  0  0  0  0  0  0  0  0  0  0
  -26.6870  -13.3320   20.0410 N   0  0  0  0  0  0  0  0  0  0  0  0
  -26.2940  -12.0570   20.2950 N   0  0  0  0  0  0  0  0  0  0  0  0
  -24.2500  -10.8850   20.8160 C   0  0  0  0  0  0  0  0  0  0  0  0
  -24.6840   -9.8790   21.7060 C   0  0  0  0  0  3  0  0  0  0  0  0
  -23.9270   -8.7000   21.8810 C   0  0  0  0  0  3  0  0  0  0  0  0
  -22.7180   -8.5220   21.1650 C   0  0  0  0  0  0  0  0  0  0  0  0
  -22.3030   -9.5150   20.2600 C   0  0  0  0  0  3  0  0  0  0  0  0
  -23.0630  -10.6840   20.0840 C   0  0  0  0  0  3  0  0  0  0  0  0
  -21.9280   -7.4010   21.2520 O   0  0  0  0  0  0  0  0  0  0  0  0
  -21.8690   -6.6490   22.3980 C   0  0  0  0  0  0  0  0  0  0  0  0
  -21.4890   -7.2080   23.6380 C   0  0  0  0  0  3  0  0  0  0  0  0
  -21.3770   -6.3850   24.7770 C   0  0  0  0  0  3  0  0  0  0  0  0
  -21.6320   -5.0050   24.6770 C   0  0  0  0  0  0  0  0  0  0  0  0
  -22.0050   -4.4460   23.4430 C   0  0  0  0  0  3  0  0  0  0  0  0
  -22.1210   -5.2660   22.3060 C   0  0  0  0  0  0  0  0  0  0  0  0
  -22.4590   -4.7160   21.1150 F   0  0  0  0  0  0  0  0  0  0  0  0
  -21.5180   -4.2130   25.7690 F   0  0  0  0  0  0  0  0  0  0  0  0
  -23.2070  -14.0060   20.9730 C   0  0  0  0  0  0  0  0  0  0  0  0
  -22.4810  -13.3460   21.8700 N   0  0  0  0  0  0  0  0  0  0  0  0
  -22.7820  -15.0330   20.4450 O   0  0  0  0  0  0  0  0  0  0  0  0
  -22.8360  -12.5160   22.3180 H   0  0  0  0  0  0  0  0  0  0  0  0
  -21.5570  -13.6770   22.1070 H   0  0  0  0  0  0  0  0  0  0  0  0
  -25.8660  -15.6030   20.1290 N   0  0  0  0  0  0  0  0  0  0  0  0
  -25.1060  -16.2640   20.2520 H   0  0  0  0  0  0  0  0  0  0  0  0
  -26.6990  -16.0290   19.7440 H   0  0  0  0  0  0  0  0  0  0  0  0
  -27.1590  -19.2170   19.8710 C   0  0  0  0  0  1  0  0  0  0  0  0
  -27.6560  -20.6560   19.6450 C   0  0  0  0  0  3  0  0  0  0  0  0
  -26.5470  -22.7230   20.4800 C   0  0  0  0  0  0  0  0  0  0  0  0
  -26.3590  -23.6420   21.6770 C   0  0  0  0  0  1  0  0  0  0  0  0
  -27.1510  -21.5460   20.6980 N   0  0  0  0  0  0  0  0  0  0  0  0
  -26.1880  -23.0940   19.3600 O   0  0  0  0  0  0  0  0  0  0  0  0
  -27.3860  -21.3060   21.6520 H   0  0  0  0  0  0  0  0  0  0  0  0
  -29.9170  -24.7410   19.1440 C   0  0  0  0  0  3  0  0  0  0  0  0
  -31.7700  -26.4600   18.7310 C   0  0  0  0  0  1  0  0  0  0  0  0
  -31.7930  -25.2930   20.9030 C   0  0  0  0  0  1  0  0  0  0  0  0
  -32.4200  -24.0730   18.7960 C   0  0  0  0  0  1  0  0  0  0  0  0
  -31.4400  -25.1070   19.4100 C   0  0  1  0  0  0  0  0  0  0  0  0
  -28.8380  -25.4850   20.0200 C   0  0  0  0  0  2  0  0  0  0  0  0
  -28.7460  -26.9170   19.7920 O   0  0  0  0  0  0  0  0  0  0  0  0
  -24.5550  -31.7000   23.1040 C   0  0  0  0  0  0  0  0  0  0  0  0
  -27.5090  -27.5460   19.8590 C   0  0  0  0  0  0  0  0  0  0  0  0
  -23.4510  -30.2880   21.3970 C   0  0  0  0  0  3  0  0  0  0  0  0
  -25.0130  -28.8960   19.9330 C   0  0  0  0  0  0  0  0  0  0  0  0
  -25.9490  -30.8140   21.2300 C   0  0  0  0  0  2  0  0  0  0  0  0
  -26.1330  -29.4740   20.5400 C   0  0  0  0  0  0  0  0  0  0  0  0
  -27.3860  -28.8100   20.4940 C   0  0  0  0  0  3  0  0  0  0  0  0
  -26.3620  -26.9860   19.2500 C   0  0  0  0  0  3  0  0  0  0  0  0
  -25.1190  -27.6500   19.2900 C   0  0  0  0  0  3  0  0  0  0  0  0
  -23.7160  -29.6690   19.9980 C   0  0  0  0  0  2  0  0  0  0  0  0
  -24.6680  -30.9490   21.9700 N   0  0  0  0  0  0  0  0  0  0  0  0
  -23.4560  -31.8820   23.6450 O   0  0  0  0  0  0  0  0  0  0  0  0
  -22.8530  -29.1950   22.3130 C   0  0  0  0  0  0  0  0  0  0  0  0
  -21.5350  -28.9640   22.1900 N   0  0  0  0  0  0  0  0  0  0  0  0
  -23.5730  -28.5590   23.0860 O   0  0  0  0  0  0  0  0  0  0  0  0
  -21.0090  -29.5350   21.5430 H   0  0  0  0  0  0  0  0  0  0  0  0
  -18.2260  -27.5800   22.6320 C   0  0  0  0  0  0  0  0  0  0  0  0
  -20.7700  -27.9470   22.9120 C   0  0  0  0  0  3  0  0  0  0  0  0
  -20.9410  -26.5550   22.2580 C   0  0  0  0  0  2  0  0  0  0  0  0
  -19.8510  -26.2320   21.2320 C   0  0  0  0  0  2  0  0  0  0  0  0
  -18.4670  -26.2790   21.8850 C   0  0  0  0  0  2  0  0  0  0  0  0
  -19.3090  -28.3720   23.0980 C   0  0  0  0  0  0  0  0  0  0  0  0
  -19.0320  -29.5940   23.7510 C   0  0  0  0  0  3  0  0  0  0  0  0
  -17.7060  -30.0220   23.9460 C   0  0  0  0  0  3  0  0  0  0  0  0
  -16.6380  -29.2230   23.5040 C   0  0  0  0  0  3  0  0  0  0  0  0
  -16.8990  -28.0050   22.8510 C   0  0  0  0  0  3  0  0  0  0  0  0
  -25.7960  -32.3800   23.7630 C   0  0  0  0  0  3  0  0  0  0  0  0
  -26.3020  -31.6350   25.0590 C   0  0  1  0  0  0  0  0  0  0  0  0
  -25.1890  -31.3820   26.1010 C   0  0  0  0  0  1  0  0  0  0  0  0
  -26.9250  -30.2680   24.6910 C   0  0  0  0  0  1  0  0  0  0  0  0
  -27.4170  -32.4620   25.7430 C   0  0  0  0  0  1  0  0  0  0  0  0
  -25.4330  -33.7700   24.0720 N   0  0  0  0  0  0  0  0  0  0  0  0
  -25.7650  -34.8260   23.3180 C   0  0  0  0  0  0  0  0  0  0  0  0
  -26.4810  -34.7380   22.3160 O   0  0  0  0  0  0  0  0  0  0  0  0
  -24.8110  -33.9150   24.8550 H   0  0  0  0  0  0  0  0  0  0  0  0
  -23.9960  -36.5550   22.8790 C   0  0  0  0  0  1  0  0  0  0  0  0
  -25.2160  -36.1990   23.7440 C   0  0  0  0  0  3  0  0  0  0  0  0
  -27.2810  -37.1650   24.6560 C   0  0  0  0  0  1  0  0  0  0  0  0
  -26.2150  -37.2840   23.6640 N   0  0  0  0  0  0  0  0  0  0  0  0
  -25.7710  -38.1900   23.7850 H   0  0  0  0  0  0  0  0  0  0  0  0
  1  4  2  0
  2  3  1  0
  3 56  1  0
  3  1  1  0
  5 50  1  0
  5  1  1  0
  5  7  1  0
  6  7  1  0
  6 10  1  0
  7  9  1  0
  8  6  2  0
 11 19  1  0
 12 17  1  0
 13 14  1  0
 13 12  1  0
 15 14  1  0
 15 24  1  0
 15 16  1  0
 17 11  1  0
 17 16  1  0
 18 11  2  0
 19 10  1  0
 19 20  1  0
 21 22  2  0
 22 41  1  0
 23 22  1  0
 23 26  1  0
 24 25  1  0
 24 21  1  0
 25 23  2  0
 26 27  1  0
 27 28  2  0
 29 32  1  0
 29 28  1  0
 30 29  2  0
 31 30  1  0
 31 26  2  0
 32 33  1  0
 33 34  1  0
 34 35  2  0
 36 35  1  0
 36 40  1  0
 37 36  2  0
 38 33  2  0
 38 37  1  0
 39 38  1  0
 41 42  1  0
 42 45  1  0
 42 44  1  0
 43 41  2  0
 46 47  1  0
 46 21  1  0
 48 46  1  0
 50 49  1  0
 50 53  1  0
 51 53  1  0
 51 52  1  0
 53 55  1  0
 54 51  2  0
 56 60  1  0
 56 61  1  0
 60 57  1  6
 59 60  1  0
 60 58  1  0
 62 64  1  0
 62 61  1  0
 63 74  2  0
 64 69  1  0
 65 73  1  0
 65 75  1  0
 66 72  1  0
 66 68  1  0
 67 73  1  0
 68 67  1  0
 69 68  2  0
 70 71  1  0
 70 64  2  0
 71 66  2  0
 72 65  1  0
 73 63  1  0
 75 77  2  0
 76 75  1  0
 78 76  1  0
 79 88  2  0
 79 84  1  0
 80 76  1  0
 80 84  1  0
 81 80  1  0
 82 83  1  0
 82 81  1  0
 83 79  1  0
 84 85  2  0
 85 86  1  0
 87 86  2  0
 88 87  1  0
 89 63  1  0
 89 94  1  0
 89 90  1  0
 90 93  1  1
 90 91  1  0
 92 90  1  0
 94 97  1  0
 95 99  1  0
 95 94  1  0
 96 95  2  0
 99 98  1  0
101 99  1  0
101102  1  0
101100  1  0
M  ISO  4  11 100  19 100  61 101  62 101
M  END
>  <TORSDO>  (29) 
F 24

>  <SCORE>  (29) 
-11.619

>  <name>  (29) 
28

>  <ligand_id>  (29) 
28

>  <original_smiles>  (29) 
[H]c1c([H])c([H])c2c(c1[H])C([H])([H])C([H])([H])C([H])([H])C2([H])N([H])C(=O)C1([H])N(C(=O)C([H])(N([H])C(=O)C([H])(N([H])C([H])([H])[H])C([H])([H])[H])C(C([H])([H])[H])(C([H])([H])[H])C([H])([H])[H])C([H])([H])c2c([H])c(OC([H])([H])C([H])(N(C(=O)C([H])(N([H])C(=O)C([H])([H])N([H])C(=O)N3C([H])([H])C([H])([H])C([H])([H])C([H])(n4nc(-c5c([H])c([H])c(Oc6c([H])c([H])c(F)c([H])c6F)c([H])c5[H])c(C(=O)N([H])[H])c4N([H])[H])C3([H])[H])C([H])(N([H])C(=O)C([H])([H])[H])C([H])([H])[H])C([H])([H])[H])C(C([H])([H])[H])(C([H])([H])[H])C([H])([H])[H])c([H])c([H])c2C1([H])[H]

>  <smiles>  (29) 
[H]c1c([H])c([H])c2c(c1[H])C([H])([H])C([H])([H])C([H])([H])C2([H])N([H])C(=O)C1([H])N(C(=O)C([H])(N([H])C(=O)C([H])(N([H])C([H])([H])[H])C([H])([H])[H])C(C([H])([H])[H])(C([H])([H])[H])C([H])([H])[H])C([H])([H])c2c([H])c(OC([H])([H])C([H])(N(C(=O)C([H])(N([H])C(=O)C([H])([H])N([H])C(=O)N3C([H])([H])C([H])([H])C([H])([H])C([H])(n4nc(-c5c([H])c([H])c(Oc6c([H])c([H])c(F)c([H])c6F)c([H])c5[H])c(C(=O)N([H])[H])c4N([H])[H])C3([H])[H])C([H])(N([H])C(=O)C([H])([H])[H])C([H])([H])[H])C([H])([H])[H])C(C([H])([H])[H])(C([H])([H])[H])C([H])([H])[H])c([H])c([H])c2C1([H])[H]

$$$$
29:0:0
     RDKit          3D

 92100  0  0  1  0  0  0  0  0999 V2000
  -30.5560  -20.6920   21.0700 C   0  0  0  0  0  3  0  0  0  0  0  0
  -31.3610  -19.6100   21.5050 C   0  0  0  0  0  0  0  0  0  0  0  0
  -29.3590  -20.5210   20.3420 C   0  0  0  0  0  0  0  0  0  0  0  0
  -29.9170  -17.8770   20.4730 C   0  0  0  0  0  0  0  0  0  0  0  0
  -31.0540  -18.2540   21.2240 C   0  0  0  0  0  0  0  0  0  0  0  0
  -29.0800  -19.0570   20.0580 C   0  0  0  0  0  0  0  0  0  0  0  0
  -32.5880  -19.9100   22.3460 C   0  0  0  0  0  1  0  0  0  0  0  0
  -31.8650  -17.3030   21.7470 F   0  0  0  0  0  0  0  0  0  0  0  0
  -27.9730  -18.7430   19.3430 F   0  0  0  0  0  0  0  0  0  0  0  0
  -30.4340  -15.1610   20.1590 C   0  0  0  0  0  0  0  0  0  0  0  0
  -30.3040  -12.8050   19.1820 C   0  0  0  0  0  2  0  0  0  0  0  0
  -29.3290  -12.7490   17.9830 C   0  0  0  0  0  2  0  0  0  0  0  0
  -27.8830  -12.5220   18.4650 C   0  0  0  0  0  2  0  0  0  0  0  0
  -27.5130  -13.4270   19.6700 C   0  0  0  0  0  3  0  0  0  0  0  0
  -28.6100  -13.4440   20.7530 C   0  0  0  0  0  2  0  0  0  0  0  0
  -29.8410  -13.8940   20.0930 N   0  0  0  0  0  0  0  0  0  0  0  0
  -31.6340  -15.2020   19.8640 O   0  0  0  0  0  0  0  0  0  0  0  0
  -29.6390  -16.3560   20.2720 N   0  0  0  0  0  0  0  0  0  0  0  0
  -28.6540  -16.1510   20.2390 H   0  0  0  0  0  0  0  0  0  0  0  0
  -25.1680  -13.9800   20.5230 C   0  0  0  0  0  0  0  0  0  0  0  0
  -24.1180  -13.1960   20.9100 C   0  0  0  0  0  0  0  0  0  0  0  0
  -24.5780  -11.8460   20.8210 C   0  0  0  0  0  0  0  0  0  0  0  0
  -26.1980  -13.1100   20.2140 N   0  0  0  0  0  0  0  0  0  0  0  0
  -25.8570  -11.8180   20.4610 N   0  0  0  0  0  0  0  0  0  0  0  0
  -23.8550  -10.5800   21.0010 C   0  0  0  0  0  0  0  0  0  0  0  0
  -24.2950   -9.6020   21.9190 C   0  0  0  0  0  3  0  0  0  0  0  0
  -23.5700   -8.4010   22.0870 C   0  0  0  0  0  3  0  0  0  0  0  0
  -22.3920   -8.1720   21.3370 C   0  0  0  0  0  0  0  0  0  0  0  0
  -21.9720   -9.1390   20.4080 C   0  0  0  0  0  3  0  0  0  0  0  0
  -22.6970  -10.3300   20.2370 C   0  0  0  0  0  3  0  0  0  0  0  0
  -21.6390   -7.0250   21.4170 O   0  0  0  0  0  0  0  0  0  0  0  0
  -21.5750   -6.2850   22.5700 C   0  0  0  0  0  0  0  0  0  0  0  0
  -21.0910   -6.8300   23.7790 C   0  0  0  0  0  3  0  0  0  0  0  0
  -20.9750   -6.0140   24.9230 C   0  0  0  0  0  3  0  0  0  0  0  0
  -21.3350   -4.6550   24.8580 C   0  0  0  0  0  0  0  0  0  0  0  0
  -21.8100   -4.1090   23.6530 C   0  0  0  0  0  3  0  0  0  0  0  0
  -21.9290   -4.9210   22.5120 C   0  0  0  0  0  0  0  0  0  0  0  0
  -22.3690   -4.3860   21.3480 F   0  0  0  0  0  0  0  0  0  0  0  0
  -21.2170   -3.8680   25.9540 F   0  0  0  0  0  0  0  0  0  0  0  0
  -22.7320  -13.6670   21.2410 C   0  0  0  0  0  0  0  0  0  0  0  0
  -22.0300  -12.9440   22.1060 N   0  0  0  0  0  0  0  0  0  0  0  0
  -22.2830  -14.7110   20.7700 O   0  0  0  0  0  0  0  0  0  0  0  0
  -22.4080  -12.1000   22.5100 H   0  0  0  0  0  0  0  0  0  0  0  0
  -21.1000  -13.2400   22.3690 H   0  0  0  0  0  0  0  0  0  0  0  0
  -25.3220  -15.3560   20.3800 N   0  0  0  0  0  0  0  0  0  0  0  0
  -24.5480  -15.9920   20.5400 H   0  0  0  0  0  0  0  0  0  0  0  0
  -26.1280  -15.8140   19.9770 H   0  0  0  0  0  0  0  0  0  0  0  0
  -27.1550  -21.5890   19.8570 C   0  0  0  0  0  1  0  0  0  0  0  0
  -28.5930  -21.7920   20.0240 N   0  0  0  0  0  0  0  0  0  0  0  0
  -28.9520  -23.3060   20.3560 C   0  0  0  0  0  3  0  0  0  0  0  0
  -28.0260  -24.6910   19.9290 C   0  0  0  0  0  3  0  0  0  0  0  0
  -28.2600  -26.2230   20.2550 O   0  0  0  0  0  0  0  0  0  0  0  0
  -24.6340  -31.9410   23.2790 C   0  0  0  0  0  0  0  0  0  0  0  0
  -27.2180  -27.2350   20.1890 C   0  0  0  0  0  0  0  0  0  0  0  0
  -23.4390  -30.5620   21.6230 C   0  0  0  0  0  3  0  0  0  0  0  0
  -24.8930  -29.0060   20.1760 C   0  0  0  0  0  0  0  0  0  0  0  0
  -25.9960  -30.8250   21.4660 C   0  0  0  0  0  2  0  0  0  0  0  0
  -26.0730  -29.4370   20.7940 C   0  0  0  0  0  0  0  0  0  0  0  0
  -27.2340  -28.5690   20.7820 C   0  0  0  0  0  3  0  0  0  0  0  0
  -26.0110  -26.9190   19.5240 C   0  0  0  0  0  3  0  0  0  0  0  0
  -24.8780  -27.7640   19.5240 C   0  0  0  0  0  3  0  0  0  0  0  0
  -23.6640  -29.9020   20.2360 C   0  0  0  0  0  2  0  0  0  0  0  0
  -24.7100  -31.1310   22.1780 N   0  0  0  0  0  0  0  0  0  0  0  0
  -23.5450  -32.2160   23.8100 O   0  0  0  0  0  0  0  0  0  0  0  0
  -22.7610  -29.5420   22.5730 C   0  0  0  0  0  0  0  0  0  0  0  0
  -21.4340  -29.3630   22.4400 N   0  0  0  0  0  0  0  0  0  0  0  0
  -23.4330  -28.9150   23.3960 O   0  0  0  0  0  0  0  0  0  0  0  0
  -20.9460  -29.9230   21.7540 H   0  0  0  0  0  0  0  0  0  0  0  0
  -18.0590  -28.1400   22.9260 C   0  0  0  0  0  0  0  0  0  0  0  0
  -20.6150  -28.4120   23.1990 C   0  0  0  0  0  3  0  0  0  0  0  0
  -20.7240  -26.9870   22.6090 C   0  0  0  0  0  2  0  0  0  0  0  0
  -19.6260  -26.6700   21.5890 C   0  0  0  0  0  2  0  0  0  0  0  0
  -18.2440  -26.8010   22.2320 C   0  0  0  0  0  2  0  0  0  0  0  0
  -19.1720  -28.9030   23.3660 C   0  0  0  0  0  0  0  0  0  0  0  0
  -18.9430  -30.1570   23.9750 C   0  0  0  0  0  3  0  0  0  0  0  0
  -17.6350  -30.6460   24.1470 C   0  0  0  0  0  3  0  0  0  0  0  0
  -16.5360  -29.8790   23.7230 C   0  0  0  0  0  3  0  0  0  0  0  0
  -16.7490  -28.6280   23.1170 C   0  0  0  0  0  3  0  0  0  0  0  0
  -25.9070  -32.5770   23.9150 C   0  0  0  0  0  3  0  0  0  0  0  0
  -26.3980  -31.8170   25.2090 C   0  0  1  0  0  0  0  0  0  0  0  0
  -25.2840  -31.5970   26.2600 C   0  0  0  0  0  1  0  0  0  0  0  0
  -26.9780  -30.4320   24.8460 C   0  0  0  0  0  1  0  0  0  0  0  0
  -27.5420  -32.6110   25.8830 C   0  0  0  0  0  1  0  0  0  0  0  0
  -25.6000  -33.9800   24.2340 N   0  0  0  0  0  0  0  0  0  0  0  0
  -25.9160  -35.0270   23.4600 C   0  0  0  0  0  0  0  0  0  0  0  0
  -26.5620  -34.9130   22.4150 O   0  0  0  0  0  0  0  0  0  0  0  0
  -25.0210  -34.1430   25.0440 H   0  0  0  0  0  0  0  0  0  0  0  0
  -24.1660  -36.8110   23.1490 C   0  0  0  0  0  1  0  0  0  0  0  0
  -25.4420  -36.4220   23.9160 C   0  0  0  0  0  3  0  0  0  0  0  0
  -27.5960  -37.3390   24.6550 C   0  0  0  0  0  1  0  0  0  0  0  0
  -26.4630  -37.4790   23.7450 N   0  0  0  0  0  0  0  0  0  0  0  0
  -26.0560  -38.3990   23.8860 H   0  0  0  0  0  0  0  0  0  0  0  0
  1  2  1  0
  2  7  1  0
  3  1  2  0
  4  5  1  0
  5  2  2  0
  5  8  1  0
  6  3  1  0
  6  4  2  0
  9  6  1  0
 10 18  1  0
 11 16  1  0
 12 13  1  0
 12 11  1  0
 14 13  1  0
 14 23  1  0
 14 15  1  0
 16 10  1  0
 16 15  1  0
 17 10  2  0
 18  4  1  0
 19 18  1  0
 20 21  2  0
 21 40  1  0
 22 21  1  0
 22 25  1  0
 23 24  1  0
 23 20  1  0
 24 22  2  0
 25 26  1  0
 26 27  2  0
 28 31  1  0
 28 27  1  0
 29 28  2  0
 30 29  1  0
 30 25  2  0
 31 32  1  0
 32 33  1  0
 33 34  2  0
 35 34  1  0
 35 39  1  0
 36 35  2  0
 37 32  2  0
 37 36  1  0
 38 37  1  0
 40 41  1  0
 41 44  1  0
 41 43  1  0
 42 40  2  0
 45 20  1  0
 45 46  1  0
 47 45  1  0
 48 49  1  0
 49  3  1  0
 49 50  1  0
 51 52  1  0
 51 50  2  0
 53 64  2  0
 54 52  1  0
 54 59  1  0
 55 63  1  0
 55 65  1  0
 56 62  1  0
 56 58  1  0
 57 63  1  0
 58 57  1  0
 59 58  2  0
 60 61  1  0
 60 54  2  0
 61 56  2  0
 62 55  1  0
 63 53  1  0
 65 67  2  0
 66 65  1  0
 68 66  1  0
 69 78  2  0
 69 74  1  0
 70 66  1  0
 70 74  1  0
 71 70  1  0
 72 73  1  0
 72 71  1  0
 73 69  1  0
 74 75  2  0
 75 76  1  0
 77 76  2  0
 78 77  1  0
 79 53  1  0
 79 84  1  0
 79 80  1  0
 80 83  1  1
 80 81  1  0
 82 80  1  0
 84 87  1  0
 85 89  1  0
 85 84  1  0
 86 85  2  0
 89 88  1  0
 91 92  1  0
 91 89  1  0
 91 90  1  0
M  ISO  4  10 100  18 100  51 101  52 101
M  END
>  <TORSDO>  (30) 
F 19

>  <SCORE>  (30) 
-15.237

>  <name>  (30) 
29

>  <ligand_id>  (30) 
29

>  <original_smiles>  (30) 
[H]c1c([H])c([H])c2c(c1[H])C([H])([H])C([H])([H])C([H])([H])C2([H])N([H])C(=O)C1([H])N(C(=O)C([H])(N([H])C(=O)C([H])(N([H])C([H])([H])[H])C([H])([H])[H])C(C([H])([H])[H])(C([H])([H])[H])C([H])([H])[H])C([H])([H])c2c([H])c(OC([H])([H])C([H])([H])N(c3c([H])c(C([H])([H])[H])c(F)c(N([H])C(=O)N4C([H])([H])C([H])([H])C([H])([H])C([H])(n5nc(-c6c([H])c([H])c(Oc7c([H])c([H])c(F)c([H])c7F)c([H])c6[H])c(C(=O)N([H])[H])c5N([H])[H])C4([H])[H])c3F)C([H])([H])[H])c([H])c([H])c2C1([H])[H]

>  <smiles>  (30) 
[H]c1c([H])c([H])c2c(c1[H])C([H])([H])C([H])([H])C([H])([H])C2([H])N([H])C(=O)C1([H])N(C(=O)C([H])(N([H])C(=O)C([H])(N([H])C([H])([H])[H])C([H])([H])[H])C(C([H])([H])[H])(C([H])([H])[H])C([H])([H])[H])C([H])([H])c2c([H])c(OC([H])([H])C([H])([H])N(c3c([H])c(C([H])([H])[H])c(F)c(N([H])C(=O)N4C([H])([H])C([H])([H])C([H])([H])C([H])(n5nc(-c6c([H])c([H])c(Oc7c([H])c([H])c(F)c([H])c7F)c([H])c6[H])c(C(=O)N([H])[H])c5N([H])[H])C4([H])[H])c3F)C([H])([H])[H])c([H])c([H])c2C1([H])[H]

$$$$
30:0:0
     RDKit          3D

 84 91  0  0  1  0  0  0  0  0999 V2000
  -28.9440  -22.3090   20.2530 C   0  0  0  0  0  0  0  0  0  0  0  0
  -27.3200  -20.4180   19.9170 C   0  0  0  0  0  1  0  0  0  0  0  0
  -28.7160  -20.7660   20.1670 N   0  0  0  0  0  0  0  0  0  0  0  0
  -30.1310  -22.5990   20.4280 O   0  0  0  0  0  0  0  0  0  0  0  0
  -27.8890  -23.8430   20.1640 C   0  0  0  0  0  2  0  0  0  0  0  0
  -28.1680  -25.5710   20.2760 O   0  0  0  0  0  0  0  0  0  0  0  0
  -24.6900  -31.8690   23.1880 C   0  0  0  0  0  0  0  0  0  0  0  0
  -27.2060  -26.7840   20.2240 C   0  0  0  0  0  0  0  0  0  0  0  0
  -23.5010  -30.4720   21.5500 C   0  0  0  0  0  3  0  0  0  0  0  0
  -24.9450  -28.8130   20.1530 C   0  0  0  0  0  0  0  0  0  0  0  0
  -26.0790  -30.6100   21.4310 C   0  0  0  0  0  2  0  0  0  0  0  0
  -26.1410  -29.1740   20.7840 C   0  0  0  0  0  0  0  0  0  0  0  0
  -27.2570  -28.1870   20.7860 C   0  0  0  0  0  3  0  0  0  0  0  0
  -25.9760  -26.6310   19.5360 C   0  0  0  0  0  3  0  0  0  0  0  0
  -24.8970  -27.5660   19.5080 C   0  0  0  0  0  3  0  0  0  0  0  0
  -23.7400  -29.7670   20.1850 C   0  0  0  0  0  2  0  0  0  0  0  0
  -24.7820  -31.0160   22.1100 N   0  0  0  0  0  0  0  0  0  0  0  0
  -23.5960  -32.1730   23.6950 O   0  0  0  0  0  0  0  0  0  0  0  0
  -22.7800  -29.5010   22.5230 C   0  0  0  0  0  0  0  0  0  0  0  0
  -21.4460  -29.3600   22.4000 N   0  0  0  0  0  0  0  0  0  0  0  0
  -23.4330  -28.8700   23.3600 O   0  0  0  0  0  0  0  0  0  0  0  0
  -20.9700  -29.9210   21.7070 H   0  0  0  0  0  0  0  0  0  0  0  0
  -18.0460  -28.1920   22.9260 C   0  0  0  0  0  0  0  0  0  0  0  0
  -20.6110  -28.4300   23.1720 C   0  0  0  0  0  3  0  0  0  0  0  0
  -20.6910  -26.9990   22.5940 C   0  0  0  0  0  2  0  0  0  0  0  0
  -19.5830  -26.6930   21.5840 C   0  0  0  0  0  2  0  0  0  0  0  0
  -18.2060  -26.8470   22.2380 C   0  0  0  0  0  2  0  0  0  0  0  0
  -19.1750  -28.9430   23.3510 C   0  0  0  0  0  0  0  0  0  0  0  0
  -18.9710  -30.1990   23.9610 C   0  0  0  0  0  3  0  0  0  0  0  0
  -17.6710  -30.7060   24.1470 C   0  0  0  0  0  3  0  0  0  0  0  0
  -16.5570  -29.9530   23.7350 C   0  0  0  0  0  3  0  0  0  0  0  0
  -16.7460  -28.6990   23.1300 C   0  0  0  0  0  3  0  0  0  0  0  0
  -25.9550  -32.5150   23.8320 C   0  0  0  0  0  3  0  0  0  0  0  0
  -26.4500  -31.7490   25.1200 C   0  0  1  0  0  0  0  0  0  0  0  0
  -25.3420  -31.5240   26.1760 C   0  0  0  0  0  1  0  0  0  0  0  0
  -27.0280  -30.3660   24.7520 C   0  0  0  0  0  1  0  0  0  0  0  0
  -27.5980  -32.5370   25.7930 C   0  0  0  0  0  1  0  0  0  0  0  0
  -25.6310  -33.9140   24.1730 N   0  0  0  0  0  0  0  0  0  0  0  0
  -25.9450  -34.9830   23.4280 C   0  0  0  0  0  0  0  0  0  0  0  0
  -26.5940  -34.8950   22.3840 O   0  0  0  0  0  0  0  0  0  0  0  0
  -25.0500  -34.0550   24.9860 H   0  0  0  0  0  0  0  0  0  0  0  0
  -24.1930  -36.7770   23.1610 C   0  0  0  0  0  1  0  0  0  0  0  0
  -25.4680  -36.3690   23.9170 C   0  0  0  0  0  3  0  0  0  0  0  0
  -27.6270  -37.2740   24.6700 C   0  0  0  0  0  1  0  0  0  0  0  0
  -26.4880  -37.4320   23.7680 N   0  0  0  0  0  0  0  0  0  0  0  0
  -26.0810  -38.3490   23.9320 H   0  0  0  0  0  0  0  0  0  0  0  0
  -29.6430  -19.2490   20.2180 C   0  0  0  0  0  3  0  0  0  0  0  0
  -29.3580  -17.3300   20.2580 C   0  0  0  0  0  3  0  0  0  0  0  0
  -30.2650  -15.6910   20.1490 C   0  0  0  0  0  0  0  0  0  0  0  0
  -30.4200  -13.1410   19.3540 C   0  0  0  0  0  2  0  0  0  0  0  0
  -29.5240  -12.7780   18.1330 C   0  0  0  0  0  2  0  0  0  0  0  0
  -28.1110  -12.3950   18.5960 C   0  0  0  0  0  2  0  0  0  0  0  0
  -27.5940  -13.3850   19.6640 C   0  0  0  0  0  3  0  0  0  0  0  0
  -28.6220  -13.6930   20.7740 C   0  0  0  0  0  2  0  0  0  0  0  0
  -29.8060  -14.3050   20.1340 N   0  0  0  0  0  0  0  0  0  0  0  0
  -31.4940  -15.6640   19.9380 O   0  0  0  0  0  0  0  0  0  0  0  0
  -25.2410  -13.8920   20.4650 C   0  0  0  0  0  0  0  0  0  0  0  0
  -24.1890  -13.1010   20.8290 C   0  0  0  0  0  0  0  0  0  0  0  0
  -24.6670  -11.7540   20.7760 C   0  0  0  0  0  0  0  0  0  0  0  0
  -26.2850  -13.0310   20.1940 N   0  0  0  0  0  0  0  0  0  0  0  0
  -25.9570  -11.7370   20.4470 N   0  0  0  0  0  0  0  0  0  0  0  0
  -23.9500  -10.4840   20.9570 C   0  0  0  0  0  0  0  0  0  0  0  0
  -24.3860   -9.5130   21.8840 C   0  0  0  0  0  3  0  0  0  0  0  0
  -23.6620   -8.3120   22.0560 C   0  0  0  0  0  3  0  0  0  0  0  0
  -22.4920   -8.0740   21.2970 C   0  0  0  0  0  0  0  0  0  0  0  0
  -22.0750   -9.0340   20.3590 C   0  0  0  0  0  3  0  0  0  0  0  0
  -22.7980  -10.2270   20.1870 C   0  0  0  0  0  3  0  0  0  0  0  0
  -21.7420   -6.9240   21.3750 O   0  0  0  0  0  0  0  0  0  0  0  0
  -21.6860   -6.1780   22.5240 C   0  0  0  0  0  0  0  0  0  0  0  0
  -21.2330   -6.7230   23.7450 C   0  0  0  0  0  3  0  0  0  0  0  0
  -21.1250   -5.9040   24.8850 C   0  0  0  0  0  3  0  0  0  0  0  0
  -21.4580   -4.5380   24.8070 C   0  0  0  0  0  0  0  0  0  0  0  0
  -21.9020   -3.9910   23.5890 C   0  0  0  0  0  3  0  0  0  0  0  0
  -22.0140   -4.8090   22.4520 C   0  0  0  0  0  0  0  0  0  0  0  0
  -22.4240   -4.2720   21.2780 F   0  0  0  0  0  0  0  0  0  0  0  0
  -21.3470   -3.7490   25.9000 F   0  0  0  0  0  0  0  0  0  0  0  0
  -22.7900  -13.5640   21.1080 C   0  0  0  0  0  0  0  0  0  0  0  0
  -22.0740  -12.8610   21.9770 N   0  0  0  0  0  0  0  0  0  0  0  0
  -22.3440  -14.5900   20.5940 O   0  0  0  0  0  0  0  0  0  0  0  0
  -22.4520  -12.0320   22.4130 H   0  0  0  0  0  0  0  0  0  0  0  0
  -21.1370  -13.1540   22.2080 H   0  0  0  0  0  0  0  0  0  0  0  0
  -25.3910  -15.2660   20.3100 N   0  0  0  0  0  0  0  0  0  0  0  0
  -24.6220  -15.9130   20.4460 H   0  0  0  0  0  0  0  0  0  0  0  0
  -26.2370  -15.7150   19.9880 H   0  0  0  0  0  0  0  0  0  0  0  0
  1  4  2  0
  2  3  1  0
  3 47  1  0
  3  1  1  0
  5  1  1  0
  5  6  1  0
  7 18  2  0
  8  6  1  0
  8 13  1  0
  9 17  1  0
  9 19  1  0
 10 16  1  0
 10 12  1  0
 11 17  1  0
 12 13  2  0
 12 11  1  0
 14  8  2  0
 15 14  1  0
 15 10  2  0
 16  9  1  0
 17  7  1  0
 19 21  2  0
 20 19  1  0
 22 20  1  0
 23 32  2  0
 23 28  1  0
 24 20  1  0
 24 28  1  0
 25 24  1  0
 26 27  1  0
 26 25  1  0
 27 23  1  0
 28 29  2  0
 29 30  1  0
 31 30  2  0
 32 31  1  0
 33  7  1  0
 33 38  1  0
 33 34  1  0
 34 37  1  1
 34 35  1  0
 36 34  1  0
 38 41  1  0
 39 43  1  0
 39 38  1  0
 40 39  2  0
 43 42  1  0
 45 43  1  0
 45 46  1  0
 45 44  1  0
 47 48  2  0
 49 48  1  0
 50 55  1  0
 51 52  1  0
 51 50  1  0
 53 52  1  0
 53 60  1  0
 53 54  1  0
 55 49  1  0
 55 54  1  0
 56 49  2  0
 57 58  2  0
 58 77  1  0
 59 58  1  0
 59 62  1  0
 60 61  1  0
 60 57  1  0
 61 59  2  0
 62 63  1  0
 63 64  2  0
 65 68  1  0
 65 64  1  0
 66 65  2  0
 67 66  1  0
 67 62  2  0
 68 69  1  0
 69 70  1  0
 70 71  2  0
 72 71  1  0
 72 76  1  0
 73 72  2  0
 74 69  2  0
 74 73  1  0
 75 74  1  0
 77 78  1  0
 78 81  1  0
 78 80  1  0
 79 77  2  0
 82 83  1  0
 82 57  1  0
 84 82  1  0
M  ISO  4   5 101   6 101  48 100  49 100
M  END
>  <TORSDO>  (31) 
F 19

>  <SCORE>  (31) 
-15.996

>  <name>  (31) 
30

>  <ligand_id>  (31) 
30

>  <original_smiles>  (31) 
[H]c1c([H])c([H])c2c(c1[H])C([H])([H])C([H])([H])C([H])([H])C2([H])N([H])C(=O)C1([H])N(C(=O)C([H])(N([H])C(=O)C([H])(N([H])C([H])([H])[H])C([H])([H])[H])C(C([H])([H])[H])(C([H])([H])[H])C([H])([H])[H])C([H])([H])c2c([H])c(OC([H])([H])C(=O)N(C([H])([H])[H])C([H])([H])C([H])([H])C(=O)N3C([H])([H])C([H])([H])C([H])([H])C([H])(n4nc(-c5c([H])c([H])c(Oc6c([H])c([H])c(F)c([H])c6F)c([H])c5[H])c(C(=O)N([H])[H])c4N([H])[H])C3([H])[H])c([H])c([H])c2C1([H])[H]

>  <smiles>  (31) 
[H]c1c([H])c([H])c2c(c1[H])C([H])([H])C([H])([H])C([H])([H])C2([H])N([H])C(=O)C1([H])N(C(=O)C([H])(N([H])C(=O)C([H])(N([H])C([H])([H])[H])C([H])([H])[H])C(C([H])([H])[H])(C([H])([H])[H])C([H])([H])[H])C([H])([H])c2c([H])c(OC([H])([H])C(=O)N(C([H])([H])[H])C([H])([H])C([H])([H])C(=O)N3C([H])([H])C([H])([H])C([H])([H])C([H])(n4nc(-c5c([H])c([H])c(Oc6c([H])c([H])c(F)c([H])c6F)c([H])c5[H])c(C(=O)N([H])[H])c4N([H])[H])C3([H])[H])c([H])c([H])c2C1([H])[H]

$$$$
31:0:0
     RDKit          3D

 93101  0  0  1  0  0  0  0  0999 V2000
  -31.1970  -18.1750   20.2310 C   0  0  0  0  0  3  0  0  0  0  0  0
  -28.8230  -17.9410   20.1150 C   0  0  0  0  0  3  0  0  0  0  0  0
  -31.0590  -19.5960   20.0050 C   0  0  0  0  0  0  0  0  0  0  0  0
  -29.7860  -20.2280   19.7940 C   0  0  0  0  0  0  0  0  0  0  0  0
  -30.0770  -17.2950   20.2720 C   0  0  0  0  0  0  0  0  0  0  0  0
  -28.6710  -19.3420   19.8900 C   0  0  0  0  0  0  0  0  0  0  0  0
  -32.3200  -20.4390   19.9620 C   0  0  0  0  0  1  0  0  0  0  0  0
  -30.8790  -14.7690   20.1360 C   0  0  0  0  0  0  0  0  0  0  0  0
  -30.6470  -12.4740   19.1710 C   0  0  0  0  0  2  0  0  0  0  0  0
  -29.6990  -12.5480   17.9530 C   0  0  0  0  0  2  0  0  0  0  0  0
  -28.2230  -12.4390   18.3880 C   0  0  0  0  0  2  0  0  0  0  0  0
  -27.8860  -13.3660   19.5850 C   0  0  0  0  0  3  0  0  0  0  0  0
  -28.9410  -13.2370   20.7060 C   0  0  0  0  0  2  0  0  0  0  0  0
  -30.2560  -13.5420   20.1170 N   0  0  0  0  0  0  0  0  0  0  0  0
  -32.0390  -14.8990   19.7350 O   0  0  0  0  0  0  0  0  0  0  0  0
  -30.0730  -15.8310   20.4840 N   0  0  0  0  0  0  0  0  0  0  0  0
  -29.1830  -15.4860   20.8110 H   0  0  0  0  0  0  0  0  0  0  0  0
  -25.5280  -14.0720   20.3250 C   0  0  0  0  0  0  0  0  0  0  0  0
  -24.4300  -13.3480   20.7020 C   0  0  0  0  0  0  0  0  0  0  0  0
  -24.8290  -11.9770   20.6600 C   0  0  0  0  0  0  0  0  0  0  0  0
  -26.5290  -13.1460   20.0780 N   0  0  0  0  0  0  0  0  0  0  0  0
  -26.1130  -11.8810   20.3410 N   0  0  0  0  0  0  0  0  0  0  0  0
  -24.0460  -10.7490   20.8480 C   0  0  0  0  0  0  0  0  0  0  0  0
  -24.4710   -9.7300   21.7290 C   0  0  0  0  0  3  0  0  0  0  0  0
  -23.6910   -8.5660   21.9070 C   0  0  0  0  0  3  0  0  0  0  0  0
  -22.4720   -8.4140   21.2040 C   0  0  0  0  0  0  0  0  0  0  0  0
  -22.0660   -9.4200   20.3100 C   0  0  0  0  0  3  0  0  0  0  0  0
  -22.8450  -10.5750   20.1310 C   0  0  0  0  0  3  0  0  0  0  0  0
  -21.6630   -7.3080   21.2950 O   0  0  0  0  0  0  0  0  0  0  0  0
  -21.6890   -6.4850   22.3930 C   0  0  0  0  0  0  0  0  0  0  0  0
  -21.4480   -6.9730   23.6960 C   0  0  0  0  0  3  0  0  0  0  0  0
  -21.4180   -6.0810   24.7870 C   0  0  0  0  0  3  0  0  0  0  0  0
  -21.6150   -4.7040   24.5760 C   0  0  0  0  0  0  0  0  0  0  0  0
  -21.8490   -4.2150   23.2780 C   0  0  0  0  0  3  0  0  0  0  0  0
  -21.8830   -5.1040   22.1900 C   0  0  0  0  0  0  0  0  0  0  0  0
  -22.0880   -4.6250   20.9380 F   0  0  0  0  0  0  0  0  0  0  0  0
  -21.5770   -3.8460   25.6220 F   0  0  0  0  0  0  0  0  0  0  0  0
  -23.0580  -13.8890   20.9850 C   0  0  0  0  0  0  0  0  0  0  0  0
  -22.3120  -13.2340   21.8700 N   0  0  0  0  0  0  0  0  0  0  0  0
  -22.6580  -14.9270   20.4600 O   0  0  0  0  0  0  0  0  0  0  0  0
  -22.6480  -12.3950   22.3180 H   0  0  0  0  0  0  0  0  0  0  0  0
  -21.3920  -13.5790   22.0990 H   0  0  0  0  0  0  0  0  0  0  0  0
  -25.7560  -15.4330   20.1460 N   0  0  0  0  0  0  0  0  0  0  0  0
  -25.0130  -16.1170   20.2400 H   0  0  0  0  0  0  0  0  0  0  0  0
  -26.5910  -15.8160   19.7240 H   0  0  0  0  0  0  0  0  0  0  0  0
  -27.0200  -20.8920   20.5310 C   0  0  0  0  0  1  0  0  0  0  0  0
  -27.3930  -19.8010   19.6970 O   0  0  0  0  0  0  0  0  0  0  0  0
  -29.5970  -21.7480   19.3170 C   0  0  0  0  0  2  0  0  0  0  0  0
  -29.5400  -24.1180   20.2470 C   0  0  0  0  0  0  0  0  0  0  0  0
  -30.0230  -24.9800   21.3960 C   0  0  0  0  0  1  0  0  0  0  0  0
  -29.8930  -22.8470   20.2850 N   0  0  0  0  0  0  0  0  0  0  0  0
  -28.6580  -24.9830   19.2490 C   0  0  0  0  0  2  0  0  0  0  0  0
  -28.6850  -26.4740   19.4430 O   0  0  0  0  0  0  0  0  0  0  0  0
  -24.6540  -31.4310   22.8290 C   0  0  0  0  0  0  0  0  0  0  0  0
  -27.5080  -27.2520   19.4420 C   0  0  0  0  0  0  0  0  0  0  0  0
  -23.5240  -30.0910   21.0880 C   0  0  0  0  0  3  0  0  0  0  0  0
  -25.0540  -28.7360   19.5450 C   0  0  0  0  0  0  0  0  0  0  0  0
  -26.0380  -30.5650   20.9250 C   0  0  0  0  0  2  0  0  0  0  0  0
  -26.1940  -29.2390   20.1860 C   0  0  0  0  0  0  0  0  0  0  0  0
  -27.4180  -28.5070   20.1300 C   0  0  0  0  0  3  0  0  0  0  0  0
  -26.3450  -26.8160   18.7680 C   0  0  0  0  0  3  0  0  0  0  0  0
  -25.1340  -27.5350   18.8260 C   0  0  0  0  0  3  0  0  0  0  0  0
  -23.7680  -29.5320   19.6590 C   0  0  0  0  0  2  0  0  0  0  0  0
  -24.7560  -30.7120   21.6710 N   0  0  0  0  0  0  0  0  0  0  0  0
  -23.5600  -31.5990   23.3880 O   0  0  0  0  0  0  0  0  0  0  0  0
  -22.9260  -28.9700   21.9720 C   0  0  0  0  0  0  0  0  0  0  0  0
  -21.6030  -28.7570   21.8710 N   0  0  0  0  0  0  0  0  0  0  0  0
  -23.6530  -28.2980   22.7090 O   0  0  0  0  0  0  0  0  0  0  0  0
  -21.0730  -29.3590   21.2570 H   0  0  0  0  0  0  0  0  0  0  0  0
  -18.2820  -27.4090   22.3730 C   0  0  0  0  0  0  0  0  0  0  0  0
  -20.8410  -27.7220   22.5750 C   0  0  0  0  0  3  0  0  0  0  0  0
  -20.9620  -26.3560   21.8610 C   0  0  0  0  0  2  0  0  0  0  0  0
  -19.8300  -26.0960   20.8610 C   0  0  0  0  0  2  0  0  0  0  0  0
  -18.4700  -26.1370   21.5640 C   0  0  0  0  0  2  0  0  0  0  0  0
  -19.3950  -28.1610   22.8360 C   0  0  0  0  0  0  0  0  0  0  0  0
  -19.1640  -29.3540   23.5540 C   0  0  0  0  0  3  0  0  0  0  0  0
  -17.8520  -29.7960   23.8140 C   0  0  0  0  0  3  0  0  0  0  0  0
  -16.7540  -29.0390   23.3680 C   0  0  0  0  0  3  0  0  0  0  0  0
  -16.9700  -27.8470   22.6530 C   0  0  0  0  0  3  0  0  0  0  0  0
  -25.9010  -32.0910   23.4930 C   0  0  0  0  0  3  0  0  0  0  0  0
  -26.4760  -31.2530   24.7000 C   0  0  1  0  0  0  0  0  0  0  0  0
  -25.4120  -30.8780   25.7570 C   0  0  0  0  0  1  0  0  0  0  0  0
  -27.1260  -29.9430   24.1970 C   0  0  0  0  0  1  0  0  0  0  0  0
  -27.5910  -32.0530   25.4120 C   0  0  0  0  0  1  0  0  0  0  0  0
  -25.5100  -33.4360   23.9400 N   0  0  0  0  0  0  0  0  0  0  0  0
  -25.8020  -34.5700   23.2910 C   0  0  0  0  0  0  0  0  0  0  0  0
  -26.5010  -34.5970   22.2730 O   0  0  0  0  0  0  0  0  0  0  0  0
  -24.8930  -33.4840   24.7370 H   0  0  0  0  0  0  0  0  0  0  0  0
  -23.9910  -36.3020   23.0530 C   0  0  0  0  0  1  0  0  0  0  0  0
  -25.2330  -35.8850   23.8580 C   0  0  0  0  0  3  0  0  0  0  0  0
  -27.3010  -36.8010   24.8200 C   0  0  0  0  0  1  0  0  0  0  0  0
  -26.2100  -36.9960   23.8680 N   0  0  0  0  0  0  0  0  0  0  0  0
  -25.7510  -37.8760   24.0890 H   0  0  0  0  0  0  0  0  0  0  0  0
  1  5  1  0
  2  5  2  0
  3  1  2  0
  4  6  2  0
  4  3  1  0
  5 16  1  0
  6  2  1  0
  7  3  1  0
  8 16  1  0
  9 14  1  0
 10 11  1  0
 10  9  1  0
 12 11  1  0
 12 21  1  0
 12 13  1  0
 14  8  1  0
 14 13  1  0
 15  8  2  0
 16 17  1  0
 18 19  2  0
 19 38  1  0
 20 19  1  0
 20 23  1  0
 21 18  1  0
 21 22  1  0
 22 20  2  0
 23 24  1  0
 24 25  2  0
 26 29  1  0
 26 25  1  0
 27 26  2  0
 28 27  1  0
 28 23  2  0
 29 30  1  0
 30 31  1  0
 31 32  2  0
 33 32  1  0
 33 37  1  0
 34 33  2  0
 35 30  2  0
 35 34  1  0
 36 35  1  0
 38 39  1  0
 39 42  1  0
 39 41  1  0
 40 38  2  0
 43 44  1  0
 43 18  1  0
 45 43  1  0
 47  6  1  0
 47 46  1  0
 48  4  1  0
 48 51  1  0
 49 51  2  0
 49 50  1  0
 52 53  1  0
 52 49  1  0
 54 65  2  0
 55 53  1  0
 55 60  1  0
 56 64  1  0
 56 66  1  0
 57 63  1  0
 57 59  1  0
 58 64  1  0
 59 58  1  0
 60 59  2  0
 61 62  1  0
 61 55  2  0
 62 57  2  0
 63 56  1  0
 64 54  1  0
 66 68  2  0
 67 66  1  0
 69 67  1  0
 70 79  2  0
 70 75  1  0
 71 67  1  0
 71 75  1  0
 72 71  1  0
 73 74  1  0
 73 72  1  0
 74 70  1  0
 75 76  2  0
 76 77  1  0
 78 77  2  0
 79 78  1  0
 80 54  1  0
 80 85  1  0
 80 81  1  0
 81 84  1  1
 81 82  1  0
 83 81  1  0
 85 88  1  0
 86 90  1  0
 86 85  1  0
 87 86  2  0
 90 89  1  0
 90 92  1  0
 92 93  1  0
 92 91  1  0
M  ISO  4   8 100  16 100  52 101  53 101
M  END
>  <TORSDO>  (32) 
F 20

>  <SCORE>  (32) 
-11.631

>  <name>  (32) 
31

>  <ligand_id>  (32) 
31

>  <original_smiles>  (32) 
[H]c1c([H])c([H])c2c(c1[H])C([H])([H])C([H])([H])C([H])([H])C2([H])N([H])C(=O)C1([H])N(C(=O)C([H])(N([H])C(=O)C([H])(N([H])C([H])([H])[H])C([H])([H])[H])C(C([H])([H])[H])(C([H])([H])[H])C([H])([H])[H])C([H])([H])c2c([H])c(OC([H])([H])C(=NC([H])([H])c3c(OC([H])([H])[H])c([H])c(N([H])C(=O)N4C([H])([H])C([H])([H])C([H])([H])C([H])(n5nc(-c6c([H])c([H])c(Oc7c([H])c([H])c(F)c([H])c7F)c([H])c6[H])c(C(=O)N([H])[H])c5N([H])[H])C4([H])[H])c([H])c3C([H])([H])[H])C([H])([H])[H])c([H])c([H])c2C1([H])[H]

>  <smiles>  (32) 
[H]c1c([H])c([H])c2c(c1[H])C([H])([H])C([H])([H])C([H])([H])C2([H])N([H])C(=O)C1([H])N(C(=O)C([H])(N([H])C(=O)C([H])(N([H])C([H])([H])[H])C([H])([H])[H])C(C([H])([H])[H])(C([H])([H])[H])C([H])([H])[H])C([H])([H])c2c([H])c(OC([H])([H])C(=NC([H])([H])c3c(OC([H])([H])[H])c([H])c(N([H])C(=O)N4C([H])([H])C([H])([H])C([H])([H])C([H])(n5nc(-c6c([H])c([H])c(Oc7c([H])c([H])c(F)c([H])c7F)c([H])c6[H])c(C(=O)N([H])[H])c5N([H])[H])C4([H])[H])c([H])c3C([H])([H])[H])C([H])([H])[H])c([H])c([H])c2C1([H])[H]

$$$$
32:0:0
     RDKit          3D

 88 96  0  0  1  0  0  0  0  0999 V2000
  -30.0810  -20.8880   19.9950 C   0  0  0  0  0  3  0  0  0  0  0  0
  -28.0030  -20.5040   19.8200 C   0  0  0  0  0  0  0  0  0  0  0  0
  -29.2600  -19.5900   19.9010 C   0  0  0  0  0  0  0  0  0  0  0  0
  -28.5410  -23.3720   19.9260 C   0  0  0  0  0  0  0  0  0  0  0  0
  -29.7900  -22.4590   20.0090 C   0  0  0  0  0  0  0  0  0  0  0  0
  -27.6960  -22.0830   19.8260 C   0  0  0  0  0  0  0  0  0  0  0  0
  -26.7310  -19.6760   19.7050 C   0  0  0  0  0  1  0  0  0  0  0  0
  -30.9320  -23.1800   20.1270 F   0  0  0  0  0  0  0  0  0  0  0  0
  -26.3750  -22.3710   19.7150 F   0  0  0  0  0  0  0  0  0  0  0  0
  -30.2770  -16.2480   19.7160 C   0  0  0  0  0  0  0  0  0  0  0  0
  -30.4970  -13.5900   18.8900 C   0  0  0  0  0  2  0  0  0  0  0  0
  -29.5750  -12.9520   17.7930 C   0  0  0  0  0  2  0  0  0  0  0  0
  -28.2450  -12.4670   18.3800 C   0  0  0  0  0  2  0  0  0  0  0  0
  -27.7380  -13.4750   19.4280 C   0  0  0  0  0  3  0  0  0  0  0  0
  -28.8170  -13.9880   20.4270 C   0  0  0  0  0  2  0  0  0  0  0  0
  -29.8320  -14.7870   19.6580 N   0  0  0  0  0  0  0  0  0  0  0  0
  -31.5070  -16.1300   19.4730 O   0  0  0  0  0  0  0  0  0  0  0  0
  -29.4710  -17.7090   19.8640 N   0  0  0  0  0  0  0  0  0  0  0  0
  -28.5400  -17.3490   20.0290 H   0  0  0  0  0  0  0  0  0  0  0  0
  -25.4760  -13.9210   20.4600 C   0  0  0  0  0  0  0  0  0  0  0  0
  -24.4570  -13.1180   20.8820 C   0  0  0  0  0  0  0  0  0  0  0  0
  -24.9190  -11.7750   20.7250 C   0  0  0  0  0  0  0  0  0  0  0  0
  -26.4910  -13.0740   20.0640 N   0  0  0  0  0  0  0  0  0  0  0  0
  -26.1770  -11.7670   20.2830 N   0  0  0  0  0  0  0  0  0  0  0  0
  -24.2020  -10.5020   20.9130 C   0  0  0  0  0  0  0  0  0  0  0  0
  -24.6540   -9.5250   21.8280 C   0  0  0  0  0  3  0  0  0  0  0  0
  -23.9320   -8.3260   22.0100 C   0  0  0  0  0  3  0  0  0  0  0  0
  -22.7420   -8.0940   21.2790 C   0  0  0  0  0  0  0  0  0  0  0  0
  -22.3090   -9.0590   20.3530 C   0  0  0  0  0  3  0  0  0  0  0  0
  -23.0320  -10.2500   20.1690 C   0  0  0  0  0  3  0  0  0  0  0  0
  -21.9910   -6.9460   21.3710 O   0  0  0  0  0  0  0  0  0  0  0  0
  -21.8780   -6.2510   22.5480 C   0  0  0  0  0  0  0  0  0  0  0  0
  -21.3350   -6.8390   23.7120 C   0  0  0  0  0  3  0  0  0  0  0  0
  -21.1740   -6.0680   24.8800 C   0  0  0  0  0  3  0  0  0  0  0  0
  -21.5460   -4.7100   24.8860 C   0  0  0  0  0  0  0  0  0  0  0  0
  -22.0810   -4.1220   23.7270 C   0  0  0  0  0  3  0  0  0  0  0  0
  -22.2440   -4.8890   22.5610 C   0  0  0  0  0  0  0  0  0  0  0  0
  -22.7400   -4.3110   21.4410 F   0  0  0  0  0  0  0  0  0  0  0  0
  -21.3850   -3.9670   26.0070 F   0  0  0  0  0  0  0  0  0  0  0  0
  -23.0940  -13.5780   21.3060 C   0  0  0  0  0  0  0  0  0  0  0  0
  -22.4560  -12.8500   22.2130 N   0  0  0  0  0  0  0  0  0  0  0  0
  -22.6100  -14.6220   20.8670 O   0  0  0  0  0  0  0  0  0  0  0  0
  -22.8660  -12.0070   22.5870 H   0  0  0  0  0  0  0  0  0  0  0  0
  -21.5460  -13.1390   22.5400 H   0  0  0  0  0  0  0  0  0  0  0  0
  -25.6170  -15.3010   20.3410 N   0  0  0  0  0  0  0  0  0  0  0  0
  -24.8570  -15.9400   20.5490 H   0  0  0  0  0  0  0  0  0  0  0  0
  -26.4070  -15.7550   19.9020 H   0  0  0  0  0  0  0  0  0  0  0  0
  -28.3670  -25.1140   19.9960 O   0  0  0  0  0  0  0  0  0  0  0  0
  -24.8790  -31.7770   23.0470 C   0  0  0  0  0  0  0  0  0  0  0  0
  -27.3880  -26.4480   20.0200 C   0  0  0  0  0  0  0  0  0  0  0  0
  -23.7000  -30.3860   21.4030 C   0  0  0  0  0  3  0  0  0  0  0  0
  -25.1460  -28.6890   19.9870 C   0  0  0  0  0  0  0  0  0  0  0  0
  -26.2910  -30.4380   21.3120 C   0  0  0  0  0  2  0  0  0  0  0  0
  -26.3480  -28.9750   20.6420 C   0  0  0  0  0  0  0  0  0  0  0  0
  -27.4320  -27.8940   20.6180 C   0  0  0  0  0  3  0  0  0  0  0  0
  -26.1480  -26.4640   19.3010 C   0  0  0  0  0  3  0  0  0  0  0  0
  -25.1050  -27.4640   19.2910 C   0  0  0  0  0  3  0  0  0  0  0  0
  -23.9520  -29.6770   20.0360 C   0  0  0  0  0  2  0  0  0  0  0  0
  -24.9850  -30.9080   21.9730 N   0  0  0  0  0  0  0  0  0  0  0  0
  -23.7810  -32.0840   23.5470 O   0  0  0  0  0  0  0  0  0  0  0  0
  -22.9590  -29.4270   22.3770 C   0  0  0  0  0  0  0  0  0  0  0  0
  -21.6280  -29.2620   22.2340 N   0  0  0  0  0  0  0  0  0  0  0  0
  -23.6000  -28.8230   23.2380 O   0  0  0  0  0  0  0  0  0  0  0  0
  -21.1540  -29.8000   21.5200 H   0  0  0  0  0  0  0  0  0  0  0  0
  -18.2450  -28.0090   22.7360 C   0  0  0  0  0  0  0  0  0  0  0  0
  -20.8020  -28.3160   22.9990 C   0  0  0  0  0  3  0  0  0  0  0  0
  -20.9220  -26.8860   22.4210 C   0  0  0  0  0  2  0  0  0  0  0  0
  -19.8270  -26.5540   21.4020 C   0  0  0  0  0  2  0  0  0  0  0  0
  -18.4420  -26.6700   22.0440 C   0  0  0  0  0  2  0  0  0  0  0  0
  -19.3520  -28.7880   23.1690 C   0  0  0  0  0  0  0  0  0  0  0  0
  -19.1060  -30.0340   23.7860 C   0  0  0  0  0  3  0  0  0  0  0  0
  -17.7920  -30.5040   23.9670 C   0  0  0  0  0  3  0  0  0  0  0  0
  -16.7020  -29.7240   23.5440 C   0  0  0  0  0  3  0  0  0  0  0  0
  -16.9290  -28.4770   22.9340 C   0  0  0  0  0  3  0  0  0  0  0  0
  -26.1270  -32.4400   23.7040 C   0  0  0  0  0  3  0  0  0  0  0  0
  -25.7820  -33.8300   24.0830 N   0  0  0  0  0  0  0  0  0  0  0  0
  -26.0700  -34.9270   23.3700 C   0  0  0  0  0  0  0  0  0  0  0  0
  -26.7020  -34.8780   22.3120 O   0  0  0  0  0  0  0  0  0  0  0  0
  -25.2080  -33.9390   24.9070 H   0  0  0  0  0  0  0  0  0  0  0  0
  -24.2870  -36.7060   23.1980 C   0  0  0  0  0  1  0  0  0  0  0  0
  -25.5880  -36.2940   23.9070 C   0  0  0  0  0  3  0  0  0  0  0  0
  -27.7400  -37.2270   24.6430 C   0  0  0  0  0  1  0  0  0  0  0  0
  -26.5900  -37.3740   23.7560 N   0  0  0  0  0  0  0  0  0  0  0  0
  -26.1710  -38.2840   23.9230 H   0  0  0  0  0  0  0  0  0  0  0  0
  -26.6380  -31.6630   24.9810 C   0  0  1  0  0  0  0  0  0  0  0  0
  -25.5360  -31.4010   26.0360 C   0  0  0  0  0  1  0  0  0  0  0  0
  -27.2410  -30.2940   24.5970 C   0  0  0  0  0  1  0  0  0  0  0  0
  -27.7740  -32.4610   25.6660 C   0  0  0  0  0  1  0  0  0  0  0  0
  1  5  1  0
  2  6  2  0
  2  3  1  0
  3  1  2  0
  4 48  1  0
  4  5  2  0
  5  8  1  0
  6  4  1  0
  7  2  1  0
  9  6  1  0
 10 18  1  0
 11 16  1  0
 12 13  1  0
 12 11  1  0
 14 13  1  0
 14 23  1  0
 14 15  1  0
 16 10  1  0
 16 15  1  0
 17 10  2  0
 18  3  1  0
 18 19  1  0
 20 21  2  0
 21 40  1  0
 22 21  1  0
 22 25  1  0
 23 24  1  0
 23 20  1  0
 24 22  2  0
 25 26  1  0
 26 27  2  0
 28 31  1  0
 28 27  1  0
 29 28  2  0
 30 29  1  0
 30 25  2  0
 31 32  1  0
 32 37  2  0
 32 33  1  0
 33 34  2  0
 34 35  1  0
 35 39  1  0
 36 35  2  0
 37 36  1  0
 38 37  1  0
 40 41  1  0
 41 44  1  0
 41 43  1  0
 42 40  2  0
 45 20  1  0
 45 46  1  0
 47 45  1  0
 48 50  1  0
 49 60  2  0
 50 55  1  0
 51 59  1  0
 51 61  1  0
 52 58  1  0
 52 54  1  0
 53 59  1  0
 54 53  1  0
 55 54  2  0
 56 50  2  0
 57 56  1  0
 57 52  2  0
 58 51  1  0
 59 49  1  0
 61 63  2  0
 62 61  1  0
 64 62  1  0
 65 74  2  0
 65 70  1  0
 66 62  1  0
 66 70  1  0
 67 66  1  0
 68 69  1  0
 68 67  1  0
 69 65  1  0
 70 71  2  0
 71 72  1  0
 73 72  2  0
 74 73  1  0
 75 49  1  0
 75 76  1  0
 75 85  1  0
 76 79  1  0
 77 81  1  0
 77 76  1  0
 78 77  2  0
 81 80  1  0
 83 81  1  0
 83 84  1  0
 83 82  1  0
 85 88  1  1
 85 86  1  0
 87 85  1  0
M  ISO  4   4 101  10 100  18 100  48 101
M  END
>  <TORSDO>  (33) 
F 16

>  <SCORE>  (33) 
-15.460

>  <name>  (33) 
32

>  <ligand_id>  (33) 
32

>  <original_smiles>  (33) 
[H]c1c([H])c([H])c2c(c1[H])C([H])([H])C([H])([H])C([H])([H])C2([H])N([H])C(=O)C1([H])N(C(=O)C([H])(N([H])C(=O)C([H])(N([H])C([H])([H])[H])C([H])([H])[H])C(C([H])([H])[H])(C([H])([H])[H])C([H])([H])[H])C([H])([H])c2c([H])c(Oc3c(F)c([H])c(N([H])C(=O)N4C([H])([H])C([H])([H])C([H])([H])C([H])(n5nc(-c6c([H])c([H])c(Oc7c([H])c([H])c(F)c([H])c7F)c([H])c6[H])c(C(=O)N([H])[H])c5N([H])[H])C4([H])[H])c(C([H])([H])[H])c3F)c([H])c([H])c2C1([H])[H]

>  <smiles>  (33) 
[H]c1c([H])c([H])c2c(c1[H])C([H])([H])C([H])([H])C([H])([H])C2([H])N([H])C(=O)C1([H])N(C(=O)C([H])(N([H])C(=O)C([H])(N([H])C([H])([H])[H])C([H])([H])[H])C(C([H])([H])[H])(C([H])([H])[H])C([H])([H])[H])C([H])([H])c2c([H])c(Oc3c(F)c([H])c(N([H])C(=O)N4C([H])([H])C([H])([H])C([H])([H])C([H])(n5nc(-c6c([H])c([H])c(Oc7c([H])c([H])c(F)c([H])c7F)c([H])c6[H])c(C(=O)N([H])[H])c5N([H])[H])C4([H])[H])c(C([H])([H])[H])c3F)c([H])c([H])c2C1([H])[H]

$$$$
33:0:0
     RDKit          3D

 93101  0  0  1  0  0  0  0  0999 V2000
  -31.3430  -18.0420   19.1740 C   0  0  0  0  0  3  0  0  0  0  0  0
  -29.6130  -19.6980   20.6570 C   0  0  0  0  0  0  0  0  0  0  0  0
  -30.5070  -17.4210   20.1390 C   0  0  0  0  0  0  0  0  0  0  0  0
  -30.4680  -20.3260   19.7070 C   0  0  0  0  0  0  0  0  0  0  0  0
  -31.3190  -19.4570   18.9600 C   0  0  0  0  0  0  0  0  0  0  0  0
  -29.6320  -18.2810   20.8510 C   0  0  0  0  0  0  0  0  0  0  0  0
  -28.6840  -20.5450   21.5140 C   0  0  0  0  0  1  0  0  0  0  0  0
  -32.1670  -19.9890   18.0460 F   0  0  0  0  0  0  0  0  0  0  0  0
  -28.8000  -17.7200   21.7620 F   0  0  0  0  0  0  0  0  0  0  0  0
  -31.1740  -14.9020   20.0960 C   0  0  0  0  0  0  0  0  0  0  0  0
  -30.9330  -12.5520   19.3150 C   0  0  0  0  0  2  0  0  0  0  0  0
  -30.0100  -12.5510   18.0760 C   0  0  0  0  0  2  0  0  0  0  0  0
  -28.5260  -12.4850   18.4920 C   0  0  0  0  0  2  0  0  0  0  0  0
  -28.1740  -13.5060   19.6050 C   0  0  0  0  0  3  0  0  0  0  0  0
  -29.2070  -13.4520   20.7540 C   0  0  0  0  0  2  0  0  0  0  0  0
  -30.5380  -13.6900   20.1700 N   0  0  0  0  0  0  0  0  0  0  0  0
  -32.3230  -15.0020   19.6530 O   0  0  0  0  0  0  0  0  0  0  0  0
  -30.4160  -15.9890   20.4260 N   0  0  0  0  0  0  0  0  0  0  0  0
  -29.5710  -15.7410   20.9220 H   0  0  0  0  0  0  0  0  0  0  0  0
  -25.8470  -14.2870   20.3750 C   0  0  0  0  0  0  0  0  0  0  0  0
  -24.7180  -13.5970   20.7240 C   0  0  0  0  0  0  0  0  0  0  0  0
  -25.0570  -12.2120   20.6300 C   0  0  0  0  0  0  0  0  0  0  0  0
  -26.8070  -13.3280   20.0920 N   0  0  0  0  0  0  0  0  0  0  0  0
  -26.3360  -12.0710   20.3030 N   0  0  0  0  0  0  0  0  0  0  0  0
  -24.2220  -11.0130   20.7740 C   0  0  0  0  0  0  0  0  0  0  0  0
  -24.6130   -9.9370   21.6010 C   0  0  0  0  0  3  0  0  0  0  0  0
  -23.7830   -8.8020   21.7370 C   0  0  0  0  0  3  0  0  0  0  0  0
  -22.5490   -8.7370   21.0470 C   0  0  0  0  0  0  0  0  0  0  0  0
  -22.1770   -9.8010   20.2080 C   0  0  0  0  0  3  0  0  0  0  0  0
  -23.0050  -10.9270   20.0680 C   0  0  0  0  0  3  0  0  0  0  0  0
  -21.6930   -7.6650   21.1000 O   0  0  0  0  0  0  0  0  0  0  0  0
  -21.7110   -6.7800   22.1480 C   0  0  0  0  0  0  0  0  0  0  0  0
  -21.5050   -7.1980   23.4820 C   0  0  0  0  0  3  0  0  0  0  0  0
  -21.4620   -6.2460   24.5200 C   0  0  0  0  0  3  0  0  0  0  0  0
  -21.6150   -4.8770   24.2280 C   0  0  0  0  0  0  0  0  0  0  0  0
  -21.8150   -4.4590   22.9000 C   0  0  0  0  0  3  0  0  0  0  0  0
  -21.8600   -5.4080   21.8630 C   0  0  0  0  0  0  0  0  0  0  0  0
  -22.0310   -4.9960   20.5840 F   0  0  0  0  0  0  0  0  0  0  0  0
  -21.5670   -3.9620   25.2230 F   0  0  0  0  0  0  0  0  0  0  0  0
  -23.3730  -14.1850   21.0360 C   0  0  0  0  0  0  0  0  0  0  0  0
  -22.6000  -13.5270   21.8940 N   0  0  0  0  0  0  0  0  0  0  0  0
  -23.0170  -15.2600   20.5540 O   0  0  0  0  0  0  0  0  0  0  0  0
  -22.9000  -12.6570   22.3040 H   0  0  0  0  0  0  0  0  0  0  0  0
  -21.6950  -13.9020   22.1430 H   0  0  0  0  0  0  0  0  0  0  0  0
  -26.1330  -15.6440   20.2540 N   0  0  0  0  0  0  0  0  0  0  0  0
  -25.4300  -16.3590   20.4090 H   0  0  0  0  0  0  0  0  0  0  0  0
  -27.0180  -16.0210   19.9430 H   0  0  0  0  0  0  0  0  0  0  0  0
  -30.5870  -21.7580   19.6350 N   0  0  0  0  0  0  0  0  0  0  0  0
  -30.8360  -22.1440   20.5410 H   0  0  0  0  0  0  0  0  0  0  0  0
  -29.6210  -22.6550   18.9330 C   0  0  0  0  0  2  0  0  0  0  0  0
  -29.8060  -24.2180   19.2180 C   0  0  0  0  0  3  0  0  0  0  0  0
  -28.6270  -25.1940   18.7940 C   0  0  0  0  0  3  0  0  0  0  0  0
  -28.7000  -26.6370   19.1310 O   0  0  0  0  0  0  0  0  0  0  0  0
  -24.5610  -31.2350   22.8360 C   0  0  0  0  0  0  0  0  0  0  0  0
  -27.5050  -27.3750   19.1840 C   0  0  0  0  0  0  0  0  0  0  0  0
  -23.4520  -29.9580   21.0380 C   0  0  0  0  0  3  0  0  0  0  0  0
  -25.0040  -28.7470   19.4070 C   0  0  0  0  0  0  0  0  0  0  0  0
  -25.9480  -30.5260   20.8760 C   0  0  0  0  0  2  0  0  0  0  0  0
  -26.1360  -29.2580   20.0540 C   0  0  0  0  0  0  0  0  0  0  0  0
  -27.3870  -28.5820   19.9380 C   0  0  0  0  0  3  0  0  0  0  0  0
  -26.3450  -26.9250   18.5100 C   0  0  0  0  0  3  0  0  0  0  0  0
  -25.1090  -27.5860   18.6270 C   0  0  0  0  0  3  0  0  0  0  0  0
  -23.6950  -29.4900   19.5790 C   0  0  0  0  0  2  0  0  0  0  0  0
  -24.6720  -30.5850   21.6410 N   0  0  0  0  0  0  0  0  0  0  0  0
  -23.4690  -31.3420   23.4110 O   0  0  0  0  0  0  0  0  0  0  0  0
  -22.9020  -28.7690   21.8620 C   0  0  0  0  0  0  0  0  0  0  0  0
  -21.5910  -28.5000   21.7330 N   0  0  0  0  0  0  0  0  0  0  0  0
  -23.6510  -28.0990   22.5770 O   0  0  0  0  0  0  0  0  0  0  0  0
  -21.0420  -29.0990   21.1330 H   0  0  0  0  0  0  0  0  0  0  0  0
  -18.3400  -26.9600   22.1050 C   0  0  0  0  0  0  0  0  0  0  0  0
  -20.8720  -27.4040   22.3840 C   0  0  0  0  0  3  0  0  0  0  0  0
  -21.0840  -26.0720   21.6270 C   0  0  0  0  0  2  0  0  0  0  0  0
  -19.9940  -25.7870   20.5890 C   0  0  0  0  0  2  0  0  0  0  0  0
  -18.6180  -25.7290   21.2600 C   0  0  0  0  0  2  0  0  0  0  0  0
  -19.3980  -27.7550   22.6200 C   0  0  0  0  0  0  0  0  0  0  0  0
  -19.0850  -28.9090   23.3710 C   0  0  0  0  0  3  0  0  0  0  0  0
  -17.7460  -29.2700   23.6120 C   0  0  0  0  0  3  0  0  0  0  0  0
  -16.7030  -28.4710   23.1130 C   0  0  0  0  0  3  0  0  0  0  0  0
  -17.0010  -27.3170   22.3660 C   0  0  0  0  0  3  0  0  0  0  0  0
  -25.7960  -31.8930   23.5240 C   0  0  0  0  0  3  0  0  0  0  0  0
  -26.3630  -31.0430   24.7270 C   0  0  1  0  0  0  0  0  0  0  0  0
  -25.2900  -30.6430   25.7660 C   0  0  0  0  0  1  0  0  0  0  0  0
  -27.0290  -29.7450   24.2130 C   0  0  0  0  0  1  0  0  0  0  0  0
  -27.4650  -31.8430   25.4610 C   0  0  0  0  0  1  0  0  0  0  0  0
  -25.3890  -33.2300   23.9820 N   0  0  0  0  0  0  0  0  0  0  0  0
  -25.6770  -34.3730   23.3450 C   0  0  0  0  0  0  0  0  0  0  0  0
  -26.3820  -34.4150   22.3330 O   0  0  0  0  0  0  0  0  0  0  0  0
  -24.7630  -33.2660   24.7730 H   0  0  0  0  0  0  0  0  0  0  0  0
  -23.8370  -36.0730   23.1260 C   0  0  0  0  0  1  0  0  0  0  0  0
  -25.0890  -35.6750   23.9220 C   0  0  0  0  0  3  0  0  0  0  0  0
  -27.1420  -36.6170   24.8880 C   0  0  0  0  0  1  0  0  0  0  0  0
  -26.0510  -36.7990   23.9340 N   0  0  0  0  0  0  0  0  0  0  0  0
  -25.5800  -37.6740   24.1530 H   0  0  0  0  0  0  0  0  0  0  0  0
  1  3  1  0
  2  6  1  0
  2  7  1  0
  3 18  1  0
  3  6  2  0
  4  2  2  0
  5  1  2  0
  5  4  1  0
  6  9  1  0
  8  5  1  0
 10 16  1  0
 10 18  1  0
 11 16  1  0
 12 13  1  0
 12 11  1  0
 14 13  1  0
 14 23  1  0
 14 15  1  0
 16 15  1  0
 17 10  2  0
 18 19  1  0
 20 21  2  0
 21 40  1  0
 22 21  1  0
 22 25  1  0
 23 24  1  0
 23 20  1  0
 24 22  2  0
 25 26  1  0
 26 27  2  0
 28 31  1  0
 28 27  1  0
 29 28  2  0
 30 29  1  0
 30 25  2  0
 31 32  1  0
 32 33  1  0
 33 34  2  0
 35 34  1  0
 35 39  1  0
 36 35  2  0
 37 32  2  0
 37 36  1  0
 38 37  1  0
 40 41  1  0
 41 44  1  0
 41 43  1  0
 42 40  2  0
 45 20  1  0
 45 46  1  0
 47 45  1  0
 48  4  1  0
 48 49  1  0
 50 51  1  0
 50 48  1  0
 52 53  1  0
 52 51  2  0
 53 55  1  0
 54 65  2  0
 55 60  1  0
 56 64  1  0
 56 66  1  0
 57 63  1  0
 57 59  1  0
 58 64  1  0
 59 58  1  0
 60 59  2  0
 61 62  1  0
 61 55  2  0
 62 57  2  0
 63 56  1  0
 64 54  1  0
 66 68  2  0
 67 66  1  0
 69 67  1  0
 70 79  2  0
 70 75  1  0
 71 67  1  0
 71 75  1  0
 72 71  1  0
 73 74  1  0
 73 72  1  0
 74 70  1  0
 75 76  2  0
 76 77  1  0
 78 77  2  0
 79 78  1  0
 80 54  1  0
 80 85  1  0
 80 81  1  0
 81 84  1  1
 81 82  1  0
 83 81  1  0
 85 88  1  0
 86 90  1  0
 86 85  1  0
 87 86  2  0
 90 89  1  0
 90 92  1  0
 92 93  1  0
 92 91  1  0
M  ISO  4  10 100  18 100  52 101  53 101
M  END
>  <TORSDO>  (34) 
F 20

>  <SCORE>  (34) 
-10.521

>  <name>  (34) 
33

>  <ligand_id>  (34) 
33

>  <original_smiles>  (34) 
[H]c1c([H])c([H])c2c(c1[H])C([H])([H])C([H])([H])C([H])([H])C2([H])N([H])C(=O)C1([H])N(C(=O)C([H])(N([H])C(=O)C([H])(N([H])C([H])([H])[H])C([H])([H])[H])C(C([H])([H])[H])(C([H])([H])[H])C([H])([H])[H])C([H])([H])c2c([H])c(OC([H])([H])C([H])([H])C([H])([H])N([H])c3c(F)c([H])c(N([H])C(=O)N4C([H])([H])C([H])([H])C([H])([H])C([H])(n5nc(-c6c([H])c([H])c(Oc7c([H])c([H])c(F)c([H])c7F)c([H])c6[H])c(C(=O)N([H])[H])c5N([H])[H])C4([H])[H])c(F)c3C([H])([H])[H])c([H])c([H])c2C1([H])[H]

>  <smiles>  (34) 
[H]c1c([H])c([H])c2c(c1[H])C([H])([H])C([H])([H])C([H])([H])C2([H])N([H])C(=O)C1([H])N(C(=O)C([H])(N([H])C(=O)C([H])(N([H])C([H])([H])[H])C([H])([H])[H])C(C([H])([H])[H])(C([H])([H])[H])C([H])([H])[H])C([H])([H])c2c([H])c(OC([H])([H])C([H])([H])C([H])([H])N([H])c3c(F)c([H])c(N([H])C(=O)N4C([H])([H])C([H])([H])C([H])([H])C([H])(n5nc(-c6c([H])c([H])c(Oc7c([H])c([H])c(F)c([H])c7F)c([H])c6[H])c(C(=O)N([H])[H])c5N([H])[H])C4([H])[H])c(F)c3C([H])([H])[H])c([H])c([H])c2C1([H])[H]

$$$$
34:0:0
     RDKit          3D

 94102  0  0  1  0  0  0  0  0999 V2000
  -30.5940  -20.6930   21.0330 C   0  0  0  0  0  2  0  0  0  0  0  0
  -28.9680  -19.4950   19.4960 C   0  0  0  0  0  3  0  0  0  0  0  0
  -28.7720  -17.0660   19.3910 C   0  0  0  0  0  3  0  0  0  0  0  0
  -28.3940  -18.3430   18.9300 C   0  0  0  0  0  0  0  0  0  0  0  0
  -29.9290  -19.3950   20.5220 C   0  0  0  0  0  0  0  0  0  0  0  0
  -29.7110  -16.9110   20.4360 C   0  0  0  0  0  0  0  0  0  0  0  0
  -30.2970  -18.0880   20.9960 C   0  0  0  0  0  0  0  0  0  0  0  0
  -27.3550  -18.4850   17.8350 C   0  0  0  0  0  1  0  0  0  0  0  0
  -31.4500  -17.9150   22.2760 Cl  0  0  0  0  0  0  0  0  0  0  0  0
  -30.6310  -14.5850   20.4370 C   0  0  0  0  0  0  0  0  0  0  0  0
  -30.3840  -12.3860   19.3290 C   0  0  0  0  0  2  0  0  0  0  0  0
  -29.4560  -12.5680   18.1090 C   0  0  0  0  0  2  0  0  0  0  0  0
  -27.9750  -12.4330   18.5150 C   0  0  0  0  0  2  0  0  0  0  0  0
  -27.6210  -13.2700   19.7730 C   0  0  0  0  0  3  0  0  0  0  0  0
  -28.6640  -13.0640   20.8970 C   0  0  0  0  0  2  0  0  0  0  0  0
  -29.9930  -13.3810   20.3450 N   0  0  0  0  0  0  0  0  0  0  0  0
  -31.7590  -14.7740   19.9740 O   0  0  0  0  0  0  0  0  0  0  0  0
  -29.9030  -15.5890   20.9800 N   0  0  0  0  0  0  0  0  0  0  0  0
  -29.0870  -15.2320   21.4520 H   0  0  0  0  0  0  0  0  0  0  0  0
  -25.2170  -13.9110   20.4290 C   0  0  0  0  0  0  0  0  0  0  0  0
  -24.1370  -13.1520   20.7900 C   0  0  0  0  0  0  0  0  0  0  0  0
  -24.5890  -11.7960   20.7880 C   0  0  0  0  0  0  0  0  0  0  0  0
  -26.2590  -13.0150   20.2320 N   0  0  0  0  0  0  0  0  0  0  0  0
  -25.8840  -11.7410   20.5050 N   0  0  0  0  0  0  0  0  0  0  0  0
  -23.8520  -10.5420   20.9840 C   0  0  0  0  0  0  0  0  0  0  0  0
  -24.2750   -9.5800   21.9280 C   0  0  0  0  0  3  0  0  0  0  0  0
  -23.5420   -8.3880   22.1110 C   0  0  0  0  0  3  0  0  0  0  0  0
  -22.3730   -8.1510   21.3500 C   0  0  0  0  0  0  0  0  0  0  0  0
  -21.9710   -9.1020   20.3940 C   0  0  0  0  0  3  0  0  0  0  0  0
  -22.7040  -10.2850   20.2100 C   0  0  0  0  0  3  0  0  0  0  0  0
  -21.6100   -7.0120   21.4430 O   0  0  0  0  0  0  0  0  0  0  0  0
  -21.5590   -6.2740   22.5970 C   0  0  0  0  0  0  0  0  0  0  0  0
  -21.1500   -6.8370   23.8260 C   0  0  0  0  0  3  0  0  0  0  0  0
  -21.0450   -6.0250   24.9730 C   0  0  0  0  0  3  0  0  0  0  0  0
  -21.3380   -4.6510   24.8910 C   0  0  0  0  0  0  0  0  0  0  0  0
  -21.7380   -4.0870   23.6690 C   0  0  0  0  0  3  0  0  0  0  0  0
  -21.8460   -4.8960   22.5240 C   0  0  0  0  0  0  0  0  0  0  0  0
  -22.2130   -4.3430   21.3420 F   0  0  0  0  0  0  0  0  0  0  0  0
  -21.2280   -3.8680   25.9910 F   0  0  0  0  0  0  0  0  0  0  0  0
  -22.7390  -13.6420   21.0330 C   0  0  0  0  0  0  0  0  0  0  0  0
  -21.9920  -12.9610   21.8970 N   0  0  0  0  0  0  0  0  0  0  0  0
  -22.3150  -14.6620   20.4920 O   0  0  0  0  0  0  0  0  0  0  0  0
  -22.3470  -12.1340   22.3560 H   0  0  0  0  0  0  0  0  0  0  0  0
  -21.0540  -13.2710   22.1020 H   0  0  0  0  0  0  0  0  0  0  0  0
  -25.3940  -15.2780   20.2340 N   0  0  0  0  0  0  0  0  0  0  0  0
  -24.6330  -15.9410   20.3290 H   0  0  0  0  0  0  0  0  0  0  0  0
  -26.2580  -15.7120   19.9380 H   0  0  0  0  0  0  0  0  0  0  0  0
  -29.7470  -22.9740   20.2580 C   0  0  0  0  0  0  0  0  0  0  0  0
  -29.7870  -21.9410   21.1330 N   0  0  0  0  0  0  0  0  0  0  0  0
  -30.0830  -22.8320   19.0810 O   0  0  0  0  0  0  0  0  0  0  0  0
  -29.4490  -22.1450   22.0640 H   0  0  0  0  0  0  0  0  0  0  0  0
  -29.3780  -24.3950   20.7820 C   0  0  0  0  0  2  0  0  0  0  0  0
  -28.3470  -25.2280   19.9490 C   0  0  0  0  0  2  0  0  0  0  0  0
  -28.3920  -26.6600   20.2260 O   0  0  0  0  0  0  0  0  0  0  0  0
  -24.5870  -31.9030   23.2350 C   0  0  0  0  0  0  0  0  0  0  0  0
  -27.2230  -27.4160   20.1680 C   0  0  0  0  0  0  0  0  0  0  0  0
  -23.3790  -30.5020   21.5930 C   0  0  0  0  0  3  0  0  0  0  0  0
  -24.8320  -28.9600   20.1670 C   0  0  0  0  0  0  0  0  0  0  0  0
  -25.9090  -30.8500   21.3970 C   0  0  0  0  0  2  0  0  0  0  0  0
  -25.9940  -29.4740   20.7560 C   0  0  0  0  0  0  0  0  0  0  0  0
  -27.1890  -28.7120   20.7500 C   0  0  0  0  0  3  0  0  0  0  0  0
  -26.0430  -26.9380   19.5520 C   0  0  0  0  0  3  0  0  0  0  0  0
  -24.8540  -27.6940   19.5600 C   0  0  0  0  0  3  0  0  0  0  0  0
  -23.5900  -29.8230   20.2140 C   0  0  0  0  0  2  0  0  0  0  0  0
  -24.6440  -31.1010   22.1330 N   0  0  0  0  0  0  0  0  0  0  0  0
  -23.5060  -32.1770   23.7750 O   0  0  0  0  0  0  0  0  0  0  0  0
  -22.7260  -29.4840   22.5570 C   0  0  0  0  0  0  0  0  0  0  0  0
  -21.4010  -29.3010   22.4300 N   0  0  0  0  0  0  0  0  0  0  0  0
  -23.4090  -28.8600   23.3730 O   0  0  0  0  0  0  0  0  0  0  0  0
  -20.9100  -29.8570   21.7440 H   0  0  0  0  0  0  0  0  0  0  0  0
  -18.0280  -28.1020   22.9270 C   0  0  0  0  0  0  0  0  0  0  0  0
  -20.5850  -28.3640   23.2020 C   0  0  0  0  0  3  0  0  0  0  0  0
  -20.6910  -26.9310   22.6300 C   0  0  0  0  0  2  0  0  0  0  0  0
  -19.5900  -26.6050   21.6150 C   0  0  0  0  0  2  0  0  0  0  0  0
  -18.2070  -26.7500   22.2570 C   0  0  0  0  0  2  0  0  0  0  0  0
  -19.1450  -28.8660   23.3580 C   0  0  0  0  0  0  0  0  0  0  0  0
  -18.9240  -30.1310   23.9450 C   0  0  0  0  0  3  0  0  0  0  0  0
  -17.6180  -30.6310   24.1070 C   0  0  0  0  0  3  0  0  0  0  0  0
  -16.5150  -29.8640   23.6920 C   0  0  0  0  0  3  0  0  0  0  0  0
  -16.7210  -28.6010   23.1080 C   0  0  0  0  0  3  0  0  0  0  0  0
  -25.8720  -32.5370   23.8520 C   0  0  0  0  0  3  0  0  0  0  0  0
  -26.3950  -31.7630   25.1250 C   0  0  1  0  0  0  0  0  0  0  0  0
  -25.3070  -31.5220   26.1960 C   0  0  0  0  0  1  0  0  0  0  0  0
  -26.9790  -30.3870   24.7270 C   0  0  0  0  0  1  0  0  0  0  0  0
  -27.5460  -32.5570   25.7850 C   0  0  0  0  0  1  0  0  0  0  0  0
  -25.5610  -33.9330   24.1860 N   0  0  0  0  0  0  0  0  0  0  0  0
  -25.8890  -34.9870   23.4280 C   0  0  0  0  0  0  0  0  0  0  0  0
  -26.5550  -34.8870   22.3940 O   0  0  0  0  0  0  0  0  0  0  0  0
  -24.9670  -34.0840   24.9880 H   0  0  0  0  0  0  0  0  0  0  0  0
  -24.1540  -36.7770   23.0830 C   0  0  0  0  0  1  0  0  0  0  0  0
  -25.4000  -36.3750   23.8880 C   0  0  0  0  0  3  0  0  0  0  0  0
  -27.5390  -37.2620   24.7080 C   0  0  0  0  0  1  0  0  0  0  0  0
  -26.4300  -37.4300   23.7720 N   0  0  0  0  0  0  0  0  0  0  0  0
  -26.0230  -38.3490   23.9230 H   0  0  0  0  0  0  0  0  0  0  0  0
  1 49  1  0
  2  5  1  0
  3  6  2  0
  4  3  1  0
  4  2  2  0
  5  7  2  0
  5  1  1  0
  6 18  1  0
  6  7  1  0
  7  9  1  0
  8  4  1  0
 10 18  1  0
 11 16  1  0
 12 13  1  0
 12 11  1  0
 14 13  1  0
 14 23  1  0
 14 15  1  0
 16 10  1  0
 16 15  1  0
 17 10  2  0
 18 19  1  0
 20 21  2  0
 21 40  1  0
 22 21  1  0
 22 25  1  0
 23 20  1  0
 23 24  1  0
 24 22  2  0
 25 26  1  0
 26 27  2  0
 28 31  1  0
 28 27  1  0
 29 28  2  0
 30 29  1  0
 30 25  2  0
 31 32  1  0
 32 33  1  0
 33 34  2  0
 35 34  1  0
 35 39  1  0
 36 35  2  0
 37 32  2  0
 37 36  1  0
 38 37  1  0
 40 41  1  0
 41 44  1  0
 41 43  1  0
 42 40  2  0
 45 46  1  0
 45 20  1  0
 47 45  1  0
 48 52  1  0
 48 49  1  0
 49 51  1  0
 50 48  2  0
 53 54  1  0
 53 52  1  0
 55 66  2  0
 56 54  1  0
 56 61  1  0
 57 65  1  0
 57 67  1  0
 58 64  1  0
 58 60  1  0
 59 65  1  0
 60 59  1  0
 61 60  2  0
 62 63  1  0
 62 56  2  0
 63 58  2  0
 64 57  1  0
 65 55  1  0
 67 69  2  0
 68 67  1  0
 70 68  1  0
 71 80  2  0
 71 76  1  0
 72 68  1  0
 72 76  1  0
 73 72  1  0
 74 75  1  0
 74 73  1  0
 75 71  1  0
 76 77  2  0
 77 78  1  0
 79 78  2  0
 80 79  1  0
 81 55  1  0
 81 86  1  0
 81 82  1  0
 82 85  1  1
 82 83  1  0
 84 82  1  0
 86 89  1  0
 87 91  1  0
 87 86  1  0
 88 87  2  0
 91 90  1  0
 93 91  1  0
 93 94  1  0
 93 92  1  0
M  ISO  4  10 100  18 100  53 101  54 101
M  END
>  <TORSDO>  (35) 
F 20

>  <SCORE>  (35) 
-13.846

>  <name>  (35) 
34

>  <ligand_id>  (35) 
34

>  <original_smiles>  (35) 
[H]c1c([H])c([H])c2c(c1[H])C([H])([H])C([H])([H])C([H])([H])C2([H])N([H])C(=O)C1([H])N(C(=O)C([H])(N([H])C(=O)C([H])(N([H])C([H])([H])[H])C([H])([H])[H])C(C([H])([H])[H])(C([H])([H])[H])C([H])([H])[H])C([H])([H])c2c([H])c(OC([H])([H])C([H])([H])C(=O)N([H])C([H])([H])c3c([H])c(C([H])([H])[H])c([H])c(N([H])C(=O)N4C([H])([H])C([H])([H])C([H])([H])C([H])(n5nc(-c6c([H])c([H])c(Oc7c([H])c([H])c(F)c([H])c7F)c([H])c6[H])c(C(=O)N([H])[H])c5N([H])[H])C4([H])[H])c3Cl)c([H])c([H])c2C1([H])[H]

>  <smiles>  (35) 
[H]c1c([H])c([H])c2c(c1[H])C([H])([H])C([H])([H])C([H])([H])C2([H])N([H])C(=O)C1([H])N(C(=O)C([H])(N([H])C(=O)C([H])(N([H])C([H])([H])[H])C([H])([H])[H])C(C([H])([H])[H])(C([H])([H])[H])C([H])([H])[H])C([H])([H])c2c([H])c(OC([H])([H])C([H])([H])C(=O)N([H])C([H])([H])c3c([H])c(C([H])([H])[H])c([H])c(N([H])C(=O)N4C([H])([H])C([H])([H])C([H])([H])C([H])(n5nc(-c6c([H])c([H])c(Oc7c([H])c([H])c(F)c([H])c7F)c([H])c6[H])c(C(=O)N([H])[H])c5N([H])[H])C4([H])[H])c3Cl)c([H])c([H])c2C1([H])[H]

$$$$
35:0:0
     RDKit          3D

 96104  0  0  1  0  0  0  0  0999 V2000
  -31.0590  -19.6820   20.5440 C   0  0  0  0  0  3  0  0  0  0  0  0
  -28.8920  -18.8830   19.8740 C   0  0  0  0  0  3  0  0  0  0  0  0
  -30.2160  -18.5720   20.2500 C   0  0  0  0  0  0  0  0  0  0  0  0
  -30.6500  -21.0380   20.3950 C   0  0  0  0  0  0  0  0  0  0  0  0
  -29.3120  -21.3500   20.0160 C   0  0  0  0  0  0  0  0  0  0  0  0
  -28.4520  -20.2330   19.7700 C   0  0  0  0  0  0  0  0  0  0  0  0
  -31.7210  -22.1080   20.5610 C   0  0  0  0  0  1  0  0  0  0  0  0
  -26.8190  -20.5090   19.2630 Cl  0  0  0  0  0  0  0  0  0  0  0  0
  -30.7940  -14.6420   20.3580 C   0  0  0  0  0  0  0  0  0  0  0  0
  -30.4090  -12.4120   19.3810 C   0  0  0  0  0  2  0  0  0  0  0  0
  -29.5100  -12.5230   18.1360 C   0  0  0  0  0  2  0  0  0  0  0  0
  -28.0340  -12.3880   18.5500 C   0  0  0  0  0  2  0  0  0  0  0  0
  -27.6550  -13.3060   19.7440 C   0  0  0  0  0  3  0  0  0  0  0  0
  -28.7040  -13.2590   20.8830 C   0  0  0  0  0  2  0  0  0  0  0  0
  -30.0250  -13.5090   20.2960 N   0  0  0  0  0  0  0  0  0  0  0  0
  -31.9880  -14.5880   20.0460 O   0  0  0  0  0  0  0  0  0  0  0  0
  -30.7980  -17.1850   20.1710 C   0  0  0  0  0  0  0  0  0  0  0  0
  -30.1860  -15.9830   20.4980 N   0  0  0  0  0  0  0  0  0  0  0  0
  -32.0420  -17.1920   19.6710 N   0  0  0  0  0  4  0  0  0  0  0  0
  -29.2390  -16.0980   20.8050 H   0  0  0  0  0  0  0  0  0  0  0  0
  -32.4860  -18.0520   19.3970 H   0  0  0  0  0  0  0  0  0  0  0  0
  -32.5290  -16.3030   19.5870 H   0  0  0  0  0  0  0  0  0  0  0  0
  -25.2540  -13.9010   20.4350 C   0  0  0  0  0  0  0  0  0  0  0  0
  -24.1820  -13.1310   20.7960 C   0  0  0  0  0  0  0  0  0  0  0  0
  -24.6450  -11.7790   20.7850 C   0  0  0  0  0  0  0  0  0  0  0  0
  -26.3020  -13.0200   20.2240 N   0  0  0  0  0  0  0  0  0  0  0  0
  -25.9410  -11.7390   20.4990 N   0  0  0  0  0  0  0  0  0  0  0  0
  -23.9160  -10.5180   20.9800 C   0  0  0  0  0  0  0  0  0  0  0  0
  -24.3340   -9.5620   21.9330 C   0  0  0  0  0  3  0  0  0  0  0  0
  -23.6060   -8.3680   22.1150 C   0  0  0  0  0  3  0  0  0  0  0  0
  -22.4460   -8.1180   21.3450 C   0  0  0  0  0  0  0  0  0  0  0  0
  -22.0470   -9.0600   20.3820 C   0  0  0  0  0  3  0  0  0  0  0  0
  -22.7740  -10.2480   20.1990 C   0  0  0  0  0  3  0  0  0  0  0  0
  -21.6930   -6.9710   21.4330 O   0  0  0  0  0  0  0  0  0  0  0  0
  -21.6260   -6.2430   22.5940 C   0  0  0  0  0  0  0  0  0  0  0  0
  -21.1690   -6.8100   23.8040 C   0  0  0  0  0  3  0  0  0  0  0  0
  -21.0470   -6.0090   24.9560 C   0  0  0  0  0  3  0  0  0  0  0  0
  -21.3750   -4.6410   24.9010 C   0  0  0  0  0  0  0  0  0  0  0  0
  -21.8230   -4.0720   23.6960 C   0  0  0  0  0  3  0  0  0  0  0  0
  -21.9460   -4.8710   22.5460 C   0  0  0  0  0  0  0  0  0  0  0  0
  -22.3600   -4.3130   21.3810 F   0  0  0  0  0  0  0  0  0  0  0  0
  -21.2500   -3.8680   26.0050 F   0  0  0  0  0  0  0  0  0  0  0  0
  -22.7810  -13.6110   21.0350 C   0  0  0  0  0  0  0  0  0  0  0  0
  -22.0360  -12.9300   21.8990 N   0  0  0  0  0  0  0  0  0  0  0  0
  -22.3510  -14.6280   20.4900 O   0  0  0  0  0  0  0  0  0  0  0  0
  -22.3910  -12.1110   22.3710 H   0  0  0  0  0  0  0  0  0  0  0  0
  -21.0960  -13.2370   22.1000 H   0  0  0  0  0  0  0  0  0  0  0  0
  -25.4200  -15.2700   20.2440 N   0  0  0  0  0  0  0  0  0  0  0  0
  -24.6460  -15.9210   20.3300 H   0  0  0  0  0  0  0  0  0  0  0  0
  -26.2580  -15.6990   19.8750 H   0  0  0  0  0  0  0  0  0  0  0  0
  -28.7690  -22.6620   19.8010 N   0  0  0  0  0  0  0  0  0  0  0  0
  -27.8350  -22.6140   19.4070 H   0  0  0  0  0  0  0  0  0  0  0  0
  -29.0040  -23.9620   21.9080 C   0  0  0  0  0  1  0  0  0  0  0  0
  -29.1300  -23.9910   20.3790 C   0  0  0  0  0  3  0  0  0  0  0  0
  -28.1930  -25.1380   19.8230 C   0  0  0  0  0  2  0  0  0  0  0  0
  -28.3900  -26.5480   20.2200 O   0  0  0  0  0  0  0  0  0  0  0  0
  -24.5990  -31.8940   23.2500 C   0  0  0  0  0  0  0  0  0  0  0  0
  -27.2690  -27.3910   20.1640 C   0  0  0  0  0  0  0  0  0  0  0  0
  -23.4240  -30.5060   21.5820 C   0  0  0  0  0  3  0  0  0  0  0  0
  -24.8980  -28.9820   20.1580 C   0  0  0  0  0  0  0  0  0  0  0  0
  -25.9640  -30.8380   21.4350 C   0  0  0  0  0  2  0  0  0  0  0  0
  -26.0560  -29.4670   20.7780 C   0  0  0  0  0  0  0  0  0  0  0  0
  -27.2430  -28.6770   20.7830 C   0  0  0  0  0  3  0  0  0  0  0  0
  -26.0880  -26.9710   19.5060 C   0  0  0  0  0  3  0  0  0  0  0  0
  -24.9120  -27.7370   19.5200 C   0  0  0  0  0  3  0  0  0  0  0  0
  -23.6560  -29.8470   20.1980 C   0  0  0  0  0  2  0  0  0  0  0  0
  -24.6810  -31.0940   22.1460 N   0  0  0  0  0  0  0  0  0  0  0  0
  -23.5070  -32.1660   23.7670 O   0  0  0  0  0  0  0  0  0  0  0  0
  -22.7550  -29.4760   22.5220 C   0  0  0  0  0  0  0  0  0  0  0  0
  -21.4270  -29.3120   22.3910 N   0  0  0  0  0  0  0  0  0  0  0  0
  -23.4270  -28.8280   23.3290 O   0  0  0  0  0  0  0  0  0  0  0  0
  -20.9440  -29.8880   21.7140 H   0  0  0  0  0  0  0  0  0  0  0  0
  -18.0300  -28.1690   22.8810 C   0  0  0  0  0  0  0  0  0  0  0  0
  -20.5950  -28.3720   23.1430 C   0  0  0  0  0  3  0  0  0  0  0  0
  -20.6670  -26.9530   22.5300 C   0  0  0  0  0  2  0  0  0  0  0  0
  -19.5520  -26.6780   21.5160 C   0  0  0  0  0  2  0  0  0  0  0  0
  -18.1770  -26.8330   22.1720 C   0  0  0  0  0  2  0  0  0  0  0  0
  -19.1660  -28.8980   23.3220 C   0  0  0  0  0  0  0  0  0  0  0  0
  -18.9750  -30.1500   23.9460 C   0  0  0  0  0  3  0  0  0  0  0  0
  -17.6810  -30.6700   24.1360 C   0  0  0  0  0  3  0  0  0  0  0  0
  -16.5600  -29.9380   23.7100 C   0  0  0  0  0  3  0  0  0  0  0  0
  -16.7350  -28.6890   23.0890 C   0  0  0  0  0  3  0  0  0  0  0  0
  -25.8720  -32.5230   23.8950 C   0  0  0  0  0  3  0  0  0  0  0  0
  -26.3560  -31.7570   25.1890 C   0  0  1  0  0  0  0  0  0  0  0  0
  -25.2360  -31.5350   26.2350 C   0  0  0  0  0  1  0  0  0  0  0  0
  -26.9410  -30.3750   24.8180 C   0  0  0  0  0  1  0  0  0  0  0  0
  -27.4940  -32.5500   25.8730 C   0  0  0  0  0  1  0  0  0  0  0  0
  -25.5580  -33.9230   24.2100 N   0  0  0  0  0  0  0  0  0  0  0  0
  -25.9070  -34.9700   23.4500 C   0  0  0  0  0  0  0  0  0  0  0  0
  -26.5920  -34.8570   22.4300 O   0  0  0  0  0  0  0  0  0  0  0  0
  -24.9450  -34.0810   24.9980 H   0  0  0  0  0  0  0  0  0  0  0  0
  -24.1860  -36.7690   23.0660 C   0  0  0  0  0  1  0  0  0  0  0  0
  -25.4180  -36.3640   23.8930 C   0  0  0  0  0  3  0  0  0  0  0  0
  -27.5450  -37.2540   24.7420 C   0  0  0  0  0  1  0  0  0  0  0  0
  -26.4560  -37.4120   23.7810 N   0  0  0  0  0  0  0  0  0  0  0  0
  -26.0490  -38.3350   23.9110 H   0  0  0  0  0  0  0  0  0  0  0  0
  2  3  1  0
  3  1  2  0
  4  1  1  0
  4  7  1  0
  5  4  2  0
  6  2  2  0
  6  5  1  0
  8  6  1  0
  9 18  1  0
 10 15  1  0
 11 12  1  0
 11 10  1  0
 13 12  1  0
 13 26  1  0
 13 14  1  0
 15  9  1  0
 15 14  1  0
 16  9  2  0
 17  3  1  0
 17 18  1  0
 18 20  1  0
 19 17  2  0
 21 19  1  0
 22 19  1  0
 23 24  2  0
 24 43  1  0
 25 24  1  0
 25 28  1  0
 26 23  1  0
 26 27  1  0
 27 25  2  0
 28 29  1  0
 29 30  2  0
 31 34  1  0
 31 30  1  0
 32 31  2  0
 33 32  1  0
 33 28  2  0
 34 35  1  0
 35 36  1  0
 36 37  2  0
 38 37  1  0
 38 42  1  0
 39 38  2  0
 40 35  2  0
 40 39  1  0
 41 40  1  0
 43 44  1  0
 44 47  1  0
 44 46  1  0
 45 43  2  0
 48 49  1  0
 48 23  1  0
 50 48  1  0
 51  5  1  0
 51 54  1  0
 52 51  1  0
 54 53  1  0
 55 56  1  0
 55 54  1  0
 57 68  2  0
 58 56  1  0
 58 63  1  0
 59 67  1  0
 59 69  1  0
 60 66  1  0
 60 62  1  0
 61 67  1  0
 62 63  2  0
 62 61  1  0
 64 65  1  0
 64 58  2  0
 65 60  2  0
 66 59  1  0
 67 57  1  0
 69 71  2  0
 70 69  1  0
 72 70  1  0
 73 82  2  0
 73 78  1  0
 74 70  1  0
 74 78  1  0
 75 74  1  0
 76 77  1  0
 76 75  1  0
 77 73  1  0
 78 79  2  0
 79 80  1  0
 81 80  2  0
 82 81  1  0
 83 57  1  0
 83 88  1  0
 83 84  1  0
 84 87  1  1
 84 85  1  0
 86 84  1  0
 88 91  1  0
 89 93  1  0
 89 88  1  0
 90 89  2  0
 93 92  1  0
 95 93  1  0
 95 96  1  0
 95 94  1  0
M  ISO  4   9 100  18 100  55 101  56 101
M  END
>  <TORSDO>  (36) 
F 19

>  <SCORE>  (36) 
-14.297

>  <name>  (36) 
35

>  <ligand_id>  (36) 
35

>  <original_smiles>  (36) 
[H]c1c([H])c([H])c2c(c1[H])C([H])([H])C([H])([H])C([H])([H])C2([H])N([H])C(=O)C1([H])N(C(=O)C([H])(N([H])C(=O)C([H])(N([H])C([H])([H])[H])C([H])([H])[H])C(C([H])([H])[H])(C([H])([H])[H])C([H])([H])[H])C([H])([H])c2c([H])c(OC([H])([H])C([H])(N([H])c3c(Cl)c([H])c(C(N([H])C(=O)N4C([H])([H])C([H])([H])C([H])([H])C([H])(n5nc(-c6c([H])c([H])c(Oc7c([H])c([H])c(F)c([H])c7F)c([H])c6[H])c(C(=O)N([H])[H])c5N([H])[H])C4([H])[H])=[N+]([H])[H])c([H])c3C([H])([H])[H])C([H])([H])[H])c([H])c([H])c2C1([H])[H]

>  <smiles>  (36) 
[H]c1c([H])c([H])c2c(c1[H])C([H])([H])C([H])([H])C([H])([H])C2([H])N([H])C(=O)C1([H])N(C(=O)C([H])(N([H])C(=O)C([H])(N([H])C([H])([H])[H])C([H])([H])[H])C(C([H])([H])[H])(C([H])([H])[H])C([H])([H])[H])C([H])([H])c2c([H])c(OC([H])([H])C([H])(N([H])c3c(Cl)c([H])c(C(N([H])C(=O)N4C([H])([H])C([H])([H])C([H])([H])C([H])(n5nc(-c6c([H])c([H])c(Oc7c([H])c([H])c(F)c([H])c7F)c([H])c6[H])c(C(=O)N([H])[H])c5N([H])[H])C4([H])[H])=[N+]([H])[H])c([H])c3C([H])([H])[H])C([H])([H])[H])c([H])c([H])c2C1([H])[H]

$$$$
36:0:0
     RDKit          3D

 90 98  0  0  1  0  0  0  0  0999 V2000
  -31.2290  -20.9180   20.5210 C   0  0  0  0  0  0  0  0  0  0  0  0
  -28.9370  -21.9410   20.1610 C   0  0  0  0  0  0  0  0  0  0  0  0
  -29.6040  -18.9900   20.2110 C   0  0  0  0  0  0  0  0  0  0  0  0
  -30.3300  -22.0390   20.3960 C   0  0  0  0  0  0  0  0  0  0  0  0
  -30.9010  -19.5170   20.4400 C   0  0  0  0  0  0  0  0  0  0  0  0
  -28.6650  -20.3250   20.0830 C   0  0  0  0  0  0  0  0  0  0  0  0
  -32.6970  -21.2300   20.7750 C   0  0  0  0  0  1  0  0  0  0  0  0
  -30.8420  -23.2880   20.5110 F   0  0  0  0  0  0  0  0  0  0  0  0
  -31.9120  -18.6310   20.6080 F   0  0  0  0  0  0  0  0  0  0  0  0
  -27.0060  -19.9410   19.7980 Cl  0  0  0  0  0  0  0  0  0  0  0  0
  -30.2650  -15.8390   20.1030 C   0  0  0  0  0  0  0  0  0  0  0  0
  -30.3950  -13.2650   19.2710 C   0  0  0  0  0  2  0  0  0  0  0  0
  -29.4800  -12.7880   18.1020 C   0  0  0  0  0  2  0  0  0  0  0  0
  -28.0880  -12.3900   18.6130 C   0  0  0  0  0  2  0  0  0  0  0  0
  -27.5880  -13.3900   19.6780 C   0  0  0  0  0  3  0  0  0  0  0  0
  -28.6470  -13.7650   20.7440 C   0  0  0  0  0  2  0  0  0  0  0  0
  -29.7620  -14.4470   20.0350 N   0  0  0  0  0  0  0  0  0  0  0  0
  -31.4970  -15.7500   19.9120 O   0  0  0  0  0  0  0  0  0  0  0  0
  -29.4860  -17.2270   20.1740 N   0  0  0  0  0  0  0  0  0  0  0  0
  -28.5080  -16.9800   20.2170 H   0  0  0  0  0  0  0  0  0  0  0  0
  -25.2590  -13.8790   20.5520 C   0  0  0  0  0  0  0  0  0  0  0  0
  -24.2220  -13.0830   20.9430 C   0  0  0  0  0  0  0  0  0  0  0  0
  -24.7010  -11.7390   20.8660 C   0  0  0  0  0  0  0  0  0  0  0  0
  -26.2990  -13.0240   20.2480 N   0  0  0  0  0  0  0  0  0  0  0  0
  -25.9820  -11.7260   20.5040 N   0  0  0  0  0  0  0  0  0  0  0  0
  -23.9890  -10.4670   21.0560 C   0  0  0  0  0  0  0  0  0  0  0  0
  -24.4420   -9.4950   21.9750 C   0  0  0  0  0  3  0  0  0  0  0  0
  -23.7250   -8.2930   22.1580 C   0  0  0  0  0  3  0  0  0  0  0  0
  -22.5390   -8.0540   21.4230 C   0  0  0  0  0  0  0  0  0  0  0  0
  -22.1040   -9.0160   20.4940 C   0  0  0  0  0  3  0  0  0  0  0  0
  -22.8210  -10.2080   20.3100 C   0  0  0  0  0  3  0  0  0  0  0  0
  -21.7910   -6.9050   21.5160 O   0  0  0  0  0  0  0  0  0  0  0  0
  -21.7430   -6.1680   22.6730 C   0  0  0  0  0  0  0  0  0  0  0  0
  -21.2830   -6.7200   23.8890 C   0  0  0  0  0  3  0  0  0  0  0  0
  -21.1840   -5.9090   25.0370 C   0  0  0  0  0  3  0  0  0  0  0  0
  -21.5350   -4.5480   24.9710 C   0  0  0  0  0  0  0  0  0  0  0  0
  -21.9890   -3.9960   23.7600 C   0  0  0  0  0  3  0  0  0  0  0  0
  -22.0880   -4.8040   22.6140 C   0  0  0  0  0  0  0  0  0  0  0  0
  -22.5060   -4.2600   21.4450 F   0  0  0  0  0  0  0  0  0  0  0  0
  -21.4340   -3.7670   26.0720 F   0  0  0  0  0  0  0  0  0  0  0  0
  -22.8310  -13.5440   21.2670 C   0  0  0  0  0  0  0  0  0  0  0  0
  -22.1430  -12.8370   22.1560 N   0  0  0  0  0  0  0  0  0  0  0  0
  -22.3660  -14.5680   20.7680 O   0  0  0  0  0  0  0  0  0  0  0  0
  -22.5340  -12.0100   22.5810 H   0  0  0  0  0  0  0  0  0  0  0  0
  -21.2120  -13.1280   22.4170 H   0  0  0  0  0  0  0  0  0  0  0  0
  -25.3980  -15.2550   20.3930 N   0  0  0  0  0  0  0  0  0  0  0  0
  -24.6250  -15.8930   20.5390 H   0  0  0  0  0  0  0  0  0  0  0  0
  -26.2160  -15.7060   20.0040 H   0  0  0  0  0  0  0  0  0  0  0  0
  -27.9830  -23.5980   20.0130 C   0  0  0  0  0  2  0  0  0  0  0  0
  -28.1920  -25.3940   20.1640 O   0  0  0  0  0  0  0  0  0  0  0  0
  -24.6890  -31.7840   23.1390 C   0  0  0  0  0  0  0  0  0  0  0  0
  -27.2350  -26.6570   20.1220 C   0  0  0  0  0  0  0  0  0  0  0  0
  -23.5180  -30.4030   21.4800 C   0  0  0  0  0  3  0  0  0  0  0  0
  -24.9760  -28.7520   20.0660 C   0  0  0  0  0  0  0  0  0  0  0  0
  -26.1020  -30.5180   21.3900 C   0  0  0  0  0  2  0  0  0  0  0  0
  -26.1710  -29.0830   20.7180 C   0  0  0  0  0  0  0  0  0  0  0  0
  -27.2800  -28.0680   20.7100 C   0  0  0  0  0  3  0  0  0  0  0  0
  -26.0060  -26.5630   19.4140 C   0  0  0  0  0  3  0  0  0  0  0  0
  -24.9400  -27.5200   19.3890 C   0  0  0  0  0  3  0  0  0  0  0  0
  -23.7740  -29.7140   20.1060 C   0  0  0  0  0  2  0  0  0  0  0  0
  -24.7940  -30.9370   22.0550 N   0  0  0  0  0  0  0  0  0  0  0  0
  -23.5900  -32.0820   23.6400 O   0  0  0  0  0  0  0  0  0  0  0  0
  -22.7840  -29.4230   22.4360 C   0  0  0  0  0  0  0  0  0  0  0  0
  -21.4500  -29.2890   22.3110 N   0  0  0  0  0  0  0  0  0  0  0  0
  -23.4320  -28.7800   23.2670 O   0  0  0  0  0  0  0  0  0  0  0  0
  -20.9760  -29.8560   21.6230 H   0  0  0  0  0  0  0  0  0  0  0  0
  -18.0430  -28.1330   22.8460 C   0  0  0  0  0  0  0  0  0  0  0  0
  -20.6130  -28.3480   23.0690 C   0  0  0  0  0  3  0  0  0  0  0  0
  -20.6760  -26.9310   22.4530 C   0  0  0  0  0  2  0  0  0  0  0  0
  -19.5510  -26.6600   21.4480 C   0  0  0  0  0  2  0  0  0  0  0  0
  -18.1840  -26.8060   22.1200 C   0  0  0  0  0  2  0  0  0  0  0  0
  -19.1820  -28.8650   23.2780 C   0  0  0  0  0  0  0  0  0  0  0  0
  -18.9930  -30.1050   23.9250 C   0  0  0  0  0  3  0  0  0  0  0  0
  -17.6980  -30.6150   24.1390 C   0  0  0  0  0  3  0  0  0  0  0  0
  -16.5740  -29.8820   23.7200 C   0  0  0  0  0  3  0  0  0  0  0  0
  -16.7470  -28.6420   23.0790 C   0  0  0  0  0  3  0  0  0  0  0  0
  -25.9430  -32.4320   23.8020 C   0  0  0  0  0  3  0  0  0  0  0  0
  -25.6130  -33.8290   24.1540 N   0  0  0  0  0  0  0  0  0  0  0  0
  -25.9210  -34.9060   23.4190 C   0  0  0  0  0  0  0  0  0  0  0  0
  -26.5680  -34.8300   22.3720 O   0  0  0  0  0  0  0  0  0  0  0  0
  -25.0320  -33.9600   24.9690 H   0  0  0  0  0  0  0  0  0  0  0  0
  -24.1590  -36.6930   23.1750 C   0  0  0  0  0  1  0  0  0  0  0  0
  -25.4410  -36.2860   23.9200 C   0  0  0  0  0  3  0  0  0  0  0  0
  -27.5960  -37.1980   24.6720 C   0  0  0  0  0  1  0  0  0  0  0  0
  -26.4540  -37.3560   23.7750 N   0  0  0  0  0  0  0  0  0  0  0  0
  -26.0420  -38.2680   23.9470 H   0  0  0  0  0  0  0  0  0  0  0  0
  -26.4270  -31.6610   25.0930 C   0  0  1  0  0  0  0  0  0  0  0  0
  -25.3080  -31.4280   26.1380 C   0  0  0  0  0  1  0  0  0  0  0  0
  -27.0130  -30.2790   24.7300 C   0  0  0  0  0  1  0  0  0  0  0  0
  -27.5640  -32.4510   25.7800 C   0  0  0  0  0  1  0  0  0  0  0  0
  1  7  1  0
  2  4  1  0
  3  5  2  0
  4  8  1  0
  4  1  2  0
  5  1  1  0
  5  9  1  0
  6  2  2  0
  6  3  1  0
 10  6  1  0
 11 19  1  0
 12 17  1  0
 13 14  1  0
 13 12  1  0
 15 14  1  0
 15 24  1  0
 15 16  1  0
 17 11  1  0
 17 16  1  0
 18 11  2  0
 19  3  1  0
 19 20  1  0
 21 22  2  0
 22 41  1  0
 23 22  1  0
 23 26  1  0
 24 25  1  0
 24 21  1  0
 25 23  2  0
 26 27  1  0
 27 28  2  0
 29 32  1  0
 29 28  1  0
 30 29  2  0
 31 30  1  0
 31 26  2  0
 32 33  1  0
 33 34  1  0
 34 35  2  0
 36 35  1  0
 36 40  1  0
 37 36  2  0
 38 33  2  0
 38 37  1  0
 39 38  1  0
 41 42  1  0
 42 45  1  0
 42 44  1  0
 43 41  2  0
 46 47  1  0
 46 21  1  0
 48 46  1  0
 49  2  1  0
 49 50  1  0
 51 62  2  0
 52 50  1  0
 52 57  1  0
 53 61  1  0
 53 63  1  0
 54 60  1  0
 54 56  1  0
 55 61  1  0
 56 55  1  0
 57 56  2  0
 58 52  2  0
 59 58  1  0
 59 54  2  0
 60 53  1  0
 61 51  1  0
 63 65  2  0
 64 63  1  0
 66 64  1  0
 67 76  2  0
 67 72  1  0
 68 64  1  0
 68 72  1  0
 69 68  1  0
 70 71  1  0
 70 69  1  0
 71 67  1  0
 72 73  2  0
 73 74  1  0
 75 74  2  0
 76 75  1  0
 77 51  1  0
 77 78  1  0
 77 87  1  0
 78 81  1  0
 79 83  1  0
 79 78  1  0
 80 79  2  0
 83 82  1  0
 85 83  1  0
 85 86  1  0
 85 84  1  0
 87 90  1  1
 87 88  1  0
 89 87  1  0
M  ISO  4  11 100  19 100  49 101  50 101
M  END
>  <TORSDO>  (37) 
F 17

>  <SCORE>  (37) 
-16.403

>  <name>  (37) 
36

>  <ligand_id>  (37) 
36

>  <original_smiles>  (37) 
[H]c1c([H])c([H])c2c(c1[H])C([H])([H])C([H])([H])C([H])([H])C2([H])N([H])C(=O)C1([H])N(C(=O)C([H])(N([H])C(=O)C([H])(N([H])C([H])([H])[H])C([H])([H])[H])C(C([H])([H])[H])(C([H])([H])[H])C([H])([H])[H])C([H])([H])c2c([H])c(OC([H])([H])c3c(F)c(C([H])([H])[H])c(F)c(N([H])C(=O)N4C([H])([H])C([H])([H])C([H])([H])C([H])(n5nc(-c6c([H])c([H])c(Oc7c([H])c([H])c(F)c([H])c7F)c([H])c6[H])c(C(=O)N([H])[H])c5N([H])[H])C4([H])[H])c3Cl)c([H])c([H])c2C1([H])[H]

>  <smiles>  (37) 
[H]c1c([H])c([H])c2c(c1[H])C([H])([H])C([H])([H])C([H])([H])C2([H])N([H])C(=O)C1([H])N(C(=O)C([H])(N([H])C(=O)C([H])(N([H])C([H])([H])[H])C([H])([H])[H])C(C([H])([H])[H])(C([H])([H])[H])C([H])([H])[H])C([H])([H])c2c([H])c(OC([H])([H])c3c(F)c(C([H])([H])[H])c(F)c(N([H])C(=O)N4C([H])([H])C([H])([H])C([H])([H])C([H])(n5nc(-c6c([H])c([H])c(Oc7c([H])c([H])c(F)c([H])c7F)c([H])c6[H])c(C(=O)N([H])[H])c5N([H])[H])C4([H])[H])c3Cl)c([H])c([H])c2C1([H])[H]

$$$$
37:0:0
     RDKit          3D

 95103  0  0  1  0  0  0  0  0999 V2000
  -30.2640  -21.6520   20.5850 C   0  0  0  0  0  2  0  0  0  0  0  0
  -31.2950  -17.8790   20.1620 C   0  0  0  0  0  3  0  0  0  0  0  0
  -30.1620  -20.0940   20.3880 C   0  0  0  0  0  0  0  0  0  0  0  0
  -30.1070  -17.1610   20.4620 C   0  0  0  0  0  0  0  0  0  0  0  0
  -31.3200  -19.3060   20.1260 C   0  0  0  0  0  0  0  0  0  0  0  0
  -28.9710  -19.3750   20.6560 C   0  0  0  0  0  0  0  0  0  0  0  0
  -28.9460  -17.9490   20.6820 C   0  0  0  0  0  0  0  0  0  0  0  0
  -32.5000  -19.9240   19.8780 F   0  0  0  0  0  0  0  0  0  0  0  0
  -27.8350  -20.0640   20.9270 F   0  0  0  0  0  0  0  0  0  0  0  0
  -27.7760  -17.3190   20.9470 F   0  0  0  0  0  0  0  0  0  0  0  0
  -30.7210  -14.6640   20.0610 C   0  0  0  0  0  0  0  0  0  0  0  0
  -30.4030  -12.4670   18.9460 C   0  0  0  0  0  2  0  0  0  0  0  0
  -29.4060  -12.6580   17.7790 C   0  0  0  0  0  2  0  0  0  0  0  0
  -27.9500  -12.5290   18.2700 C   0  0  0  0  0  2  0  0  0  0  0  0
  -27.6750  -13.3650   19.5470 C   0  0  0  0  0  3  0  0  0  0  0  0
  -28.7750  -13.1400   20.6090 C   0  0  0  0  0  2  0  0  0  0  0  0
  -30.0700  -13.4600   19.9850 N   0  0  0  0  0  0  0  0  0  0  0  0
  -31.8550  -14.8140   19.5970 O   0  0  0  0  0  0  0  0  0  0  0  0
  -29.9760  -15.7040   20.5400 N   0  0  0  0  0  0  0  0  0  0  0  0
  -29.1090  -15.4020   20.9580 H   0  0  0  0  0  0  0  0  0  0  0  0
  -25.3250  -14.0110   20.3660 C   0  0  0  0  0  0  0  0  0  0  0  0
  -24.2560  -13.2580   20.7700 C   0  0  0  0  0  0  0  0  0  0  0  0
  -24.6850  -11.8980   20.7040 C   0  0  0  0  0  0  0  0  0  0  0  0
  -26.3390  -13.1100   20.0810 N   0  0  0  0  0  0  0  0  0  0  0  0
  -25.9600  -11.8330   20.3430 N   0  0  0  0  0  0  0  0  0  0  0  0
  -23.9380  -10.6500   20.9070 C   0  0  0  0  0  0  0  0  0  0  0  0
  -24.3560   -9.6840   21.8480 C   0  0  0  0  0  3  0  0  0  0  0  0
  -23.6100   -8.5000   22.0390 C   0  0  0  0  0  3  0  0  0  0  0  0
  -22.4310   -8.2750   21.2880 C   0  0  0  0  0  0  0  0  0  0  0  0
  -22.0320   -9.2300   20.3360 C   0  0  0  0  0  3  0  0  0  0  0  0
  -22.7790  -10.4040   20.1440 C   0  0  0  0  0  3  0  0  0  0  0  0
  -21.6580   -7.1440   21.3870 O   0  0  0  0  0  0  0  0  0  0  0  0
  -21.5570   -6.4430   22.5620 C   0  0  0  0  0  0  0  0  0  0  0  0
  -21.0980   -7.0450   23.7530 C   0  0  0  0  0  3  0  0  0  0  0  0
  -20.9440   -6.2700   24.9210 C   0  0  0  0  0  3  0  0  0  0  0  0
  -21.2380   -4.8950   24.8970 C   0  0  0  0  0  0  0  0  0  0  0  0
  -21.6900   -4.2910   23.7100 C   0  0  0  0  0  3  0  0  0  0  0  0
  -21.8460   -5.0620   22.5450 C   0  0  0  0  0  0  0  0  0  0  0  0
  -22.2620   -4.4720   21.3990 F   0  0  0  0  0  0  0  0  0  0  0  0
  -21.0830   -4.1480   26.0150 F   0  0  0  0  0  0  0  0  0  0  0  0
  -22.8820  -13.7640   21.1050 C   0  0  0  0  0  0  0  0  0  0  0  0
  -22.1830  -13.0840   22.0070 N   0  0  0  0  0  0  0  0  0  0  0  0
  -22.4400  -14.7960   20.6030 O   0  0  0  0  0  0  0  0  0  0  0  0
  -22.5530  -12.2480   22.4320 H   0  0  0  0  0  0  0  0  0  0  0  0
  -21.2630  -13.4050   22.2760 H   0  0  0  0  0  0  0  0  0  0  0  0
  -25.5140  -15.3800   20.1970 N   0  0  0  0  0  0  0  0  0  0  0  0
  -24.7700  -16.0510   20.3550 H   0  0  0  0  0  0  0  0  0  0  0  0
  -26.3610  -15.8050   19.8430 H   0  0  0  0  0  0  0  0  0  0  0  0
  -29.2420  -22.6050   19.9950 N   0  0  0  0  0  4  0  0  0  0  0  0
  -28.3300  -22.3030   20.3020 H   0  0  0  0  0  0  0  0  0  0  0  0
  -29.2690  -22.4790   18.9940 H   0  0  0  0  0  0  0  0  0  0  0  0
  -29.4860  -24.3640   21.8170 C   0  0  0  0  0  1  0  0  0  0  0  0
  -29.4130  -24.1000   20.2960 C   0  0  0  0  0  3  0  0  0  0  0  0
  -28.3120  -25.0590   19.6650 C   0  0  0  0  0  2  0  0  0  0  0  0
  -28.4430  -26.5170   19.8940 O   0  0  0  0  0  0  0  0  0  0  0  0
  -24.5290  -31.6600   23.0710 C   0  0  0  0  0  0  0  0  0  0  0  0
  -27.2820  -27.3020   19.8660 C   0  0  0  0  0  0  0  0  0  0  0  0
  -23.3590  -30.2570   21.4100 C   0  0  0  0  0  3  0  0  0  0  0  0
  -24.8500  -28.8060   19.9270 C   0  0  0  0  0  0  0  0  0  0  0  0
  -25.8800  -30.6840   21.2060 C   0  0  0  0  0  2  0  0  0  0  0  0
  -26.0050  -29.3280   20.5220 C   0  0  0  0  0  0  0  0  0  0  0  0
  -27.2230  -28.5890   20.4840 C   0  0  0  0  0  3  0  0  0  0  0  0
  -26.1030  -26.8320   19.2420 C   0  0  0  0  0  3  0  0  0  0  0  0
  -24.9000  -27.5620   19.2790 C   0  0  0  0  0  3  0  0  0  0  0  0
  -23.5810  -29.6260   20.0100 C   0  0  0  0  0  2  0  0  0  0  0  0
  -24.6080  -30.8830   21.9530 N   0  0  0  0  0  0  0  0  0  0  0  0
  -23.4430  -31.8810   23.6260 O   0  0  0  0  0  0  0  0  0  0  0  0
  -22.7510  -29.1900   22.3500 C   0  0  0  0  0  0  0  0  0  0  0  0
  -21.4320  -28.9590   22.2290 N   0  0  0  0  0  0  0  0  0  0  0  0
  -23.4620  -28.5730   23.1470 O   0  0  0  0  0  0  0  0  0  0  0  0
  -20.9150  -29.5120   21.5590 H   0  0  0  0  0  0  0  0  0  0  0  0
  -18.1090  -27.6210   22.7280 C   0  0  0  0  0  0  0  0  0  0  0  0
  -20.6580  -27.9720   22.9820 C   0  0  0  0  0  3  0  0  0  0  0  0
  -20.8090  -26.5600   22.3700 C   0  0  0  0  0  2  0  0  0  0  0  0
  -19.7110  -26.2200   21.3580 C   0  0  0  0  0  2  0  0  0  0  0  0
  -18.3310  -26.2960   22.0170 C   0  0  0  0  0  2  0  0  0  0  0  0
  -19.2020  -28.4160   23.1660 C   0  0  0  0  0  0  0  0  0  0  0  0
  -18.9400  -29.6550   23.7890 C   0  0  0  0  0  3  0  0  0  0  0  0
  -17.6200  -30.1020   23.9790 C   0  0  0  0  0  3  0  0  0  0  0  0
  -16.5420  -29.3040   23.5580 C   0  0  0  0  0  3  0  0  0  0  0  0
  -16.7870  -28.0660   22.9360 C   0  0  0  0  0  3  0  0  0  0  0  0
  -25.7960  -32.3240   23.6940 C   0  0  0  0  0  3  0  0  0  0  0  0
  -26.3480  -31.5500   24.9540 C   0  0  1  0  0  0  0  0  0  0  0  0
  -25.2720  -31.2550   26.0250 C   0  0  0  0  0  1  0  0  0  0  0  0
  -26.9760  -30.2010   24.5330 C   0  0  0  0  0  1  0  0  0  0  0  0
  -27.4740  -32.3720   25.6230 C   0  0  0  0  0  1  0  0  0  0  0  0
  -25.4420  -33.7050   24.0510 N   0  0  0  0  0  0  0  0  0  0  0  0
  -25.7240  -34.7800   23.3040 C   0  0  0  0  0  0  0  0  0  0  0  0
  -26.3820  -34.7170   22.2610 O   0  0  0  0  0  0  0  0  0  0  0  0
  -24.8560  -33.8260   24.8630 H   0  0  0  0  0  0  0  0  0  0  0  0
  -23.9200  -36.5090   23.0150 C   0  0  0  0  0  1  0  0  0  0  0  0
  -25.1950  -36.1430   23.7900 C   0  0  0  0  0  3  0  0  0  0  0  0
  -27.3110  -37.1050   24.5830 C   0  0  0  0  0  1  0  0  0  0  0  0
  -26.1830  -37.2370   23.6650 N   0  0  0  0  0  0  0  0  0  0  0  0
  -25.7450  -38.1390   23.8290 H   0  0  0  0  0  0  0  0  0  0  0  0
  2  4  1  0
  3  1  1  0
  3  6  2  0
  4 19  1  0
  4  7  2  0
  5  2  2  0
  5  3  1  0
  6  7  1  0
  6  9  1  0
  7 10  1  0
  8  5  1  0
 11 19  1  0
 12 17  1  0
 13 14  1  0
 13 12  1  0
 15 14  1  0
 15 24  1  0
 15 16  1  0
 17 11  1  0
 17 16  1  0
 18 11  2  0
 19 20  1  0
 21 22  2  0
 22 41  1  0
 23 22  1  0
 23 26  1  0
 24 25  1  0
 24 21  1  0
 25 23  2  0
 26 27  1  0
 27 28  2  0
 29 32  1  0
 29 28  1  0
 30 29  2  0
 31 30  1  0
 31 26  2  0
 32 33  1  0
 33 34  1  0
 34 35  2  0
 36 35  1  0
 36 40  1  0
 37 36  2  0
 38 33  2  0
 38 37  1  0
 39 38  1  0
 41 42  1  0
 42 45  1  0
 42 44  1  0
 43 41  2  0
 46 47  1  0
 46 21  1  0
 48 46  1  0
 49 53  1  0
 49 50  1  0
 49  1  1  0
 51 49  1  0
 53 52  1  0
 54 55  1  0
 54 53  1  0
 56 67  2  0
 57 55  1  0
 57 62  1  0
 58 66  1  0
 58 68  1  0
 59 65  1  0
 59 61  1  0
 60 66  1  0
 61 60  1  0
 62 61  2  0
 63 64  1  0
 63 57  2  0
 64 59  2  0
 65 58  1  0
 66 56  1  0
 68 70  2  0
 69 68  1  0
 71 69  1  0
 72 81  2  0
 72 77  1  0
 73 69  1  0
 73 77  1  0
 74 73  1  0
 75 76  1  0
 75 74  1  0
 76 72  1  0
 77 78  2  0
 78 79  1  0
 80 79  2  0
 81 80  1  0
 82 56  1  0
 82 87  1  0
 82 83  1  0
 83 86  1  1
 83 84  1  0
 85 83  1  0
 87 90  1  0
 88 92  1  0
 88 87  1  0
 89 88  2  0
 92 91  1  0
 94 92  1  0
 94 95  1  0
 94 93  1  0
M  ISO  4  11 100  19 100  54 101  55 101
M  END
>  <TORSDO>  (38) 
F 20

>  <SCORE>  (38) 
-13.430

>  <name>  (38) 
37

>  <ligand_id>  (38) 
37

>  <original_smiles>  (38) 
[H]c1c([H])c([H])c2c(c1[H])C([H])([H])C([H])([H])C([H])([H])C2([H])N([H])C(=O)C1([H])N(C(=O)C([H])(N([H])C(=O)C([H])(N([H])C([H])([H])[H])C([H])([H])[H])C(C([H])([H])[H])(C([H])([H])[H])C([H])([H])[H])C([H])([H])c2c([H])c(OC([H])([H])C([H])(C([H])([H])[H])[N+]([H])([H])C([H])([H])c3c(F)c([H])c(N([H])C(=O)N4C([H])([H])C([H])([H])C([H])([H])C([H])(n5nc(-c6c([H])c([H])c(Oc7c([H])c([H])c(F)c([H])c7F)c([H])c6[H])c(C(=O)N([H])[H])c5N([H])[H])C4([H])[H])c(F)c3F)c([H])c([H])c2C1([H])[H]

>  <smiles>  (38) 
[H]c1c([H])c([H])c2c(c1[H])C([H])([H])C([H])([H])C([H])([H])C2([H])N([H])C(=O)C1([H])N(C(=O)C([H])(N([H])C(=O)C([H])(N([H])C([H])([H])[H])C([H])([H])[H])C(C([H])([H])[H])(C([H])([H])[H])C([H])([H])[H])C([H])([H])c2c([H])c(OC([H])([H])C([H])(C([H])([H])[H])[N+]([H])([H])C([H])([H])c3c(F)c([H])c(N([H])C(=O)N4C([H])([H])C([H])([H])C([H])([H])C([H])(n5nc(-c6c([H])c([H])c(Oc7c([H])c([H])c(F)c([H])c7F)c([H])c6[H])c(C(=O)N([H])[H])c5N([H])[H])C4([H])[H])c(F)c3F)c([H])c([H])c2C1([H])[H]

$$$$
38:0:0
     RDKit          3D

 90 98  0  0  1  0  0  0  0  0999 V2000
  -30.0200  -21.0540   18.7020 C   0  0  0  0  0  3  0  0  0  0  0  0
  -29.2270  -21.0290   19.8680 C   0  0  0  0  0  0  0  0  0  0  0  0
  -29.7700  -18.2570   19.8170 C   0  0  0  0  0  0  0  0  0  0  0  0
  -30.6240  -19.9010   18.1300 C   0  0  0  0  0  0  0  0  0  0  0  0
  -29.1280  -19.5600   20.3840 C   0  0  0  0  0  0  0  0  0  0  0  0
  -30.5080  -18.5780   18.6500 C   0  0  0  0  0  0  0  0  0  0  0  0
  -31.3700  -20.0790   17.0090 F   0  0  0  0  0  0  0  0  0  0  0  0
  -28.3820  -19.3910   21.5020 F   0  0  0  0  0  0  0  0  0  0  0  0
  -31.1120  -17.5860   17.9560 F   0  0  0  0  0  0  0  0  0  0  0  0
  -30.4240  -15.3830   19.9950 C   0  0  0  0  0  0  0  0  0  0  0  0
  -30.3840  -12.9170   19.1510 C   0  0  0  0  0  2  0  0  0  0  0  0
  -29.4220  -12.7010   17.9540 C   0  0  0  0  0  2  0  0  0  0  0  0
  -28.0010  -12.3930   18.4500 C   0  0  0  0  0  2  0  0  0  0  0  0
  -27.5760  -13.3670   19.5780 C   0  0  0  0  0  3  0  0  0  0  0  0
  -28.6620  -13.5420   20.6660 C   0  0  0  0  0  2  0  0  0  0  0  0
  -29.8660  -14.0640   19.9930 N   0  0  0  0  0  0  0  0  0  0  0  0
  -31.6280  -15.3650   19.7040 O   0  0  0  0  0  0  0  0  0  0  0  0
  -29.6760  -16.6650   20.2030 N   0  0  0  0  0  0  0  0  0  0  0  0
  -28.7760  -16.4600   20.6120 H   0  0  0  0  0  0  0  0  0  0  0  0
  -25.2340  -13.9200   20.4100 C   0  0  0  0  0  0  0  0  0  0  0  0
  -24.1820  -13.1390   20.8020 C   0  0  0  0  0  0  0  0  0  0  0  0
  -24.6510  -11.7920   20.7570 C   0  0  0  0  0  0  0  0  0  0  0  0
  -26.2690  -13.0470   20.1340 N   0  0  0  0  0  0  0  0  0  0  0  0
  -25.9340  -11.7600   20.4090 N   0  0  0  0  0  0  0  0  0  0  0  0
  -23.9330  -10.5270   20.9630 C   0  0  0  0  0  0  0  0  0  0  0  0
  -24.3820   -9.5600   21.8910 C   0  0  0  0  0  3  0  0  0  0  0  0
  -23.6570   -8.3640   22.0890 C   0  0  0  0  0  3  0  0  0  0  0  0
  -22.4730   -8.1250   21.3530 C   0  0  0  0  0  0  0  0  0  0  0  0
  -22.0400   -9.0800   20.4170 C   0  0  0  0  0  3  0  0  0  0  0  0
  -22.7640  -10.2660   20.2190 C   0  0  0  0  0  3  0  0  0  0  0  0
  -21.7150   -6.9840   21.4610 O   0  0  0  0  0  0  0  0  0  0  0  0
  -21.6790   -6.2500   22.6200 C   0  0  0  0  0  0  0  0  0  0  0  0
  -21.2560   -6.8100   23.8450 C   0  0  0  0  0  3  0  0  0  0  0  0
  -21.1710   -6.0030   24.9980 C   0  0  0  0  0  3  0  0  0  0  0  0
  -21.4990   -4.6370   24.9250 C   0  0  0  0  0  0  0  0  0  0  0  0
  -21.9130   -4.0740   23.7050 C   0  0  0  0  0  3  0  0  0  0  0  0
  -22.0010   -4.8790   22.5550 C   0  0  0  0  0  0  0  0  0  0  0  0
  -22.3810   -4.3280   21.3780 F   0  0  0  0  0  0  0  0  0  0  0  0
  -21.4080   -3.8590   26.0290 F   0  0  0  0  0  0  0  0  0  0  0  0
  -22.7940  -13.6160   21.1070 C   0  0  0  0  0  0  0  0  0  0  0  0
  -22.0890  -12.9190   21.9920 N   0  0  0  0  0  0  0  0  0  0  0  0
  -22.3420  -14.6430   20.6030 O   0  0  0  0  0  0  0  0  0  0  0  0
  -22.4700  -12.0850   22.4150 H   0  0  0  0  0  0  0  0  0  0  0  0
  -21.1630  -13.2250   22.2530 H   0  0  0  0  0  0  0  0  0  0  0  0
  -25.3900  -15.2910   20.2350 N   0  0  0  0  0  0  0  0  0  0  0  0
  -24.6260  -15.9430   20.3790 H   0  0  0  0  0  0  0  0  0  0  0  0
  -26.2290  -15.7420   19.8940 H   0  0  0  0  0  0  0  0  0  0  0  0
  -28.7360  -22.6150   20.4830 C   0  0  0  0  0  2  0  0  0  0  0  0
  -28.2400  -24.2270   19.7700 C   0  0  0  0  0  2  0  0  0  0  0  0
  -28.2390  -25.8320   20.2460 O   0  0  0  0  0  0  0  0  0  0  0  0
  -24.6600  -31.8210   23.1800 C   0  0  0  0  0  0  0  0  0  0  0  0
  -27.2230  -26.9340   20.1400 C   0  0  0  0  0  0  0  0  0  0  0  0
  -23.4710  -30.4350   21.5320 C   0  0  0  0  0  3  0  0  0  0  0  0
  -24.9150  -28.8260   20.1040 C   0  0  0  0  0  0  0  0  0  0  0  0
  -26.0350  -30.6340   21.3960 C   0  0  0  0  0  2  0  0  0  0  0  0
  -26.1040  -29.2270   20.7280 C   0  0  0  0  0  0  0  0  0  0  0  0
  -27.2460  -28.3020   20.7250 C   0  0  0  0  0  3  0  0  0  0  0  0
  -26.0050  -26.6930   19.4670 C   0  0  0  0  0  3  0  0  0  0  0  0
  -24.8940  -27.5800   19.4540 C   0  0  0  0  0  3  0  0  0  0  0  0
  -23.6980  -29.7530   20.1550 C   0  0  0  0  0  2  0  0  0  0  0  0
  -24.7440  -30.9900   22.0900 N   0  0  0  0  0  0  0  0  0  0  0  0
  -23.5680  -32.1130   23.6970 O   0  0  0  0  0  0  0  0  0  0  0  0
  -22.7700  -29.4410   22.4960 C   0  0  0  0  0  0  0  0  0  0  0  0
  -21.4360  -29.2840   22.3730 N   0  0  0  0  0  0  0  0  0  0  0  0
  -23.4300  -28.8120   23.3260 O   0  0  0  0  0  0  0  0  0  0  0  0
  -20.9480  -29.8580   21.7010 H   0  0  0  0  0  0  0  0  0  0  0  0
  -18.0590  -28.0740   22.8750 C   0  0  0  0  0  0  0  0  0  0  0  0
  -20.6170  -28.3420   23.1440 C   0  0  0  0  0  3  0  0  0  0  0  0
  -20.7200  -26.9080   22.5770 C   0  0  0  0  0  2  0  0  0  0  0  0
  -19.6310  -26.5940   21.5440 C   0  0  0  0  0  2  0  0  0  0  0  0
  -18.2390  -26.7370   22.1700 C   0  0  0  0  0  2  0  0  0  0  0  0
  -19.1750  -28.8350   23.3140 C   0  0  0  0  0  0  0  0  0  0  0  0
  -18.9510  -30.0880   23.9280 C   0  0  0  0  0  3  0  0  0  0  0  0
  -17.6450  -30.5820   24.1030 C   0  0  0  0  0  3  0  0  0  0  0  0
  -16.5430  -29.8210   23.6790 C   0  0  0  0  0  3  0  0  0  0  0  0
  -16.7510  -28.5680   23.0720 C   0  0  0  0  0  3  0  0  0  0  0  0
  -25.9270  -32.4600   23.8200 C   0  0  0  0  0  3  0  0  0  0  0  0
  -25.6120  -33.8640   24.1440 N   0  0  0  0  0  0  0  0  0  0  0  0
  -25.9570  -34.9240   23.4020 C   0  0  0  0  0  0  0  0  0  0  0  0
  -26.6360  -34.8250   22.3770 O   0  0  0  0  0  0  0  0  0  0  0  0
  -25.0020  -34.0160   24.9350 H   0  0  0  0  0  0  0  0  0  0  0  0
  -24.2430  -36.7380   23.0500 C   0  0  0  0  0  1  0  0  0  0  0  0
  -25.4750  -36.3140   23.8660 C   0  0  0  0  0  3  0  0  0  0  0  0
  -27.6060  -37.1890   24.7230 C   0  0  0  0  0  1  0  0  0  0  0  0
  -26.5160  -37.3610   23.7660 N   0  0  0  0  0  0  0  0  0  0  0  0
  -26.1120  -38.2850   23.9060 H   0  0  0  0  0  0  0  0  0  0  0  0
  -26.4160  -31.7020   25.1150 C   0  0  1  0  0  0  0  0  0  0  0  0
  -25.3060  -31.4890   26.1700 C   0  0  0  0  0  1  0  0  0  0  0  0
  -26.9970  -30.3160   24.7600 C   0  0  0  0  0  1  0  0  0  0  0  0
  -27.5590  -32.5000   25.7840 C   0  0  0  0  0  1  0  0  0  0  0  0
  1  2  1  0
  2  5  2  0
  2 48  1  0
  3 18  1  0
  3  5  1  0
  4  6  1  0
  4  1  2  0
  5  8  1  0
  6  3  2  0
  7  4  1  0
  9  6  1  0
 10 18  1  0
 11 16  1  0
 12 13  1  0
 12 11  1  0
 14 13  1  0
 14 23  1  0
 14 15  1  0
 16 10  1  0
 16 15  1  0
 17 10  2  0
 18 19  1  0
 20 21  2  0
 21 40  1  0
 22 21  1  0
 22 25  1  0
 23 24  1  0
 23 20  1  0
 24 22  2  0
 25 26  1  0
 26 27  2  0
 28 31  1  0
 28 27  1  0
 29 28  2  0
 30 29  1  0
 30 25  2  0
 31 32  1  0
 32 33  1  0
 33 34  2  0
 35 34  1  0
 35 39  1  0
 36 35  2  0
 37 32  2  0
 37 36  1  0
 38 37  1  0
 40 41  1  0
 41 44  1  0
 41 43  1  0
 42 40  2  0
 45 46  1  0
 45 20  1  0
 47 45  1  0
 49 50  1  0
 49 48  1  0
 51 62  2  0
 52 50  1  0
 52 57  1  0
 53 61  1  0
 53 63  1  0
 54 60  1  0
 54 56  1  0
 55 61  1  0
 56 55  1  0
 57 56  2  0
 58 52  2  0
 59 58  1  0
 59 54  2  0
 60 53  1  0
 61 51  1  0
 63 65  2  0
 64 63  1  0
 66 64  1  0
 67 76  2  0
 67 72  1  0
 68 64  1  0
 68 72  1  0
 69 68  1  0
 70 71  1  0
 70 69  1  0
 71 67  1  0
 72 73  2  0
 73 74  1  0
 75 74  2  0
 76 75  1  0
 77 51  1  0
 77 78  1  0
 77 87  1  0
 78 81  1  0
 79 83  1  0
 79 78  1  0
 80 79  2  0
 83 82  1  0
 85 83  1  0
 85 86  1  0
 85 84  1  0
 87 90  1  1
 87 88  1  0
 89 87  1  0
M  ISO  4  10 100  18 100  49 101  50 101
M  END
>  <TORSDO>  (39) 
F 18

>  <SCORE>  (39) 
-15.680

>  <name>  (39) 
38

>  <ligand_id>  (39) 
38

>  <original_smiles>  (39) 
[H]c1c([H])c([H])c2c(c1[H])C([H])([H])C([H])([H])C([H])([H])C2([H])N([H])C(=O)C1([H])N(C(=O)C([H])(N([H])C(=O)C([H])(N([H])C([H])([H])[H])C([H])([H])[H])C(C([H])([H])[H])(C([H])([H])[H])C([H])([H])[H])C([H])([H])c2c([H])c(OC([H])([H])C([H])([H])c3c([H])c(F)c(F)c(N([H])C(=O)N4C([H])([H])C([H])([H])C([H])([H])C([H])(n5nc(-c6c([H])c([H])c(Oc7c([H])c([H])c(F)c([H])c7F)c([H])c6[H])c(C(=O)N([H])[H])c5N([H])[H])C4([H])[H])c3F)c([H])c([H])c2C1([H])[H]

>  <smiles>  (39) 
[H]c1c([H])c([H])c2c(c1[H])C([H])([H])C([H])([H])C([H])([H])C2([H])N([H])C(=O)C1([H])N(C(=O)C([H])(N([H])C(=O)C([H])(N([H])C([H])([H])[H])C([H])([H])[H])C(C([H])([H])[H])(C([H])([H])[H])C([H])([H])[H])C([H])([H])c2c([H])c(OC([H])([H])C([H])([H])c3c([H])c(F)c(F)c(N([H])C(=O)N4C([H])([H])C([H])([H])C([H])([H])C([H])(n5nc(-c6c([H])c([H])c(Oc7c([H])c([H])c(F)c([H])c7F)c([H])c6[H])c(C(=O)N([H])[H])c5N([H])[H])C4([H])[H])c3F)c([H])c([H])c2C1([H])[H]

$$$$
39:0:0
     RDKit          3D

 92100  0  0  1  0  0  0  0  0999 V2000
  -29.1490  -21.1400   19.8940 C   0  0  0  0  0  0  0  0  0  0  0  0
  -29.7450  -18.3620   19.8140 C   0  0  0  0  0  0  0  0  0  0  0  0
  -29.1840  -19.6750   20.4500 C   0  0  0  0  0  0  0  0  0  0  0  0
  -29.7330  -21.1440   18.6070 C   0  0  0  0  0  0  0  0  0  0  0  0
  -30.2820  -18.6720   18.5430 C   0  0  0  0  0  0  0  0  0  0  0  0
  -30.2680  -19.9810   17.9810 C   0  0  0  0  0  0  0  0  0  0  0  0
  -28.6400  -19.5090   21.6790 F   0  0  0  0  0  0  0  0  0  0  0  0
  -29.8200  -22.3160   17.9300 F   0  0  0  0  0  0  0  0  0  0  0  0
  -30.7980  -17.6700   17.7890 F   0  0  0  0  0  0  0  0  0  0  0  0
  -30.8050  -20.1330   16.7450 F   0  0  0  0  0  0  0  0  0  0  0  0
  -30.4630  -15.4840   19.9180 C   0  0  0  0  0  0  0  0  0  0  0  0
  -30.4150  -13.0190   19.0460 C   0  0  0  0  0  2  0  0  0  0  0  0
  -29.4320  -12.8030   17.8660 C   0  0  0  0  0  2  0  0  0  0  0  0
  -28.0150  -12.5070   18.3840 C   0  0  0  0  0  2  0  0  0  0  0  0
  -27.6220  -13.4560   19.5420 C   0  0  0  0  0  3  0  0  0  0  0  0
  -28.7300  -13.6180   20.6090 C   0  0  0  0  0  2  0  0  0  0  0  0
  -29.9150  -14.1570   19.9200 N   0  0  0  0  0  0  0  0  0  0  0  0
  -31.6500  -15.4750   19.5570 O   0  0  0  0  0  0  0  0  0  0  0  0
  -29.7340  -16.7650   20.2210 N   0  0  0  0  0  0  0  0  0  0  0  0
  -28.9090  -16.5490   20.7600 H   0  0  0  0  0  0  0  0  0  0  0  0
  -25.3070  -13.9910   20.4570 C   0  0  0  0  0  0  0  0  0  0  0  0
  -24.2670  -13.2070   20.8700 C   0  0  0  0  0  0  0  0  0  0  0  0
  -24.7270  -11.8570   20.7740 C   0  0  0  0  0  0  0  0  0  0  0  0
  -26.3290  -13.1220   20.1240 N   0  0  0  0  0  0  0  0  0  0  0  0
  -25.9970  -11.8290   20.3820 N   0  0  0  0  0  0  0  0  0  0  0  0
  -24.0070  -10.5920   20.9740 C   0  0  0  0  0  0  0  0  0  0  0  0
  -24.4650   -9.6150   21.8850 C   0  0  0  0  0  3  0  0  0  0  0  0
  -23.7410   -8.4180   22.0760 C   0  0  0  0  0  3  0  0  0  0  0  0
  -22.5450   -8.1890   21.3550 C   0  0  0  0  0  0  0  0  0  0  0  0
  -22.1050   -9.1540   20.4330 C   0  0  0  0  0  3  0  0  0  0  0  0
  -22.8300  -10.3430   20.2400 C   0  0  0  0  0  3  0  0  0  0  0  0
  -21.7900   -7.0460   21.4570 O   0  0  0  0  0  0  0  0  0  0  0  0
  -21.7470   -6.3110   22.6160 C   0  0  0  0  0  0  0  0  0  0  0  0
  -21.2830   -6.8620   23.8290 C   0  0  0  0  0  3  0  0  0  0  0  0
  -21.1890   -6.0530   24.9790 C   0  0  0  0  0  3  0  0  0  0  0  0
  -21.5510   -4.6940   24.9160 C   0  0  0  0  0  0  0  0  0  0  0  0
  -22.0090   -4.1420   23.7070 C   0  0  0  0  0  3  0  0  0  0  0  0
  -22.1030   -4.9490   22.5590 C   0  0  0  0  0  0  0  0  0  0  0  0
  -22.5250   -4.4070   21.3910 F   0  0  0  0  0  0  0  0  0  0  0  0
  -21.4540   -3.9140   26.0180 F   0  0  0  0  0  0  0  0  0  0  0  0
  -22.8920  -13.6810   21.2340 C   0  0  0  0  0  0  0  0  0  0  0  0
  -22.2110  -12.9620   22.1200 N   0  0  0  0  0  0  0  0  0  0  0  0
  -22.4330  -14.7240   20.7700 O   0  0  0  0  0  0  0  0  0  0  0  0
  -22.5980  -12.1190   22.5160 H   0  0  0  0  0  0  0  0  0  0  0  0
  -21.2890  -13.2610   22.4080 H   0  0  0  0  0  0  0  0  0  0  0  0
  -25.4630  -15.3670   20.3060 N   0  0  0  0  0  0  0  0  0  0  0  0
  -24.7020  -16.0150   20.4790 H   0  0  0  0  0  0  0  0  0  0  0  0
  -26.2790  -15.8120   19.9070 H   0  0  0  0  0  0  0  0  0  0  0  0
  -28.7000  -22.7180   20.5090 C   0  0  0  0  0  0  0  0  0  0  0  0
  -28.7280  -22.8050   21.7410 O   0  0  0  0  0  0  0  0  0  0  0  0
  -28.1600  -24.2500   19.7670 C   0  0  0  0  0  2  0  0  0  0  0  0
  -28.1960  -25.8410   20.3130 O   0  0  0  0  0  0  0  0  0  0  0  0
  -24.6290  -31.8860   23.2050 C   0  0  0  0  0  0  0  0  0  0  0  0
  -27.2030  -26.9720   20.1900 C   0  0  0  0  0  0  0  0  0  0  0  0
  -23.4450  -30.4880   21.5600 C   0  0  0  0  0  3  0  0  0  0  0  0
  -24.9040  -28.8830   20.1350 C   0  0  0  0  0  0  0  0  0  0  0  0
  -26.0140  -30.6900   21.4300 C   0  0  0  0  0  2  0  0  0  0  0  0
  -26.0880  -29.2770   20.7690 C   0  0  0  0  0  0  0  0  0  0  0  0
  -27.2260  -28.3410   20.7760 C   0  0  0  0  0  3  0  0  0  0  0  0
  -25.9930  -26.7490   19.4910 C   0  0  0  0  0  3  0  0  0  0  0  0
  -24.8860  -27.6430   19.4750 C   0  0  0  0  0  3  0  0  0  0  0  0
  -23.6830  -29.8060   20.1840 C   0  0  0  0  0  2  0  0  0  0  0  0
  -24.7180  -31.0510   22.1180 N   0  0  0  0  0  0  0  0  0  0  0  0
  -23.5360  -32.1740   23.7210 O   0  0  0  0  0  0  0  0  0  0  0  0
  -22.7470  -29.4930   22.5250 C   0  0  0  0  0  0  0  0  0  0  0  0
  -21.4170  -29.3310   22.4000 N   0  0  0  0  0  0  0  0  0  0  0  0
  -23.4100  -28.8670   23.3550 O   0  0  0  0  0  0  0  0  0  0  0  0
  -20.9320  -29.8860   21.7090 H   0  0  0  0  0  0  0  0  0  0  0  0
  -18.0330  -28.1190   22.9130 C   0  0  0  0  0  0  0  0  0  0  0  0
  -20.5930  -28.3890   23.1690 C   0  0  0  0  0  3  0  0  0  0  0  0
  -20.6950  -26.9590   22.5890 C   0  0  0  0  0  2  0  0  0  0  0  0
  -19.5900  -26.6400   21.5760 C   0  0  0  0  0  2  0  0  0  0  0  0
  -18.2110  -26.7760   22.2250 C   0  0  0  0  0  2  0  0  0  0  0  0
  -19.1510  -28.8840   23.3420 C   0  0  0  0  0  0  0  0  0  0  0  0
  -18.9280  -30.1380   23.9500 C   0  0  0  0  0  3  0  0  0  0  0  0
  -17.6210  -30.6300   24.1310 C   0  0  0  0  0  3  0  0  0  0  0  0
  -16.5190  -29.8640   23.7160 C   0  0  0  0  0  3  0  0  0  0  0  0
  -16.7250  -28.6100   23.1120 C   0  0  0  0  0  3  0  0  0  0  0  0
  -25.8940  -32.5340   23.8440 C   0  0  0  0  0  3  0  0  0  0  0  0
  -25.5780  -33.9400   24.1550 N   0  0  0  0  0  0  0  0  0  0  0  0
  -25.9220  -34.9930   23.4010 C   0  0  0  0  0  0  0  0  0  0  0  0
  -26.6010  -34.8820   22.3770 O   0  0  0  0  0  0  0  0  0  0  0  0
  -24.9750  -34.1000   24.9490 H   0  0  0  0  0  0  0  0  0  0  0  0
  -24.2130  -36.8060   23.0260 C   0  0  0  0  0  1  0  0  0  0  0  0
  -25.4420  -36.3880   23.8510 C   0  0  0  0  0  3  0  0  0  0  0  0
  -27.5670  -37.2690   24.7150 C   0  0  0  0  0  1  0  0  0  0  0  0
  -26.4840  -37.4340   23.7490 N   0  0  0  0  0  0  0  0  0  0  0  0
  -26.0820  -38.3580   23.8780 H   0  0  0  0  0  0  0  0  0  0  0  0
  -26.3800  -31.7880   25.1500 C   0  0  1  0  0  0  0  0  0  0  0  0
  -25.2640  -31.5780   26.1990 C   0  0  0  0  0  1  0  0  0  0  0  0
  -26.9660  -30.4000   24.8090 C   0  0  0  0  0  1  0  0  0  0  0  0
  -27.5190  -32.5930   25.8180 C   0  0  0  0  0  1  0  0  0  0  0  0
  1  3  1  0
  1 49  1  0
  2 19  1  0
  2  3  2  0
  3  7  1  0
  4  1  2  0
  5  2  1  0
  6  5  2  0
  6  4  1  0
  8  4  1  0
  9  5  1  0
 10  6  1  0
 11 17  1  0
 11 19  1  0
 12 17  1  0
 13 14  1  0
 13 12  1  0
 15 14  1  0
 15 24  1  0
 15 16  1  0
 17 16  1  0
 18 11  2  0
 19 20  1  0
 21 22  2  0
 22 41  1  0
 23 22  1  0
 23 26  1  0
 24 25  1  0
 24 21  1  0
 25 23  2  0
 26 27  1  0
 27 28  2  0
 29 32  1  0
 29 28  1  0
 30 29  2  0
 31 30  1  0
 31 26  2  0
 32 33  1  0
 33 34  1  0
 34 35  2  0
 36 35  1  0
 36 40  1  0
 37 36  2  0
 38 33  2  0
 38 37  1  0
 39 38  1  0
 41 42  1  0
 42 45  1  0
 42 44  1  0
 43 41  2  0
 46 21  1  0
 46 47  1  0
 48 46  1  0
 49 50  2  0
 51 52  1  0
 51 49  1  0
 53 64  2  0
 54 52  1  0
 54 59  1  0
 55 63  1  0
 55 65  1  0
 56 62  1  0
 56 58  1  0
 57 63  1  0
 58 59  2  0
 58 57  1  0
 60 54  2  0
 61 60  1  0
 61 56  2  0
 62 55  1  0
 63 53  1  0
 65 67  2  0
 66 65  1  0
 68 66  1  0
 69 78  2  0
 69 74  1  0
 70 66  1  0
 70 74  1  0
 71 70  1  0
 72 73  1  0
 72 71  1  0
 73 69  1  0
 74 75  2  0
 75 76  1  0
 77 76  2  0
 78 77  1  0
 79 53  1  0
 79 80  1  0
 79 89  1  0
 80 83  1  0
 81 85  1  0
 81 80  1  0
 82 81  2  0
 85 84  1  0
 87 85  1  0
 87 88  1  0
 87 86  1  0
 89 92  1  1
 89 90  1  0
 91 89  1  0
M  ISO  4  11 100  19 100  51 101  52 101
M  END
>  <TORSDO>  (40) 
F 18

>  <SCORE>  (40) 
-15.679

>  <name>  (40) 
39

>  <ligand_id>  (40) 
39

>  <original_smiles>  (40) 
[H]c1c([H])c([H])c2c(c1[H])C([H])([H])C([H])([H])C([H])([H])C2([H])N([H])C(=O)C1([H])N(C(=O)C([H])(N([H])C(=O)C([H])(N([H])C([H])([H])[H])C([H])([H])[H])C(C([H])([H])[H])(C([H])([H])[H])C([H])([H])[H])C([H])([H])c2c([H])c(OC([H])([H])C(=O)c3c(F)c(F)c(F)c(N([H])C(=O)N4C([H])([H])C([H])([H])C([H])([H])C([H])(n5nc(-c6c([H])c([H])c(Oc7c([H])c([H])c(F)c([H])c7F)c([H])c6[H])c(C(=O)N([H])[H])c5N([H])[H])C4([H])[H])c3F)c([H])c([H])c2C1([H])[H]

>  <smiles>  (40) 
[H]c1c([H])c([H])c2c(c1[H])C([H])([H])C([H])([H])C([H])([H])C2([H])N([H])C(=O)C1([H])N(C(=O)C([H])(N([H])C(=O)C([H])(N([H])C([H])([H])[H])C([H])([H])[H])C(C([H])([H])[H])(C([H])([H])[H])C([H])([H])[H])C([H])([H])c2c([H])c(OC([H])([H])C(=O)c3c(F)c(F)c(F)c(N([H])C(=O)N4C([H])([H])C([H])([H])C([H])([H])C([H])(n5nc(-c6c([H])c([H])c(Oc7c([H])c([H])c(F)c([H])c7F)c([H])c6[H])c(C(=O)N([H])[H])c5N([H])[H])C4([H])[H])c3F)c([H])c([H])c2C1([H])[H]

$$$$
40:0:0
     RDKit          3D

 94101  0  0  1  0  0  0  0  0999 V2000
  -27.3510  -23.4460   20.8780 C   0  0  0  0  0  3  0  0  0  0  0  0
  -28.1160  -25.4410   19.5540 C   0  0  0  0  0  0  0  0  0  0  0  0
  -27.0240  -23.5600   18.4100 C   0  0  0  0  0  1  0  0  0  0  0  0
  -27.4920  -24.2360   19.6300 N   0  0  0  0  0  0  0  0  0  0  0  0
  -28.7380  -25.9330   20.5010 O   0  0  0  0  0  0  0  0  0  0  0  0
  -28.0400  -26.2510   18.2400 C   0  0  0  0  0  2  0  0  0  0  0  0
  -27.9510  -27.6540   18.5120 O   0  0  0  0  0  0  0  0  0  0  0  0
  -24.4720  -31.7480   23.1320 C   0  0  0  0  0  0  0  0  0  0  0  0
  -26.7300  -28.2090   18.8330 C   0  0  0  0  0  0  0  0  0  0  0  0
  -23.0550  -30.6010   21.4580 C   0  0  0  0  0  3  0  0  0  0  0  0
  -24.3030  -29.4750   19.5400 C   0  0  0  0  0  0  0  0  0  0  0  0
  -25.4870  -31.1840   20.9290 C   0  0  0  0  0  2  0  0  0  0  0  0
  -25.5190  -29.9700   20.0250 C   0  0  0  0  0  0  0  0  0  0  0  0
  -26.7300  -29.3450   19.6700 C   0  0  0  0  0  3  0  0  0  0  0  0
  -25.4930  -27.7140   18.3550 C   0  0  0  0  0  3  0  0  0  0  0  0
  -24.2830  -28.3440   18.7060 C   0  0  0  0  0  3  0  0  0  0  0  0
  -23.0500  -30.2110   19.9560 C   0  0  0  0  0  2  0  0  0  0  0  0
  -24.3660  -31.1820   21.8970 N   0  0  0  0  0  0  0  0  0  0  0  0
  -23.4910  -31.8320   23.8830 O   0  0  0  0  0  0  0  0  0  0  0  0
  -22.6230  -29.3700   22.2870 C   0  0  0  0  0  0  0  0  0  0  0  0
  -21.3370  -29.0010   22.1770 N   0  0  0  0  0  0  0  0  0  0  0  0
  -23.4370  -28.7580   22.9830 O   0  0  0  0  0  0  0  0  0  0  0  0
  -20.7320  -29.5600   21.5910 H   0  0  0  0  0  0  0  0  0  0  0  0
  -18.2840  -27.0820   22.3990 C   0  0  0  0  0  0  0  0  0  0  0  0
  -20.7140  -27.8510   22.8310 C   0  0  0  0  0  3  0  0  0  0  0  0
  -21.1440  -26.5260   22.1610 C   0  0  0  0  0  2  0  0  0  0  0  0
  -20.1780  -26.0630   21.0660 C   0  0  0  0  0  2  0  0  0  0  0  0
  -18.7730  -25.8600   21.6420 C   0  0  0  0  0  2  0  0  0  0  0  0
  -19.1950  -28.0260   22.9440 C   0  0  0  0  0  0  0  0  0  0  0  0
  -18.6870  -29.1640   23.6090 C   0  0  0  0  0  3  0  0  0  0  0  0
  -17.3010  -29.3640   23.7350 C   0  0  0  0  0  3  0  0  0  0  0  0
  -16.4030  -28.4190   23.2080 C   0  0  0  0  0  3  0  0  0  0  0  0
  -16.8960  -27.2800   22.5470 C   0  0  0  0  0  3  0  0  0  0  0  0
  -25.8200  -32.3400   23.6500 C   0  0  0  0  0  3  0  0  0  0  0  0
  -26.4850  -31.4690   24.7860 C   0  0  1  0  0  0  0  0  0  0  0  0
  -25.5290  -31.1380   25.9550 C   0  0  0  0  0  1  0  0  0  0  0  0
  -27.0110  -30.1340   24.2100 C   0  0  0  0  0  1  0  0  0  0  0  0
  -27.7090  -32.2160   25.3670 C   0  0  0  0  0  1  0  0  0  0  0  0
  -25.5490  -33.7010   24.1270 N   0  0  0  0  0  0  0  0  0  0  0  0
  -25.8180  -34.8170   23.4350 C   0  0  0  0  0  0  0  0  0  0  0  0
  -26.3920  -34.8050   22.3430 O   0  0  0  0  0  0  0  0  0  0  0  0
  -25.0230  -33.7830   24.9850 H   0  0  0  0  0  0  0  0  0  0  0  0
  -24.0730  -36.6290   23.3930 C   0  0  0  0  0  1  0  0  0  0  0  0
  -25.3790  -36.1580   24.0530 C   0  0  0  0  0  3  0  0  0  0  0  0
  -27.5830  -36.9720   24.7660 C   0  0  0  0  0  1  0  0  0  0  0  0
  -26.4030  -37.2200   23.9410 N   0  0  0  0  0  0  0  0  0  0  0  0
  -26.0170  -38.1220   24.2020 H   0  0  0  0  0  0  0  0  0  0  0  0
  -28.5350  -22.4760   21.0650 C   0  0  0  0  0  0  0  0  0  0  0  0
  -29.6970  -22.8560   21.2340 O   0  0  0  0  0  0  0  0  0  0  0  0
  -28.2180  -20.9790   21.0260 C   0  0  0  0  0  2  0  0  0  0  0  0
  -29.1410  -20.1870   20.0840 C   0  0  0  0  0  2  0  0  0  0  0  0
  -28.8440  -18.6830   20.1360 C   0  0  0  0  0  2  0  0  0  0  0  0
  -30.0360  -17.8200   19.7050 C   0  0  0  0  0  2  0  0  0  0  0  0
  -29.8210  -16.3530   20.0870 C   0  0  0  0  0  2  0  0  0  0  0  0
  -31.4100  -14.5410   19.5120 C   0  0  0  0  0  0  0  0  0  0  0  0
  -31.2430  -12.0830   19.3700 C   0  0  0  0  0  2  0  0  0  0  0  0
  -30.2860  -11.6330   18.2500 C   0  0  0  0  0  2  0  0  0  0  0  0
  -28.8310  -11.5870   18.7560 C   0  0  0  0  0  2  0  0  0  0  0  0
  -28.4230  -12.8880   19.4920 C   0  0  0  0  0  3  0  0  0  0  0  0
  -29.4840  -13.2550   20.5520 C   0  0  0  0  0  2  0  0  0  0  0  0
  -30.7880  -13.3870   19.8770 N   0  0  0  0  0  0  0  0  0  0  0  0
  -32.3820  -14.5720   18.7540 O   0  0  0  0  0  0  0  0  0  0  0  0
  -31.0930  -15.6420   20.2060 N   0  0  0  0  0  0  0  0  0  0  0  0
  -31.8750  -16.2780   20.2540 H   0  0  0  0  0  0  0  0  0  0  0  0
  -26.2220  -13.7670   20.5040 C   0  0  0  0  0  0  0  0  0  0  0  0
  -25.0850  -13.1250   20.9120 C   0  0  0  0  0  0  0  0  0  0  0  0
  -25.3210  -11.7310   20.7040 C   0  0  0  0  0  0  0  0  0  0  0  0
  -27.0900  -12.7710   20.0820 N   0  0  0  0  0  0  0  0  0  0  0  0
  -26.5530  -11.5360   20.2530 N   0  0  0  0  0  0  0  0  0  0  0  0
  -24.4270  -10.5760   20.8530 C   0  0  0  0  0  0  0  0  0  0  0  0
  -24.7520   -9.4950   21.7030 C   0  0  0  0  0  3  0  0  0  0  0  0
  -23.8690   -8.4040   21.8440 C   0  0  0  0  0  3  0  0  0  0  0  0
  -22.6440   -8.3870   21.1330 C   0  0  0  0  0  0  0  0  0  0  0  0
  -22.3360   -9.4540   20.2720 C   0  0  0  0  0  3  0  0  0  0  0  0
  -23.2180  -10.5380   20.1290 C   0  0  0  0  0  3  0  0  0  0  0  0
  -21.7330   -7.3590   21.1870 O   0  0  0  0  0  0  0  0  0  0  0  0
  -21.5440   -6.6280   22.3310 C   0  0  0  0  0  0  0  0  0  0  0  0
  -21.1340   -7.2290   23.5410 C   0  0  0  0  0  3  0  0  0  0  0  0
  -20.8840   -6.4310   24.6750 C   0  0  0  0  0  3  0  0  0  0  0  0
  -21.0330   -5.0330   24.6010 C   0  0  0  0  0  0  0  0  0  0  0  0
  -21.4360   -4.4320   23.3940 C   0  0  0  0  0  3  0  0  0  0  0  0
  -21.6880   -5.2270   22.2630 C   0  0  0  0  0  0  0  0  0  0  0  0
  -22.0570   -4.6410   21.0990 F   0  0  0  0  0  0  0  0  0  0  0  0
  -20.7850   -4.2650   25.6860 F   0  0  0  0  0  0  0  0  0  0  0  0
  -23.8100  -13.7670   21.3790 C   0  0  0  0  0  0  0  0  0  0  0  0
  -23.0830  -13.1100   22.2750 N   0  0  0  0  0  0  0  0  0  0  0  0
  -23.4750  -14.8840   20.9860 O   0  0  0  0  0  0  0  0  0  0  0  0
  -23.3690  -12.2050   22.6190 H   0  0  0  0  0  0  0  0  0  0  0  0
  -22.2310  -13.5230   22.6270 H   0  0  0  0  0  0  0  0  0  0  0  0
  -26.5850  -15.1100   20.4390 N   0  0  0  0  0  0  0  0  0  0  0  0
  -25.9480  -15.8560   20.6900 H   0  0  0  0  0  0  0  0  0  0  0  0
  -27.4580  -15.4480   20.0550 H   0  0  0  0  0  0  0  0  0  0  0  0
  -25.8730  -23.6680   22.9930 C   0  0  0  0  0  1  0  0  0  0  0  0
  -27.0030  -24.2750   22.1450 C   0  0  0  0  0  2  0  0  0  0  0  0
  1 48  1  0
  1 94  1  0
  2  4  1  0
  2  5  2  0
  3  4  1  0
  4  1  1  0
  6  7  1  0
  6  2  1  0
  7  9  1  0
  8 19  2  0
  9 14  1  0
 10 18  1  0
 10 20  1  0
 11 17  1  0
 11 13  1  0
 12 18  1  0
 13 12  1  0
 14 13  2  0
 15 16  1  0
 15  9  2  0
 16 11  2  0
 17 10  1  0
 18  8  1  0
 20 22  2  0
 21 20  1  0
 23 21  1  0
 24 33  2  0
 24 29  1  0
 25 21  1  0
 25 29  1  0
 26 25  1  0
 27 28  1  0
 27 26  1  0
 28 24  1  0
 29 30  2  0
 30 31  1  0
 32 31  2  0
 33 32  1  0
 34  8  1  0
 34 39  1  0
 34 35  1  0
 35 38  1  1
 35 36  1  0
 37 35  1  0
 39 42  1  0
 40 44  1  0
 40 39  1  0
 41 40  2  0
 44 43  1  0
 46 44  1  0
 46 47  1  0
 46 45  1  0
 48 49  2  0
 50 48  1  0
 51 52  1  0
 51 50  1  0
 53 54  1  0
 53 52  1  0
 54 63  1  0
 55 61  1  0
 55 63  1  0
 56 61  1  0
 57 58  1  0
 57 56  1  0
 59 58  1  0
 59 68  1  0
 59 60  1  0
 61 60  1  0
 62 55  2  0
 63 64  1  0
 65 66  2  0
 66 85  1  0
 67 70  1  0
 67 66  1  0
 68 69  1  0
 68 65  1  0
 69 67  2  0
 70 71  1  0
 71 72  2  0
 73 76  1  0
 73 72  1  0
 74 73  2  0
 75 74  1  0
 75 70  2  0
 76 77  1  0
 77 78  1  0
 78 79  2  0
 80 79  1  0
 80 84  1  0
 81 80  2  0
 82 77  2  0
 82 81  1  0
 83 82  1  0
 85 86  1  0
 86 88  1  0
 86 89  1  0
 87 85  2  0
 90 65  1  0
 90 91  1  0
 92 90  1  0
 94 93  1  0
M  ISO  4   6 101   7 101  55 100  63 100
M  END
>  <TORSDO>  (41) 
F 25

>  <SCORE>  (41) 
-8.918

>  <name>  (41) 
40

>  <ligand_id>  (41) 
40

>  <original_smiles>  (41) 
[H]c1c([H])c([H])c2c(c1[H])C([H])([H])C([H])([H])C([H])([H])C2([H])N([H])C(=O)C1([H])N(C(=O)C([H])(N([H])C(=O)C([H])(N([H])C([H])([H])[H])C([H])([H])[H])C(C([H])([H])[H])(C([H])([H])[H])C([H])([H])[H])C([H])([H])c2c([H])c(OC([H])([H])C(=O)N(C([H])([H])[H])C([H])(C(=O)C([H])([H])C([H])([H])C([H])([H])C([H])([H])C([H])([H])N([H])C(=O)N3C([H])([H])C([H])([H])C([H])([H])C([H])(n4nc(-c5c([H])c([H])c(Oc6c([H])c([H])c(F)c([H])c6F)c([H])c5[H])c(C(=O)N([H])[H])c4N([H])[H])C3([H])[H])C([H])([H])C([H])([H])[H])c([H])c([H])c2C1([H])[H]

>  <smiles>  (41) 
[H]c1c([H])c([H])c2c(c1[H])C([H])([H])C([H])([H])C([H])([H])C2([H])N([H])C(=O)C1([H])N(C(=O)C([H])(N([H])C(=O)C([H])(N([H])C([H])([H])[H])C([H])([H])[H])C(C([H])([H])[H])(C([H])([H])[H])C([H])([H])[H])C([H])([H])c2c([H])c(OC([H])([H])C(=O)N(C([H])([H])[H])C([H])(C(=O)C([H])([H])C([H])([H])C([H])([H])C([H])([H])C([H])([H])N([H])C(=O)N3C([H])([H])C([H])([H])C([H])([H])C([H])(n4nc(-c5c([H])c([H])c(Oc6c([H])c([H])c(F)c([H])c6F)c([H])c5[H])c(C(=O)N([H])[H])c4N([H])[H])C3([H])[H])C([H])([H])C([H])([H])[H])c([H])c([H])c2C1([H])[H]

$$$$
41:0:0
     RDKit          3D

 93101  0  0  1  0  0  0  0  0999 V2000
  -29.7910  -21.4470   20.4720 C   0  0  0  0  0  2  0  0  0  0  0  0
  -29.5330  -19.1170   19.3210 C   0  0  0  0  0  3  0  0  0  0  0  0
  -30.3870  -19.2240   21.5780 C   0  0  0  0  0  3  0  0  0  0  0  0
  -29.9170  -19.9030   20.4330 C   0  0  0  0  0  0  0  0  0  0  0  0
  -29.5960  -17.6970   19.3530 C   0  0  0  0  0  0  0  0  0  0  0  0
  -30.4590  -17.8090   21.6280 C   0  0  0  0  0  0  0  0  0  0  0  0
  -30.0750  -17.0190   20.5140 C   0  0  0  0  0  0  0  0  0  0  0  0
  -29.0840  -16.9280   18.1470 C   0  0  0  0  0  1  0  0  0  0  0  0
  -30.9340  -17.1510   22.9120 C   0  0  0  0  0  1  0  0  0  0  0  0
  -30.7340  -14.6090   20.0730 C   0  0  0  0  0  0  0  0  0  0  0  0
  -30.4400  -12.4370   18.9310 C   0  0  0  0  0  2  0  0  0  0  0  0
  -29.4280  -12.6380   17.7810 C   0  0  0  0  0  2  0  0  0  0  0  0
  -27.9790  -12.4790   18.2860 C   0  0  0  0  0  2  0  0  0  0  0  0
  -27.7010  -13.2940   19.5770 C   0  0  0  0  0  3  0  0  0  0  0  0
  -28.8160  -13.0620   20.6210 C   0  0  0  0  0  2  0  0  0  0  0  0
  -30.1060  -13.4010   19.9920 N   0  0  0  0  0  0  0  0  0  0  0  0
  -31.8330  -14.8230   19.5520 O   0  0  0  0  0  0  0  0  0  0  0  0
  -30.0110  -15.5870   20.6670 N   0  0  0  0  0  0  0  0  0  0  0  0
  -29.2230  -15.2510   21.1990 H   0  0  0  0  0  0  0  0  0  0  0  0
  -25.3460  -13.8860   20.4270 C   0  0  0  0  0  0  0  0  0  0  0  0
  -24.2970  -13.1060   20.8340 C   0  0  0  0  0  0  0  0  0  0  0  0
  -24.7530  -11.7550   20.7460 C   0  0  0  0  0  0  0  0  0  0  0  0
  -26.3760  -13.0100   20.1210 N   0  0  0  0  0  0  0  0  0  0  0  0
  -26.0250  -11.7220   20.3690 N   0  0  0  0  0  0  0  0  0  0  0  0
  -24.0350  -10.4900   20.9460 C   0  0  0  0  0  0  0  0  0  0  0  0
  -24.4680   -9.5380   21.8950 C   0  0  0  0  0  3  0  0  0  0  0  0
  -23.7510   -8.3360   22.0820 C   0  0  0  0  0  3  0  0  0  0  0  0
  -22.5870   -8.0780   21.3190 C   0  0  0  0  0  0  0  0  0  0  0  0
  -22.1740   -9.0190   20.3590 C   0  0  0  0  0  3  0  0  0  0  0  0
  -22.8920  -10.2120   20.1710 C   0  0  0  0  0  3  0  0  0  0  0  0
  -21.8430   -6.9280   21.4140 O   0  0  0  0  0  0  0  0  0  0  0  0
  -21.7160   -6.2470   22.5980 C   0  0  0  0  0  0  0  0  0  0  0  0
  -21.1780   -6.8540   23.7530 C   0  0  0  0  0  3  0  0  0  0  0  0
  -21.0030   -6.0970   24.9300 C   0  0  0  0  0  3  0  0  0  0  0  0
  -21.3570   -4.7350   24.9500 C   0  0  0  0  0  0  0  0  0  0  0  0
  -21.8900   -4.1270   23.8000 C   0  0  0  0  0  3  0  0  0  0  0  0
  -22.0660   -4.8810   22.6260 C   0  0  0  0  0  0  0  0  0  0  0  0
  -22.5600   -4.2870   21.5140 F   0  0  0  0  0  0  0  0  0  0  0  0
  -21.1840   -4.0050   26.0760 F   0  0  0  0  0  0  0  0  0  0  0  0
  -22.9170  -13.5780   21.1950 C   0  0  0  0  0  0  0  0  0  0  0  0
  -22.2380  -12.8670   22.0880 N   0  0  0  0  0  0  0  0  0  0  0  0
  -22.4510  -14.6120   20.7200 O   0  0  0  0  0  0  0  0  0  0  0  0
  -22.6280  -12.0280   22.4940 H   0  0  0  0  0  0  0  0  0  0  0  0
  -21.3160  -13.1660   22.3710 H   0  0  0  0  0  0  0  0  0  0  0  0
  -25.5020  -15.2600   20.2720 N   0  0  0  0  0  0  0  0  0  0  0  0
  -24.7400  -15.9100   20.4390 H   0  0  0  0  0  0  0  0  0  0  0  0
  -26.3350  -15.7100   19.9140 H   0  0  0  0  0  0  0  0  0  0  0  0
  -29.8360  -23.3500   18.9670 C   0  0  0  0  0  0  0  0  0  0  0  0
  -30.0690  -23.8520   17.5550 C   0  0  0  0  0  1  0  0  0  0  0  0
  -29.9440  -22.0810   19.1650 N   0  0  0  0  0  0  0  0  0  0  0  0
  -29.5330  -24.4830   19.9790 C   0  0  0  0  0  2  0  0  0  0  0  0
  -28.2970  -25.3620   19.6220 C   0  0  0  0  0  2  0  0  0  0  0  0
  -28.3180  -26.6890   20.2030 O   0  0  0  0  0  0  0  0  0  0  0  0
  -24.5700  -31.9590   23.2690 C   0  0  0  0  0  0  0  0  0  0  0  0
  -27.1530  -27.4490   20.1790 C   0  0  0  0  0  0  0  0  0  0  0  0
  -23.3440  -30.5600   21.6440 C   0  0  0  0  0  3  0  0  0  0  0  0
  -24.7730  -29.0060   20.2140 C   0  0  0  0  0  0  0  0  0  0  0  0
  -25.8780  -30.8840   21.4330 C   0  0  0  0  0  2  0  0  0  0  0  0
  -25.9440  -29.5100   20.7930 C   0  0  0  0  0  0  0  0  0  0  0  0
  -27.1340  -28.7370   20.7780 C   0  0  0  0  0  3  0  0  0  0  0  0
  -25.9570  -26.9800   19.5840 C   0  0  0  0  0  3  0  0  0  0  0  0
  -24.7760  -27.7410   19.6090 C   0  0  0  0  0  3  0  0  0  0  0  0
  -23.5380  -29.8770   20.2650 C   0  0  0  0  0  2  0  0  0  0  0  0
  -24.6170  -31.1500   22.1710 N   0  0  0  0  0  0  0  0  0  0  0  0
  -23.4940  -32.2400   23.8140 O   0  0  0  0  0  0  0  0  0  0  0  0
  -22.6930  -29.5460   22.6150 C   0  0  0  0  0  0  0  0  0  0  0  0
  -21.3770  -29.3230   22.4600 N   0  0  0  0  0  0  0  0  0  0  0  0
  -23.3700  -28.9630   23.4640 O   0  0  0  0  0  0  0  0  0  0  0  0
  -20.8900  -29.8430   21.7430 H   0  0  0  0  0  0  0  0  0  0  0  0
  -18.0350  -28.0100   22.8640 C   0  0  0  0  0  0  0  0  0  0  0  0
  -20.5650  -28.3880   23.2390 C   0  0  0  0  0  3  0  0  0  0  0  0
  -20.7550  -26.9380   22.7370 C   0  0  0  0  0  2  0  0  0  0  0  0
  -19.7160  -26.5250   21.6890 C   0  0  0  0  0  2  0  0  0  0  0  0
  -18.2970  -26.6430   22.2550 C   0  0  0  0  0  2  0  0  0  0  0  0
  -19.1000  -28.8350   23.3110 C   0  0  0  0  0  0  0  0  0  0  0  0
  -18.8040  -30.1120   23.8330 C   0  0  0  0  0  3  0  0  0  0  0  0
  -17.4740  -30.5660   23.9180 C   0  0  0  0  0  3  0  0  0  0  0  0
  -16.4220  -29.7390   23.4880 C   0  0  0  0  0  3  0  0  0  0  0  0
  -16.7020  -28.4630   22.9660 C   0  0  0  0  0  3  0  0  0  0  0  0
  -25.8640  -32.5870   23.8740 C   0  0  0  0  0  3  0  0  0  0  0  0
  -26.3890  -31.8200   25.1480 C   0  0  1  0  0  0  0  0  0  0  0  0
  -25.3020  -31.5850   26.2230 C   0  0  0  0  0  1  0  0  0  0  0  0
  -26.9720  -30.4420   24.7550 C   0  0  0  0  0  1  0  0  0  0  0  0
  -27.5430  -32.6180   25.7990 C   0  0  0  0  0  1  0  0  0  0  0  0
  -25.5650  -33.9880   24.1990 N   0  0  0  0  0  0  0  0  0  0  0  0
  -25.8980  -35.0360   23.4330 C   0  0  0  0  0  0  0  0  0  0  0  0
  -26.5630  -34.9260   22.3980 O   0  0  0  0  0  0  0  0  0  0  0  0
  -24.9800  -34.1490   25.0060 H   0  0  0  0  0  0  0  0  0  0  0  0
  -24.1830  -36.8370   23.0790 C   0  0  0  0  0  1  0  0  0  0  0  0
  -25.4220  -36.4290   23.8900 C   0  0  0  0  0  3  0  0  0  0  0  0
  -27.5640  -37.3020   24.7150 C   0  0  0  0  0  1  0  0  0  0  0  0
  -26.4620  -37.4740   23.7710 N   0  0  0  0  0  0  0  0  0  0  0  0
  -26.0620  -38.3970   23.9140 H   0  0  0  0  0  0  0  0  0  0  0  0
  2  5  2  0
  2  4  1  0
  3  6  1  0
  4  1  1  0
  4  3  2  0
  5  7  1  0
  6  9  1  0
  7 18  1  0
  7  6  2  0
  8  5  1  0
 10 18  1  0
 11 16  1  0
 12 13  1  0
 12 11  1  0
 14 13  1  0
 14 23  1  0
 14 15  1  0
 16 10  1  0
 16 15  1  0
 17 10  2  0
 18 19  1  0
 20 21  2  0
 21 40  1  0
 22 21  1  0
 22 25  1  0
 23 24  1  0
 23 20  1  0
 24 22  2  0
 25 26  1  0
 26 27  2  0
 28 31  1  0
 28 27  1  0
 29 28  2  0
 30 29  1  0
 30 25  2  0
 31 32  1  0
 32 37  2  0
 32 33  1  0
 33 34  2  0
 34 35  1  0
 35 39  1  0
 36 35  2  0
 37 36  1  0
 38 37  1  0
 40 41  1  0
 41 44  1  0
 41 43  1  0
 42 40  2  0
 45 20  1  0
 45 46  1  0
 47 45  1  0
 48 50  2  0
 48 51  1  0
 49 48  1  0
 50  1  1  0
 52 51  1  0
 52 53  1  0
 54 65  2  0
 55 53  1  0
 55 60  1  0
 56 64  1  0
 56 66  1  0
 57 63  1  0
 57 59  1  0
 58 64  1  0
 59 58  1  0
 60 59  2  0
 61 62  1  0
 61 55  2  0
 62 57  2  0
 63 56  1  0
 64 54  1  0
 66 68  2  0
 67 66  1  0
 69 67  1  0
 70 79  2  0
 70 75  1  0
 71 67  1  0
 71 75  1  0
 72 71  1  0
 73 74  1  0
 73 72  1  0
 74 70  1  0
 75 76  2  0
 76 77  1  0
 78 77  2  0
 79 78  1  0
 80 54  1  0
 80 85  1  0
 80 81  1  0
 81 84  1  1
 81 82  1  0
 83 81  1  0
 85 88  1  0
 86 90  1  0
 86 85  1  0
 87 86  2  0
 90 89  1  0
 92 90  1  0
 92 93  1  0
 92 91  1  0
M  ISO  4  10 100  18 100  52 101  53 101
M  END
>  <TORSDO>  (42) 
F 20

>  <SCORE>  (42) 
-13.026

>  <name>  (42) 
41

>  <ligand_id>  (42) 
41

>  <original_smiles>  (42) 
[H]c1c([H])c([H])c2c(c1[H])C([H])([H])C([H])([H])C([H])([H])C2([H])N([H])C(=O)C1([H])N(C(=O)C([H])(N([H])C(=O)C([H])(N([H])C([H])([H])[H])C([H])([H])[H])C(C([H])([H])[H])(C([H])([H])[H])C([H])([H])[H])C([H])([H])c2c([H])c(OC([H])([H])C([H])([H])C(=NC([H])([H])c3c([H])c(C([H])([H])[H])c(N([H])C(=O)N4C([H])([H])C([H])([H])C([H])([H])C([H])(n5nc(-c6c([H])c([H])c(Oc7c([H])c([H])c(F)c([H])c7F)c([H])c6[H])c(C(=O)N([H])[H])c5N([H])[H])C4([H])[H])c(C([H])([H])[H])c3[H])C([H])([H])[H])c([H])c([H])c2C1([H])[H]

>  <smiles>  (42) 
[H]c1c([H])c([H])c2c(c1[H])C([H])([H])C([H])([H])C([H])([H])C2([H])N([H])C(=O)C1([H])N(C(=O)C([H])(N([H])C(=O)C([H])(N([H])C([H])([H])[H])C([H])([H])[H])C(C([H])([H])[H])(C([H])([H])[H])C([H])([H])[H])C([H])([H])c2c([H])c(OC([H])([H])C([H])([H])C(=NC([H])([H])c3c([H])c(C([H])([H])[H])c(N([H])C(=O)N4C([H])([H])C([H])([H])C([H])([H])C([H])(n5nc(-c6c([H])c([H])c(Oc7c([H])c([H])c(F)c([H])c7F)c([H])c6[H])c(C(=O)N([H])[H])c5N([H])[H])C4([H])[H])c(C([H])([H])[H])c3[H])C([H])([H])[H])c([H])c([H])c2C1([H])[H]

$$$$
42:0:0
     RDKit          3D

 94102  0  0  1  0  0  0  0  0999 V2000
  -30.8910  -18.9310   22.6550 C   0  0  0  0  0  3  0  0  0  0  0  0
  -29.1960  -20.3050   20.8970 C   0  0  0  0  0  3  0  0  0  0  0  0
  -30.3670  -18.2560   21.5290 C   0  0  0  0  0  0  0  0  0  0  0  0
  -30.5940  -20.2920   22.8950 C   0  0  0  0  0  0  0  0  0  0  0  0
  -29.7910  -20.9980   21.9730 C   0  0  0  0  0  0  0  0  0  0  0  0
  -29.4630  -18.9310   20.6680 C   0  0  0  0  0  0  0  0  0  0  0  0
  -31.1950  -20.9900   24.1080 C   0  0  0  0  0  1  0  0  0  0  0  0
  -29.6390  -22.3880   22.1010 N   0  0  0  0  0  0  0  0  0  0  0  0
  -30.1090  -22.7830   22.9070 H   0  0  0  0  0  0  0  0  0  0  0  0
  -29.8450  -23.1410   20.8660 C   0  0  0  0  0  2  0  0  0  0  0  0
  -30.4420  -24.5330   21.1120 C   0  0  0  0  0  2  0  0  0  0  0  0
  -29.5580  -25.4500   21.9780 C   0  0  0  0  0  2  0  0  0  0  0  0
  -29.4960  -26.8960   21.4650 C   0  0  0  0  0  2  0  0  0  0  0  0
  -28.7320  -26.9120   20.2540 O   0  0  0  0  0  0  0  0  0  0  0  0
  -24.6540  -31.9250   23.2570 C   0  0  0  0  0  0  0  0  0  0  0  0
  -27.5540  -27.6210   20.2630 C   0  0  0  0  0  0  0  0  0  0  0  0
  -23.5410  -30.4840   21.5780 C   0  0  0  0  0  3  0  0  0  0  0  0
  -25.0920  -29.0020   20.1970 C   0  0  0  0  0  0  0  0  0  0  0  0
  -26.0510  -30.9460   21.4440 C   0  0  0  0  0  2  0  0  0  0  0  0
  -26.2060  -29.5820   20.8150 C   0  0  0  0  0  0  0  0  0  0  0  0
  -27.4400  -28.9050   20.8410 C   0  0  0  0  0  3  0  0  0  0  0  0
  -26.4300  -27.0500   19.6320 C   0  0  0  0  0  3  0  0  0  0  0  0
  -25.1980  -27.7340   19.5960 C   0  0  0  0  0  3  0  0  0  0  0  0
  -23.8120  -29.8090   20.2060 C   0  0  0  0  0  2  0  0  0  0  0  0
  -24.7650  -31.1330   22.1540 N   0  0  0  0  0  0  0  0  0  0  0  0
  -23.5510  -32.1580   23.7720 O   0  0  0  0  0  0  0  0  0  0  0  0
  -22.9010  -29.4400   22.5220 C   0  0  0  0  0  0  0  0  0  0  0  0
  -21.5790  -29.2450   22.3840 N   0  0  0  0  0  0  0  0  0  0  0  0
  -23.5890  -28.8100   23.3290 O   0  0  0  0  0  0  0  0  0  0  0  0
  -21.0890  -29.8080   21.7030 H   0  0  0  0  0  0  0  0  0  0  0  0
  -18.2100  -28.0340   22.8650 C   0  0  0  0  0  0  0  0  0  0  0  0
  -20.7680  -28.2880   23.1350 C   0  0  0  0  0  3  0  0  0  0  0  0
  -20.8700  -26.8710   22.5230 C   0  0  0  0  0  2  0  0  0  0  0  0
  -19.7650  -26.5720   21.5050 C   0  0  0  0  0  2  0  0  0  0  0  0
  -18.3850  -26.7020   22.1580 C   0  0  0  0  0  2  0  0  0  0  0  0
  -19.3290  -28.7860   23.3100 C   0  0  0  0  0  0  0  0  0  0  0  0
  -19.1130  -30.0340   23.9330 C   0  0  0  0  0  3  0  0  0  0  0  0
  -17.8080  -30.5310   24.1140 C   0  0  0  0  0  3  0  0  0  0  0  0
  -16.7030  -29.7740   23.6850 C   0  0  0  0  0  3  0  0  0  0  0  0
  -16.9040  -28.5280   23.0670 C   0  0  0  0  0  3  0  0  0  0  0  0
  -25.9020  -32.5960   23.9130 C   0  0  0  0  0  3  0  0  0  0  0  0
  -25.5480  -33.9870   24.2160 N   0  0  0  0  0  0  0  0  0  0  0  0
  -25.8770  -35.0380   23.4510 C   0  0  0  0  0  0  0  0  0  0  0  0
  -26.5790  -34.9400   22.4410 O   0  0  0  0  0  0  0  0  0  0  0  0
  -24.9230  -34.1350   24.9940 H   0  0  0  0  0  0  0  0  0  0  0  0
  -24.1120  -36.7770   23.0230 C   0  0  0  0  0  1  0  0  0  0  0  0
  -25.3400  -36.4180   23.8750 C   0  0  0  0  0  3  0  0  0  0  0  0
  -27.4260  -37.3730   24.7530 C   0  0  0  0  0  1  0  0  0  0  0  0
  -26.3480  -37.4970   23.7750 N   0  0  0  0  0  0  0  0  0  0  0  0
  -25.9120  -38.4080   23.8970 H   0  0  0  0  0  0  0  0  0  0  0  0
  -26.4020  -31.8470   25.2090 C   0  0  1  0  0  0  0  0  0  0  0  0
  -25.2850  -31.5830   26.2450 C   0  0  0  0  0  1  0  0  0  0  0  0
  -27.0350  -30.4840   24.8380 C   0  0  0  0  0  1  0  0  0  0  0  0
  -27.5060  -32.6810   25.9000 C   0  0  0  0  0  1  0  0  0  0  0  0
  -27.9770  -18.8780   18.7710 C   0  0  0  0  0  1  0  0  0  0  0  0
  -28.9430  -18.2350   19.5950 O   0  0  0  0  0  0  0  0  0  0  0  0
  -30.8710  -16.9070   21.1990 C   0  0  0  0  0  3  0  0  0  0  0  0
  -30.1660  -15.8020   20.8600 C   0  0  0  0  0  3  0  0  0  0  0  0
  -30.8750  -14.6420   20.3140 C   0  0  0  0  0  0  0  0  0  0  0  0
  -30.5150  -12.4900   19.1710 C   0  0  0  0  0  2  0  0  0  0  0  0
  -29.5700  -12.7220   17.9740 C   0  0  0  0  0  2  0  0  0  0  0  0
  -28.1010  -12.5980   18.4220 C   0  0  0  0  0  2  0  0  0  0  0  0
  -27.7860  -13.4240   19.7010 C   0  0  0  0  0  3  0  0  0  0  0  0
  -28.8570  -13.1870   20.7890 C   0  0  0  0  0  2  0  0  0  0  0  0
  -30.1700  -13.4830   20.2000 N   0  0  0  0  0  0  0  0  0  0  0  0
  -31.9990  -14.7580   19.8130 O   0  0  0  0  0  0  0  0  0  0  0  0
  -25.4090  -14.0380   20.4760 C   0  0  0  0  0  0  0  0  0  0  0  0
  -24.3450  -13.2690   20.8590 C   0  0  0  0  0  0  0  0  0  0  0  0
  -24.7910  -11.9130   20.7940 C   0  0  0  0  0  0  0  0  0  0  0  0
  -26.4400  -13.1510   20.2010 N   0  0  0  0  0  0  0  0  0  0  0  0
  -26.0720  -11.8680   20.4460 N   0  0  0  0  0  0  0  0  0  0  0  0
  -24.0580  -10.6540   20.9850 C   0  0  0  0  0  0  0  0  0  0  0  0
  -24.4890   -9.6830   21.9120 C   0  0  0  0  0  3  0  0  0  0  0  0
  -23.7600   -8.4880   22.0910 C   0  0  0  0  0  3  0  0  0  0  0  0
  -22.5850   -8.2560   21.3360 C   0  0  0  0  0  0  0  0  0  0  0  0
  -22.1730   -9.2180   20.3970 C   0  0  0  0  0  3  0  0  0  0  0  0
  -22.9030  -10.4030   20.2180 C   0  0  0  0  0  3  0  0  0  0  0  0
  -21.8250   -7.1150   21.4230 O   0  0  0  0  0  0  0  0  0  0  0  0
  -21.7500   -6.3870   22.5830 C   0  0  0  0  0  0  0  0  0  0  0  0
  -21.2860   -6.9520   23.7900 C   0  0  0  0  0  3  0  0  0  0  0  0
  -21.1580   -6.1490   24.9410 C   0  0  0  0  0  3  0  0  0  0  0  0
  -21.4840   -4.7800   24.8850 C   0  0  0  0  0  0  0  0  0  0  0  0
  -21.9390   -4.2150   23.6820 C   0  0  0  0  0  3  0  0  0  0  0  0
  -22.0680   -5.0150   22.5340 C   0  0  0  0  0  0  0  0  0  0  0  0
  -22.4890   -4.4590   21.3720 F   0  0  0  0  0  0  0  0  0  0  0  0
  -21.3520   -4.0080   25.9880 F   0  0  0  0  0  0  0  0  0  0  0  0
  -22.9580  -13.7580   21.1720 C   0  0  0  0  0  0  0  0  0  0  0  0
  -22.2440  -13.0620   22.0510 N   0  0  0  0  0  0  0  0  0  0  0  0
  -22.5140  -14.7880   20.6690 O   0  0  0  0  0  0  0  0  0  0  0  0
  -22.6150  -12.2300   22.4850 H   0  0  0  0  0  0  0  0  0  0  0  0
  -21.3150  -13.3710   22.2960 H   0  0  0  0  0  0  0  0  0  0  0  0
  -25.5810  -15.4100   20.3250 N   0  0  0  0  0  0  0  0  0  0  0  0
  -24.8250  -16.0670   20.4860 H   0  0  0  0  0  0  0  0  0  0  0  0
  -26.4370  -15.8530   20.0180 H   0  0  0  0  0  0  0  0  0  0  0  0
  1  4  1  0
  2  5  1  0
  3  1  2  0
  4  7  1  0
  5  8  1  0
  5  4  2  0
  6  2  2  0
  6  3  1  0
  8  9  1  0
 10 11  1  0
 10  8  1  0
 11 12  1  0
 13 12  1  0
 14 16  1  0
 14 13  1  0
 15 26  2  0
 16 21  1  0
 17 25  1  0
 17 27  1  0
 18 24  1  0
 18 20  1  0
 19 25  1  0
 20 21  2  0
 20 19  1  0
 22 16  2  0
 23 22  1  0
 23 18  2  0
 24 17  1  0
 25 15  1  0
 27 29  2  0
 28 27  1  0
 30 28  1  0
 31 40  2  0
 31 36  1  0
 32 28  1  0
 32 36  1  0
 33 32  1  0
 34 35  1  0
 34 33  1  0
 35 31  1  0
 36 37  2  0
 37 38  1  0
 39 38  2  0
 40 39  1  0
 41 15  1  0
 41 42  1  0
 41 51  1  0
 42 45  1  0
 43 47  1  0
 43 42  1  0
 44 43  2  0
 47 46  1  0
 49 47  1  0
 49 50  1  0
 49 48  1  0
 51 54  1  1
 51 52  1  0
 53 51  1  0
 55 56  1  0
 56  6  1  0
 57  3  1  0
 58 57  2  0
 59 58  1  0
 60 65  1  0
 61 62  1  0
 61 60  1  0
 63 62  1  0
 63 70  1  0
 63 64  1  0
 65 59  1  0
 65 64  1  0
 66 59  2  0
 67 68  2  0
 68 87  1  0
 69 68  1  0
 69 72  1  0
 70 71  1  0
 70 67  1  0
 71 69  2  0
 72 73  1  0
 73 74  2  0
 75 78  1  0
 75 74  1  0
 76 75  2  0
 77 76  1  0
 77 72  2  0
 78 79  1  0
 79 80  1  0
 80 81  2  0
 82 81  1  0
 82 86  1  0
 83 82  2  0
 84 79  2  0
 84 83  1  0
 85 84  1  0
 87 88  1  0
 88 91  1  0
 88 90  1  0
 89 87  2  0
 92 67  1  0
 92 93  1  0
 94 92  1  0
M  ISO  4  13 101  14 101  58 100  59 100
M  END
>  <TORSDO>  (43) 
F 23

>  <SCORE>  (43) 
-13.036

>  <name>  (43) 
42

>  <ligand_id>  (43) 
42

>  <original_smiles>  (43) 
[H]C(C(=O)N1C([H])([H])C([H])([H])C([H])([H])C([H])(n2nc(-c3c([H])c([H])c(Oc4c([H])c([H])c(F)c([H])c4F)c([H])c3[H])c(C(=O)N([H])[H])c2N([H])[H])C1([H])[H])=C([H])c1c([H])c(C([H])([H])[H])c(N([H])C([H])([H])C([H])([H])C([H])([H])C([H])([H])Oc2c([H])c([H])c3c(c2[H])C([H])([H])N(C(=O)C([H])(N([H])C(=O)C([H])(N([H])C([H])([H])[H])C([H])([H])[H])C(C([H])([H])[H])(C([H])([H])[H])C([H])([H])[H])C([H])(C(=O)N([H])C2([H])c4c([H])c([H])c([H])c([H])c4C([H])([H])C([H])([H])C2([H])[H])C3([H])[H])c([H])c1OC([H])([H])[H]

>  <smiles>  (43) 
[H]C(C(=O)N1C([H])([H])C([H])([H])C([H])([H])C([H])(n2nc(-c3c([H])c([H])c(Oc4c([H])c([H])c(F)c([H])c4F)c([H])c3[H])c(C(=O)N([H])[H])c2N([H])[H])C1([H])[H])=C([H])c1c([H])c(C([H])([H])[H])c(N([H])C([H])([H])C([H])([H])C([H])([H])C([H])([H])Oc2c([H])c([H])c3c(c2[H])C([H])([H])N(C(=O)C([H])(N([H])C(=O)C([H])(N([H])C([H])([H])[H])C([H])([H])[H])C(C([H])([H])[H])(C([H])([H])[H])C([H])([H])[H])C([H])(C(=O)N([H])C2([H])c4c([H])c([H])c([H])c([H])c4C([H])([H])C([H])([H])C2([H])[H])C3([H])[H])c([H])c1OC([H])([H])[H]

$$$$
43:0:0
     RDKit          3D

 94102  0  0  1  0  0  0  0  0999 V2000
  -31.8030  -19.2910   19.1760 C   0  0  0  0  0  3  0  0  0  0  0  0
  -31.5490  -17.9110   19.3230 C   0  0  0  0  0  0  0  0  0  0  0  0
  -29.5790  -19.9420   19.9410 C   0  0  0  0  0  0  0  0  0  0  0  0
  -30.3040  -17.4440   19.8760 C   0  0  0  0  0  0  0  0  0  0  0  0
  -30.8630  -20.2820   19.4790 C   0  0  0  0  0  0  0  0  0  0  0  0
  -29.3350  -18.5110   20.1530 C   0  0  0  0  0  0  0  0  0  0  0  0
  -32.6710  -17.0340   18.7880 C   0  0  0  0  0  1  0  0  0  0  0  0
  -31.2160  -21.5770   19.2870 F   0  0  0  0  0  0  0  0  0  0  0  0
  -27.7850  -18.0310   20.7550 Cl  0  0  0  0  0  0  0  0  0  0  0  0
  -30.6330  -14.7790   20.0020 C   0  0  0  0  0  0  0  0  0  0  0  0
  -30.2960  -12.5420   18.9590 C   0  0  0  0  0  2  0  0  0  0  0  0
  -29.3020  -12.6440   17.7840 C   0  0  0  0  0  2  0  0  0  0  0  0
  -27.8560  -12.4730   18.2880 C   0  0  0  0  0  2  0  0  0  0  0  0
  -27.5490  -13.3330   19.5430 C   0  0  0  0  0  3  0  0  0  0  0  0
  -28.6700  -13.2520   20.6020 C   0  0  0  0  0  2  0  0  0  0  0  0
  -29.9290  -13.5960   19.9320 N   0  0  0  0  0  0  0  0  0  0  0  0
  -31.8380  -14.7270   19.7850 O   0  0  0  0  0  0  0  0  0  0  0  0
  -29.9480  -15.9920   20.0970 N   0  0  0  0  0  0  0  0  0  0  0  0
  -28.9790  -15.8650   20.3490 H   0  0  0  0  0  0  0  0  0  0  0  0
  -25.2000  -13.9030   20.3990 C   0  0  0  0  0  0  0  0  0  0  0  0
  -24.1540  -13.1220   20.8090 C   0  0  0  0  0  0  0  0  0  0  0  0
  -24.6180  -11.7730   20.7430 C   0  0  0  0  0  0  0  0  0  0  0  0
  -26.2340  -13.0300   20.1050 N   0  0  0  0  0  0  0  0  0  0  0  0
  -25.8950  -11.7420   20.3770 N   0  0  0  0  0  0  0  0  0  0  0  0
  -23.9030  -10.5080   20.9550 C   0  0  0  0  0  0  0  0  0  0  0  0
  -24.3640   -9.5420   21.8780 C   0  0  0  0  0  3  0  0  0  0  0  0
  -23.6470   -8.3410   22.0750 C   0  0  0  0  0  3  0  0  0  0  0  0
  -22.4530   -8.0990   21.3540 C   0  0  0  0  0  0  0  0  0  0  0  0
  -22.0140   -9.0520   20.4200 C   0  0  0  0  0  3  0  0  0  0  0  0
  -22.7310  -10.2440   20.2180 C   0  0  0  0  0  3  0  0  0  0  0  0
  -21.7040   -6.9520   21.4650 O   0  0  0  0  0  0  0  0  0  0  0  0
  -21.6810   -6.2170   22.6230 C   0  0  0  0  0  0  0  0  0  0  0  0
  -21.2640   -6.7750   23.8520 C   0  0  0  0  0  3  0  0  0  0  0  0
  -21.1900   -5.9640   25.0030 C   0  0  0  0  0  3  0  0  0  0  0  0
  -21.5180   -4.5970   24.9250 C   0  0  0  0  0  0  0  0  0  0  0  0
  -21.9260   -4.0390   23.7010 C   0  0  0  0  0  3  0  0  0  0  0  0
  -22.0040   -4.8460   22.5530 C   0  0  0  0  0  0  0  0  0  0  0  0
  -22.3780   -4.2990   21.3710 F   0  0  0  0  0  0  0  0  0  0  0  0
  -21.4380   -3.8170   26.0280 F   0  0  0  0  0  0  0  0  0  0  0  0
  -22.7700  -13.5930   21.1450 C   0  0  0  0  0  0  0  0  0  0  0  0
  -22.0780  -12.8820   22.0300 N   0  0  0  0  0  0  0  0  0  0  0  0
  -22.3100  -14.6260   20.6600 O   0  0  0  0  0  0  0  0  0  0  0  0
  -22.4630  -12.0460   22.4460 H   0  0  0  0  0  0  0  0  0  0  0  0
  -21.1490  -13.1770   22.2980 H   0  0  0  0  0  0  0  0  0  0  0  0
  -25.3530  -15.2750   20.2250 N   0  0  0  0  0  0  0  0  0  0  0  0
  -24.5940  -15.9300   20.3770 H   0  0  0  0  0  0  0  0  0  0  0  0
  -26.1910  -15.7200   19.8780 H   0  0  0  0  0  0  0  0  0  0  0  0
  -28.5260  -21.1250   20.1910 C   0  0  0  0  0  2  0  0  0  0  0  0
  -28.0990  -23.7440   20.0200 C   0  0  0  0  0  0  0  0  0  0  0  0
  -28.8470  -22.5870   19.8530 N   0  0  0  0  0  0  0  0  0  0  0  0
  -27.0460  -23.7070   20.6580 O   0  0  0  0  0  0  0  0  0  0  0  0
  -29.7460  -22.7150   19.4020 H   0  0  0  0  0  0  0  0  0  0  0  0
  -28.5110  -25.1230   19.3110 C   0  0  0  0  0  2  0  0  0  0  0  0
  -28.3520  -26.4300   20.0350 O   0  0  0  0  0  0  0  0  0  0  0  0
  -24.5990  -31.7700   23.1240 C   0  0  0  0  0  0  0  0  0  0  0  0
  -27.2240  -27.2760   19.9490 C   0  0  0  0  0  0  0  0  0  0  0  0
  -23.3990  -30.4170   21.4440 C   0  0  0  0  0  3  0  0  0  0  0  0
  -24.8520  -28.9050   19.9700 C   0  0  0  0  0  0  0  0  0  0  0  0
  -25.9380  -30.7350   21.2720 C   0  0  0  0  0  2  0  0  0  0  0  0
  -26.0180  -29.3730   20.5870 C   0  0  0  0  0  0  0  0  0  0  0  0
  -27.2020  -28.5720   20.5680 C   0  0  0  0  0  3  0  0  0  0  0  0
  -26.0350  -26.8650   19.3060 C   0  0  0  0  0  3  0  0  0  0  0  0
  -24.8670  -27.6590   19.3190 C   0  0  0  0  0  3  0  0  0  0  0  0
  -23.6170  -29.7850   20.0420 C   0  0  0  0  0  2  0  0  0  0  0  0
  -24.6650  -30.9920   22.0020 N   0  0  0  0  0  0  0  0  0  0  0  0
  -23.5150  -32.0300   23.6660 O   0  0  0  0  0  0  0  0  0  0  0  0
  -22.7370  -29.3740   22.3780 C   0  0  0  0  0  0  0  0  0  0  0  0
  -21.4090  -29.2100   22.2640 N   0  0  0  0  0  0  0  0  0  0  0  0
  -23.4190  -28.7170   23.1700 O   0  0  0  0  0  0  0  0  0  0  0  0
  -20.9120  -29.7900   21.6020 H   0  0  0  0  0  0  0  0  0  0  0  0
  -18.0270  -28.0420   22.7770 C   0  0  0  0  0  0  0  0  0  0  0  0
  -20.5930  -28.2530   23.0120 C   0  0  0  0  0  3  0  0  0  0  0  0
  -20.6670  -26.8460   22.3740 C   0  0  0  0  0  2  0  0  0  0  0  0
  -19.5440  -26.5830   21.3670 C   0  0  0  0  0  2  0  0  0  0  0  0
  -18.1750  -26.7220   22.0400 C   0  0  0  0  0  2  0  0  0  0  0  0
  -19.1650  -28.7700   23.2200 C   0  0  0  0  0  0  0  0  0  0  0  0
  -18.9740  -30.0100   23.8650 C   0  0  0  0  0  3  0  0  0  0  0  0
  -17.6810  -30.5220   24.0780 C   0  0  0  0  0  3  0  0  0  0  0  0
  -16.5590  -29.7900   23.6500 C   0  0  0  0  0  3  0  0  0  0  0  0
  -16.7320  -28.5540   23.0050 C   0  0  0  0  0  3  0  0  0  0  0  0
  -25.8800  -32.3890   23.7650 C   0  0  0  0  0  3  0  0  0  0  0  0
  -26.3800  -31.5980   25.0360 C   0  0  1  0  0  0  0  0  0  0  0  0
  -25.2760  -31.3580   26.0930 C   0  0  0  0  0  1  0  0  0  0  0  0
  -26.9570  -30.2210   24.6330 C   0  0  0  0  0  1  0  0  0  0  0  0
  -27.5290  -32.3730   25.7200 C   0  0  0  0  0  1  0  0  0  0  0  0
  -25.5750  -33.7830   24.1130 N   0  0  0  0  0  0  0  0  0  0  0  0
  -25.9190  -34.8480   23.3780 C   0  0  0  0  0  0  0  0  0  0  0  0
  -26.5990  -34.7600   22.3530 O   0  0  0  0  0  0  0  0  0  0  0  0
  -24.9720  -33.9270   24.9130 H   0  0  0  0  0  0  0  0  0  0  0  0
  -24.2040  -36.6580   23.0400 C   0  0  0  0  0  1  0  0  0  0  0  0
  -25.4360  -36.2320   23.8560 C   0  0  0  0  0  3  0  0  0  0  0  0
  -27.5650  -37.0970   24.7260 C   0  0  0  0  0  1  0  0  0  0  0  0
  -26.4750  -37.2820   23.7690 N   0  0  0  0  0  0  0  0  0  0  0  0
  -26.0720  -38.2030   23.9180 H   0  0  0  0  0  0  0  0  0  0  0  0
  1  2  2  0
  1  5  1  0
  2  4  1  0
  3  6  1  0
  3 48  1  0
  4 18  1  0
  4  6  2  0
  5  3  2  0
  6  9  1  0
  7  2  1  0
  8  5  1  0
 10 18  1  0
 11 16  1  0
 12 13  1  0
 12 11  1  0
 14 13  1  0
 14 23  1  0
 14 15  1  0
 16 10  1  0
 16 15  1  0
 17 10  2  0
 18 19  1  0
 20 21  2  0
 21 40  1  0
 22 21  1  0
 22 25  1  0
 23 24  1  0
 23 20  1  0
 24 22  2  0
 25 26  1  0
 26 27  2  0
 28 31  1  0
 28 27  1  0
 29 28  2  0
 30 29  1  0
 30 25  2  0
 31 32  1  0
 32 33  1  0
 33 34  2  0
 35 34  1  0
 35 39  1  0
 36 35  2  0
 37 32  2  0
 37 36  1  0
 38 37  1  0
 40 41  1  0
 41 44  1  0
 41 43  1  0
 42 40  2  0
 45 46  1  0
 45 20  1  0
 47 45  1  0
 49 51  2  0
 50 49  1  0
 50 48  1  0
 52 50  1  0
 53 49  1  0
 53 54  1  0
 55 66  2  0
 56 54  1  0
 56 61  1  0
 57 65  1  0
 57 67  1  0
 58 64  1  0
 58 60  1  0
 59 65  1  0
 60 59  1  0
 61 60  2  0
 62 63  1  0
 62 56  2  0
 63 58  2  0
 64 57  1  0
 65 55  1  0
 67 69  2  0
 68 67  1  0
 70 68  1  0
 71 80  2  0
 71 76  1  0
 72 68  1  0
 72 76  1  0
 73 72  1  0
 74 75  1  0
 74 73  1  0
 75 71  1  0
 76 77  2  0
 77 78  1  0
 79 78  2  0
 80 79  1  0
 81 55  1  0
 81 86  1  0
 81 82  1  0
 82 85  1  1
 82 83  1  0
 84 82  1  0
 86 89  1  0
 87 91  1  0
 87 86  1  0
 88 87  2  0
 91 90  1  0
 93 91  1  0
 93 94  1  0
 93 92  1  0
M  ISO  4  10 100  18 100  53 101  54 101
M  END
>  <TORSDO>  (44) 
F 19

>  <SCORE>  (44) 
-14.028

>  <name>  (44) 
43

>  <ligand_id>  (44) 
43

>  <original_smiles>  (44) 
[H]c1c([H])c([H])c2c(c1[H])C([H])([H])C([H])([H])C([H])([H])C2([H])N([H])C(=O)C1([H])N(C(=O)C([H])(N([H])C(=O)C([H])(N([H])C([H])([H])[H])C([H])([H])[H])C(C([H])([H])[H])(C([H])([H])[H])C([H])([H])[H])C([H])([H])c2c([H])c(OC([H])([H])C(=O)N([H])C([H])([H])c3c(F)c([H])c(C([H])([H])[H])c(N([H])C(=O)N4C([H])([H])C([H])([H])C([H])([H])C([H])(n5nc(-c6c([H])c([H])c(Oc7c([H])c([H])c(F)c([H])c7F)c([H])c6[H])c(C(=O)N([H])[H])c5N([H])[H])C4([H])[H])c3Cl)c([H])c([H])c2C1([H])[H]

>  <smiles>  (44) 
[H]c1c([H])c([H])c2c(c1[H])C([H])([H])C([H])([H])C([H])([H])C2([H])N([H])C(=O)C1([H])N(C(=O)C([H])(N([H])C(=O)C([H])(N([H])C([H])([H])[H])C([H])([H])[H])C(C([H])([H])[H])(C([H])([H])[H])C([H])([H])[H])C([H])([H])c2c([H])c(OC([H])([H])C(=O)N([H])C([H])([H])c3c(F)c([H])c(C([H])([H])[H])c(N([H])C(=O)N4C([H])([H])C([H])([H])C([H])([H])C([H])(n5nc(-c6c([H])c([H])c(Oc7c([H])c([H])c(F)c([H])c7F)c([H])c6[H])c(C(=O)N([H])[H])c5N([H])[H])C4([H])[H])c3Cl)c([H])c([H])c2C1([H])[H]

$$$$
44:0:0
     RDKit          3D

101109  0  0  1  0  0  0  0  0999 V2000
  -27.7520  -25.5200   22.5700 C   0  0  0  0  0  0  0  0  0  0  0  0
  -27.4590  -24.1540   19.3560 C   0  0  0  0  0  3  0  0  0  0  0  0
  -26.1970  -25.5750   21.7040 C   0  0  0  0  0  3  0  0  0  0  0  0
  -28.8760  -23.8790   20.2720 C   0  0  0  0  0  3  0  0  0  0  0  0
  -29.0720  -24.6510   21.8120 C   0  0  0  0  0  0  0  0  0  0  0  0
  -26.0620  -24.9390   20.0450 C   0  0  2  0  0  0  0  0  0  0  0  0
  -27.8670  -26.0240   23.9980 C   0  0  0  0  0  1  0  0  0  0  0  0
  -30.5340  -24.4070   22.6970 Cl  0  0  0  0  0  0  0  0  0  0  0  0
  -24.5240  -24.8350   19.2530 Cl  0  0  0  0  0  0  0  0  0  0  0  0
  -25.5010  -23.6370   22.2330 C   0  0  0  0  0  0  0  0  0  0  0  0
  -23.9620  -25.4400   22.9700 C   0  0  0  0  0  1  0  0  0  0  0  0
  -25.2450  -24.9190   22.4880 N   0  0  0  0  0  0  0  0  0  0  0  0
  -24.8510  -22.6690   22.6430 O   0  0  0  0  0  0  0  0  0  0  0  0
  -26.7060  -23.5210   21.2090 C   0  0  0  0  0  1  0  0  0  0  0  0
  -27.6140  -25.9420   20.0550 O   0  0  0  0  0  0  0  0  0  0  0  0
  -24.6570  -31.8490   23.3920 C   0  0  0  0  0  0  0  0  0  0  0  0
  -27.0110  -27.3440   19.8510 C   0  0  0  0  0  0  0  0  0  0  0  0
  -23.4190  -30.7160   21.5900 C   0  0  0  0  0  3  0  0  0  0  0  0
  -24.8430  -29.3070   19.9560 C   0  0  0  0  0  0  0  0  0  0  0  0
  -25.9880  -30.8470   21.5040 C   0  0  0  0  0  2  0  0  0  0  0  0
  -26.0070  -29.5430   20.6950 C   0  0  0  0  0  0  0  0  0  0  0  0
  -27.0800  -28.5520   20.6790 C   0  0  0  0  0  3  0  0  0  0  0  0
  -25.9980  -27.4620   18.8670 C   0  0  0  0  0  3  0  0  0  0  0  0
  -24.8580  -28.2790   19.0180 C   0  0  0  0  0  3  0  0  0  0  0  0
  -23.6360  -30.2190   20.1370 C   0  0  0  0  0  2  0  0  0  0  0  0
  -24.7080  -31.1520   22.2160 N   0  0  0  0  0  0  0  0  0  0  0  0
  -23.5790  -32.1180   23.9430 O   0  0  0  0  0  0  0  0  0  0  0  0
  -22.6880  -29.6280   22.4160 C   0  0  0  0  0  0  0  0  0  0  0  0
  -21.3550  -29.5160   22.2560 N   0  0  0  0  0  0  0  0  0  0  0  0
  -23.3240  -28.8990   23.1780 O   0  0  0  0  0  0  0  0  0  0  0  0
  -20.8970  -30.1790   21.6470 H   0  0  0  0  0  0  0  0  0  0  0  0
  -17.9240  -28.4110   22.6420 C   0  0  0  0  0  0  0  0  0  0  0  0
  -20.4950  -28.5160   22.8970 C   0  0  0  0  0  3  0  0  0  0  0  0
  -20.5310  -27.1740   22.1210 C   0  0  0  0  0  2  0  0  0  0  0  0
  -19.3920  -27.0330   21.1060 C   0  0  0  0  0  2  0  0  0  0  0  0
  -18.0280  -27.1560   21.7950 C   0  0  0  0  0  2  0  0  0  0  0  0
  -19.0810  -29.0570   23.1520 C   0  0  0  0  0  0  0  0  0  0  0  0
  -18.9250  -30.2380   23.9110 C   0  0  0  0  0  3  0  0  0  0  0  0
  -17.6460  -30.7720   24.1600 C   0  0  0  0  0  3  0  0  0  0  0  0
  -16.5040  -30.1160   23.6690 C   0  0  0  0  0  3  0  0  0  0  0  0
  -16.6430  -28.9380   22.9160 C   0  0  0  0  0  3  0  0  0  0  0  0
  -25.9550  -32.3580   24.0860 C   0  0  0  0  0  3  0  0  0  0  0  0
  -25.7110  -33.7340   24.5330 N   0  0  0  0  0  0  0  0  0  0  0  0
  -26.0900  -34.8350   23.8690 C   0  0  0  0  0  0  0  0  0  0  0  0
  -26.7480  -34.7910   22.8260 O   0  0  0  0  0  0  0  0  0  0  0  0
  -25.1300  -33.8440   25.3500 H   0  0  0  0  0  0  0  0  0  0  0  0
  -24.4500  -36.7390   23.7000 C   0  0  0  0  0  1  0  0  0  0  0  0
  -25.6770  -36.1990   24.4510 C   0  0  0  0  0  3  0  0  0  0  0  0
  -27.8520  -36.9230   25.3290 C   0  0  0  0  0  1  0  0  0  0  0  0
  -26.7540  -37.2120   24.4090 N   0  0  0  0  0  0  0  0  0  0  0  0
  -26.3920  -38.1370   24.6250 H   0  0  0  0  0  0  0  0  0  0  0  0
  -26.3930  -31.4510   25.3040 C   0  0  1  0  0  0  0  0  0  0  0  0
  -25.2620  -31.1910   26.3250 C   0  0  0  0  0  1  0  0  0  0  0  0
  -26.9140  -30.0780   24.8210 C   0  0  0  0  0  1  0  0  0  0  0  0
  -27.5630  -32.1260   26.0560 C   0  0  0  0  0  1  0  0  0  0  0  0
  -27.6060  -23.9070   17.8630 C   0  0  0  0  0  2  0  0  0  0  0  0
  -29.7570  -25.5820   17.9750 C   0  0  0  0  0  1  0  0  0  0  0  0
  -29.3970  -24.0740   16.0400 C   0  0  0  0  0  1  0  0  0  0  0  0
  -28.6660  -24.8420   17.1430 C   0  0  0  0  0  3  0  0  0  0  0  0
  -29.5670  -22.6420   19.8150 O   0  0  0  0  0  0  0  0  0  0  0  0
  -29.8690  -21.2680   20.5300 C   0  0  0  0  0  2  0  0  0  0  0  0
  -29.6550  -19.6510   19.9510 C   0  0  0  0  0  2  0  0  0  0  0  0
  -30.5370  -18.2180   20.3750 C   0  0  0  0  0  2  0  0  0  0  0  0
  -30.8800  -15.4260   20.2390 C   0  0  0  0  0  0  0  0  0  0  0  0
  -30.7820  -13.0320   19.3640 C   0  0  0  0  0  2  0  0  0  0  0  0
  -29.8610  -12.8650   18.1310 C   0  0  0  0  0  2  0  0  0  0  0  0
  -28.4030  -12.6440   18.5810 C   0  0  0  0  0  2  0  0  0  0  0  0
  -27.9680  -13.6410   19.6870 C   0  0  0  0  0  3  0  0  0  0  0  0
  -29.0060  -13.7480   20.8190 C   0  0  0  0  0  2  0  0  0  0  0  0
  -30.2640  -14.1680   20.1860 N   0  0  0  0  0  0  0  0  0  0  0  0
  -32.1020  -15.4400   20.0690 O   0  0  0  0  0  0  0  0  0  0  0  0
  -30.1340  -16.6610   20.2770 N   0  0  0  0  0  0  0  0  0  0  0  0
  -29.1410  -16.4900   20.3610 H   0  0  0  0  0  0  0  0  0  0  0  0
  -25.5990  -14.2620   20.4250 C   0  0  0  0  0  0  0  0  0  0  0  0
  -24.5180  -13.5050   20.7810 C   0  0  0  0  0  0  0  0  0  0  0  0
  -24.9610  -12.1460   20.7460 C   0  0  0  0  0  0  0  0  0  0  0  0
  -26.6260  -13.3660   20.1820 N   0  0  0  0  0  0  0  0  0  0  0  0
  -26.2530  -12.0860   20.4420 N   0  0  0  0  0  0  0  0  0  0  0  0
  -24.2090  -10.8980   20.9220 C   0  0  0  0  0  0  0  0  0  0  0  0
  -24.5930   -9.9300   21.8780 C   0  0  0  0  0  3  0  0  0  0  0  0
  -23.8360   -8.7490   22.0420 C   0  0  0  0  0  3  0  0  0  0  0  0
  -22.6840   -8.5290   21.2490 C   0  0  0  0  0  0  0  0  0  0  0  0
  -22.3260   -9.4820   20.2810 C   0  0  0  0  0  3  0  0  0  0  0  0
  -23.0810  -10.6550   20.1150 C   0  0  0  0  0  3  0  0  0  0  0  0
  -21.9030   -7.3990   21.3220 O   0  0  0  0  0  0  0  0  0  0  0  0
  -21.7750   -6.6840   22.4870 C   0  0  0  0  0  0  0  0  0  0  0  0
  -21.2990   -7.2790   23.6770 C   0  0  0  0  0  3  0  0  0  0  0  0
  -21.1130   -6.4910   24.8310 C   0  0  0  0  0  3  0  0  0  0  0  0
  -21.4000   -5.1140   24.7990 C   0  0  0  0  0  0  0  0  0  0  0  0
  -21.8680   -4.5200   23.6140 C   0  0  0  0  0  3  0  0  0  0  0  0
  -22.0560   -5.3030   22.4610 C   0  0  0  0  0  0  0  0  0  0  0  0
  -22.4870   -4.7200   21.3160 F   0  0  0  0  0  0  0  0  0  0  0  0
  -21.2150   -4.3560   25.9040 F   0  0  0  0  0  0  0  0  0  0  0  0
  -23.1280  -14.0090   21.0270 C   0  0  0  0  0  0  0  0  0  0  0  0
  -22.3780  -13.3320   21.8890 N   0  0  0  0  0  0  0  0  0  0  0  0
  -22.7150  -15.0390   20.4910 O   0  0  0  0  0  0  0  0  0  0  0  0
  -22.7330  -12.5050   22.3430 H   0  0  0  0  0  0  0  0  0  0  0  0
  -21.4340  -13.6380   22.0770 H   0  0  0  0  0  0  0  0  0  0  0  0
  -25.7940  -15.6300   20.2540 N   0  0  0  0  0  0  0  0  0  0  0  0
  -25.0380  -16.2960   20.3640 H   0  0  0  0  0  0  0  0  0  0  0  0
  -26.6360  -16.0510   19.8850 H   0  0  0  0  0  0  0  0  0  0  0  0
  1  7  1  0
  2 56  1  0
  2  6  1  0
  2  4  1  0
  3 12  1  0
  3  1  1  0
  4 60  1  0
  4  5  1  0
  5  1  2  0
  5  8  1  0
  6  9  1  6
  6 15  1  0
  6  3  1  0
 10 12  1  0
 10 13  2  0
 12 11  1  0
 14 10  1  0
 16 27  2  0
 17 15  1  0
 17 22  1  0
 18 26  1  0
 18 28  1  0
 19 25  1  0
 19 21  1  0
 20 26  1  0
 21 20  1  0
 22 21  2  0
 23 24  1  0
 23 17  2  0
 24 19  2  0
 25 18  1  0
 26 16  1  0
 28 30  2  0
 29 28  1  0
 31 29  1  0
 32 41  2  0
 32 37  1  0
 33 29  1  0
 33 37  1  0
 34 33  1  0
 35 36  1  0
 35 34  1  0
 36 32  1  0
 37 38  2  0
 38 39  1  0
 40 39  2  0
 41 40  1  0
 42 16  1  0
 42 43  1  0
 42 52  1  0
 43 46  1  0
 44 48  1  0
 44 43  1  0
 45 44  2  0
 48 47  1  0
 50 48  1  0
 50 51  1  0
 50 49  1  0
 52 55  1  1
 52 53  1  0
 54 52  1  0
 58 59  1  0
 59 56  1  0
 59 57  1  0
 60 61  1  0
 62 63  1  0
 62 61  1  0
 64 72  1  0
 65 70  1  0
 66 67  1  0
 66 65  1  0
 68 67  1  0
 68 77  1  0
 68 69  1  0
 70 64  1  0
 70 69  1  0
 71 64  2  0
 72 73  1  0
 72 63  1  0
 74 75  2  0
 75 94  1  0
 76 75  1  0
 76 79  1  0
 77 74  1  0
 77 78  1  0
 78 76  2  0
 79 80  1  0
 80 81  2  0
 82 85  1  0
 82 81  1  0
 83 82  2  0
 84 83  1  0
 84 79  2  0
 85 86  1  0
 86 87  1  0
 87 88  2  0
 89 88  1  0
 89 93  1  0
 90 89  2  0
 91 86  2  0
 91 90  1  0
 92 91  1  0
 94 95  1  0
 95 98  1  0
 95 97  1  0
 96 94  2  0
 99100  1  0
 99 74  1  0
101 99  1  0
M  ISO  4  14 101  15 101  64 100  72 100
M  END
>  <TORSDO>  (45) 
F 24

>  <SCORE>  (45) 
-13.164

>  <name>  (45) 
44

>  <ligand_id>  (45) 
44

>  <original_smiles>  (45) 
[H]c1c([H])c([H])c2c(c1[H])C([H])([H])C([H])([H])C([H])([H])C2([H])N([H])C(=O)C1([H])N(C(=O)C([H])(N([H])C(=O)C([H])(N([H])C([H])([H])[H])C([H])([H])[H])C(C([H])([H])[H])(C([H])([H])[H])C([H])([H])[H])C([H])([H])c2c([H])c(OC([H])([H])C(=O)N(c3c(Cl)c(C([H])([H])C([H])(C([H])([H])[H])C([H])([H])[H])c(OC([H])([H])C([H])([H])C([H])([H])N([H])C(=O)N4C([H])([H])C([H])([H])C([H])([H])C([H])(n5nc(-c6c([H])c([H])c(Oc7c([H])c([H])c(F)c([H])c7F)c([H])c6[H])c(C(=O)N([H])[H])c5N([H])[H])C4([H])[H])c(Cl)c3C([H])([H])[H])C([H])([H])[H])c([H])c([H])c2C1([H])[H]

>  <smiles>  (45) 
[H]c1c([H])c([H])c2c(c1[H])C([H])([H])C([H])([H])C([H])([H])C2([H])N([H])C(=O)C1([H])N(C(=O)C([H])(N([H])C(=O)C([H])(N([H])C([H])([H])[H])C([H])([H])[H])C(C([H])([H])[H])(C([H])([H])[H])C([H])([H])[H])C([H])([H])c2c([H])c(OC([H])([H])C(=O)N(c3c(Cl)c(C([H])([H])C([H])(C([H])([H])[H])C([H])([H])[H])c(OC([H])([H])C([H])([H])C([H])([H])N([H])C(=O)N4C([H])([H])C([H])([H])C([H])([H])C([H])(n5nc(-c6c([H])c([H])c(Oc7c([H])c([H])c(F)c([H])c7F)c([H])c6[H])c(C(=O)N([H])[H])c5N([H])[H])C4([H])[H])c(Cl)c3C([H])([H])[H])C([H])([H])[H])c([H])c([H])c2C1([H])[H]

$$$$
45:0:0
     RDKit          3D

 95103  0  0  1  0  0  0  0  0999 V2000
  -28.8720  -21.1280   20.7320 C   0  0  0  0  0  2  0  0  0  0  0  0
  -31.7010  -17.7420   19.9960 C   0  0  0  0  0  3  0  0  0  0  0  0
  -32.1150  -19.0870   19.9240 C   0  0  0  0  0  0  0  0  0  0  0  0
  -29.8360  -19.8920   20.4020 C   0  0  0  0  0  0  0  0  0  0  0  0
  -30.3690  -17.3700   20.2940 C   0  0  0  0  0  0  0  0  0  0  0  0
  -31.2080  -20.1470   20.1430 C   0  0  0  0  0  0  0  0  0  0  0  0
  -29.4440  -18.4820   20.4820 C   0  0  0  0  0  0  0  0  0  0  0  0
  -33.5770  -19.3810   19.6260 C   0  0  0  0  0  1  0  0  0  0  0  0
  -31.8320  -21.7650   20.1270 Cl  0  0  0  0  0  0  0  0  0  0  0  0
  -27.8050  -18.0850   20.8590 Cl  0  0  0  0  0  0  0  0  0  0  0  0
  -30.6790  -14.7640   20.0830 C   0  0  0  0  0  0  0  0  0  0  0  0
  -30.3440  -12.5700   18.9530 C   0  0  0  0  0  2  0  0  0  0  0  0
  -29.3500  -12.7470   17.7860 C   0  0  0  0  0  2  0  0  0  0  0  0
  -27.9040  -12.5680   18.2840 C   0  0  0  0  0  2  0  0  0  0  0  0
  -27.6100  -13.3760   19.5750 C   0  0  0  0  0  3  0  0  0  0  0  0
  -28.7270  -13.2150   20.6310 C   0  0  0  0  0  2  0  0  0  0  0  0
  -29.9940  -13.5740   19.9850 N   0  0  0  0  0  0  0  0  0  0  0  0
  -31.8530  -14.7920   19.7130 O   0  0  0  0  0  0  0  0  0  0  0  0
  -29.9840  -15.9290   20.3980 N   0  0  0  0  0  0  0  0  0  0  0  0
  -29.0310  -15.7750   20.6900 H   0  0  0  0  0  0  0  0  0  0  0  0
  -25.2510  -13.9260   20.4170 C   0  0  0  0  0  0  0  0  0  0  0  0
  -24.2110  -13.1330   20.8170 C   0  0  0  0  0  0  0  0  0  0  0  0
  -24.6870  -11.7890   20.7450 C   0  0  0  0  0  0  0  0  0  0  0  0
  -26.2930  -13.0630   20.1210 N   0  0  0  0  0  0  0  0  0  0  0  0
  -25.9630  -11.7710   20.3820 N   0  0  0  0  0  0  0  0  0  0  0  0
  -23.9810  -10.5150   20.9430 C   0  0  0  0  0  0  0  0  0  0  0  0
  -24.4180   -9.5680   21.8950 C   0  0  0  0  0  3  0  0  0  0  0  0
  -23.7120   -8.3600   22.0810 C   0  0  0  0  0  3  0  0  0  0  0  0
  -22.5540   -8.0910   21.3140 C   0  0  0  0  0  0  0  0  0  0  0  0
  -22.1360   -9.0260   20.3500 C   0  0  0  0  0  3  0  0  0  0  0  0
  -22.8440  -10.2250   20.1630 C   0  0  0  0  0  3  0  0  0  0  0  0
  -21.8190   -6.9340   21.4070 O   0  0  0  0  0  0  0  0  0  0  0  0
  -21.7140   -6.2400   22.5870 C   0  0  0  0  0  0  0  0  0  0  0  0
  -21.1810   -6.8320   23.7530 C   0  0  0  0  0  3  0  0  0  0  0  0
  -21.0280   -6.0620   24.9240 C   0  0  0  0  0  3  0  0  0  0  0  0
  -21.3970   -4.7040   24.9280 C   0  0  0  0  0  0  0  0  0  0  0  0
  -21.9220   -4.1120   23.7660 C   0  0  0  0  0  3  0  0  0  0  0  0
  -22.0770   -4.8790   22.5980 C   0  0  0  0  0  0  0  0  0  0  0  0
  -22.5640   -4.2990   21.4740 F   0  0  0  0  0  0  0  0  0  0  0  0
  -21.2420   -3.9630   26.0510 F   0  0  0  0  0  0  0  0  0  0  0  0
  -22.8220  -13.5910   21.1540 C   0  0  0  0  0  0  0  0  0  0  0  0
  -22.1330  -12.8670   22.0310 N   0  0  0  0  0  0  0  0  0  0  0  0
  -22.3560  -14.6250   20.6770 O   0  0  0  0  0  0  0  0  0  0  0  0
  -22.5230  -12.0310   22.4380 H   0  0  0  0  0  0  0  0  0  0  0  0
  -21.2020  -13.1540   22.2980 H   0  0  0  0  0  0  0  0  0  0  0  0
  -25.3920  -15.3000   20.2560 N   0  0  0  0  0  0  0  0  0  0  0  0
  -24.6230  -15.9410   20.4240 H   0  0  0  0  0  0  0  0  0  0  0  0
  -26.2210  -15.7640   19.9100 H   0  0  0  0  0  0  0  0  0  0  0  0
  -28.9260  -22.4420   19.9310 N   0  0  0  0  0  4  0  0  0  0  0  0
  -28.4900  -22.2700   19.0380 H   0  0  0  0  0  0  0  0  0  0  0  0
  -29.9080  -22.5920   19.7460 H   0  0  0  0  0  0  0  0  0  0  0  0
  -26.9110  -23.5950   20.9740 C   0  0  0  0  0  1  0  0  0  0  0  0
  -28.3770  -23.7620   20.5270 C   0  0  0  0  0  3  0  0  0  0  0  0
  -28.5140  -25.0920   19.6130 C   0  0  0  0  0  2  0  0  0  0  0  0
  -28.4150  -26.4780   20.1780 O   0  0  0  0  0  0  0  0  0  0  0  0
  -24.6710  -31.8700   23.2000 C   0  0  0  0  0  0  0  0  0  0  0  0
  -27.2720  -27.3010   20.1140 C   0  0  0  0  0  0  0  0  0  0  0  0
  -23.4590  -30.4700   21.5670 C   0  0  0  0  0  3  0  0  0  0  0  0
  -24.9020  -28.9220   20.1240 C   0  0  0  0  0  0  0  0  0  0  0  0
  -25.9970  -30.7920   21.3630 C   0  0  0  0  0  2  0  0  0  0  0  0
  -26.0730  -29.4120   20.7130 C   0  0  0  0  0  0  0  0  0  0  0  0
  -27.2570  -28.6110   20.6980 C   0  0  0  0  0  3  0  0  0  0  0  0
  -26.0720  -26.8660   19.5090 C   0  0  0  0  0  3  0  0  0  0  0  0
  -24.9050  -27.6570   19.5140 C   0  0  0  0  0  3  0  0  0  0  0  0
  -23.6630  -29.7950   20.1840 C   0  0  0  0  0  2  0  0  0  0  0  0
  -24.7290  -31.0620   22.0990 N   0  0  0  0  0  0  0  0  0  0  0  0
  -23.5910  -32.1410   23.7440 O   0  0  0  0  0  0  0  0  0  0  0  0
  -22.8070  -29.4510   22.5330 C   0  0  0  0  0  0  0  0  0  0  0  0
  -21.4800  -29.2700   22.4180 N   0  0  0  0  0  0  0  0  0  0  0  0
  -23.4940  -28.8250   23.3430 O   0  0  0  0  0  0  0  0  0  0  0  0
  -20.9830  -29.8280   21.7370 H   0  0  0  0  0  0  0  0  0  0  0  0
  -18.1080  -28.0690   22.9490 C   0  0  0  0  0  0  0  0  0  0  0  0
  -20.6700  -28.3300   23.1940 C   0  0  0  0  0  3  0  0  0  0  0  0
  -20.7680  -26.9010   22.6110 C   0  0  0  0  0  2  0  0  0  0  0  0
  -19.6550  -26.5800   21.6080 C   0  0  0  0  0  2  0  0  0  0  0  0
  -18.2800  -26.7220   22.2660 C   0  0  0  0  0  2  0  0  0  0  0  0
  -19.2310  -28.8310   23.3690 C   0  0  0  0  0  0  0  0  0  0  0  0
  -19.0160  -30.0910   23.9670 C   0  0  0  0  0  3  0  0  0  0  0  0
  -17.7120  -30.5900   24.1500 C   0  0  0  0  0  3  0  0  0  0  0  0
  -16.6050  -29.8250   23.7450 C   0  0  0  0  0  3  0  0  0  0  0  0
  -16.8040  -28.5650   23.1500 C   0  0  0  0  0  3  0  0  0  0  0  0
  -25.9560  -32.5060   23.8140 C   0  0  0  0  0  3  0  0  0  0  0  0
  -26.4920  -31.7300   25.0790 C   0  0  1  0  0  0  0  0  0  0  0  0
  -25.4100  -31.4760   26.1560 C   0  0  0  0  0  1  0  0  0  0  0  0
  -27.0830  -30.3590   24.6720 C   0  0  0  0  0  1  0  0  0  0  0  0
  -27.6410  -32.5290   25.7370 C   0  0  0  0  0  1  0  0  0  0  0  0
  -25.6400  -33.9000   24.1610 N   0  0  0  0  0  0  0  0  0  0  0  0
  -25.9540  -34.9630   23.4080 C   0  0  0  0  0  0  0  0  0  0  0  0
  -26.6100  -34.8740   22.3660 O   0  0  0  0  0  0  0  0  0  0  0  0
  -25.0580  -34.0420   24.9730 H   0  0  0  0  0  0  0  0  0  0  0  0
  -24.2170  -36.7550   23.0870 C   0  0  0  0  0  1  0  0  0  0  0  0
  -25.4640  -36.3440   23.8860 C   0  0  0  0  0  3  0  0  0  0  0  0
  -27.5970  -37.2310   24.7210 C   0  0  0  0  0  1  0  0  0  0  0  0
  -26.4930  -37.4020   23.7810 N   0  0  0  0  0  0  0  0  0  0  0  0
  -26.0830  -38.3190   23.9380 H   0  0  0  0  0  0  0  0  0  0  0  0
  2  5  1  0
  3  2  2  0
  3  6  1  0
  4  7  1  0
  4  1  1  0
  5 19  1  0
  5  7  2  0
  6  4  2  0
  7 10  1  0
  8  3  1  0
  9  6  1  0
 11 19  1  0
 12 17  1  0
 13 14  1  0
 13 12  1  0
 15 14  1  0
 15 24  1  0
 15 16  1  0
 17 11  1  0
 17 16  1  0
 18 11  2  0
 19 20  1  0
 21 22  2  0
 22 41  1  0
 23 22  1  0
 23 26  1  0
 24 25  1  0
 24 21  1  0
 25 23  2  0
 26 27  1  0
 27 28  2  0
 29 32  1  0
 29 28  1  0
 30 29  2  0
 31 30  1  0
 31 26  2  0
 32 33  1  0
 33 38  2  0
 33 34  1  0
 34 35  2  0
 35 36  1  0
 36 40  1  0
 37 36  2  0
 38 37  1  0
 39 38  1  0
 41 42  1  0
 42 45  1  0
 42 44  1  0
 43 41  2  0
 46 21  1  0
 46 47  1  0
 48 46  1  0
 49 53  1  0
 49  1  1  0
 50 49  1  0
 51 49  1  0
 53 52  1  0
 54 55  1  0
 54 53  1  0
 56 67  2  0
 57 55  1  0
 57 62  1  0
 58 66  1  0
 58 68  1  0
 59 65  1  0
 59 61  1  0
 60 66  1  0
 61 60  1  0
 62 61  2  0
 63 64  1  0
 63 57  2  0
 64 59  2  0
 65 58  1  0
 66 56  1  0
 68 70  2  0
 69 68  1  0
 71 69  1  0
 72 81  2  0
 72 77  1  0
 73 69  1  0
 73 77  1  0
 74 73  1  0
 75 76  1  0
 75 74  1  0
 76 72  1  0
 77 78  2  0
 78 79  1  0
 80 79  2  0
 81 80  1  0
 82 56  1  0
 82 87  1  0
 82 83  1  0
 83 86  1  1
 83 84  1  0
 85 83  1  0
 87 90  1  0
 88 92  1  0
 88 87  1  0
 89 88  2  0
 92 91  1  0
 94 92  1  0
 94 95  1  0
 94 93  1  0
M  ISO  4  11 100  19 100  54 101  55 101
M  END
>  <TORSDO>  (46) 
F 20

>  <SCORE>  (46) 
-13.664

>  <name>  (46) 
45

>  <ligand_id>  (46) 
45

>  <original_smiles>  (46) 
[H]c1c([H])c([H])c2c(c1[H])C([H])([H])C([H])([H])C([H])([H])C2([H])N([H])C(=O)C1([H])N(C(=O)C([H])(N([H])C(=O)C([H])(N([H])C([H])([H])[H])C([H])([H])[H])C(C([H])([H])[H])(C([H])([H])[H])C([H])([H])[H])C([H])([H])c2c([H])c(OC([H])([H])C([H])(C([H])([H])[H])[N+]([H])([H])C([H])([H])c3c(Cl)c(N([H])C(=O)N4C([H])([H])C([H])([H])C([H])([H])C([H])(n5nc(-c6c([H])c([H])c(Oc7c([H])c([H])c(F)c([H])c7F)c([H])c6[H])c(C(=O)N([H])[H])c5N([H])[H])C4([H])[H])c([H])c(C([H])([H])[H])c3Cl)c([H])c([H])c2C1([H])[H]

>  <smiles>  (46) 
[H]c1c([H])c([H])c2c(c1[H])C([H])([H])C([H])([H])C([H])([H])C2([H])N([H])C(=O)C1([H])N(C(=O)C([H])(N([H])C(=O)C([H])(N([H])C([H])([H])[H])C([H])([H])[H])C(C([H])([H])[H])(C([H])([H])[H])C([H])([H])[H])C([H])([H])c2c([H])c(OC([H])([H])C([H])(C([H])([H])[H])[N+]([H])([H])C([H])([H])c3c(Cl)c(N([H])C(=O)N4C([H])([H])C([H])([H])C([H])([H])C([H])(n5nc(-c6c([H])c([H])c(Oc7c([H])c([H])c(F)c([H])c7F)c([H])c6[H])c(C(=O)N([H])[H])c5N([H])[H])C4([H])[H])c([H])c(C([H])([H])[H])c3Cl)c([H])c([H])c2C1([H])[H]

$$$$
46:0:0
     RDKit          3D

102109  0  0  1  0  0  0  0  0999 V2000
  -24.5740  -15.9910   18.5820 C   0  0  0  0  0  2  0  0  0  0  0  0
  -25.1620  -17.1850   19.4460 C   0  0  0  0  0  3  0  0  0  0  0  0
  -25.1340  -18.6630   18.9210 C   0  0  0  0  0  3  0  0  0  0  0  0
  -25.4520  -19.8280   19.9590 C   0  0  0  0  0  2  0  0  0  0  0  0
  -26.0180  -21.1530   19.3170 C   0  0  0  0  0  2  0  0  0  0  0  0
  -27.2780  -23.0140   20.5270 C   0  0  0  0  0  0  0  0  0  0  0  0
  -24.8350  -23.2020   20.0320 C   0  0  0  0  0  1  0  0  0  0  0  0
  -26.0960  -22.4450   20.1070 N   0  0  0  0  0  0  0  0  0  0  0  0
  -28.2870  -22.3140   20.6240 O   0  0  0  0  0  0  0  0  0  0  0  0
  -27.4590  -24.5440   20.8860 C   0  0  0  0  0  3  0  0  0  0  0  0
  -28.4470  -25.3500   19.9420 C   0  0  0  0  0  3  0  0  0  0  0  0
  -28.5800  -26.8130   20.0810 O   0  0  0  0  0  0  0  0  0  0  0  0
  -24.7130  -31.7770   23.5110 C   0  0  0  0  0  0  0  0  0  0  0  0
  -27.4490  -27.6160   20.0840 C   0  0  0  0  0  0  0  0  0  0  0  0
  -23.5640  -30.4270   21.8020 C   0  0  0  0  0  3  0  0  0  0  0  0
  -25.0460  -29.1060   20.2310 C   0  0  0  0  0  0  0  0  0  0  0  0
  -26.0530  -30.9220   21.5970 C   0  0  0  0  0  2  0  0  0  0  0  0
  -26.1970  -29.6030   20.8470 C   0  0  0  0  0  0  0  0  0  0  0  0
  -27.4070  -28.8520   20.7890 C   0  0  0  0  0  3  0  0  0  0  0  0
  -26.2840  -27.1940   19.4170 C   0  0  0  0  0  3  0  0  0  0  0  0
  -25.0780  -27.8950   19.5360 C   0  0  0  0  0  3  0  0  0  0  0  0
  -23.7830  -29.9060   20.3680 C   0  0  0  0  0  2  0  0  0  0  0  0
  -24.7940  -31.0550   22.3640 N   0  0  0  0  0  0  0  0  0  0  0  0
  -23.6200  -31.9540   24.0730 O   0  0  0  0  0  0  0  0  0  0  0  0
  -22.9710  -29.2990   22.6860 C   0  0  0  0  0  0  0  0  0  0  0  0
  -21.7010  -28.9180   22.4320 N   0  0  0  0  0  0  0  0  0  0  0  0
  -23.6570  -28.7730   23.5620 O   0  0  0  0  0  0  0  0  0  0  0  0
  -21.1750  -29.4410   21.7460 H   0  0  0  0  0  0  0  0  0  0  0  0
  -18.5970  -27.0610   22.4980 C   0  0  0  0  0  0  0  0  0  0  0  0
  -20.9750  -27.8410   23.1130 C   0  0  0  0  0  3  0  0  0  0  0  0
  -21.4610  -26.4430   22.6400 C   0  0  0  0  0  2  0  0  0  0  0  0
  -20.5830  -25.8240   21.5480 C   0  0  0  0  0  2  0  0  0  0  0  0
  -19.1280  -25.7290   22.0130 C   0  0  0  0  0  2  0  0  0  0  0  0
  -19.4580  -28.0560   23.0270 C   0  0  0  0  0  0  0  0  0  0  0  0
  -18.9020  -29.2740   23.4810 C   0  0  0  0  0  3  0  0  0  0  0  0
  -17.5130  -29.4980   23.3970 C   0  0  0  0  0  3  0  0  0  0  0  0
  -16.6720  -28.5190   22.8480 C   0  0  0  0  0  3  0  0  0  0  0  0
  -17.2140  -27.3000   22.4040 C   0  0  0  0  0  3  0  0  0  0  0  0
  -25.9780  -32.4320   24.1590 C   0  0  0  0  0  3  0  0  0  0  0  0
  -26.3920  -31.7610   25.5260 C   0  0  1  0  0  0  0  0  0  0  0  0
  -25.2350  -31.6540   26.5470 C   0  0  0  0  0  1  0  0  0  0  0  0
  -26.9410  -30.3380   25.2910 C   0  0  0  0  0  1  0  0  0  0  0  0
  -27.5350  -32.5760   26.1810 C   0  0  0  0  0  1  0  0  0  0  0  0
  -25.6900  -33.8570   24.3550 N   0  0  0  0  0  0  0  0  0  0  0  0
  -26.1230  -34.8310   23.5380 C   0  0  0  0  0  0  0  0  0  0  0  0
  -26.8730  -34.6200   22.5780 O   0  0  0  0  0  0  0  0  0  0  0  0
  -25.0230  -34.1030   25.0800 H   0  0  0  0  0  0  0  0  0  0  0  0
  -24.5220  -36.6380   22.8450 C   0  0  0  0  0  1  0  0  0  0  0  0
  -25.6450  -36.2660   23.8320 C   0  0  0  0  0  3  0  0  0  0  0  0
  -27.7060  -37.1380   24.8430 C   0  0  0  0  0  1  0  0  0  0  0  0
  -26.7340  -37.2710   23.7570 N   0  0  0  0  0  0  0  0  0  0  0  0
  -26.3460  -38.2120   23.7790 H   0  0  0  0  0  0  0  0  0  0  0  0
  -24.7000  -14.5550   19.2390 C   0  0  0  0  0  3  0  0  0  0  0  0
  -23.7640  -13.4130   18.7010 C   0  0  0  0  0  3  0  0  0  0  0  0
  -23.8220  -11.9500   19.3330 C   0  0  0  0  0  3  0  0  0  0  0  0
  -25.1930  -11.2060   19.2770 C   0  0  0  0  0  3  0  0  0  0  0  0
  -25.5440   -9.6860   19.6630 C   0  0  0  0  0  2  0  0  0  0  0  0
  -27.1040   -9.3560   19.6140 C   0  0  0  0  0  2  0  0  0  0  0  0
  -29.3110   -9.3210   20.8260 C   0  0  0  0  0  0  0  0  0  0  0  0
  -27.6860   -7.4630   21.0360 C   0  0  0  0  0  1  0  0  0  0  0  0
  -27.9840   -8.8820   20.7490 N   0  0  0  0  0  0  0  0  0  0  0  0
  -30.0710   -9.0960   19.8820 O   0  0  0  0  0  0  0  0  0  0  0  0
  -29.9050  -10.1770   22.0370 C   0  0  0  0  0  2  0  0  0  0  0  0
  -31.3190  -10.9860   21.8920 C   0  0  0  0  0  2  0  0  0  0  0  0
  -31.3850  -13.6010   21.7410 C   0  0  0  0  0  0  0  0  0  0  0  0
  -30.6600  -13.1120   19.6520 C   0  0  0  0  0  2  0  0  0  0  0  0
  -29.4890  -13.2610   18.7520 C   0  0  0  0  0  2  0  0  0  0  0  0
  -28.3410  -12.6480   19.4590 C   0  0  0  0  0  2  0  0  0  0  0  0
  -27.8840  -13.3980   20.7240 C   0  0  0  0  0  3  0  0  0  0  0  0
  -29.0130  -13.4890   21.7260 C   0  0  0  0  0  2  0  0  0  0  0  0
  -30.3230  -13.3970   21.0560 N   0  0  0  0  0  0  0  0  0  0  0  0
  -32.1310  -14.5780   21.5330 O   0  0  0  0  0  0  0  0  0  0  0  0
  -31.5950  -12.4220   22.4140 N   0  0  0  0  0  0  0  0  0  0  0  0
  -32.3040  -12.4930   23.1290 H   0  0  0  0  0  0  0  0  0  0  0  0
  -25.5880  -13.7500   21.7740 C   0  0  0  0  0  0  0  0  0  0  0  0
  -24.5330  -12.9110   22.0370 C   0  0  0  0  0  0  0  0  0  0  0  0
  -25.0250  -11.5940   21.8350 C   0  0  0  0  0  0  0  0  0  0  0  0
  -26.6210  -12.9470   21.3400 N   0  0  0  0  0  0  0  0  0  0  0  0
  -26.3290  -11.6270   21.5280 N   0  0  0  0  0  0  0  0  0  0  0  0
  -24.3090  -10.3110   21.8960 C   0  0  0  0  0  0  0  0  0  0  0  0
  -24.7690   -9.2670   22.7160 C   0  0  0  0  0  3  0  0  0  0  0  0
  -24.0880   -8.0280   22.7650 C   0  0  0  0  0  3  0  0  0  0  0  0
  -22.9190   -7.8360   21.9870 C   0  0  0  0  0  0  0  0  0  0  0  0
  -22.4590   -8.8760   21.1690 C   0  0  0  0  0  3  0  0  0  0  0  0
  -23.1440  -10.1010   21.1240 C   0  0  0  0  0  3  0  0  0  0  0  0
  -22.1990   -6.6640   21.9660 O   0  0  0  0  0  0  0  0  0  0  0  0
  -22.0330   -5.9170   23.0980 C   0  0  0  0  0  0  0  0  0  0  0  0
  -21.3790   -6.4220   24.2500 C   0  0  0  0  0  3  0  0  0  0  0  0
  -21.1520   -5.5800   25.3520 C   0  0  0  0  0  3  0  0  0  0  0  0
  -21.5810   -4.2390   25.3170 C   0  0  0  0  0  0  0  0  0  0  0  0
  -22.2290   -3.7370   24.1760 C   0  0  0  0  0  3  0  0  0  0  0  0
  -22.4500   -4.5710   23.0730 C   0  0  0  0  0  0  0  0  0  0  0  0
  -23.0380   -4.0770   21.9620 F   0  0  0  0  0  0  0  0  0  0  0  0
  -21.3720   -3.4330   26.3800 F   0  0  0  0  0  0  0  0  0  0  0  0
  -23.1290  -13.3310   22.3550 C   0  0  0  0  0  0  0  0  0  0  0  0
  -22.4660  -12.5590   23.2100 N   0  0  0  0  0  0  0  0  0  0  0  0
  -22.6240  -14.3500   21.8940 O   0  0  0  0  0  0  0  0  0  0  0  0
  -22.8770  -11.7120   23.5720 H   0  0  0  0  0  0  0  0  0  0  0  0
  -21.5090  -12.7790   23.4320 H   0  0  0  0  0  0  0  0  0  0  0  0
  -25.7290  -15.1160   21.8590 N   0  0  0  0  0  0  0  0  0  0  0  0
  -24.9550  -15.7130   22.1180 H   0  0  0  0  0  0  0  0  0  0  0  0
  -26.5880  -15.6380   21.7340 H   0  0  0  0  0  0  0  0  0  0  0  0
  1 53  1  0
  1  2  1  0
  3  2  2  0
  3  4  1  0
  5  4  1  0
  5  8  1  0
  6  9  2  0
  6 10  1  0
  7  8  1  0
  8  6  1  0
 11 12  1  0
 11 10  2  0
 12 14  1  0
 13 24  2  0
 14 19  1  0
 15 23  1  0
 15 25  1  0
 16 22  1  0
 16 18  1  0
 17 23  1  0
 18 17  1  0
 19 18  2  0
 20 21  1  0
 20 14  2  0
 21 16  2  0
 22 15  1  0
 23 13  1  0
 25 27  2  0
 26 25  1  0
 28 26  1  0
 29 34  1  0
 30 26  1  0
 31 30  1  0
 32 33  1  0
 32 31  1  0
 33 29  1  0
 34 30  1  0
 34 35  2  0
 36 35  1  0
 37 36  2  0
 38 29  2  0
 38 37  1  0
 39 13  1  0
 39 44  1  0
 39 40  1  0
 40 43  1  1
 40 41  1  0
 42 40  1  0
 44 47  1  0
 45 49  1  0
 45 44  1  0
 46 45  2  0
 49 48  1  0
 51 52  1  0
 51 49  1  0
 51 50  1  0
 54 53  2  0
 54 55  1  0
 56 55  2  0
 56 57  1  0
 58 57  1  0
 58 61  1  0
 59 63  1  0
 61 59  1  0
 61 60  1  0
 62 59  2  0
 64 63  1  0
 64 73  1  0
 65 73  1  0
 66 71  1  0
 67 68  1  0
 67 66  1  0
 69 68  1  0
 69 78  1  0
 69 70  1  0
 71 70  1  0
 71 65  1  0
 72 65  2  0
 73 74  1  0
 75100  1  0
 75 76  2  0
 76 95  1  0
 77 80  1  0
 77 76  1  0
 78 79  1  0
 78 75  1  0
 79 77  2  0
 80 81  1  0
 81 82  2  0
 83 82  1  0
 84 83  2  0
 85 84  1  0
 85 80  2  0
 86 83  1  0
 86 87  1  0
 87 88  1  0
 88 89  2  0
 90 89  1  0
 90 94  1  0
 91 90  2  0
 92 87  2  0
 92 91  1  0
 93 92  1  0
 95 96  1  0
 96 99  1  0
 96 98  1  0
 97 95  2  0
100101  1  0
102100  1  0
M  ISO  4  11 101  12 101  65 100  73 100
M  END
>  <TORSDO>  (47) 
F 32

>  <SCORE>  (47) 
5.431

>  <name>  (47) 
46

>  <ligand_id>  (47) 
46

>  <original_smiles>  (47) 
[H]c1c([H])c([H])c2c(c1[H])C([H])([H])C([H])([H])C([H])([H])C2([H])N([H])C(=O)C1([H])N(C(=O)C([H])(N([H])C(=O)C([H])(N([H])C([H])([H])[H])C([H])([H])[H])C(C([H])([H])[H])(C([H])([H])[H])C([H])([H])[H])C([H])([H])c2c([H])c(OC([H])([H])C([H])([H])C(=O)N(C([H])([H])[H])C([H])([H])C([H])([H])C([H])([H])C([H])([H])C([H])([H])C([H])([H])C([H])([H])C([H])([H])C([H])([H])C([H])([H])C([H])([H])N(C(=O)C([H])([H])C([H])([H])N([H])C(=O)N3C([H])([H])C([H])([H])C([H])([H])C([H])(n4nc(-c5c([H])c([H])c(Oc6c([H])c([H])c(F)c([H])c6F)c([H])c5[H])c(C(=O)N([H])[H])c4N([H])[H])C3([H])[H])C([H])([H])[H])c([H])c([H])c2C1([H])[H]

>  <smiles>  (47) 
[H]c1c([H])c([H])c2c(c1[H])C([H])([H])C([H])([H])C([H])([H])C2([H])N([H])C(=O)C1([H])N(C(=O)C([H])(N([H])C(=O)C([H])(N([H])C([H])([H])[H])C([H])([H])[H])C(C([H])([H])[H])(C([H])([H])[H])C([H])([H])[H])C([H])([H])c2c([H])c(OC([H])([H])C([H])([H])C(=O)N(C([H])([H])[H])C([H])([H])C([H])([H])C([H])([H])C([H])([H])C([H])([H])C([H])([H])C([H])([H])C([H])([H])C([H])([H])C([H])([H])C([H])([H])N(C(=O)C([H])([H])C([H])([H])N([H])C(=O)N3C([H])([H])C([H])([H])C([H])([H])C([H])(n4nc(-c5c([H])c([H])c(Oc6c([H])c([H])c(F)c([H])c6F)c([H])c5[H])c(C(=O)N([H])[H])c4N([H])[H])C3([H])[H])C([H])([H])[H])c([H])c([H])c2C1([H])[H]

$$$$
47:0:0
     RDKit          3D

 94102  0  0  1  0  0  0  0  0999 V2000
  -31.1580  -17.9140   19.4710 C   0  0  0  0  0  3  0  0  0  0  0  0
  -30.1330  -20.1920   19.6720 C   0  0  0  0  0  0  0  0  0  0  0  0
  -28.9850  -19.5470   20.2240 C   0  0  0  0  0  0  0  0  0  0  0  0
  -30.0340  -17.2670   20.0430 C   0  0  0  0  0  0  0  0  0  0  0  0
  -31.2040  -19.3290   19.2920 C   0  0  0  0  0  0  0  0  0  0  0  0
  -28.9440  -18.1170   20.3890 C   0  0  0  0  0  0  0  0  0  0  0  0
  -27.7950  -20.3890   20.6710 C   0  0  0  0  0  1  0  0  0  0  0  0
  -32.3300  -19.8640   18.7610 F   0  0  0  0  0  0  0  0  0  0  0  0
  -27.5280  -17.3650   21.0500 Cl  0  0  0  0  0  0  0  0  0  0  0  0
  -30.6540  -14.7340   19.8810 C   0  0  0  0  0  0  0  0  0  0  0  0
  -30.3690  -12.4520   18.9370 C   0  0  0  0  0  2  0  0  0  0  0  0
  -29.3860  -12.5430   17.7490 C   0  0  0  0  0  2  0  0  0  0  0  0
  -27.9270  -12.4320   18.2350 C   0  0  0  0  0  2  0  0  0  0  0  0
  -27.6260  -13.3570   19.4440 C   0  0  0  0  0  3  0  0  0  0  0  0
  -28.7190  -13.2320   20.5300 C   0  0  0  0  0  2  0  0  0  0  0  0
  -30.0160  -13.5200   19.8940 N   0  0  0  0  0  0  0  0  0  0  0  0
  -31.7960  -14.8480   19.4280 O   0  0  0  0  0  0  0  0  0  0  0  0
  -29.9020  -15.8170   20.2520 N   0  0  0  0  0  0  0  0  0  0  0  0
  -29.0410  -15.5600   20.7130 H   0  0  0  0  0  0  0  0  0  0  0  0
  -25.3010  -14.0460   20.2950 C   0  0  0  0  0  0  0  0  0  0  0  0
  -24.2140  -13.3120   20.6880 C   0  0  0  0  0  0  0  0  0  0  0  0
  -24.6050  -11.9430   20.5880 C   0  0  0  0  0  0  0  0  0  0  0  0
  -26.2880  -13.1250   19.9830 N   0  0  0  0  0  0  0  0  0  0  0  0
  -25.8770  -11.8520   20.2180 N   0  0  0  0  0  0  0  0  0  0  0  0
  -23.8250  -10.7110   20.7670 C   0  0  0  0  0  0  0  0  0  0  0  0
  -24.2700   -9.6710   21.6130 C   0  0  0  0  0  3  0  0  0  0  0  0
  -23.4920   -8.5050   21.7820 C   0  0  0  0  0  3  0  0  0  0  0  0
  -22.2560   -8.3720   21.1080 C   0  0  0  0  0  0  0  0  0  0  0  0
  -21.8280   -9.4000   20.2500 C   0  0  0  0  0  3  0  0  0  0  0  0
  -22.6050  -10.5580   20.0780 C   0  0  0  0  0  3  0  0  0  0  0  0
  -21.4460   -7.2650   21.1930 O   0  0  0  0  0  0  0  0  0  0  0  0
  -21.4720   -6.4370   22.2860 C   0  0  0  0  0  0  0  0  0  0  0  0
  -21.2210   -6.9150   23.5900 C   0  0  0  0  0  3  0  0  0  0  0  0
  -21.1890   -6.0170   24.6750 C   0  0  0  0  0  3  0  0  0  0  0  0
  -21.3990   -4.6420   24.4590 C   0  0  0  0  0  0  0  0  0  0  0  0
  -21.6430   -4.1630   23.1600 C   0  0  0  0  0  3  0  0  0  0  0  0
  -21.6760   -5.0580   22.0760 C   0  0  0  0  0  0  0  0  0  0  0  0
  -21.8910   -4.5880   20.8240 F   0  0  0  0  0  0  0  0  0  0  0  0
  -21.3600   -3.7780   25.5000 F   0  0  0  0  0  0  0  0  0  0  0  0
  -22.8570  -13.8470   21.0450 C   0  0  0  0  0  0  0  0  0  0  0  0
  -22.1410  -13.1600   21.9290 N   0  0  0  0  0  0  0  0  0  0  0  0
  -22.4440  -14.9080   20.5770 O   0  0  0  0  0  0  0  0  0  0  0  0
  -22.4880  -12.3000   22.3260 H   0  0  0  0  0  0  0  0  0  0  0  0
  -21.2330  -13.4990   22.2120 H   0  0  0  0  0  0  0  0  0  0  0  0
  -25.5250  -15.4110   20.1550 N   0  0  0  0  0  0  0  0  0  0  0  0
  -24.8070  -16.0990   20.3510 H   0  0  0  0  0  0  0  0  0  0  0  0
  -26.3880  -15.8240   19.8300 H   0  0  0  0  0  0  0  0  0  0  0  0
  -30.3520  -21.7610   19.6330 C   0  0  0  0  0  2  0  0  0  0  0  0
  -29.3690  -24.1210   19.5010 C   0  0  0  0  0  0  0  0  0  0  0  0
  -29.2640  -22.7590   19.3410 N   0  0  0  0  0  0  0  0  0  0  0  0
  -30.3940  -24.6210   19.9700 O   0  0  0  0  0  0  0  0  0  0  0  0
  -28.4080  -22.4000   18.9420 H   0  0  0  0  0  0  0  0  0  0  0  0
  -28.1890  -25.0740   19.0680 C   0  0  0  0  0  2  0  0  0  0  0  0
  -28.3390  -26.5180   19.3850 O   0  0  0  0  0  0  0  0  0  0  0  0
  -24.4350  -31.4680   22.9090 C   0  0  0  0  0  0  0  0  0  0  0  0
  -27.1710  -27.3000   19.4330 C   0  0  0  0  0  0  0  0  0  0  0  0
  -23.2460  -30.1310   21.2090 C   0  0  0  0  0  3  0  0  0  0  0  0
  -24.7210  -28.7710   19.6260 C   0  0  0  0  0  0  0  0  0  0  0  0
  -25.7570  -30.5990   20.9680 C   0  0  0  0  0  2  0  0  0  0  0  0
  -25.8860  -29.2810   20.2160 C   0  0  0  0  0  0  0  0  0  0  0  0
  -27.1120  -28.5580   20.1080 C   0  0  0  0  0  3  0  0  0  0  0  0
  -25.9740  -26.8420   18.8290 C   0  0  0  0  0  3  0  0  0  0  0  0
  -24.7670  -27.5580   18.9260 C   0  0  0  0  0  3  0  0  0  0  0  0
  -23.4440  -29.5710   19.7760 C   0  0  0  0  0  2  0  0  0  0  0  0
  -24.5000  -30.7470   21.7520 N   0  0  0  0  0  0  0  0  0  0  0  0
  -23.3580  -31.6470   23.4960 O   0  0  0  0  0  0  0  0  0  0  0  0
  -22.6710  -29.0110   22.1100 C   0  0  0  0  0  0  0  0  0  0  0  0
  -21.3480  -28.7920   22.0330 N   0  0  0  0  0  0  0  0  0  0  0  0
  -23.4140  -28.3490   22.8400 O   0  0  0  0  0  0  0  0  0  0  0  0
  -20.8050  -29.3850   21.4210 H   0  0  0  0  0  0  0  0  0  0  0  0
  -18.0400  -27.4470   22.6160 C   0  0  0  0  0  0  0  0  0  0  0  0
  -20.6030  -27.7640   22.7610 C   0  0  0  0  0  3  0  0  0  0  0  0
  -20.7080  -26.3930   22.0550 C   0  0  0  0  0  2  0  0  0  0  0  0
  -19.5580  -26.1240   21.0810 C   0  0  0  0  0  2  0  0  0  0  0  0
  -18.2120  -26.1690   21.8130 C   0  0  0  0  0  2  0  0  0  0  0  0
  -19.1620  -28.2040   23.0470 C   0  0  0  0  0  0  0  0  0  0  0  0
  -18.9440  -29.4030   23.7600 C   0  0  0  0  0  3  0  0  0  0  0  0
  -17.6380  -29.8440   24.0460 C   0  0  0  0  0  3  0  0  0  0  0  0
  -16.5330  -29.0840   23.6290 C   0  0  0  0  0  3  0  0  0  0  0  0
  -16.7340  -27.8870   22.9190 C   0  0  0  0  0  3  0  0  0  0  0  0
  -25.7050  -32.1220   23.5340 C   0  0  0  0  0  3  0  0  0  0  0  0
  -26.2870  -31.3050   24.7510 C   0  0  1  0  0  0  0  0  0  0  0  0
  -25.2360  -30.9670   25.8340 C   0  0  0  0  0  1  0  0  0  0  0  0
  -26.9110  -29.9750   24.2690 C   0  0  0  0  0  1  0  0  0  0  0  0
  -27.4240  -32.1080   25.4260 C   0  0  0  0  0  1  0  0  0  0  0  0
  -25.3430  -33.4840   23.9520 N   0  0  0  0  0  0  0  0  0  0  0  0
  -25.6130  -34.5930   23.2500 C   0  0  0  0  0  0  0  0  0  0  0  0
  -26.2630  -34.5790   22.2020 O   0  0  0  0  0  0  0  0  0  0  0  0
  -24.7620  -33.5660   24.7750 H   0  0  0  0  0  0  0  0  0  0  0  0
  -23.7960  -36.3180   23.0480 C   0  0  0  0  0  1  0  0  0  0  0  0
  -25.0790  -35.9290   23.8000 C   0  0  0  0  0  3  0  0  0  0  0  0
  -27.1950  -36.8670   24.6200 C   0  0  0  0  0  1  0  0  0  0  0  0
  -26.0590  -37.0340   23.7170 N   0  0  0  0  0  0  0  0  0  0  0  0
  -25.6150  -37.9240   23.9280 H   0  0  0  0  0  0  0  0  0  0  0  0
  1  4  1  0
  2  3  2  0
  3  6  1  0
  3  7  1  0
  4 18  1  0
  4  6  2  0
  5  1  2  0
  5  2  1  0
  6  9  1  0
  8  5  1  0
 10 16  1  0
 10 18  1  0
 11 16  1  0
 12 13  1  0
 12 11  1  0
 14 13  1  0
 14 23  1  0
 14 15  1  0
 16 15  1  0
 17 10  2  0
 18 19  1  0
 20 21  2  0
 21 40  1  0
 22 21  1  0
 22 25  1  0
 23 24  1  0
 23 20  1  0
 24 22  2  0
 25 26  1  0
 26 27  2  0
 28 31  1  0
 28 27  1  0
 29 28  2  0
 30 29  1  0
 30 25  2  0
 31 32  1  0
 32 33  1  0
 33 34  2  0
 35 34  1  0
 35 39  1  0
 36 35  2  0
 37 32  2  0
 37 36  1  0
 38 37  1  0
 40 41  1  0
 41 44  1  0
 41 43  1  0
 42 40  2  0
 45 20  1  0
 45 46  1  0
 47 45  1  0
 48  2  1  0
 49 51  2  0
 50 49  1  0
 50 48  1  0
 52 50  1  0
 53 54  1  0
 53 49  1  0
 54 56  1  0
 55 66  2  0
 56 61  1  0
 57 65  1  0
 57 67  1  0
 58 64  1  0
 58 60  1  0
 59 65  1  0
 60 59  1  0
 61 60  2  0
 62 63  1  0
 62 56  2  0
 63 58  2  0
 64 57  1  0
 65 55  1  0
 67 69  2  0
 68 67  1  0
 70 68  1  0
 71 80  2  0
 71 76  1  0
 72 68  1  0
 72 76  1  0
 73 72  1  0
 74 75  1  0
 74 73  1  0
 75 71  1  0
 76 77  2  0
 77 78  1  0
 79 78  2  0
 80 79  1  0
 81 55  1  0
 81 86  1  0
 81 82  1  0
 82 85  1  1
 82 83  1  0
 84 82  1  0
 86 89  1  0
 87 91  1  0
 87 86  1  0
 88 87  2  0
 91 90  1  0
 93 91  1  0
 93 94  1  0
 93 92  1  0
M  ISO  4  10 100  18 100  53 101  54 101
M  END
>  <TORSDO>  (48) 
F 19

>  <SCORE>  (48) 
-11.928

>  <name>  (48) 
47

>  <ligand_id>  (48) 
47

>  <original_smiles>  (48) 
[H]c1c([H])c([H])c2c(c1[H])C([H])([H])C([H])([H])C([H])([H])C2([H])N([H])C(=O)C1([H])N(C(=O)C([H])(N([H])C(=O)C([H])(N([H])C([H])([H])[H])C([H])([H])[H])C(C([H])([H])[H])(C([H])([H])[H])C([H])([H])[H])C([H])([H])c2c([H])c(OC([H])([H])C(=O)N([H])C([H])([H])c3c(F)c([H])c(N([H])C(=O)N4C([H])([H])C([H])([H])C([H])([H])C([H])(n5nc(-c6c([H])c([H])c(Oc7c([H])c([H])c(F)c([H])c7F)c([H])c6[H])c(C(=O)N([H])[H])c5N([H])[H])C4([H])[H])c(Cl)c3C([H])([H])[H])c([H])c([H])c2C1([H])[H]

>  <smiles>  (48) 
[H]c1c([H])c([H])c2c(c1[H])C([H])([H])C([H])([H])C([H])([H])C2([H])N([H])C(=O)C1([H])N(C(=O)C([H])(N([H])C(=O)C([H])(N([H])C([H])([H])[H])C([H])([H])[H])C(C([H])([H])[H])(C([H])([H])[H])C([H])([H])[H])C([H])([H])c2c([H])c(OC([H])([H])C(=O)N([H])C([H])([H])c3c(F)c([H])c(N([H])C(=O)N4C([H])([H])C([H])([H])C([H])([H])C([H])(n5nc(-c6c([H])c([H])c(Oc7c([H])c([H])c(F)c([H])c7F)c([H])c6[H])c(C(=O)N([H])[H])c5N([H])[H])C4([H])[H])c(Cl)c3C([H])([H])[H])c([H])c([H])c2C1([H])[H]

$$$$
48:0:0
     RDKit          3D

 98106  0  0  1  0  0  0  0  0999 V2000
  -26.3770  -21.3620   20.3900 C   0  0  0  0  0  1  0  0  0  0  0  0
  -27.5140  -21.4910   21.3420 N   0  0  1  0  0  4  0  0  0  0  0  0
  -27.2040  -20.9560   22.1440 H   0  0  0  0  0  0  0  0  0  0  0  0
  -28.8270  -20.8550   21.0000 C   0  0  0  0  0  2  0  0  0  0  0  0
  -28.7940  -19.3290   18.9260 C   0  0  0  0  0  3  0  0  0  0  0  0
  -29.1820  -18.1510   18.2640 C   0  0  0  0  0  0  0  0  0  0  0  0
  -29.1340  -19.5230   20.2850 C   0  0  0  0  0  0  0  0  0  0  0  0
  -30.1660  -17.2580   20.3250 C   0  0  0  0  0  0  0  0  0  0  0  0
  -29.8670  -17.1370   18.9470 C   0  0  0  0  0  0  0  0  0  0  0  0
  -29.8250  -18.4800   20.9760 C   0  0  0  0  0  0  0  0  0  0  0  0
  -28.8370  -17.9200   16.8110 C   0  0  0  0  0  1  0  0  0  0  0  0
  -30.2270  -16.0570   18.2350 F   0  0  0  0  0  0  0  0  0  0  0  0
  -30.2600  -18.7110   22.6340 Cl  0  0  0  0  0  0  0  0  0  0  0  0
  -31.4200  -15.1320   20.5330 C   0  0  0  0  0  0  0  0  0  0  0  0
  -31.1080  -12.8960   19.5030 C   0  0  0  0  0  2  0  0  0  0  0  0
  -30.2540  -12.9730   18.2230 C   0  0  0  0  0  2  0  0  0  0  0  0
  -28.7470  -12.9420   18.5600 C   0  0  0  0  0  2  0  0  0  0  0  0
  -28.3510  -13.8500   19.7600 C   0  0  0  0  0  3  0  0  0  0  0  0
  -29.3420  -13.7400   20.9330 C   0  0  0  0  0  2  0  0  0  0  0  0
  -30.6960  -13.9790   20.4090 N   0  0  0  0  0  0  0  0  0  0  0  0
  -32.5790  -15.2360   20.1200 O   0  0  0  0  0  0  0  0  0  0  0  0
  -30.8100  -16.2070   21.0600 N   0  0  0  0  0  0  0  0  0  0  0  0
  -31.3260  -16.5840   21.8430 H   0  0  0  0  0  0  0  0  0  0  0  0
  -25.9510  -14.5180   20.3900 C   0  0  0  0  0  0  0  0  0  0  0  0
  -24.8510  -13.7760   20.7230 C   0  0  0  0  0  0  0  0  0  0  0  0
  -25.2790  -12.4130   20.7080 C   0  0  0  0  0  0  0  0  0  0  0  0
  -26.9770  -13.6110   20.1890 N   0  0  0  0  0  0  0  0  0  0  0  0
  -26.5770  -12.3390   20.4440 N   0  0  0  0  0  0  0  0  0  0  0  0
  -24.5180  -11.1670   20.8740 C   0  0  0  0  0  0  0  0  0  0  0  0
  -24.8650  -10.2190   21.8630 C   0  0  0  0  0  3  0  0  0  0  0  0
  -24.1090   -9.0380   22.0170 C   0  0  0  0  0  3  0  0  0  0  0  0
  -22.9920   -8.7970   21.1800 C   0  0  0  0  0  0  0  0  0  0  0  0
  -22.6710   -9.7290   20.1780 C   0  0  0  0  0  3  0  0  0  0  0  0
  -23.4270  -10.9020   20.0230 C   0  0  0  0  0  3  0  0  0  0  0  0
  -22.2150   -7.6660   21.2420 O   0  0  0  0  0  0  0  0  0  0  0  0
  -22.0070   -6.9970   22.4230 C   0  0  0  0  0  0  0  0  0  0  0  0
  -21.4450   -7.6350   23.5510 C   0  0  0  0  0  3  0  0  0  0  0  0
  -21.1820   -6.8930   24.7200 C   0  0  0  0  0  3  0  0  0  0  0  0
  -21.4690   -5.5150   24.7610 C   0  0  0  0  0  0  0  0  0  0  0  0
  -22.0180   -4.8770   23.6350 C   0  0  0  0  0  3  0  0  0  0  0  0
  -22.2830   -5.6160   22.4690 C   0  0  0  0  0  0  0  0  0  0  0  0
  -22.7960   -4.9930   21.3810 F   0  0  0  0  0  0  0  0  0  0  0  0
  -21.2080   -4.8010   25.8800 F   0  0  0  0  0  0  0  0  0  0  0  0
  -23.4560  -14.2840   20.9500 C   0  0  0  0  0  0  0  0  0  0  0  0
  -22.6900  -13.6050   21.7980 N   0  0  0  0  0  0  0  0  0  0  0  0
  -23.0540  -15.3130   20.4060 O   0  0  0  0  0  0  0  0  0  0  0  0
  -23.0330  -12.7740   22.2540 H   0  0  0  0  0  0  0  0  0  0  0  0
  -21.7500  -13.9170   21.9980 H   0  0  0  0  0  0  0  0  0  0  0  0
  -26.1610  -15.8850   20.2230 N   0  0  0  0  0  0  0  0  0  0  0  0
  -25.4150  -16.5660   20.3090 H   0  0  0  0  0  0  0  0  0  0  0  0
  -27.0360  -16.2800   19.9090 H   0  0  0  0  0  0  0  0  0  0  0  0
  -27.7110  -22.8610   21.8930 C   0  0  0  0  0  2  0  0  0  0  0  0
  -27.8990  -24.0270   20.8680 C   0  0  0  0  0  2  0  0  0  0  0  0
  -30.2110  -25.1260   20.8480 C   0  0  0  0  0  1  0  0  0  0  0  0
  -28.8150  -25.2850   22.9170 C   0  0  0  0  0  1  0  0  0  0  0  0
  -28.7620  -25.2500   21.3590 C   0  0  2  0  0  0  0  0  0  0  0  0
  -28.1690  -26.6360   20.9430 C   0  0  0  0  0  2  0  0  0  0  0  0
  -28.0660  -27.0610   19.5610 O   0  0  0  0  0  0  0  0  0  0  0  0
  -24.6070  -31.9870   23.2190 C   0  0  0  0  0  0  0  0  0  0  0  0
  -27.0270  -27.9650   19.4820 C   0  0  0  0  0  0  0  0  0  0  0  0
  -23.2860  -30.7720   21.5150 C   0  0  0  0  0  3  0  0  0  0  0  0
  -24.6460  -29.4500   19.8010 C   0  0  0  0  0  0  0  0  0  0  0  0
  -25.7890  -31.1920   21.1800 C   0  0  0  0  0  2  0  0  0  0  0  0
  -25.8390  -29.9110   20.3720 C   0  0  0  0  0  0  0  0  0  0  0  0
  -27.0360  -29.1770   20.2140 C   0  0  0  0  0  3  0  0  0  0  0  0
  -25.8380  -27.5440   18.8550 C   0  0  0  0  0  3  0  0  0  0  0  0
  -24.6400  -28.2650   19.0380 C   0  0  0  0  0  3  0  0  0  0  0  0
  -23.4020  -30.2700   20.0500 C   0  0  0  0  0  2  0  0  0  0  0  0
  -24.5810  -31.3240   22.0300 N   0  0  0  0  0  0  0  0  0  0  0  0
  -23.5670  -32.1860   23.8610 O   0  0  0  0  0  0  0  0  0  0  0  0
  -22.7100  -29.6350   22.3900 C   0  0  0  0  0  0  0  0  0  0  0  0
  -21.3890  -29.4140   22.3030 N   0  0  0  0  0  0  0  0  0  0  0  0
  -23.4500  -28.9650   23.1140 O   0  0  0  0  0  0  0  0  0  0  0  0
  -20.8510  -30.0080   21.6830 H   0  0  0  0  0  0  0  0  0  0  0  0
  -18.0850  -28.0440   22.7690 C   0  0  0  0  0  0  0  0  0  0  0  0
  -20.6370  -28.3690   23.0000 C   0  0  0  0  0  3  0  0  0  0  0  0
  -20.7840  -26.9990   22.2990 C   0  0  0  0  0  2  0  0  0  0  0  0
  -19.6560  -26.7220   21.2930 C   0  0  0  0  0  2  0  0  0  0  0  0
  -18.2860  -26.7680   21.9680 C   0  0  0  0  0  2  0  0  0  0  0  0
  -19.1920  -28.8060   23.2330 C   0  0  0  0  0  0  0  0  0  0  0  0
  -18.9560  -30.0150   23.9230 C   0  0  0  0  0  3  0  0  0  0  0  0
  -17.6410  -30.4560   24.1600 C   0  0  0  0  0  3  0  0  0  0  0  0
  -16.5490  -29.6830   23.7250 C   0  0  0  0  0  3  0  0  0  0  0  0
  -16.7750  -28.4800   23.0400 C   0  0  0  0  0  3  0  0  0  0  0  0
  -25.9370  -32.5540   23.8140 C   0  0  0  0  0  3  0  0  0  0  0  0
  -25.6530  -33.8970   24.3420 N   0  0  0  0  0  0  0  0  0  0  0  0
  -25.9580  -35.0370   23.7120 C   0  0  0  0  0  0  0  0  0  0  0  0
  -26.5800  -35.0700   22.6470 O   0  0  0  0  0  0  0  0  0  0  0  0
  -25.0890  -33.9420   25.1770 H   0  0  0  0  0  0  0  0  0  0  0  0
  -24.2240  -36.8560   23.6600 C   0  0  0  0  0  1  0  0  0  0  0  0
  -25.4940  -36.3550   24.3640 C   0  0  0  0  0  3  0  0  0  0  0  0
  -27.6660  -37.1200   25.2150 C   0  0  0  0  0  1  0  0  0  0  0  0
  -26.5290  -37.4110   24.3480 N   0  0  0  0  0  0  0  0  0  0  0  0
  -26.1340  -38.3050   24.6300 H   0  0  0  0  0  0  0  0  0  0  0  0
  -26.5600  -31.6330   24.9380 C   0  0  1  0  0  0  0  0  0  0  0  0
  -25.5530  -31.2570   26.0520 C   0  0  0  0  0  1  0  0  0  0  0  0
  -27.1060  -30.3200   24.3240 C   0  0  0  0  0  1  0  0  0  0  0  0
  -27.7640  -32.3480   25.5970 C   0  0  0  0  0  1  0  0  0  0  0  0
  1  2  1  0
  2 52  1  0
  2  3  1  1
  4  2  1  0
  5  7  1  0
  6  5  2  0
  6  9  1  0
  7 10  2  0
  7  4  1  0
  8 10  1  0
  8 22  1  0
  9  8  2  0
 10 13  1  0
 11  6  1  0
 12  9  1  0
 14 22  1  0
 15 20  1  0
 16 17  1  0
 16 15  1  0
 18 17  1  0
 18 27  1  0
 18 19  1  0
 20 14  1  0
 20 19  1  0
 21 14  2  0
 22 23  1  0
 24 25  2  0
 25 44  1  0
 26 25  1  0
 26 29  1  0
 27 24  1  0
 27 28  1  0
 28 26  2  0
 29 30  1  0
 30 31  2  0
 32 35  1  0
 32 31  1  0
 33 32  2  0
 34 33  1  0
 34 29  2  0
 35 36  1  0
 36 41  2  0
 36 37  1  0
 37 38  2  0
 38 39  1  0
 39 43  1  0
 40 39  2  0
 41 40  1  0
 42 41  1  0
 44 45  1  0
 45 48  1  0
 45 47  1  0
 46 44  2  0
 49 50  1  0
 49 24  1  0
 51 49  1  0
 53 56  1  0
 53 52  1  0
 56 54  1  6
 56 55  1  0
 57 56  1  0
 58 57  1  0
 59 70  2  0
 60 58  1  0
 60 65  1  0
 61 69  1  0
 61 71  1  0
 62 68  1  0
 62 64  1  0
 63 69  1  0
 64 63  1  0
 65 64  2  0
 66 67  1  0
 66 60  2  0
 67 62  2  0
 68 61  1  0
 69 59  1  0
 71 73  2  0
 72 71  1  0
 74 72  1  0
 75 84  2  0
 75 80  1  0
 76 72  1  0
 76 80  1  0
 77 76  1  0
 78 79  1  0
 78 77  1  0
 79 75  1  0
 80 81  2  0
 81 82  1  0
 83 82  2  0
 84 83  1  0
 85 59  1  0
 85 86  1  0
 85 95  1  0
 86 89  1  0
 87 86  1  0
 87 91  1  0
 88 87  2  0
 91 90  1  0
 93 91  1  0
 93 94  1  0
 93 92  1  0
 95 98  1  1
 95 96  1  0
 97 95  1  0
M  ISO  4  14 100  22 100  57 101  58 101
M  END
>  <TORSDO>  (49) 
F 22

>  <SCORE>  (49) 
-9.395

>  <name>  (49) 
48

>  <ligand_id>  (49) 
48

>  <original_smiles>  (49) 
[H]c1c([H])c([H])c2c(c1[H])C([H])([H])C([H])([H])C([H])([H])C2([H])N([H])C(=O)C1([H])N(C(=O)C([H])(N([H])C(=O)C([H])(N([H])C([H])([H])[H])C([H])([H])[H])C(C([H])([H])[H])(C([H])([H])[H])C([H])([H])[H])C([H])([H])c2c([H])c(OC([H])([H])C(C([H])([H])[H])(C([H])([H])[H])C([H])([H])C([H])([H])[N+]([H])(C([H])([H])[H])C([H])([H])c3c([H])c(C([H])([H])[H])c(F)c(N([H])C(=O)N4C([H])([H])C([H])([H])C([H])([H])C([H])(n5nc(-c6c([H])c([H])c(Oc7c([H])c([H])c(F)c([H])c7F)c([H])c6[H])c(C(=O)N([H])[H])c5N([H])[H])C4([H])[H])c3Cl)c([H])c([H])c2C1([H])[H]

>  <smiles>  (49) 
[H]c1c([H])c([H])c2c(c1[H])C([H])([H])C([H])([H])C([H])([H])C2([H])N([H])C(=O)C1([H])N(C(=O)C([H])(N([H])C(=O)C([H])(N([H])C([H])([H])[H])C([H])([H])[H])C(C([H])([H])[H])(C([H])([H])[H])C([H])([H])[H])C([H])([H])c2c([H])c(OC([H])([H])C(C([H])([H])[H])(C([H])([H])[H])C([H])([H])C([H])([H])[N+]([H])(C([H])([H])[H])C([H])([H])c3c([H])c(C([H])([H])[H])c(F)c(N([H])C(=O)N4C([H])([H])C([H])([H])C([H])([H])C([H])(n5nc(-c6c([H])c([H])c(Oc7c([H])c([H])c(F)c([H])c7F)c([H])c6[H])c(C(=O)N([H])[H])c5N([H])[H])C4([H])[H])c3Cl)c([H])c([H])c2C1([H])[H]

$$$$
49:0:0
     RDKit          3D

 95102  0  0  1  0  0  0  0  0999 V2000
  -29.2520  -23.6140   22.5150 C   0  0  0  0  0  2  0  0  0  0  0  0
  -28.0560  -25.6090   23.4620 C   0  0  0  0  0  0  0  0  0  0  0  0
  -28.4190  -25.1890   24.8900 C   0  0  0  0  0  1  0  0  0  0  0  0
  -28.4660  -24.8580   22.4050 N   0  0  0  0  0  0  0  0  0  0  0  0
  -27.3820  -26.6320   23.3260 O   0  0  0  0  0  0  0  0  0  0  0  0
  -28.0920  -25.2320   21.0290 C   0  0  0  0  0  2  0  0  0  0  0  0
  -28.9280  -26.4080   20.4680 C   0  0  0  0  0  2  0  0  0  0  0  0
  -28.4220  -26.8630   19.2080 O   0  0  0  0  0  0  0  0  0  0  0  0
  -24.7070  -31.6170   22.9330 C   0  0  0  0  0  0  0  0  0  0  0  0
  -27.2590  -27.5740   19.3250 C   0  0  0  0  0  0  0  0  0  0  0  0
  -23.4240  -30.3010   21.2740 C   0  0  0  0  0  3  0  0  0  0  0  0
  -24.8220  -28.9450   19.6200 C   0  0  0  0  0  0  0  0  0  0  0  0
  -25.9060  -30.7900   20.9170 C   0  0  0  0  0  2  0  0  0  0  0  0
  -25.9930  -29.4780   20.1690 C   0  0  0  0  0  0  0  0  0  0  0  0
  -27.2190  -28.7990   20.0250 C   0  0  0  0  0  3  0  0  0  0  0  0
  -26.0810  -27.0540   18.7580 C   0  0  0  0  0  3  0  0  0  0  0  0
  -24.8550  -27.7270   18.9150 C   0  0  0  0  0  3  0  0  0  0  0  0
  -23.5530  -29.7410   19.8310 C   0  0  0  0  0  2  0  0  0  0  0  0
  -24.7010  -30.9130   21.7670 N   0  0  0  0  0  0  0  0  0  0  0  0
  -23.6640  -31.8010   23.5760 O   0  0  0  0  0  0  0  0  0  0  0  0
  -22.8930  -29.1790   22.1920 C   0  0  0  0  0  0  0  0  0  0  0  0
  -21.5750  -28.9290   22.1250 N   0  0  0  0  0  0  0  0  0  0  0  0
  -23.6560  -28.5440   22.9240 O   0  0  0  0  0  0  0  0  0  0  0  0
  -21.0140  -29.4950   21.5010 H   0  0  0  0  0  0  0  0  0  0  0  0
  -18.3170  -27.4880   22.6870 C   0  0  0  0  0  0  0  0  0  0  0  0
  -20.8610  -27.8970   22.8720 C   0  0  0  0  0  3  0  0  0  0  0  0
  -21.0310  -26.5130   22.2050 C   0  0  0  0  0  2  0  0  0  0  0  0
  -19.9080  -26.1770   21.2190 C   0  0  0  0  0  2  0  0  0  0  0  0
  -18.5490  -26.1950   21.9250 C   0  0  0  0  0  2  0  0  0  0  0  0
  -19.4010  -28.2960   23.1180 C   0  0  0  0  0  0  0  0  0  0  0  0
  -19.1280  -29.5090   23.7900 C   0  0  0  0  0  3  0  0  0  0  0  0
  -17.8030  -29.9090   24.0430 C   0  0  0  0  0  3  0  0  0  0  0  0
  -16.7330  -29.0990   23.6270 C   0  0  0  0  0  3  0  0  0  0  0  0
  -16.9900  -27.8910   22.9540 C   0  0  0  0  0  3  0  0  0  0  0  0
  -26.0160  -32.2500   23.5020 C   0  0  0  0  0  3  0  0  0  0  0  0
  -25.6900  -33.6020   23.9730 N   0  0  0  0  0  0  0  0  0  0  0  0
  -25.9500  -34.7270   23.2960 C   0  0  0  0  0  0  0  0  0  0  0  0
  -26.5680  -34.7370   22.2280 O   0  0  0  0  0  0  0  0  0  0  0  0
  -25.1330  -33.6650   24.8140 H   0  0  0  0  0  0  0  0  0  0  0  0
  -24.1610  -36.4880   23.1780 C   0  0  0  0  0  1  0  0  0  0  0  0
  -25.4470  -36.0510   23.9000 C   0  0  0  0  0  3  0  0  0  0  0  0
  -27.5910  -36.9200   24.7210 C   0  0  0  0  0  1  0  0  0  0  0  0
  -26.4450  -37.1420   23.8430 N   0  0  0  0  0  0  0  0  0  0  0  0
  -26.0190  -38.0320   24.0920 H   0  0  0  0  0  0  0  0  0  0  0  0
  -26.6690  -31.3970   24.6580 C   0  0  1  0  0  0  0  0  0  0  0  0
  -25.6830  -31.0320   25.7910 C   0  0  0  0  0  1  0  0  0  0  0  0
  -27.2650  -30.0820   24.1020 C   0  0  0  0  0  1  0  0  0  0  0  0
  -27.8430  -32.1810   25.2910 C   0  0  0  0  0  1  0  0  0  0  0  0
  -28.3900  -22.3460   22.3120 C   0  0  0  0  0  2  0  0  0  0  0  0
  -29.2110  -21.0720   22.0280 C   0  0  0  0  0  2  0  0  0  0  0  0
  -29.4870  -20.8640   20.5250 C   0  0  0  0  0  2  0  0  0  0  0  0
  -30.0470  -18.4270   20.4010 C   0  0  0  0  0  0  0  0  0  0  0  0
  -30.3580  -19.7210   20.2560 N   0  0  0  0  0  0  0  0  0  0  0  0
  -28.9710  -18.0390   20.8640 O   0  0  0  0  0  0  0  0  0  0  0  0
  -31.2500  -19.9290   19.8240 H   0  0  0  0  0  0  0  0  0  0  0  0
  -30.9150  -17.1980   18.3770 C   0  0  0  0  0  1  0  0  0  0  0  0
  -31.0850  -17.4150   19.8970 C   0  0  0  0  0  3  0  0  0  0  0  0
  -31.7320  -15.0730   20.4030 C   0  0  0  0  0  0  0  0  0  0  0  0
  -31.4420  -12.8410   19.4310 C   0  0  0  0  0  2  0  0  0  0  0  0
  -30.5930  -13.0350   18.1560 C   0  0  0  0  0  2  0  0  0  0  0  0
  -29.0860  -13.0050   18.4910 C   0  0  0  0  0  2  0  0  0  0  0  0
  -28.7100  -13.9130   19.6950 C   0  0  0  0  0  3  0  0  0  0  0  0
  -29.6850  -13.6950   20.8760 C   0  0  0  0  0  2  0  0  0  0  0  0
  -31.0560  -13.8960   20.3770 N   0  0  0  0  0  0  0  0  0  0  0  0
  -32.8970  -15.2020   20.0180 O   0  0  0  0  0  0  0  0  0  0  0  0
  -30.9370  -16.1320   20.5850 N   0  0  0  0  0  0  0  0  0  0  0  0
  -30.0200  -15.9640   20.9730 H   0  0  0  0  0  0  0  0  0  0  0  0
  -26.3150  -14.6740   20.2630 C   0  0  0  0  0  0  0  0  0  0  0  0
  -25.1870  -13.9690   20.5890 C   0  0  0  0  0  0  0  0  0  0  0  0
  -25.5730  -12.5940   20.6070 C   0  0  0  0  0  0  0  0  0  0  0  0
  -27.3190  -13.7300   20.1000 N   0  0  0  0  0  0  0  0  0  0  0  0
  -26.8710  -12.4760   20.3650 N   0  0  0  0  0  0  0  0  0  0  0  0
  -24.7700  -11.3780   20.7900 C   0  0  0  0  0  0  0  0  0  0  0  0
  -25.0770  -10.4350   21.7950 C   0  0  0  0  0  3  0  0  0  0  0  0
  -24.2830   -9.2820   21.9590 C   0  0  0  0  0  3  0  0  0  0  0  0
  -23.1650   -9.0640   21.1170 C   0  0  0  0  0  0  0  0  0  0  0  0
  -22.8790   -9.9940   20.1030 C   0  0  0  0  0  3  0  0  0  0  0  0
  -23.6740  -11.1400   19.9380 C   0  0  0  0  0  3  0  0  0  0  0  0
  -22.3510   -7.9600   21.1870 O   0  0  0  0  0  0  0  0  0  0  0  0
  -22.1130   -7.3150   22.3740 C   0  0  0  0  0  0  0  0  0  0  0  0
  -21.5600   -7.9820   23.4870 C   0  0  0  0  0  3  0  0  0  0  0  0
  -21.2670   -7.2630   24.6640 C   0  0  0  0  0  3  0  0  0  0  0  0
  -21.5180   -5.8800   24.7270 C   0  0  0  0  0  0  0  0  0  0  0  0
  -22.0620   -5.2130   23.6140 C   0  0  0  0  0  3  0  0  0  0  0  0
  -22.3560   -5.9280   22.4410 C   0  0  0  0  0  0  0  0  0  0  0  0
  -22.8620   -5.2760   21.3670 F   0  0  0  0  0  0  0  0  0  0  0  0
  -21.2310   -5.1880   25.8550 F   0  0  0  0  0  0  0  0  0  0  0  0
  -23.8060  -14.5290   20.7850 C   0  0  0  0  0  0  0  0  0  0  0  0
  -23.0040  -13.9060   21.6400 N   0  0  0  0  0  0  0  0  0  0  0  0
  -23.4460  -15.5530   20.2070 O   0  0  0  0  0  0  0  0  0  0  0  0
  -23.3090  -13.0800   22.1350 H   0  0  0  0  0  0  0  0  0  0  0  0
  -22.0740  -14.2650   21.8090 H   0  0  0  0  0  0  0  0  0  0  0  0
  -26.5650  -16.0290   20.0770 N   0  0  0  0  0  0  0  0  0  0  0  0
  -25.8390  -16.7300   20.1820 H   0  0  0  0  0  0  0  0  0  0  0  0
  -27.4800  -16.4300   19.9110 H   0  0  0  0  0  0  0  0  0  0  0  0
  2  3  1  0
  4  1  1  0
  4  2  1  0
  5  2  2  0
  6  4  1  0
  7  6  1  0
  8 10  1  0
  8  7  1  0
  9 20  2  0
 10 15  1  0
 11 19  1  0
 11 21  1  0
 12 18  1  0
 12 14  1  0
 13 19  1  0
 14 13  1  0
 15 14  2  0
 16 17  1  0
 16 10  2  0
 17 12  2  0
 18 11  1  0
 19  9  1  0
 21 23  2  0
 22 21  1  0
 24 22  1  0
 25 34  2  0
 25 30  1  0
 26 22  1  0
 26 30  1  0
 27 26  1  0
 28 29  1  0
 28 27  1  0
 29 25  1  0
 30 31  2  0
 31 32  1  0
 33 32  2  0
 34 33  1  0
 35  9  1  0
 35 36  1  0
 35 45  1  0
 36 39  1  0
 37 41  1  0
 37 36  1  0
 38 37  2  0
 41 40  1  0
 43 41  1  0
 43 44  1  0
 43 42  1  0
 45 48  1  1
 45 46  1  0
 47 45  1  0
 49  1  1  0
 50 49  1  0
 51 50  1  0
 52 54  2  0
 53 52  1  0
 53 51  1  0
 55 53  1  0
 57 56  1  0
 57 52  1  0
 57 66  1  0
 58 66  1  0
 59 64  1  0
 60 61  1  0
 60 59  1  0
 62 61  1  0
 62 71  1  0
 62 63  1  0
 64 58  1  0
 64 63  1  0
 65 58  2  0
 66 67  1  0
 68 69  2  0
 69 70  1  0
 69 88  1  0
 70 73  1  0
 71 68  1  0
 71 72  1  0
 72 70  2  0
 73 74  1  0
 74 75  2  0
 76 79  1  0
 76 75  1  0
 77 76  2  0
 78 77  1  0
 78 73  2  0
 79 80  1  0
 80 85  2  0
 80 81  1  0
 81 82  2  0
 82 83  1  0
 83 87  1  0
 84 83  2  0
 85 84  1  0
 86 85  1  0
 88 89  1  0
 89 92  1  0
 89 91  1  0
 90 88  2  0
 93 94  1  0
 93 68  1  0
 95 93  1  0
M  ISO  4   7 101   8 101  58 100  66 100
M  END
>  <TORSDO>  (50) 
F 24

>  <SCORE>  (50) 
-9.178

>  <name>  (50) 
49

>  <ligand_id>  (50) 
49

>  <original_smiles>  (50) 
[H]c1c([H])c([H])c2c(c1[H])C([H])([H])C([H])([H])C([H])([H])C2([H])N([H])C(=O)C1([H])N(C(=O)C([H])(N([H])C(=O)C([H])(N([H])C([H])([H])[H])C([H])([H])[H])C(C([H])([H])[H])(C([H])([H])[H])C([H])([H])[H])C([H])([H])c2c([H])c(OC([H])([H])C([H])([H])N(C(=O)C([H])([H])[H])C([H])([H])C([H])([H])C([H])([H])C([H])([H])N([H])C(=O)C([H])(N([H])C(=O)N3C([H])([H])C([H])([H])C([H])([H])C([H])(n4nc(-c5c([H])c([H])c(Oc6c([H])c([H])c(F)c([H])c6F)c([H])c5[H])c(C(=O)N([H])[H])c4N([H])[H])C3([H])[H])C([H])([H])[H])c([H])c([H])c2C1([H])[H]

>  <smiles>  (50) 
[H]c1c([H])c([H])c2c(c1[H])C([H])([H])C([H])([H])C([H])([H])C2([H])N([H])C(=O)C1([H])N(C(=O)C([H])(N([H])C(=O)C([H])(N([H])C([H])([H])[H])C([H])([H])[H])C(C([H])([H])[H])(C([H])([H])[H])C([H])([H])[H])C([H])([H])c2c([H])c(OC([H])([H])C([H])([H])N(C(=O)C([H])([H])[H])C([H])([H])C([H])([H])C([H])([H])C([H])([H])N([H])C(=O)C([H])(N([H])C(=O)N3C([H])([H])C([H])([H])C([H])([H])C([H])(n4nc(-c5c([H])c([H])c(Oc6c([H])c([H])c(F)c([H])c6F)c([H])c5[H])c(C(=O)N([H])[H])c4N([H])[H])C3([H])[H])C([H])([H])[H])c([H])c([H])c2C1([H])[H]

$$$$
50:0:0
     RDKit          3D

 92100  0  0  1  0  0  0  0  0999 V2000
  -30.4500  -20.6230   18.8440 C   0  0  0  0  0  3  0  0  0  0  0  0
  -31.1120  -19.5390   18.2260 C   0  0  0  0  0  0  0  0  0  0  0  0
  -29.3380  -19.0170   20.2810 C   0  0  0  0  0  0  0  0  0  0  0  0
  -29.5030  -20.4710   19.8720 C   0  0  0  0  0  0  0  0  0  0  0  0
  -30.0680  -17.8240   19.7090 C   0  0  0  0  0  0  0  0  0  0  0  0
  -30.9090  -18.1830   18.6100 C   0  0  0  0  0  0  0  0  0  0  0  0
  -32.0540  -19.8630   17.0760 C   0  0  0  0  0  1  0  0  0  0  0  0
  -28.2980  -18.6800   21.3390 C   0  0  0  0  0  1  0  0  0  0  0  0
  -31.6320  -16.9860   17.5850 Cl  0  0  0  0  0  0  0  0  0  0  0  0
  -30.6360  -15.0900   19.9000 C   0  0  0  0  0  0  0  0  0  0  0  0
  -30.4340  -12.7430   18.9430 C   0  0  0  0  0  2  0  0  0  0  0  0
  -29.4400  -12.7150   17.7580 C   0  0  0  0  0  2  0  0  0  0  0  0
  -28.0010  -12.5070   18.2650 C   0  0  0  0  0  2  0  0  0  0  0  0
  -27.6640  -13.4200   19.4730 C   0  0  0  0  0  3  0  0  0  0  0  0
  -28.7770  -13.4190   20.5420 C   0  0  0  0  0  2  0  0  0  0  0  0
  -30.0130  -13.8370   19.8690 N   0  0  0  0  0  0  0  0  0  0  0  0
  -31.8420  -15.0900   19.6280 O   0  0  0  0  0  0  0  0  0  0  0  0
  -29.8920  -16.3110   20.0840 N   0  0  0  0  0  0  0  0  0  0  0  0
  -28.9870  -16.1160   20.4810 H   0  0  0  0  0  0  0  0  0  0  0  0
  -25.3300  -14.0080   20.3330 C   0  0  0  0  0  0  0  0  0  0  0  0
  -24.2790  -13.2400   20.7470 C   0  0  0  0  0  0  0  0  0  0  0  0
  -24.7300  -11.8840   20.6860 C   0  0  0  0  0  0  0  0  0  0  0  0
  -26.3530  -13.1240   20.0360 N   0  0  0  0  0  0  0  0  0  0  0  0
  -26.0040  -11.8410   20.3160 N   0  0  0  0  0  0  0  0  0  0  0  0
  -24.0010  -10.6270   20.9000 C   0  0  0  0  0  0  0  0  0  0  0  0
  -24.4440   -9.6650   21.8330 C   0  0  0  0  0  3  0  0  0  0  0  0
  -23.7130   -8.4730   22.0350 C   0  0  0  0  0  3  0  0  0  0  0  0
  -22.5250   -8.2370   21.3030 C   0  0  0  0  0  0  0  0  0  0  0  0
  -22.1020   -9.1870   20.3580 C   0  0  0  0  0  3  0  0  0  0  0  0
  -22.8330  -10.3690   20.1540 C   0  0  0  0  0  3  0  0  0  0  0  0
  -21.7660   -7.0970   21.4150 O   0  0  0  0  0  0  0  0  0  0  0  0
  -21.7100   -6.3800   22.5830 C   0  0  0  0  0  0  0  0  0  0  0  0
  -21.2630   -6.9580   23.7910 C   0  0  0  0  0  3  0  0  0  0  0  0
  -21.1560   -6.1680   24.9540 C   0  0  0  0  0  3  0  0  0  0  0  0
  -21.4850   -4.8000   24.9080 C   0  0  0  0  0  0  0  0  0  0  0  0
  -21.9240   -4.2210   23.7040 C   0  0  0  0  0  3  0  0  0  0  0  0
  -22.0330   -5.0090   22.5440 C   0  0  0  0  0  0  0  0  0  0  0  0
  -22.4370   -4.4410   21.3820 F   0  0  0  0  0  0  0  0  0  0  0  0
  -21.3740   -4.0380   26.0210 F   0  0  0  0  0  0  0  0  0  0  0  0
  -22.9000  -13.7260   21.0840 C   0  0  0  0  0  0  0  0  0  0  0  0
  -22.2050  -13.0320   21.9780 N   0  0  0  0  0  0  0  0  0  0  0  0
  -22.4490  -14.7580   20.5880 O   0  0  0  0  0  0  0  0  0  0  0  0
  -22.5850  -12.1960   22.3980 H   0  0  0  0  0  0  0  0  0  0  0  0
  -21.2810  -13.3400   22.2470 H   0  0  0  0  0  0  0  0  0  0  0  0
  -25.4960  -15.3790   20.1540 N   0  0  0  0  0  0  0  0  0  0  0  0
  -24.7310  -16.0320   20.2930 H   0  0  0  0  0  0  0  0  0  0  0  0
  -26.3080  -15.8070   19.7320 H   0  0  0  0  0  0  0  0  0  0  0  0
  -28.5830  -21.7340   21.7860 C   0  0  0  0  0  1  0  0  0  0  0  0
  -28.8680  -21.7600   20.3550 N   0  0  0  0  0  0  0  0  0  0  0  0
  -29.0540  -23.2490   19.8160 C   0  0  0  0  0  3  0  0  0  0  0  0
  -28.0420  -24.5970   20.1500 C   0  0  0  0  0  3  0  0  0  0  0  0
  -28.3010  -26.1480   19.9560 O   0  0  0  0  0  0  0  0  0  0  0  0
  -24.6370  -31.7920   23.1030 C   0  0  0  0  0  0  0  0  0  0  0  0
  -27.2440  -27.1470   19.9510 C   0  0  0  0  0  0  0  0  0  0  0  0
  -23.4520  -30.4360   21.4230 C   0  0  0  0  0  3  0  0  0  0  0  0
  -24.9120  -28.9070   19.9580 C   0  0  0  0  0  0  0  0  0  0  0  0
  -26.0060  -30.7130   21.2740 C   0  0  0  0  0  2  0  0  0  0  0  0
  -26.0890  -29.3350   20.5830 C   0  0  0  0  0  0  0  0  0  0  0  0
  -27.2570  -28.4730   20.5590 C   0  0  0  0  0  3  0  0  0  0  0  0
  -26.0390  -26.8370   19.2810 C   0  0  0  0  0  3  0  0  0  0  0  0
  -24.9020  -27.6740   19.2880 C   0  0  0  0  0  3  0  0  0  0  0  0
  -23.6810  -29.8010   20.0260 C   0  0  0  0  0  2  0  0  0  0  0  0
  -24.7190  -31.0020   21.9880 N   0  0  0  0  0  0  0  0  0  0  0  0
  -23.5480  -32.0540   23.6360 O   0  0  0  0  0  0  0  0  0  0  0  0
  -22.7750  -29.3980   22.3550 C   0  0  0  0  0  0  0  0  0  0  0  0
  -21.4480  -29.2240   22.2210 N   0  0  0  0  0  0  0  0  0  0  0  0
  -23.4480  -28.7540   23.1630 O   0  0  0  0  0  0  0  0  0  0  0  0
  -20.9600  -29.7980   21.5470 H   0  0  0  0  0  0  0  0  0  0  0  0
  -18.0740  -27.9810   22.6810 C   0  0  0  0  0  0  0  0  0  0  0  0
  -20.6300  -28.2600   22.9630 C   0  0  0  0  0  3  0  0  0  0  0  0
  -20.7460  -26.8440   22.3520 C   0  0  0  0  0  2  0  0  0  0  0  0
  -19.6510  -26.5390   21.3240 C   0  0  0  0  0  2  0  0  0  0  0  0
  -18.2660  -26.6530   21.9670 C   0  0  0  0  0  2  0  0  0  0  0  0
  -19.1840  -28.7420   23.1350 C   0  0  0  0  0  0  0  0  0  0  0  0
  -18.9500  -29.9840   23.7640 C   0  0  0  0  0  3  0  0  0  0  0  0
  -17.6400  -30.4660   23.9410 C   0  0  0  0  0  3  0  0  0  0  0  0
  -16.5450  -29.7040   23.5030 C   0  0  0  0  0  3  0  0  0  0  0  0
  -16.7620  -28.4610   22.8790 C   0  0  0  0  0  3  0  0  0  0  0  0
  -25.9090  -32.4210   23.7520 C   0  0  0  0  0  3  0  0  0  0  0  0
  -26.4200  -31.6200   25.0130 C   0  0  1  0  0  0  0  0  0  0  0  0
  -25.3200  -31.3510   26.0680 C   0  0  0  0  0  1  0  0  0  0  0  0
  -27.0120  -30.2550   24.5950 C   0  0  0  0  0  1  0  0  0  0  0  0
  -27.5630  -32.4030   25.7010 C   0  0  0  0  0  1  0  0  0  0  0  0
  -25.5830  -33.8070   24.1240 N   0  0  0  0  0  0  0  0  0  0  0  0
  -25.9150  -34.8900   23.4080 C   0  0  0  0  0  0  0  0  0  0  0  0
  -26.5910  -34.8250   22.3790 O   0  0  0  0  0  0  0  0  0  0  0  0
  -24.9820  -33.9280   24.9260 H   0  0  0  0  0  0  0  0  0  0  0  0
  -24.1850  -36.6930   23.1070 C   0  0  0  0  0  1  0  0  0  0  0  0
  -25.4200  -36.2600   23.9130 C   0  0  0  0  0  3  0  0  0  0  0  0
  -27.5400  -37.1250   24.8020 C   0  0  0  0  0  1  0  0  0  0  0  0
  -26.4510  -37.3200   23.8480 N   0  0  0  0  0  0  0  0  0  0  0  0
  -26.0390  -38.2330   24.0200 H   0  0  0  0  0  0  0  0  0  0  0  0
  1  4  1  0
  2  6  1  0
  2  1  2  0
  3  8  1  0
  4  3  2  0
  4 49  1  0
  5 18  1  0
  5  3  1  0
  6  5  2  0
  7  2  1  0
  9  6  1  0
 10 18  1  0
 11 16  1  0
 12 13  1  0
 12 11  1  0
 14 13  1  0
 14 23  1  0
 14 15  1  0
 16 10  1  0
 16 15  1  0
 17 10  2  0
 18 19  1  0
 20 21  2  0
 21 40  1  0
 22 21  1  0
 22 25  1  0
 23 24  1  0
 23 20  1  0
 24 22  2  0
 25 26  1  0
 26 27  2  0
 28 31  1  0
 28 27  1  0
 29 28  2  0
 30 29  1  0
 30 25  2  0
 31 32  1  0
 32 33  1  0
 33 34  2  0
 35 34  1  0
 35 39  1  0
 36 35  2  0
 37 32  2  0
 37 36  1  0
 38 37  1  0
 40 41  1  0
 41 44  1  0
 41 43  1  0
 42 40  2  0
 45 46  1  0
 45 20  1  0
 47 45  1  0
 49 48  1  0
 50 51  2  0
 50 49  1  0
 52 51  1  0
 53 64  2  0
 54 52  1  0
 54 59  1  0
 55 63  1  0
 55 65  1  0
 56 62  1  0
 56 58  1  0
 57 63  1  0
 58 57  1  0
 59 58  2  0
 60 61  1  0
 60 54  2  0
 61 56  2  0
 62 55  1  0
 63 53  1  0
 65 67  2  0
 66 65  1  0
 68 66  1  0
 69 78  2  0
 69 74  1  0
 70 66  1  0
 70 74  1  0
 71 70  1  0
 72 73  1  0
 72 71  1  0
 73 69  1  0
 74 75  2  0
 75 76  1  0
 77 76  2  0
 78 77  1  0
 79 53  1  0
 79 84  1  0
 79 80  1  0
 80 83  1  1
 80 81  1  0
 82 80  1  0
 84 87  1  0
 85 89  1  0
 85 84  1  0
 86 85  2  0
 89 88  1  0
 91 89  1  0
 91 92  1  0
 91 90  1  0
M  ISO  4  10 100  18 100  51 101  52 101
M  END
>  <TORSDO>  (51) 
F 19

>  <SCORE>  (51) 
-13.729

>  <name>  (51) 
50

>  <ligand_id>  (51) 
50

>  <original_smiles>  (51) 
[H]c1c([H])c([H])c2c(c1[H])C([H])([H])C([H])([H])C([H])([H])C2([H])N([H])C(=O)C1([H])N(C(=O)C([H])(N([H])C(=O)C([H])(N([H])C([H])([H])[H])C([H])([H])[H])C(C([H])([H])[H])(C([H])([H])[H])C([H])([H])[H])C([H])([H])c2c([H])c(OC([H])([H])C([H])([H])N(c3c([H])c(C([H])([H])[H])c(Cl)c(N([H])C(=O)N4C([H])([H])C([H])([H])C([H])([H])C([H])(n5nc(-c6c([H])c([H])c(Oc7c([H])c([H])c(F)c([H])c7F)c([H])c6[H])c(C(=O)N([H])[H])c5N([H])[H])C4([H])[H])c3C([H])([H])[H])C([H])([H])[H])c([H])c([H])c2C1([H])[H]

>  <smiles>  (51) 
[H]c1c([H])c([H])c2c(c1[H])C([H])([H])C([H])([H])C([H])([H])C2([H])N([H])C(=O)C1([H])N(C(=O)C([H])(N([H])C(=O)C([H])(N([H])C([H])([H])[H])C([H])([H])[H])C(C([H])([H])[H])(C([H])([H])[H])C([H])([H])[H])C([H])([H])c2c([H])c(OC([H])([H])C([H])([H])N(c3c([H])c(C([H])([H])[H])c(Cl)c(N([H])C(=O)N4C([H])([H])C([H])([H])C([H])([H])C([H])(n5nc(-c6c([H])c([H])c(Oc7c([H])c([H])c(F)c([H])c7F)c([H])c6[H])c(C(=O)N([H])[H])c5N([H])[H])C4([H])[H])c3C([H])([H])[H])C([H])([H])[H])c([H])c([H])c2C1([H])[H]

$$$$
51:0:0
     RDKit          3D

 94102  0  0  1  0  0  0  0  0999 V2000
  -30.6290  -18.0100   21.5790 C   0  0  0  0  0  3  0  0  0  0  0  0
  -30.6200  -19.4350   21.4430 C   0  0  0  0  0  0  0  0  0  0  0  0
  -29.9060  -20.0910   20.3920 C   0  0  0  0  0  0  0  0  0  0  0  0
  -29.1580  -19.2330   19.5250 C   0  0  0  0  0  0  0  0  0  0  0  0
  -29.9240  -17.1610   20.6900 C   0  0  0  0  0  0  0  0  0  0  0  0
  -29.1650  -17.8080   19.6820 C   0  0  0  0  0  0  0  0  0  0  0  0
  -31.4170  -20.2450   22.4530 C   0  0  0  0  0  1  0  0  0  0  0  0
  -28.3560  -19.8300   18.3780 C   0  0  0  0  0  1  0  0  0  0  0  0
  -28.4250  -17.0400   18.8450 F   0  0  0  0  0  0  0  0  0  0  0  0
  -30.5950  -14.6870   20.4710 C   0  0  0  0  0  0  0  0  0  0  0  0
  -30.3990  -12.4570   19.3790 C   0  0  0  0  0  2  0  0  0  0  0  0
  -29.4660  -12.5890   18.1550 C   0  0  0  0  0  2  0  0  0  0  0  0
  -27.9900  -12.4270   18.5640 C   0  0  0  0  0  2  0  0  0  0  0  0
  -27.6170  -13.2830   19.8050 C   0  0  0  0  0  3  0  0  0  0  0  0
  -28.6620  -13.1160   20.9310 C   0  0  0  0  0  2  0  0  0  0  0  0
  -29.9790  -13.4650   20.3730 N   0  0  0  0  0  0  0  0  0  0  0  0
  -31.7530  -14.8570   20.0800 O   0  0  0  0  0  0  0  0  0  0  0  0
  -29.8080  -15.7200   20.9000 N   0  0  0  0  0  0  0  0  0  0  0  0
  -28.8780  -15.4140   21.1390 H   0  0  0  0  0  0  0  0  0  0  0  0
  -25.2130  -13.8840   20.4860 C   0  0  0  0  0  0  0  0  0  0  0  0
  -24.1420  -13.1120   20.8480 C   0  0  0  0  0  0  0  0  0  0  0  0
  -24.6060  -11.7610   20.8310 C   0  0  0  0  0  0  0  0  0  0  0  0
  -26.2610  -13.0040   20.2710 N   0  0  0  0  0  0  0  0  0  0  0  0
  -25.9010  -11.7220   20.5390 N   0  0  0  0  0  0  0  0  0  0  0  0
  -23.8790  -10.4990   21.0200 C   0  0  0  0  0  0  0  0  0  0  0  0
  -24.2960   -9.5410   21.9700 C   0  0  0  0  0  3  0  0  0  0  0  0
  -23.5710   -8.3430   22.1460 C   0  0  0  0  0  3  0  0  0  0  0  0
  -22.4130   -8.0950   21.3720 C   0  0  0  0  0  0  0  0  0  0  0  0
  -22.0140   -9.0420   20.4110 C   0  0  0  0  0  3  0  0  0  0  0  0
  -22.7410  -10.2300   20.2340 C   0  0  0  0  0  3  0  0  0  0  0  0
  -21.6600   -6.9480   21.4550 O   0  0  0  0  0  0  0  0  0  0  0  0
  -21.5860   -6.2200   22.6150 C   0  0  0  0  0  0  0  0  0  0  0  0
  -21.1280   -6.7890   23.8230 C   0  0  0  0  0  3  0  0  0  0  0  0
  -21.0000   -5.9860   24.9750 C   0  0  0  0  0  3  0  0  0  0  0  0
  -21.3190   -4.6160   24.9190 C   0  0  0  0  0  0  0  0  0  0  0  0
  -21.7700   -4.0470   23.7150 C   0  0  0  0  0  3  0  0  0  0  0  0
  -21.9000   -4.8470   22.5660 C   0  0  0  0  0  0  0  0  0  0  0  0
  -22.3140   -4.2880   21.4020 F   0  0  0  0  0  0  0  0  0  0  0  0
  -21.1880   -3.8430   26.0220 F   0  0  0  0  0  0  0  0  0  0  0  0
  -22.7400  -13.5880   21.0980 C   0  0  0  0  0  0  0  0  0  0  0  0
  -22.0000  -12.8960   21.9550 N   0  0  0  0  0  0  0  0  0  0  0  0
  -22.3090  -14.6120   20.5680 O   0  0  0  0  0  0  0  0  0  0  0  0
  -22.3590  -12.0680   22.4070 H   0  0  0  0  0  0  0  0  0  0  0  0
  -21.0590  -13.1980   22.1640 H   0  0  0  0  0  0  0  0  0  0  0  0
  -25.3780  -15.2530   20.3000 N   0  0  0  0  0  0  0  0  0  0  0  0
  -24.6040  -15.9040   20.3940 H   0  0  0  0  0  0  0  0  0  0  0  0
  -26.2130  -15.6860   19.9270 H   0  0  0  0  0  0  0  0  0  0  0  0
  -30.1000  -21.6350   20.0820 C   0  0  0  0  0  2  0  0  0  0  0  0
  -29.2410  -24.0420   20.2170 C   0  0  0  0  0  0  0  0  0  0  0  0
  -29.1150  -22.6970   20.4910 N   0  0  0  0  0  0  0  0  0  0  0  0
  -30.2310  -24.4630   19.6130 O   0  0  0  0  0  0  0  0  0  0  0  0
  -28.2970  -22.3960   21.0000 H   0  0  0  0  0  0  0  0  0  0  0  0
  -28.1270  -25.0760   20.6470 C   0  0  0  0  0  2  0  0  0  0  0  0
  -28.3600  -26.5000   20.2710 O   0  0  0  0  0  0  0  0  0  0  0  0
  -24.6060  -31.9190   23.2450 C   0  0  0  0  0  0  0  0  0  0  0  0
  -27.2410  -27.3480   20.2320 C   0  0  0  0  0  0  0  0  0  0  0  0
  -23.4090  -30.5030   21.6140 C   0  0  0  0  0  3  0  0  0  0  0  0
  -24.8690  -28.9490   20.2030 C   0  0  0  0  0  0  0  0  0  0  0  0
  -25.9480  -30.8300   21.4350 C   0  0  0  0  0  2  0  0  0  0  0  0
  -26.0350  -29.4460   20.8000 C   0  0  0  0  0  0  0  0  0  0  0  0
  -27.2240  -28.6570   20.8070 C   0  0  0  0  0  3  0  0  0  0  0  0
  -26.0570  -26.9110   19.5970 C   0  0  0  0  0  3  0  0  0  0  0  0
  -24.8830  -27.6860   19.5910 C   0  0  0  0  0  3  0  0  0  0  0  0
  -23.6300  -29.8180   20.2400 C   0  0  0  0  0  2  0  0  0  0  0  0
  -24.6730  -31.1020   22.1540 N   0  0  0  0  0  0  0  0  0  0  0  0
  -23.5200  -32.1970   23.7750 O   0  0  0  0  0  0  0  0  0  0  0  0
  -22.7480  -29.4910   22.5810 C   0  0  0  0  0  0  0  0  0  0  0  0
  -21.4230  -29.3090   22.4510 N   0  0  0  0  0  0  0  0  0  0  0  0
  -23.4270  -28.8720   23.4040 O   0  0  0  0  0  0  0  0  0  0  0  0
  -20.9340  -29.8600   21.7590 H   0  0  0  0  0  0  0  0  0  0  0  0
  -18.0450  -28.1230   22.9660 C   0  0  0  0  0  0  0  0  0  0  0  0
  -20.6050  -28.3780   23.2290 C   0  0  0  0  0  3  0  0  0  0  0  0
  -20.7020  -26.9440   22.6600 C   0  0  0  0  0  2  0  0  0  0  0  0
  -19.5970  -26.6190   21.6490 C   0  0  0  0  0  2  0  0  0  0  0  0
  -18.2180  -26.7710   22.2950 C   0  0  0  0  0  2  0  0  0  0  0  0
  -19.1660  -28.8850   23.3910 C   0  0  0  0  0  0  0  0  0  0  0  0
  -18.9520  -30.1510   23.9780 C   0  0  0  0  0  3  0  0  0  0  0  0
  -17.6480  -30.6540   24.1460 C   0  0  0  0  0  3  0  0  0  0  0  0
  -16.5410  -29.8890   23.7380 C   0  0  0  0  0  3  0  0  0  0  0  0
  -16.7410  -28.6260   23.1520 C   0  0  0  0  0  3  0  0  0  0  0  0
  -25.8860  -32.5590   23.8640 C   0  0  0  0  0  3  0  0  0  0  0  0
  -26.4030  -31.7980   25.1470 C   0  0  1  0  0  0  0  0  0  0  0  0
  -25.3080  -31.5670   26.2150 C   0  0  0  0  0  1  0  0  0  0  0  0
  -26.9890  -30.4180   24.7670 C   0  0  0  0  0  1  0  0  0  0  0  0
  -27.5500  -32.6000   25.8040 C   0  0  0  0  0  1  0  0  0  0  0  0
  -25.5720  -33.9580   24.1850 N   0  0  0  0  0  0  0  0  0  0  0  0
  -25.9050  -35.0080   23.4230 C   0  0  0  0  0  0  0  0  0  0  0  0
  -26.5800  -34.9020   22.3960 O   0  0  0  0  0  0  0  0  0  0  0  0
  -24.9740  -34.1150   24.9830 H   0  0  0  0  0  0  0  0  0  0  0  0
  -24.1790  -36.7990   23.0430 C   0  0  0  0  0  1  0  0  0  0  0  0
  -25.4100  -36.3980   23.8710 C   0  0  0  0  0  3  0  0  0  0  0  0
  -27.5400  -37.2810   24.7180 C   0  0  0  0  0  1  0  0  0  0  0  0
  -26.4420  -37.4530   23.7710 N   0  0  0  0  0  0  0  0  0  0  0  0
  -26.0320  -38.3700   23.9270 H   0  0  0  0  0  0  0  0  0  0  0  0
  2  1  1  0
  2  7  1  0
  3  2  2  0
  4  6  2  0
  4  3  1  0
  5 18  1  0
  5  1  2  0
  6  5  1  0
  8  4  1  0
  9  6  1  0
 10 18  1  0
 11 16  1  0
 12 13  1  0
 12 11  1  0
 14 13  1  0
 14 23  1  0
 14 15  1  0
 16 10  1  0
 16 15  1  0
 17 10  2  0
 18 19  1  0
 20 21  2  0
 21 40  1  0
 22 21  1  0
 22 25  1  0
 23 20  1  0
 23 24  1  0
 24 22  2  0
 25 26  1  0
 26 27  2  0
 28 31  1  0
 28 27  1  0
 29 28  2  0
 30 29  1  0
 30 25  2  0
 31 32  1  0
 32 33  1  0
 33 34  2  0
 35 34  1  0
 35 39  1  0
 36 35  2  0
 37 32  2  0
 37 36  1  0
 38 37  1  0
 40 41  1  0
 41 44  1  0
 41 43  1  0
 42 40  2  0
 45 46  1  0
 45 20  1  0
 47 45  1  0
 48  3  1  0
 48 50  1  0
 49 50  1  0
 49 53  1  0
 50 52  1  0
 51 49  2  0
 54 53  1  0
 55 66  2  0
 56 54  1  0
 56 61  1  0
 57 65  1  0
 57 67  1  0
 58 64  1  0
 58 60  1  0
 59 65  1  0
 60 61  2  0
 60 59  1  0
 62 56  2  0
 63 62  1  0
 63 58  2  0
 64 57  1  0
 65 55  1  0
 67 69  2  0
 68 67  1  0
 70 68  1  0
 71 80  2  0
 71 76  1  0
 72 68  1  0
 72 76  1  0
 73 72  1  0
 74 75  1  0
 74 73  1  0
 75 71  1  0
 76 77  2  0
 77 78  1  0
 79 78  2  0
 80 79  1  0
 81 55  1  0
 81 86  1  0
 81 82  1  0
 82 85  1  1
 82 83  1  0
 84 82  1  0
 86 89  1  0
 87 91  1  0
 87 86  1  0
 88 87  2  0
 91 90  1  0
 93 91  1  0
 93 94  1  0
 93 92  1  0
M  ISO  4  10 100  18 100  53 101  54 101
M  END
>  <TORSDO>  (52) 
F 19

>  <SCORE>  (52) 
-14.663

>  <name>  (52) 
51

>  <ligand_id>  (52) 
51

>  <original_smiles>  (52) 
[H]c1c([H])c([H])c2c(c1[H])C([H])([H])C([H])([H])C([H])([H])C2([H])N([H])C(=O)C1([H])N(C(=O)C([H])(N([H])C(=O)C([H])(N([H])C([H])([H])[H])C([H])([H])[H])C(C([H])([H])[H])(C([H])([H])[H])C([H])([H])[H])C([H])([H])c2c([H])c(OC([H])([H])C(=O)N([H])C([H])([H])c3c(C([H])([H])[H])c([H])c(N([H])C(=O)N4C([H])([H])C([H])([H])C([H])([H])C([H])(n5nc(-c6c([H])c([H])c(Oc7c([H])c([H])c(F)c([H])c7F)c([H])c6[H])c(C(=O)N([H])[H])c5N([H])[H])C4([H])[H])c(F)c3C([H])([H])[H])c([H])c([H])c2C1([H])[H]

>  <smiles>  (52) 
[H]c1c([H])c([H])c2c(c1[H])C([H])([H])C([H])([H])C([H])([H])C2([H])N([H])C(=O)C1([H])N(C(=O)C([H])(N([H])C(=O)C([H])(N([H])C([H])([H])[H])C([H])([H])[H])C(C([H])([H])[H])(C([H])([H])[H])C([H])([H])[H])C([H])([H])c2c([H])c(OC([H])([H])C(=O)N([H])C([H])([H])c3c(C([H])([H])[H])c([H])c(N([H])C(=O)N4C([H])([H])C([H])([H])C([H])([H])C([H])(n5nc(-c6c([H])c([H])c(Oc7c([H])c([H])c(F)c([H])c7F)c([H])c6[H])c(C(=O)N([H])[H])c5N([H])[H])C4([H])[H])c(F)c3C([H])([H])[H])c([H])c([H])c2C1([H])[H]

$$$$
52:0:0
     RDKit          3D

 98106  0  0  1  0  0  0  0  0999 V2000
  -28.3090  -20.9830   19.2230 C   0  0  0  0  0  3  0  0  0  0  0  0
  -28.2170  -22.1590   21.7760 C   0  0  0  0  0  3  0  0  0  0  0  0
  -29.1310  -20.4820   20.2530 C   0  0  0  0  0  0  0  0  0  0  0  0
  -27.4010  -22.6690   20.7400 C   0  0  0  0  0  0  0  0  0  0  0  0
  -27.4180  -22.0390   19.4730 C   0  0  0  0  0  0  0  0  0  0  0  0
  -29.0650  -21.0610   21.5390 C   0  0  0  0  0  0  0  0  0  0  0  0
  -26.6050  -22.4600   18.4740 F   0  0  0  0  0  0  0  0  0  0  0  0
  -29.8390  -20.5880   22.5450 F   0  0  0  0  0  0  0  0  0  0  0  0
  -25.4100  -23.6160   21.7000 C   0  0  0  0  0  1  0  0  0  0  0  0
  -26.6330  -23.8320   20.9320 N   0  0  0  0  0  0  0  0  0  0  0  0
  -27.4290  -25.0030   21.3190 C   0  0  0  0  0  2  0  0  0  0  0  0
  -28.6280  -25.2860   20.3830 C   0  0  0  0  0  2  0  0  0  0  0  0
  -29.1860  -26.7120   20.4540 C   0  0  0  0  0  2  0  0  0  0  0  0
  -28.6770  -27.4800   19.3700 O   0  0  0  0  0  0  0  0  0  0  0  0
  -24.5640  -31.5990   23.4440 C   0  0  0  0  0  0  0  0  0  0  0  0
  -27.4420  -28.0300   19.5840 C   0  0  0  0  0  0  0  0  0  0  0  0
  -23.4030  -30.3530   21.6480 C   0  0  0  0  0  3  0  0  0  0  0  0
  -24.9130  -29.2100   19.9410 C   0  0  0  0  0  0  0  0  0  0  0  0
  -25.8620  -31.0030   21.4080 C   0  0  0  0  0  2  0  0  0  0  0  0
  -26.0410  -29.7640   20.5630 C   0  0  0  0  0  0  0  0  0  0  0  0
  -27.3090  -29.1730   20.3930 C   0  0  0  0  0  3  0  0  0  0  0  0
  -26.3060  -27.4870   18.9480 C   0  0  0  0  0  3  0  0  0  0  0  0
  -25.0360  -28.0630   19.1370 C   0  0  0  0  0  3  0  0  0  0  0  0
  -23.5980  -29.9170   20.1710 C   0  0  0  0  0  2  0  0  0  0  0  0
  -24.6300  -30.9890   22.2270 N   0  0  0  0  0  0  0  0  0  0  0  0
  -23.4940  -31.6740   24.0640 O   0  0  0  0  0  0  0  0  0  0  0  0
  -22.9060  -29.1370   22.4590 C   0  0  0  0  0  0  0  0  0  0  0  0
  -21.6410  -28.7470   22.2330 N   0  0  0  0  0  0  0  0  0  0  0  0
  -23.6560  -28.5490   23.2420 O   0  0  0  0  0  0  0  0  0  0  0  0
  -21.0870  -29.2860   21.5810 H   0  0  0  0  0  0  0  0  0  0  0  0
  -18.6220  -26.7690   22.1710 C   0  0  0  0  0  0  0  0  0  0  0  0
  -20.9700  -27.6060   22.8520 C   0  0  0  0  0  3  0  0  0  0  0  0
  -21.5000  -26.2720   22.2780 C   0  0  0  0  0  2  0  0  0  0  0  0
  -20.6760  -25.7530   21.0950 C   0  0  0  0  0  2  0  0  0  0  0  0
  -19.2190  -25.5350   21.5150 C   0  0  0  0  0  2  0  0  0  0  0  0
  -19.4460  -27.7480   22.7850 C   0  0  0  0  0  0  0  0  0  0  0  0
  -18.8430  -28.8920   23.3520 C   0  0  0  0  0  3  0  0  0  0  0  0
  -17.4470  -29.0640   23.3130 C   0  0  0  0  0  3  0  0  0  0  0  0
  -16.6350  -28.0840   22.7180 C   0  0  0  0  0  3  0  0  0  0  0  0
  -17.2210  -26.9380   22.1520 C   0  0  0  0  0  3  0  0  0  0  0  0
  -25.8210  -32.2500   24.1020 C   0  0  0  0  0  3  0  0  0  0  0  0
  -25.5260  -33.6740   24.3050 N   0  0  0  0  0  0  0  0  0  0  0  0
  -25.9960  -34.6650   23.5350 C   0  0  0  0  0  0  0  0  0  0  0  0
  -26.7910  -34.4750   22.6100 O   0  0  0  0  0  0  0  0  0  0  0  0
  -24.8350  -33.8980   25.0060 H   0  0  0  0  0  0  0  0  0  0  0  0
  -24.4020  -36.4800   22.8430 C   0  0  0  0  0  1  0  0  0  0  0  0
  -25.5060  -36.0920   23.8400 C   0  0  0  0  0  3  0  0  0  0  0  0
  -27.5420  -36.9650   24.9000 C   0  0  0  0  0  1  0  0  0  0  0  0
  -26.5840  -37.1040   23.8070 N   0  0  0  0  0  0  0  0  0  0  0  0
  -26.1970  -38.0440   23.8390 H   0  0  0  0  0  0  0  0  0  0  0  0
  -26.2390  -31.5630   25.4590 C   0  0  1  0  0  0  0  0  0  0  0  0
  -25.0820  -31.4470   26.4780 C   0  0  0  0  0  1  0  0  0  0  0  0
  -26.7880  -30.1400   25.2030 C   0  0  0  0  0  1  0  0  0  0  0  0
  -27.3840  -32.3640   26.1230 C   0  0  0  0  0  1  0  0  0  0  0  0
  -30.1180  -19.3630   19.9560 C   0  0  0  0  0  2  0  0  0  0  0  0
  -30.3280  -16.9960   19.2670 C   0  0  0  0  0  0  0  0  0  0  0  0
  -28.4760  -18.3010   18.3580 C   0  0  0  0  0  1  0  0  0  0  0  0
  -29.6030  -18.1450   19.2960 N   0  0  0  0  0  0  0  0  0  0  0  0
  -30.2540  -16.2830   18.2590 O   0  0  0  0  0  0  0  0  0  0  0  0
  -30.4890  -16.5590   21.8650 C   0  0  0  0  0  1  0  0  0  0  0  0
  -32.4420  -17.5140   20.6050 C   0  0  0  0  0  1  0  0  0  0  0  0
  -31.2140  -16.5530   20.4930 C   0  0  2  0  0  0  0  0  0  0  0  0
  -31.7640  -15.1200   20.1370 C   0  0  0  0  0  0  0  0  0  0  0  0
  -31.4140  -12.8320   19.3040 C   0  0  0  0  0  2  0  0  0  0  0  0
  -30.4890  -12.8730   18.0700 C   0  0  0  0  0  2  0  0  0  0  0  0
  -29.0150  -12.7560   18.5040 C   0  0  0  0  0  2  0  0  0  0  0  0
  -28.6500  -13.7360   19.6490 C   0  0  0  0  0  3  0  0  0  0  0  0
  -29.7120  -13.7030   20.7680 C   0  0  0  0  0  2  0  0  0  0  0  0
  -31.0390  -13.9580   20.1800 N   0  0  0  0  0  0  0  0  0  0  0  0
  -32.9000  -15.1050   19.6540 O   0  0  0  0  0  0  0  0  0  0  0  0
  -26.3240  -14.4000   20.5250 C   0  0  0  0  0  0  0  0  0  0  0  0
  -25.2340  -13.6530   20.8820 C   0  0  0  0  0  0  0  0  0  0  0  0
  -25.6270  -12.2880   20.7320 C   0  0  0  0  0  0  0  0  0  0  0  0
  -27.3100  -13.4890   20.1720 N   0  0  0  0  0  0  0  0  0  0  0  0
  -26.8980  -12.2100   20.3600 N   0  0  0  0  0  0  0  0  0  0  0  0
  -24.8500  -11.0520   20.8640 C   0  0  0  0  0  0  0  0  0  0  0  0
  -25.2320  -10.0350   21.7650 C   0  0  0  0  0  3  0  0  0  0  0  0
  -24.4590   -8.8600   21.8870 C   0  0  0  0  0  3  0  0  0  0  0  0
  -23.2890   -8.6960   21.1050 C   0  0  0  0  0  0  0  0  0  0  0  0
  -22.9260   -9.7040   20.1940 C   0  0  0  0  0  3  0  0  0  0  0  0
  -23.7000  -10.8710   20.0720 C   0  0  0  0  0  3  0  0  0  0  0  0
  -22.4910   -7.5780   21.1370 O   0  0  0  0  0  0  0  0  0  0  0  0
  -22.1980   -6.9370   22.3130 C   0  0  0  0  0  0  0  0  0  0  0  0
  -21.5560   -7.5990   23.3830 C   0  0  0  0  0  3  0  0  0  0  0  0
  -21.2140   -6.8850   24.5480 C   0  0  0  0  0  3  0  0  0  0  0  0
  -21.5010   -5.5100   24.6420 C   0  0  0  0  0  0  0  0  0  0  0  0
  -22.1300   -4.8460   23.5750 C   0  0  0  0  0  3  0  0  0  0  0  0
  -22.4770   -5.5590   22.4120 C   0  0  0  0  0  0  0  0  0  0  0  0
  -23.0680   -4.9120   21.3800 F   0  0  0  0  0  0  0  0  0  0  0  0
  -21.1620   -4.8220   25.7580 F   0  0  0  0  0  0  0  0  0  0  0  0
  -23.8730  -14.1730   21.2440 C   0  0  0  0  0  0  0  0  0  0  0  0
  -23.1750  -13.4930   22.1460 N   0  0  0  0  0  0  0  0  0  0  0  0
  -23.4390  -15.2180   20.7590 O   0  0  0  0  0  0  0  0  0  0  0  0
  -23.5320  -12.6430   22.5580 H   0  0  0  0  0  0  0  0  0  0  0  0
  -22.2610  -13.8230   22.4220 H   0  0  0  0  0  0  0  0  0  0  0  0
  -26.5530  -15.7680   20.4520 N   0  0  0  0  0  0  0  0  0  0  0  0
  -25.8530  -16.4520   20.7170 H   0  0  0  0  0  0  0  0  0  0  0  0
  -27.4140  -16.1830   20.1260 H   0  0  0  0  0  0  0  0  0  0  0  0
  1  5  2  0
  1  3  1  0
  3  6  2  0
  4 10  1  0
  4  2  2  0
  5  4  1  0
  6  2  1  0
  6  8  1  0
  7  5  1  0
 10 11  1  0
 10  9  1  0
 12 13  1  0
 12 11  1  0
 14 16  1  0
 14 13  1  0
 15 26  2  0
 16 21  1  0
 17 25  1  0
 17 27  1  0
 18 24  1  0
 18 20  1  0
 19 25  1  0
 20 19  1  0
 21 20  2  0
 22 23  1  0
 22 16  2  0
 23 18  2  0
 24 17  1  0
 25 15  1  0
 27 29  2  0
 28 27  1  0
 30 28  1  0
 31 36  1  0
 32 28  1  0
 33 32  1  0
 34 35  1  0
 34 33  1  0
 35 31  1  0
 36 32  1  0
 36 37  2  0
 38 37  1  0
 39 38  2  0
 40 31  2  0
 40 39  1  0
 41 15  1  0
 41 42  1  0
 41 51  1  0
 42 45  1  0
 43 47  1  0
 43 42  1  0
 44 43  2  0
 47 46  1  0
 49 50  1  0
 49 47  1  0
 49 48  1  0
 51 54  1  1
 51 52  1  0
 53 51  1  0
 55  3  1  0
 56 58  1  0
 56 62  1  0
 57 58  1  0
 58 55  1  0
 59 56  2  0
 62 61  1  1
 62 60  1  0
 63 69  1  0
 63 62  1  0
 64 69  1  0
 65 66  1  0
 65 64  1  0
 67 66  1  0
 67 74  1  0
 67 68  1  0
 69 68  1  0
 70 63  2  0
 71 72  2  0
 72 91  1  0
 73 76  1  0
 73 72  1  0
 74 75  1  0
 74 71  1  0
 75 73  2  0
 76 77  1  0
 77 78  2  0
 79 82  1  0
 79 78  1  0
 80 79  2  0
 81 80  1  0
 81 76  2  0
 82 83  1  0
 83 88  2  0
 83 84  1  0
 84 85  2  0
 85 86  1  0
 86 90  1  0
 87 86  2  0
 88 87  1  0
 89 88  1  0
 91 92  1  0
 92 95  1  0
 92 94  1  0
 93 91  2  0
 96 71  1  0
 96 97  1  0
 98 96  1  0
M  ISO  4  13 101  14 101  62 100  63 100
M  END
>  <TORSDO>  (53) 
F 23

>  <SCORE>  (53) 
-10.700

>  <name>  (53) 
52

>  <ligand_id>  (53) 
52

>  <original_smiles>  (53) 
[H]c1c([H])c([H])c2c(c1[H])C([H])([H])C([H])([H])C([H])([H])C2([H])N([H])C(=O)C1([H])N(C(=O)C([H])(N([H])C(=O)C([H])(N([H])C([H])([H])[H])C([H])([H])[H])C(C([H])([H])[H])(C([H])([H])[H])C([H])([H])[H])C([H])([H])c2c([H])c(OC([H])([H])C([H])([H])C([H])([H])N(c3c([H])c(F)c(C([H])([H])N(C(=O)C(C(=O)N4C([H])([H])C([H])([H])C([H])([H])C([H])(n5nc(-c6c([H])c([H])c(Oc7c([H])c([H])c(F)c([H])c7F)c([H])c6[H])c(C(=O)N([H])[H])c5N([H])[H])C4([H])[H])(C([H])([H])[H])C([H])([H])[H])C([H])([H])[H])c([H])c3F)C([H])([H])[H])c([H])c([H])c2C1([H])[H]

>  <smiles>  (53) 
[H]c1c([H])c([H])c2c(c1[H])C([H])([H])C([H])([H])C([H])([H])C2([H])N([H])C(=O)C1([H])N(C(=O)C([H])(N([H])C(=O)C([H])(N([H])C([H])([H])[H])C([H])([H])[H])C(C([H])([H])[H])(C([H])([H])[H])C([H])([H])[H])C([H])([H])c2c([H])c(OC([H])([H])C([H])([H])C([H])([H])N(c3c([H])c(F)c(C([H])([H])N(C(=O)C(C(=O)N4C([H])([H])C([H])([H])C([H])([H])C([H])(n5nc(-c6c([H])c([H])c(Oc7c([H])c([H])c(F)c([H])c7F)c([H])c6[H])c(C(=O)N([H])[H])c5N([H])[H])C4([H])[H])(C([H])([H])[H])C([H])([H])[H])C([H])([H])[H])c([H])c3F)C([H])([H])[H])c([H])c([H])c2C1([H])[H]

$$$$
53:0:0
     RDKit          3D

 92100  0  0  1  0  0  0  0  0999 V2000
  -31.7020  -19.6170   21.0290 C   0  0  0  0  0  3  0  0  0  0  0  0
  -30.0580  -17.8600   20.4750 C   0  0  0  0  0  0  0  0  0  0  0  0
  -29.4830  -20.5110   20.3560 C   0  0  0  0  0  0  0  0  0  0  0  0
  -31.3400  -18.2590   20.9220 C   0  0  0  0  0  0  0  0  0  0  0  0
  -30.8320  -20.6950   20.7600 C   0  0  0  0  0  0  0  0  0  0  0  0
  -29.1490  -19.0310   20.2110 C   0  0  0  0  0  0  0  0  0  0  0  0
  -32.2570  -17.3430   21.3110 F   0  0  0  0  0  0  0  0  0  0  0  0
  -31.3320  -21.9440   20.9380 F   0  0  0  0  0  0  0  0  0  0  0  0
  -27.5770  -18.5630   19.6560 Cl  0  0  0  0  0  0  0  0  0  0  0  0
  -30.4990  -15.1260   20.2080 C   0  0  0  0  0  0  0  0  0  0  0  0
  -30.3540  -12.7700   19.2420 C   0  0  0  0  0  2  0  0  0  0  0  0
  -29.3980  -12.7160   18.0280 C   0  0  0  0  0  2  0  0  0  0  0  0
  -27.9450  -12.4940   18.4870 C   0  0  0  0  0  2  0  0  0  0  0  0
  -27.5590  -13.4020   19.6850 C   0  0  0  0  0  3  0  0  0  0  0  0
  -28.6400  -13.4290   20.7870 C   0  0  0  0  0  2  0  0  0  0  0  0
  -29.8880  -13.8670   20.1480 N   0  0  0  0  0  0  0  0  0  0  0  0
  -31.6900  -15.1460   19.8850 O   0  0  0  0  0  0  0  0  0  0  0  0
  -29.7380  -16.3350   20.3810 N   0  0  0  0  0  0  0  0  0  0  0  0
  -28.7500  -16.1470   20.4530 H   0  0  0  0  0  0  0  0  0  0  0  0
  -25.1980  -13.9530   20.4900 C   0  0  0  0  0  0  0  0  0  0  0  0
  -24.1460  -13.1680   20.8730 C   0  0  0  0  0  0  0  0  0  0  0  0
  -24.6140  -11.8190   20.8100 C   0  0  0  0  0  0  0  0  0  0  0  0
  -26.2380  -13.0840   20.2120 N   0  0  0  0  0  0  0  0  0  0  0  0
  -25.8990  -11.7930   20.4700 N   0  0  0  0  0  0  0  0  0  0  0  0
  -23.8950  -10.5520   20.9960 C   0  0  0  0  0  0  0  0  0  0  0  0
  -24.3240   -9.5890   21.9370 C   0  0  0  0  0  3  0  0  0  0  0  0
  -23.6040   -8.3880   22.1120 C   0  0  0  0  0  3  0  0  0  0  0  0
  -22.4380   -8.1410   21.3460 C   0  0  0  0  0  0  0  0  0  0  0  0
  -22.0290   -9.0920   20.3940 C   0  0  0  0  0  3  0  0  0  0  0  0
  -22.7510  -10.2840   20.2180 C   0  0  0  0  0  3  0  0  0  0  0  0
  -21.6900   -6.9920   21.4300 O   0  0  0  0  0  0  0  0  0  0  0  0
  -21.6020   -6.2730   22.5960 C   0  0  0  0  0  0  0  0  0  0  0  0
  -21.0900   -6.8410   23.7830 C   0  0  0  0  0  3  0  0  0  0  0  0
  -20.9520   -6.0470   24.9390 C   0  0  0  0  0  3  0  0  0  0  0  0
  -21.3150   -4.6870   24.9080 C   0  0  0  0  0  0  0  0  0  0  0  0
  -21.8200   -4.1200   23.7250 C   0  0  0  0  0  3  0  0  0  0  0  0
  -21.9600   -4.9110   22.5710 C   0  0  0  0  0  0  0  0  0  0  0  0
  -22.4260   -4.3540   21.4280 F   0  0  0  0  0  0  0  0  0  0  0  0
  -21.1770   -3.9220   26.0160 F   0  0  0  0  0  0  0  0  0  0  0  0
  -22.7540  -13.6360   21.1790 C   0  0  0  0  0  0  0  0  0  0  0  0
  -22.0430  -12.9200   22.0450 N   0  0  0  0  0  0  0  0  0  0  0  0
  -22.3050  -14.6710   20.6890 O   0  0  0  0  0  0  0  0  0  0  0  0
  -22.4220  -12.0820   22.4620 H   0  0  0  0  0  0  0  0  0  0  0  0
  -21.1100  -13.2130   22.2930 H   0  0  0  0  0  0  0  0  0  0  0  0
  -25.3480  -15.3270   20.3300 N   0  0  0  0  0  0  0  0  0  0  0  0
  -24.5760  -15.9680   20.4660 H   0  0  0  0  0  0  0  0  0  0  0  0
  -26.1700  -15.7800   19.9530 H   0  0  0  0  0  0  0  0  0  0  0  0
  -27.2220  -21.5190   20.4360 C   0  0  0  0  0  1  0  0  0  0  0  0
  -28.6380  -21.7690   20.1780 N   0  0  0  0  0  0  0  0  0  0  0  0
  -29.0270  -23.3100   20.3050 C   0  0  0  0  0  3  0  0  0  0  0  0
  -28.0160  -24.6640   19.9770 C   0  0  0  0  0  3  0  0  0  0  0  0
  -28.2750  -26.2090   20.1870 O   0  0  0  0  0  0  0  0  0  0  0  0
  -24.6210  -31.8660   23.2700 C   0  0  0  0  0  0  0  0  0  0  0  0
  -27.2240  -27.2120   20.1360 C   0  0  0  0  0  0  0  0  0  0  0  0
  -23.4330  -30.5110   21.5900 C   0  0  0  0  0  3  0  0  0  0  0  0
  -24.8940  -28.9760   20.1280 C   0  0  0  0  0  0  0  0  0  0  0  0
  -25.9880  -30.7830   21.4420 C   0  0  0  0  0  2  0  0  0  0  0  0
  -26.0710  -29.4050   20.7550 C   0  0  0  0  0  0  0  0  0  0  0  0
  -27.2360  -28.5410   20.7380 C   0  0  0  0  0  3  0  0  0  0  0  0
  -26.0200  -26.8960   19.4700 C   0  0  0  0  0  3  0  0  0  0  0  0
  -24.8840  -27.7380   19.4690 C   0  0  0  0  0  3  0  0  0  0  0  0
  -23.6640  -29.8700   20.1950 C   0  0  0  0  0  2  0  0  0  0  0  0
  -24.7010  -31.0740   22.1560 N   0  0  0  0  0  0  0  0  0  0  0  0
  -23.5320  -32.1320   23.8010 O   0  0  0  0  0  0  0  0  0  0  0  0
  -22.7510  -29.4780   22.5230 C   0  0  0  0  0  0  0  0  0  0  0  0
  -21.4250  -29.3060   22.3860 N   0  0  0  0  0  0  0  0  0  0  0  0
  -23.4210  -28.8350   23.3360 O   0  0  0  0  0  0  0  0  0  0  0  0
  -20.9380  -29.8750   21.7080 H   0  0  0  0  0  0  0  0  0  0  0  0
  -18.0420  -28.0970   22.8620 C   0  0  0  0  0  0  0  0  0  0  0  0
  -20.6030  -28.3460   23.1300 C   0  0  0  0  0  3  0  0  0  0  0  0
  -20.7010  -26.9330   22.5100 C   0  0  0  0  0  2  0  0  0  0  0  0
  -19.5950  -26.6450   21.4890 C   0  0  0  0  0  2  0  0  0  0  0  0
  -18.2150  -26.7710   22.1400 C   0  0  0  0  0  2  0  0  0  0  0  0
  -19.1630  -28.8440   23.3130 C   0  0  0  0  0  0  0  0  0  0  0  0
  -18.9450  -30.0850   23.9480 C   0  0  0  0  0  3  0  0  0  0  0  0
  -17.6410  -30.5780   24.1400 C   0  0  0  0  0  3  0  0  0  0  0  0
  -16.5350  -29.8280   23.7040 C   0  0  0  0  0  3  0  0  0  0  0  0
  -16.7370  -28.5890   23.0690 C   0  0  0  0  0  3  0  0  0  0  0  0
  -25.8930  -32.4900   23.9190 C   0  0  0  0  0  3  0  0  0  0  0  0
  -26.3710  -31.7170   25.2110 C   0  0  1  0  0  0  0  0  0  0  0  0
  -25.2500  -31.4960   26.2530 C   0  0  0  0  0  1  0  0  0  0  0  0
  -26.9500  -30.3330   24.8410 C   0  0  0  0  0  1  0  0  0  0  0  0
  -27.5130  -32.5020   25.8980 C   0  0  0  0  0  1  0  0  0  0  0  0
  -25.5900  -33.8930   24.2480 N   0  0  0  0  0  0  0  0  0  0  0  0
  -25.9070  -34.9430   23.4800 C   0  0  0  0  0  0  0  0  0  0  0  0
  -26.5520  -34.8350   22.4340 O   0  0  0  0  0  0  0  0  0  0  0  0
  -25.0130  -34.0500   25.0610 H   0  0  0  0  0  0  0  0  0  0  0  0
  -24.1540  -36.7270   23.1910 C   0  0  0  0  0  1  0  0  0  0  0  0
  -25.4350  -36.3360   23.9450 C   0  0  0  0  0  3  0  0  0  0  0  0
  -27.5960  -37.2510   24.6690 C   0  0  0  0  0  1  0  0  0  0  0  0
  -26.4550  -37.3930   23.7690 N   0  0  0  0  0  0  0  0  0  0  0  0
  -26.0480  -38.3120   23.9180 H   0  0  0  0  0  0  0  0  0  0  0  0
  2  4  2  0
  3  5  1  0
  4  1  1  0
  4  7  1  0
  5  8  1  0
  5  1  2  0
  6  3  2  0
  6  2  1  0
  9  6  1  0
 10 18  1  0
 11 16  1  0
 12 13  1  0
 12 11  1  0
 14 13  1  0
 14 23  1  0
 14 15  1  0
 16 10  1  0
 16 15  1  0
 17 10  2  0
 18 19  1  0
 18  2  1  0
 20 21  2  0
 21 40  1  0
 22 21  1  0
 22 25  1  0
 23 24  1  0
 23 20  1  0
 24 22  2  0
 25 26  1  0
 26 27  2  0
 28 31  1  0
 28 27  1  0
 29 28  2  0
 30 29  1  0
 30 25  2  0
 31 32  1  0
 32 33  1  0
 33 34  2  0
 35 34  1  0
 35 39  1  0
 36 35  2  0
 37 32  2  0
 37 36  1  0
 38 37  1  0
 40 41  1  0
 41 44  1  0
 41 43  1  0
 42 40  2  0
 45 46  1  0
 45 20  1  0
 47 45  1  0
 49 50  1  0
 49  3  1  0
 49 48  1  0
 51 52  1  0
 51 50  2  0
 53 64  2  0
 54 52  1  0
 54 59  1  0
 55 63  1  0
 55 65  1  0
 56 62  1  0
 56 58  1  0
 57 63  1  0
 58 57  1  0
 59 58  2  0
 60 54  2  0
 61 60  1  0
 61 56  2  0
 62 55  1  0
 63 53  1  0
 65 67  2  0
 66 65  1  0
 68 66  1  0
 69 78  2  0
 69 74  1  0
 70 66  1  0
 70 74  1  0
 71 70  1  0
 72 73  1  0
 72 71  1  0
 73 69  1  0
 74 75  2  0
 75 76  1  0
 77 76  2  0
 78 77  1  0
 79 53  1  0
 79 84  1  0
 79 80  1  0
 80 83  1  1
 80 81  1  0
 82 80  1  0
 84 87  1  0
 85 89  1  0
 85 84  1  0
 86 85  2  0
 89 88  1  0
 91 92  1  0
 91 89  1  0
 91 90  1  0
M  ISO  4  10 100  18 100  51 101  52 101
M  END
>  <TORSDO>  (54) 
F 19

>  <SCORE>  (54) 
-15.087

>  <name>  (54) 
53

>  <ligand_id>  (54) 
53

>  <original_smiles>  (54) 
[H]c1c([H])c([H])c2c(c1[H])C([H])([H])C([H])([H])C([H])([H])C2([H])N([H])C(=O)C1([H])N(C(=O)C([H])(N([H])C(=O)C([H])(N([H])C([H])([H])[H])C([H])([H])[H])C(C([H])([H])[H])(C([H])([H])[H])C([H])([H])[H])C([H])([H])c2c([H])c(OC([H])([H])C([H])([H])N(c3c(F)c([H])c(F)c(N([H])C(=O)N4C([H])([H])C([H])([H])C([H])([H])C([H])(n5nc(-c6c([H])c([H])c(Oc7c([H])c([H])c(F)c([H])c7F)c([H])c6[H])c(C(=O)N([H])[H])c5N([H])[H])C4([H])[H])c3Cl)C([H])([H])[H])c([H])c([H])c2C1([H])[H]

>  <smiles>  (54) 
[H]c1c([H])c([H])c2c(c1[H])C([H])([H])C([H])([H])C([H])([H])C2([H])N([H])C(=O)C1([H])N(C(=O)C([H])(N([H])C(=O)C([H])(N([H])C([H])([H])[H])C([H])([H])[H])C(C([H])([H])[H])(C([H])([H])[H])C([H])([H])[H])C([H])([H])c2c([H])c(OC([H])([H])C([H])([H])N(c3c(F)c([H])c(F)c(N([H])C(=O)N4C([H])([H])C([H])([H])C([H])([H])C([H])(n5nc(-c6c([H])c([H])c(Oc7c([H])c([H])c(F)c([H])c7F)c([H])c6[H])c(C(=O)N([H])[H])c5N([H])[H])C4([H])[H])c3Cl)C([H])([H])[H])c([H])c([H])c2C1([H])[H]

$$$$
54:0:0
     RDKit          3D

 91 99  0  0  1  0  0  0  0  0999 V2000
  -30.3570  -18.4720   21.2340 C   0  0  0  0  0  3  0  0  0  0  0  0
  -28.7900  -18.4410   19.4640 C   0  0  0  0  0  0  0  0  0  0  0  0
  -29.6570  -17.6400   20.3070 C   0  0  0  0  0  0  0  0  0  0  0  0
  -29.2760  -20.7070   20.5590 C   0  0  0  0  0  0  0  0  0  0  0  0
  -30.1670  -19.9070   21.3600 C   0  0  0  0  0  0  0  0  0  0  0  0
  -28.6170  -19.8910   19.5770 C   0  0  0  0  0  0  0  0  0  0  0  0
  -27.9820  -17.7520   18.3700 C   0  0  0  0  0  1  0  0  0  0  0  0
  -30.8630  -20.5410   22.3350 F   0  0  0  0  0  0  0  0  0  0  0  0
  -27.7400  -20.4970   18.7360 F   0  0  0  0  0  0  0  0  0  0  0  0
  -30.5050  -14.9920   20.3200 C   0  0  0  0  0  0  0  0  0  0  0  0
  -30.4110  -12.6470   19.3660 C   0  0  0  0  0  2  0  0  0  0  0  0
  -29.4700  -12.6370   18.1400 C   0  0  0  0  0  2  0  0  0  0  0  0
  -28.0020  -12.4400   18.5700 C   0  0  0  0  0  2  0  0  0  0  0  0
  -27.6030  -13.3360   19.7720 C   0  0  0  0  0  3  0  0  0  0  0  0
  -28.6670  -13.3150   20.8870 C   0  0  0  0  0  2  0  0  0  0  0  0
  -29.9390  -13.7230   20.2750 N   0  0  0  0  0  0  0  0  0  0  0  0
  -31.7180  -15.0990   20.1050 O   0  0  0  0  0  0  0  0  0  0  0  0
  -29.6250  -16.1030   20.3320 N   0  0  0  0  0  0  0  0  0  0  0  0
  -28.6830  -15.7510   20.2780 H   0  0  0  0  0  0  0  0  0  0  0  0
  -25.2210  -13.9140   20.5140 C   0  0  0  0  0  0  0  0  0  0  0  0
  -24.1550  -13.1360   20.8770 C   0  0  0  0  0  0  0  0  0  0  0  0
  -24.6220  -11.7870   20.8440 C   0  0  0  0  0  0  0  0  0  0  0  0
  -26.2650  -13.0370   20.2710 N   0  0  0  0  0  0  0  0  0  0  0  0
  -25.9140  -11.7520   20.5360 N   0  0  0  0  0  0  0  0  0  0  0  0
  -23.8960  -10.5240   21.0310 C   0  0  0  0  0  0  0  0  0  0  0  0
  -24.3240   -9.5570   21.9650 C   0  0  0  0  0  3  0  0  0  0  0  0
  -23.5950   -8.3610   22.1400 C   0  0  0  0  0  3  0  0  0  0  0  0
  -22.4260   -8.1230   21.3780 C   0  0  0  0  0  0  0  0  0  0  0  0
  -22.0180   -9.0790   20.4310 C   0  0  0  0  0  3  0  0  0  0  0  0
  -22.7470  -10.2660   20.2550 C   0  0  0  0  0  3  0  0  0  0  0  0
  -21.6710   -6.9770   21.4610 O   0  0  0  0  0  0  0  0  0  0  0  0
  -21.6120   -6.2350   22.6140 C   0  0  0  0  0  0  0  0  0  0  0  0
  -21.1690   -6.7910   23.8330 C   0  0  0  0  0  3  0  0  0  0  0  0
  -21.0560   -5.9780   24.9790 C   0  0  0  0  0  3  0  0  0  0  0  0
  -21.3760   -4.6090   24.9040 C   0  0  0  0  0  0  0  0  0  0  0  0
  -21.8120   -4.0510   23.6890 C   0  0  0  0  0  3  0  0  0  0  0  0
  -21.9260   -4.8630   22.5460 C   0  0  0  0  0  0  0  0  0  0  0  0
  -22.3270   -4.3170   21.3720 F   0  0  0  0  0  0  0  0  0  0  0  0
  -21.2600   -3.8250   26.0010 F   0  0  0  0  0  0  0  0  0  0  0  0
  -22.7580  -13.6130   21.1460 C   0  0  0  0  0  0  0  0  0  0  0  0
  -22.0240  -12.9110   22.0030 N   0  0  0  0  0  0  0  0  0  0  0  0
  -22.3250  -14.6440   20.6330 O   0  0  0  0  0  0  0  0  0  0  0  0
  -22.3860  -12.0790   22.4450 H   0  0  0  0  0  0  0  0  0  0  0  0
  -21.0860  -13.2140   22.2230 H   0  0  0  0  0  0  0  0  0  0  0  0
  -25.3770  -15.2880   20.3450 N   0  0  0  0  0  0  0  0  0  0  0  0
  -24.5980  -15.9250   20.4700 H   0  0  0  0  0  0  0  0  0  0  0  0
  -26.2160  -15.7540   20.0340 H   0  0  0  0  0  0  0  0  0  0  0  0
  -29.0570  -22.1190   20.8960 O   0  0  0  0  0  0  0  0  0  0  0  0
  -28.7360  -23.3560   20.0460 C   0  0  0  0  0  2  0  0  0  0  0  0
  -28.1080  -24.7780   20.7050 C   0  0  0  0  0  2  0  0  0  0  0  0
  -28.3310  -26.2650   20.3120 O   0  0  0  0  0  0  0  0  0  0  0  0
  -24.6270  -31.9300   23.2510 C   0  0  0  0  0  0  0  0  0  0  0  0
  -27.2560  -27.2180   20.2890 C   0  0  0  0  0  0  0  0  0  0  0  0
  -23.4460  -30.5080   21.6190 C   0  0  0  0  0  3  0  0  0  0  0  0
  -24.9140  -28.9300   20.2230 C   0  0  0  0  0  0  0  0  0  0  0  0
  -25.9970  -30.7980   21.4640 C   0  0  0  0  0  2  0  0  0  0  0  0
  -26.0870  -29.3990   20.8290 C   0  0  0  0  0  0  0  0  0  0  0  0
  -27.2620  -28.5600   20.8400 C   0  0  0  0  0  3  0  0  0  0  0  0
  -26.0570  -26.8410   19.6500 C   0  0  0  0  0  3  0  0  0  0  0  0
  -24.9100  -27.6640   19.6170 C   0  0  0  0  0  3  0  0  0  0  0  0
  -23.6800  -29.8180   20.2490 C   0  0  0  0  0  2  0  0  0  0  0  0
  -24.7090  -31.1010   22.1660 N   0  0  0  0  0  0  0  0  0  0  0  0
  -23.5360  -32.2120   23.7690 O   0  0  0  0  0  0  0  0  0  0  0  0
  -22.7710  -29.5040   22.5870 C   0  0  0  0  0  0  0  0  0  0  0  0
  -21.4440  -29.3260   22.4570 N   0  0  0  0  0  0  0  0  0  0  0  0
  -23.4430  -28.8890   23.4190 O   0  0  0  0  0  0  0  0  0  0  0  0
  -20.9580  -29.8730   21.7610 H   0  0  0  0  0  0  0  0  0  0  0  0
  -18.0640  -28.1300   22.9690 C   0  0  0  0  0  0  0  0  0  0  0  0
  -20.6230  -28.3940   23.2350 C   0  0  0  0  0  3  0  0  0  0  0  0
  -20.7240  -26.9580   22.6700 C   0  0  0  0  0  2  0  0  0  0  0  0
  -19.6210  -26.6300   21.6570 C   0  0  0  0  0  2  0  0  0  0  0  0
  -18.2410  -26.7790   22.3010 C   0  0  0  0  0  2  0  0  0  0  0  0
  -19.1820  -28.8960   23.3940 C   0  0  0  0  0  0  0  0  0  0  0  0
  -18.9610  -30.1610   23.9840 C   0  0  0  0  0  3  0  0  0  0  0  0
  -17.6550  -30.6600   24.1490 C   0  0  0  0  0  3  0  0  0  0  0  0
  -16.5520  -29.8920   23.7370 C   0  0  0  0  0  3  0  0  0  0  0  0
  -16.7570  -28.6280   23.1550 C   0  0  0  0  0  3  0  0  0  0  0  0
  -25.8970  -32.5820   23.8780 C   0  0  0  0  0  3  0  0  0  0  0  0
  -26.4090  -31.8250   25.1650 C   0  0  1  0  0  0  0  0  0  0  0  0
  -25.3090  -31.5870   26.2270 C   0  0  0  0  0  1  0  0  0  0  0  0
  -27.0050  -30.4480   24.7920 C   0  0  0  0  0  1  0  0  0  0  0  0
  -27.5490  -32.6310   25.8290 C   0  0  0  0  0  1  0  0  0  0  0  0
  -25.5700  -33.9790   24.2030 N   0  0  0  0  0  0  0  0  0  0  0  0
  -25.9010  -35.0350   23.4470 C   0  0  0  0  0  0  0  0  0  0  0  0
  -26.5790  -34.9340   22.4200 O   0  0  0  0  0  0  0  0  0  0  0  0
  -24.9680  -34.1280   24.9990 H   0  0  0  0  0  0  0  0  0  0  0  0
  -24.1700  -36.8230   23.0740 C   0  0  0  0  0  1  0  0  0  0  0  0
  -25.4020  -36.4210   23.9000 C   0  0  0  0  0  3  0  0  0  0  0  0
  -27.5210  -37.3180   24.7610 C   0  0  0  0  0  1  0  0  0  0  0  0
  -26.4320  -37.4780   23.8010 N   0  0  0  0  0  0  0  0  0  0  0  0
  -26.0210  -38.3970   23.9400 H   0  0  0  0  0  0  0  0  0  0  0  0
  1  5  1  0
  2  6  2  0
  2  3  1  0
  3 18  1  0
  3  1  2  0
  4 48  1  0
  4  5  2  0
  5  8  1  0
  6  4  1  0
  7  2  1  0
  9  6  1  0
 10 18  1  0
 11 16  1  0
 12 13  1  0
 12 11  1  0
 14 13  1  0
 14 23  1  0
 14 15  1  0
 16 10  1  0
 16 15  1  0
 17 10  2  0
 19 18  1  0
 20 21  2  0
 21 40  1  0
 22 21  1  0
 22 25  1  0
 23 20  1  0
 23 24  1  0
 24 22  2  0
 25 26  1  0
 26 27  2  0
 28 31  1  0
 28 27  1  0
 29 28  2  0
 30 29  1  0
 30 25  2  0
 31 32  1  0
 32 33  1  0
 33 34  2  0
 35 34  1  0
 35 39  1  0
 36 35  2  0
 37 32  2  0
 37 36  1  0
 38 37  1  0
 40 41  1  0
 41 44  1  0
 41 43  1  0
 42 40  2  0
 45 46  1  0
 45 20  1  0
 47 45  1  0
 49 50  1  0
 49 48  1  0
 51 50  1  0
 52 63  2  0
 53 51  1  0
 53 58  1  0
 54 62  1  0
 54 64  1  0
 55 61  1  0
 55 57  1  0
 56 62  1  0
 57 58  2  0
 57 56  1  0
 59 53  2  0
 60 59  1  0
 60 55  2  0
 61 54  1  0
 62 52  1  0
 64 66  2  0
 65 64  1  0
 67 65  1  0
 68 77  2  0
 68 73  1  0
 69 65  1  0
 69 73  1  0
 70 69  1  0
 71 72  1  0
 71 70  1  0
 72 68  1  0
 73 74  2  0
 74 75  1  0
 76 75  2  0
 77 76  1  0
 78 52  1  0
 78 83  1  0
 78 79  1  0
 79 82  1  1
 79 80  1  0
 81 79  1  0
 83 86  1  0
 84 88  1  0
 84 83  1  0
 85 84  2  0
 88 87  1  0
 90 88  1  0
 90 91  1  0
 90 89  1  0
M  ISO  4  10 100  18 100  50 101  51 101
M  END
>  <TORSDO>  (55) 
F 19

>  <SCORE>  (55) 
-14.534

>  <name>  (55) 
54

>  <ligand_id>  (55) 
54

>  <original_smiles>  (55) 
[H]c1c([H])c([H])c2c(c1[H])C([H])([H])C([H])([H])C([H])([H])C2([H])N([H])C(=O)C1([H])N(C(=O)C([H])(N([H])C(=O)C([H])(N([H])C([H])([H])[H])C([H])([H])[H])C(C([H])([H])[H])(C([H])([H])[H])C([H])([H])[H])C([H])([H])c2c([H])c(OC([H])([H])C([H])([H])Oc3c(F)c([H])c(N([H])C(=O)N4C([H])([H])C([H])([H])C([H])([H])C([H])(n5nc(-c6c([H])c([H])c(Oc7c([H])c([H])c(F)c([H])c7F)c([H])c6[H])c(C(=O)N([H])[H])c5N([H])[H])C4([H])[H])c(C([H])([H])[H])c3F)c([H])c([H])c2C1([H])[H]

>  <smiles>  (55) 
[H]c1c([H])c([H])c2c(c1[H])C([H])([H])C([H])([H])C([H])([H])C2([H])N([H])C(=O)C1([H])N(C(=O)C([H])(N([H])C(=O)C([H])(N([H])C([H])([H])[H])C([H])([H])[H])C(C([H])([H])[H])(C([H])([H])[H])C([H])([H])[H])C([H])([H])c2c([H])c(OC([H])([H])C([H])([H])Oc3c(F)c([H])c(N([H])C(=O)N4C([H])([H])C([H])([H])C([H])([H])C([H])(n5nc(-c6c([H])c([H])c(Oc7c([H])c([H])c(F)c([H])c7F)c([H])c6[H])c(C(=O)N([H])[H])c5N([H])[H])C4([H])[H])c(C([H])([H])[H])c3F)c([H])c([H])c2C1([H])[H]

$$$$
55:0:0
     RDKit          3D

 93101  0  0  1  0  0  0  0  0999 V2000
  -30.7780  -18.4780   19.3820 C   0  0  0  0  0  3  0  0  0  0  0  0
  -28.3720  -19.7850   20.0020 C   0  0  0  0  0  0  0  0  0  0  0  0
  -29.7580  -17.6040   19.8710 C   0  0  0  0  0  0  0  0  0  0  0  0
  -29.3990  -20.6510   19.4840 C   0  0  0  0  0  0  0  0  0  0  0  0
  -30.6040  -19.9080   19.2020 C   0  0  0  0  0  0  0  0  0  0  0  0
  -28.5560  -18.3400   20.1850 C   0  0  0  0  0  0  0  0  0  0  0  0
  -27.0440  -20.4370   20.3690 C   0  0  0  0  0  1  0  0  0  0  0  0
  -31.6590  -20.6080   18.7180 F   0  0  0  0  0  0  0  0  0  0  0  0
  -27.2610  -17.3940   20.8420 Cl  0  0  0  0  0  0  0  0  0  0  0  0
  -30.6030  -14.9770   19.6420 C   0  0  0  0  0  0  0  0  0  0  0  0
  -30.4310  -12.6300   18.7090 C   0  0  0  0  0  2  0  0  0  0  0  0
  -29.3880  -12.6000   17.5660 C   0  0  0  0  0  2  0  0  0  0  0  0
  -27.9700  -12.3890   18.1270 C   0  0  0  0  0  2  0  0  0  0  0  0
  -27.6680  -13.3180   19.3310 C   0  0  0  0  0  3  0  0  0  0  0  0
  -28.8130  -13.3010   20.3670 C   0  0  0  0  0  2  0  0  0  0  0  0
  -30.0410  -13.7040   19.6650 N   0  0  0  0  0  0  0  0  0  0  0  0
  -31.7450  -15.1010   19.1820 O   0  0  0  0  0  0  0  0  0  0  0  0
  -29.7990  -16.0770   20.0150 N   0  0  0  0  0  0  0  0  0  0  0  0
  -28.9740  -15.7420   20.4880 H   0  0  0  0  0  0  0  0  0  0  0  0
  -25.3860  -13.9180   20.3250 C   0  0  0  0  0  0  0  0  0  0  0  0
  -24.3400  -13.1520   20.7570 C   0  0  0  0  0  0  0  0  0  0  0  0
  -24.7580  -11.7930   20.6050 C   0  0  0  0  0  0  0  0  0  0  0  0
  -26.3750  -13.0300   19.9360 N   0  0  0  0  0  0  0  0  0  0  0  0
  -26.0110  -11.7420   20.1680 N   0  0  0  0  0  0  0  0  0  0  0  0
  -24.0150  -10.5410   20.7970 C   0  0  0  0  0  0  0  0  0  0  0  0
  -24.4990   -9.5150   21.6380 C   0  0  0  0  0  3  0  0  0  0  0  0
  -23.7590   -8.3280   21.8200 C   0  0  0  0  0  3  0  0  0  0  0  0
  -22.5180   -8.1590   21.1600 C   0  0  0  0  0  0  0  0  0  0  0  0
  -22.0500   -9.1740   20.3060 C   0  0  0  0  0  3  0  0  0  0  0  0
  -22.7920  -10.3520   20.1230 C   0  0  0  0  0  3  0  0  0  0  0  0
  -21.7410   -7.0300   21.2590 O   0  0  0  0  0  0  0  0  0  0  0  0
  -21.7700   -6.2290   22.3720 C   0  0  0  0  0  0  0  0  0  0  0  0
  -21.4650   -6.7270   23.6560 C   0  0  0  0  0  3  0  0  0  0  0  0
  -21.4400   -5.8550   24.7630 C   0  0  0  0  0  3  0  0  0  0  0  0
  -21.7100   -4.4860   24.5860 C   0  0  0  0  0  0  0  0  0  0  0  0
  -22.0100   -3.9850   23.3060 C   0  0  0  0  0  3  0  0  0  0  0  0
  -22.0360   -4.8550   22.2020 C   0  0  0  0  0  0  0  0  0  0  0  0
  -22.3040   -4.3660   20.9680 F   0  0  0  0  0  0  0  0  0  0  0  0
  -21.6780   -3.6450   25.6460 F   0  0  0  0  0  0  0  0  0  0  0  0
  -22.9920  -13.6480   21.1920 C   0  0  0  0  0  0  0  0  0  0  0  0
  -22.3390  -12.9320   22.1010 N   0  0  0  0  0  0  0  0  0  0  0  0
  -22.5300  -14.7040   20.7620 O   0  0  0  0  0  0  0  0  0  0  0  0
  -22.7280  -12.0770   22.4730 H   0  0  0  0  0  0  0  0  0  0  0  0
  -21.4380  -13.2430   22.4340 H   0  0  0  0  0  0  0  0  0  0  0  0
  -25.5700  -15.2930   20.2050 N   0  0  0  0  0  0  0  0  0  0  0  0
  -24.8360  -15.9530   20.4370 H   0  0  0  0  0  0  0  0  0  0  0  0
  -26.4010  -15.7370   19.8390 H   0  0  0  0  0  0  0  0  0  0  0  0
  -29.3600  -22.1210   19.2170 N   0  0  0  0  0  0  0  0  0  0  0  0
  -30.2040  -22.4120   18.7300 H   0  0  0  0  0  0  0  0  0  0  0  0
  -28.4310  -23.3350   19.5270 C   0  0  0  0  0  2  0  0  0  0  0  0
  -28.5630  -24.8360   17.3650 C   0  0  0  0  0  1  0  0  0  0  0  0
  -28.7660  -24.8560   18.8870 C   0  0  0  0  0  3  0  0  0  0  0  0
  -28.5480  -26.2900   19.4510 O   0  0  0  0  0  0  0  0  0  0  0  0
  -24.7940  -31.5540   22.8930 C   0  0  0  0  0  0  0  0  0  0  0  0
  -27.4110  -27.1720   19.4400 C   0  0  0  0  0  0  0  0  0  0  0  0
  -23.5750  -30.2430   21.1930 C   0  0  0  0  0  3  0  0  0  0  0  0
  -25.0190  -28.8190   19.6090 C   0  0  0  0  0  0  0  0  0  0  0  0
  -26.1110  -30.6050   20.9630 C   0  0  0  0  0  2  0  0  0  0  0  0
  -26.2000  -29.2700   20.2060 C   0  0  0  0  0  0  0  0  0  0  0  0
  -27.3910  -28.4630   20.1040 C   0  0  0  0  0  3  0  0  0  0  0  0
  -26.1940  -26.8070   18.8260 C   0  0  0  0  0  3  0  0  0  0  0  0
  -25.0270  -27.6020   18.9050 C   0  0  0  0  0  3  0  0  0  0  0  0
  -23.7660  -29.6670   19.7620 C   0  0  0  0  0  2  0  0  0  0  0  0
  -24.8480  -30.8190   21.7390 N   0  0  0  0  0  0  0  0  0  0  0  0
  -23.7200  -31.7660   23.4760 O   0  0  0  0  0  0  0  0  0  0  0  0
  -22.9600  -29.1520   22.1020 C   0  0  0  0  0  0  0  0  0  0  0  0
  -21.6290  -28.9680   22.0230 N   0  0  0  0  0  0  0  0  0  0  0  0
  -23.6780  -28.4740   22.8420 O   0  0  0  0  0  0  0  0  0  0  0  0
  -21.1050  -29.5660   21.4000 H   0  0  0  0  0  0  0  0  0  0  0  0
  -18.2900  -27.6880   22.5870 C   0  0  0  0  0  0  0  0  0  0  0  0
  -20.8580  -27.9570   22.7490 C   0  0  0  0  0  3  0  0  0  0  0  0
  -20.9430  -26.5820   22.0470 C   0  0  0  0  0  2  0  0  0  0  0  0
  -19.7940  -26.3350   21.0640 C   0  0  0  0  0  2  0  0  0  0  0  0
  -18.4440  -26.4040   21.7870 C   0  0  0  0  0  2  0  0  0  0  0  0
  -19.4230  -28.4250   23.0240 C   0  0  0  0  0  0  0  0  0  0  0  0
  -19.2240  -29.6270   23.7360 C   0  0  0  0  0  3  0  0  0  0  0  0
  -17.9260  -30.0920   24.0170 C   0  0  0  0  0  3  0  0  0  0  0  0
  -16.8090  -29.3520   23.5960 C   0  0  0  0  0  3  0  0  0  0  0  0
  -16.9900  -28.1530   22.8840 C   0  0  0  0  0  3  0  0  0  0  0  0
  -26.0750  -32.1770   23.5270 C   0  0  0  0  0  3  0  0  0  0  0  0
  -26.6510  -31.3300   24.7300 C   0  0  1  0  0  0  0  0  0  0  0  0
  -25.6010  -30.9920   25.8140 C   0  0  0  0  0  1  0  0  0  0  0  0
  -27.2520  -29.9980   24.2260 C   0  0  0  0  0  1  0  0  0  0  0  0
  -27.8070  -32.1020   25.4070 C   0  0  0  0  0  1  0  0  0  0  0  0
  -25.7370  -33.5370   23.9760 N   0  0  0  0  0  0  0  0  0  0  0  0
  -26.0390  -34.6610   23.3100 C   0  0  0  0  0  0  0  0  0  0  0  0
  -26.6980  -34.6610   22.2690 O   0  0  0  0  0  0  0  0  0  0  0  0
  -25.1520  -33.6110   24.7960 H   0  0  0  0  0  0  0  0  0  0  0  0
  -24.2640  -36.4370   23.1390 C   0  0  0  0  0  1  0  0  0  0  0  0
  -25.5290  -35.9940   23.8930 C   0  0  0  0  0  3  0  0  0  0  0  0
  -27.6550  -36.8610   24.7630 C   0  0  0  0  0  1  0  0  0  0  0  0
  -26.5360  -37.0790   23.8530 N   0  0  0  0  0  0  0  0  0  0  0  0
  -26.1090  -37.9730   24.0810 H   0  0  0  0  0  0  0  0  0  0  0  0
  1  3  1  0
  2  6  1  0
  2  7  1  0
  3 18  1  0
  3  6  2  0
  4  2  2  0
  5  1  2  0
  5  4  1  0
  6  9  1  0
  8  5  1  0
 10 16  1  0
 10 18  1  0
 11 16  1  0
 12 13  1  0
 12 11  1  0
 14 13  1  0
 14 23  1  0
 14 15  1  0
 16 15  1  0
 17 10  2  0
 18 19  1  0
 20 21  2  0
 21 40  1  0
 22 21  1  0
 22 25  1  0
 23 24  1  0
 23 20  1  0
 24 22  2  0
 25 26  1  0
 26 27  2  0
 28 31  1  0
 28 27  1  0
 29 28  2  0
 30 29  1  0
 30 25  2  0
 31 32  1  0
 32 33  1  0
 33 34  2  0
 35 34  1  0
 35 39  1  0
 36 35  2  0
 37 32  2  0
 37 36  1  0
 38 37  1  0
 40 41  1  0
 41 44  1  0
 41 43  1  0
 42 40  2  0
 45 20  1  0
 45 46  1  0
 47 45  1  0
 48  4  1  0
 48 50  1  0
 49 48  1  0
 52 51  1  0
 52 53  1  0
 52 50  1  0
 54 65  2  0
 55 53  1  0
 55 60  1  0
 56 64  1  0
 56 66  1  0
 57 63  1  0
 57 59  1  0
 58 64  1  0
 59 58  1  0
 60 59  2  0
 61 62  1  0
 61 55  2  0
 62 57  2  0
 63 56  1  0
 64 54  1  0
 66 68  2  0
 67 66  1  0
 69 67  1  0
 70 79  2  0
 70 75  1  0
 71 67  1  0
 71 75  1  0
 72 71  1  0
 73 74  1  0
 73 72  1  0
 74 70  1  0
 75 76  2  0
 76 77  1  0
 78 77  2  0
 79 78  1  0
 80 54  1  0
 80 85  1  0
 80 81  1  0
 81 84  1  1
 81 82  1  0
 83 81  1  0
 85 88  1  0
 86 90  1  0
 86 85  1  0
 87 86  2  0
 90 89  1  0
 92 90  1  0
 92 93  1  0
 92 91  1  0
M  ISO  4  10 100  18 100  52 101  53 101
M  END
>  <TORSDO>  (56) 
F 19

>  <SCORE>  (56) 
-11.444

>  <name>  (56) 
55

>  <ligand_id>  (56) 
55

>  <original_smiles>  (56) 
[H]c1c([H])c([H])c2c(c1[H])C([H])([H])C([H])([H])C([H])([H])C2([H])N([H])C(=O)C1([H])N(C(=O)C([H])(N([H])C(=O)C([H])(N([H])C([H])([H])[H])C([H])([H])[H])C(C([H])([H])[H])(C([H])([H])[H])C([H])([H])[H])C([H])([H])c2c([H])c(OC([H])(C([H])([H])[H])C([H])([H])N([H])c3c(F)c([H])c(N([H])C(=O)N4C([H])([H])C([H])([H])C([H])([H])C([H])(n5nc(-c6c([H])c([H])c(Oc7c([H])c([H])c(F)c([H])c7F)c([H])c6[H])c(C(=O)N([H])[H])c5N([H])[H])C4([H])[H])c(Cl)c3C([H])([H])[H])c([H])c([H])c2C1([H])[H]

>  <smiles>  (56) 
[H]c1c([H])c([H])c2c(c1[H])C([H])([H])C([H])([H])C([H])([H])C2([H])N([H])C(=O)C1([H])N(C(=O)C([H])(N([H])C(=O)C([H])(N([H])C([H])([H])[H])C([H])([H])[H])C(C([H])([H])[H])(C([H])([H])[H])C([H])([H])[H])C([H])([H])c2c([H])c(OC([H])(C([H])([H])[H])C([H])([H])N([H])c3c(F)c([H])c(N([H])C(=O)N4C([H])([H])C([H])([H])C([H])([H])C([H])(n5nc(-c6c([H])c([H])c(Oc7c([H])c([H])c(F)c([H])c7F)c([H])c6[H])c(C(=O)N([H])[H])c5N([H])[H])C4([H])[H])c(Cl)c3C([H])([H])[H])c([H])c([H])c2C1([H])[H]

$$$$
56:0:0
     RDKit          3D

 87 94  0  0  1  0  0  0  0  0999 V2000
  -29.0320  -20.5740   20.2840 C   0  0  0  0  0  2  0  0  0  0  0  0
  -29.8730  -18.9370   20.8460 C   0  0  1  0  0  0  0  0  0  0  0  0
  -31.1570  -19.2860   20.7980 F   0  0  0  0  0  0  0  0  0  0  0  0
  -29.5500  -18.9100   22.1380 F   0  0  0  0  0  0  0  0  0  0  0  0
  -30.5470  -15.8710   20.6580 C   0  0  0  0  0  0  0  0  0  0  0  0
  -30.7120  -13.3190   19.9310 C   0  0  0  0  0  2  0  0  0  0  0  0
  -29.9070  -12.8220   18.6990 C   0  0  0  0  0  2  0  0  0  0  0  0
  -28.4550  -12.4860   19.0770 C   0  0  0  0  0  2  0  0  0  0  0  0
  -27.8610  -13.5070   20.0740 C   0  0  0  0  0  3  0  0  0  0  0  0
  -28.8240  -13.9080   21.2130 C   0  0  0  0  0  2  0  0  0  0  0  0
  -30.0120  -14.5170   20.5670 N   0  0  0  0  0  0  0  0  0  0  0  0
  -31.7850  -15.7800   20.7690 O   0  0  0  0  0  0  0  0  0  0  0  0
  -29.8530  -17.2430   20.3540 N   0  0  0  0  0  0  0  0  0  0  0  0
  -25.4580  -14.0440   20.6970 C   0  0  0  0  0  0  0  0  0  0  0  0
  -24.3800  -13.2590   20.9860 C   0  0  0  0  0  0  0  0  0  0  0  0
  -24.8590  -11.9120   20.9830 C   0  0  0  0  0  0  0  0  0  0  0  0
  -26.5200  -13.1750   20.5220 N   0  0  0  0  0  0  0  0  0  0  0  0
  -26.1700  -11.8870   20.7610 N   0  0  0  0  0  0  0  0  0  0  0  0
  -24.1320  -10.6450   21.1180 C   0  0  0  0  0  0  0  0  0  0  0  0
  -24.5010   -9.6830   22.0820 C   0  0  0  0  0  3  0  0  0  0  0  0
  -23.7720   -8.4820   22.2100 C   0  0  0  0  0  3  0  0  0  0  0  0
  -22.6590   -8.2350   21.3710 C   0  0  0  0  0  0  0  0  0  0  0  0
  -22.3100   -9.1860   20.3960 C   0  0  0  0  0  3  0  0  0  0  0  0
  -23.0410  -10.3790   20.2680 C   0  0  0  0  0  3  0  0  0  0  0  0
  -21.9070   -7.0860   21.4070 O   0  0  0  0  0  0  0  0  0  0  0  0
  -21.7660   -6.3540   22.5580 C   0  0  0  0  0  0  0  0  0  0  0  0
  -21.1870   -6.9020   23.7230 C   0  0  0  0  0  3  0  0  0  0  0  0
  -20.9980   -6.0940   24.8620 C   0  0  0  0  0  3  0  0  0  0  0  0
  -21.3780   -4.7390   24.8360 C   0  0  0  0  0  0  0  0  0  0  0  0
  -21.9500   -4.1900   23.6750 C   0  0  0  0  0  3  0  0  0  0  0  0
  -22.1410   -4.9960   22.5380 C   0  0  0  0  0  0  0  0  0  0  0  0
  -22.6730   -4.4570   21.4150 F   0  0  0  0  0  0  0  0  0  0  0  0
  -21.1890   -3.9600   25.9270 F   0  0  0  0  0  0  0  0  0  0  0  0
  -22.9640  -13.7260   21.1550 C   0  0  0  0  0  0  0  0  0  0  0  0
  -22.1820  -13.0240   21.9670 N   0  0  0  0  0  0  0  0  0  0  0  0
  -22.5590  -14.7480   20.6040 O   0  0  0  0  0  0  0  0  0  0  0  0
  -22.5230  -12.1990   22.4360 H   0  0  0  0  0  0  0  0  0  0  0  0
  -21.2290  -13.3200   22.1240 H   0  0  0  0  0  0  0  0  0  0  0  0
  -25.6200  -15.4180   20.5400 N   0  0  0  0  0  0  0  0  0  0  0  0
  -24.8440  -16.0660   20.6140 H   0  0  0  0  0  0  0  0  0  0  0  0
  -26.4970  -15.8710   20.3190 H   0  0  0  0  0  0  0  0  0  0  0  0
  -30.8460  -17.2550   18.0330 C   0  0  0  0  0  1  0  0  0  0  0  0
  -28.4000  -16.6740   18.3290 C   0  0  0  0  0  1  0  0  0  0  0  0
  -29.5860  -17.4460   18.9030 C   0  0  0  0  0  3  0  0  0  0  0  0
  -29.0670  -22.4580   20.6420 C   0  0  0  0  0  3  0  0  0  0  0  0
  -28.1560  -24.0840   20.1850 C   0  0  0  0  0  3  0  0  0  0  0  0
  -28.2760  -25.8110   20.3690 O   0  0  0  0  0  0  0  0  0  0  0  0
  -24.6240  -31.9810   23.2130 C   0  0  0  0  0  0  0  0  0  0  0  0
  -27.2740  -26.9770   20.2710 C   0  0  0  0  0  0  0  0  0  0  0  0
  -23.4750  -30.5580   21.5700 C   0  0  0  0  0  3  0  0  0  0  0  0
  -24.9640  -28.9340   20.1790 C   0  0  0  0  0  0  0  0  0  0  0  0
  -26.0490  -30.7550   21.4710 C   0  0  0  0  0  2  0  0  0  0  0  0
  -26.1430  -29.3260   20.8220 C   0  0  0  0  0  0  0  0  0  0  0  0
  -27.2840  -28.3720   20.8380 C   0  0  0  0  0  3  0  0  0  0  0  0
  -26.0570  -26.7790   19.5710 C   0  0  0  0  0  3  0  0  0  0  0  0
  -24.9560  -27.6860   19.5310 C   0  0  0  0  0  3  0  0  0  0  0  0
  -23.7380  -29.8590   20.2050 C   0  0  0  0  0  2  0  0  0  0  0  0
  -24.7390  -31.1300   22.1370 N   0  0  0  0  0  0  0  0  0  0  0  0
  -23.5220  -32.2650   23.7120 O   0  0  0  0  0  0  0  0  0  0  0  0
  -22.7670  -29.5710   22.5380 C   0  0  0  0  0  0  0  0  0  0  0  0
  -21.4370  -29.4040   22.4070 N   0  0  0  0  0  0  0  0  0  0  0  0
  -23.4250  -28.9540   23.3780 O   0  0  0  0  0  0  0  0  0  0  0  0
  -20.9560  -29.9530   21.7080 H   0  0  0  0  0  0  0  0  0  0  0  0
  -18.0530  -28.1880   22.9260 C   0  0  0  0  0  0  0  0  0  0  0  0
  -20.6140  -28.4630   23.1770 C   0  0  0  0  0  3  0  0  0  0  0  0
  -20.7150  -27.0340   22.5950 C   0  0  0  0  0  2  0  0  0  0  0  0
  -19.6110  -26.7140   21.5830 C   0  0  0  0  0  2  0  0  0  0  0  0
  -18.2310  -26.8480   22.2340 C   0  0  0  0  0  2  0  0  0  0  0  0
  -19.1710  -28.9540   23.3540 C   0  0  0  0  0  0  0  0  0  0  0  0
  -18.9470  -30.2070   23.9660 C   0  0  0  0  0  3  0  0  0  0  0  0
  -17.6390  -30.6940   24.1500 C   0  0  0  0  0  3  0  0  0  0  0  0
  -16.5370  -29.9270   23.7350 C   0  0  0  0  0  3  0  0  0  0  0  0
  -16.7450  -28.6760   23.1290 C   0  0  0  0  0  3  0  0  0  0  0  0
  -25.8720  -32.6520   23.8640 C   0  0  0  0  0  3  0  0  0  0  0  0
  -26.3870  -31.8880   25.1460 C   0  0  1  0  0  0  0  0  0  0  0  0
  -25.2850  -31.6210   26.1990 C   0  0  0  0  0  1  0  0  0  0  0  0
  -27.0070  -30.5240   24.7670 C   0  0  0  0  0  1  0  0  0  0  0  0
  -27.5110  -32.7050   25.8280 C   0  0  0  0  0  1  0  0  0  0  0  0
  -25.5160  -34.0400   24.2180 N   0  0  0  0  0  0  0  0  0  0  0  0
  -25.8740  -35.1290   23.5250 C   0  0  0  0  0  0  0  0  0  0  0  0
  -26.5960  -35.0740   22.5280 O   0  0  0  0  0  0  0  0  0  0  0  0
  -24.8760  -34.1550   24.9910 H   0  0  0  0  0  0  0  0  0  0  0  0
  -24.1850  -36.9560   23.1250 C   0  0  0  0  0  1  0  0  0  0  0  0
  -25.3520  -36.4980   24.0150 C   0  0  0  0  0  3  0  0  0  0  0  0
  -27.4040  -37.3370   25.0740 C   0  0  0  0  0  1  0  0  0  0  0  0
  -26.3920  -37.5510   24.0440 N   0  0  0  0  0  0  0  0  0  0  0  0
  -25.9740  -38.4650   24.1960 H   0  0  0  0  0  0  0  0  0  0  0  0
  1 45  1  0
  1  2  1  0
  2  4  1  1
  3  2  1  0
  5 12  2  0
  6 11  1  0
  7  8  1  0
  7  6  1  0
  9  8  1  0
  9 17  1  0
  9 10  1  0
 11  5  1  0
 11 10  1  0
 13  5  1  0
 13  2  1  0
 14 15  2  0
 15 34  1  0
 16 15  1  0
 16 19  1  0
 17 14  1  0
 17 18  1  0
 18 16  2  0
 19 20  1  0
 20 21  2  0
 22 25  1  0
 22 21  1  0
 23 22  2  0
 24 23  1  0
 24 19  2  0
 25 26  1  0
 26 27  1  0
 27 28  2  0
 29 28  1  0
 29 33  1  0
 30 29  2  0
 31 26  2  0
 31 30  1  0
 32 31  1  0
 34 35  1  0
 35 38  1  0
 35 37  1  0
 36 34  2  0
 39 40  1  0
 39 14  1  0
 41 39  1  0
 42 44  1  0
 43 44  1  0
 44 13  1  0
 46 47  1  0
 46 45  2  0
 48 59  2  0
 49 47  1  0
 49 54  1  0
 50 58  1  0
 50 60  1  0
 51 57  1  0
 51 53  1  0
 52 58  1  0
 53 54  2  0
 53 52  1  0
 55 49  2  0
 56 55  1  0
 56 51  2  0
 57 50  1  0
 58 48  1  0
 60 62  2  0
 61 60  1  0
 63 61  1  0
 64 73  2  0
 64 69  1  0
 65 61  1  0
 65 69  1  0
 66 65  1  0
 67 68  1  0
 67 66  1  0
 68 64  1  0
 69 70  2  0
 70 71  1  0
 72 71  2  0
 73 72  1  0
 74 48  1  0
 74 79  1  0
 74 75  1  0
 75 78  1  1
 75 76  1  0
 77 75  1  0
 79 82  1  0
 80 84  1  0
 80 79  1  0
 81 80  2  0
 84 83  1  0
 84 86  1  0
 86 87  1  0
 86 85  1  0
M  ISO  4   5 100  13 100  46 101  47 101
M  END
>  <TORSDO>  (57) 
F 20

>  <SCORE>  (57) 
-14.626

>  <name>  (57) 
56

>  <ligand_id>  (57) 
56

>  <original_smiles>  (57) 
[H]c1c([H])c([H])c2c(c1[H])C([H])([H])C([H])([H])C([H])([H])C2([H])N([H])C(=O)C1([H])N(C(=O)C([H])(N([H])C(=O)C([H])(N([H])C([H])([H])[H])C([H])([H])[H])C(C([H])([H])[H])(C([H])([H])[H])C([H])([H])[H])C([H])([H])c2c([H])c(OC([H])([H])C([H])([H])C([H])([H])C(F)(F)N(C(=O)N3C([H])([H])C([H])([H])C([H])([H])C([H])(n4nc(-c5c([H])c([H])c(Oc6c([H])c([H])c(F)c([H])c6F)c([H])c5[H])c(C(=O)N([H])[H])c4N([H])[H])C3([H])[H])C([H])(C([H])([H])[H])C([H])([H])[H])c([H])c([H])c2C1([H])[H]

>  <smiles>  (57) 
[H]c1c([H])c([H])c2c(c1[H])C([H])([H])C([H])([H])C([H])([H])C2([H])N([H])C(=O)C1([H])N(C(=O)C([H])(N([H])C(=O)C([H])(N([H])C([H])([H])[H])C([H])([H])[H])C(C([H])([H])[H])(C([H])([H])[H])C([H])([H])[H])C([H])([H])c2c([H])c(OC([H])([H])C([H])([H])C([H])([H])C(F)(F)N(C(=O)N3C([H])([H])C([H])([H])C([H])([H])C([H])(n4nc(-c5c([H])c([H])c(Oc6c([H])c([H])c(F)c([H])c6F)c([H])c5[H])c(C(=O)N([H])[H])c4N([H])[H])C3([H])[H])C([H])(C([H])([H])[H])C([H])([H])[H])c([H])c([H])c2C1([H])[H]

$$$$
57:0:0
     RDKit          3D

 93101  0  0  1  0  0  0  0  0999 V2000
  -30.2050  -19.9750   21.7100 C   0  0  0  0  0  3  0  0  0  0  0  0
  -29.5110  -19.8240   20.4920 C   0  0  0  0  0  0  0  0  0  0  0  0
  -30.0080  -17.3230   20.6190 C   0  0  0  0  0  0  0  0  0  0  0  0
  -30.7830  -18.8700   22.3790 C   0  0  0  0  0  0  0  0  0  0  0  0
  -29.3970  -18.4730   19.9790 C   0  0  0  0  0  0  0  0  0  0  0  0
  -30.7100  -17.5670   21.8280 C   0  0  0  0  0  0  0  0  0  0  0  0
  -28.6720  -18.2680   18.8530 F   0  0  0  0  0  0  0  0  0  0  0  0
  -31.4010  -16.2670   22.7440 Cl  0  0  0  0  0  0  0  0  0  0  0  0
  -30.6040  -14.8670   19.9650 C   0  0  0  0  0  0  0  0  0  0  0  0
  -30.4000  -12.6140   18.9050 C   0  0  0  0  0  2  0  0  0  0  0  0
  -29.3770  -12.6850   17.7500 C   0  0  0  0  0  2  0  0  0  0  0  0
  -27.9370  -12.4920   18.2720 C   0  0  0  0  0  2  0  0  0  0  0  0
  -27.6310  -13.3660   19.5170 C   0  0  0  0  0  3  0  0  0  0  0  0
  -28.7580  -13.2530   20.5680 C   0  0  0  0  0  2  0  0  0  0  0  0
  -30.0090  -13.6330   19.8980 N   0  0  0  0  0  0  0  0  0  0  0  0
  -31.7710  -15.0280   19.5930 O   0  0  0  0  0  0  0  0  0  0  0  0
  -29.7620  -15.9370   20.1790 N   0  0  0  0  0  0  0  0  0  0  0  0
  -28.7870  -15.6930   20.1510 H   0  0  0  0  0  0  0  0  0  0  0  0
  -25.2930  -13.9420   20.4070 C   0  0  0  0  0  0  0  0  0  0  0  0
  -24.2520  -13.1560   20.8230 C   0  0  0  0  0  0  0  0  0  0  0  0
  -24.7130  -11.8060   20.7290 C   0  0  0  0  0  0  0  0  0  0  0  0
  -26.3200  -13.0690   20.0850 N   0  0  0  0  0  0  0  0  0  0  0  0
  -25.9820  -11.7800   20.3410 N   0  0  0  0  0  0  0  0  0  0  0  0
  -24.0020  -10.5370   20.9290 C   0  0  0  0  0  0  0  0  0  0  0  0
  -24.4380   -9.5900   21.8820 C   0  0  0  0  0  3  0  0  0  0  0  0
  -23.7260   -8.3850   22.0690 C   0  0  0  0  0  3  0  0  0  0  0  0
  -22.5660   -8.1190   21.3030 C   0  0  0  0  0  0  0  0  0  0  0  0
  -22.1500   -9.0560   20.3410 C   0  0  0  0  0  3  0  0  0  0  0  0
  -22.8620  -10.2530   20.1520 C   0  0  0  0  0  3  0  0  0  0  0  0
  -21.8280   -6.9650   21.3990 O   0  0  0  0  0  0  0  0  0  0  0  0
  -21.7120   -6.2810   22.5820 C   0  0  0  0  0  0  0  0  0  0  0  0
  -21.1560   -6.8780   23.7350 C   0  0  0  0  0  3  0  0  0  0  0  0
  -20.9900   -6.1190   24.9110 C   0  0  0  0  0  3  0  0  0  0  0  0
  -21.3700   -4.7630   24.9340 C   0  0  0  0  0  0  0  0  0  0  0  0
  -21.9180   -4.1650   23.7850 C   0  0  0  0  0  3  0  0  0  0  0  0
  -22.0850   -4.9220   22.6110 C   0  0  0  0  0  0  0  0  0  0  0  0
  -22.5950   -4.3370   21.5010 F   0  0  0  0  0  0  0  0  0  0  0  0
  -21.2040   -4.0310   26.0590 F   0  0  0  0  0  0  0  0  0  0  0  0
  -22.8750  -13.6210   21.1930 C   0  0  0  0  0  0  0  0  0  0  0  0
  -22.1970  -12.8930   22.0750 N   0  0  0  0  0  0  0  0  0  0  0  0
  -22.4070  -14.6640   20.7360 O   0  0  0  0  0  0  0  0  0  0  0  0
  -22.5890  -12.0480   22.4650 H   0  0  0  0  0  0  0  0  0  0  0  0
  -21.2760  -13.1870   22.3660 H   0  0  0  0  0  0  0  0  0  0  0  0
  -25.4420  -15.3170   20.2530 N   0  0  0  0  0  0  0  0  0  0  0  0
  -24.6700  -15.9540   20.4140 H   0  0  0  0  0  0  0  0  0  0  0  0
  -26.2380  -15.7680   19.8250 H   0  0  0  0  0  0  0  0  0  0  0  0
  -30.9530  -20.0370   24.4500 C   0  0  0  0  0  1  0  0  0  0  0  0
  -31.4290  -19.0100   23.5900 O   0  0  0  0  0  0  0  0  0  0  0  0
  -28.9180  -21.1070   19.7680 C   0  0  0  0  0  3  0  0  0  0  0  0
  -28.9250  -22.5540   20.4850 C   0  0  0  0  0  3  0  0  0  0  0  0
  -28.5650  -23.9000   19.6740 C   0  0  0  0  0  2  0  0  0  0  0  0
  -28.1850  -25.2220   20.5060 C   0  0  0  0  0  2  0  0  0  0  0  0
  -28.3020  -26.5930   19.9320 O   0  0  0  0  0  0  0  0  0  0  0  0
  -24.6370  -31.9370   23.1910 C   0  0  0  0  0  0  0  0  0  0  0  0
  -27.1850  -27.4430   19.9800 C   0  0  0  0  0  0  0  0  0  0  0  0
  -23.3970  -30.5640   21.5550 C   0  0  0  0  0  3  0  0  0  0  0  0
  -24.8160  -29.0450   20.0640 C   0  0  0  0  0  0  0  0  0  0  0  0
  -25.9300  -30.8970   21.3110 C   0  0  0  0  0  2  0  0  0  0  0  0
  -25.9980  -29.5310   20.6350 C   0  0  0  0  0  0  0  0  0  0  0  0
  -27.1910  -28.7440   20.5750 C   0  0  0  0  0  3  0  0  0  0  0  0
  -25.9800  -27.0090   19.3900 C   0  0  0  0  0  3  0  0  0  0  0  0
  -24.8100  -27.7920   19.4300 C   0  0  0  0  0  3  0  0  0  0  0  0
  -23.5790  -29.9170   20.1590 C   0  0  0  0  0  2  0  0  0  0  0  0
  -24.6770  -31.1520   22.0750 N   0  0  0  0  0  0  0  0  0  0  0  0
  -23.5670  -32.1960   23.7600 O   0  0  0  0  0  0  0  0  0  0  0  0
  -22.7680  -29.5250   22.5160 C   0  0  0  0  0  0  0  0  0  0  0  0
  -21.4450  -29.3170   22.3990 N   0  0  0  0  0  0  0  0  0  0  0  0
  -23.4670  -28.9100   23.3240 O   0  0  0  0  0  0  0  0  0  0  0  0
  -20.9390  -29.8660   21.7190 H   0  0  0  0  0  0  0  0  0  0  0  0
  -18.1020  -28.0130   22.8940 C   0  0  0  0  0  0  0  0  0  0  0  0
  -20.6530  -28.3520   23.1650 C   0  0  0  0  0  3  0  0  0  0  0  0
  -20.7990  -26.9250   22.5910 C   0  0  0  0  0  2  0  0  0  0  0  0
  -19.7070  -26.5660   21.5760 C   0  0  0  0  0  2  0  0  0  0  0  0
  -18.3210  -26.6690   22.2180 C   0  0  0  0  0  2  0  0  0  0  0  0
  -19.1970  -28.8090   23.3250 C   0  0  0  0  0  0  0  0  0  0  0  0
  -18.9410  -30.0640   23.9180 C   0  0  0  0  0  3  0  0  0  0  0  0
  -17.6220  -30.5260   24.0820 C   0  0  0  0  0  3  0  0  0  0  0  0
  -16.5420  -29.7270   23.6680 C   0  0  0  0  0  3  0  0  0  0  0  0
  -16.7830  -28.4730   23.0800 C   0  0  0  0  0  3  0  0  0  0  0  0
  -25.9330  -32.5660   23.7910 C   0  0  0  0  0  3  0  0  0  0  0  0
  -25.6290  -33.9600   24.1490 N   0  0  0  0  0  0  0  0  0  0  0  0
  -25.9400  -35.0250   23.3990 C   0  0  0  0  0  0  0  0  0  0  0  0
  -26.5880  -34.9380   22.3510 O   0  0  0  0  0  0  0  0  0  0  0  0
  -25.0570  -34.1030   24.9700 H   0  0  0  0  0  0  0  0  0  0  0  0
  -24.2040  -36.8200   23.1100 C   0  0  0  0  0  1  0  0  0  0  0  0
  -25.4620  -36.4050   23.8890 C   0  0  0  0  0  3  0  0  0  0  0  0
  -27.6120  -37.2800   24.6930 C   0  0  0  0  0  1  0  0  0  0  0  0
  -26.4920  -37.4620   23.7730 N   0  0  0  0  0  0  0  0  0  0  0  0
  -26.0880  -38.3790   23.9430 H   0  0  0  0  0  0  0  0  0  0  0  0
  -26.4820  -31.7820   25.0450 C   0  0  1  0  0  0  0  0  0  0  0  0
  -25.4100  -31.5020   26.1250 C   0  0  0  0  0  1  0  0  0  0  0  0
  -27.0840  -30.4230   24.6160 C   0  0  0  0  0  1  0  0  0  0  0  0
  -27.6310  -32.5840   25.7020 C   0  0  0  0  0  1  0  0  0  0  0  0
  1  4  1  0
  2  1  2  0
  3  6  1  0
  4 48  1  0
  5  2  1  0
  5  3  2  0
  6  4  2  0
  6  8  1  0
  7  5  1  0
  9 17  1  0
 10 15  1  0
 11 12  1  0
 11 10  1  0
 13 12  1  0
 13 22  1  0
 13 14  1  0
 15  9  1  0
 15 14  1  0
 16  9  2  0
 17  3  1  0
 18 17  1  0
 19 20  2  0
 20 39  1  0
 21 20  1  0
 21 24  1  0
 22 23  1  0
 22 19  1  0
 23 21  2  0
 24 25  1  0
 25 26  2  0
 27 30  1  0
 27 26  1  0
 28 27  2  0
 29 28  1  0
 29 24  2  0
 30 31  1  0
 31 36  2  0
 31 32  1  0
 32 33  2  0
 33 34  1  0
 34 38  1  0
 35 34  2  0
 36 35  1  0
 37 36  1  0
 39 40  1  0
 40 43  1  0
 40 42  1  0
 41 39  2  0
 44 19  1  0
 44 45  1  0
 46 44  1  0
 48 47  1  0
 49 50  2  0
 49  2  1  0
 51 50  1  0
 51 52  1  0
 53 55  1  0
 53 52  1  0
 54 65  2  0
 55 60  1  0
 56 64  1  0
 56 66  1  0
 57 63  1  0
 57 59  1  0
 58 64  1  0
 59 58  1  0
 60 59  2  0
 61 62  1  0
 61 55  2  0
 62 57  2  0
 63 56  1  0
 64 54  1  0
 66 68  2  0
 67 66  1  0
 69 67  1  0
 70 79  2  0
 70 75  1  0
 71 67  1  0
 71 75  1  0
 72 71  1  0
 73 74  1  0
 73 72  1  0
 74 70  1  0
 75 76  2  0
 76 77  1  0
 78 77  2  0
 79 78  1  0
 80 54  1  0
 80 81  1  0
 80 90  1  0
 81 84  1  0
 82 86  1  0
 82 81  1  0
 83 82  2  0
 86 85  1  0
 88 86  1  0
 88 89  1  0
 88 87  1  0
 90 93  1  1
 90 91  1  0
 92 90  1  0
M  ISO  4   9 100  17 100  52 101  53 101
M  END
>  <TORSDO>  (58) 
F 21

>  <SCORE>  (58) 
-12.371

>  <name>  (58) 
57

>  <ligand_id>  (58) 
57

>  <original_smiles>  (58) 
[H]c1c([H])c([H])c2c(c1[H])C([H])([H])C([H])([H])C([H])([H])C2([H])N([H])C(=O)C1([H])N(C(=O)C([H])(N([H])C(=O)C([H])(N([H])C([H])([H])[H])C([H])([H])[H])C(C([H])([H])[H])(C([H])([H])[H])C([H])([H])[H])C([H])([H])c2c([H])c(OC([H])([H])C([H])([H])C([H])([H])C([H])([H])c3c([H])c(OC([H])([H])[H])c(Cl)c(N([H])C(=O)N4C([H])([H])C([H])([H])C([H])([H])C([H])(n5nc(-c6c([H])c([H])c(Oc7c([H])c([H])c(F)c([H])c7F)c([H])c6[H])c(C(=O)N([H])[H])c5N([H])[H])C4([H])[H])c3F)c([H])c([H])c2C1([H])[H]

>  <smiles>  (58) 
[H]c1c([H])c([H])c2c(c1[H])C([H])([H])C([H])([H])C([H])([H])C2([H])N([H])C(=O)C1([H])N(C(=O)C([H])(N([H])C(=O)C([H])(N([H])C([H])([H])[H])C([H])([H])[H])C(C([H])([H])[H])(C([H])([H])[H])C([H])([H])[H])C([H])([H])c2c([H])c(OC([H])([H])C([H])([H])C([H])([H])C([H])([H])c3c([H])c(OC([H])([H])[H])c(Cl)c(N([H])C(=O)N4C([H])([H])C([H])([H])C([H])([H])C([H])(n5nc(-c6c([H])c([H])c(Oc7c([H])c([H])c(F)c([H])c7F)c([H])c6[H])c(C(=O)N([H])[H])c5N([H])[H])C4([H])[H])c3F)c([H])c([H])c2C1([H])[H]

$$$$
58:0:0
     RDKit          3D

 93101  0  0  1  0  0  0  0  0999 V2000
  -30.8830  -18.0380   18.7630 C   0  0  0  0  0  3  0  0  0  0  0  0
  -31.0750  -19.3140   18.1750 C   0  0  0  0  0  0  0  0  0  0  0  0
  -29.2320  -19.0550   20.2320 C   0  0  0  0  0  0  0  0  0  0  0  0
  -29.9500  -17.7970   19.8010 C   0  0  0  0  0  0  0  0  0  0  0  0
  -29.4500  -20.4500   19.6890 C   0  0  0  0  0  0  0  0  0  0  0  0
  -30.3720  -20.4690   18.6080 C   0  0  0  0  0  0  0  0  0  0  0  0
  -32.0500  -19.4570   17.0150 C   0  0  0  0  0  1  0  0  0  0  0  0
  -28.1390  -18.8890   21.2760 C   0  0  0  0  0  1  0  0  0  0  0  0
  -30.5840  -21.6170   17.9140 F   0  0  0  0  0  0  0  0  0  0  0  0
  -30.4840  -15.0810   20.0490 C   0  0  0  0  0  0  0  0  0  0  0  0
  -30.3380  -12.7190   19.1230 C   0  0  0  0  0  2  0  0  0  0  0  0
  -29.3570  -12.6200   17.9330 C   0  0  0  0  0  2  0  0  0  0  0  0
  -27.9050  -12.4220   18.4090 C   0  0  0  0  0  2  0  0  0  0  0  0
  -27.5340  -13.3450   19.5960 C   0  0  0  0  0  3  0  0  0  0  0  0
  -28.6330  -13.3750   20.6840 C   0  0  0  0  0  2  0  0  0  0  0  0
  -29.8760  -13.8160   20.0300 N   0  0  0  0  0  0  0  0  0  0  0  0
  -31.6830  -15.0980   19.7470 O   0  0  0  0  0  0  0  0  0  0  0  0
  -29.7510  -16.3100   20.2380 N   0  0  0  0  0  0  0  0  0  0  0  0
  -28.8540  -16.1480   20.6740 H   0  0  0  0  0  0  0  0  0  0  0  0
  -25.1760  -13.9230   20.3940 C   0  0  0  0  0  0  0  0  0  0  0  0
  -24.1170  -13.1520   20.7850 C   0  0  0  0  0  0  0  0  0  0  0  0
  -24.5740  -11.8000   20.7530 C   0  0  0  0  0  0  0  0  0  0  0  0
  -26.2120  -13.0430   20.1360 N   0  0  0  0  0  0  0  0  0  0  0  0
  -25.8620  -11.7600   20.4170 N   0  0  0  0  0  0  0  0  0  0  0  0
  -23.8470  -10.5440   20.9630 C   0  0  0  0  0  0  0  0  0  0  0  0
  -24.2930   -9.5800   21.8930 C   0  0  0  0  0  3  0  0  0  0  0  0
  -23.5660   -8.3870   22.0910 C   0  0  0  0  0  3  0  0  0  0  0  0
  -22.3800   -8.1460   21.3580 C   0  0  0  0  0  0  0  0  0  0  0  0
  -21.9510   -9.0980   20.4140 C   0  0  0  0  0  3  0  0  0  0  0  0
  -22.6790  -10.2850   20.2180 C   0  0  0  0  0  3  0  0  0  0  0  0
  -21.6200   -7.0060   21.4690 O   0  0  0  0  0  0  0  0  0  0  0  0
  -21.5900   -6.2670   22.6270 C   0  0  0  0  0  0  0  0  0  0  0  0
  -21.1910   -6.8270   23.8600 C   0  0  0  0  0  3  0  0  0  0  0  0
  -21.1120   -6.0140   25.0090 C   0  0  0  0  0  3  0  0  0  0  0  0
  -21.4220   -4.6430   24.9270 C   0  0  0  0  0  0  0  0  0  0  0  0
  -21.8140   -4.0830   23.6980 C   0  0  0  0  0  3  0  0  0  0  0  0
  -21.8970   -4.8930   22.5520 C   0  0  0  0  0  0  0  0  0  0  0  0
  -22.2560   -4.3420   21.3670 F   0  0  0  0  0  0  0  0  0  0  0  0
  -21.3340   -3.8620   26.0300 F   0  0  0  0  0  0  0  0  0  0  0  0
  -22.7240  -13.6320   21.0720 C   0  0  0  0  0  0  0  0  0  0  0  0
  -22.0140  -12.9490   21.9610 N   0  0  0  0  0  0  0  0  0  0  0  0
  -22.2800  -14.6510   20.5450 O   0  0  0  0  0  0  0  0  0  0  0  0
  -22.3870  -12.1260   22.4120 H   0  0  0  0  0  0  0  0  0  0  0  0
  -21.0780  -13.2480   22.1930 H   0  0  0  0  0  0  0  0  0  0  0  0
  -25.3420  -15.2930   20.2050 N   0  0  0  0  0  0  0  0  0  0  0  0
  -24.5800  -15.9510   20.3310 H   0  0  0  0  0  0  0  0  0  0  0  0
  -26.1630  -15.7240   19.8010 H   0  0  0  0  0  0  0  0  0  0  0  0
  -28.8080  -21.7520   20.1130 N   0  0  0  0  0  0  0  0  0  0  0  0
  -28.2140  -21.6690   20.9310 H   0  0  0  0  0  0  0  0  0  0  0  0
  -30.5340  -23.6190   20.1370 C   0  0  0  0  0  1  0  0  0  0  0  0
  -29.0860  -23.2690   19.7190 C   0  0  0  0  0  3  0  0  0  0  0  0
  -28.0640  -24.5800   20.1690 C   0  0  0  0  0  2  0  0  0  0  0  0
  -28.2240  -26.1350   19.9350 O   0  0  0  0  0  0  0  0  0  0  0  0
  -24.4950  -31.7570   23.0910 C   0  0  0  0  0  0  0  0  0  0  0  0
  -27.1330  -27.0990   19.9570 C   0  0  0  0  0  0  0  0  0  0  0  0
  -23.3120  -30.3820   21.4190 C   0  0  0  0  0  3  0  0  0  0  0  0
  -24.7760  -28.8350   19.9720 C   0  0  0  0  0  0  0  0  0  0  0  0
  -25.8610  -30.6580   21.2680 C   0  0  0  0  0  2  0  0  0  0  0  0
  -25.9490  -29.2740   20.5960 C   0  0  0  0  0  0  0  0  0  0  0  0
  -27.1260  -28.4250   20.5690 C   0  0  0  0  0  3  0  0  0  0  0  0
  -25.9310  -26.7740   19.2930 C   0  0  0  0  0  3  0  0  0  0  0  0
  -24.7830  -27.6020   19.3010 C   0  0  0  0  0  3  0  0  0  0  0  0
  -23.5410  -29.7240   20.0320 C   0  0  0  0  0  2  0  0  0  0  0  0
  -24.5760  -30.9560   21.9830 N   0  0  0  0  0  0  0  0  0  0  0  0
  -23.4050  -32.0250   23.6210 O   0  0  0  0  0  0  0  0  0  0  0  0
  -22.6290  -29.3610   22.3640 C   0  0  0  0  0  0  0  0  0  0  0  0
  -21.3010  -29.1950   22.2340 N   0  0  0  0  0  0  0  0  0  0  0  0
  -23.2990  -28.7210   23.1770 O   0  0  0  0  0  0  0  0  0  0  0  0
  -20.8180  -29.7560   21.5460 H   0  0  0  0  0  0  0  0  0  0  0  0
  -17.9240  -27.9790   22.7240 C   0  0  0  0  0  0  0  0  0  0  0  0
  -20.4830  -28.2410   22.9870 C   0  0  0  0  0  3  0  0  0  0  0  0
  -20.5860  -26.8230   22.3790 C   0  0  0  0  0  2  0  0  0  0  0  0
  -19.4830  -26.5200   21.3610 C   0  0  0  0  0  2  0  0  0  0  0  0
  -18.1030  -26.6460   22.0130 C   0  0  0  0  0  2  0  0  0  0  0  0
  -19.0430  -28.7340   23.1660 C   0  0  0  0  0  0  0  0  0  0  0  0
  -18.8210  -29.9760   23.7960 C   0  0  0  0  0  3  0  0  0  0  0  0
  -17.5160  -30.4700   23.9800 C   0  0  0  0  0  3  0  0  0  0  0  0
  -16.4130  -29.7140   23.5500 C   0  0  0  0  0  3  0  0  0  0  0  0
  -16.6160  -28.4680   22.9330 C   0  0  0  0  0  3  0  0  0  0  0  0
  -25.7660  -32.3900   23.7370 C   0  0  0  0  0  3  0  0  0  0  0  0
  -26.2950  -31.5820   24.9860 C   0  0  1  0  0  0  0  0  0  0  0  0
  -25.2140  -31.2910   26.0540 C   0  0  0  0  0  1  0  0  0  0  0  0
  -26.8870  -30.2220   24.5490 C   0  0  0  0  0  1  0  0  0  0  0  0
  -27.4420  -32.3660   25.6690 C   0  0  0  0  0  1  0  0  0  0  0  0
  -25.4360  -33.7730   24.1210 N   0  0  0  0  0  0  0  0  0  0  0  0
  -25.7440  -34.8610   23.4020 C   0  0  0  0  0  0  0  0  0  0  0  0
  -26.4040  -34.8060   22.3610 O   0  0  0  0  0  0  0  0  0  0  0  0
  -24.8540  -33.8880   24.9370 H   0  0  0  0  0  0  0  0  0  0  0  0
  -23.9920  -36.6520   23.1340 C   0  0  0  0  0  1  0  0  0  0  0  0
  -25.2460  -36.2260   23.9160 C   0  0  0  0  0  3  0  0  0  0  0  0
  -27.3790  -37.1110   24.7580 C   0  0  0  0  0  1  0  0  0  0  0  0
  -26.2650  -37.2960   23.8330 N   0  0  0  0  0  0  0  0  0  0  0  0
  -25.8500  -38.2050   24.0190 H   0  0  0  0  0  0  0  0  0  0  0  0
  1  4  1  0
  2  6  1  0
  2  1  2  0
  3  8  1  0
  4  3  2  0
  4 18  1  0
  5 48  1  0
  5  3  1  0
  6  5  2  0
  7  2  1  0
  9  6  1  0
 10 18  1  0
 11 16  1  0
 12 13  1  0
 12 11  1  0
 14 13  1  0
 14 23  1  0
 14 15  1  0
 16 10  1  0
 16 15  1  0
 17 10  2  0
 18 19  1  0
 20 21  2  0
 21 40  1  0
 22 21  1  0
 22 25  1  0
 23 20  1  0
 23 24  1  0
 24 22  2  0
 25 26  1  0
 26 27  2  0
 28 31  1  0
 28 27  1  0
 29 28  2  0
 30 29  1  0
 30 25  2  0
 31 32  1  0
 32 33  1  0
 33 34  2  0
 35 34  1  0
 35 39  1  0
 36 35  2  0
 37 32  2  0
 37 36  1  0
 38 37  1  0
 40 41  1  0
 41 44  1  0
 41 43  1  0
 42 40  2  0
 45 46  1  0
 45 20  1  0
 47 45  1  0
 48 49  1  0
 51 48  1  0
 51 50  1  0
 51 52  1  0
 53 55  1  0
 53 52  1  0
 54 65  2  0
 55 60  1  0
 56 64  1  0
 56 66  1  0
 57 63  1  0
 57 59  1  0
 58 64  1  0
 59 58  1  0
 60 59  2  0
 61 62  1  0
 61 55  2  0
 62 57  2  0
 63 56  1  0
 64 54  1  0
 66 68  2  0
 67 66  1  0
 69 67  1  0
 70 79  2  0
 70 75  1  0
 71 67  1  0
 71 75  1  0
 72 71  1  0
 73 74  1  0
 73 72  1  0
 74 70  1  0
 75 76  2  0
 76 77  1  0
 78 77  2  0
 79 78  1  0
 80 54  1  0
 80 85  1  0
 80 81  1  0
 81 84  1  1
 81 82  1  0
 83 81  1  0
 85 88  1  0
 86 90  1  0
 86 85  1  0
 87 86  2  0
 90 89  1  0
 92 90  1  0
 92 93  1  0
 92 91  1  0
M  ISO  4  10 100  18 100  52 101  53 101
M  END
>  <TORSDO>  (59) 
F 19

>  <SCORE>  (59) 
-13.539

>  <name>  (59) 
58

>  <ligand_id>  (59) 
58

>  <original_smiles>  (59) 
[H]c1c([H])c([H])c2c(c1[H])C([H])([H])C([H])([H])C([H])([H])C2([H])N([H])C(=O)C1([H])N(C(=O)C([H])(N([H])C(=O)C([H])(N([H])C([H])([H])[H])C([H])([H])[H])C(C([H])([H])[H])(C([H])([H])[H])C([H])([H])[H])C([H])([H])c2c([H])c(OC([H])([H])C([H])(N([H])c3c(F)c(C([H])([H])[H])c([H])c(N([H])C(=O)N4C([H])([H])C([H])([H])C([H])([H])C([H])(n5nc(-c6c([H])c([H])c(Oc7c([H])c([H])c(F)c([H])c7F)c([H])c6[H])c(C(=O)N([H])[H])c5N([H])[H])C4([H])[H])c3C([H])([H])[H])C([H])([H])[H])c([H])c([H])c2C1([H])[H]

>  <smiles>  (59) 
[H]c1c([H])c([H])c2c(c1[H])C([H])([H])C([H])([H])C([H])([H])C2([H])N([H])C(=O)C1([H])N(C(=O)C([H])(N([H])C(=O)C([H])(N([H])C([H])([H])[H])C([H])([H])[H])C(C([H])([H])[H])(C([H])([H])[H])C([H])([H])[H])C([H])([H])c2c([H])c(OC([H])([H])C([H])(N([H])c3c(F)c(C([H])([H])[H])c([H])c(N([H])C(=O)N4C([H])([H])C([H])([H])C([H])([H])C([H])(n5nc(-c6c([H])c([H])c(Oc7c([H])c([H])c(F)c([H])c7F)c([H])c6[H])c(C(=O)N([H])[H])c5N([H])[H])C4([H])[H])c3C([H])([H])[H])C([H])([H])[H])c([H])c([H])c2C1([H])[H]

$$$$
59:0:0
     RDKit          3D

100 97  0  0  1  0  0  0  0  0999 V2000
  -22.3630  -30.1000   23.2790 C   0  0  0  0  0  1  0  0  0  0  0  0
  -25.8990  -29.3130   23.7880 C   0  0  0  0  0  3  0  0  0  0  0  0
  -24.5180  -28.6740   22.9190 C   0  0  0  0  0  2  0  0  0  0  0  0
  -22.4410  -31.3730   24.3350 C   0  0  0  0  0  3  0  0  0  0  0  0
  -25.8140  -30.7220   24.7520 C   0  0  0  0  0  3  0  0  0  0  0  0
  -23.8390  -31.7810   24.7440 C   0  0  0  0  0  2  0  0  0  0  0  0
  -24.9130  -27.3430   22.1830 C   0  0  0  0  0  1  0  0  0  0  0  0
  -23.2860  -33.4970   24.2240 Cl  0  0  0  0  0  0  0  0  0  0  0  0
  -27.3060  -31.1640   25.7280 N   0  0  0  0  0  2  0  0  0  0  0  0
  -27.0960  -32.1110   26.0330 H   0  0  0  0  0  0  0  0  0  0  0  0
  -28.9070  -30.6950   26.7630 C   0  0  0  0  0 15  0  0  0  0  0  0
  -30.4640  -31.0410   28.3140 C   0  0  0  0  0 15  0  0  0  0  0  0
  -32.5140  -31.7100   28.9220 C   0  0  0  0  0 15  0  0  0  0  0  0
  -34.6120  -32.3450   28.4630 C   0  0  0  0  0 15  0  0  0  0  0  0
  -38.0690  -31.6430   29.4110 C   0  0  0  0  0  0  0  0  0  0  0  0
  -40.8510  -31.9570   29.9200 C   0  0  0  0  0  2  0  0  0  0  0  0
  -41.4490  -33.4120   30.0940 C   0  0  0  0  0  2  0  0  0  0  0  0
  -41.4090  -34.1990   28.7770 C   0  0  0  0  0  2  0  0  0  0  0  0
  -40.1310  -33.7880   28.0320 C   0  0  0  0  0  3  0  0  0  0  0  0
  -40.0160  -32.2900   27.8100 C   0  0  0  0  0  2  0  0  0  0  0  0
  -39.5110  -31.8880   29.0790 N   0  0  0  0  0  0  0  0  0  0  0  0
  -38.2910  -31.0140   30.5090 O   0  0  0  0  0  0  0  0  0  0  0  0
  -36.6040  -32.1230   28.6440 N   0  0  0  0  0  2  0  0  0  0  0  0
  -36.9540  -32.5560   27.7940 H   0  0  0  0  0  0  0  0  0  0  0  0
  -40.8320  -34.6560   25.8140 C   0  0  0  0  0  0  0  0  0  0  0  0
  -40.1390  -35.2910   24.8320 C   0  0  0  0  0  0  0  0  0  0  0  0
  -38.8000  -35.4210   25.3150 C   0  0  0  0  0  0  0  0  0  0  0  0
  -39.8930  -34.4050   26.7880 N   0  0  0  0  0  0  0  0  0  0  0  0
  -38.6850  -34.9420   26.5390 N   0  0  0  0  0  0  0  0  0  0  0  0
  -37.5940  -35.9020   24.6540 C   0  0  0  0  0  0  0  0  0  0  0  0
  -36.6320  -36.6760   25.3380 C   0  0  0  0  0  3  0  0  0  0  0  0
  -35.4820  -37.1310   24.6610 C   0  0  0  0  0  3  0  0  0  0  0  0
  -35.2970  -36.8150   23.2950 C   0  0  0  0  0  0  0  0  0  0  0  0
  -36.2470  -36.0210   22.6300 C   0  0  0  0  0  3  0  0  0  0  0  0
  -37.3870  -35.5620   23.3050 C   0  0  0  0  0  3  0  0  0  0  0  0
  -34.2030  -37.1980   22.5600 O   0  0  0  0  0  0  0  0  0  0  0  0
  -33.3030  -38.1110   23.0410 C   0  0  0  0  0  0  0  0  0  0  0  0
  -33.6330  -39.4760   23.1890 C   0  0  0  0  0  3  0  0  0  0  0  0
  -32.6540  -40.3940   23.6190 C   0  0  0  0  0  3  0  0  0  0  0  0
  -31.3470  -39.9500   23.8930 C   0  0  0  0  0  0  0  0  0  0  0  0
  -31.0150  -38.5920   23.7440 C   0  0  0  0  0  3  0  0  0  0  0  0
  -31.9910  -37.6760   23.3170 C   0  0  0  0  0  0  0  0  0  0  0  0
  -31.6650  -36.3700   23.1540 F   0  0  0  0  0  0  0  0  0  0  0  0
  -30.4020  -40.8320   24.2990 F   0  0  0  0  0  0  0  0  0  0  0  0
  -40.6730  -35.6460   23.4820 C   0  0  0  0  0  0  0  0  0  0  0  0
  -40.0910  -36.6510   22.8390 N   0  0  0  0  0  0  0  0  0  0  0  0
  -41.6440  -35.0590   23.0100 O   0  0  0  0  0  0  0  0  0  0  0  0
  -39.3160  -37.1510   23.2430 H   0  0  0  0  0  0  0  0  0  0  0  0
  -40.4370  -36.9320   21.9340 H   0  0  0  0  0  0  0  0  0  0  0  0
  -42.1590  -34.2490   25.9510 N   0  0  0  0  0  0  0  0  0  0  0  0
  -42.7280  -34.2940   25.1120 H   0  0  0  0  0  0  0  0  0  0  0  0
  -42.3560  -33.4140   26.4890 H   0  0  0  0  0  0  0  0  0  0  0  0
  -21.5900  -32.0590   25.6330 C   0  0  0  0  0  2  0  0  0  0  0  0
  -22.5160  -32.2020   26.9870 N   0  0  0  0  0  4  0  0  0  0  0  0
  -21.7760  -32.0300   27.6590 H   0  0  0  0  0  0  0  0  0  0  0  0
  -22.6370  -33.2040   27.0360 H   0  0  0  0  0  0  0  0  0  0  0  0
  -23.8330  -30.1350   27.6780 C   0  0  0  0  0  1  0  0  0  0  0  0
  -23.7860  -31.6740   27.8240 C   0  0  0  0  0  3  0  0  0  0  0  0
  -24.1210  -31.9210   29.5840 C   0  0  0  0  0  2  0  0  0  0  0  0
  -25.4040  -32.2270   30.5300 O   0  0  0  0  0  0  0  0  0  0  0  0
  -29.5440  -34.6290   34.6890 C   0  0  0  0  0  0  0  0  0  0  0  0
  -25.8320  -31.2860   31.3920 C   0  0  0  0  0  3  0  0  0  0  0  0
  -29.6880  -34.1770   32.2960 C   0  0  0  0  0  3  0  0  0  0  0  0
  -28.4470  -32.0460   31.4670 C   0  0  0  0  0  3  0  0  0  0  0  0
  -28.4790  -32.5680   33.8410 C   0  0  0  0  0  2  0  0  0  0  0  0
  -27.7130  -32.1370   32.6270 C   0  0  0  0  0  0  0  0  0  0  0  0
  -26.3680  -31.7240   32.6250 C   0  0  0  0  0  3  0  0  0  0  0  0
  -26.6680  -30.6600   30.5050 C   0  0  0  0  0  3  0  0  0  0  0  0
  -28.0020  -31.0790   30.5340 C   0  0  0  0  0  3  0  0  0  0  0  0
  -29.7130  -32.8820   31.4000 C   0  0  0  0  0  2  0  0  0  0  0  0
  -29.2720  -33.7980   33.6590 N   0  0  0  0  0  0  0  0  0  0  0  0
  -30.1930  -35.6730   34.5320 O   0  0  0  0  0  0  0  0  0  0  0  0
  -28.7340  -35.3100   31.8520 C   0  0  0  0  0  0  0  0  0  0  0  0
  -28.3610  -36.1910   32.7190 N   0  0  0  0  0  0  0  0  0  0  0  0
  -28.3270  -35.4350   30.7060 O   0  0  0  0  0  0  0  0  0  0  0  0
  -28.4350  -35.9680   33.7020 H   0  0  0  0  0  0  0  0  0  0  0  0
  -24.3750  -37.7700   33.8730 C   0  0  0  0  0  2  0  0  0  0  0  0
  -27.7360  -37.4390   32.3390 C   0  0  0  0  0  2  0  0  0  0  0  0
  -28.1850  -39.1480   33.3810 C   0  0  0  0  0 15  0  0  0  0  0  0
  -26.6860  -40.1650   34.5930 C   0  0  0  0  0 15  0  0  0  0  0  0
  -24.7320  -39.3980   34.6550 C   0  0  0  0  0  1  0  0  0  0  0  0
  -26.1780  -36.7470   32.4020 C   0  0  0  0  0  3  0  0  0  0  0  0
  -25.6560  -35.1480   31.7860 C   0  0  0  0  0  3  0  0  0  0  0  0
  -24.1160  -34.4640   32.1970 C   0  0  0  0  0  2  0  0  0  0  0  0
  -22.9110  -35.1660   33.2010 C   0  0  0  0  0  3  0  0  0  0  0  0
  -22.9810  -36.6970   34.0000 C   0  0  0  0  0  3  0  0  0  0  0  0
  -29.0540  -34.2680   36.1130 C   0  0  0  0  0  3  0  0  0  0  0  0
  -29.4990  -32.8290   36.5780 C   0  0  1  0  0  0  0  0  0  0  0  0
  -29.3800  -31.7560   35.4730 C   0  0  0  0  0  1  0  0  0  0  0  0
  -30.9620  -32.8120   37.0810 C   0  0  0  0  0  1  0  0  0  0  0  0
  -28.6280  -32.3970   37.7790 C   0  0  0  0  0  1  0  0  0  0  0  0
  -27.5980  -34.4040   36.0970 N   0  0  0  0  0  0  0  0  0  0  0  0
  -26.7520  -33.3650   36.1030 C   0  0  0  0  0  0  0  0  0  0  0  0
  -27.1280  -32.1910   36.0310 O   0  0  0  0  0  0  0  0  0  0  0  0
  -27.2230  -35.3370   36.1970 H   0  0  0  0  0  0  0  0  0  0  0  0
  -24.5590  -32.6510   37.0950 C   0  0  0  0  0  1  0  0  0  0  0  0
  -25.2510  -33.6820   36.1910 C   0  0  0  0  0  3  0  0  0  0  0  0
  -24.6740  -35.0260   34.2190 C   0  0  0  0  0  1  0  0  0  0  0  0
  -24.5850  -33.7220   34.8720 N   0  0  0  0  0  0  0  0  0  0  0  0
  -23.6020  -33.4810   34.9590 H   0  0  0  0  0  0  0  0  0  0  0  0
  2  5  2  0
  3  2  1  0
  4  1  1  0
  4  6  1  0
  4 53  1  0
  5  9  1  0
  7  3  1  0
  8  6  1  0
  9 10  1  0
 15 22  2  0
 16 17  1  0
 18 17  1  0
 19 28  1  0
 19 18  1  0
 20 19  1  0
 20 21  1  0
 21 15  1  0
 21 16  1  0
 23 15  1  0
 24 23  1  0
 25 50  1  0
 25 28  1  0
 26 27  1  0
 26 25  2  0
 27 29  2  0
 29 28  1  0
 30 27  1  0
 30 31  1  0
 32 31  2  0
 33 32  1  0
 34 33  2  0
 34 35  1  0
 35 30  2  0
 36 37  1  0
 36 33  1  0
 37 38  2  0
 37 42  1  0
 38 39  1  0
 39 40  2  0
 40 44  1  0
 41 40  1  0
 42 41  2  0
 43 42  1  0
 45 26  1  0
 46 48  1  0
 46 45  1  0
 47 45  2  0
 49 46  1  0
 50 52  1  0
 51 50  1  0
 53 54  1  0
 54 56  1  0
 54 55  1  0
 54 58  1  0
 58 57  1  0
 58 59  1  0
 59 60  1  0
 62 60  1  0
 62 67  1  0
 63 73  1  0
 63 71  1  0
 64 69  1  0
 64 66  1  0
 66 65  1  0
 67 66  2  0
 68 69  2  0
 68 62  1  0
 70 64  1  0
 70 63  1  0
 71 65  1  0
 71 61  1  0
 72 61  2  0
 73 74  1  0
 74 76  1  0
 75 73  2  0
 77 86  1  0
 77 81  1  0
 78 82  1  0
 78 74  1  0
 83 84  1  0
 83 82  2  0
 84 85  1  0
 85 86  2  0
 87 61  1  0
 87 88  1  0
 88 90  1  1
 88 91  1  0
 89 88  1  0
 92 93  1  0
 92 87  1  0
 92 95  1  0
 93 97  1  0
 94 93  2  0
 97 96  1  0
 98 99  1  0
 99100  1  0
 99 97  1  0
M  ISO  4  15 100  23 100  59 101  60 101
M  END
>  <TORSDO>  (60) 
F 25

>  <SCORE>  (60) 
32.589

>  <name>  (60) 
59

>  <ligand_id>  (60) 
59

>  <original_smiles>  (60) 
[H]c1c([H])c([H])c2c(c1[H])C([H])([H])C([H])([H])C([H])([H])C2([H])N([H])C(=O)C1([H])N(C(=O)C([H])(N([H])C(=O)C([H])(N([H])C([H])([H])[H])C([H])([H])[H])C(C([H])([H])[H])(C([H])([H])[H])C([H])([H])[H])C([H])([H])c2c([H])c(OC([H])([H])C([H])(C([H])([H])[H])[N+]([H])([H])C([H])([H])c3c([H])c(C([H])([H])[H])c([H])c(N([H])C([H])([H])C([H])([H])C([H])([H])C([H])([H])N([H])C(=O)N4C([H])([H])C([H])([H])C([H])([H])C([H])(n5nc(-c6c([H])c([H])c(Oc7c([H])c([H])c(F)c([H])c7F)c([H])c6[H])c(C(=O)N([H])[H])c5N([H])[H])C4([H])[H])c3Cl)c([H])c([H])c2C1([H])[H]

>  <smiles>  (60) 
[H]c1c([H])c([H])c2c(c1[H])C([H])([H])C([H])([H])C([H])([H])C2([H])N([H])C(=O)C1([H])N(C(=O)C([H])(N([H])C(=O)C([H])(N([H])C([H])([H])[H])C([H])([H])[H])C(C([H])([H])[H])(C([H])([H])[H])C([H])([H])[H])C([H])([H])c2c([H])c(OC([H])([H])C([H])(C([H])([H])[H])[N+]([H])([H])C([H])([H])c3c([H])c(C([H])([H])[H])c([H])c(N([H])C([H])([H])C([H])([H])C([H])([H])C([H])([H])N([H])C(=O)N4C([H])([H])C([H])([H])C([H])([H])C([H])(n5nc(-c6c([H])c([H])c(Oc7c([H])c([H])c(F)c([H])c7F)c([H])c6[H])c(C(=O)N([H])[H])c5N([H])[H])C4([H])[H])c3Cl)c([H])c([H])c2C1([H])[H]

$$$$
60:0:0
     RDKit          3D

 94102  0  0  1  0  0  0  0  0999 V2000
  -28.9910  -21.3170   20.3620 C   0  0  0  0  0  3  0  0  0  0  0  0
  -29.4740  -18.9100   20.5990 C   0  0  0  0  0  0  0  0  0  0  0  0
  -30.1460  -18.8800   19.3460 C   0  0  0  0  0  0  0  0  0  0  0  0
  -29.6840  -21.4130   19.1390 C   0  0  0  0  0  0  0  0  0  0  0  0
  -28.8980  -20.1120   21.0760 C   0  0  0  0  0  0  0  0  0  0  0  0
  -30.2800  -20.1630   18.6550 C   0  0  0  0  0  0  0  0  0  0  0  0
  -29.3900  -17.6870   21.4990 C   0  0  0  0  0  1  0  0  0  0  0  0
  -28.2280  -20.1180   22.2520 F   0  0  0  0  0  0  0  0  0  0  0  0
  -31.2590  -20.1780   17.2250 Cl  0  0  0  0  0  0  0  0  0  0  0  0
  -29.4320  -23.9800   19.0690 C   0  0  0  0  0  0  0  0  0  0  0  0
  -29.6510  -22.6800   16.9710 C   0  0  0  0  0  1  0  0  0  0  0  0
  -29.6100  -22.7360   18.4400 N   0  0  0  0  0  0  0  0  0  0  0  0
  -29.9000  -24.1790   20.1970 O   0  0  0  0  0  0  0  0  0  0  0  0
  -28.5430  -25.1630   18.4450 C   0  0  0  0  0  2  0  0  0  0  0  0
  -28.6500  -26.5690   18.9770 O   0  0  0  0  0  0  0  0  0  0  0  0
  -24.6660  -31.1890   22.9080 C   0  0  0  0  0  0  0  0  0  0  0  0
  -27.4700  -27.3490   19.0840 C   0  0  0  0  0  0  0  0  0  0  0  0
  -23.4820  -29.8980   21.1670 C   0  0  0  0  0  3  0  0  0  0  0  0
  -24.9680  -28.7190   19.4490 C   0  0  0  0  0  0  0  0  0  0  0  0
  -25.9600  -30.4990   20.8770 C   0  0  0  0  0  2  0  0  0  0  0  0
  -26.1280  -29.2280   20.0450 C   0  0  0  0  0  0  0  0  0  0  0  0
  -27.3760  -28.5470   19.8710 C   0  0  0  0  0  3  0  0  0  0  0  0
  -26.2810  -26.9390   18.4340 C   0  0  0  0  0  3  0  0  0  0  0  0
  -25.0450  -27.5810   18.6370 C   0  0  0  0  0  3  0  0  0  0  0  0
  -23.6610  -29.4430   19.6930 C   0  0  0  0  0  2  0  0  0  0  0  0
  -24.7240  -30.5400   21.7080 N   0  0  0  0  0  0  0  0  0  0  0  0
  -23.6050  -31.2740   23.5450 O   0  0  0  0  0  0  0  0  0  0  0  0
  -23.0020  -28.6960   22.0160 C   0  0  0  0  0  0  0  0  0  0  0  0
  -21.7260  -28.3070   21.8520 N   0  0  0  0  0  0  0  0  0  0  0  0
  -23.7780  -28.1230   22.7870 O   0  0  0  0  0  0  0  0  0  0  0  0
  -21.1440  -28.8490   21.2270 H   0  0  0  0  0  0  0  0  0  0  0  0
  -18.6400  -26.4330   22.0990 C   0  0  0  0  0  0  0  0  0  0  0  0
  -21.0800  -27.1740   22.5170 C   0  0  0  0  0  3  0  0  0  0  0  0
  -21.4870  -25.8320   21.8670 C   0  0  0  0  0  2  0  0  0  0  0  0
  -20.5160  -25.3670   20.7770 C   0  0  0  0  0  2  0  0  0  0  0  0
  -19.1080  -25.1940   21.3530 C   0  0  0  0  0  2  0  0  0  0  0  0
  -19.5660  -27.3690   22.6330 C   0  0  0  0  0  0  0  0  0  0  0  0
  -19.0770  -28.5180   23.2890 C   0  0  0  0  0  3  0  0  0  0  0  0
  -17.6940  -28.7430   23.4140 C   0  0  0  0  0  3  0  0  0  0  0  0
  -16.7800  -27.8100   22.8940 C   0  0  0  0  0  3  0  0  0  0  0  0
  -17.2530  -26.6540   22.2450 C   0  0  0  0  0  3  0  0  0  0  0  0
  -25.9240  -31.8750   23.5240 C   0  0  0  0  0  3  0  0  0  0  0  0
  -26.5720  -31.0410   24.6980 C   0  0  1  0  0  0  0  0  0  0  0  0
  -25.5580  -30.5980   25.7790 C   0  0  0  0  0  1  0  0  0  0  0  0
  -27.2660  -29.7700   24.1520 C   0  0  0  0  0  1  0  0  0  0  0  0
  -27.6700  -31.8790   25.3940 C   0  0  0  0  0  1  0  0  0  0  0  0
  -25.5190  -33.2070   23.9980 N   0  0  0  0  0  0  0  0  0  0  0  0
  -25.7290  -34.3480   23.3310 C   0  0  0  0  0  0  0  0  0  0  0  0
  -26.3520  -34.3970   22.2680 O   0  0  0  0  0  0  0  0  0  0  0  0
  -24.9560  -33.2340   24.8350 H   0  0  0  0  0  0  0  0  0  0  0  0
  -23.8510  -36.0210   23.2130 C   0  0  0  0  0  1  0  0  0  0  0  0
  -25.1540  -35.6440   23.9370 C   0  0  0  0  0  3  0  0  0  0  0  0
  -27.2370  -36.6280   24.7860 C   0  0  0  0  0  1  0  0  0  0  0  0
  -26.0930  -36.7840   23.8920 N   0  0  0  0  0  0  0  0  0  0  0  0
  -25.6190  -37.6510   24.1320 H   0  0  0  0  0  0  0  0  0  0  0  0
  -30.7930  -17.5190   18.7850 C   0  0  0  0  0  2  0  0  0  0  0  0
  -31.1130  -14.9410   19.0760 C   0  0  0  0  0  0  0  0  0  0  0  0
  -30.8770  -12.5250   18.4710 C   0  0  0  0  0  2  0  0  0  0  0  0
  -29.8130  -12.3440   17.3660 C   0  0  0  0  0  2  0  0  0  0  0  0
  -28.4140  -12.1950   17.9900 C   0  0  0  0  0  2  0  0  0  0  0  0
  -28.1210  -13.2750   19.0640 C   0  0  0  0  0  3  0  0  0  0  0  0
  -29.2960  -13.4360   20.0570 C   0  0  0  0  0  2  0  0  0  0  0  0
  -30.5020  -13.7190   19.2680 N   0  0  0  0  0  0  0  0  0  0  0  0
  -32.2420  -14.9880   18.5840 O   0  0  0  0  0  0  0  0  0  0  0  0
  -30.3850  -16.1100   19.2270 N   0  0  0  0  0  0  0  0  0  0  0  0
  -29.4410  -16.0070   19.5610 H   0  0  0  0  0  0  0  0  0  0  0  0
  -25.8940  -13.9380   20.1580 C   0  0  0  0  0  0  0  0  0  0  0  0
  -24.8600  -13.1970   20.6580 C   0  0  0  0  0  0  0  0  0  0  0  0
  -25.2500  -11.8300   20.5200 C   0  0  0  0  0  0  0  0  0  0  0  0
  -26.8520  -13.0290   19.7430 N   0  0  0  0  0  0  0  0  0  0  0  0
  -26.4820  -11.7530   20.0260 N   0  0  0  0  0  0  0  0  0  0  0  0
  -24.5020  -10.5930   20.7810 C   0  0  0  0  0  0  0  0  0  0  0  0
  -24.8950   -9.6910   21.7960 C   0  0  0  0  0  3  0  0  0  0  0  0
  -24.1460   -8.5210   22.0430 C   0  0  0  0  0  3  0  0  0  0  0  0
  -22.9920   -8.2400   21.2730 C   0  0  0  0  0  0  0  0  0  0  0  0
  -22.6210   -9.1260   20.2470 C   0  0  0  0  0  3  0  0  0  0  0  0
  -23.3690  -10.2900   20.0000 C   0  0  0  0  0  3  0  0  0  0  0  0
  -22.2230   -7.1100   21.4190 O   0  0  0  0  0  0  0  0  0  0  0  0
  -21.9360   -6.5910   22.6560 C   0  0  0  0  0  0  0  0  0  0  0  0
  -21.2790   -7.3530   23.6460 C   0  0  0  0  0  3  0  0  0  0  0  0
  -20.9390   -6.7620   24.8800 C   0  0  0  0  0  3  0  0  0  0  0  0
  -21.2470   -5.4090   25.1200 C   0  0  0  0  0  0  0  0  0  0  0  0
  -21.8940   -4.6470   24.1320 C   0  0  0  0  0  3  0  0  0  0  0  0
  -22.2350   -5.2360   22.9040 C   0  0  0  0  0  0  0  0  0  0  0  0
  -22.8410   -4.4910   21.9470 F   0  0  0  0  0  0  0  0  0  0  0  0
  -20.9150   -4.8380   26.3030 F   0  0  0  0  0  0  0  0  0  0  0  0
  -23.5400  -13.7160   21.1500 C   0  0  0  0  0  0  0  0  0  0  0  0
  -22.9480  -13.0490   22.1340 N   0  0  0  0  0  0  0  0  0  0  0  0
  -23.0490  -14.7510   20.6960 O   0  0  0  0  0  0  0  0  0  0  0  0
  -23.3640  -12.2140   22.5210 H   0  0  0  0  0  0  0  0  0  0  0  0
  -22.0680  -13.3770   22.5090 H   0  0  0  0  0  0  0  0  0  0  0  0
  -26.0900  -15.3080   20.0010 N   0  0  0  0  0  0  0  0  0  0  0  0
  -25.3960  -15.9810   20.3010 H   0  0  0  0  0  0  0  0  0  0  0  0
  -26.8930  -15.7390   19.5630 H   0  0  0  0  0  0  0  0  0  0  0  0
  1  5  1  0
  2  5  2  0
  2  7  1  0
  3  2  1  0
  4  1  2  0
  5  8  1  0
  6  4  1  0
  6  3  2  0
  9  6  1  0
 10 13  2  0
 11 12  1  0
 12 10  1  0
 12  4  1  0
 14 15  1  0
 14 10  1  0
 15 17  1  0
 16 27  2  0
 17 22  1  0
 18 26  1  0
 18 28  1  0
 19 25  1  0
 19 21  1  0
 20 26  1  0
 21 20  1  0
 22 21  2  0
 23 24  1  0
 23 17  2  0
 24 19  2  0
 25 18  1  0
 26 16  1  0
 28 30  2  0
 29 28  1  0
 31 29  1  0
 32 41  2  0
 32 37  1  0
 33 29  1  0
 33 37  1  0
 34 33  1  0
 35 36  1  0
 35 34  1  0
 36 32  1  0
 37 38  2  0
 38 39  1  0
 40 39  2  0
 41 40  1  0
 42 16  1  0
 42 47  1  0
 42 43  1  0
 43 46  1  1
 43 44  1  0
 45 43  1  0
 47 50  1  0
 48 52  1  0
 48 47  1  0
 49 48  2  0
 52 51  1  0
 54 52  1  0
 54 55  1  0
 54 53  1  0
 56 65  1  0
 56  3  1  0
 57 65  1  0
 57 63  1  0
 58 63  1  0
 59 60  1  0
 59 58  1  0
 61 60  1  0
 61 70  1  0
 61 62  1  0
 63 62  1  0
 64 57  2  0
 65 66  1  0
 67 68  2  0
 68 87  1  0
 69 68  1  0
 69 72  1  0
 70 71  1  0
 70 67  1  0
 71 69  2  0
 72 73  1  0
 73 74  2  0
 75 78  1  0
 75 74  1  0
 76 75  2  0
 77 76  1  0
 77 72  2  0
 78 79  1  0
 79 84  2  0
 79 80  1  0
 80 81  2  0
 81 82  1  0
 82 86  1  0
 83 82  2  0
 84 83  1  0
 85 84  1  0
 87 88  1  0
 88 91  1  0
 88 90  1  0
 89 87  2  0
 92 67  1  0
 92 93  1  0
 94 92  1  0
M  ISO  4  14 101  15 101  57 100  65 100
M  END
>  <TORSDO>  (61) 
F 19

>  <SCORE>  (61) 
-9.045

>  <name>  (61) 
60

>  <ligand_id>  (61) 
60

>  <original_smiles>  (61) 
[H]c1c([H])c([H])c2c(c1[H])C([H])([H])C([H])([H])C([H])([H])C2([H])N([H])C(=O)C1([H])N(C(=O)C([H])(N([H])C(=O)C([H])(N([H])C([H])([H])[H])C([H])([H])[H])C(C([H])([H])[H])(C([H])([H])[H])C([H])([H])[H])C([H])([H])c2c([H])c(OC([H])([H])C(=O)N(c3c([H])c(F)c(C([H])([H])[H])c(C([H])([H])N([H])C(=O)N4C([H])([H])C([H])([H])C([H])([H])C([H])(n5nc(-c6c([H])c([H])c(Oc7c([H])c([H])c(F)c([H])c7F)c([H])c6[H])c(C(=O)N([H])[H])c5N([H])[H])C4([H])[H])c3Cl)C([H])([H])[H])c([H])c([H])c2C1([H])[H]

>  <smiles>  (61) 
[H]c1c([H])c([H])c2c(c1[H])C([H])([H])C([H])([H])C([H])([H])C2([H])N([H])C(=O)C1([H])N(C(=O)C([H])(N([H])C(=O)C([H])(N([H])C([H])([H])[H])C([H])([H])[H])C(C([H])([H])[H])(C([H])([H])[H])C([H])([H])[H])C([H])([H])c2c([H])c(OC([H])([H])C(=O)N(c3c([H])c(F)c(C([H])([H])[H])c(C([H])([H])N([H])C(=O)N4C([H])([H])C([H])([H])C([H])([H])C([H])(n5nc(-c6c([H])c([H])c(Oc7c([H])c([H])c(F)c([H])c7F)c([H])c6[H])c(C(=O)N([H])[H])c5N([H])[H])C4([H])[H])c3Cl)C([H])([H])[H])c([H])c([H])c2C1([H])[H]

$$$$
61:0:0
     RDKit          3D

 96104  0  0  1  0  0  0  0  0999 V2000
  -29.0630  -21.2640   20.2700 N   0  0  0  0  0  0  0  0  0  0  0  0
  -31.3440  -20.4190   20.3590 C   0  0  0  0  0  3  0  0  0  0  0  0
  -32.2960  -19.3890   20.5130 C   0  0  0  0  0  0  0  0  0  0  0  0
  -29.9760  -20.1350   20.1900 C   0  0  0  0  0  0  0  0  0  0  0  0
  -30.5860  -17.6290   20.2150 C   0  0  0  0  0  0  0  0  0  0  0  0
  -31.9220  -18.0270   20.4840 C   0  0  0  0  0  0  0  0  0  0  0  0
  -29.6240  -18.7160   20.0740 C   0  0  0  0  0  0  0  0  0  0  0  0
  -33.7460  -19.7520   20.7740 C   0  0  0  0  0  1  0  0  0  0  0  0
  -32.8750  -17.1110   20.7780 F   0  0  0  0  0  0  0  0  0  0  0  0
  -27.9880  -18.2730   19.7170 Cl  0  0  0  0  0  0  0  0  0  0  0  0
  -30.9520  -15.0420   19.9040 C   0  0  0  0  0  0  0  0  0  0  0  0
  -30.6830  -12.7410   18.9630 C   0  0  0  0  0  2  0  0  0  0  0  0
  -29.7010  -12.7830   17.7730 C   0  0  0  0  0  2  0  0  0  0  0  0
  -28.2500  -12.6290   18.2660 C   0  0  0  0  0  2  0  0  0  0  0  0
  -27.9260  -13.5560   19.4680 C   0  0  0  0  0  3  0  0  0  0  0  0
  -29.0280  -13.5030   20.5510 C   0  0  0  0  0  2  0  0  0  0  0  0
  -30.3020  -13.8270   19.8970 N   0  0  0  0  0  0  0  0  0  0  0  0
  -32.1020  -15.1040   19.4670 O   0  0  0  0  0  0  0  0  0  0  0  0
  -30.2120  -16.1840   20.1750 N   0  0  0  0  0  0  0  0  0  0  0  0
  -29.2320  -16.0090   20.3310 H   0  0  0  0  0  0  0  0  0  0  0  0
  -25.5890  -14.1790   20.3230 C   0  0  0  0  0  0  0  0  0  0  0  0
  -24.5280  -13.4190   20.7300 C   0  0  0  0  0  0  0  0  0  0  0  0
  -24.9610  -12.0600   20.6530 C   0  0  0  0  0  0  0  0  0  0  0  0
  -26.6030  -13.2850   20.0190 N   0  0  0  0  0  0  0  0  0  0  0  0
  -26.2350  -12.0040   20.2810 N   0  0  0  0  0  0  0  0  0  0  0  0
  -24.2190  -10.8090   20.8560 C   0  0  0  0  0  0  0  0  0  0  0  0
  -24.6180   -9.8610   21.8240 C   0  0  0  0  0  3  0  0  0  0  0  0
  -23.8760   -8.6750   22.0140 C   0  0  0  0  0  3  0  0  0  0  0  0
  -22.7200   -8.4280   21.2350 C   0  0  0  0  0  0  0  0  0  0  0  0
  -22.3410   -9.3640   20.2560 C   0  0  0  0  0  3  0  0  0  0  0  0
  -23.0830  -10.5420   20.0650 C   0  0  0  0  0  3  0  0  0  0  0  0
  -21.9520   -7.2920   21.3320 O   0  0  0  0  0  0  0  0  0  0  0  0
  -21.8070   -6.6210   22.5180 C   0  0  0  0  0  0  0  0  0  0  0  0
  -21.2680   -7.2430   23.6660 C   0  0  0  0  0  3  0  0  0  0  0  0
  -21.0720   -6.4960   24.8450 C   0  0  0  0  0  3  0  0  0  0  0  0
  -21.4050   -5.1300   24.8770 C   0  0  0  0  0  0  0  0  0  0  0  0
  -21.9380   -4.5070   23.7350 C   0  0  0  0  0  3  0  0  0  0  0  0
  -22.1350   -5.2510   22.5570 C   0  0  0  0  0  0  0  0  0  0  0  0
  -22.6280   -4.6410   21.4530 F   0  0  0  0  0  0  0  0  0  0  0  0
  -21.2100   -4.4100   26.0070 F   0  0  0  0  0  0  0  0  0  0  0  0
  -23.1540  -13.9180   21.0770 C   0  0  0  0  0  0  0  0  0  0  0  0
  -22.4560  -13.2230   21.9680 N   0  0  0  0  0  0  0  0  0  0  0  0
  -22.7120  -14.9600   20.5930 O   0  0  0  0  0  0  0  0  0  0  0  0
  -22.8270  -12.3800   22.3810 H   0  0  0  0  0  0  0  0  0  0  0  0
  -21.5360  -13.5400   22.2420 H   0  0  0  0  0  0  0  0  0  0  0  0
  -25.7690  -15.5500   20.1620 N   0  0  0  0  0  0  0  0  0  0  0  0
  -25.0160  -16.2070   20.3270 H   0  0  0  0  0  0  0  0  0  0  0  0
  -26.5980  -15.9910   19.7880 H   0  0  0  0  0  0  0  0  0  0  0  0
  -28.3220  -21.3660   21.5300 C   0  0  1  0  0  0  0  0  0  0  0  0
  -27.3330  -22.2500   21.4060 F   0  0  0  0  0  0  0  0  0  0  0  0
  -27.7930  -20.2040   21.8980 F   0  0  0  0  0  0  0  0  0  0  0  0
  -29.1510  -21.7720   22.4920 F   0  0  0  0  0  0  0  0  0  0  0  0
  -29.0530  -22.4900   19.3690 C   0  0  0  0  0  2  0  0  0  0  0  0
  -29.2140  -24.0020   19.9540 C   0  0  0  0  0  3  0  0  0  0  0  0
  -28.3090  -25.1850   19.3210 C   0  0  0  0  0  3  0  0  0  0  0  0
  -28.4440  -26.6460   19.6780 O   0  0  0  0  0  0  0  0  0  0  0  0
  -24.6140  -31.7980   23.0610 C   0  0  0  0  0  0  0  0  0  0  0  0
  -27.3110  -27.4970   19.6700 C   0  0  0  0  0  0  0  0  0  0  0  0
  -23.4210  -30.4440   21.3790 C   0  0  0  0  0  3  0  0  0  0  0  0
  -24.8890  -29.0460   19.8170 C   0  0  0  0  0  0  0  0  0  0  0  0
  -25.9420  -30.8700   21.1460 C   0  0  0  0  0  2  0  0  0  0  0  0
  -26.0580  -29.5320   20.4170 C   0  0  0  0  0  0  0  0  0  0  0  0
  -27.2680  -28.7690   20.3380 C   0  0  0  0  0  3  0  0  0  0  0  0
  -26.1180  -27.0990   19.0190 C   0  0  0  0  0  3  0  0  0  0  0  0
  -24.9250  -27.8370   19.1090 C   0  0  0  0  0  3  0  0  0  0  0  0
  -23.6210  -29.8630   19.9550 C   0  0  0  0  0  2  0  0  0  0  0  0
  -24.6800  -31.0530   21.9180 N   0  0  0  0  0  0  0  0  0  0  0  0
  -23.5360  -31.9970   23.6400 O   0  0  0  0  0  0  0  0  0  0  0  0
  -22.8300  -29.3450   22.2950 C   0  0  0  0  0  0  0  0  0  0  0  0
  -21.5130  -29.1060   22.1850 N   0  0  0  0  0  0  0  0  0  0  0  0
  -23.5570  -28.7160   23.0680 O   0  0  0  0  0  0  0  0  0  0  0  0
  -20.9810  -29.6720   21.5380 H   0  0  0  0  0  0  0  0  0  0  0  0
  -18.2150  -27.6960   22.6750 C   0  0  0  0  0  0  0  0  0  0  0  0
  -20.7590  -28.0880   22.9210 C   0  0  0  0  0  3  0  0  0  0  0  0
  -20.9310  -26.6920   22.2790 C   0  0  0  0  0  2  0  0  0  0  0  0
  -19.8330  -26.3550   21.2660 C   0  0  0  0  0  2  0  0  0  0  0  0
  -18.4560  -26.3930   21.9340 C   0  0  0  0  0  2  0  0  0  0  0  0
  -19.2960  -28.5010   23.1250 C   0  0  0  0  0  0  0  0  0  0  0  0
  -19.0170  -29.7200   23.7800 C   0  0  0  0  0  3  0  0  0  0  0  0
  -17.6890  -30.1380   23.9870 C   0  0  0  0  0  3  0  0  0  0  0  0
  -16.6220  -29.3320   23.5530 C   0  0  0  0  0  3  0  0  0  0  0  0
  -16.8870  -28.1120   22.9020 C   0  0  0  0  0  3  0  0  0  0  0  0
  -25.8860  -32.4520   23.6820 C   0  0  0  0  0  3  0  0  0  0  0  0
  -25.5330  -33.8230   24.0780 N   0  0  0  0  0  0  0  0  0  0  0  0
  -25.8210  -34.9200   23.3660 C   0  0  0  0  0  0  0  0  0  0  0  0
  -26.4820  -34.8870   22.3240 O   0  0  0  0  0  0  0  0  0  0  0  0
  -24.9420  -33.9200   24.8910 H   0  0  0  0  0  0  0  0  0  0  0  0
  -24.0380  -36.6760   23.1060 C   0  0  0  0  0  1  0  0  0  0  0  0
  -25.2950  -36.2700   23.8930 C   0  0  0  0  0  3  0  0  0  0  0  0
  -27.4010  -37.1820   24.7650 C   0  0  0  0  0  1  0  0  0  0  0  0
  -26.2950  -37.3580   23.8280 N   0  0  0  0  0  0  0  0  0  0  0  0
  -25.8610  -38.2580   24.0150 H   0  0  0  0  0  0  0  0  0  0  0  0
  -26.4570  -31.6490   24.9150 C   0  0  1  0  0  0  0  0  0  0  0  0
  -25.3970  -31.3290   25.9950 C   0  0  0  0  0  1  0  0  0  0  0  0
  -27.0800  -30.3100   24.4570 C   0  0  0  0  0  1  0  0  0  0  0  0
  -27.5920  -32.4580   25.5850 C   0  0  0  0  0  1  0  0  0  0  0  0
  1 49  1  0
  2  3  1  0
  3  8  1  0
  4  1  1  0
  4  2  2  0
  5  6  1  0
  6  3  2  0
  6  9  1  0
  7  4  1  0
  7  5  2  0
 10  7  1  0
 11 19  1  0
 12 17  1  0
 13 14  1  0
 13 12  1  0
 15 14  1  0
 15 24  1  0
 15 16  1  0
 17 11  1  0
 17 16  1  0
 18 11  2  0
 19  5  1  0
 19 20  1  0
 21 22  2  0
 22 41  1  0
 23 22  1  0
 23 26  1  0
 24 25  1  0
 24 21  1  0
 25 23  2  0
 26 27  1  0
 27 28  2  0
 29 32  1  0
 29 28  1  0
 30 29  2  0
 31 30  1  0
 31 26  2  0
 32 33  1  0
 33 38  2  0
 33 34  1  0
 34 35  2  0
 35 36  1  0
 36 40  1  0
 37 36  2  0
 38 37  1  0
 39 38  1  0
 41 42  1  0
 42 45  1  0
 42 44  1  0
 43 41  2  0
 46 21  1  0
 46 47  1  0
 48 46  1  0
 49 51  1  1
 49 52  1  0
 50 49  1  0
 53 54  1  0
 53  1  1  0
 55 56  1  0
 55 54  2  0
 57 68  2  0
 58 56  1  0
 58 63  1  0
 59 67  1  0
 59 69  1  0
 60 66  1  0
 60 62  1  0
 61 67  1  0
 62 61  1  0
 63 62  2  0
 64 65  1  0
 64 58  2  0
 65 60  2  0
 66 59  1  0
 67 57  1  0
 69 71  2  0
 70 69  1  0
 72 70  1  0
 73 82  2  0
 73 78  1  0
 74 70  1  0
 74 78  1  0
 75 74  1  0
 76 77  1  0
 76 75  1  0
 77 73  1  0
 78 79  2  0
 79 80  1  0
 81 80  2  0
 82 81  1  0
 83 57  1  0
 83 84  1  0
 83 93  1  0
 84 87  1  0
 85 89  1  0
 85 84  1  0
 86 85  2  0
 89 88  1  0
 91 89  1  0
 91 92  1  0
 91 90  1  0
 93 96  1  1
 93 94  1  0
 95 93  1  0
M  ISO  4  11 100  19 100  55 101  56 101
M  END
>  <TORSDO>  (62) 
F 21

>  <SCORE>  (62) 
-12.232

>  <name>  (62) 
61

>  <ligand_id>  (62) 
61

>  <original_smiles>  (62) 
[H]c1c([H])c([H])c2c(c1[H])C([H])([H])C([H])([H])C([H])([H])C2([H])N([H])C(=O)C1([H])N(C(=O)C([H])(N([H])C(=O)C([H])(N([H])C([H])([H])[H])C([H])([H])[H])C(C([H])([H])[H])(C([H])([H])[H])C([H])([H])[H])C([H])([H])c2c([H])c(OC([H])([H])C([H])([H])C([H])([H])N(c3c([H])c(C([H])([H])[H])c(F)c(N([H])C(=O)N4C([H])([H])C([H])([H])C([H])([H])C([H])(n5nc(-c6c([H])c([H])c(Oc7c([H])c([H])c(F)c([H])c7F)c([H])c6[H])c(C(=O)N([H])[H])c5N([H])[H])C4([H])[H])c3Cl)C(F)(F)F)c([H])c([H])c2C1([H])[H]

>  <smiles>  (62) 
[H]c1c([H])c([H])c2c(c1[H])C([H])([H])C([H])([H])C([H])([H])C2([H])N([H])C(=O)C1([H])N(C(=O)C([H])(N([H])C(=O)C([H])(N([H])C([H])([H])[H])C([H])([H])[H])C(C([H])([H])[H])(C([H])([H])[H])C([H])([H])[H])C([H])([H])c2c([H])c(OC([H])([H])C([H])([H])C([H])([H])N(c3c([H])c(C([H])([H])[H])c(F)c(N([H])C(=O)N4C([H])([H])C([H])([H])C([H])([H])C([H])(n5nc(-c6c([H])c([H])c(Oc7c([H])c([H])c(F)c([H])c7F)c([H])c6[H])c(C(=O)N([H])[H])c5N([H])[H])C4([H])[H])c3Cl)C(F)(F)F)c([H])c([H])c2C1([H])[H]

$$$$
62:0:0
     RDKit          3D

100108  0  0  1  0  0  0  0  0999 V2000
  -27.2920  -20.8310   19.4380 C   0  0  0  0  0  0  0  0  0  0  0  0
  -28.5340  -20.9200   19.9740 N   0  0  0  0  0  0  0  0  0  0  0  0
  -26.3420  -21.4970   19.8660 O   0  0  0  0  0  0  0  0  0  0  0  0
  -30.7420  -20.0190   19.3540 C   0  0  0  0  0  3  0  0  0  0  0  0
  -29.4640  -19.7610   19.8800 C   0  0  0  0  0  0  0  0  0  0  0  0
  -29.1810  -18.3540   20.1800 C   0  0  0  0  0  0  0  0  0  0  0  0
  -31.6240  -18.9540   19.1030 C   0  0  0  0  0  0  0  0  0  0  0  0
  -30.1440  -17.2990   19.8970 C   0  0  0  0  0  0  0  0  0  0  0  0
  -32.9670  -19.2100   18.4530 C   0  0  0  0  0  1  0  0  0  0  0  0
  -31.3340  -17.6610   19.3600 N   0  0  0  0  0  0  0  0  0  0  0  0
  -27.6830  -17.9040   20.9200 Cl  0  0  0  0  0  0  0  0  0  0  0  0
  -30.6060  -14.7240   19.9220 C   0  0  0  0  0  0  0  0  0  0  0  0
  -30.3280  -12.4430   18.9510 C   0  0  0  0  0  2  0  0  0  0  0  0
  -29.3340  -12.5330   17.7720 C   0  0  0  0  0  2  0  0  0  0  0  0
  -27.8850  -12.3790   18.2730 C   0  0  0  0  0  2  0  0  0  0  0  0
  -27.5820  -13.2690   19.5080 C   0  0  0  0  0  3  0  0  0  0  0  0
  -28.6960  -13.1770   20.5750 C   0  0  0  0  0  2  0  0  0  0  0  0
  -29.9640  -13.5070   19.9150 N   0  0  0  0  0  0  0  0  0  0  0  0
  -31.7840  -14.7710   19.5530 O   0  0  0  0  0  0  0  0  0  0  0  0
  -29.8500  -15.8660   20.1530 N   0  0  0  0  0  0  0  0  0  0  0  0
  -28.9080  -15.6910   20.4600 H   0  0  0  0  0  0  0  0  0  0  0  0
  -25.2470  -13.8720   20.3760 C   0  0  0  0  0  0  0  0  0  0  0  0
  -24.1940  -13.1030   20.7900 C   0  0  0  0  0  0  0  0  0  0  0  0
  -24.6400  -11.7470   20.7120 C   0  0  0  0  0  0  0  0  0  0  0  0
  -26.2660  -12.9860   20.0690 N   0  0  0  0  0  0  0  0  0  0  0  0
  -25.9110  -11.7010   20.3320 N   0  0  0  0  0  0  0  0  0  0  0  0
  -23.9100  -10.4900   20.9170 C   0  0  0  0  0  0  0  0  0  0  0  0
  -24.3460   -9.5250   21.8510 C   0  0  0  0  0  3  0  0  0  0  0  0
  -23.6150   -8.3340   22.0450 C   0  0  0  0  0  3  0  0  0  0  0  0
  -22.4320   -8.0990   21.3040 C   0  0  0  0  0  0  0  0  0  0  0  0
  -22.0140   -9.0520   20.3590 C   0  0  0  0  0  3  0  0  0  0  0  0
  -22.7460  -10.2340   20.1640 C   0  0  0  0  0  3  0  0  0  0  0  0
  -21.6710   -6.9590   21.4080 O   0  0  0  0  0  0  0  0  0  0  0  0
  -21.5920   -6.2500   22.5790 C   0  0  0  0  0  0  0  0  0  0  0  0
  -21.1450   -6.8420   23.7800 C   0  0  0  0  0  3  0  0  0  0  0  0
  -21.0130   -6.0590   24.9450 C   0  0  0  0  0  3  0  0  0  0  0  0
  -21.3200   -4.6860   24.9090 C   0  0  0  0  0  0  0  0  0  0  0  0
  -21.7620   -4.0940   23.7140 C   0  0  0  0  0  3  0  0  0  0  0  0
  -21.8950   -4.8730   22.5510 C   0  0  0  0  0  0  0  0  0  0  0  0
  -22.3010   -4.2930   21.3960 F   0  0  0  0  0  0  0  0  0  0  0  0
  -21.1860   -3.9320   26.0260 F   0  0  0  0  0  0  0  0  0  0  0  0
  -22.8190  -13.5890   21.1450 C   0  0  0  0  0  0  0  0  0  0  0  0
  -22.1360  -12.8940   22.0450 N   0  0  0  0  0  0  0  0  0  0  0  0
  -22.3650  -14.6250   20.6590 O   0  0  0  0  0  0  0  0  0  0  0  0
  -22.5180  -12.0540   22.4560 H   0  0  0  0  0  0  0  0  0  0  0  0
  -21.2180  -13.2060   22.3280 H   0  0  0  0  0  0  0  0  0  0  0  0
  -25.4130  -15.2430   20.2080 N   0  0  0  0  0  0  0  0  0  0  0  0
  -24.6580  -15.8980   20.3760 H   0  0  0  0  0  0  0  0  0  0  0  0
  -26.2470  -15.6910   19.8550 H   0  0  0  0  0  0  0  0  0  0  0  0
  -27.0520  -19.9180   18.2180 C   0  0  0  0  0  2  0  0  0  0  0  0
  -25.6510  -20.0960   17.5810 C   0  0  0  0  0  2  0  0  0  0  0  0
  -25.2610  -21.5720   17.3400 C   0  0  0  0  0  2  0  0  0  0  0  0
  -23.8680  -21.7340   16.8930 N   0  0  0  0  0  4  0  0  0  0  0  0
  -23.7440  -21.3660   15.9670 H   0  0  0  0  0  0  0  0  0  0  0  0
  -23.6360  -22.7120   16.8720 H   0  0  0  0  0  0  0  0  0  0  0  0
  -23.2240  -21.2780   17.5170 H   0  0  0  0  0  0  0  0  0  0  0  0
  -28.8890  -22.2710   20.6210 C   0  0  0  0  0  2  0  0  0  0  0  0
  -28.6370  -23.6920   19.8480 C   0  0  0  0  0  3  0  0  0  0  0  0
  -28.3450  -25.0430   20.6890 C   0  0  0  0  0  3  0  0  0  0  0  0
  -28.4950  -26.4250   20.1180 O   0  0  0  0  0  0  0  0  0  0  0  0
  -24.6150  -31.7670   23.1380 C   0  0  0  0  0  0  0  0  0  0  0  0
  -27.3770  -27.2780   20.0920 C   0  0  0  0  0  0  0  0  0  0  0  0
  -23.4740  -30.3520   21.4660 C   0  0  0  0  0  3  0  0  0  0  0  0
  -24.9850  -28.8540   20.0430 C   0  0  0  0  0  0  0  0  0  0  0  0
  -26.0080  -30.7360   21.3240 C   0  0  0  0  0  2  0  0  0  0  0  0
  -26.1340  -29.3630   20.6640 C   0  0  0  0  0  0  0  0  0  0  0  0
  -27.3380  -28.5900   20.6720 C   0  0  0  0  0  3  0  0  0  0  0  0
  -26.2090  -26.8280   19.4440 C   0  0  0  0  0  3  0  0  0  0  0  0
  -25.0270  -27.5940   19.4220 C   0  0  0  0  0  3  0  0  0  0  0  0
  -23.7270  -29.7000   20.0810 C   0  0  0  0  0  2  0  0  0  0  0  0
  -24.7160  -30.9720   22.0330 N   0  0  0  0  0  0  0  0  0  0  0  0
  -23.5180  -32.0100   23.6610 O   0  0  0  0  0  0  0  0  0  0  0  0
  -22.8270  -29.3090   22.4070 C   0  0  0  0  0  0  0  0  0  0  0  0
  -21.5070  -29.1030   22.2690 N   0  0  0  0  0  0  0  0  0  0  0  0
  -23.5120  -28.6890   23.2260 O   0  0  0  0  0  0  0  0  0  0  0  0
  -21.0100  -29.6580   21.5850 H   0  0  0  0  0  0  0  0  0  0  0  0
  -18.1540  -27.8120   22.7190 C   0  0  0  0  0  0  0  0  0  0  0  0
  -20.7020  -28.1340   23.0170 C   0  0  0  0  0  3  0  0  0  0  0  0
  -20.8460  -26.7110   22.4280 C   0  0  0  0  0  2  0  0  0  0  0  0
  -19.7630  -26.3740   21.3980 C   0  0  0  0  0  2  0  0  0  0  0  0
  -18.3710  -26.4760   22.0280 C   0  0  0  0  0  2  0  0  0  0  0  0
  -19.2480  -28.5970   23.1690 C   0  0  0  0  0  0  0  0  0  0  0  0
  -18.9930  -29.8460   23.7740 C   0  0  0  0  0  3  0  0  0  0  0  0
  -17.6750  -30.3130   23.9340 C   0  0  0  0  0  3  0  0  0  0  0  0
  -16.5940  -29.5260   23.4990 C   0  0  0  0  0  3  0  0  0  0  0  0
  -16.8340  -28.2770   22.8980 C   0  0  0  0  0  3  0  0  0  0  0  0
  -25.8730  -32.4290   23.7850 C   0  0  0  0  0  3  0  0  0  0  0  0
  -26.4060  -31.6480   25.0470 C   0  0  1  0  0  0  0  0  0  0  0  0
  -25.3130  -31.3560   26.1020 C   0  0  0  0  0  1  0  0  0  0  0  0
  -27.0320  -30.2950   24.6340 C   0  0  0  0  0  1  0  0  0  0  0  0
  -27.5280  -32.4630   25.7320 C   0  0  0  0  0  1  0  0  0  0  0  0
  -25.5150  -33.8080   24.1450 N   0  0  0  0  0  0  0  0  0  0  0  0
  -25.8070  -34.8890   23.4090 C   0  0  0  0  0  0  0  0  0  0  0  0
  -26.4770  -34.8320   22.3730 O   0  0  0  0  0  0  0  0  0  0  0  0
  -24.9180  -33.9230   24.9510 H   0  0  0  0  0  0  0  0  0  0  0  0
  -24.0100  -36.6240   23.1040 C   0  0  0  0  0  1  0  0  0  0  0  0
  -25.2720  -36.2490   23.8980 C   0  0  0  0  0  3  0  0  0  0  0  0
  -27.3770  -37.1980   24.7320 C   0  0  0  0  0  1  0  0  0  0  0  0
  -26.2630  -37.3420   23.7980 N   0  0  0  0  0  0  0  0  0  0  0  0
  -25.8240  -38.2440   23.9660 H   0  0  0  0  0  0  0  0  0  0  0  0
  1  3  2  0
  1  2  1  0
  2 57  1  0
  4  5  1  0
  5  2  1  0
  5  6  2  0
  6 11  1  0
  7  4  2  0
  7 10  1  0
  8 20  1  0
  8  6  1  0
  9  7  1  0
 10  8  2  0
 12 20  1  0
 13 18  1  0
 14 15  1  0
 14 13  1  0
 16 15  1  0
 16 25  1  0
 16 17  1  0
 18 12  1  0
 18 17  1  0
 19 12  2  0
 20 21  1  0
 22 23  2  0
 23 42  1  0
 24 23  1  0
 24 27  1  0
 25 26  1  0
 25 22  1  0
 26 24  2  0
 27 28  1  0
 28 29  2  0
 30 33  1  0
 30 29  1  0
 31 30  2  0
 32 31  1  0
 32 27  2  0
 33 34  1  0
 34 35  1  0
 35 36  2  0
 37 36  1  0
 37 41  1  0
 38 37  2  0
 39 34  2  0
 39 38  1  0
 40 39  1  0
 42 43  1  0
 43 46  1  0
 43 45  1  0
 44 42  2  0
 47 22  1  0
 47 48  1  0
 49 47  1  0
 50  1  1  0
 51 50  1  0
 52 51  1  0
 53 52  1  0
 53 56  1  0
 54 53  1  0
 55 53  1  0
 58 57  1  0
 58 59  2  0
 60 59  1  0
 61 72  2  0
 62 60  1  0
 62 67  1  0
 63 71  1  0
 63 73  1  0
 64 70  1  0
 64 66  1  0
 65 71  1  0
 66 67  2  0
 66 65  1  0
 68 62  2  0
 69 68  1  0
 69 64  2  0
 70 63  1  0
 71 61  1  0
 73 75  2  0
 74 73  1  0
 76 74  1  0
 77 86  2  0
 77 82  1  0
 78 74  1  0
 78 82  1  0
 79 78  1  0
 80 81  1  0
 80 79  1  0
 81 77  1  0
 82 83  2  0
 83 84  1  0
 85 84  2  0
 86 85  1  0
 87 61  1  0
 87 92  1  0
 87 88  1  0
 88 91  1  1
 88 89  1  0
 90 88  1  0
 92 95  1  0
 93 97  1  0
 93 92  1  0
 94 93  2  0
 97 96  1  0
 99 97  1  0
 99100  1  0
 99 98  1  0
M  ISO  4  12 100  20 100  59 101  60 101
M  END
>  <TORSDO>  (63) 
F 24

>  <SCORE>  (63) 
-11.855

>  <name>  (63) 
62

>  <ligand_id>  (63) 
62

>  <original_smiles>  (63) 
[H]c1c([H])c([H])c2c(c1[H])C([H])([H])C([H])([H])C([H])([H])C2([H])N([H])C(=O)C1([H])N(C(=O)C([H])(N([H])C(=O)C([H])(N([H])C([H])([H])[H])C([H])([H])[H])C(C([H])([H])[H])(C([H])([H])[H])C([H])([H])[H])C([H])([H])c2c([H])c(OC([H])([H])C([H])([H])C([H])([H])N(C(=O)C([H])([H])C([H])([H])C([H])([H])[N+]([H])([H])[H])c3c([H])c(C([H])([H])[H])nc(N([H])C(=O)N4C([H])([H])C([H])([H])C([H])([H])C([H])(n5nc(-c6c([H])c([H])c(Oc7c([H])c([H])c(F)c([H])c7F)c([H])c6[H])c(C(=O)N([H])[H])c5N([H])[H])C4([H])[H])c3Cl)c([H])c([H])c2C1([H])[H]

>  <smiles>  (63) 
[H]c1c([H])c([H])c2c(c1[H])C([H])([H])C([H])([H])C([H])([H])C2([H])N([H])C(=O)C1([H])N(C(=O)C([H])(N([H])C(=O)C([H])(N([H])C([H])([H])[H])C([H])([H])[H])C(C([H])([H])[H])(C([H])([H])[H])C([H])([H])[H])C([H])([H])c2c([H])c(OC([H])([H])C([H])([H])C([H])([H])N(C(=O)C([H])([H])C([H])([H])C([H])([H])[N+]([H])([H])[H])c3c([H])c(C([H])([H])[H])nc(N([H])C(=O)N4C([H])([H])C([H])([H])C([H])([H])C([H])(n5nc(-c6c([H])c([H])c(Oc7c([H])c([H])c(F)c([H])c7F)c([H])c6[H])c(C(=O)N([H])[H])c5N([H])[H])C4([H])[H])c3Cl)c([H])c([H])c2C1([H])[H]

$$$$
63:0:0
     RDKit          3D

 99107  0  0  1  0  0  0  0  0999 V2000
  -29.1160  -21.3770   20.7490 C   0  0  0  0  0  0  0  0  0  0  0  0
  -29.3760  -22.5570   20.0200 N   0  0  0  0  0  0  0  0  0  0  0  0
  -28.8210  -21.4710   21.9430 O   0  0  0  0  0  0  0  0  0  0  0  0
  -28.5320  -19.6700   18.9130 C   0  0  0  0  0  3  0  0  0  0  0  0
  -29.1430  -19.9170   20.1620 C   0  0  0  0  0  0  0  0  0  0  0  0
  -29.5730  -17.3720   20.3000 C   0  0  0  0  0  0  0  0  0  0  0  0
  -28.5260  -18.3920   18.3220 C   0  0  0  0  0  0  0  0  0  0  0  0
  -29.6240  -18.7210   20.8630 C   0  0  0  0  0  0  0  0  0  0  0  0
  -29.0450  -17.2670   18.9930 C   0  0  0  0  0  0  0  0  0  0  0  0
  -27.9700  -18.2380   17.0970 F   0  0  0  0  0  0  0  0  0  0  0  0
  -30.1270  -18.8500   22.1150 F   0  0  0  0  0  0  0  0  0  0  0  0
  -28.9480  -16.0580   18.3900 F   0  0  0  0  0  0  0  0  0  0  0  0
  -30.6200  -15.0150   20.6720 C   0  0  0  0  0  0  0  0  0  0  0  0
  -30.5480  -12.6980   19.7390 C   0  0  0  0  0  2  0  0  0  0  0  0
  -29.6560  -12.7080   18.4770 C   0  0  0  0  0  2  0  0  0  0  0  0
  -28.1740  -12.5060   18.8530 C   0  0  0  0  0  2  0  0  0  0  0  0
  -27.7280  -13.4020   20.0380 C   0  0  0  0  0  3  0  0  0  0  0  0
  -28.7480  -13.3700   21.1990 C   0  0  0  0  0  2  0  0  0  0  0  0
  -30.0570  -13.7550   20.6560 N   0  0  0  0  0  0  0  0  0  0  0  0
  -31.7810  -15.1700   20.2810 O   0  0  0  0  0  0  0  0  0  0  0  0
  -29.8430  -16.1040   21.0330 N   0  0  0  0  0  0  0  0  0  0  0  0
  -29.0860  -15.8480   21.6480 H   0  0  0  0  0  0  0  0  0  0  0  0
  -25.3060  -13.9260   20.7080 C   0  0  0  0  0  0  0  0  0  0  0  0
  -24.2490  -13.1220   21.0390 C   0  0  0  0  0  0  0  0  0  0  0  0
  -24.7450  -11.7830   21.0030 C   0  0  0  0  0  0  0  0  0  0  0  0
  -26.3760  -13.0750   20.4870 N   0  0  0  0  0  0  0  0  0  0  0  0
  -26.0430  -11.7800   20.7270 N   0  0  0  0  0  0  0  0  0  0  0  0
  -24.0430  -10.5000   21.1590 C   0  0  0  0  0  0  0  0  0  0  0  0
  -24.4570   -9.5420   22.1090 C   0  0  0  0  0  3  0  0  0  0  0  0
  -23.7540   -8.3260   22.2520 C   0  0  0  0  0  3  0  0  0  0  0  0
  -22.6230   -8.0600   21.4440 C   0  0  0  0  0  0  0  0  0  0  0  0
  -22.2290   -9.0090   20.4840 C   0  0  0  0  0  3  0  0  0  0  0  0
  -22.9330  -10.2150   20.3390 C   0  0  0  0  0  3  0  0  0  0  0  0
  -21.8950   -6.8960   21.4950 O   0  0  0  0  0  0  0  0  0  0  0  0
  -21.7890   -6.1620   22.6500 C   0  0  0  0  0  0  0  0  0  0  0  0
  -21.2060   -6.6960   23.8200 C   0  0  0  0  0  3  0  0  0  0  0  0
  -21.0550   -5.8860   24.9620 C   0  0  0  0  0  3  0  0  0  0  0  0
  -21.4760   -4.5420   24.9350 C   0  0  0  0  0  0  0  0  0  0  0  0
  -22.0530   -4.0090   23.7700 C   0  0  0  0  0  3  0  0  0  0  0  0
  -22.2060   -4.8160   22.6300 C   0  0  0  0  0  0  0  0  0  0  0  0
  -22.7430   -4.2910   21.5020 F   0  0  0  0  0  0  0  0  0  0  0  0
  -21.3250   -3.7610   26.0300 F   0  0  0  0  0  0  0  0  0  0  0  0
  -22.8340  -13.5620   21.2800 C   0  0  0  0  0  0  0  0  0  0  0  0
  -22.0970  -12.8340   22.1110 N   0  0  0  0  0  0  0  0  0  0  0  0
  -22.3880  -14.5880   20.7670 O   0  0  0  0  0  0  0  0  0  0  0  0
  -22.4690  -12.0050   22.5490 H   0  0  0  0  0  0  0  0  0  0  0  0
  -21.1470  -13.1120   22.3140 H   0  0  0  0  0  0  0  0  0  0  0  0
  -25.4410  -15.3030   20.5570 N   0  0  0  0  0  0  0  0  0  0  0  0
  -24.6580  -15.9360   20.6630 H   0  0  0  0  0  0  0  0  0  0  0  0
  -26.2850  -15.7640   20.2420 H   0  0  0  0  0  0  0  0  0  0  0  0
  -29.2690  -23.9950   20.5950 C   0  0  0  0  0  3  0  0  0  0  0  0
  -28.2500  -25.1120   19.9920 C   0  0  0  0  0  3  0  0  0  0  0  0
  -28.3970  -26.5800   20.3260 O   0  0  0  0  0  0  0  0  0  0  0  0
  -24.6150  -31.9950   23.3590 C   0  0  0  0  0  0  0  0  0  0  0  0
  -27.2890  -27.4650   20.2520 C   0  0  0  0  0  0  0  0  0  0  0  0
  -23.4430  -30.6190   21.6780 C   0  0  0  0  0  3  0  0  0  0  0  0
  -24.9230  -29.1030   20.2380 C   0  0  0  0  0  0  0  0  0  0  0  0
  -25.9870  -30.9450   21.5370 C   0  0  0  0  0  2  0  0  0  0  0  0
  -26.0840  -29.5750   20.8630 C   0  0  0  0  0  0  0  0  0  0  0  0
  -27.2670  -28.7680   20.8600 C   0  0  0  0  0  3  0  0  0  0  0  0
  -26.1060  -27.0680   19.5890 C   0  0  0  0  0  3  0  0  0  0  0  0
  -24.9400  -27.8580   19.5920 C   0  0  0  0  0  3  0  0  0  0  0  0
  -23.6820  -29.9750   20.2870 C   0  0  0  0  0  2  0  0  0  0  0  0
  -24.7000  -31.2040   22.2470 N   0  0  0  0  0  0  0  0  0  0  0  0
  -23.5230  -32.2530   23.8850 O   0  0  0  0  0  0  0  0  0  0  0  0
  -22.7750  -29.5810   22.6120 C   0  0  0  0  0  0  0  0  0  0  0  0
  -21.4530  -29.3850   22.4580 N   0  0  0  0  0  0  0  0  0  0  0  0
  -23.4450  -28.9530   23.4350 O   0  0  0  0  0  0  0  0  0  0  0  0
  -20.9680  -29.9440   21.7690 H   0  0  0  0  0  0  0  0  0  0  0  0
  -18.0820  -28.1490   22.9010 C   0  0  0  0  0  0  0  0  0  0  0  0
  -20.6350  -28.4250   23.2020 C   0  0  0  0  0  3  0  0  0  0  0  0
  -20.7540  -27.0060   22.5970 C   0  0  0  0  0  2  0  0  0  0  0  0
  -19.6650  -26.6960   21.5660 C   0  0  0  0  0  2  0  0  0  0  0  0
  -18.2750  -26.8160   22.1980 C   0  0  0  0  0  2  0  0  0  0  0  0
  -19.1890  -28.9110   23.3590 C   0  0  0  0  0  0  0  0  0  0  0  0
  -18.9520  -30.1590   23.9760 C   0  0  0  0  0  3  0  0  0  0  0  0
  -17.6410  -30.6440   24.1400 C   0  0  0  0  0  3  0  0  0  0  0  0
  -16.5480  -29.8780   23.6980 C   0  0  0  0  0  3  0  0  0  0  0  0
  -16.7690  -28.6320   23.0840 C   0  0  0  0  0  3  0  0  0  0  0  0
  -25.8840  -32.6270   24.0090 C   0  0  0  0  0  3  0  0  0  0  0  0
  -25.5820  -34.0370   24.2950 N   0  0  0  0  0  0  0  0  0  0  0  0
  -25.9270  -35.0650   23.5080 C   0  0  0  0  0  0  0  0  0  0  0  0
  -26.6000  -34.9260   22.4840 O   0  0  0  0  0  0  0  0  0  0  0  0
  -24.9840  -34.2180   25.0870 H   0  0  0  0  0  0  0  0  0  0  0  0
  -24.2090  -36.8580   23.0990 C   0  0  0  0  0  1  0  0  0  0  0  0
  -25.4480  -36.4700   23.9220 C   0  0  0  0  0  3  0  0  0  0  0  0
  -27.5810  -37.3790   24.7340 C   0  0  0  0  0  1  0  0  0  0  0  0
  -26.4870  -37.5140   23.7760 N   0  0  0  0  0  0  0  0  0  0  0  0
  -26.0840  -38.4400   23.8830 H   0  0  0  0  0  0  0  0  0  0  0  0
  -26.3450  -31.8830   25.3220 C   0  0  1  0  0  0  0  0  0  0  0  0
  -25.2100  -31.6750   26.3520 C   0  0  0  0  0  1  0  0  0  0  0  0
  -26.9350  -30.4930   24.9870 C   0  0  0  0  0  1  0  0  0  0  0  0
  -27.4730  -32.6850   26.0090 C   0  0  0  0  0  1  0  0  0  0  0  0
  -30.0070  -22.5790   18.6720 C   0  0  0  0  0  2  0  0  0  0  0  0
  -32.2840  -23.4500   19.4520 C   0  0  0  0  0  1  0  0  0  0  0  0
  -31.9170  -22.7440   17.0830 C   0  0  0  0  0  1  0  0  0  0  0  0
  -31.5630  -22.4280   18.5520 C   0  0  2  0  0  0  0  0  0  0  0  0
  -33.5320  -20.6780   18.5940 C   0  0  0  0  0  1  0  0  0  0  0  0
  -32.0540  -20.9920   18.8870 C   0  0  0  0  0  2  0  0  0  0  0  0
  1  3  2  0
  2 51  1  0
  2  1  1  0
  4  5  1  0
  5  1  1  0
  5  8  2  0
  6  8  1  0
  6 21  1  0
  7  4  2  0
  7  9  1  0
  8 11  1  0
  9  6  2  0
 10  7  1  0
 12  9  1  0
 13 21  1  0
 14 19  1  0
 15 16  1  0
 15 14  1  0
 17 16  1  0
 17 26  1  0
 17 18  1  0
 19 13  1  0
 19 18  1  0
 20 13  2  0
 21 22  1  0
 23 24  2  0
 24 43  1  0
 25 24  1  0
 25 28  1  0
 26 23  1  0
 26 27  1  0
 27 25  2  0
 28 29  1  0
 29 30  2  0
 31 34  1  0
 31 30  1  0
 32 31  2  0
 33 32  1  0
 33 28  2  0
 34 35  1  0
 35 36  1  0
 36 37  2  0
 38 37  1  0
 38 42  1  0
 39 38  2  0
 40 35  2  0
 40 39  1  0
 41 40  1  0
 43 44  1  0
 44 47  1  0
 44 46  1  0
 45 43  2  0
 48 49  1  0
 48 23  1  0
 50 48  1  0
 52 53  1  0
 52 51  2  0
 54 65  2  0
 55 53  1  0
 55 60  1  0
 56 64  1  0
 56 66  1  0
 57 63  1  0
 57 59  1  0
 58 64  1  0
 59 58  1  0
 60 59  2  0
 61 62  1  0
 61 55  2  0
 62 57  2  0
 63 56  1  0
 64 54  1  0
 66 68  2  0
 67 66  1  0
 69 67  1  0
 70 79  2  0
 70 75  1  0
 71 67  1  0
 71 75  1  0
 72 71  1  0
 73 74  1  0
 73 72  1  0
 74 70  1  0
 75 76  2  0
 76 77  1  0
 78 77  2  0
 79 78  1  0
 80 54  1  0
 80 81  1  0
 80 90  1  0
 81 84  1  0
 82 86  1  0
 82 81  1  0
 83 82  2  0
 86 85  1  0
 88 89  1  0
 88 86  1  0
 88 87  1  0
 90 93  1  1
 90 91  1  0
 92 90  1  0
 94  2  1  0
 97 96  1  6
 97 94  1  0
 97 99  1  0
 97 95  1  0
 98 99  1  0
M  ISO  4  13 100  21 100  52 101  53 101
M  END
>  <TORSDO>  (64) 
F 22

>  <SCORE>  (64) 
-13.277

>  <name>  (64) 
63

>  <ligand_id>  (64) 
63

>  <original_smiles>  (64) 
[H]c1c([H])c([H])c2c(c1[H])C([H])([H])C([H])([H])C([H])([H])C2([H])N([H])C(=O)C1([H])N(C(=O)C([H])(N([H])C(=O)C([H])(N([H])C([H])([H])[H])C([H])([H])[H])C(C([H])([H])[H])(C([H])([H])[H])C([H])([H])[H])C([H])([H])c2c([H])c(OC([H])([H])C([H])([H])N(C(=O)c3c([H])c(F)c(F)c(N([H])C(=O)N4C([H])([H])C([H])([H])C([H])([H])C([H])(n5nc(-c6c([H])c([H])c(Oc7c([H])c([H])c(F)c([H])c7F)c([H])c6[H])c(C(=O)N([H])[H])c5N([H])[H])C4([H])[H])c3F)C([H])([H])C(C([H])([H])[H])(C([H])([H])[H])C([H])([H])C([H])([H])[H])c([H])c([H])c2C1([H])[H]

>  <smiles>  (64) 
[H]c1c([H])c([H])c2c(c1[H])C([H])([H])C([H])([H])C([H])([H])C2([H])N([H])C(=O)C1([H])N(C(=O)C([H])(N([H])C(=O)C([H])(N([H])C([H])([H])[H])C([H])([H])[H])C(C([H])([H])[H])(C([H])([H])[H])C([H])([H])[H])C([H])([H])c2c([H])c(OC([H])([H])C([H])([H])N(C(=O)c3c([H])c(F)c(F)c(N([H])C(=O)N4C([H])([H])C([H])([H])C([H])([H])C([H])(n5nc(-c6c([H])c([H])c(Oc7c([H])c([H])c(F)c([H])c7F)c([H])c6[H])c(C(=O)N([H])[H])c5N([H])[H])C4([H])[H])c3F)C([H])([H])C(C([H])([H])[H])(C([H])([H])[H])C([H])([H])C([H])([H])[H])c([H])c([H])c2C1([H])[H]

$$$$
64:0:0
     RDKit          3D

 98106  0  0  1  0  0  0  0  0999 V2000
  -29.2660  -19.7120   20.0320 C   0  0  0  0  0  3  0  0  0  0  0  0
  -29.3190  -18.3150   19.7000 C   0  0  0  0  0  0  0  0  0  0  0  0
  -30.1210  -20.3430   20.9570 C   0  0  0  0  0  0  0  0  0  0  0  0
  -30.3200  -17.4610   20.3410 C   0  0  0  0  0  0  0  0  0  0  0  0
  -31.0140  -19.4860   21.6400 C   0  0  0  0  0  0  0  0  0  0  0  0
  -31.1100  -18.0960   21.3510 C   0  0  0  0  0  0  0  0  0  0  0  0
  -31.8390  -20.0170   22.5730 F   0  0  0  0  0  0  0  0  0  0  0  0
  -32.0500  -17.3930   22.0270 F   0  0  0  0  0  0  0  0  0  0  0  0
  -31.0980  -14.9940   20.5960 C   0  0  0  0  0  0  0  0  0  0  0  0
  -30.7730  -12.7610   19.5900 C   0  0  0  0  0  2  0  0  0  0  0  0
  -29.8820  -12.8580   18.3380 C   0  0  0  0  0  2  0  0  0  0  0  0
  -28.3960  -12.7340   18.7240 C   0  0  0  0  0  2  0  0  0  0  0  0
  -28.0020  -13.6070   19.9500 C   0  0  0  0  0  3  0  0  0  0  0  0
  -29.0410  -13.5490   21.0850 C   0  0  0  0  0  2  0  0  0  0  0  0
  -30.3420  -13.8560   20.4740 N   0  0  0  0  0  0  0  0  0  0  0  0
  -32.3090  -14.8690   20.7750 O   0  0  0  0  0  0  0  0  0  0  0  0
  -31.5780  -16.2730   18.6620 C   0  0  0  0  0  1  0  0  0  0  0  0
  -30.7050  -16.1140   19.8560 N   0  0  0  0  0  0  0  0  0  0  0  0
  -25.5970  -14.2430   20.5440 C   0  0  0  0  0  0  0  0  0  0  0  0
  -24.5010  -13.4860   20.8450 C   0  0  0  0  0  0  0  0  0  0  0  0
  -24.9490  -12.1300   20.8560 C   0  0  0  0  0  0  0  0  0  0  0  0
  -26.6400  -13.3460   20.3850 N   0  0  0  0  0  0  0  0  0  0  0  0
  -26.2560  -12.0720   20.6370 N   0  0  0  0  0  0  0  0  0  0  0  0
  -24.2030  -10.8780   21.0090 C   0  0  0  0  0  0  0  0  0  0  0  0
  -24.5780   -9.9110   21.9670 C   0  0  0  0  0  3  0  0  0  0  0  0
  -23.8350   -8.7200   22.1080 C   0  0  0  0  0  3  0  0  0  0  0  0
  -22.7020   -8.4910   21.2930 C   0  0  0  0  0  0  0  0  0  0  0  0
  -22.3470   -9.4460   20.3240 C   0  0  0  0  0  3  0  0  0  0  0  0
  -23.0920  -10.6290   20.1790 C   0  0  0  0  0  3  0  0  0  0  0  0
  -21.9310   -7.3570   21.3460 O   0  0  0  0  0  0  0  0  0  0  0  0
  -21.8140   -6.6210   22.4970 C   0  0  0  0  0  0  0  0  0  0  0  0
  -21.3110   -7.1810   23.6920 C   0  0  0  0  0  3  0  0  0  0  0  0
  -21.1470   -6.3720   24.8330 C   0  0  0  0  0  3  0  0  0  0  0  0
  -21.4700   -5.0030   24.7800 C   0  0  0  0  0  0  0  0  0  0  0  0
  -21.9650   -4.4430   23.5890 C   0  0  0  0  0  3  0  0  0  0  0  0
  -22.1340   -5.2500   22.4500 C   0  0  0  0  0  0  0  0  0  0  0  0
  -22.5930   -4.7020   21.2990 F   0  0  0  0  0  0  0  0  0  0  0  0
  -21.3030   -4.2210   25.8720 F   0  0  0  0  0  0  0  0  0  0  0  0
  -23.0950  -13.9820   21.0220 C   0  0  0  0  0  0  0  0  0  0  0  0
  -22.3120  -13.3110   21.8570 N   0  0  0  0  0  0  0  0  0  0  0  0
  -22.7000  -15.0010   20.4550 O   0  0  0  0  0  0  0  0  0  0  0  0
  -22.6460  -12.4880   22.3390 H   0  0  0  0  0  0  0  0  0  0  0  0
  -21.3640  -13.6230   22.0160 H   0  0  0  0  0  0  0  0  0  0  0  0
  -25.7900  -15.6100   20.3750 N   0  0  0  0  0  0  0  0  0  0  0  0
  -25.0390  -16.2830   20.4710 H   0  0  0  0  0  0  0  0  0  0  0  0
  -26.6850  -16.0370   20.1800 H   0  0  0  0  0  0  0  0  0  0  0  0
  -26.8550  -18.4070   19.1710 C   0  0  0  0  0  1  0  0  0  0  0  0
  -28.0360  -16.4100   18.3310 C   0  0  0  0  0  1  0  0  0  0  0  0
  -28.5040  -18.5690   17.2800 C   0  0  0  0  0  1  0  0  0  0  0  0
  -28.2240  -17.9050   18.6540 C   0  0  2  0  0  0  0  0  0  0  0  0
  -30.1770  -21.8950   21.2110 C   0  0  0  0  0  2  0  0  0  0  0  0
  -29.1320  -22.8390   20.6490 N   0  0  0  0  0  4  0  0  0  0  0  0
  -28.2470  -22.5890   21.0630 H   0  0  0  0  0  0  0  0  0  0  0  0
  -29.0640  -22.6480   19.6610 H   0  0  0  0  0  0  0  0  0  0  0  0
  -29.5510  -24.7350   22.2980 C   0  0  0  0  0  1  0  0  0  0  0  0
  -29.3730  -24.3430   20.8160 C   0  0  0  0  0  3  0  0  0  0  0  0
  -28.2610  -25.2820   20.1840 C   0  0  0  0  0  2  0  0  0  0  0  0
  -28.4730  -26.7460   20.2270 O   0  0  0  0  0  0  0  0  0  0  0  0
  -24.6080  -31.9970   23.2740 C   0  0  0  0  0  0  0  0  0  0  0  0
  -27.3410  -27.5660   20.1610 C   0  0  0  0  0  0  0  0  0  0  0  0
  -23.4470  -30.5990   21.6030 C   0  0  0  0  0  3  0  0  0  0  0  0
  -24.9410  -29.1180   20.1560 C   0  0  0  0  0  0  0  0  0  0  0  0
  -25.9800  -30.9820   21.4470 C   0  0  0  0  0  2  0  0  0  0  0  0
  -26.0940  -29.6220   20.7730 C   0  0  0  0  0  0  0  0  0  0  0  0
  -27.2950  -28.8570   20.7700 C   0  0  0  0  0  3  0  0  0  0  0  0
  -26.1670  -27.1210   19.5070 C   0  0  0  0  0  3  0  0  0  0  0  0
  -24.9810  -27.8730   19.5140 C   0  0  0  0  0  3  0  0  0  0  0  0
  -23.6830  -29.9580   20.2120 C   0  0  0  0  0  2  0  0  0  0  0  0
  -24.6970  -31.2110   22.1630 N   0  0  0  0  0  0  0  0  0  0  0  0
  -23.5160  -32.2410   23.8050 O   0  0  0  0  0  0  0  0  0  0  0  0
  -22.8070  -29.5470   22.5370 C   0  0  0  0  0  0  0  0  0  0  0  0
  -21.4930  -29.3170   22.3760 N   0  0  0  0  0  0  0  0  0  0  0  0
  -23.4900  -28.9420   23.3680 O   0  0  0  0  0  0  0  0  0  0  0  0
  -20.9990  -29.8570   21.6790 H   0  0  0  0  0  0  0  0  0  0  0  0
  -18.1580  -27.9730   22.7610 C   0  0  0  0  0  0  0  0  0  0  0  0
  -20.6920  -28.3440   23.1220 C   0  0  0  0  0  3  0  0  0  0  0  0
  -20.8770  -26.9180   22.5540 C   0  0  0  0  0  2  0  0  0  0  0  0
  -19.8260  -26.5450   21.5040 C   0  0  0  0  0  2  0  0  0  0  0  0
  -18.4170  -26.6310   22.0970 C   0  0  0  0  0  2  0  0  0  0  0  0
  -19.2270  -28.7840   23.2290 C   0  0  0  0  0  0  0  0  0  0  0  0
  -18.9300  -30.0380   23.8050 C   0  0  0  0  0  3  0  0  0  0  0  0
  -17.6000  -30.4810   23.9210 C   0  0  0  0  0  3  0  0  0  0  0  0
  -16.5450  -29.6660   23.4740 C   0  0  0  0  0  3  0  0  0  0  0  0
  -16.8260  -28.4140   22.9000 C   0  0  0  0  0  3  0  0  0  0  0  0
  -25.8740  -32.6450   23.9140 C   0  0  0  0  0  3  0  0  0  0  0  0
  -25.5440  -34.0430   24.2270 N   0  0  0  0  0  0  0  0  0  0  0  0
  -25.9030  -35.0960   23.4800 C   0  0  0  0  0  0  0  0  0  0  0  0
  -26.6190  -34.9940   22.4810 O   0  0  0  0  0  0  0  0  0  0  0  0
  -24.9140  -34.1960   25.0010 H   0  0  0  0  0  0  0  0  0  0  0  0
  -24.1910  -36.8830   23.0350 C   0  0  0  0  0  1  0  0  0  0  0  0
  -25.3880  -36.4830   23.9130 C   0  0  0  0  0  3  0  0  0  0  0  0
  -27.4710  -37.3740   24.8590 C   0  0  0  0  0  1  0  0  0  0  0  0
  -26.4220  -37.5390   23.8550 N   0  0  0  0  0  0  0  0  0  0  0  0
  -26.0080  -38.4590   23.9770 H   0  0  0  0  0  0  0  0  0  0  0  0
  -26.3730  -31.8910   25.2070 C   0  0  1  0  0  0  0  0  0  0  0  0
  -25.2560  -31.6400   26.2470 C   0  0  0  0  0  1  0  0  0  0  0  0
  -26.9910  -30.5210   24.8400 C   0  0  0  0  0  1  0  0  0  0  0  0
  -27.4910  -32.7090   25.8900 C   0  0  0  0  0  1  0  0  0  0  0  0
  1  3  1  0
  2  1  2  0
  2  4  1  0
  3 51  1  0
  3  5  2  0
  4  6  2  0
  5  7  1  0
  6  5  1  0
  6  8  1  0
  9 16  2  0
 10 15  1  0
 11 12  1  0
 11 10  1  0
 13 12  1  0
 13 22  1  0
 13 14  1  0
 15  9  1  0
 15 14  1  0
 17 18  1  0
 18  4  1  0
 18  9  1  0
 19 20  2  0
 20 21  1  0
 20 39  1  0
 21 24  1  0
 22 19  1  0
 22 23  1  0
 23 21  2  0
 24 25  1  0
 25 26  2  0
 27 30  1  0
 27 26  1  0
 28 27  2  0
 29 28  1  0
 29 24  2  0
 30 31  1  0
 31 32  1  0
 32 33  2  0
 34 33  1  0
 34 38  1  0
 35 34  2  0
 36 31  2  0
 36 35  1  0
 37 36  1  0
 39 40  1  0
 40 43  1  0
 40 42  1  0
 41 39  2  0
 44 45  1  0
 44 19  1  0
 46 44  1  0
 50 48  1  6
 49 50  1  0
 50 47  1  0
 50  2  1  0
 52 56  1  0
 52 53  1  0
 52 51  1  0
 54 52  1  0
 56 55  1  0
 57 58  1  0
 57 56  1  0
 59 70  2  0
 60 58  1  0
 60 65  1  0
 61 69  1  0
 61 71  1  0
 62 68  1  0
 62 64  1  0
 63 69  1  0
 64 63  1  0
 65 64  2  0
 66 67  1  0
 66 60  2  0
 67 62  2  0
 68 61  1  0
 69 59  1  0
 71 73  2  0
 72 71  1  0
 74 72  1  0
 75 84  2  0
 75 80  1  0
 76 72  1  0
 76 80  1  0
 77 76  1  0
 78 79  1  0
 78 77  1  0
 79 75  1  0
 80 81  2  0
 81 82  1  0
 83 82  2  0
 84 83  1  0
 85 59  1  0
 85 86  1  0
 85 95  1  0
 86 89  1  0
 87 91  1  0
 87 86  1  0
 88 87  2  0
 91 90  1  0
 93 91  1  0
 93 94  1  0
 93 92  1  0
 95 98  1  1
 95 96  1  0
 97 95  1  0
M  ISO  4   9 100  18 100  57 101  58 101
M  END
>  <TORSDO>  (65) 
F 21

>  <SCORE>  (65) 
-13.108

>  <name>  (65) 
64

>  <ligand_id>  (65) 
64

>  <original_smiles>  (65) 
[H]c1c([H])c([H])c2c(c1[H])C([H])([H])C([H])([H])C([H])([H])C2([H])N([H])C(=O)C1([H])N(C(=O)C([H])(N([H])C(=O)C([H])(N([H])C([H])([H])[H])C([H])([H])[H])C(C([H])([H])[H])(C([H])([H])[H])C([H])([H])[H])C([H])([H])c2c([H])c(OC([H])([H])C([H])(C([H])([H])[H])[N+]([H])([H])C([H])([H])c3c([H])c(C(C([H])([H])[H])(C([H])([H])[H])C([H])([H])[H])c(N(C(=O)N4C([H])([H])C([H])([H])C([H])([H])C([H])(n5nc(-c6c([H])c([H])c(Oc7c([H])c([H])c(F)c([H])c7F)c([H])c6[H])c(C(=O)N([H])[H])c5N([H])[H])C4([H])[H])C([H])([H])[H])c(F)c3F)c([H])c([H])c2C1([H])[H]

>  <smiles>  (65) 
[H]c1c([H])c([H])c2c(c1[H])C([H])([H])C([H])([H])C([H])([H])C2([H])N([H])C(=O)C1([H])N(C(=O)C([H])(N([H])C(=O)C([H])(N([H])C([H])([H])[H])C([H])([H])[H])C(C([H])([H])[H])(C([H])([H])[H])C([H])([H])[H])C([H])([H])c2c([H])c(OC([H])([H])C([H])(C([H])([H])[H])[N+]([H])([H])C([H])([H])c3c([H])c(C(C([H])([H])[H])(C([H])([H])[H])C([H])([H])[H])c(N(C(=O)N4C([H])([H])C([H])([H])C([H])([H])C([H])(n5nc(-c6c([H])c([H])c(Oc7c([H])c([H])c(F)c([H])c7F)c([H])c6[H])c(C(=O)N([H])[H])c5N([H])[H])C4([H])[H])C([H])([H])[H])c(F)c3F)c([H])c([H])c2C1([H])[H]

$$$$
65:0:0
     RDKit          3D

 94102  0  0  1  0  0  0  0  0999 V2000
  -30.5940  -20.6930   21.0330 C   0  0  0  0  0  2  0  0  0  0  0  0
  -28.9680  -19.4950   19.4960 C   0  0  0  0  0  3  0  0  0  0  0  0
  -28.7720  -17.0660   19.3910 C   0  0  0  0  0  3  0  0  0  0  0  0
  -28.3940  -18.3430   18.9300 C   0  0  0  0  0  0  0  0  0  0  0  0
  -29.9290  -19.3950   20.5220 C   0  0  0  0  0  0  0  0  0  0  0  0
  -29.7110  -16.9110   20.4360 C   0  0  0  0  0  0  0  0  0  0  0  0
  -30.2970  -18.0880   20.9960 C   0  0  0  0  0  0  0  0  0  0  0  0
  -27.3550  -18.4850   17.8350 C   0  0  0  0  0  1  0  0  0  0  0  0
  -31.4500  -17.9150   22.2760 Cl  0  0  0  0  0  0  0  0  0  0  0  0
  -30.6310  -14.5850   20.4370 C   0  0  0  0  0  0  0  0  0  0  0  0
  -30.3840  -12.3860   19.3290 C   0  0  0  0  0  2  0  0  0  0  0  0
  -29.4560  -12.5680   18.1090 C   0  0  0  0  0  2  0  0  0  0  0  0
  -27.9750  -12.4330   18.5150 C   0  0  0  0  0  2  0  0  0  0  0  0
  -27.6210  -13.2700   19.7730 C   0  0  0  0  0  3  0  0  0  0  0  0
  -28.6640  -13.0640   20.8970 C   0  0  0  0  0  2  0  0  0  0  0  0
  -29.9930  -13.3810   20.3450 N   0  0  0  0  0  0  0  0  0  0  0  0
  -31.7590  -14.7740   19.9740 O   0  0  0  0  0  0  0  0  0  0  0  0
  -29.9030  -15.5890   20.9800 N   0  0  0  0  0  0  0  0  0  0  0  0
  -29.0870  -15.2320   21.4520 H   0  0  0  0  0  0  0  0  0  0  0  0
  -25.2170  -13.9110   20.4290 C   0  0  0  0  0  0  0  0  0  0  0  0
  -24.1370  -13.1520   20.7900 C   0  0  0  0  0  0  0  0  0  0  0  0
  -24.5890  -11.7960   20.7880 C   0  0  0  0  0  0  0  0  0  0  0  0
  -26.2590  -13.0150   20.2320 N   0  0  0  0  0  0  0  0  0  0  0  0
  -25.8840  -11.7410   20.5050 N   0  0  0  0  0  0  0  0  0  0  0  0
  -23.8520  -10.5420   20.9840 C   0  0  0  0  0  0  0  0  0  0  0  0
  -24.2750   -9.5800   21.9280 C   0  0  0  0  0  3  0  0  0  0  0  0
  -23.5420   -8.3880   22.1110 C   0  0  0  0  0  3  0  0  0  0  0  0
  -22.3730   -8.1510   21.3500 C   0  0  0  0  0  0  0  0  0  0  0  0
  -21.9710   -9.1020   20.3940 C   0  0  0  0  0  3  0  0  0  0  0  0
  -22.7040  -10.2850   20.2100 C   0  0  0  0  0  3  0  0  0  0  0  0
  -21.6100   -7.0120   21.4430 O   0  0  0  0  0  0  0  0  0  0  0  0
  -21.5590   -6.2740   22.5970 C   0  0  0  0  0  0  0  0  0  0  0  0
  -21.1500   -6.8370   23.8260 C   0  0  0  0  0  3  0  0  0  0  0  0
  -21.0450   -6.0250   24.9730 C   0  0  0  0  0  3  0  0  0  0  0  0
  -21.3380   -4.6510   24.8910 C   0  0  0  0  0  0  0  0  0  0  0  0
  -21.7380   -4.0870   23.6690 C   0  0  0  0  0  3  0  0  0  0  0  0
  -21.8460   -4.8960   22.5240 C   0  0  0  0  0  0  0  0  0  0  0  0
  -22.2130   -4.3430   21.3420 F   0  0  0  0  0  0  0  0  0  0  0  0
  -21.2280   -3.8680   25.9910 F   0  0  0  0  0  0  0  0  0  0  0  0
  -22.7390  -13.6420   21.0330 C   0  0  0  0  0  0  0  0  0  0  0  0
  -21.9920  -12.9610   21.8970 N   0  0  0  0  0  0  0  0  0  0  0  0
  -22.3150  -14.6620   20.4920 O   0  0  0  0  0  0  0  0  0  0  0  0
  -22.3470  -12.1340   22.3560 H   0  0  0  0  0  0  0  0  0  0  0  0
  -21.0540  -13.2710   22.1020 H   0  0  0  0  0  0  0  0  0  0  0  0
  -25.3940  -15.2780   20.2340 N   0  0  0  0  0  0  0  0  0  0  0  0
  -24.6330  -15.9410   20.3290 H   0  0  0  0  0  0  0  0  0  0  0  0
  -26.2580  -15.7120   19.9380 H   0  0  0  0  0  0  0  0  0  0  0  0
  -29.7470  -22.9740   20.2580 C   0  0  0  0  0  0  0  0  0  0  0  0
  -29.7870  -21.9410   21.1330 N   0  0  0  0  0  0  0  0  0  0  0  0
  -30.0830  -22.8320   19.0810 O   0  0  0  0  0  0  0  0  0  0  0  0
  -29.4490  -22.1450   22.0640 H   0  0  0  0  0  0  0  0  0  0  0  0
  -29.3780  -24.3950   20.7820 C   0  0  0  0  0  2  0  0  0  0  0  0
  -28.3470  -25.2280   19.9490 C   0  0  0  0  0  2  0  0  0  0  0  0
  -28.3920  -26.6600   20.2260 O   0  0  0  0  0  0  0  0  0  0  0  0
  -24.5870  -31.9030   23.2350 C   0  0  0  0  0  0  0  0  0  0  0  0
  -27.2230  -27.4160   20.1680 C   0  0  0  0  0  0  0  0  0  0  0  0
  -23.3790  -30.5020   21.5930 C   0  0  0  0  0  3  0  0  0  0  0  0
  -24.8320  -28.9600   20.1670 C   0  0  0  0  0  0  0  0  0  0  0  0
  -25.9090  -30.8500   21.3970 C   0  0  0  0  0  2  0  0  0  0  0  0
  -25.9940  -29.4740   20.7560 C   0  0  0  0  0  0  0  0  0  0  0  0
  -27.1890  -28.7120   20.7500 C   0  0  0  0  0  3  0  0  0  0  0  0
  -26.0430  -26.9380   19.5520 C   0  0  0  0  0  3  0  0  0  0  0  0
  -24.8540  -27.6940   19.5600 C   0  0  0  0  0  3  0  0  0  0  0  0
  -23.5900  -29.8230   20.2140 C   0  0  0  0  0  2  0  0  0  0  0  0
  -24.6440  -31.1010   22.1330 N   0  0  0  0  0  0  0  0  0  0  0  0
  -23.5060  -32.1770   23.7750 O   0  0  0  0  0  0  0  0  0  0  0  0
  -22.7260  -29.4840   22.5570 C   0  0  0  0  0  0  0  0  0  0  0  0
  -21.4010  -29.3010   22.4300 N   0  0  0  0  0  0  0  0  0  0  0  0
  -23.4090  -28.8600   23.3730 O   0  0  0  0  0  0  0  0  0  0  0  0
  -20.9100  -29.8570   21.7440 H   0  0  0  0  0  0  0  0  0  0  0  0
  -18.0280  -28.1020   22.9270 C   0  0  0  0  0  0  0  0  0  0  0  0
  -20.5850  -28.3640   23.2020 C   0  0  0  0  0  3  0  0  0  0  0  0
  -20.6910  -26.9310   22.6300 C   0  0  0  0  0  2  0  0  0  0  0  0
  -19.5900  -26.6050   21.6150 C   0  0  0  0  0  2  0  0  0  0  0  0
  -18.2070  -26.7500   22.2570 C   0  0  0  0  0  2  0  0  0  0  0  0
  -19.1450  -28.8660   23.3580 C   0  0  0  0  0  0  0  0  0  0  0  0
  -18.9240  -30.1310   23.9450 C   0  0  0  0  0  3  0  0  0  0  0  0
  -17.6180  -30.6310   24.1070 C   0  0  0  0  0  3  0  0  0  0  0  0
  -16.5150  -29.8640   23.6920 C   0  0  0  0  0  3  0  0  0  0  0  0
  -16.7210  -28.6010   23.1080 C   0  0  0  0  0  3  0  0  0  0  0  0
  -25.8720  -32.5370   23.8520 C   0  0  0  0  0  3  0  0  0  0  0  0
  -26.3950  -31.7630   25.1250 C   0  0  1  0  0  0  0  0  0  0  0  0
  -25.3070  -31.5220   26.1960 C   0  0  0  0  0  1  0  0  0  0  0  0
  -26.9790  -30.3870   24.7270 C   0  0  0  0  0  1  0  0  0  0  0  0
  -27.5460  -32.5570   25.7850 C   0  0  0  0  0  1  0  0  0  0  0  0
  -25.5610  -33.9330   24.1860 N   0  0  0  0  0  0  0  0  0  0  0  0
  -25.8890  -34.9870   23.4280 C   0  0  0  0  0  0  0  0  0  0  0  0
  -26.5550  -34.8870   22.3940 O   0  0  0  0  0  0  0  0  0  0  0  0
  -24.9670  -34.0840   24.9880 H   0  0  0  0  0  0  0  0  0  0  0  0
  -24.1540  -36.7770   23.0830 C   0  0  0  0  0  1  0  0  0  0  0  0
  -25.4000  -36.3750   23.8880 C   0  0  0  0  0  3  0  0  0  0  0  0
  -27.5390  -37.2620   24.7080 C   0  0  0  0  0  1  0  0  0  0  0  0
  -26.4300  -37.4300   23.7720 N   0  0  0  0  0  0  0  0  0  0  0  0
  -26.0230  -38.3490   23.9230 H   0  0  0  0  0  0  0  0  0  0  0  0
  1 49  1  0
  2  5  1  0
  3  6  2  0
  4  3  1  0
  4  2  2  0
  5  7  2  0
  5  1  1  0
  6 18  1  0
  6  7  1  0
  7  9  1  0
  8  4  1  0
 10 18  1  0
 11 16  1  0
 12 13  1  0
 12 11  1  0
 14 13  1  0
 14 23  1  0
 14 15  1  0
 16 10  1  0
 16 15  1  0
 17 10  2  0
 18 19  1  0
 20 21  2  0
 21 40  1  0
 22 21  1  0
 22 25  1  0
 23 20  1  0
 23 24  1  0
 24 22  2  0
 25 26  1  0
 26 27  2  0
 28 31  1  0
 28 27  1  0
 29 28  2  0
 30 29  1  0
 30 25  2  0
 31 32  1  0
 32 33  1  0
 33 34  2  0
 35 34  1  0
 35 39  1  0
 36 35  2  0
 37 32  2  0
 37 36  1  0
 38 37  1  0
 40 41  1  0
 41 44  1  0
 41 43  1  0
 42 40  2  0
 45 46  1  0
 45 20  1  0
 47 45  1  0
 48 52  1  0
 48 49  1  0
 49 51  1  0
 50 48  2  0
 53 54  1  0
 53 52  1  0
 55 66  2  0
 56 54  1  0
 56 61  1  0
 57 65  1  0
 57 67  1  0
 58 64  1  0
 58 60  1  0
 59 65  1  0
 60 59  1  0
 61 60  2  0
 62 63  1  0
 62 56  2  0
 63 58  2  0
 64 57  1  0
 65 55  1  0
 67 69  2  0
 68 67  1  0
 70 68  1  0
 71 80  2  0
 71 76  1  0
 72 68  1  0
 72 76  1  0
 73 72  1  0
 74 75  1  0
 74 73  1  0
 75 71  1  0
 76 77  2  0
 77 78  1  0
 79 78  2  0
 80 79  1  0
 81 55  1  0
 81 86  1  0
 81 82  1  0
 82 85  1  1
 82 83  1  0
 84 82  1  0
 86 89  1  0
 87 91  1  0
 87 86  1  0
 88 87  2  0
 91 90  1  0
 93 91  1  0
 93 94  1  0
 93 92  1  0
M  ISO  4  10 100  18 100  53 101  54 101
M  END
>  <TORSDO>  (66) 
F 20

>  <SCORE>  (66) 
-13.846

>  <name>  (66) 
65

>  <ligand_id>  (66) 
65

>  <original_smiles>  (66) 
[H]c1c([H])c([H])c2c(c1[H])C([H])([H])C([H])([H])C([H])([H])C2([H])N([H])C(=O)C1([H])N(C(=O)C([H])(N([H])C(=O)C([H])(N([H])C([H])([H])[H])C([H])([H])[H])C(C([H])([H])[H])(C([H])([H])[H])C([H])([H])[H])C([H])([H])c2c([H])c(OC([H])([H])C([H])([H])C(=O)N([H])C([H])([H])c3c([H])c(C([H])([H])[H])c([H])c(N([H])C(=O)N4C([H])([H])C([H])([H])C([H])([H])C([H])(n5nc(-c6c([H])c([H])c(Oc7c([H])c([H])c(F)c([H])c7F)c([H])c6[H])c(C(=O)N([H])[H])c5N([H])[H])C4([H])[H])c3Cl)c([H])c([H])c2C1([H])[H]

>  <smiles>  (66) 
[H]c1c([H])c([H])c2c(c1[H])C([H])([H])C([H])([H])C([H])([H])C2([H])N([H])C(=O)C1([H])N(C(=O)C([H])(N([H])C(=O)C([H])(N([H])C([H])([H])[H])C([H])([H])[H])C(C([H])([H])[H])(C([H])([H])[H])C([H])([H])[H])C([H])([H])c2c([H])c(OC([H])([H])C([H])([H])C(=O)N([H])C([H])([H])c3c([H])c(C([H])([H])[H])c([H])c(N([H])C(=O)N4C([H])([H])C([H])([H])C([H])([H])C([H])(n5nc(-c6c([H])c([H])c(Oc7c([H])c([H])c(F)c([H])c7F)c([H])c6[H])c(C(=O)N([H])[H])c5N([H])[H])C4([H])[H])c3Cl)c([H])c([H])c2C1([H])[H]

$$$$
66:0:0
     RDKit          3D

 93101  0  0  1  0  0  0  0  0999 V2000
  -28.2740  -24.7500   18.1050 C   0  0  0  0  0  0  0  0  0  0  0  0
  -28.3250  -24.5070   19.4620 C   0  0  0  0  0  0  0  0  0  0  0  0
  -28.7350  -22.6110   18.1820 C   0  0  0  0  0  0  0  0  0  0  0  0
  -28.1680  -26.0310   17.3240 C   0  0  0  0  0  1  0  0  0  0  0  0
  -28.4260  -23.6130   17.3800 N   0  0  0  0  0  0  0  0  0  0  0  0
  -28.6980  -22.9250   19.5330 N   0  0  0  0  0  0  0  0  0  0  0  0
  -30.4920  -20.7440   17.9600 C   0  0  0  0  0  1  0  0  0  0  0  0
  -29.4320  -21.5710   15.9530 C   0  0  0  0  0  1  0  0  0  0  0  0
  -29.1310  -21.2930   17.4620 C   0  0  2  0  0  0  0  0  0  0  0  0
  -26.5650  -20.6830   17.6460 C   0  0  0  0  0  1  0  0  0  0  0  0
  -28.0080  -20.2080   17.3930 C   0  0  0  0  0  2  0  0  0  0  0  0
  -28.1770  -25.7320   20.3240 O   0  0  0  0  0  0  0  0  0  0  0  0
  -24.5480  -31.8310   23.0710 C   0  0  0  0  0  0  0  0  0  0  0  0
  -27.2060  -26.8840   20.1870 C   0  0  0  0  0  0  0  0  0  0  0  0
  -23.3960  -30.3840   21.4510 C   0  0  0  0  0  3  0  0  0  0  0  0
  -24.8830  -28.7640   20.0870 C   0  0  0  0  0  0  0  0  0  0  0  0
  -25.9650  -30.6140   21.3370 C   0  0  0  0  0  2  0  0  0  0  0  0
  -26.0640  -29.1870   20.7080 C   0  0  0  0  0  0  0  0  0  0  0  0
  -27.2180  -28.2700   20.7350 C   0  0  0  0  0  3  0  0  0  0  0  0
  -25.9720  -26.6170   19.5470 C   0  0  0  0  0  3  0  0  0  0  0  0
  -24.8620  -27.4980   19.4890 C   0  0  0  0  0  3  0  0  0  0  0  0
  -23.6550  -29.6760   20.0950 C   0  0  0  0  0  2  0  0  0  0  0  0
  -24.6580  -30.9720   22.0070 N   0  0  0  0  0  0  0  0  0  0  0  0
  -23.4460  -32.1180   23.5720 O   0  0  0  0  0  0  0  0  0  0  0  0
  -22.6950  -29.4030   22.4290 C   0  0  0  0  0  0  0  0  0  0  0  0
  -21.3610  -29.2580   22.3240 N   0  0  0  0  0  0  0  0  0  0  0  0
  -23.3610  -28.7750   23.2540 O   0  0  0  0  0  0  0  0  0  0  0  0
  -20.8740  -29.8110   21.6330 H   0  0  0  0  0  0  0  0  0  0  0  0
  -17.9640  -28.1270   22.9200 C   0  0  0  0  0  0  0  0  0  0  0  0
  -20.5360  -28.3350   23.1130 C   0  0  0  0  0  3  0  0  0  0  0  0
  -20.5890  -26.9050   22.5300 C   0  0  0  0  0  2  0  0  0  0  0  0
  -19.4530  -26.6130   21.5440 C   0  0  0  0  0  2  0  0  0  0  0  0
  -18.0930  -26.7810   22.2260 C   0  0  0  0  0  2  0  0  0  0  0  0
  -19.1100  -28.8640   23.3220 C   0  0  0  0  0  0  0  0  0  0  0  0
  -18.9320  -30.1220   23.9380 C   0  0  0  0  0  3  0  0  0  0  0  0
  -17.6430  -30.6440   24.1520 C   0  0  0  0  0  3  0  0  0  0  0  0
  -16.5120  -29.9050   23.7630 C   0  0  0  0  0  3  0  0  0  0  0  0
  -16.6730  -28.6480   23.1510 C   0  0  0  0  0  3  0  0  0  0  0  0
  -25.7990  -32.5080   23.7060 C   0  0  0  0  0  3  0  0  0  0  0  0
  -25.4460  -33.9010   24.0370 N   0  0  0  0  0  0  0  0  0  0  0  0
  -25.8030  -34.9750   23.3220 C   0  0  0  0  0  0  0  0  0  0  0  0
  -26.5260  -34.9000   22.3260 O   0  0  0  0  0  0  0  0  0  0  0  0
  -24.8070  -34.0290   24.8080 H   0  0  0  0  0  0  0  0  0  0  0  0
  -24.1000  -36.7790   22.8900 C   0  0  0  0  0  1  0  0  0  0  0  0
  -25.2780  -36.3510   23.7800 C   0  0  0  0  0  3  0  0  0  0  0  0
  -27.3400  -37.2180   24.7960 C   0  0  0  0  0  1  0  0  0  0  0  0
  -26.3120  -37.4110   23.7760 N   0  0  0  0  0  0  0  0  0  0  0  0
  -25.8910  -38.3250   23.9170 H   0  0  0  0  0  0  0  0  0  0  0  0
  -26.3160  -31.7600   24.9970 C   0  0  1  0  0  0  0  0  0  0  0  0
  -25.2140  -31.5110   26.0540 C   0  0  0  0  0  1  0  0  0  0  0  0
  -26.9350  -30.3920   24.6360 C   0  0  0  0  0  1  0  0  0  0  0  0
  -27.4410  -32.5840   25.6660 C   0  0  0  0  0  1  0  0  0  0  0  0
  -29.1560  -21.6570   20.5530 C   0  0  0  0  0  2  0  0  0  0  0  0
  -28.9870  -19.8110   20.5820 C   0  0  0  0  0  3  0  0  0  0  0  0
  -29.9840  -18.3020   20.2760 C   0  0  0  0  0  3  0  0  0  0  0  0
  -30.4490  -15.3450   20.2780 C   0  0  0  0  0  0  0  0  0  0  0  0
  -30.4100  -12.9020   19.3590 C   0  0  0  0  0  2  0  0  0  0  0  0
  -29.4810  -12.6950   18.1340 C   0  0  0  0  0  2  0  0  0  0  0  0
  -28.0410  -12.4060   18.5900 C   0  0  0  0  0  2  0  0  0  0  0  0
  -27.5980  -13.3610   19.7260 C   0  0  0  0  0  3  0  0  0  0  0  0
  -28.6550  -13.5100   20.8420 C   0  0  0  0  0  2  0  0  0  0  0  0
  -29.8740  -14.0370   20.2050 N   0  0  0  0  0  0  0  0  0  0  0  0
  -31.6630  -15.3310   20.0280 O   0  0  0  0  0  0  0  0  0  0  0  0
  -29.7070  -16.6380   20.4310 N   0  0  0  0  0  0  0  0  0  0  0  0
  -28.7310  -16.4480   20.6140 H   0  0  0  0  0  0  0  0  0  0  0  0
  -25.2330  -13.9090   20.5010 C   0  0  0  0  0  0  0  0  0  0  0  0
  -24.1770  -13.1280   20.8750 C   0  0  0  0  0  0  0  0  0  0  0  0
  -24.6480  -11.7790   20.8380 C   0  0  0  0  0  0  0  0  0  0  0  0
  -26.2760  -13.0370   20.2460 N   0  0  0  0  0  0  0  0  0  0  0  0
  -25.9380  -11.7500   20.5190 N   0  0  0  0  0  0  0  0  0  0  0  0
  -23.9260  -10.5140   21.0280 C   0  0  0  0  0  0  0  0  0  0  0  0
  -24.3610   -9.5460   21.9590 C   0  0  0  0  0  3  0  0  0  0  0  0
  -23.6360   -8.3480   22.1390 C   0  0  0  0  0  3  0  0  0  0  0  0
  -22.4610   -8.1100   21.3880 C   0  0  0  0  0  0  0  0  0  0  0  0
  -22.0430   -9.0670   20.4460 C   0  0  0  0  0  3  0  0  0  0  0  0
  -22.7690  -10.2560   20.2650 C   0  0  0  0  0  3  0  0  0  0  0  0
  -21.7060   -6.9660   21.4780 O   0  0  0  0  0  0  0  0  0  0  0  0
  -21.6540   -6.2270   22.6340 C   0  0  0  0  0  0  0  0  0  0  0  0
  -21.2120   -6.7820   23.8550 C   0  0  0  0  0  3  0  0  0  0  0  0
  -21.1090   -5.9680   25.0010 C   0  0  0  0  0  3  0  0  0  0  0  0
  -21.4360   -4.6020   24.9270 C   0  0  0  0  0  0  0  0  0  0  0  0
  -21.8710   -4.0460   23.7100 C   0  0  0  0  0  3  0  0  0  0  0  0
  -21.9760   -4.8560   22.5660 C   0  0  0  0  0  0  0  0  0  0  0  0
  -22.3760   -4.3120   21.3930 F   0  0  0  0  0  0  0  0  0  0  0  0
  -21.3290   -3.8180   26.0250 F   0  0  0  0  0  0  0  0  0  0  0  0
  -22.7800  -13.6000   21.1490 C   0  0  0  0  0  0  0  0  0  0  0  0
  -22.0560  -12.8970   22.0120 N   0  0  0  0  0  0  0  0  0  0  0  0
  -22.3420  -14.6290   20.6360 O   0  0  0  0  0  0  0  0  0  0  0  0
  -22.4270  -12.0660   22.4470 H   0  0  0  0  0  0  0  0  0  0  0  0
  -21.1170  -13.1940   22.2390 H   0  0  0  0  0  0  0  0  0  0  0  0
  -25.3870  -15.2810   20.3260 N   0  0  0  0  0  0  0  0  0  0  0  0
  -24.6080  -15.9220   20.4270 H   0  0  0  0  0  0  0  0  0  0  0  0
  -26.2160  -15.7240   19.9520 H   0  0  0  0  0  0  0  0  0  0  0  0
  1  2  2  0
  2  6  1  0
  2 12  1  0
  3  6  1  0
  4  1  1  0
  5  1  1  0
  5  3  2  0
  6 53  1  0
  9  8  1  6
  9  7  1  0
  9  3  1  0
 11  9  1  0
 11 10  1  0
 13 24  2  0
 14 12  1  0
 14 19  1  0
 15 23  1  0
 15 25  1  0
 16 22  1  0
 16 18  1  0
 17 23  1  0
 18 19  2  0
 18 17  1  0
 20 14  2  0
 21 20  1  0
 21 16  2  0
 22 15  1  0
 23 13  1  0
 25 27  2  0
 26 25  1  0
 28 26  1  0
 29 38  2  0
 29 34  1  0
 30 26  1  0
 30 34  1  0
 31 30  1  0
 32 33  1  0
 32 31  1  0
 33 29  1  0
 34 35  2  0
 35 36  1  0
 37 36  2  0
 38 37  1  0
 39 13  1  0
 39 40  1  0
 39 49  1  0
 40 43  1  0
 41 45  1  0
 41 40  1  0
 42 41  2  0
 45 44  1  0
 47 45  1  0
 47 48  1  0
 47 46  1  0
 49 52  1  1
 49 50  1  0
 51 49  1  0
 53 54  1  0
 55 64  1  0
 55 54  2  0
 56 64  1  0
 57 62  1  0
 58 59  1  0
 58 57  1  0
 60 59  1  0
 60 69  1  0
 60 61  1  0
 62 56  1  0
 62 61  1  0
 63 56  2  0
 64 65  1  0
 66 67  2  0
 67 86  1  0
 68 67  1  0
 68 71  1  0
 69 66  1  0
 69 70  1  0
 70 68  2  0
 71 72  1  0
 72 73  2  0
 74 77  1  0
 74 73  1  0
 75 74  2  0
 76 75  1  0
 76 71  2  0
 77 78  1  0
 78 79  1  0
 79 80  2  0
 81 80  1  0
 81 85  1  0
 82 81  2  0
 83 78  2  0
 83 82  1  0
 84 83  1  0
 86 87  1  0
 87 90  1  0
 87 89  1  0
 88 86  2  0
 91 92  1  0
 91 66  1  0
 93 91  1  0
M  ISO  4   2 101  12 101  56 100  64 100
M  END
>  <TORSDO>  (67) 
F 21

>  <SCORE>  (67) 
-15.150

>  <name>  (67) 
66

>  <ligand_id>  (67) 
66

>  <original_smiles>  (67) 
[H]c1c([H])c([H])c2c(c1[H])C([H])([H])C([H])([H])C([H])([H])C2([H])N([H])C(=O)C1([H])N(C(=O)C([H])(N([H])C(=O)C([H])(N([H])C([H])([H])[H])C([H])([H])[H])C(C([H])([H])[H])(C([H])([H])[H])C([H])([H])[H])C([H])([H])c2c([H])c(Oc3c(C([H])([H])[H])nc(C(C([H])([H])[H])(C([H])([H])[H])C([H])([H])C([H])([H])[H])n3C([H])([H])C([H])([H])C([H])([H])N([H])C(=O)N3C([H])([H])C([H])([H])C([H])([H])C([H])(n4nc(-c5c([H])c([H])c(Oc6c([H])c([H])c(F)c([H])c6F)c([H])c5[H])c(C(=O)N([H])[H])c4N([H])[H])C3([H])[H])c([H])c([H])c2C1([H])[H]

>  <smiles>  (67) 
[H]c1c([H])c([H])c2c(c1[H])C([H])([H])C([H])([H])C([H])([H])C2([H])N([H])C(=O)C1([H])N(C(=O)C([H])(N([H])C(=O)C([H])(N([H])C([H])([H])[H])C([H])([H])[H])C(C([H])([H])[H])(C([H])([H])[H])C([H])([H])[H])C([H])([H])c2c([H])c(Oc3c(C([H])([H])[H])nc(C(C([H])([H])[H])(C([H])([H])[H])C([H])([H])C([H])([H])[H])n3C([H])([H])C([H])([H])C([H])([H])N([H])C(=O)N3C([H])([H])C([H])([H])C([H])([H])C([H])(n4nc(-c5c([H])c([H])c(Oc6c([H])c([H])c(F)c([H])c6F)c([H])c5[H])c(C(=O)N([H])[H])c4N([H])[H])C3([H])[H])c([H])c([H])c2C1([H])[H]

$$$$
67:0:0
     RDKit          3D

 94102  0  0  1  0  0  0  0  0999 V2000
  -28.0990  -20.8640   18.8460 C   0  0  0  0  0  3  0  0  0  0  0  0
  -29.4200  -18.6610   20.1630 C   0  0  0  0  0  0  0  0  0  0  0  0
  -28.8150  -21.1700   20.0260 C   0  0  0  0  0  0  0  0  0  0  0  0
  -28.0350  -19.5520   18.3350 C   0  0  0  0  0  0  0  0  0  0  0  0
  -28.6810  -18.4720   18.9750 C   0  0  0  0  0  0  0  0  0  0  0  0
  -29.4680  -20.0350   20.6740 C   0  0  0  0  0  0  0  0  0  0  0  0
  -27.3330  -19.3250   17.1990 F   0  0  0  0  0  0  0  0  0  0  0  0
  -28.5930  -17.2410   18.4160 F   0  0  0  0  0  0  0  0  0  0  0  0
  -30.3540  -20.3500   22.1240 Cl  0  0  0  0  0  0  0  0  0  0  0  0
  -28.5140  -23.7940   19.9670 C   0  0  0  0  0  0  0  0  0  0  0  0
  -28.7930  -22.5640   20.5650 N   0  0  0  0  0  0  0  0  0  0  0  0
  -28.4790  -23.9100   18.7400 O   0  0  0  0  0  0  0  0  0  0  0  0
  -28.9740  -22.6210   21.5580 H   0  0  0  0  0  0  0  0  0  0  0  0
  -28.2390  -25.1120   20.8430 C   0  0  0  0  0  2  0  0  0  0  0  0
  -28.3740  -26.4700   20.2090 O   0  0  0  0  0  0  0  0  0  0  0  0
  -24.6070  -31.9130   23.2300 C   0  0  0  0  0  0  0  0  0  0  0  0
  -27.2640  -27.3400   20.2070 C   0  0  0  0  0  0  0  0  0  0  0  0
  -23.4270  -30.5090   21.5780 C   0  0  0  0  0  3  0  0  0  0  0  0
  -24.8990  -28.9610   20.1650 C   0  0  0  0  0  0  0  0  0  0  0  0
  -25.9670  -30.8360   21.4170 C   0  0  0  0  0  2  0  0  0  0  0  0
  -26.0620  -29.4530   20.7710 C   0  0  0  0  0  0  0  0  0  0  0  0
  -27.2510  -28.6570   20.7750 C   0  0  0  0  0  3  0  0  0  0  0  0
  -26.0790  -26.9030   19.5810 C   0  0  0  0  0  3  0  0  0  0  0  0
  -24.9110  -27.6940   19.5590 C   0  0  0  0  0  3  0  0  0  0  0  0
  -23.6570  -29.8330   20.2000 C   0  0  0  0  0  2  0  0  0  0  0  0
  -24.6860  -31.1040   22.1320 N   0  0  0  0  0  0  0  0  0  0  0  0
  -23.5170  -32.1830   23.7560 O   0  0  0  0  0  0  0  0  0  0  0  0
  -22.7590  -29.4910   22.5320 C   0  0  0  0  0  0  0  0  0  0  0  0
  -21.4320  -29.3140   22.4010 N   0  0  0  0  0  0  0  0  0  0  0  0
  -23.4340  -28.8610   23.3520 O   0  0  0  0  0  0  0  0  0  0  0  0
  -20.9460  -29.8740   21.7130 H   0  0  0  0  0  0  0  0  0  0  0  0
  -18.0510  -28.1260   22.8970 C   0  0  0  0  0  0  0  0  0  0  0  0
  -20.6100  -28.3730   23.1650 C   0  0  0  0  0  3  0  0  0  0  0  0
  -20.7060  -26.9470   22.5740 C   0  0  0  0  0  2  0  0  0  0  0  0
  -19.6010  -26.6390   21.5590 C   0  0  0  0  0  2  0  0  0  0  0  0
  -18.2210  -26.7840   22.2070 C   0  0  0  0  0  2  0  0  0  0  0  0
  -19.1730  -28.8800   23.3330 C   0  0  0  0  0  0  0  0  0  0  0  0
  -18.9600  -30.1380   23.9370 C   0  0  0  0  0  3  0  0  0  0  0  0
  -17.6580  -30.6420   24.1120 C   0  0  0  0  0  3  0  0  0  0  0  0
  -16.5490  -29.8840   23.6930 C   0  0  0  0  0  3  0  0  0  0  0  0
  -16.7470  -28.6290   23.0920 C   0  0  0  0  0  3  0  0  0  0  0  0
  -25.8790  -32.5520   23.8660 C   0  0  0  0  0  3  0  0  0  0  0  0
  -26.3820  -31.7890   25.1530 C   0  0  1  0  0  0  0  0  0  0  0  0
  -25.2750  -31.5530   26.2080 C   0  0  0  0  0  1  0  0  0  0  0  0
  -26.9730  -30.4110   24.7760 C   0  0  0  0  0  1  0  0  0  0  0  0
  -27.5210  -32.5900   25.8260 C   0  0  0  0  0  1  0  0  0  0  0  0
  -25.5620  -33.9510   24.1880 N   0  0  0  0  0  0  0  0  0  0  0  0
  -25.8920  -35.0030   23.4280 C   0  0  0  0  0  0  0  0  0  0  0  0
  -26.5640  -34.8990   22.3980 O   0  0  0  0  0  0  0  0  0  0  0  0
  -24.9680  -34.1070   24.9910 H   0  0  0  0  0  0  0  0  0  0  0  0
  -24.1670  -36.7940   23.0510 C   0  0  0  0  0  1  0  0  0  0  0  0
  -25.3980  -36.3920   23.8790 C   0  0  0  0  0  3  0  0  0  0  0  0
  -27.5170  -37.2830   24.7410 C   0  0  0  0  0  1  0  0  0  0  0  0
  -26.4310  -37.4460   23.7790 N   0  0  0  0  0  0  0  0  0  0  0  0
  -26.0200  -38.3660   23.9170 H   0  0  0  0  0  0  0  0  0  0  0  0
  -30.2070  -17.4160   20.7970 C   0  0  0  0  0  2  0  0  0  0  0  0
  -30.5850  -14.8220   20.3720 C   0  0  0  0  0  0  0  0  0  0  0  0
  -30.3990  -12.5470   19.3460 C   0  0  0  0  0  2  0  0  0  0  0  0
  -29.4580  -12.6110   18.1210 C   0  0  0  0  0  2  0  0  0  0  0  0
  -27.9900  -12.4310   18.5550 C   0  0  0  0  0  2  0  0  0  0  0  0
  -27.6130  -13.3230   19.7670 C   0  0  0  0  0  3  0  0  0  0  0  0
  -28.6690  -13.2360   20.8890 C   0  0  0  0  0  2  0  0  0  0  0  0
  -29.9620  -13.5970   20.2940 N   0  0  0  0  0  0  0  0  0  0  0  0
  -31.7760  -14.9260   20.0670 O   0  0  0  0  0  0  0  0  0  0  0  0
  -29.8060  -15.9450   20.6140 N   0  0  0  0  0  0  0  0  0  0  0  0
  -28.8310  -15.7490   20.7780 H   0  0  0  0  0  0  0  0  0  0  0  0
  -25.2240  -13.9120   20.4930 C   0  0  0  0  0  0  0  0  0  0  0  0
  -24.1590  -13.1370   20.8630 C   0  0  0  0  0  0  0  0  0  0  0  0
  -24.6240  -11.7860   20.8320 C   0  0  0  0  0  0  0  0  0  0  0  0
  -26.2680  -13.0330   20.2580 N   0  0  0  0  0  0  0  0  0  0  0  0
  -25.9150  -11.7500   20.5260 N   0  0  0  0  0  0  0  0  0  0  0  0
  -23.8980  -10.5230   21.0190 C   0  0  0  0  0  0  0  0  0  0  0  0
  -24.3210   -9.5620   21.9630 C   0  0  0  0  0  3  0  0  0  0  0  0
  -23.5950   -8.3630   22.1380 C   0  0  0  0  0  3  0  0  0  0  0  0
  -22.4330   -8.1180   21.3690 C   0  0  0  0  0  0  0  0  0  0  0  0
  -22.0300   -9.0690   20.4140 C   0  0  0  0  0  3  0  0  0  0  0  0
  -22.7570  -10.2580   20.2370 C   0  0  0  0  0  3  0  0  0  0  0  0
  -21.6800   -6.9720   21.4520 O   0  0  0  0  0  0  0  0  0  0  0  0
  -21.6030   -6.2440   22.6120 C   0  0  0  0  0  0  0  0  0  0  0  0
  -21.1060   -6.8030   23.8100 C   0  0  0  0  0  3  0  0  0  0  0  0
  -20.9800   -6.0000   24.9620 C   0  0  0  0  0  3  0  0  0  0  0  0
  -21.3390   -4.6390   24.9160 C   0  0  0  0  0  0  0  0  0  0  0  0
  -21.8290   -4.0800   23.7220 C   0  0  0  0  0  3  0  0  0  0  0  0
  -21.9570   -4.8810   22.5730 C   0  0  0  0  0  0  0  0  0  0  0  0
  -22.4090   -4.3320   21.4200 F   0  0  0  0  0  0  0  0  0  0  0  0
  -21.2110   -3.8660   26.0190 F   0  0  0  0  0  0  0  0  0  0  0  0
  -22.7610  -13.6120   21.1300 C   0  0  0  0  0  0  0  0  0  0  0  0
  -22.0290  -12.9100   21.9870 N   0  0  0  0  0  0  0  0  0  0  0  0
  -22.3260  -14.6410   20.6130 O   0  0  0  0  0  0  0  0  0  0  0  0
  -22.3940  -12.0780   22.4260 H   0  0  0  0  0  0  0  0  0  0  0  0
  -21.0900  -13.2090   22.2090 H   0  0  0  0  0  0  0  0  0  0  0  0
  -25.3860  -15.2830   20.3140 N   0  0  0  0  0  0  0  0  0  0  0  0
  -24.6080  -15.9280   20.4050 H   0  0  0  0  0  0  0  0  0  0  0  0
  -26.2150  -15.7170   19.9300 H   0  0  0  0  0  0  0  0  0  0  0  0
  1  3  1  0
  2  6  1  0
  2 56  1  0
  3 11  1  0
  3  6  2  0
  4  1  2  0
  4  5  1  0
  5  2  2  0
  6  9  1  0
  7  4  1  0
  8  5  1  0
 10 11  1  0
 10 14  1  0
 11 13  1  0
 12 10  2  0
 15 14  1  0
 16 27  2  0
 17 15  1  0
 17 22  1  0
 18 26  1  0
 18 28  1  0
 19 25  1  0
 19 21  1  0
 20 26  1  0
 21 22  2  0
 21 20  1  0
 23 17  2  0
 24 23  1  0
 24 19  2  0
 25 18  1  0
 26 16  1  0
 28 30  2  0
 29 28  1  0
 31 29  1  0
 32 41  2  0
 32 37  1  0
 33 29  1  0
 33 37  1  0
 34 33  1  0
 35 36  1  0
 35 34  1  0
 36 32  1  0
 37 38  2  0
 38 39  1  0
 40 39  2  0
 41 40  1  0
 42 16  1  0
 42 47  1  0
 42 43  1  0
 43 46  1  1
 43 44  1  0
 45 43  1  0
 47 50  1  0
 48 52  1  0
 48 47  1  0
 49 48  2  0
 52 51  1  0
 54 52  1  0
 54 55  1  0
 54 53  1  0
 57 65  1  0
 58 63  1  0
 59 60  1  0
 59 58  1  0
 61 60  1  0
 61 70  1  0
 61 62  1  0
 63 57  1  0
 63 62  1  0
 64 57  2  0
 65 66  1  0
 65 56  1  0
 67 68  2  0
 68 87  1  0
 69 68  1  0
 69 72  1  0
 70 67  1  0
 70 71  1  0
 71 69  2  0
 72 73  1  0
 73 74  2  0
 75 78  1  0
 75 74  1  0
 76 75  2  0
 77 76  1  0
 77 72  2  0
 78 79  1  0
 79 80  1  0
 80 81  2  0
 82 81  1  0
 82 86  1  0
 83 82  2  0
 84 79  2  0
 84 83  1  0
 85 84  1  0
 87 88  1  0
 88 91  1  0
 88 90  1  0
 89 87  2  0
 92 93  1  0
 92 67  1  0
 94 92  1  0
M  ISO  4  14 101  15 101  57 100  65 100
M  END
>  <TORSDO>  (68) 
F 19

>  <SCORE>  (68) 
-14.620

>  <name>  (68) 
67

>  <ligand_id>  (68) 
67

>  <original_smiles>  (68) 
[H]c1c([H])c([H])c2c(c1[H])C([H])([H])C([H])([H])C([H])([H])C2([H])N([H])C(=O)C1([H])N(C(=O)C([H])(N([H])C(=O)C([H])(N([H])C([H])([H])[H])C([H])([H])[H])C(C([H])([H])[H])(C([H])([H])[H])C([H])([H])[H])C([H])([H])c2c([H])c(OC([H])([H])C(=O)N([H])c3c([H])c(F)c(F)c(C([H])([H])N([H])C(=O)N4C([H])([H])C([H])([H])C([H])([H])C([H])(n5nc(-c6c([H])c([H])c(Oc7c([H])c([H])c(F)c([H])c7F)c([H])c6[H])c(C(=O)N([H])[H])c5N([H])[H])C4([H])[H])c3Cl)c([H])c([H])c2C1([H])[H]

>  <smiles>  (68) 
[H]c1c([H])c([H])c2c(c1[H])C([H])([H])C([H])([H])C([H])([H])C2([H])N([H])C(=O)C1([H])N(C(=O)C([H])(N([H])C(=O)C([H])(N([H])C([H])([H])[H])C([H])([H])[H])C(C([H])([H])[H])(C([H])([H])[H])C([H])([H])[H])C([H])([H])c2c([H])c(OC([H])([H])C(=O)N([H])c3c([H])c(F)c(F)c(C([H])([H])N([H])C(=O)N4C([H])([H])C([H])([H])C([H])([H])C([H])(n5nc(-c6c([H])c([H])c(Oc7c([H])c([H])c(F)c([H])c7F)c([H])c6[H])c(C(=O)N([H])[H])c5N([H])[H])C4([H])[H])c3Cl)c([H])c([H])c2C1([H])[H]

$$$$
68:0:0
     RDKit          3D

 93101  0  0  1  0  0  0  0  0999 V2000
  -28.3810  -21.0780   20.3280 C   0  0  0  0  0  2  0  0  0  0  0  0
  -30.7960  -20.2250   20.6310 C   0  0  0  0  0  3  0  0  0  0  0  0
  -31.7660  -19.2230   20.8340 C   0  0  0  0  0  3  0  0  0  0  0  0
  -29.4490  -19.8890   20.4140 C   0  0  0  0  0  0  0  0  0  0  0  0
  -30.1320  -17.3970   20.5200 C   0  0  0  0  0  0  0  0  0  0  0  0
  -31.4480  -17.8480   20.8070 C   0  0  0  0  0  0  0  0  0  0  0  0
  -29.1390  -18.4580   20.3580 C   0  0  0  0  0  0  0  0  0  0  0  0
  -32.4380  -16.9800   21.1230 F   0  0  0  0  0  0  0  0  0  0  0  0
  -27.8520  -18.0850   20.1560 F   0  0  0  0  0  0  0  0  0  0  0  0
  -30.5610  -14.8020   20.1890 C   0  0  0  0  0  0  0  0  0  0  0  0
  -30.3280  -12.5350   19.1520 C   0  0  0  0  0  2  0  0  0  0  0  0
  -29.3530  -12.6170   17.9570 C   0  0  0  0  0  2  0  0  0  0  0  0
  -27.9010  -12.4290   18.4320 C   0  0  0  0  0  2  0  0  0  0  0  0
  -27.5620  -13.2970   19.6730 C   0  0  0  0  0  3  0  0  0  0  0  0
  -28.6560  -13.2070   20.7600 C   0  0  0  0  0  2  0  0  0  0  0  0
  -29.9270  -13.5770   20.1270 N   0  0  0  0  0  0  0  0  0  0  0  0
  -31.7230  -14.8790   19.7880 O   0  0  0  0  0  0  0  0  0  0  0  0
  -29.7980  -15.9360   20.4740 N   0  0  0  0  0  0  0  0  0  0  0  0
  -28.8220  -15.7400   20.6230 H   0  0  0  0  0  0  0  0  0  0  0  0
  -25.1970  -13.8680   20.4880 C   0  0  0  0  0  0  0  0  0  0  0  0
  -24.1470  -13.0840   20.8790 C   0  0  0  0  0  0  0  0  0  0  0  0
  -24.6130  -11.7350   20.8140 C   0  0  0  0  0  0  0  0  0  0  0  0
  -26.2360  -12.9960   20.2030 N   0  0  0  0  0  0  0  0  0  0  0  0
  -25.8940  -11.7080   20.4640 N   0  0  0  0  0  0  0  0  0  0  0  0
  -23.8970  -10.4670   21.0100 C   0  0  0  0  0  0  0  0  0  0  0  0
  -24.3490   -9.4990   21.9330 C   0  0  0  0  0  3  0  0  0  0  0  0
  -23.6310   -8.2980   22.1170 C   0  0  0  0  0  3  0  0  0  0  0  0
  -22.4500   -8.0550   21.3770 C   0  0  0  0  0  0  0  0  0  0  0  0
  -22.0180   -9.0130   20.4430 C   0  0  0  0  0  3  0  0  0  0  0  0
  -22.7360  -10.2060   20.2570 C   0  0  0  0  0  3  0  0  0  0  0  0
  -21.7030   -6.9060   21.4710 O   0  0  0  0  0  0  0  0  0  0  0  0
  -21.6600   -6.1680   22.6270 C   0  0  0  0  0  0  0  0  0  0  0  0
  -21.2190   -6.7210   23.8480 C   0  0  0  0  0  3  0  0  0  0  0  0
  -21.1230   -5.9090   24.9950 C   0  0  0  0  0  3  0  0  0  0  0  0
  -21.4580   -4.5430   24.9220 C   0  0  0  0  0  0  0  0  0  0  0  0
  -21.8920   -3.9890   23.7050 C   0  0  0  0  0  3  0  0  0  0  0  0
  -21.9900   -4.7990   22.5600 C   0  0  0  0  0  0  0  0  0  0  0  0
  -22.3890   -4.2560   21.3850 F   0  0  0  0  0  0  0  0  0  0  0  0
  -21.3600   -3.7610   26.0230 F   0  0  0  0  0  0  0  0  0  0  0  0
  -22.7580  -13.5550   21.1980 C   0  0  0  0  0  0  0  0  0  0  0  0
  -22.0560  -12.8420   22.0720 N   0  0  0  0  0  0  0  0  0  0  0  0
  -22.3050  -14.5900   20.7110 O   0  0  0  0  0  0  0  0  0  0  0  0
  -22.4370  -12.0060   22.4910 H   0  0  0  0  0  0  0  0  0  0  0  0
  -21.1270  -13.1390   22.3310 H   0  0  0  0  0  0  0  0  0  0  0  0
  -25.3470  -15.2420   20.3280 N   0  0  0  0  0  0  0  0  0  0  0  0
  -24.5720  -15.8770   20.4790 H   0  0  0  0  0  0  0  0  0  0  0  0
  -26.1700  -15.7090   19.9680 H   0  0  0  0  0  0  0  0  0  0  0  0
  -28.2230  -23.7300   20.4200 C   0  0  0  0  0  0  0  0  0  0  0  0
  -28.7550  -22.5250   19.9710 N   0  0  0  0  0  0  0  0  0  0  0  0
  -27.5390  -23.7560   21.4450 O   0  0  0  0  0  0  0  0  0  0  0  0
  -29.3350  -22.6120   19.1470 H   0  0  0  0  0  0  0  0  0  0  0  0
  -28.4120  -25.0970   19.5920 C   0  0  0  0  0  2  0  0  0  0  0  0
  -28.2830  -26.4310   20.2850 O   0  0  0  0  0  0  0  0  0  0  0  0
  -24.5850  -31.9250   23.2220 C   0  0  0  0  0  0  0  0  0  0  0  0
  -27.1670  -27.2960   20.1860 C   0  0  0  0  0  0  0  0  0  0  0  0
  -23.3760  -30.5280   21.5850 C   0  0  0  0  0  3  0  0  0  0  0  0
  -24.8190  -28.9560   20.1640 C   0  0  0  0  0  0  0  0  0  0  0  0
  -25.9200  -30.8180   21.4060 C   0  0  0  0  0  2  0  0  0  0  0  0
  -25.9900  -29.4320   20.7640 C   0  0  0  0  0  0  0  0  0  0  0  0
  -27.1630  -28.6110   20.7670 C   0  0  0  0  0  3  0  0  0  0  0  0
  -25.9690  -26.8830   19.5650 C   0  0  0  0  0  3  0  0  0  0  0  0
  -24.8130  -27.6900   19.5550 C   0  0  0  0  0  3  0  0  0  0  0  0
  -23.5890  -29.8440   20.2080 C   0  0  0  0  0  2  0  0  0  0  0  0
  -24.6460  -31.1090   22.1280 N   0  0  0  0  0  0  0  0  0  0  0  0
  -23.5020  -32.2110   23.7540 O   0  0  0  0  0  0  0  0  0  0  0  0
  -22.7040  -29.5210   22.5500 C   0  0  0  0  0  0  0  0  0  0  0  0
  -21.3750  -29.3610   22.4310 N   0  0  0  0  0  0  0  0  0  0  0  0
  -23.3800  -28.8860   23.3650 O   0  0  0  0  0  0  0  0  0  0  0  0
  -20.8890  -29.9240   21.7460 H   0  0  0  0  0  0  0  0  0  0  0  0
  -17.9850  -28.2090   22.9550 C   0  0  0  0  0  0  0  0  0  0  0  0
  -20.5490  -28.4330   23.2060 C   0  0  0  0  0  3  0  0  0  0  0  0
  -20.6270  -27.0010   22.6260 C   0  0  0  0  0  2  0  0  0  0  0  0
  -19.5130  -26.6960   21.6190 C   0  0  0  0  0  2  0  0  0  0  0  0
  -18.1380  -26.8590   22.2740 C   0  0  0  0  0  2  0  0  0  0  0  0
  -19.1180  -28.9550   23.3790 C   0  0  0  0  0  0  0  0  0  0  0  0
  -18.9200  -30.2180   23.9760 C   0  0  0  0  0  3  0  0  0  0  0  0
  -17.6230  -30.7360   24.1550 C   0  0  0  0  0  3  0  0  0  0  0  0
  -16.5060  -29.9880   23.7460 C   0  0  0  0  0  3  0  0  0  0  0  0
  -16.6880  -28.7260   23.1520 C   0  0  0  0  0  3  0  0  0  0  0  0
  -25.8700  -32.5550   23.8440 C   0  0  0  0  0  3  0  0  0  0  0  0
  -26.3840  -31.7820   25.1210 C   0  0  1  0  0  0  0  0  0  0  0  0
  -25.2900  -31.5470   26.1900 C   0  0  0  0  0  1  0  0  0  0  0  0
  -26.9620  -30.4020   24.7290 C   0  0  0  0  0  1  0  0  0  0  0  0
  -27.5370  -32.5710   25.7850 C   0  0  0  0  0  1  0  0  0  0  0  0
  -25.5650  -33.9540   24.1780 N   0  0  0  0  0  0  0  0  0  0  0  0
  -25.8970  -35.0080   23.4210 C   0  0  0  0  0  0  0  0  0  0  0  0
  -26.5640  -34.9050   22.3880 O   0  0  0  0  0  0  0  0  0  0  0  0
  -24.9740  -34.1070   24.9820 H   0  0  0  0  0  0  0  0  0  0  0  0
  -24.1790  -36.8120   23.0740 C   0  0  0  0  0  1  0  0  0  0  0  0
  -25.4180  -36.3980   23.8840 C   0  0  0  0  0  3  0  0  0  0  0  0
  -27.5550  -37.2720   24.7210 C   0  0  0  0  0  1  0  0  0  0  0  0
  -26.4550  -37.4470   23.7760 N   0  0  0  0  0  0  0  0  0  0  0  0
  -26.0520  -38.3690   23.9250 H   0  0  0  0  0  0  0  0  0  0  0  0
  1  4  1  0
  2  3  1  0
  4  2  2  0
  5  6  1  0
  6  3  2  0
  6  8  1  0
  7  4  1  0
  7  5  2  0
  9  7  1  0
 10 18  1  0
 11 16  1  0
 12 13  1  0
 12 11  1  0
 14 13  1  0
 14 23  1  0
 14 15  1  0
 16 10  1  0
 16 15  1  0
 17 10  2  0
 18  5  1  0
 18 19  1  0
 20 21  2  0
 21 40  1  0
 22 21  1  0
 22 25  1  0
 23 24  1  0
 23 20  1  0
 24 22  2  0
 25 26  1  0
 26 27  2  0
 28 31  1  0
 28 27  1  0
 29 28  2  0
 30 29  1  0
 30 25  2  0
 31 32  1  0
 32 33  1  0
 33 34  2  0
 35 34  1  0
 35 39  1  0
 36 35  2  0
 37 32  2  0
 37 36  1  0
 38 37  1  0
 40 41  1  0
 41 44  1  0
 41 43  1  0
 42 40  2  0
 45 46  1  0
 45 20  1  0
 47 45  1  0
 48 50  2  0
 49  1  1  0
 49 48  1  0
 51 49  1  0
 52 53  1  0
 52 48  1  0
 54 65  2  0
 55 53  1  0
 55 60  1  0
 56 64  1  0
 56 66  1  0
 57 63  1  0
 57 59  1  0
 58 64  1  0
 59 60  2  0
 59 58  1  0
 61 55  2  0
 62 61  1  0
 62 57  2  0
 63 56  1  0
 64 54  1  0
 66 68  2  0
 67 66  1  0
 69 67  1  0
 70 79  2  0
 70 75  1  0
 71 67  1  0
 71 75  1  0
 72 71  1  0
 73 74  1  0
 73 72  1  0
 74 70  1  0
 75 76  2  0
 76 77  1  0
 78 77  2  0
 79 78  1  0
 80 54  1  0
 80 85  1  0
 80 81  1  0
 81 84  1  1
 81 82  1  0
 83 81  1  0
 85 88  1  0
 86 90  1  0
 86 85  1  0
 87 86  2  0
 90 89  1  0
 92 90  1  0
 92 93  1  0
 92 91  1  0
M  ISO  4  10 100  18 100  52 101  53 101
M  END
>  <TORSDO>  (69) 
F 19

>  <SCORE>  (69) 
-14.512

>  <name>  (69) 
68

>  <ligand_id>  (69) 
68

>  <original_smiles>  (69) 
[H]c1c([H])c([H])c2c(c1[H])C([H])([H])C([H])([H])C([H])([H])C2([H])N([H])C(=O)C1([H])N(C(=O)C([H])(N([H])C(=O)C([H])(N([H])C([H])([H])[H])C([H])([H])[H])C(C([H])([H])[H])(C([H])([H])[H])C([H])([H])[H])C([H])([H])c2c([H])c(OC([H])([H])C(=O)N([H])C([H])([H])c3c([H])c([H])c(F)c(N([H])C(=O)N4C([H])([H])C([H])([H])C([H])([H])C([H])(n5nc(-c6c([H])c([H])c(Oc7c([H])c([H])c(F)c([H])c7F)c([H])c6[H])c(C(=O)N([H])[H])c5N([H])[H])C4([H])[H])c3F)c([H])c([H])c2C1([H])[H]

>  <smiles>  (69) 
[H]c1c([H])c([H])c2c(c1[H])C([H])([H])C([H])([H])C([H])([H])C2([H])N([H])C(=O)C1([H])N(C(=O)C([H])(N([H])C(=O)C([H])(N([H])C([H])([H])[H])C([H])([H])[H])C(C([H])([H])[H])(C([H])([H])[H])C([H])([H])[H])C([H])([H])c2c([H])c(OC([H])([H])C(=O)N([H])C([H])([H])c3c([H])c([H])c(F)c(N([H])C(=O)N4C([H])([H])C([H])([H])C([H])([H])C([H])(n5nc(-c6c([H])c([H])c(Oc7c([H])c([H])c(F)c([H])c7F)c([H])c6[H])c(C(=O)N([H])[H])c5N([H])[H])C4([H])[H])c3F)c([H])c([H])c2C1([H])[H]

$$$$
69:0:0
     RDKit          3D

 94102  0  0  1  0  0  0  0  0999 V2000
  -31.3820  -18.2400   20.5970 C   0  0  0  0  0  3  0  0  0  0  0  0
  -30.8750  -20.6730   20.5780 C   0  0  0  0  0  3  0  0  0  0  0  0
  -31.7950  -19.5970   20.6500 C   0  0  0  0  0  0  0  0  0  0  0  0
  -30.0280  -17.8480   20.4740 C   0  0  0  0  0  0  0  0  0  0  0  0
  -29.4840  -20.4870   20.4440 C   0  0  0  0  0  0  0  0  0  0  0  0
  -29.0980  -19.0290   20.4000 C   0  0  0  0  0  0  0  0  0  0  0  0
  -27.7770  -18.7520   20.2760 F   0  0  0  0  0  0  0  0  0  0  0  0
  -30.4730  -15.1080   20.3140 C   0  0  0  0  0  0  0  0  0  0  0  0
  -30.3570  -12.7480   19.3540 C   0  0  0  0  0  2  0  0  0  0  0  0
  -29.4150  -12.6800   18.1310 C   0  0  0  0  0  2  0  0  0  0  0  0
  -27.9620  -12.4400   18.5780 C   0  0  0  0  0  2  0  0  0  0  0  0
  -27.5520  -13.3590   19.7590 C   0  0  0  0  0  3  0  0  0  0  0  0
  -28.6190  -13.3990   20.8740 C   0  0  0  0  0  2  0  0  0  0  0  0
  -29.8710  -13.8440   20.2480 N   0  0  0  0  0  0  0  0  0  0  0  0
  -31.6780  -15.1370   20.0420 O   0  0  0  0  0  0  0  0  0  0  0  0
  -29.7050  -16.3200   20.4570 N   0  0  0  0  0  0  0  0  0  0  0  0
  -28.7200  -16.1300   20.5550 H   0  0  0  0  0  0  0  0  0  0  0  0
  -25.1770  -13.9040   20.5330 C   0  0  0  0  0  0  0  0  0  0  0  0
  -24.1240  -13.1160   20.9060 C   0  0  0  0  0  0  0  0  0  0  0  0
  -24.6000  -11.7700   20.8590 C   0  0  0  0  0  0  0  0  0  0  0  0
  -26.2260  -13.0380   20.2730 N   0  0  0  0  0  0  0  0  0  0  0  0
  -25.8880  -11.7490   20.5350 N   0  0  0  0  0  0  0  0  0  0  0  0
  -23.8850  -10.5000   21.0410 C   0  0  0  0  0  0  0  0  0  0  0  0
  -24.3200   -9.5340   21.9740 C   0  0  0  0  0  3  0  0  0  0  0  0
  -23.6030   -8.3300   22.1470 C   0  0  0  0  0  3  0  0  0  0  0  0
  -22.4360   -8.0840   21.3850 C   0  0  0  0  0  0  0  0  0  0  0  0
  -22.0200   -9.0390   20.4420 C   0  0  0  0  0  3  0  0  0  0  0  0
  -22.7380  -10.2330   20.2670 C   0  0  0  0  0  3  0  0  0  0  0  0
  -21.6900   -6.9330   21.4680 O   0  0  0  0  0  0  0  0  0  0  0  0
  -21.6250   -6.1990   22.6250 C   0  0  0  0  0  0  0  0  0  0  0  0
  -21.1420   -6.7510   23.8310 C   0  0  0  0  0  3  0  0  0  0  0  0
  -21.0260   -5.9410   24.9790 C   0  0  0  0  0  3  0  0  0  0  0  0
  -21.3830   -4.5810   24.9210 C   0  0  0  0  0  0  0  0  0  0  0  0
  -21.8590   -4.0290   23.7190 C   0  0  0  0  0  3  0  0  0  0  0  0
  -21.9760   -4.8340   22.5740 C   0  0  0  0  0  0  0  0  0  0  0  0
  -22.4160   -4.2920   21.4130 F   0  0  0  0  0  0  0  0  0  0  0  0
  -21.2650   -3.8000   26.0210 F   0  0  0  0  0  0  0  0  0  0  0  0
  -22.7250  -13.5790   21.1890 C   0  0  0  0  0  0  0  0  0  0  0  0
  -22.0080  -12.8740   22.0570 N   0  0  0  0  0  0  0  0  0  0  0  0
  -22.2760  -14.6050   20.6790 O   0  0  0  0  0  0  0  0  0  0  0  0
  -22.3840  -12.0440   22.4940 H   0  0  0  0  0  0  0  0  0  0  0  0
  -21.0690  -13.1660   22.2870 H   0  0  0  0  0  0  0  0  0  0  0  0
  -25.3230  -15.2780   20.3660 N   0  0  0  0  0  0  0  0  0  0  0  0
  -24.5430  -15.9150   20.4880 H   0  0  0  0  0  0  0  0  0  0  0  0
  -26.1480  -15.7350   20.0010 H   0  0  0  0  0  0  0  0  0  0  0  0
  -33.2770  -19.9330   20.7560 C   0  0  1  0  0  0  0  0  0  0  0  0
  -34.0070  -18.8870   21.1420 F   0  0  0  0  0  0  0  0  0  0  0  0
  -33.7160  -20.3370   19.5650 F   0  0  0  0  0  0  0  0  0  0  0  0
  -33.4730  -20.9170   21.6360 F   0  0  0  0  0  0  0  0  0  0  0  0
  -28.6330  -21.7300   20.3550 N   0  0  0  0  0  0  0  0  0  0  0  0
  -27.6380  -21.5420   20.2630 H   0  0  0  0  0  0  0  0  0  0  0  0
  -29.0090  -23.2720   20.4630 C   0  0  0  0  0  3  0  0  0  0  0  0
  -27.9520  -24.6050   20.2100 C   0  0  0  0  0  3  0  0  0  0  0  0
  -28.2190  -26.1600   20.3550 O   0  0  0  0  0  0  0  0  0  0  0  0
  -24.6310  -31.9490   23.2870 C   0  0  0  0  0  0  0  0  0  0  0  0
  -27.1750  -27.1720   20.2810 C   0  0  0  0  0  0  0  0  0  0  0  0
  -23.4250  -30.5610   21.6470 C   0  0  0  0  0  3  0  0  0  0  0  0
  -24.8650  -28.9640   20.2320 C   0  0  0  0  0  0  0  0  0  0  0  0
  -25.9840  -30.7940   21.4930 C   0  0  0  0  0  2  0  0  0  0  0  0
  -26.0490  -29.3960   20.8420 C   0  0  0  0  0  0  0  0  0  0  0  0
  -27.2040  -28.5180   20.8450 C   0  0  0  0  0  3  0  0  0  0  0  0
  -25.9630  -26.8510   19.6300 C   0  0  0  0  0  3  0  0  0  0  0  0
  -24.8380  -27.7060   19.6090 C   0  0  0  0  0  3  0  0  0  0  0  0
  -23.6470  -29.8770   20.2720 C   0  0  0  0  0  2  0  0  0  0  0  0
  -24.7010  -31.1250   22.1970 N   0  0  0  0  0  0  0  0  0  0  0  0
  -23.5440  -32.2440   23.8120 O   0  0  0  0  0  0  0  0  0  0  0  0
  -22.7320  -29.5640   22.6100 C   0  0  0  0  0  0  0  0  0  0  0  0
  -21.4040  -29.3990   22.4750 N   0  0  0  0  0  0  0  0  0  0  0  0
  -23.3930  -28.9390   23.4440 O   0  0  0  0  0  0  0  0  0  0  0  0
  -20.9270  -29.9510   21.7750 H   0  0  0  0  0  0  0  0  0  0  0  0
  -18.0140  -28.2170   22.9650 C   0  0  0  0  0  0  0  0  0  0  0  0
  -20.5720  -28.4710   23.2460 C   0  0  0  0  0  3  0  0  0  0  0  0
  -20.6720  -27.0360   22.6780 C   0  0  0  0  0  2  0  0  0  0  0  0
  -19.5740  -26.7130   21.6590 C   0  0  0  0  0  2  0  0  0  0  0  0
  -18.1890  -26.8650   22.2940 C   0  0  0  0  0  2  0  0  0  0  0  0
  -19.1320  -28.9780   23.3970 C   0  0  0  0  0  0  0  0  0  0  0  0
  -18.9140  -30.2410   23.9870 C   0  0  0  0  0  3  0  0  0  0  0  0
  -17.6090  -30.7450   24.1480 C   0  0  0  0  0  3  0  0  0  0  0  0
  -16.5050  -29.9820   23.7310 C   0  0  0  0  0  3  0  0  0  0  0  0
  -16.7080  -28.7210   23.1450 C   0  0  0  0  0  3  0  0  0  0  0  0
  -25.9110  -32.5770   23.9190 C   0  0  0  0  0  3  0  0  0  0  0  0
  -26.4040  -31.8140   25.2110 C   0  0  1  0  0  0  0  0  0  0  0  0
  -25.2950  -31.5990   26.2680 C   0  0  0  0  0  1  0  0  0  0  0  0
  -26.9770  -30.4250   24.8440 C   0  0  0  0  0  1  0  0  0  0  0  0
  -27.5560  -32.6030   25.8770 C   0  0  0  0  0  1  0  0  0  0  0  0
  -25.6100  -33.9820   24.2410 N   0  0  0  0  0  0  0  0  0  0  0  0
  -25.9330  -35.0300   23.4720 C   0  0  0  0  0  0  0  0  0  0  0  0
  -26.5810  -34.9150   22.4270 O   0  0  0  0  0  0  0  0  0  0  0  0
  -25.0360  -34.1440   25.0550 H   0  0  0  0  0  0  0  0  0  0  0  0
  -24.1980  -36.8260   23.1550 C   0  0  0  0  0  1  0  0  0  0  0  0
  -25.4650  -36.4260   23.9290 C   0  0  0  0  0  3  0  0  0  0  0  0
  -27.6240  -37.3200   24.6850 C   0  0  0  0  0  1  0  0  0  0  0  0
  -26.4960  -37.4750   23.7700 N   0  0  0  0  0  0  0  0  0  0  0  0
  -26.0960  -38.3980   23.9150 H   0  0  0  0  0  0  0  0  0  0  0  0
  1  3  1  0
  2  3  2  0
  3 46  1  0
  4  1  2  0
  5  2  1  0
  6  5  2  0
  6  4  1  0
  7  6  1  0
  8 16  1  0
  9 14  1  0
 10 11  1  0
 10  9  1  0
 12 11  1  0
 12 21  1  0
 12 13  1  0
 14  8  1  0
 14 13  1  0
 15  8  2  0
 16  4  1  0
 16 17  1  0
 18 19  2  0
 19 38  1  0
 20 19  1  0
 20 23  1  0
 21 18  1  0
 21 22  1  0
 22 20  2  0
 23 24  1  0
 24 25  2  0
 26 29  1  0
 26 25  1  0
 27 26  2  0
 28 27  1  0
 28 23  2  0
 29 30  1  0
 30 31  1  0
 31 32  2  0
 33 32  1  0
 33 37  1  0
 34 33  2  0
 35 30  2  0
 35 34  1  0
 36 35  1  0
 38 39  1  0
 39 42  1  0
 39 41  1  0
 40 38  2  0
 43 44  1  0
 43 18  1  0
 45 43  1  0
 46 47  1  1
 46 49  1  0
 48 46  1  0
 50  5  1  0
 50 52  1  0
 51 50  1  0
 53 54  1  0
 53 52  2  0
 55 66  2  0
 56 54  1  0
 56 61  1  0
 57 65  1  0
 57 67  1  0
 58 64  1  0
 58 60  1  0
 59 65  1  0
 60 61  2  0
 60 59  1  0
 62 56  2  0
 63 62  1  0
 63 58  2  0
 64 57  1  0
 65 55  1  0
 67 69  2  0
 68 67  1  0
 70 68  1  0
 71 80  2  0
 71 76  1  0
 72 68  1  0
 72 76  1  0
 73 72  1  0
 74 75  1  0
 74 73  1  0
 75 71  1  0
 76 77  2  0
 77 78  1  0
 79 78  2  0
 80 79  1  0
 81 55  1  0
 81 86  1  0
 81 82  1  0
 82 85  1  1
 82 83  1  0
 84 82  1  0
 86 89  1  0
 87 91  1  0
 87 86  1  0
 88 87  2  0
 91 90  1  0
 93 94  1  0
 93 91  1  0
 93 92  1  0
M  ISO  4   8 100  16 100  53 101  54 101
M  END
>  <TORSDO>  (70) 
F 20

>  <SCORE>  (70) 
-15.053

>  <name>  (70) 
69

>  <ligand_id>  (70) 
69

>  <original_smiles>  (70) 
[H]c1c([H])c([H])c2c(c1[H])C([H])([H])C([H])([H])C([H])([H])C2([H])N([H])C(=O)C1([H])N(C(=O)C([H])(N([H])C(=O)C([H])(N([H])C([H])([H])[H])C([H])([H])[H])C(C([H])([H])[H])(C([H])([H])[H])C([H])([H])[H])C([H])([H])c2c([H])c(OC([H])([H])C([H])([H])N([H])c3c([H])c(C(F)(F)F)c([H])c(N([H])C(=O)N4C([H])([H])C([H])([H])C([H])([H])C([H])(n5nc(-c6c([H])c([H])c(Oc7c([H])c([H])c(F)c([H])c7F)c([H])c6[H])c(C(=O)N([H])[H])c5N([H])[H])C4([H])[H])c3F)c([H])c([H])c2C1([H])[H]

>  <smiles>  (70) 
[H]c1c([H])c([H])c2c(c1[H])C([H])([H])C([H])([H])C([H])([H])C2([H])N([H])C(=O)C1([H])N(C(=O)C([H])(N([H])C(=O)C([H])(N([H])C([H])([H])[H])C([H])([H])[H])C(C([H])([H])[H])(C([H])([H])[H])C([H])([H])[H])C([H])([H])c2c([H])c(OC([H])([H])C([H])([H])N([H])c3c([H])c(C(F)(F)F)c([H])c(N([H])C(=O)N4C([H])([H])C([H])([H])C([H])([H])C([H])(n5nc(-c6c([H])c([H])c(Oc7c([H])c([H])c(F)c([H])c7F)c([H])c6[H])c(C(=O)N([H])[H])c5N([H])[H])C4([H])[H])c3F)c([H])c([H])c2C1([H])[H]

$$$$
70:0:0
     RDKit          3D

 98106  0  0  1  0  0  0  0  0999 V2000
  -31.0400  -19.4700   21.2110 C   0  0  0  0  0  3  0  0  0  0  0  0
  -30.0940  -20.2250   20.4630 C   0  0  0  0  0  0  0  0  0  0  0  0
  -29.0250  -18.0530   19.9040 C   0  0  0  0  0  0  0  0  0  0  0  0
  -29.9960  -17.2800   20.6300 C   0  0  0  0  0  0  0  0  0  0  0  0
  -29.0950  -19.4810   19.8030 C   0  0  0  0  0  0  0  0  0  0  0  0
  -31.0020  -18.0430   21.2930 C   0  0  0  0  0  0  0  0  0  0  0  0
  -28.1840  -20.1850   19.0880 F   0  0  0  0  0  0  0  0  0  0  0  0
  -32.1810  -17.2610   22.2860 Cl  0  0  0  0  0  0  0  0  0  0  0  0
  -30.5630  -14.7450   20.4170 C   0  0  0  0  0  0  0  0  0  0  0  0
  -30.3180  -12.5080   19.3430 C   0  0  0  0  0  2  0  0  0  0  0  0
  -29.3660  -12.6110   18.1300 C   0  0  0  0  0  2  0  0  0  0  0  0
  -27.8980  -12.4410   18.5670 C   0  0  0  0  0  2  0  0  0  0  0  0
  -27.5300  -13.3060   19.8020 C   0  0  0  0  0  3  0  0  0  0  0  0
  -28.6040  -13.1870   20.9110 C   0  0  0  0  0  2  0  0  0  0  0  0
  -29.9130  -13.5350   20.3270 N   0  0  0  0  0  0  0  0  0  0  0  0
  -31.7160  -14.8800   20.0010 O   0  0  0  0  0  0  0  0  0  0  0  0
  -29.8220  -15.8210   20.8340 N   0  0  0  0  0  0  0  0  0  0  0  0
  -28.8810  -15.5530   21.0840 H   0  0  0  0  0  0  0  0  0  0  0  0
  -25.1060  -13.8640   20.4890 C   0  0  0  0  0  0  0  0  0  0  0  0
  -24.0540  -13.0860   20.8660 C   0  0  0  0  0  0  0  0  0  0  0  0
  -24.5420  -11.7470   20.8500 C   0  0  0  0  0  0  0  0  0  0  0  0
  -26.1800  -13.0100   20.2860 N   0  0  0  0  0  0  0  0  0  0  0  0
  -25.8380  -11.7250   20.5590 N   0  0  0  0  0  0  0  0  0  0  0  0
  -23.8290  -10.4820   21.0410 C   0  0  0  0  0  0  0  0  0  0  0  0
  -24.2630   -9.5240   21.9820 C   0  0  0  0  0  3  0  0  0  0  0  0
  -23.5410   -8.3240   22.1600 C   0  0  0  0  0  3  0  0  0  0  0  0
  -22.3750   -8.0780   21.3970 C   0  0  0  0  0  0  0  0  0  0  0  0
  -21.9610   -9.0280   20.4450 C   0  0  0  0  0  3  0  0  0  0  0  0
  -22.6850  -10.2180   20.2650 C   0  0  0  0  0  3  0  0  0  0  0  0
  -21.6260   -6.9300   21.4850 O   0  0  0  0  0  0  0  0  0  0  0  0
  -21.5820   -6.1880   22.6380 C   0  0  0  0  0  0  0  0  0  0  0  0
  -21.1500   -6.7400   23.8630 C   0  0  0  0  0  3  0  0  0  0  0  0
  -21.0500   -5.9230   25.0070 C   0  0  0  0  0  3  0  0  0  0  0  0
  -21.3790   -4.5570   24.9270 C   0  0  0  0  0  0  0  0  0  0  0  0
  -21.8070   -4.0050   23.7070 C   0  0  0  0  0  3  0  0  0  0  0  0
  -21.9060   -4.8180   22.5640 C   0  0  0  0  0  0  0  0  0  0  0  0
  -22.2970   -4.2770   21.3840 F   0  0  0  0  0  0  0  0  0  0  0  0
  -21.2780   -3.7690   26.0230 F   0  0  0  0  0  0  0  0  0  0  0  0
  -22.6540  -13.5590   21.1300 C   0  0  0  0  0  0  0  0  0  0  0  0
  -21.9300  -12.8710   22.0040 N   0  0  0  0  0  0  0  0  0  0  0  0
  -22.2100  -14.5790   20.6020 O   0  0  0  0  0  0  0  0  0  0  0  0
  -22.2990  -12.0480   22.4570 H   0  0  0  0  0  0  0  0  0  0  0  0
  -20.9920  -13.1750   22.2290 H   0  0  0  0  0  0  0  0  0  0  0  0
  -25.1970  -15.2270   20.2860 N   0  0  0  0  0  0  0  0  0  0  0  0
  -24.3950  -15.8360   20.3910 H   0  0  0  0  0  0  0  0  0  0  0  0
  -26.0550  -15.7350   20.0910 H   0  0  0  0  0  0  0  0  0  0  0  0
  -27.8310  -17.3330   19.3080 C   0  0  1  0  0  0  0  0  0  0  0  0
  -28.2180  -16.3950   18.4410 F   0  0  0  0  0  0  0  0  0  0  0  0
  -27.2610  -16.7580   20.3560 F   0  0  0  0  0  0  0  0  0  0  0  0
  -26.9100  -18.0990   18.7220 F   0  0  0  0  0  0  0  0  0  0  0  0
  -30.2170  -21.7860   20.2710 C   0  0  0  0  0  2  0  0  0  0  0  0
  -29.0440  -22.6890   20.6110 N   0  0  0  0  0  4  0  0  0  0  0  0
  -28.6850  -22.4190   21.5130 H   0  0  0  0  0  0  0  0  0  0  0  0
  -28.3220  -22.4770   19.9350 H   0  0  0  0  0  0  0  0  0  0  0  0
  -29.7610  -24.6350   22.0290 C   0  0  0  0  0  1  0  0  0  0  0  0
  -29.2960  -24.1970   20.6240 C   0  0  0  0  0  3  0  0  0  0  0  0
  -28.0760  -25.1180   20.1750 C   0  0  0  0  0  2  0  0  0  0  0  0
  -28.2550  -26.5850   20.2450 O   0  0  0  0  0  0  0  0  0  0  0  0
  -24.5470  -31.9730   23.2520 C   0  0  0  0  0  0  0  0  0  0  0  0
  -27.1200  -27.4040   20.1990 C   0  0  0  0  0  0  0  0  0  0  0  0
  -23.3200  -30.5680   21.6310 C   0  0  0  0  0  3  0  0  0  0  0  0
  -24.7510  -29.0050   20.2040 C   0  0  0  0  0  0  0  0  0  0  0  0
  -25.8580  -30.8820   21.4210 C   0  0  0  0  0  2  0  0  0  0  0  0
  -25.9280  -29.5010   20.7820 C   0  0  0  0  0  0  0  0  0  0  0  0
  -27.1130  -28.7140   20.7660 C   0  0  0  0  0  3  0  0  0  0  0  0
  -25.9180  -26.9530   19.6010 C   0  0  0  0  0  3  0  0  0  0  0  0
  -24.7480  -27.7350   19.6050 C   0  0  0  0  0  3  0  0  0  0  0  0
  -23.5220  -29.8870   20.2520 C   0  0  0  0  0  2  0  0  0  0  0  0
  -24.5930  -31.1580   22.1580 N   0  0  0  0  0  0  0  0  0  0  0  0
  -23.4700  -32.2570   23.7960 O   0  0  0  0  0  0  0  0  0  0  0  0
  -22.6650  -29.5580   22.6040 C   0  0  0  0  0  0  0  0  0  0  0  0
  -21.3390  -29.3770   22.4820 N   0  0  0  0  0  0  0  0  0  0  0  0
  -23.3470  -28.9420   23.4280 O   0  0  0  0  0  0  0  0  0  0  0  0
  -20.8500  -29.9310   21.7920 H   0  0  0  0  0  0  0  0  0  0  0  0
  -17.9680  -28.1640   22.9820 C   0  0  0  0  0  0  0  0  0  0  0  0
  -20.5220  -28.4480   23.2630 C   0  0  0  0  0  3  0  0  0  0  0  0
  -20.6400  -27.0050   22.7180 C   0  0  0  0  0  2  0  0  0  0  0  0
  -19.5490  -26.6540   21.7020 C   0  0  0  0  0  2  0  0  0  0  0  0
  -18.1600  -26.8020   22.3350 C   0  0  0  0  0  2  0  0  0  0  0  0
  -19.0780  -28.9430   23.4030 C   0  0  0  0  0  0  0  0  0  0  0  0
  -18.8470  -30.2160   23.9680 C   0  0  0  0  0  3  0  0  0  0  0  0
  -17.5380  -30.7100   24.1200 C   0  0  0  0  0  3  0  0  0  0  0  0
  -16.4420  -29.9270   23.7170 C   0  0  0  0  0  3  0  0  0  0  0  0
  -16.6570  -28.6570   23.1500 C   0  0  0  0  0  3  0  0  0  0  0  0
  -25.8400  -32.6030   23.8540 C   0  0  0  0  0  3  0  0  0  0  0  0
  -25.5370  -34.0010   24.1880 N   0  0  0  0  0  0  0  0  0  0  0  0
  -25.8630  -35.0550   23.4270 C   0  0  0  0  0  0  0  0  0  0  0  0
  -26.5210  -34.9520   22.3880 O   0  0  0  0  0  0  0  0  0  0  0  0
  -24.9580  -34.1540   24.9980 H   0  0  0  0  0  0  0  0  0  0  0  0
  -24.1390  -36.8550   23.0960 C   0  0  0  0  0  1  0  0  0  0  0  0
  -25.3850  -36.4430   23.8930 C   0  0  0  0  0  3  0  0  0  0  0  0
  -27.5300  -37.3200   24.7050 C   0  0  0  0  0  1  0  0  0  0  0  0
  -26.4180  -37.4940   23.7740 N   0  0  0  0  0  0  0  0  0  0  0  0
  -26.0160  -38.4120   23.9340 H   0  0  0  0  0  0  0  0  0  0  0  0
  -26.3750  -31.8320   25.1240 C   0  0  1  0  0  0  0  0  0  0  0  0
  -25.2960  -31.5940   26.2080 C   0  0  0  0  0  1  0  0  0  0  0  0
  -26.9540  -30.4560   24.7220 C   0  0  0  0  0  1  0  0  0  0  0  0
  -27.5330  -32.6260   25.7710 C   0  0  0  0  0  1  0  0  0  0  0  0
  1  6  1  0
  2  1  2  0
  3  4  1  0
  4 17  1  0
  4  6  2  0
  5  3  2  0
  5  2  1  0
  6  8  1  0
  7  5  1  0
  9 17  1  0
 10 15  1  0
 11 12  1  0
 11 10  1  0
 13 12  1  0
 13 22  1  0
 13 14  1  0
 15  9  1  0
 15 14  1  0
 16  9  2  0
 17 18  1  0
 19 20  2  0
 20 39  1  0
 21 20  1  0
 21 24  1  0
 22 19  1  0
 22 23  1  0
 23 21  2  0
 24 25  1  0
 25 26  2  0
 27 30  1  0
 27 26  1  0
 28 27  2  0
 29 28  1  0
 29 24  2  0
 30 31  1  0
 31 32  1  0
 32 33  2  0
 34 33  1  0
 34 38  1  0
 35 34  2  0
 36 31  2  0
 36 35  1  0
 37 36  1  0
 39 40  1  0
 40 43  1  0
 40 42  1  0
 41 39  2  0
 44 45  1  0
 44 19  1  0
 46 44  1  0
 47  3  1  0
 47 49  1  1
 48 47  1  0
 50 47  1  0
 51  2  1  0
 51 52  1  0
 52 56  1  0
 52 53  1  0
 54 52  1  0
 56 55  1  0
 57 58  1  0
 57 56  1  0
 59 70  2  0
 60 58  1  0
 60 65  1  0
 61 69  1  0
 61 71  1  0
 62 68  1  0
 62 64  1  0
 63 69  1  0
 64 63  1  0
 65 64  2  0
 66 67  1  0
 66 60  2  0
 67 62  2  0
 68 61  1  0
 69 59  1  0
 71 73  2  0
 72 71  1  0
 74 72  1  0
 75 84  2  0
 75 80  1  0
 76 72  1  0
 76 80  1  0
 77 76  1  0
 78 79  1  0
 78 77  1  0
 79 75  1  0
 80 81  2  0
 81 82  1  0
 83 82  2  0
 84 83  1  0
 85 59  1  0
 85 86  1  0
 85 95  1  0
 86 89  1  0
 87 91  1  0
 87 86  1  0
 88 87  2  0
 91 90  1  0
 93 91  1  0
 93 94  1  0
 93 92  1  0
 95 98  1  1
 95 96  1  0
 97 95  1  0
M  ISO  4   9 100  17 100  57 101  58 101
M  END
>  <TORSDO>  (71) 
F 21

>  <SCORE>  (71) 
-12.816

>  <name>  (71) 
70

>  <ligand_id>  (71) 
70

>  <original_smiles>  (71) 
[H]c1c([H])c([H])c2c(c1[H])C([H])([H])C([H])([H])C([H])([H])C2([H])N([H])C(=O)C1([H])N(C(=O)C([H])(N([H])C(=O)C([H])(N([H])C([H])([H])[H])C([H])([H])[H])C(C([H])([H])[H])(C([H])([H])[H])C([H])([H])[H])C([H])([H])c2c([H])c(OC([H])([H])C([H])(C([H])([H])[H])[N+]([H])([H])C([H])([H])c3c([H])c(Cl)c(N([H])C(=O)N4C([H])([H])C([H])([H])C([H])([H])C([H])(n5nc(-c6c([H])c([H])c(Oc7c([H])c([H])c(F)c([H])c7F)c([H])c6[H])c(C(=O)N([H])[H])c5N([H])[H])C4([H])[H])c(C(F)(F)F)c3F)c([H])c([H])c2C1([H])[H]

>  <smiles>  (71) 
[H]c1c([H])c([H])c2c(c1[H])C([H])([H])C([H])([H])C([H])([H])C2([H])N([H])C(=O)C1([H])N(C(=O)C([H])(N([H])C(=O)C([H])(N([H])C([H])([H])[H])C([H])([H])[H])C(C([H])([H])[H])(C([H])([H])[H])C([H])([H])[H])C([H])([H])c2c([H])c(OC([H])([H])C([H])(C([H])([H])[H])[N+]([H])([H])C([H])([H])c3c([H])c(Cl)c(N([H])C(=O)N4C([H])([H])C([H])([H])C([H])([H])C([H])(n5nc(-c6c([H])c([H])c(Oc7c([H])c([H])c(F)c([H])c7F)c([H])c6[H])c(C(=O)N([H])[H])c5N([H])[H])C4([H])[H])c(C(F)(F)F)c3F)c([H])c([H])c2C1([H])[H]

$$$$
71:0:0
     RDKit          3D

 99107  0  0  1  0  0  0  0  0999 V2000
  -28.8040  -19.5820   19.9040 C   0  0  0  0  0  3  0  0  0  0  0  0
  -30.8200  -19.2830   21.1400 C   0  0  0  0  0  3  0  0  0  0  0  0
  -29.8720  -20.1850   20.5890 C   0  0  0  0  0  0  0  0  0  0  0  0
  -28.6720  -18.1690   19.7530 C   0  0  0  0  0  0  0  0  0  0  0  0
  -29.6450  -17.2450   20.2940 C   0  0  0  0  0  0  0  0  0  0  0  0
  -30.7110  -17.8610   21.0160 C   0  0  0  0  0  0  0  0  0  0  0  0
  -30.1570  -14.7390   19.6490 C   0  0  0  0  0  0  0  0  0  0  0  0
  -29.7380  -12.6350   18.3740 C   0  0  0  0  0  2  0  0  0  0  0  0
  -28.6010  -12.8700   17.3570 C   0  0  0  0  0  2  0  0  0  0  0  0
  -27.2300  -12.6040   18.0080 C   0  0  0  0  0  2  0  0  0  0  0  0
  -27.0780  -13.3100   19.3790 C   0  0  0  0  0  3  0  0  0  0  0  0
  -28.3180  -13.0960   20.2790 C   0  0  0  0  0  2  0  0  0  0  0  0
  -29.5030  -13.5350   19.5260 N   0  0  0  0  0  0  0  0  0  0  0  0
  -31.2470  -14.9040   19.0950 O   0  0  0  0  0  0  0  0  0  0  0  0
  -29.4530  -15.7740   20.2270 N   0  0  0  0  0  0  0  0  0  0  0  0
  -28.5210  -15.4850   20.4840 H   0  0  0  0  0  0  0  0  0  0  0  0
  -24.8030  -13.7640   20.4920 C   0  0  0  0  0  0  0  0  0  0  0  0
  -23.8340  -12.9380   20.9790 C   0  0  0  0  0  0  0  0  0  0  0  0
  -24.3260  -11.6140   20.7820 C   0  0  0  0  0  0  0  0  0  0  0  0
  -25.8320  -12.9490   20.0490 N   0  0  0  0  0  0  0  0  0  0  0  0
  -25.5550  -11.6410   20.2780 N   0  0  0  0  0  0  0  0  0  0  0  0
  -23.6680  -10.3230   20.9830 C   0  0  0  0  0  0  0  0  0  0  0  0
  -24.2050   -9.3540   21.8590 C   0  0  0  0  0  3  0  0  0  0  0  0
  -23.5420   -8.1240   22.0510 C   0  0  0  0  0  3  0  0  0  0  0  0
  -22.3310   -7.8580   21.3680 C   0  0  0  0  0  0  0  0  0  0  0  0
  -21.8150   -8.8180   20.4800 C   0  0  0  0  0  3  0  0  0  0  0  0
  -22.4790  -10.0380   20.2850 C   0  0  0  0  0  3  0  0  0  0  0  0
  -21.6320   -6.6810   21.4760 O   0  0  0  0  0  0  0  0  0  0  0  0
  -21.6420   -5.9430   22.6320 C   0  0  0  0  0  0  0  0  0  0  0  0
  -21.1940   -6.4770   23.8610 C   0  0  0  0  0  3  0  0  0  0  0  0
  -21.1560   -5.6630   25.0100 C   0  0  0  0  0  3  0  0  0  0  0  0
  -21.5570   -4.3150   24.9320 C   0  0  0  0  0  0  0  0  0  0  0  0
  -22.0010   -3.7810   23.7090 C   0  0  0  0  0  3  0  0  0  0  0  0
  -22.0400   -4.5940   22.5630 C   0  0  0  0  0  0  0  0  0  0  0  0
  -22.4490   -4.0690   21.3810 F   0  0  0  0  0  0  0  0  0  0  0  0
  -21.5130   -3.5300   26.0340 F   0  0  0  0  0  0  0  0  0  0  0  0
  -22.4870  -13.3540   21.4940 C   0  0  0  0  0  0  0  0  0  0  0  0
  -21.9280  -12.5940   22.4290 N   0  0  0  0  0  0  0  0  0  0  0  0
  -21.9440  -14.3890   21.1080 O   0  0  0  0  0  0  0  0  0  0  0  0
  -22.3820  -11.7560   22.7600 H   0  0  0  0  0  0  0  0  0  0  0  0
  -21.0320  -12.8540   22.8180 H   0  0  0  0  0  0  0  0  0  0  0  0
  -24.8630  -15.1360   20.3660 N   0  0  0  0  0  0  0  0  0  0  0  0
  -24.0850  -15.7290   20.6230 H   0  0  0  0  0  0  0  0  0  0  0  0
  -25.6230  -15.6410   19.9170 H   0  0  0  0  0  0  0  0  0  0  0  0
  -26.2900  -17.5910   20.1580 C   0  0  0  0  0  1  0  0  0  0  0  0
  -26.9040  -18.6090   17.9130 C   0  0  0  0  0  1  0  0  0  0  0  0
  -27.3790  -17.7180   19.0800 C   0  0  1  0  0  0  0  0  0  0  0  0
  -27.5850  -16.5510   18.4920 F   0  0  0  0  0  0  0  0  0  0  0  0
  -30.0150  -21.7440   20.7590 C   0  0  0  0  0  2  0  0  0  0  0  0
  -28.8720  -22.6600   20.3640 N   0  0  0  0  0  4  0  0  0  0  0  0
  -28.0630  -22.3920   20.9020 H   0  0  0  0  0  0  0  0  0  0  0  0
  -28.6690  -22.4590   19.3970 H   0  0  0  0  0  0  0  0  0  0  0  0
  -29.2900  -24.5640   21.9740 C   0  0  0  0  0  1  0  0  0  0  0  0
  -29.0770  -24.1700   20.4970 C   0  0  0  0  0  3  0  0  0  0  0  0
  -27.9200  -25.0700   19.8760 C   0  0  0  0  0  2  0  0  0  0  0  0
  -28.0780  -26.5350   19.9700 O   0  0  0  0  0  0  0  0  0  0  0  0
  -24.4900  -31.8880   23.1530 C   0  0  0  0  0  0  0  0  0  0  0  0
  -26.9340  -27.3440   19.9690 C   0  0  0  0  0  0  0  0  0  0  0  0
  -23.1980  -30.5070   21.5630 C   0  0  0  0  0  3  0  0  0  0  0  0
  -24.5700  -28.9490   20.0700 C   0  0  0  0  0  0  0  0  0  0  0  0
  -25.7250  -30.8130   21.2620 C   0  0  0  0  0  2  0  0  0  0  0  0
  -25.7650  -29.4370   20.6120 C   0  0  0  0  0  0  0  0  0  0  0  0
  -26.9470  -28.6460   20.5520 C   0  0  0  0  0  3  0  0  0  0  0  0
  -25.7130  -26.8980   19.4080 C   0  0  0  0  0  3  0  0  0  0  0  0
  -24.5440  -27.6840   19.4620 C   0  0  0  0  0  3  0  0  0  0  0  0
  -23.3430  -29.8310   20.1740 C   0  0  0  0  0  2  0  0  0  0  0  0
  -24.4930  -31.0860   22.0490 N   0  0  0  0  0  0  0  0  0  0  0  0
  -23.4360  -32.1750   23.7380 O   0  0  0  0  0  0  0  0  0  0  0  0
  -22.5700  -29.4950   22.5490 C   0  0  0  0  0  0  0  0  0  0  0  0
  -21.2510  -29.2680   22.4210 N   0  0  0  0  0  0  0  0  0  0  0  0
  -23.2660  -28.9150   23.3850 O   0  0  0  0  0  0  0  0  0  0  0  0
  -20.7490  -29.7880   21.7170 H   0  0  0  0  0  0  0  0  0  0  0  0
  -17.9240  -27.9320   22.8960 C   0  0  0  0  0  0  0  0  0  0  0  0
  -20.4590  -28.3240   23.2120 C   0  0  0  0  0  3  0  0  0  0  0  0
  -20.6450  -26.8760   22.6990 C   0  0  0  0  0  2  0  0  0  0  0  0
  -19.5840  -26.4600   21.6760 C   0  0  0  0  0  2  0  0  0  0  0  0
  -18.1820  -26.5640   22.2820 C   0  0  0  0  0  2  0  0  0  0  0  0
  -18.9950  -28.7630   23.3170 C   0  0  0  0  0  0  0  0  0  0  0  0
  -18.7050  -30.0380   23.8490 C   0  0  0  0  0  3  0  0  0  0  0  0
  -17.3740  -30.4820   23.9680 C   0  0  0  0  0  3  0  0  0  0  0  0
  -16.3170  -29.6480   23.5640 C   0  0  0  0  0  3  0  0  0  0  0  0
  -16.5920  -28.3750   23.0320 C   0  0  0  0  0  3  0  0  0  0  0  0
  -25.8080  -32.5020   23.7190 C   0  0  0  0  0  3  0  0  0  0  0  0
  -25.5230  -33.8890   24.1070 N   0  0  0  0  0  0  0  0  0  0  0  0
  -25.8150  -34.9640   23.3640 C   0  0  0  0  0  0  0  0  0  0  0  0
  -26.4270  -34.8920   22.2940 O   0  0  0  0  0  0  0  0  0  0  0  0
  -24.9730  -34.0180   24.9440 H   0  0  0  0  0  0  0  0  0  0  0  0
  -24.0860  -36.7780   23.1490 C   0  0  0  0  0  1  0  0  0  0  0  0
  -25.3580  -36.3380   23.8910 C   0  0  0  0  0  3  0  0  0  0  0  0
  -27.5280  -37.1890   24.6610 C   0  0  0  0  0  1  0  0  0  0  0  0
  -26.3910  -37.3890   23.7670 N   0  0  0  0  0  0  0  0  0  0  0  0
  -25.9960  -38.3060   23.9570 H   0  0  0  0  0  0  0  0  0  0  0  0
  -26.3960  -31.6940   24.9410 C   0  0  1  0  0  0  0  0  0  0  0  0
  -25.3580  -31.4080   26.0540 C   0  0  0  0  0  1  0  0  0  0  0  0
  -26.9730  -30.3370   24.4710 C   0  0  0  0  0  1  0  0  0  0  0  0
  -27.5700  -32.4760   25.5740 C   0  0  0  0  0  1  0  0  0  0  0  0
  -31.6250  -17.0690   21.6560 O   0  0  0  0  0  0  0  0  0  0  0  0
  -31.4540  -15.1370   23.0510 C   0  0  0  0  0  1  0  0  0  0  0  0
  -31.2220  -16.6450   22.9510 C   0  0  0  0  0  2  0  0  0  0  0  0
  1  3  1  0
  3 49  1  0
  3  2  2  0
  4  1  2  0
  4  5  1  0
  5  6  2  0
  6  2  1  0
  6 97  1  0
  7 15  1  0
  8 13  1  0
  9 10  1  0
  9  8  1  0
 11 10  1  0
 11 20  1  0
 11 12  1  0
 13  7  1  0
 13 12  1  0
 14  7  2  0
 15  5  1  0
 15 16  1  0
 17 18  2  0
 18 37  1  0
 19 18  1  0
 19 22  1  0
 20 21  1  0
 20 17  1  0
 21 19  2  0
 22 23  1  0
 23 24  2  0
 25 28  1  0
 25 24  1  0
 26 25  2  0
 27 26  1  0
 27 22  2  0
 28 29  1  0
 29 30  1  0
 30 31  2  0
 32 31  1  0
 32 36  1  0
 33 32  2  0
 34 29  2  0
 34 33  1  0
 35 34  1  0
 37 38  1  0
 38 40  1  0
 38 41  1  0
 39 37  2  0
 42 17  1  0
 42 43  1  0
 44 42  1  0
 47 46  1  6
 47  4  1  0
 47 45  1  0
 48 47  1  0
 50 54  1  0
 50 49  1  0
 50 51  1  0
 52 50  1  0
 54 53  1  0
 55 56  1  0
 55 54  1  0
 57 68  2  0
 58 56  1  0
 58 63  1  0
 59 67  1  0
 59 69  1  0
 60 66  1  0
 60 62  1  0
 61 67  1  0
 62 61  1  0
 63 62  2  0
 64 65  1  0
 64 58  2  0
 65 60  2  0
 66 59  1  0
 67 57  1  0
 69 71  2  0
 70 69  1  0
 72 70  1  0
 73 82  2  0
 73 78  1  0
 74 70  1  0
 74 78  1  0
 75 74  1  0
 76 77  1  0
 76 75  1  0
 77 73  1  0
 78 79  2  0
 79 80  1  0
 81 80  2  0
 82 81  1  0
 83 57  1  0
 83 84  1  0
 83 93  1  0
 84 87  1  0
 85 89  1  0
 85 84  1  0
 86 85  2  0
 89 88  1  0
 91 89  1  0
 91 92  1  0
 91 90  1  0
 93 96  1  1
 93 94  1  0
 95 93  1  0
 97 99  1  0
 99 98  1  0
M  ISO  4   7 100  15 100  55 101  56 101
M  END
>  <TORSDO>  (72) 
F 23

>  <SCORE>  (72) 
-9.195

>  <name>  (72) 
71

>  <ligand_id>  (72) 
71

>  <original_smiles>  (72) 
[H]c1c([H])c([H])c2c(c1[H])C([H])([H])C([H])([H])C([H])([H])C2([H])N([H])C(=O)C1([H])N(C(=O)C([H])(N([H])C(=O)C([H])(N([H])C([H])([H])[H])C([H])([H])[H])C(C([H])([H])[H])(C([H])([H])[H])C([H])([H])[H])C([H])([H])c2c([H])c(OC([H])([H])C([H])(C([H])([H])[H])[N+]([H])([H])C([H])([H])c3c([H])c(OC([H])([H])C([H])([H])[H])c(N([H])C(=O)N4C([H])([H])C([H])([H])C([H])([H])C([H])(n5nc(-c6c([H])c([H])c(Oc7c([H])c([H])c(F)c([H])c7F)c([H])c6[H])c(C(=O)N([H])[H])c5N([H])[H])C4([H])[H])c(C(F)(C([H])([H])[H])C([H])([H])[H])c3[H])c([H])c([H])c2C1([H])[H]

>  <smiles>  (72) 
[H]c1c([H])c([H])c2c(c1[H])C([H])([H])C([H])([H])C([H])([H])C2([H])N([H])C(=O)C1([H])N(C(=O)C([H])(N([H])C(=O)C([H])(N([H])C([H])([H])[H])C([H])([H])[H])C(C([H])([H])[H])(C([H])([H])[H])C([H])([H])[H])C([H])([H])c2c([H])c(OC([H])([H])C([H])(C([H])([H])[H])[N+]([H])([H])C([H])([H])c3c([H])c(OC([H])([H])C([H])([H])[H])c(N([H])C(=O)N4C([H])([H])C([H])([H])C([H])([H])C([H])(n5nc(-c6c([H])c([H])c(Oc7c([H])c([H])c(F)c([H])c7F)c([H])c6[H])c(C(=O)N([H])[H])c5N([H])[H])C4([H])[H])c(C(F)(C([H])([H])[H])C([H])([H])[H])c3[H])c([H])c([H])c2C1([H])[H]

$$$$
72:0:0
     RDKit          3D

 93101  0  0  1  0  0  0  0  0999 V2000
  -28.5380  -21.7750   20.6850 C   0  0  0  0  0  0  0  0  0  0  0  0
  -28.5620  -20.4740   20.6450 N   0  0  0  0  0  0  0  0  0  0  0  0
  -27.4960  -22.2660   21.3770 F   0  0  0  0  0  0  0  0  0  0  0  0
  -30.7450  -18.8250   18.0700 C   0  0  0  0  0  3  0  0  0  0  0  0
  -30.0300  -19.8120   18.7580 C   0  0  0  0  0  3  0  0  0  0  0  0
  -30.8170  -17.4960   18.5320 C   0  0  0  0  0  0  0  0  0  0  0  0
  -29.5080  -18.1770   20.4870 C   0  0  0  0  0  0  0  0  0  0  0  0
  -29.4080  -19.5290   19.9890 C   0  0  0  0  0  0  0  0  0  0  0  0
  -30.1980  -17.1300   19.7690 C   0  0  0  0  0  0  0  0  0  0  0  0
  -31.5130  -16.5260   17.5870 C   0  0  0  0  0  1  0  0  0  0  0  0
  -28.8100  -17.8480   21.8030 C   0  0  0  0  0  1  0  0  0  0  0  0
  -30.8840  -14.6500   20.0230 C   0  0  0  0  0  0  0  0  0  0  0  0
  -30.5660  -12.4640   18.9310 C   0  0  0  0  0  2  0  0  0  0  0  0
  -29.5610  -12.6480   17.7720 C   0  0  0  0  0  2  0  0  0  0  0  0
  -28.1130  -12.4930   18.2760 C   0  0  0  0  0  2  0  0  0  0  0  0
  -27.8270  -13.3220   19.5570 C   0  0  0  0  0  3  0  0  0  0  0  0
  -28.9440  -13.1370   20.6090 C   0  0  0  0  0  2  0  0  0  0  0  0
  -30.2290  -13.4550   19.9670 N   0  0  0  0  0  0  0  0  0  0  0  0
  -32.0700  -14.7490   19.7000 O   0  0  0  0  0  0  0  0  0  0  0  0
  -30.1050  -15.7470   20.2460 N   0  0  0  0  0  0  0  0  0  0  0  0
  -29.2350  -15.5250   20.7040 H   0  0  0  0  0  0  0  0  0  0  0  0
  -25.4740  -13.8970   20.4100 C   0  0  0  0  0  0  0  0  0  0  0  0
  -24.4300  -13.1130   20.8140 C   0  0  0  0  0  0  0  0  0  0  0  0
  -24.8930  -11.7650   20.7340 C   0  0  0  0  0  0  0  0  0  0  0  0
  -26.5080  -13.0260   20.1040 N   0  0  0  0  0  0  0  0  0  0  0  0
  -26.1670  -11.7370   20.3620 N   0  0  0  0  0  0  0  0  0  0  0  0
  -24.1840  -10.4950   20.9330 C   0  0  0  0  0  0  0  0  0  0  0  0
  -24.6330   -9.5330   21.8640 C   0  0  0  0  0  3  0  0  0  0  0  0
  -23.9220   -8.3280   22.0480 C   0  0  0  0  0  3  0  0  0  0  0  0
  -22.7470   -8.0760   21.2990 C   0  0  0  0  0  0  0  0  0  0  0  0
  -22.3190   -9.0260   20.3550 C   0  0  0  0  0  3  0  0  0  0  0  0
  -23.0310  -10.2220   20.1710 C   0  0  0  0  0  3  0  0  0  0  0  0
  -22.0030   -6.9250   21.3950 O   0  0  0  0  0  0  0  0  0  0  0  0
  -21.9170   -6.2190   22.5670 C   0  0  0  0  0  0  0  0  0  0  0  0
  -21.4400   -6.8070   23.7590 C   0  0  0  0  0  3  0  0  0  0  0  0
  -21.3030   -6.0260   24.9240 C   0  0  0  0  0  3  0  0  0  0  0  0
  -21.6310   -4.6570   24.8980 C   0  0  0  0  0  0  0  0  0  0  0  0
  -22.1000   -4.0680   23.7100 C   0  0  0  0  0  3  0  0  0  0  0  0
  -22.2400   -4.8470   22.5490 C   0  0  0  0  0  0  0  0  0  0  0  0
  -22.6730   -4.2690   21.4010 F   0  0  0  0  0  0  0  0  0  0  0  0
  -21.4940   -3.9040   26.0140 F   0  0  0  0  0  0  0  0  0  0  0  0
  -23.0450  -13.5770   21.1620 C   0  0  0  0  0  0  0  0  0  0  0  0
  -22.3610  -12.8640   22.0510 N   0  0  0  0  0  0  0  0  0  0  0  0
  -22.5790  -14.6100   20.6820 O   0  0  0  0  0  0  0  0  0  0  0  0
  -22.7480  -12.0280   22.4620 H   0  0  0  0  0  0  0  0  0  0  0  0
  -21.4360  -13.1630   22.3240 H   0  0  0  0  0  0  0  0  0  0  0  0
  -25.6290  -15.2710   20.2530 N   0  0  0  0  0  0  0  0  0  0  0  0
  -24.8690  -15.9230   20.4150 H   0  0  0  0  0  0  0  0  0  0  0  0
  -26.4570  -15.7160   19.8770 H   0  0  0  0  0  0  0  0  0  0  0  0
  -29.5080  -22.8580   20.1540 C   0  0  0  0  0  2  0  0  0  0  0  0
  -28.8750  -24.2000   19.6080 C   0  0  0  0  0  2  0  0  0  0  0  0
  -28.3810  -25.2790   20.6320 C   0  0  0  0  0  2  0  0  0  0  0  0
  -28.4500  -26.6580   20.1650 O   0  0  0  0  0  0  0  0  0  0  0  0
  -24.5880  -31.8760   23.2110 C   0  0  0  0  0  0  0  0  0  0  0  0
  -27.2850  -27.4110   20.1680 C   0  0  0  0  0  0  0  0  0  0  0  0
  -23.4080  -30.4690   21.5540 C   0  0  0  0  0  3  0  0  0  0  0  0
  -24.8870  -28.9340   20.1440 C   0  0  0  0  0  0  0  0  0  0  0  0
  -25.9360  -30.8330   21.3840 C   0  0  0  0  0  2  0  0  0  0  0  0
  -26.0380  -29.4570   20.7440 C   0  0  0  0  0  0  0  0  0  0  0  0
  -27.2420  -28.7080   20.7440 C   0  0  0  0  0  3  0  0  0  0  0  0
  -26.1150  -26.9090   19.5610 C   0  0  0  0  0  3  0  0  0  0  0  0
  -24.9220  -27.6600   19.5470 C   0  0  0  0  0  3  0  0  0  0  0  0
  -23.6360  -29.7890   20.1770 C   0  0  0  0  0  2  0  0  0  0  0  0
  -24.6620  -31.0770   22.1070 N   0  0  0  0  0  0  0  0  0  0  0  0
  -23.4980  -32.1420   23.7390 O   0  0  0  0  0  0  0  0  0  0  0  0
  -22.7500  -29.4460   22.5070 C   0  0  0  0  0  0  0  0  0  0  0  0
  -21.4290  -29.2500   22.3580 N   0  0  0  0  0  0  0  0  0  0  0  0
  -23.4260  -28.8300   23.3360 O   0  0  0  0  0  0  0  0  0  0  0  0
  -20.9450  -29.8020   21.6650 H   0  0  0  0  0  0  0  0  0  0  0  0
  -18.0670  -27.9960   22.7800 C   0  0  0  0  0  0  0  0  0  0  0  0
  -20.6110  -28.3010   23.1140 C   0  0  0  0  0  3  0  0  0  0  0  0
  -20.7530  -26.8700   22.5490 C   0  0  0  0  0  2  0  0  0  0  0  0
  -19.6850  -26.5230   21.5080 C   0  0  0  0  0  2  0  0  0  0  0  0
  -18.2850  -26.6460   22.1160 C   0  0  0  0  0  2  0  0  0  0  0  0
  -19.1600  -28.7810   23.2340 C   0  0  0  0  0  0  0  0  0  0  0  0
  -18.9040  -30.0430   23.8110 C   0  0  0  0  0  3  0  0  0  0  0  0
  -17.5870  -30.5230   23.9370 C   0  0  0  0  0  3  0  0  0  0  0  0
  -16.5070  -29.7350   23.5020 C   0  0  0  0  0  3  0  0  0  0  0  0
  -16.7470  -28.4740   22.9290 C   0  0  0  0  0  3  0  0  0  0  0  0
  -25.8630  -32.5140   23.8460 C   0  0  0  0  0  3  0  0  0  0  0  0
  -26.3670  -31.7480   25.1320 C   0  0  1  0  0  0  0  0  0  0  0  0
  -25.2630  -31.5100   26.1880 C   0  0  0  0  0  1  0  0  0  0  0  0
  -26.9600  -30.3720   24.7480 C   0  0  0  0  0  1  0  0  0  0  0  0
  -27.5060  -32.5470   25.8060 C   0  0  0  0  0  1  0  0  0  0  0  0
  -25.5450  -33.9110   24.1690 N   0  0  0  0  0  0  0  0  0  0  0  0
  -25.8870  -34.9630   23.4120 C   0  0  0  0  0  0  0  0  0  0  0  0
  -26.5730  -34.8590   22.3920 O   0  0  0  0  0  0  0  0  0  0  0  0
  -24.9390  -34.0670   24.9620 H   0  0  0  0  0  0  0  0  0  0  0  0
  -24.1610  -36.7510   23.0230 C   0  0  0  0  0  1  0  0  0  0  0  0
  -25.3880  -36.3510   23.8580 C   0  0  0  0  0  3  0  0  0  0  0  0
  -27.5050  -37.2430   24.7240 C   0  0  0  0  0  1  0  0  0  0  0  0
  -26.4190  -37.4050   23.7610 N   0  0  0  0  0  0  0  0  0  0  0  0
  -26.0090  -38.3260   23.8960 H   0  0  0  0  0  0  0  0  0  0  0  0
  1  3  1  0
  2  1  2  0
  4  6  2  0
  4  5  1  0
  5  8  2  0
  6  9  1  0
  7 11  1  0
  8  7  1  0
  8  2  1  0
  9 20  1  0
  9  7  2  0
 10  6  1  0
 12 20  1  0
 13 18  1  0
 14 15  1  0
 14 13  1  0
 16 15  1  0
 16 25  1  0
 16 17  1  0
 18 12  1  0
 18 17  1  0
 19 12  2  0
 20 21  1  0
 22 23  2  0
 23 42  1  0
 24 23  1  0
 24 27  1  0
 25 26  1  0
 25 22  1  0
 26 24  2  0
 27 28  1  0
 28 29  2  0
 30 33  1  0
 30 29  1  0
 31 30  2  0
 32 31  1  0
 32 27  2  0
 33 34  1  0
 34 35  1  0
 35 36  2  0
 37 36  1  0
 37 41  1  0
 38 37  2  0
 39 34  2  0
 39 38  1  0
 40 39  1  0
 42 43  1  0
 43 46  1  0
 43 45  1  0
 44 42  2  0
 47 22  1  0
 47 48  1  0
 49 47  1  0
 50  1  1  0
 51 50  1  0
 51 52  1  0
 53 55  1  0
 53 52  1  0
 54 65  2  0
 55 60  1  0
 56 64  1  0
 56 66  1  0
 57 63  1  0
 57 59  1  0
 58 64  1  0
 59 58  1  0
 60 59  2  0
 61 55  2  0
 62 61  1  0
 62 57  2  0
 63 56  1  0
 64 54  1  0
 66 68  2  0
 67 66  1  0
 69 67  1  0
 70 79  2  0
 70 75  1  0
 71 67  1  0
 71 75  1  0
 72 71  1  0
 73 74  1  0
 73 72  1  0
 74 70  1  0
 75 76  2  0
 76 77  1  0
 78 77  2  0
 79 78  1  0
 80 54  1  0
 80 85  1  0
 80 81  1  0
 81 84  1  1
 81 82  1  0
 83 81  1  0
 85 88  1  0
 86 90  1  0
 86 85  1  0
 87 86  2  0
 90 89  1  0
 92 90  1  0
 92 93  1  0
 92 91  1  0
M  ISO  4  12 100  20 100  52 101  53 101
M  END
>  <TORSDO>  (73) 
F 20

>  <SCORE>  (73) 
-12.360

>  <name>  (73) 
72

>  <ligand_id>  (73) 
72

>  <original_smiles>  (73) 
[H]c1c([H])c([H])c2c(c1[H])C([H])([H])C([H])([H])C([H])([H])C2([H])N([H])C(=O)C1([H])N(C(=O)C([H])(N([H])C(=O)C([H])(N([H])C([H])([H])[H])C([H])([H])[H])C(C([H])([H])[H])(C([H])([H])[H])C([H])([H])[H])C([H])([H])c2c([H])c(OC([H])([H])C([H])([H])C([H])([H])C(F)=Nc3c([H])c([H])c(C([H])([H])[H])c(N([H])C(=O)N4C([H])([H])C([H])([H])C([H])([H])C([H])(n5nc(-c6c([H])c([H])c(Oc7c([H])c([H])c(F)c([H])c7F)c([H])c6[H])c(C(=O)N([H])[H])c5N([H])[H])C4([H])[H])c3C([H])([H])[H])c([H])c([H])c2C1([H])[H]

>  <smiles>  (73) 
[H]c1c([H])c([H])c2c(c1[H])C([H])([H])C([H])([H])C([H])([H])C2([H])N([H])C(=O)C1([H])N(C(=O)C([H])(N([H])C(=O)C([H])(N([H])C([H])([H])[H])C([H])([H])[H])C(C([H])([H])[H])(C([H])([H])[H])C([H])([H])[H])C([H])([H])c2c([H])c(OC([H])([H])C([H])([H])C([H])([H])C(F)=Nc3c([H])c([H])c(C([H])([H])[H])c(N([H])C(=O)N4C([H])([H])C([H])([H])C([H])([H])C([H])(n5nc(-c6c([H])c([H])c(Oc7c([H])c([H])c(F)c([H])c7F)c([H])c6[H])c(C(=O)N([H])[H])c5N([H])[H])C4([H])[H])c3C([H])([H])[H])c([H])c([H])c2C1([H])[H]

$$$$
73:0:0
     RDKit          3D

 95103  0  0  1  0  0  0  0  0999 V2000
  -29.6430  -19.8390   18.7430 C   0  0  0  0  0  3  0  0  0  0  0  0
  -29.5790  -18.5580   18.1810 C   0  0  0  0  0  0  0  0  0  0  0  0
  -29.5850  -17.3960   18.9990 C   0  0  0  0  0  0  0  0  0  0  0  0
  -29.8380  -18.8580   20.9590 C   0  0  0  0  0  0  0  0  0  0  0  0
  -29.7050  -20.0560   20.1310 C   0  0  0  0  0  0  0  0  0  0  0  0
  -29.8220  -17.4980   20.4140 C   0  0  0  0  0  0  0  0  0  0  0  0
  -29.4600  -18.5020   16.6620 C   0  0  0  0  0  1  0  0  0  0  0  0
  -29.9780  -19.0400   22.4600 C   0  0  0  0  0  1  0  0  0  0  0  0
  -30.7780  -15.2130   21.3290 C   0  0  0  0  0  0  0  0  0  0  0  0
  -30.9370  -12.8020   20.6800 C   0  0  0  0  0  2  0  0  0  0  0  0
  -30.1950  -12.5330   19.3480 C   0  0  0  0  0  2  0  0  0  0  0  0
  -28.6730  -12.3830   19.5540 C   0  0  0  0  0  2  0  0  0  0  0  0
  -28.0630  -13.3830   20.5740 C   0  0  0  0  0  3  0  0  0  0  0  0
  -28.9430  -13.5290   21.8350 C   0  0  0  0  0  2  0  0  0  0  0  0
  -30.2820  -13.9290   21.3870 N   0  0  0  0  0  0  0  0  0  0  0  0
  -31.9860  -15.3980   21.1470 O   0  0  0  0  0  0  0  0  0  0  0  0
  -29.8650  -16.2630   21.2630 N   0  0  0  0  0  0  0  0  0  0  0  0
  -28.9670  -16.0130   21.6470 H   0  0  0  0  0  0  0  0  0  0  0  0
  -25.5820  -13.8760   21.0220 C   0  0  0  0  0  0  0  0  0  0  0  0
  -24.5130  -13.0560   21.2610 C   0  0  0  0  0  0  0  0  0  0  0  0
  -25.0320  -11.7250   21.2810 C   0  0  0  0  0  0  0  0  0  0  0  0
  -26.6820  -13.0420   20.9050 N   0  0  0  0  0  0  0  0  0  0  0  0
  -26.3500  -11.7430   21.1270 N   0  0  0  0  0  0  0  0  0  0  0  0
  -24.3420  -10.4310   21.3770 C   0  0  0  0  0  0  0  0  0  0  0  0
  -24.6900   -9.4800   22.3600 C   0  0  0  0  0  3  0  0  0  0  0  0
  -24.0000   -8.2520   22.4450 C   0  0  0  0  0  3  0  0  0  0  0  0
  -22.9480   -7.9660   21.5420 C   0  0  0  0  0  0  0  0  0  0  0  0
  -22.6220   -8.9060   20.5500 C   0  0  0  0  0  3  0  0  0  0  0  0
  -23.3130  -10.1260   20.4640 C   0  0  0  0  0  3  0  0  0  0  0  0
  -22.2390   -6.7890   21.5330 O   0  0  0  0  0  0  0  0  0  0  0  0
  -22.0420   -6.0580   22.6780 C   0  0  0  0  0  0  0  0  0  0  0  0
  -21.4020   -6.6060   23.8120 C   0  0  0  0  0  3  0  0  0  0  0  0
  -21.1590   -5.7990   24.9400 C   0  0  0  0  0  3  0  0  0  0  0  0
  -21.5440   -4.4450   24.9360 C   0  0  0  0  0  0  0  0  0  0  0  0
  -22.1750   -3.8960   23.8060 C   0  0  0  0  0  3  0  0  0  0  0  0
  -22.4200   -4.7000   22.6790 C   0  0  0  0  0  0  0  0  0  0  0  0
  -23.0090   -4.1600   21.5850 F   0  0  0  0  0  0  0  0  0  0  0  0
  -21.3040   -3.6680   26.0180 F   0  0  0  0  0  0  0  0  0  0  0  0
  -23.0740  -13.4700   21.3700 C   0  0  0  0  0  0  0  0  0  0  0  0
  -22.2820  -12.7430   22.1510 N   0  0  0  0  0  0  0  0  0  0  0  0
  -22.6540  -14.4760   20.7990 O   0  0  0  0  0  0  0  0  0  0  0  0
  -22.6290  -11.9310   22.6390 H   0  0  0  0  0  0  0  0  0  0  0  0
  -21.3130  -13.0050   22.2650 H   0  0  0  0  0  0  0  0  0  0  0  0
  -25.7070  -15.2540   20.8720 N   0  0  0  0  0  0  0  0  0  0  0  0
  -24.9060  -15.8750   20.8940 H   0  0  0  0  0  0  0  0  0  0  0  0
  -26.5660  -15.7300   20.6320 H   0  0  0  0  0  0  0  0  0  0  0  0
  -29.0360  -22.5600   20.0230 C   0  0  0  0  0  0  0  0  0  0  0  0
  -29.7120  -21.4770   20.5760 N   0  0  0  0  0  0  0  0  0  0  0  0
  -28.0720  -22.3660   19.2790 O   0  0  0  0  0  0  0  0  0  0  0  0
  -30.3530  -21.6980   21.3260 H   0  0  0  0  0  0  0  0  0  0  0  0
  -29.4050  -24.0890   20.3190 C   0  0  0  0  0  3  0  0  0  0  0  0
  -28.3780  -25.2270   19.8030 C   0  0  0  0  0  3  0  0  0  0  0  0
  -28.5880  -26.7050   19.9800 O   0  0  0  0  0  0  0  0  0  0  0  0
  -24.7440  -31.8640   23.3010 C   0  0  0  0  0  0  0  0  0  0  0  0
  -27.4640  -27.5650   19.9510 C   0  0  0  0  0  0  0  0  0  0  0  0
  -23.5710  -30.5420   21.5790 C   0  0  0  0  0  3  0  0  0  0  0  0
  -25.0590  -29.1340   20.0430 C   0  0  0  0  0  0  0  0  0  0  0  0
  -26.1020  -30.9380   21.4080 C   0  0  0  0  0  2  0  0  0  0  0  0
  -26.2180  -29.6060   20.6710 C   0  0  0  0  0  0  0  0  0  0  0  0
  -27.4220  -28.8350   20.6170 C   0  0  0  0  0  3  0  0  0  0  0  0
  -26.2830  -27.1690   19.2810 C   0  0  0  0  0  3  0  0  0  0  0  0
  -25.0960  -27.9240   19.3360 C   0  0  0  0  0  3  0  0  0  0  0  0
  -23.7970  -29.9670   20.1560 C   0  0  0  0  0  2  0  0  0  0  0  0
  -24.8250  -31.1310   22.1530 N   0  0  0  0  0  0  0  0  0  0  0  0
  -23.6560  -32.0740   23.8580 O   0  0  0  0  0  0  0  0  0  0  0  0
  -22.9450  -29.4440   22.4740 C   0  0  0  0  0  0  0  0  0  0  0  0
  -21.6320  -29.2060   22.3100 N   0  0  0  0  0  0  0  0  0  0  0  0
  -23.6390  -28.8150   23.2760 O   0  0  0  0  0  0  0  0  0  0  0  0
  -21.1280  -29.7700   21.6410 H   0  0  0  0  0  0  0  0  0  0  0  0
  -18.3230  -27.7760   22.6380 C   0  0  0  0  0  0  0  0  0  0  0  0
  -20.8480  -28.1900   23.0170 C   0  0  0  0  0  3  0  0  0  0  0  0
  -21.0650  -26.7900   22.3990 C   0  0  0  0  0  2  0  0  0  0  0  0
  -20.0240  -26.4330   21.3320 C   0  0  0  0  0  2  0  0  0  0  0  0
  -18.6140  -26.4670   21.9270 C   0  0  0  0  0  2  0  0  0  0  0  0
  -19.3740  -28.5940   23.1370 C   0  0  0  0  0  0  0  0  0  0  0  0
  -19.0500  -29.8180   23.7620 C   0  0  0  0  0  3  0  0  0  0  0  0
  -17.7090  -30.2260   23.8940 C   0  0  0  0  0  3  0  0  0  0  0  0
  -16.6730  -29.4070   23.4120 C   0  0  0  0  0  3  0  0  0  0  0  0
  -16.9820  -28.1840   22.7900 C   0  0  0  0  0  3  0  0  0  0  0  0
  -26.0110  -32.4930   23.9580 C   0  0  0  0  0  3  0  0  0  0  0  0
  -26.5500  -31.6630   25.1860 C   0  0  1  0  0  0  0  0  0  0  0  0
  -25.4680  -31.3410   26.2430 C   0  0  0  0  0  1  0  0  0  0  0  0
  -27.1630  -30.3220   24.7170 C   0  0  0  0  0  1  0  0  0  0  0  0
  -27.6860  -32.4440   25.8890 C   0  0  0  0  0  1  0  0  0  0  0  0
  -25.6650  -33.8610   24.3710 N   0  0  0  0  0  0  0  0  0  0  0  0
  -25.9810  -34.9670   23.6840 C   0  0  0  0  0  0  0  0  0  0  0  0
  -26.6630  -34.9440   22.6560 O   0  0  0  0  0  0  0  0  0  0  0  0
  -25.0600  -33.9510   25.1730 H   0  0  0  0  0  0  0  0  0  0  0  0
  -24.2190  -36.7440   23.4220 C   0  0  0  0  0  1  0  0  0  0  0  0
  -25.4580  -36.3130   24.2230 C   0  0  0  0  0  3  0  0  0  0  0  0
  -27.5640  -37.1870   25.1350 C   0  0  0  0  0  1  0  0  0  0  0  0
  -26.4690  -37.3930   24.1910 N   0  0  0  0  0  0  0  0  0  0  0  0
  -26.0420  -38.2920   24.3920 H   0  0  0  0  0  0  0  0  0  0  0  0
  -27.7360  -15.8200   18.1630 C   0  0  0  0  0  1  0  0  0  0  0  0
  -29.2460  -16.0680   18.3210 C   0  0  0  0  0  2  0  0  0  0  0  0
  1  5  1  0
  2  1  2  0
  2  3  1  0
  3  6  2  0
  4  8  1  0
  5 48  1  0
  5  4  2  0
  6  4  1  0
  6 17  1  0
  7  2  1  0
  9 15  1  0
 10 15  1  0
 11 12  1  0
 11 10  1  0
 13 12  1  0
 13 22  1  0
 13 14  1  0
 15 14  1  0
 16  9  2  0
 17  9  1  0
 17 18  1  0
 19 20  2  0
 20 21  1  0
 20 39  1  0
 21 24  1  0
 22 19  1  0
 22 23  1  0
 23 21  2  0
 24 25  1  0
 25 26  2  0
 27 26  1  0
 28 27  2  0
 29 28  1  0
 29 24  2  0
 30 27  1  0
 30 31  1  0
 31 36  2  0
 31 32  1  0
 32 33  2  0
 34 33  1  0
 34 38  1  0
 35 34  2  0
 36 35  1  0
 37 36  1  0
 39 40  1  0
 40 43  1  0
 40 42  1  0
 41 39  2  0
 44 45  1  0
 44 19  1  0
 46 44  1  0
 47 51  1  0
 47 48  1  0
 48 50  1  0
 49 47  2  0
 52 53  1  0
 52 51  2  0
 54 65  2  0
 55 53  1  0
 55 60  1  0
 56 64  1  0
 56 66  1  0
 57 63  1  0
 57 59  1  0
 58 64  1  0
 59 58  1  0
 60 59  2  0
 61 62  1  0
 61 55  2  0
 62 57  2  0
 63 56  1  0
 64 54  1  0
 66 68  2  0
 67 66  1  0
 69 67  1  0
 70 79  2  0
 70 75  1  0
 71 67  1  0
 71 75  1  0
 72 71  1  0
 73 74  1  0
 73 72  1  0
 74 70  1  0
 75 76  2  0
 76 77  1  0
 78 77  2  0
 79 78  1  0
 80 54  1  0
 80 85  1  0
 80 81  1  0
 81 84  1  1
 81 82  1  0
 83 81  1  0
 85 88  1  0
 86 90  1  0
 86 85  1  0
 87 86  2  0
 90 89  1  0
 92 90  1  0
 92 93  1  0
 92 91  1  0
 94 95  1  0
 95  3  1  0
M  ISO  4   9 100  17 100  52 101  53 101
M  END
>  <TORSDO>  (74) 
F 20

>  <SCORE>  (74) 
-9.451

>  <name>  (74) 
73

>  <ligand_id>  (74) 
73

>  <original_smiles>  (74) 
[H]c1c([H])c([H])c2c(c1[H])C([H])([H])C([H])([H])C([H])([H])C2([H])N([H])C(=O)C1([H])N(C(=O)C([H])(N([H])C(=O)C([H])(N([H])C([H])([H])[H])C([H])([H])[H])C(C([H])([H])[H])(C([H])([H])[H])C([H])([H])[H])C([H])([H])c2c([H])c(OC([H])([H])C([H])([H])C(=O)N([H])c3c([H])c(C([H])([H])[H])c(C([H])([H])C([H])([H])[H])c(N([H])C(=O)N4C([H])([H])C([H])([H])C([H])([H])C([H])(n5nc(-c6c([H])c([H])c(Oc7c([H])c([H])c(F)c([H])c7F)c([H])c6[H])c(C(=O)N([H])[H])c5N([H])[H])C4([H])[H])c3C([H])([H])[H])c([H])c([H])c2C1([H])[H]

>  <smiles>  (74) 
[H]c1c([H])c([H])c2c(c1[H])C([H])([H])C([H])([H])C([H])([H])C2([H])N([H])C(=O)C1([H])N(C(=O)C([H])(N([H])C(=O)C([H])(N([H])C([H])([H])[H])C([H])([H])[H])C(C([H])([H])[H])(C([H])([H])[H])C([H])([H])[H])C([H])([H])c2c([H])c(OC([H])([H])C([H])([H])C(=O)N([H])c3c([H])c(C([H])([H])[H])c(C([H])([H])C([H])([H])[H])c(N([H])C(=O)N4C([H])([H])C([H])([H])C([H])([H])C([H])(n5nc(-c6c([H])c([H])c(Oc7c([H])c([H])c(F)c([H])c7F)c([H])c6[H])c(C(=O)N([H])[H])c5N([H])[H])C4([H])[H])c3C([H])([H])[H])c([H])c([H])c2C1([H])[H]

$$$$
74:0:0
     RDKit          3D

 92100  0  0  1  0  0  0  0  0999 V2000
  -30.3680  -17.9280   21.2050 C   0  0  0  0  0  3  0  0  0  0  0  0
  -28.8230  -17.9290   19.3760 C   0  0  0  0  0  3  0  0  0  0  0  0
  -30.0990  -19.3260   21.4050 C   0  0  0  0  0  0  0  0  0  0  0  0
  -28.5490  -19.3140   19.5540 C   0  0  0  0  0  0  0  0  0  0  0  0
  -29.7590  -17.1910   20.1570 C   0  0  0  0  0  0  0  0  0  0  0  0
  -29.2020  -20.0720   20.5700 C   0  0  0  0  0  0  0  0  0  0  0  0
  -30.8120  -20.0330   22.5470 C   0  0  0  0  0  1  0  0  0  0  0  0
  -27.5310  -19.9430   18.6150 C   0  0  0  0  0  1  0  0  0  0  0  0
  -30.8300  -14.8130   20.3640 C   0  0  0  0  0  0  0  0  0  0  0  0
  -30.6750  -12.4780   19.5220 C   0  0  0  0  0  2  0  0  0  0  0  0
  -29.7750  -12.4120   18.2650 C   0  0  0  0  0  2  0  0  0  0  0  0
  -28.2790  -12.3600   18.6400 C   0  0  0  0  0  2  0  0  0  0  0  0
  -27.8730  -13.3230   19.7910 C   0  0  0  0  0  3  0  0  0  0  0  0
  -28.8930  -13.2990   20.9480 C   0  0  0  0  0  2  0  0  0  0  0  0
  -30.2030  -13.5930   20.3660 N   0  0  0  0  0  0  0  0  0  0  0  0
  -32.0630  -14.8770   20.3200 O   0  0  0  0  0  0  0  0  0  0  0  0
  -30.2080  -15.7330   18.2570 C   0  0  0  0  0  1  0  0  0  0  0  0
  -30.1150  -15.8230   19.7280 N   0  0  0  0  0  0  0  0  0  0  0  0
  -25.4710  -13.9670   20.4240 C   0  0  0  0  0  0  0  0  0  0  0  0
  -24.3840  -13.2140   20.7730 C   0  0  0  0  0  0  0  0  0  0  0  0
  -24.8340  -11.8580   20.8030 C   0  0  0  0  0  0  0  0  0  0  0  0
  -26.5120  -13.0690   20.2520 N   0  0  0  0  0  0  0  0  0  0  0  0
  -26.1340  -11.7990   20.5480 N   0  0  0  0  0  0  0  0  0  0  0  0
  -24.0900  -10.6090   21.0010 C   0  0  0  0  0  0  0  0  0  0  0  0
  -24.4960   -9.6520   21.9570 C   0  0  0  0  0  3  0  0  0  0  0  0
  -23.7540   -8.4660   22.1420 C   0  0  0  0  0  3  0  0  0  0  0  0
  -22.5940   -8.2270   21.3680 C   0  0  0  0  0  0  0  0  0  0  0  0
  -22.2070   -9.1720   20.4010 C   0  0  0  0  0  3  0  0  0  0  0  0
  -22.9500  -10.3500   20.2150 C   0  0  0  0  0  3  0  0  0  0  0  0
  -21.8250   -7.0920   21.4610 O   0  0  0  0  0  0  0  0  0  0  0  0
  -21.7720   -6.3510   22.6140 C   0  0  0  0  0  0  0  0  0  0  0  0
  -21.3670   -6.9160   23.8440 C   0  0  0  0  0  3  0  0  0  0  0  0
  -21.2580   -6.1030   24.9890 C   0  0  0  0  0  3  0  0  0  0  0  0
  -21.5460   -4.7270   24.9090 C   0  0  0  0  0  0  0  0  0  0  0  0
  -21.9430   -4.1620   23.6850 C   0  0  0  0  0  3  0  0  0  0  0  0
  -22.0530   -4.9720   22.5400 C   0  0  0  0  0  0  0  0  0  0  0  0
  -22.4170   -4.4190   21.3580 F   0  0  0  0  0  0  0  0  0  0  0  0
  -21.4340   -3.9450   26.0070 F   0  0  0  0  0  0  0  0  0  0  0  0
  -22.9820  -13.7100   20.9770 C   0  0  0  0  0  0  0  0  0  0  0  0
  -22.2180  -13.0510   21.8400 N   0  0  0  0  0  0  0  0  0  0  0  0
  -22.5720  -14.7180   20.4050 O   0  0  0  0  0  0  0  0  0  0  0  0
  -22.5570  -12.2330   22.3230 H   0  0  0  0  0  0  0  0  0  0  0  0
  -21.2760  -13.3710   22.0180 H   0  0  0  0  0  0  0  0  0  0  0  0
  -25.6560  -15.3320   20.2150 N   0  0  0  0  0  0  0  0  0  0  0  0
  -24.8950  -15.9970   20.2910 H   0  0  0  0  0  0  0  0  0  0  0  0
  -26.5340  -15.7600   19.9550 H   0  0  0  0  0  0  0  0  0  0  0  0
  -27.7710  -21.5630   21.7730 C   0  0  0  0  0  1  0  0  0  0  0  0
  -28.8990  -21.4570   20.8480 N   0  0  0  0  0  0  0  0  0  0  0  0
  -29.0310  -22.5710   19.8460 C   0  0  0  0  0  2  0  0  0  0  0  0
  -28.7910  -24.0620   20.3750 C   0  0  0  0  0  3  0  0  0  0  0  0
  -28.8240  -25.2430   19.3090 C   0  0  0  0  0  3  0  0  0  0  0  0
  -28.7070  -26.6460   19.7640 O   0  0  0  0  0  0  0  0  0  0  0  0
  -24.6730  -31.6540   22.9910 C   0  0  0  0  0  0  0  0  0  0  0  0
  -27.5110  -27.3780   19.7410 C   0  0  0  0  0  0  0  0  0  0  0  0
  -23.5410  -30.2710   21.2860 C   0  0  0  0  0  3  0  0  0  0  0  0
  -25.0650  -28.8590   19.7980 C   0  0  0  0  0  0  0  0  0  0  0  0
  -26.0590  -30.7260   21.1240 C   0  0  0  0  0  2  0  0  0  0  0  0
  -26.2050  -29.3830   20.4170 C   0  0  0  0  0  0  0  0  0  0  0  0
  -27.4280  -28.6530   20.3810 C   0  0  0  0  0  3  0  0  0  0  0  0
  -26.3400  -26.8950   19.1150 C   0  0  0  0  0  3  0  0  0  0  0  0
  -25.1330  -27.6190   19.1430 C   0  0  0  0  0  3  0  0  0  0  0  0
  -23.7870  -29.6690   19.8780 C   0  0  0  0  0  2  0  0  0  0  0  0
  -24.7750  -30.9000   21.8580 N   0  0  0  0  0  0  0  0  0  0  0  0
  -23.5770  -31.8560   23.5340 O   0  0  0  0  0  0  0  0  0  0  0  0
  -22.9280  -29.1830   22.1990 C   0  0  0  0  0  0  0  0  0  0  0  0
  -21.6060  -28.9690   22.0850 N   0  0  0  0  0  0  0  0  0  0  0  0
  -23.6400  -28.5330   22.9690 O   0  0  0  0  0  0  0  0  0  0  0  0
  -21.0870  -29.5480   21.4400 H   0  0  0  0  0  0  0  0  0  0  0  0
  -18.2710  -27.6710   22.6020 C   0  0  0  0  0  0  0  0  0  0  0  0
  -20.8310  -27.9650   22.8150 C   0  0  0  0  0  3  0  0  0  0  0  0
  -20.9430  -26.5780   22.1410 C   0  0  0  0  0  2  0  0  0  0  0  0
  -19.8180  -26.3010   21.1400 C   0  0  0  0  0  2  0  0  0  0  0  0
  -18.4530  -26.3740   21.8320 C   0  0  0  0  0  2  0  0  0  0  0  0
  -19.3870  -28.4260   23.0500 C   0  0  0  0  0  0  0  0  0  0  0  0
  -19.1630  -29.6430   23.7300 C   0  0  0  0  0  3  0  0  0  0  0  0
  -17.8540  -30.1050   23.9650 C   0  0  0  0  0  3  0  0  0  0  0  0
  -16.7530  -29.3460   23.5350 C   0  0  0  0  0  3  0  0  0  0  0  0
  -16.9620  -28.1300   22.8610 C   0  0  0  0  0  3  0  0  0  0  0  0
  -25.9230  -32.3190   23.6450 C   0  0  0  0  0  3  0  0  0  0  0  0
  -26.4960  -31.4990   24.8650 C   0  0  1  0  0  0  0  0  0  0  0  0
  -25.4310  -31.1350   25.9270 C   0  0  0  0  0  1  0  0  0  0  0  0
  -27.1470  -30.1810   24.3830 C   0  0  0  0  0  1  0  0  0  0  0  0
  -27.6130  -32.3100   25.5630 C   0  0  0  0  0  1  0  0  0  0  0  0
  -25.5360  -33.6730   24.0670 N   0  0  0  0  0  0  0  0  0  0  0  0
  -25.8150  -34.7910   23.3840 C   0  0  0  0  0  0  0  0  0  0  0  0
  -26.4930  -34.7930   22.3530 O   0  0  0  0  0  0  0  0  0  0  0  0
  -24.9340  -33.7410   24.8740 H   0  0  0  0  0  0  0  0  0  0  0  0
  -23.9950  -36.5090   23.1360 C   0  0  0  0  0  1  0  0  0  0  0  0
  -25.2510  -36.1170   23.9310 C   0  0  0  0  0  3  0  0  0  0  0  0
  -27.3300  -37.0510   24.8440 C   0  0  0  0  0  1  0  0  0  0  0  0
  -26.2260  -37.2280   23.9030 N   0  0  0  0  0  0  0  0  0  0  0  0
  -25.7710  -38.1120   24.1110 H   0  0  0  0  0  0  0  0  0  0  0  0
  1  3  1  0
  2  4  2  0
  2  5  1  0
  3  7  1  0
  4  6  1  0
  5  1  2  0
  6 48  1  0
  6  3  2  0
  8  4  1  0
  9 15  1  0
 10 15  1  0
 11 12  1  0
 11 10  1  0
 13 12  1  0
 13 22  1  0
 13 14  1  0
 15 14  1  0
 16  9  2  0
 17 18  1  0
 18  5  1  0
 18  9  1  0
 19 20  2  0
 20 21  1  0
 20 39  1  0
 21 24  1  0
 22 19  1  0
 22 23  1  0
 23 21  2  0
 24 25  1  0
 25 26  2  0
 27 30  1  0
 27 26  1  0
 28 27  2  0
 29 28  1  0
 29 24  2  0
 30 31  1  0
 31 32  1  0
 32 33  2  0
 34 33  1  0
 34 38  1  0
 35 34  2  0
 36 31  2  0
 36 35  1  0
 37 36  1  0
 39 40  1  0
 40 43  1  0
 40 42  1  0
 41 39  2  0
 44 45  1  0
 44 19  1  0
 46 44  1  0
 48 47  1  0
 49 50  1  0
 49 48  1  0
 51 52  1  0
 51 50  2  0
 53 64  2  0
 54 52  1  0
 54 59  1  0
 55 63  1  0
 55 65  1  0
 56 62  1  0
 56 58  1  0
 57 63  1  0
 58 57  1  0
 59 58  2  0
 60 61  1  0
 60 54  2  0
 61 56  2  0
 62 55  1  0
 63 53  1  0
 65 67  2  0
 66 65  1  0
 68 66  1  0
 69 78  2  0
 69 74  1  0
 70 66  1  0
 70 74  1  0
 71 70  1  0
 72 73  1  0
 72 71  1  0
 73 69  1  0
 74 75  2  0
 75 76  1  0
 77 76  2  0
 78 77  1  0
 79 53  1  0
 79 84  1  0
 79 80  1  0
 80 83  1  1
 80 81  1  0
 82 80  1  0
 84 87  1  0
 85 89  1  0
 85 84  1  0
 86 85  2  0
 89 88  1  0
 91 89  1  0
 91 92  1  0
 91 90  1  0
M  ISO  4   9 100  18 100  51 101  52 101
M  END
>  <TORSDO>  (75) 
F 20

>  <SCORE>  (75) 
-12.323

>  <name>  (75) 
74

>  <ligand_id>  (75) 
74

>  <original_smiles>  (75) 
[H]c1c([H])c([H])c2c(c1[H])C([H])([H])C([H])([H])C([H])([H])C2([H])N([H])C(=O)C1([H])N(C(=O)C([H])(N([H])C(=O)C([H])(N([H])C([H])([H])[H])C([H])([H])[H])C(C([H])([H])[H])(C([H])([H])[H])C([H])([H])[H])C([H])([H])c2c([H])c(OC([H])([H])C([H])([H])C([H])([H])N(c3c(C([H])([H])[H])c([H])c(N(C(=O)N4C([H])([H])C([H])([H])C([H])([H])C([H])(n5nc(-c6c([H])c([H])c(Oc7c([H])c([H])c(F)c([H])c7F)c([H])c6[H])c(C(=O)N([H])[H])c5N([H])[H])C4([H])[H])C([H])([H])[H])c([H])c3C([H])([H])[H])C([H])([H])[H])c([H])c([H])c2C1([H])[H]

>  <smiles>  (75) 
[H]c1c([H])c([H])c2c(c1[H])C([H])([H])C([H])([H])C([H])([H])C2([H])N([H])C(=O)C1([H])N(C(=O)C([H])(N([H])C(=O)C([H])(N([H])C([H])([H])[H])C([H])([H])[H])C(C([H])([H])[H])(C([H])([H])[H])C([H])([H])[H])C([H])([H])c2c([H])c(OC([H])([H])C([H])([H])C([H])([H])N(c3c(C([H])([H])[H])c([H])c(N(C(=O)N4C([H])([H])C([H])([H])C([H])([H])C([H])(n5nc(-c6c([H])c([H])c(Oc7c([H])c([H])c(F)c([H])c7F)c([H])c6[H])c(C(=O)N([H])[H])c5N([H])[H])C4([H])[H])C([H])([H])[H])c([H])c3C([H])([H])[H])C([H])([H])[H])c([H])c([H])c2C1([H])[H]

$$$$
75:0:0
     RDKit          3D

 93101  0  0  1  0  0  0  0  0999 V2000
  -31.6090  -17.7620   20.8160 C   0  0  0  0  0  3  0  0  0  0  0  0
  -29.7880  -19.9990   20.5650 C   0  0  0  0  0  0  0  0  0  0  0  0
  -30.2520  -17.4380   20.5880 C   0  0  0  0  0  0  0  0  0  0  0  0
  -32.0540  -19.0920   20.9190 C   0  0  0  0  0  0  0  0  0  0  0  0
  -31.1700  -20.1820   20.8090 C   0  0  0  0  0  0  0  0  0  0  0  0
  -29.3520  -18.5950   20.4680 C   0  0  0  0  0  0  0  0  0  0  0  0
  -33.3680  -19.3270   21.1500 F   0  0  0  0  0  0  0  0  0  0  0  0
  -31.6840  -21.4250   20.9730 F   0  0  0  0  0  0  0  0  0  0  0  0
  -27.6760  -18.2650   20.2100 Cl  0  0  0  0  0  0  0  0  0  0  0  0
  -30.5830  -14.8190   20.3380 C   0  0  0  0  0  0  0  0  0  0  0  0
  -30.3530  -12.5470   19.3050 C   0  0  0  0  0  2  0  0  0  0  0  0
  -29.4110  -12.6310   18.0850 C   0  0  0  0  0  2  0  0  0  0  0  0
  -27.9450  -12.4530   18.5250 C   0  0  0  0  0  2  0  0  0  0  0  0
  -27.5790  -13.3250   19.7550 C   0  0  0  0  0  3  0  0  0  0  0  0
  -28.6470  -13.2410   20.8660 C   0  0  0  0  0  2  0  0  0  0  0  0
  -29.9320  -13.6030   20.2590 N   0  0  0  0  0  0  0  0  0  0  0  0
  -31.7740  -14.8610   20.0200 O   0  0  0  0  0  0  0  0  0  0  0  0
  -29.8430  -15.9900   20.5350 N   0  0  0  0  0  0  0  0  0  0  0  0
  -28.8510  -15.8370   20.6290 H   0  0  0  0  0  0  0  0  0  0  0  0
  -25.1940  -13.8990   20.4980 C   0  0  0  0  0  0  0  0  0  0  0  0
  -24.1340  -13.1190   20.8720 C   0  0  0  0  0  0  0  0  0  0  0  0
  -24.6050  -11.7700   20.8400 C   0  0  0  0  0  0  0  0  0  0  0  0
  -26.2420  -13.0270   20.2550 N   0  0  0  0  0  0  0  0  0  0  0  0
  -25.8950  -11.7410   20.5260 N   0  0  0  0  0  0  0  0  0  0  0  0
  -23.8840  -10.5050   21.0320 C   0  0  0  0  0  0  0  0  0  0  0  0
  -24.3240   -9.5370   21.9630 C   0  0  0  0  0  3  0  0  0  0  0  0
  -23.6040   -8.3380   22.1440 C   0  0  0  0  0  3  0  0  0  0  0  0
  -22.4280   -8.0960   21.3940 C   0  0  0  0  0  0  0  0  0  0  0  0
  -22.0070   -9.0530   20.4540 C   0  0  0  0  0  3  0  0  0  0  0  0
  -22.7290  -10.2440   20.2700 C   0  0  0  0  0  3  0  0  0  0  0  0
  -21.6780   -6.9480   21.4850 O   0  0  0  0  0  0  0  0  0  0  0  0
  -21.6390   -6.2030   22.6360 C   0  0  0  0  0  0  0  0  0  0  0  0
  -21.2260   -6.7540   23.8680 C   0  0  0  0  0  3  0  0  0  0  0  0
  -21.1330   -5.9360   25.0100 C   0  0  0  0  0  3  0  0  0  0  0  0
  -21.4440   -4.5660   24.9230 C   0  0  0  0  0  0  0  0  0  0  0  0
  -21.8510   -4.0130   23.6950 C   0  0  0  0  0  3  0  0  0  0  0  0
  -21.9440   -4.8290   22.5550 C   0  0  0  0  0  0  0  0  0  0  0  0
  -22.3160   -4.2860   21.3700 F   0  0  0  0  0  0  0  0  0  0  0  0
  -21.3490   -3.7760   26.0190 F   0  0  0  0  0  0  0  0  0  0  0  0
  -22.7350  -13.5900   21.1460 C   0  0  0  0  0  0  0  0  0  0  0  0
  -22.0120  -12.8910   22.0130 N   0  0  0  0  0  0  0  0  0  0  0  0
  -22.2930  -14.6130   20.6250 O   0  0  0  0  0  0  0  0  0  0  0  0
  -22.3830  -12.0650   22.4570 H   0  0  0  0  0  0  0  0  0  0  0  0
  -21.0730  -13.1890   22.2380 H   0  0  0  0  0  0  0  0  0  0  0  0
  -25.3470  -15.2710   20.3190 N   0  0  0  0  0  0  0  0  0  0  0  0
  -24.5710  -15.9130   20.4360 H   0  0  0  0  0  0  0  0  0  0  0  0
  -26.1830  -15.7250   19.9770 H   0  0  0  0  0  0  0  0  0  0  0  0
  -28.8650  -21.3290   20.5070 C   0  0  0  0  0  2  0  0  0  0  0  0
  -29.2100  -23.8720   19.8280 C   0  0  0  0  0  0  0  0  0  0  0  0
  -30.1500  -24.6750   18.9520 C   0  0  0  0  0  1  0  0  0  0  0  0
  -29.4600  -22.5630   19.8400 N   0  0  0  0  0  0  0  0  0  0  0  0
  -28.1440  -24.8790   20.4880 C   0  0  0  0  0  2  0  0  0  0  0  0
  -28.3370  -26.3790   20.2770 O   0  0  0  0  0  0  0  0  0  0  0  0
  -24.6140  -31.9070   23.2530 C   0  0  0  0  0  0  0  0  0  0  0  0
  -27.2340  -27.2700   20.2440 C   0  0  0  0  0  0  0  0  0  0  0  0
  -23.4240  -30.4960   21.6170 C   0  0  0  0  0  3  0  0  0  0  0  0
  -24.8840  -28.9340   20.2050 C   0  0  0  0  0  0  0  0  0  0  0  0
  -25.9690  -30.8000   21.4510 C   0  0  0  0  0  2  0  0  0  0  0  0
  -26.0540  -29.4110   20.8100 C   0  0  0  0  0  0  0  0  0  0  0  0
  -27.2320  -28.5930   20.8130 C   0  0  0  0  0  3  0  0  0  0  0  0
  -26.0430  -26.8720   19.6020 C   0  0  0  0  0  3  0  0  0  0  0  0
  -24.8850  -27.6740   19.5890 C   0  0  0  0  0  3  0  0  0  0  0  0
  -23.6490  -29.8140   20.2420 C   0  0  0  0  0  2  0  0  0  0  0  0
  -24.6880  -31.0870   22.1620 N   0  0  0  0  0  0  0  0  0  0  0  0
  -23.5260  -32.1850   23.7780 O   0  0  0  0  0  0  0  0  0  0  0  0
  -22.7550  -29.4850   22.5790 C   0  0  0  0  0  0  0  0  0  0  0  0
  -21.4290  -29.3030   22.4460 N   0  0  0  0  0  0  0  0  0  0  0  0
  -23.4280  -28.8660   23.4070 O   0  0  0  0  0  0  0  0  0  0  0  0
  -20.9440  -29.8530   21.7520 H   0  0  0  0  0  0  0  0  0  0  0  0
  -18.0520  -28.0950   22.9360 C   0  0  0  0  0  0  0  0  0  0  0  0
  -20.6090  -28.3670   23.2170 C   0  0  0  0  0  3  0  0  0  0  0  0
  -20.7190  -26.9330   22.6520 C   0  0  0  0  0  2  0  0  0  0  0  0
  -19.6250  -26.5990   21.6340 C   0  0  0  0  0  2  0  0  0  0  0  0
  -18.2390  -26.7420   22.2690 C   0  0  0  0  0  2  0  0  0  0  0  0
  -19.1660  -28.8640   23.3660 C   0  0  0  0  0  0  0  0  0  0  0  0
  -18.9380  -30.1290   23.9510 C   0  0  0  0  0  3  0  0  0  0  0  0
  -17.6290  -30.6260   24.1070 C   0  0  0  0  0  3  0  0  0  0  0  0
  -16.5310  -29.8530   23.6920 C   0  0  0  0  0  3  0  0  0  0  0  0
  -16.7430  -28.5890   23.1120 C   0  0  0  0  0  3  0  0  0  0  0  0
  -25.8890  -32.5490   23.8790 C   0  0  0  0  0  3  0  0  0  0  0  0
  -26.3970  -31.7900   25.1670 C   0  0  1  0  0  0  0  0  0  0  0  0
  -25.2970  -31.5600   26.2290 C   0  0  0  0  0  1  0  0  0  0  0  0
  -26.9850  -30.4100   24.7940 C   0  0  0  0  0  1  0  0  0  0  0  0
  -27.5420  -32.5920   25.8300 C   0  0  0  0  0  1  0  0  0  0  0  0
  -25.5710  -33.9500   24.1990 N   0  0  0  0  0  0  0  0  0  0  0  0
  -25.9040  -34.9990   23.4370 C   0  0  0  0  0  0  0  0  0  0  0  0
  -26.5780  -34.8920   22.4090 O   0  0  0  0  0  0  0  0  0  0  0  0
  -24.9740  -34.1060   24.9980 H   0  0  0  0  0  0  0  0  0  0  0  0
  -24.1760  -36.7890   23.0640 C   0  0  0  0  0  1  0  0  0  0  0  0
  -25.4120  -36.3900   23.8850 C   0  0  0  0  0  3  0  0  0  0  0  0
  -27.5400  -37.2810   24.7250 C   0  0  0  0  0  1  0  0  0  0  0  0
  -26.4440  -37.4440   23.7750 N   0  0  0  0  0  0  0  0  0  0  0  0
  -26.0360  -38.3640   23.9150 H   0  0  0  0  0  0  0  0  0  0  0  0
  1  4  1  0
  2  5  1  0
  3  1  2  0
  4  7  1  0
  5  4  2  0
  5  8  1  0
  6  2  2  0
  6  3  1  0
  9  6  1  0
 10 18  1  0
 11 16  1  0
 12 13  1  0
 12 11  1  0
 14 13  1  0
 14 23  1  0
 14 15  1  0
 16 10  1  0
 16 15  1  0
 17 10  2  0
 18  3  1  0
 18 19  1  0
 20 21  2  0
 21 40  1  0
 22 21  1  0
 22 25  1  0
 23 20  1  0
 23 24  1  0
 24 22  2  0
 25 26  1  0
 26 27  2  0
 28 31  1  0
 28 27  1  0
 29 28  2  0
 30 29  1  0
 30 25  2  0
 31 32  1  0
 32 33  1  0
 33 34  2  0
 35 34  1  0
 35 39  1  0
 36 35  2  0
 37 32  2  0
 37 36  1  0
 38 37  1  0
 40 41  1  0
 41 44  1  0
 41 43  1  0
 42 40  2  0
 45 46  1  0
 45 20  1  0
 47 45  1  0
 48  2  1  0
 49 51  2  0
 49 52  1  0
 50 49  1  0
 51 48  1  0
 53 52  1  0
 54 65  2  0
 55 53  1  0
 55 60  1  0
 56 64  1  0
 56 66  1  0
 57 63  1  0
 57 59  1  0
 58 64  1  0
 59 60  2  0
 59 58  1  0
 61 55  2  0
 62 61  1  0
 62 57  2  0
 63 56  1  0
 64 54  1  0
 66 68  2  0
 67 66  1  0
 69 67  1  0
 70 79  2  0
 70 75  1  0
 71 67  1  0
 71 75  1  0
 72 71  1  0
 73 74  1  0
 73 72  1  0
 74 70  1  0
 75 76  2  0
 76 77  1  0
 78 77  2  0
 79 78  1  0
 80 54  1  0
 80 85  1  0
 80 81  1  0
 81 84  1  1
 81 82  1  0
 83 81  1  0
 85 88  1  0
 86 90  1  0
 86 85  1  0
 87 86  2  0
 90 89  1  0
 92 90  1  0
 92 93  1  0
 92 91  1  0
M  ISO  4  10 100  18 100  52 101  53 101
M  END
>  <TORSDO>  (76) 
F 19

>  <SCORE>  (76) 
-14.787

>  <name>  (76) 
75

>  <ligand_id>  (76) 
75

>  <original_smiles>  (76) 
[H]c1c([H])c([H])c2c(c1[H])C([H])([H])C([H])([H])C([H])([H])C2([H])N([H])C(=O)C1([H])N(C(=O)C([H])(N([H])C(=O)C([H])(N([H])C([H])([H])[H])C([H])([H])[H])C(C([H])([H])[H])(C([H])([H])[H])C([H])([H])[H])C([H])([H])c2c([H])c(OC([H])([H])C(=NC([H])([H])c3c(F)c(F)c([H])c(N([H])C(=O)N4C([H])([H])C([H])([H])C([H])([H])C([H])(n5nc(-c6c([H])c([H])c(Oc7c([H])c([H])c(F)c([H])c7F)c([H])c6[H])c(C(=O)N([H])[H])c5N([H])[H])C4([H])[H])c3Cl)C([H])([H])[H])c([H])c([H])c2C1([H])[H]

>  <smiles>  (76) 
[H]c1c([H])c([H])c2c(c1[H])C([H])([H])C([H])([H])C([H])([H])C2([H])N([H])C(=O)C1([H])N(C(=O)C([H])(N([H])C(=O)C([H])(N([H])C([H])([H])[H])C([H])([H])[H])C(C([H])([H])[H])(C([H])([H])[H])C([H])([H])[H])C([H])([H])c2c([H])c(OC([H])([H])C(=NC([H])([H])c3c(F)c(F)c([H])c(N([H])C(=O)N4C([H])([H])C([H])([H])C([H])([H])C([H])(n5nc(-c6c([H])c([H])c(Oc7c([H])c([H])c(F)c([H])c7F)c([H])c6[H])c(C(=O)N([H])[H])c5N([H])[H])C4([H])[H])c3Cl)C([H])([H])[H])c([H])c([H])c2C1([H])[H]

$$$$
76:0:0
     RDKit          3D

 97105  0  0  1  0  0  0  0  0999 V2000
  -30.6600  -19.6210   21.4680 C   0  0  0  0  0  3  0  0  0  0  0  0
  -30.6340  -18.2120   21.2840 C   0  0  0  0  0  0  0  0  0  0  0  0
  -29.1820  -18.6590   19.3500 C   0  0  0  0  0  0  0  0  0  0  0  0
  -30.0340  -17.6760   20.0660 C   0  0  0  0  0  0  0  0  0  0  0  0
  -29.1310  -20.1050   19.6380 C   0  0  0  0  0  0  0  0  0  0  0  0
  -29.9440  -20.5380   20.6890 C   0  0  0  0  0  0  0  0  0  0  0  0
  -28.1460  -18.1410   18.3640 C   0  0  0  0  0  1  0  0  0  0  0  0
  -29.9660  -21.8420   21.0520 F   0  0  0  0  0  0  0  0  0  0  0  0
  -30.9150  -15.1250   19.5440 C   0  0  0  0  0  0  0  0  0  0  0  0
  -30.7990  -12.7640   18.5990 C   0  0  0  0  0  2  0  0  0  0  0  0
  -29.7430  -12.7590   17.4660 C   0  0  0  0  0  2  0  0  0  0  0  0
  -28.3060  -12.5850   18.0230 C   0  0  0  0  0  2  0  0  0  0  0  0
  -28.0390  -13.4970   19.2430 C   0  0  0  0  0  3  0  0  0  0  0  0
  -29.1950  -13.3740   20.2480 C   0  0  0  0  0  2  0  0  0  0  0  0
  -30.4040  -13.8290   19.5550 N   0  0  0  0  0  0  0  0  0  0  0  0
  -32.0720  -15.2890   19.1290 O   0  0  0  0  0  0  0  0  0  0  0  0
  -30.0020  -16.1790   19.7820 N   0  0  0  0  0  0  0  0  0  0  0  0
  -29.0810  -15.8080   19.9590 H   0  0  0  0  0  0  0  0  0  0  0  0
  -25.7910  -14.1530   20.2920 C   0  0  0  0  0  0  0  0  0  0  0  0
  -24.7310  -13.4120   20.7280 C   0  0  0  0  0  0  0  0  0  0  0  0
  -25.1090  -12.0420   20.5500 C   0  0  0  0  0  0  0  0  0  0  0  0
  -26.7470  -13.2420   19.8650 N   0  0  0  0  0  0  0  0  0  0  0  0
  -26.3490  -11.9630   20.0810 N   0  0  0  0  0  0  0  0  0  0  0  0
  -24.3430  -10.8050   20.7420 C   0  0  0  0  0  0  0  0  0  0  0  0
  -24.7200   -9.8480   21.7100 C   0  0  0  0  0  3  0  0  0  0  0  0
  -23.9560   -8.6740   21.8890 C   0  0  0  0  0  3  0  0  0  0  0  0
  -22.8030   -8.4500   21.1000 C   0  0  0  0  0  0  0  0  0  0  0  0
  -22.4490   -9.3950   20.1200 C   0  0  0  0  0  3  0  0  0  0  0  0
  -23.2120  -10.5570   19.9390 C   0  0  0  0  0  3  0  0  0  0  0  0
  -22.0120   -7.3270   21.1890 O   0  0  0  0  0  0  0  0  0  0  0  0
  -21.7190   -6.7500   22.4000 C   0  0  0  0  0  0  0  0  0  0  0  0
  -21.0860   -7.4710   23.4370 C   0  0  0  0  0  3  0  0  0  0  0  0
  -20.7390   -6.8200   24.6380 C   0  0  0  0  0  3  0  0  0  0  0  0
  -21.0110   -5.4490   24.8010 C   0  0  0  0  0  0  0  0  0  0  0  0
  -21.6370   -4.7290   23.7700 C   0  0  0  0  0  3  0  0  0  0  0  0
  -21.9860   -5.3760   22.5710 C   0  0  0  0  0  0  0  0  0  0  0  0
  -22.5680   -4.6740   21.5690 F   0  0  0  0  0  0  0  0  0  0  0  0
  -20.6680   -4.8200   25.9480 F   0  0  0  0  0  0  0  0  0  0  0  0
  -23.4020  -13.9280   21.1990 C   0  0  0  0  0  0  0  0  0  0  0  0
  -22.7540  -13.2170   22.1140 N   0  0  0  0  0  0  0  0  0  0  0  0
  -22.9560  -15.0020   20.7900 O   0  0  0  0  0  0  0  0  0  0  0  0
  -23.1230  -12.3410   22.4560 H   0  0  0  0  0  0  0  0  0  0  0  0
  -21.8720  -13.5490   22.4770 H   0  0  0  0  0  0  0  0  0  0  0  0
  -26.0160  -15.5230   20.1870 N   0  0  0  0  0  0  0  0  0  0  0  0
  -25.3260  -16.2060   20.4740 H   0  0  0  0  0  0  0  0  0  0  0  0
  -26.8310  -15.9330   19.7560 H   0  0  0  0  0  0  0  0  0  0  0  0
  -32.6200  -17.7570   22.9130 C   0  0  0  0  0  1  0  0  0  0  0  0
  -31.0040  -15.9330   22.5230 C   0  0  0  0  0  1  0  0  0  0  0  0
  -30.2040  -17.8660   23.7940 C   0  0  0  0  0  1  0  0  0  0  0  0
  -31.1230  -17.4530   22.5770 C   0  0  2  0  0  0  0  0  0  0  0  0
  -28.2460  -21.0800   19.0010 N   0  0  0  0  0  4  0  0  0  0  0  0
  -27.5770  -20.6460   18.3760 H   0  0  0  0  0  0  0  0  0  0  0  0
  -29.5800  -23.1090   18.1510 C   0  0  0  0  0  1  0  0  0  0  0  0
  -28.2930  -22.6130   18.8280 C   0  0  0  0  0  0  0  0  0  0  0  0
  -27.6830  -23.6440   19.9270 C   0  0  0  0  0  2  0  0  0  0  0  0
  -28.2220  -25.1750   20.2330 C   0  0  0  0  0  2  0  0  0  0  0  0
  -28.0380  -26.4930   19.5270 O   0  0  0  0  0  0  0  0  0  0  0  0
  -24.5000  -31.7670   23.2560 C   0  0  0  0  0  0  0  0  0  0  0  0
  -26.9200  -27.3240   19.7630 C   0  0  0  0  0  0  0  0  0  0  0  0
  -23.2050  -30.4240   21.6450 C   0  0  0  0  0  3  0  0  0  0  0  0
  -24.5570  -28.9370   20.0640 C   0  0  0  0  0  0  0  0  0  0  0  0
  -25.7270  -30.7710   21.2920 C   0  0  0  0  0  2  0  0  0  0  0  0
  -25.7700  -29.4090   20.5790 C   0  0  0  0  0  0  0  0  0  0  0  0
  -26.9570  -28.6180   20.4070 C   0  0  0  0  0  3  0  0  0  0  0  0
  -25.6710  -26.9090   19.2660 C   0  0  0  0  0  3  0  0  0  0  0  0
  -24.5080  -27.6950   19.4100 C   0  0  0  0  0  3  0  0  0  0  0  0
  -23.3320  -29.8160   20.2240 C   0  0  0  0  0  2  0  0  0  0  0  0
  -24.5020  -31.0070   22.1160 N   0  0  0  0  0  0  0  0  0  0  0  0
  -23.4550  -31.9950   23.8770 O   0  0  0  0  0  0  0  0  0  0  0  0
  -22.6170  -29.3580   22.5970 C   0  0  0  0  0  0  0  0  0  0  0  0
  -21.3330  -29.0020   22.4050 N   0  0  0  0  0  0  0  0  0  0  0  0
  -23.3190  -28.8450   23.4720 O   0  0  0  0  0  0  0  0  0  0  0  0
  -20.8180  -29.4810   21.6770 H   0  0  0  0  0  0  0  0  0  0  0  0
  -18.1920  -27.2120   22.6150 C   0  0  0  0  0  0  0  0  0  0  0  0
  -20.5980  -27.9810   23.1580 C   0  0  0  0  0  3  0  0  0  0  0  0
  -21.0390  -26.5560   22.7510 C   0  0  0  0  0  2  0  0  0  0  0  0
  -20.1640  -25.9500   21.6440 C   0  0  0  0  0  2  0  0  0  0  0  0
  -18.7030  -25.8740   22.0990 C   0  0  0  0  0  2  0  0  0  0  0  0
  -19.0850  -28.2060   23.0940 C   0  0  0  0  0  0  0  0  0  0  0  0
  -18.5650  -29.4440   23.5300 C   0  0  0  0  0  3  0  0  0  0  0  0
  -17.1780  -29.6950   23.4930 C   0  0  0  0  0  3  0  0  0  0  0  0
  -16.3000  -28.7030   23.0280 C   0  0  0  0  0  3  0  0  0  0  0  0
  -16.8030  -27.4630   22.5940 C   0  0  0  0  0  3  0  0  0  0  0  0
  -25.8090  -32.3940   23.8120 C   0  0  0  0  0  3  0  0  0  0  0  0
  -25.5200  -33.7920   24.1540 N   0  0  0  0  0  0  0  0  0  0  0  0
  -25.8380  -34.8440   23.3900 C   0  0  0  0  0  0  0  0  0  0  0  0
  -26.4750  -34.7360   22.3370 O   0  0  0  0  0  0  0  0  0  0  0  0
  -24.9370  -33.9510   24.9610 H   0  0  0  0  0  0  0  0  0  0  0  0
  -24.1190  -36.6660   23.0990 C   0  0  0  0  0  1  0  0  0  0  0  0
  -25.3830  -36.2400   23.8650 C   0  0  0  0  0  3  0  0  0  0  0  0
  -27.5570  -37.1050   24.6170 C   0  0  0  0  0  1  0  0  0  0  0  0
  -26.4190  -37.2870   23.7200 N   0  0  0  0  0  0  0  0  0  0  0  0
  -26.0220  -38.2090   23.8910 H   0  0  0  0  0  0  0  0  0  0  0  0
  -26.3730  -31.6300   25.0690 C   0  0  1  0  0  0  0  0  0  0  0  0
  -25.3120  -31.3700   26.1670 C   0  0  0  0  0  1  0  0  0  0  0  0
  -26.9710  -30.2660   24.6520 C   0  0  0  0  0  1  0  0  0  0  0  0
  -27.5310  -32.4500   25.6970 C   0  0  0  0  0  1  0  0  0  0  0  0
  2  1  1  0
  2 50  1  0
  3  5  2  0
  3  4  1  0
  4  2  2  0
  5  6  1  0
  6  8  1  0
  6  1  2  0
  7  3  1  0
  9 15  1  0
  9 17  1  0
 10 15  1  0
 11 12  1  0
 11 10  1  0
 13 12  1  0
 13 22  1  0
 13 14  1  0
 15 14  1  0
 16  9  2  0
 17 18  1  0
 17  4  1  0
 19 20  2  0
 20 39  1  0
 21 20  1  0
 21 24  1  0
 22 23  1  0
 22 19  1  0
 23 21  2  0
 24 25  1  0
 25 26  2  0
 27 30  1  0
 27 26  1  0
 28 27  2  0
 29 28  1  0
 29 24  2  0
 30 31  1  0
 31 36  2  0
 31 32  1  0
 32 33  2  0
 33 34  1  0
 34 38  1  0
 35 34  2  0
 36 35  1  0
 37 36  1  0
 39 40  1  0
 40 42  1  0
 40 43  1  0
 41 39  2  0
 44 19  1  0
 44 45  1  0
 46 44  1  0
 50 48  1  6
 50 47  1  0
 50 49  1  0
 51  5  1  0
 52 51  1  0
 53 54  1  0
 54 51  2  3
 54 55  1  0
 55 56  1  0
 57 59  1  0
 57 56  1  0
 58 69  2  0
 59 64  1  0
 60 68  1  0
 60 70  1  0
 61 67  1  0
 61 63  1  0
 62 68  1  0
 63 62  1  0
 64 63  2  0
 65 66  1  0
 65 59  2  0
 66 61  2  0
 67 60  1  0
 68 58  1  0
 70 72  2  0
 71 70  1  0
 73 71  1  0
 74 79  1  0
 75 71  1  0
 76 75  1  0
 77 78  1  0
 77 76  1  0
 78 74  1  0
 79 75  1  0
 79 80  2  0
 81 80  1  0
 82 81  2  0
 83 74  2  0
 83 82  1  0
 84 58  1  0
 84 85  1  0
 84 94  1  0
 85 88  1  0
 86 90  1  0
 86 85  1  0
 87 86  2  0
 90 89  1  0
 92 90  1  0
 92 93  1  0
 92 91  1  0
 94 97  1  1
 94 95  1  0
 96 94  1  0
M  ISO  4   9 100  17 100  56 101  57 101
M  END
>  <TORSDO>  (77) 
F 21

>  <SCORE>  (77) 
-7.755

>  <name>  (77) 
76

>  <ligand_id>  (77) 
76

>  <original_smiles>  (77) 
[H]c1c([H])c([H])c2c(c1[H])C([H])([H])C([H])([H])C([H])([H])C2([H])N([H])C(=O)C1([H])N(C(=O)C([H])(N([H])C(=O)C([H])(N([H])C([H])([H])[H])C([H])([H])[H])C(C([H])([H])[H])(C([H])([H])[H])C([H])([H])[H])C([H])([H])c2c([H])c(OC([H])([H])C([H])([H])C([H])(N([H])c3c(F)c([H])c(C(C([H])([H])[H])(C([H])([H])[H])C([H])([H])[H])c(N([H])C(=O)N4C([H])([H])C([H])([H])C([H])([H])C([H])(n5nc(-c6c([H])c([H])c(Oc7c([H])c([H])c(F)c([H])c7F)c([H])c6[H])c(C(=O)N([H])[H])c5N([H])[H])C4([H])[H])c3C([H])([H])[H])C([H])([H])[H])c([H])c([H])c2C1([H])[H]

>  <smiles>  (77) 
[H]c1c([H])c([H])c2c(c1[H])C([H])([H])C([H])([H])C([H])([H])C2([H])N([H])C(=O)C1([H])N(C(=O)C([H])(N([H])C(=O)C([H])(N([H])C([H])([H])[H])C([H])([H])[H])C(C([H])([H])[H])(C([H])([H])[H])C([H])([H])[H])C([H])([H])c2c([H])c(OC([H])([H])C([H])([H])C([H])(N([H])c3c(F)c([H])c(C(C([H])([H])[H])(C([H])([H])[H])C([H])([H])[H])c(N([H])C(=O)N4C([H])([H])C([H])([H])C([H])([H])C([H])(n5nc(-c6c([H])c([H])c(Oc7c([H])c([H])c(F)c([H])c7F)c([H])c6[H])c(C(=O)N([H])[H])c5N([H])[H])C4([H])[H])c3C([H])([H])[H])C([H])([H])[H])c([H])c([H])c2C1([H])[H]

$$$$
77:0:0
     RDKit          3D

 93101  0  0  1  0  0  0  0  0999 V2000
  -30.9380  -20.6610   20.6830 C   0  0  0  0  0  3  0  0  0  0  0  0
  -29.3380  -19.0320   19.9510 C   0  0  0  0  0  3  0  0  0  0  0  0
  -29.6980  -20.5390   20.1840 C   0  0  0  0  0  0  0  0  0  0  0  0
  -30.1580  -17.9020   20.3000 C   0  0  0  0  0  3  0  0  0  0  0  0
  -31.4510  -18.2580   20.9320 C   0  0  0  0  0  0  0  0  0  0  0  0
  -28.0110  -18.7810   19.2530 C   0  0  0  0  0  1  0  0  0  0  0  0
  -33.1340  -19.9520   21.4760 C   0  0  0  0  0  1  0  0  0  0  0  0
  -31.7980  -19.5870   20.9830 N   0  0  0  0  0  0  0  0  0  0  0  0
  -32.2040  -17.4180   21.4380 O   0  0  0  0  0  0  0  0  0  0  0  0
  -30.4650  -15.1740   20.0230 C   0  0  0  0  0  0  0  0  0  0  0  0
  -30.2980  -12.8480   18.9350 C   0  0  0  0  0  2  0  0  0  0  0  0
  -29.2700  -12.7990   17.7760 C   0  0  0  0  0  2  0  0  0  0  0  0
  -27.8470  -12.5220   18.2990 C   0  0  0  0  0  2  0  0  0  0  0  0
  -27.5170  -13.3760   19.5490 C   0  0  0  0  0  3  0  0  0  0  0  0
  -28.6640  -13.3120   20.5860 C   0  0  0  0  0  2  0  0  0  0  0  0
  -29.8590  -13.8900   19.9280 N   0  0  0  0  0  0  0  0  0  0  0  0
  -31.6140  -15.2030   19.5640 O   0  0  0  0  0  0  0  0  0  0  0  0
  -28.6480  -16.2940   21.3200 C   0  0  0  0  0  1  0  0  0  0  0  0
  -29.7630  -16.4160   20.3750 N   0  0  0  0  0  0  0  0  0  0  0  0
  -25.1750  -13.9030   20.4430 C   0  0  0  0  0  0  0  0  0  0  0  0
  -24.1470  -13.1080   20.8650 C   0  0  0  0  0  0  0  0  0  0  0  0
  -24.6250  -11.7660   20.7670 C   0  0  0  0  0  0  0  0  0  0  0  0
  -26.2160  -13.0460   20.1200 N   0  0  0  0  0  0  0  0  0  0  0  0
  -25.8940  -11.7520   20.3730 N   0  0  0  0  0  0  0  0  0  0  0  0
  -23.9210  -10.4920   20.9600 C   0  0  0  0  0  0  0  0  0  0  0  0
  -24.3830   -9.5260   21.8800 C   0  0  0  0  0  3  0  0  0  0  0  0
  -23.6770   -8.3180   22.0650 C   0  0  0  0  0  3  0  0  0  0  0  0
  -22.4940   -8.0680   21.3300 C   0  0  0  0  0  0  0  0  0  0  0  0
  -22.0490   -9.0230   20.3980 C   0  0  0  0  0  3  0  0  0  0  0  0
  -22.7580  -10.2230   20.2110 C   0  0  0  0  0  3  0  0  0  0  0  0
  -21.7580   -6.9120   21.4260 O   0  0  0  0  0  0  0  0  0  0  0  0
  -21.6940   -6.1950   22.5940 C   0  0  0  0  0  0  0  0  0  0  0  0
  -21.2200   -6.7660   23.7950 C   0  0  0  0  0  3  0  0  0  0  0  0
  -21.1060   -5.9740   24.9560 C   0  0  0  0  0  3  0  0  0  0  0  0
  -21.4570   -4.6110   24.9140 C   0  0  0  0  0  0  0  0  0  0  0  0
  -21.9260   -4.0390   23.7170 C   0  0  0  0  0  3  0  0  0  0  0  0
  -22.0400   -4.8290   22.5600 C   0  0  0  0  0  0  0  0  0  0  0  0
  -22.4720   -4.2700   21.4050 F   0  0  0  0  0  0  0  0  0  0  0  0
  -21.3410   -3.8470   26.0240 F   0  0  0  0  0  0  0  0  0  0  0  0
  -22.7660  -13.5650   21.2360 C   0  0  0  0  0  0  0  0  0  0  0  0
  -22.1050  -12.8470   22.1360 N   0  0  0  0  0  0  0  0  0  0  0  0
  -22.2860  -14.5960   20.7650 O   0  0  0  0  0  0  0  0  0  0  0  0
  -22.5070  -12.0130   22.5380 H   0  0  0  0  0  0  0  0  0  0  0  0
  -21.1820  -13.1360   22.4280 H   0  0  0  0  0  0  0  0  0  0  0  0
  -25.2900  -15.2770   20.2770 N   0  0  0  0  0  0  0  0  0  0  0  0
  -24.5120  -15.9030   20.4560 H   0  0  0  0  0  0  0  0  0  0  0  0
  -26.0830  -15.7400   19.8550 H   0  0  0  0  0  0  0  0  0  0  0  0
  -28.9210  -21.8070   19.9560 N   0  0  0  0  0  0  0  0  0  0  0  0
  -27.9860  -21.6540   19.5870 H   0  0  0  0  0  0  0  0  0  0  0  0
  -30.3800  -23.7590   19.2530 C   0  0  0  0  0  1  0  0  0  0  0  0
  -29.2030  -23.3580   20.1590 C   0  0  0  0  0  3  0  0  0  0  0  0
  -28.0490  -24.6210   20.0140 C   0  0  0  0  0  2  0  0  0  0  0  0
  -28.2520  -26.1760   20.2290 O   0  0  0  0  0  0  0  0  0  0  0  0
  -24.6230  -31.9070   23.2420 C   0  0  0  0  0  0  0  0  0  0  0  0
  -27.1840  -27.1650   20.1830 C   0  0  0  0  0  0  0  0  0  0  0  0
  -23.4150  -30.5200   21.6030 C   0  0  0  0  0  3  0  0  0  0  0  0
  -24.8530  -28.9350   20.1700 C   0  0  0  0  0  0  0  0  0  0  0  0
  -25.9710  -30.7670   21.4330 C   0  0  0  0  0  2  0  0  0  0  0  0
  -26.0380  -29.3720   20.7750 C   0  0  0  0  0  0  0  0  0  0  0  0
  -27.2010  -28.5050   20.7610 C   0  0  0  0  0  3  0  0  0  0  0  0
  -25.9660  -26.8330   19.5480 C   0  0  0  0  0  3  0  0  0  0  0  0
  -24.8320  -27.6800   19.5410 C   0  0  0  0  0  3  0  0  0  0  0  0
  -23.6310  -29.8420   20.2230 C   0  0  0  0  0  2  0  0  0  0  0  0
  -24.6900  -31.0890   22.1460 N   0  0  0  0  0  0  0  0  0  0  0  0
  -23.5380  -32.1960   23.7700 O   0  0  0  0  0  0  0  0  0  0  0  0
  -22.7320  -29.5150   22.5670 C   0  0  0  0  0  0  0  0  0  0  0  0
  -21.4030  -29.3490   22.4370 N   0  0  0  0  0  0  0  0  0  0  0  0
  -23.4020  -28.8890   23.3920 O   0  0  0  0  0  0  0  0  0  0  0  0
  -20.9200  -29.9030   21.7440 H   0  0  0  0  0  0  0  0  0  0  0  0
  -18.0150  -28.1630   22.9420 C   0  0  0  0  0  0  0  0  0  0  0  0
  -20.5770  -28.4120   23.2050 C   0  0  0  0  0  3  0  0  0  0  0  0
  -20.6710  -26.9820   22.6220 C   0  0  0  0  0  2  0  0  0  0  0  0
  -19.5640  -26.6700   21.6100 C   0  0  0  0  0  2  0  0  0  0  0  0
  -18.1840  -26.8170   22.2570 C   0  0  0  0  0  2  0  0  0  0  0  0
  -19.1380  -28.9190   23.3720 C   0  0  0  0  0  0  0  0  0  0  0  0
  -18.9240  -30.1790   23.9730 C   0  0  0  0  0  3  0  0  0  0  0  0
  -17.6220  -30.6820   24.1480 C   0  0  0  0  0  3  0  0  0  0  0  0
  -16.5140  -29.9230   23.7340 C   0  0  0  0  0  3  0  0  0  0  0  0
  -16.7110  -28.6660   23.1360 C   0  0  0  0  0  3  0  0  0  0  0  0
  -25.9030  -32.5370   23.8700 C   0  0  0  0  0  3  0  0  0  0  0  0
  -26.4100  -31.7650   25.1510 C   0  0  1  0  0  0  0  0  0  0  0  0
  -25.3110  -31.5300   26.2150 C   0  0  0  0  0  1  0  0  0  0  0  0
  -26.9880  -30.3840   24.7650 C   0  0  0  0  0  1  0  0  0  0  0  0
  -27.5610  -32.5540   25.8190 C   0  0  0  0  0  1  0  0  0  0  0  0
  -25.5960  -33.9360   24.2100 N   0  0  0  0  0  0  0  0  0  0  0  0
  -25.9070  -34.9960   23.4490 C   0  0  0  0  0  0  0  0  0  0  0  0
  -26.5500  -34.8970   22.4010 O   0  0  0  0  0  0  0  0  0  0  0  0
  -25.0280  -34.0870   25.0300 H   0  0  0  0  0  0  0  0  0  0  0  0
  -24.1570  -36.7830   23.1700 C   0  0  0  0  0  1  0  0  0  0  0  0
  -25.4340  -36.3830   23.9270 C   0  0  0  0  0  3  0  0  0  0  0  0
  -27.5940  -37.2850   24.6720 C   0  0  0  0  0  1  0  0  0  0  0  0
  -26.4550  -37.4420   23.7700 N   0  0  0  0  0  0  0  0  0  0  0  0
  -26.0490  -38.3610   23.9290 H   0  0  0  0  0  0  0  0  0  0  0  0
  1  8  1  0
  2  6  1  0
  2  3  1  0
  2  4  1  0
  3  1  2  0
  4 19  1  0
  4  5  1  0
  5  8  1  0
  5  9  2  0
  8  7  1  0
 10 19  1  0
 11 16  1  0
 12 13  1  0
 12 11  1  0
 14 13  1  0
 14 23  1  0
 14 15  1  0
 16 10  1  0
 16 15  1  0
 17 10  2  0
 19 18  1  0
 20 21  2  0
 21 40  1  0
 22 21  1  0
 22 25  1  0
 23 24  1  0
 23 20  1  0
 24 22  2  0
 25 26  1  0
 26 27  2  0
 28 31  1  0
 28 27  1  0
 29 28  2  0
 30 29  1  0
 30 25  2  0
 31 32  1  0
 32 33  1  0
 33 34  2  0
 35 34  1  0
 35 39  1  0
 36 35  2  0
 37 32  2  0
 37 36  1  0
 38 37  1  0
 40 41  1  0
 41 44  1  0
 41 43  1  0
 42 40  2  0
 45 20  1  0
 45 46  1  0
 47 45  1  0
 48 51  1  0
 48  3  1  0
 49 48  1  0
 51 50  1  0
 52 51  1  0
 52 53  1  0
 54 65  2  0
 55 53  1  0
 55 60  1  0
 56 64  1  0
 56 66  1  0
 57 63  1  0
 57 59  1  0
 58 64  1  0
 59 58  1  0
 60 59  2  0
 61 55  2  0
 62 61  1  0
 62 57  2  0
 63 56  1  0
 64 54  1  0
 66 68  2  0
 67 66  1  0
 69 67  1  0
 70 79  2  0
 70 75  1  0
 71 67  1  0
 71 75  1  0
 72 71  1  0
 73 74  1  0
 73 72  1  0
 74 70  1  0
 75 76  2  0
 76 77  1  0
 78 77  2  0
 79 78  1  0
 80 54  1  0
 80 85  1  0
 80 81  1  0
 81 84  1  1
 81 82  1  0
 83 81  1  0
 85 88  1  0
 86 90  1  0
 86 85  1  0
 87 86  2  0
 90 89  1  0
 92 90  1  0
 92 93  1  0
 92 91  1  0
M  ISO  4  10 100  19 100  52 101  53 101
M  END
>  <TORSDO>  (78) 
F 19

>  <SCORE>  (78) 
-14.557

>  <name>  (78) 
77

>  <ligand_id>  (78) 
77

>  <original_smiles>  (78) 
[H]c1c([H])c([H])c2c(c1[H])C([H])([H])C([H])([H])C([H])([H])C2([H])N([H])C(=O)C1([H])N(C(=O)C([H])(N([H])C(=O)C([H])(N([H])C([H])([H])[H])C([H])([H])[H])C(C([H])([H])[H])(C([H])([H])[H])C([H])([H])[H])C([H])([H])c2c([H])c(OC([H])([H])C([H])(N([H])c3c(C([H])([H])[H])c(N(C(=O)N4C([H])([H])C([H])([H])C([H])([H])C([H])(n5nc(-c6c([H])c([H])c(Oc7c([H])c([H])c(F)c([H])c7F)c([H])c6[H])c(C(=O)N([H])[H])c5N([H])[H])C4([H])[H])C([H])([H])[H])c(=O)n(C([H])([H])[H])c3[H])C([H])([H])[H])c([H])c([H])c2C1([H])[H]

>  <smiles>  (78) 
[H]c1c([H])c([H])c2c(c1[H])C([H])([H])C([H])([H])C([H])([H])C2([H])N([H])C(=O)C1([H])N(C(=O)C([H])(N([H])C(=O)C([H])(N([H])C([H])([H])[H])C([H])([H])[H])C(C([H])([H])[H])(C([H])([H])[H])C([H])([H])[H])C([H])([H])c2c([H])c(OC([H])([H])C([H])(N([H])c3c(C([H])([H])[H])c(N(C(=O)N4C([H])([H])C([H])([H])C([H])([H])C([H])(n5nc(-c6c([H])c([H])c(Oc7c([H])c([H])c(F)c([H])c7F)c([H])c6[H])c(C(=O)N([H])[H])c5N([H])[H])C4([H])[H])C([H])([H])[H])c(=O)n(C([H])([H])[H])c3[H])C([H])([H])[H])c([H])c([H])c2C1([H])[H]

$$$$
78:0:0
     RDKit          3D

 98106  0  0  1  0  0  0  0  0999 V2000
  -29.7940  -20.7310   22.3550 C   0  0  0  0  0  3  0  0  0  0  0  0
  -31.1020  -20.4100   20.3630 C   0  0  0  0  0  3  0  0  0  0  0  0
  -29.6500  -22.1070   22.0520 C   0  0  0  0  0  0  0  0  0  0  0  0
  -30.5120  -19.8370   21.5160 C   0  0  0  0  0  0  0  0  0  0  0  0
  -30.2520  -22.6600   20.8930 C   0  0  0  0  0  0  0  0  0  0  0  0
  -31.0090  -21.7880   20.0680 C   0  0  0  0  0  0  0  0  0  0  0  0
  -28.8350  -22.9870   22.9900 C   0  0  0  0  0  1  0  0  0  0  0  0
  -31.6900  -22.2570   18.9940 F   0  0  0  0  0  0  0  0  0  0  0  0
  -30.5410  -18.0530   23.2470 C   0  0  0  0  0  1  0  0  0  0  0  0
  -30.6550  -18.4490   21.8370 N   0  0  0  0  0  0  0  0  0  0  0  0
  -30.4910  -17.3780   20.8210 C   0  0  0  0  0  2  0  0  0  0  0  0
  -32.2970  -14.4650   19.3690 C   0  0  0  0  0  0  0  0  0  0  0  0
  -31.5190  -12.2830   18.4970 C   0  0  0  0  0  2  0  0  0  0  0  0
  -30.4780  -12.4750   17.3760 C   0  0  0  0  0  2  0  0  0  0  0  0
  -29.0620  -12.4960   17.9750 C   0  0  0  0  0  2  0  0  0  0  0  0
  -28.9540  -13.4570   19.1860 C   0  0  0  0  0  3  0  0  0  0  0  0
  -30.1180  -13.2490   20.1750 C   0  0  0  0  0  2  0  0  0  0  0  0
  -31.3970  -13.4170   19.4530 N   0  0  0  0  0  0  0  0  0  0  0  0
  -33.2710  -14.3070   18.6330 O   0  0  0  0  0  0  0  0  0  0  0  0
  -31.3500  -16.0840   20.9650 C   0  0  0  0  0  0  0  0  0  0  0  0
  -32.1510  -15.7220   19.9310 N   0  0  0  0  0  0  0  0  0  0  0  0
  -31.3290  -15.4670   22.0350 O   0  0  0  0  0  0  0  0  0  0  0  0
  -26.8480  -14.3310   20.3720 C   0  0  0  0  0  0  0  0  0  0  0  0
  -25.7260  -13.6960   20.8370 C   0  0  0  0  0  0  0  0  0  0  0  0
  -25.9190  -12.3070   20.5680 C   0  0  0  0  0  0  0  0  0  0  0  0
  -27.6610  -13.3360   19.8560 N   0  0  0  0  0  0  0  0  0  0  0  0
  -27.1160  -12.1040   20.0300 N   0  0  0  0  0  0  0  0  0  0  0  0
  -25.0100  -11.1650   20.7370 C   0  0  0  0  0  0  0  0  0  0  0  0
  -25.3240  -10.0910   21.5960 C   0  0  0  0  0  3  0  0  0  0  0  0
  -24.4240   -9.0140   21.7540 C   0  0  0  0  0  3  0  0  0  0  0  0
  -23.1950   -9.0080   21.0520 C   0  0  0  0  0  0  0  0  0  0  0  0
  -22.8990  -10.0690   20.1790 C   0  0  0  0  0  3  0  0  0  0  0  0
  -23.7980  -11.1370   20.0200 C   0  0  0  0  0  3  0  0  0  0  0  0
  -22.2710   -7.9940   21.1240 O   0  0  0  0  0  0  0  0  0  0  0  0
  -22.0510   -7.3000   22.2870 C   0  0  0  0  0  0  0  0  0  0  0  0
  -21.6820   -7.9530   23.4850 C   0  0  0  0  0  3  0  0  0  0  0  0
  -21.4000   -7.1950   24.6400 C   0  0  0  0  0  3  0  0  0  0  0  0
  -21.4740   -5.7890   24.5980 C   0  0  0  0  0  0  0  0  0  0  0  0
  -21.8340   -5.1390   23.4040 C   0  0  0  0  0  3  0  0  0  0  0  0
  -22.1190   -5.8930   22.2520 C   0  0  0  0  0  0  0  0  0  0  0  0
  -22.4450   -5.2600   21.0990 F   0  0  0  0  0  0  0  0  0  0  0  0
  -21.1950   -5.0620   25.7050 F   0  0  0  0  0  0  0  0  0  0  0  0
  -24.4990  -14.3520   21.4040 C   0  0  0  0  0  0  0  0  0  0  0  0
  -23.8270  -13.6880   22.3390 N   0  0  0  0  0  0  0  0  0  0  0  0
  -24.1580  -15.4790   21.0530 O   0  0  0  0  0  0  0  0  0  0  0  0
  -24.1220  -12.7730   22.6460 H   0  0  0  0  0  0  0  0  0  0  0  0
  -23.0050  -14.1010   22.7540 H   0  0  0  0  0  0  0  0  0  0  0  0
  -27.2330  -15.6670   20.3250 N   0  0  0  0  0  0  0  0  0  0  0  0
  -26.6070  -16.4090   20.6180 H   0  0  0  0  0  0  0  0  0  0  0  0
  -28.0430  -16.0090   19.8250 H   0  0  0  0  0  0  0  0  0  0  0  0
  -34.5800  -16.5360   19.9320 C   0  0  0  0  0  1  0  0  0  0  0  0
  -32.9700  -17.2600   18.0530 C   0  0  0  0  0  1  0  0  0  0  0  0
  -33.1120  -16.8090   19.5270 C   0  0  0  0  0  3  0  0  0  0  0  0
  -30.0850  -24.0460   20.6430 N   0  0  0  0  0  0  0  0  0  0  0  0
  -29.5040  -24.5490   21.3060 H   0  0  0  0  0  0  0  0  0  0  0  0
  -30.1040  -24.6170   19.2880 C   0  0  0  0  0  2  0  0  0  0  0  0
  -28.8540  -25.4650   18.9530 C   0  0  0  0  0  2  0  0  0  0  0  0
  -28.8930  -26.8770   19.2730 O   0  0  0  0  0  0  0  0  0  0  0  0
  -24.7100  -31.3420   22.9620 C   0  0  0  0  0  0  0  0  0  0  0  0
  -27.6590  -27.5140   19.3490 C   0  0  0  0  0  0  0  0  0  0  0  0
  -23.5820  -29.9560   21.2580 C   0  0  0  0  0  3  0  0  0  0  0  0
  -25.1150  -28.7490   19.6200 C   0  0  0  0  0  0  0  0  0  0  0  0
  -26.0390  -30.6280   20.9740 C   0  0  0  0  0  2  0  0  0  0  0  0
  -26.2450  -29.3410   20.1990 C   0  0  0  0  0  0  0  0  0  0  0  0
  -27.5190  -28.7340   20.0600 C   0  0  0  0  0  3  0  0  0  0  0  0
  -26.4990  -26.9590   18.7510 C   0  0  0  0  0  3  0  0  0  0  0  0
  -25.2400  -27.5580   18.8930 C   0  0  0  0  0  3  0  0  0  0  0  0
  -23.7850  -29.4410   19.8100 C   0  0  0  0  0  2  0  0  0  0  0  0
  -24.7970  -30.6540   21.7890 N   0  0  0  0  0  0  0  0  0  0  0  0
  -23.6370  -31.4300   23.5750 O   0  0  0  0  0  0  0  0  0  0  0  0
  -23.1160  -28.7770   22.1430 C   0  0  0  0  0  0  0  0  0  0  0  0
  -21.8540  -28.3540   21.9650 N   0  0  0  0  0  0  0  0  0  0  0  0
  -23.8870  -28.2500   22.9490 O   0  0  0  0  0  0  0  0  0  0  0  0
  -21.2820  -28.8430   21.2900 H   0  0  0  0  0  0  0  0  0  0  0  0
  -18.7990  -26.4360   22.2110 C   0  0  0  0  0  0  0  0  0  0  0  0
  -21.2140  -27.2400   22.6650 C   0  0  0  0  0  3  0  0  0  0  0  0
  -21.6670  -25.8810   22.0830 C   0  0  0  0  0  2  0  0  0  0  0  0
  -20.7330  -25.3530   20.9900 C   0  0  0  0  0  2  0  0  0  0  0  0
  -19.3130  -25.1760   21.5340 C   0  0  0  0  0  2  0  0  0  0  0  0
  -19.6920  -27.4110   22.7290 C   0  0  0  0  0  0  0  0  0  0  0  0
  -19.1640  -28.5800   23.3180 C   0  0  0  0  0  3  0  0  0  0  0  0
  -17.7730  -28.7800   23.3970 C   0  0  0  0  0  3  0  0  0  0  0  0
  -16.8930  -27.8050   22.8960 C   0  0  0  0  0  3  0  0  0  0  0  0
  -17.4070  -26.6340   22.3110 C   0  0  0  0  0  3  0  0  0  0  0  0
  -25.9450  -32.0720   23.5740 C   0  0  0  0  0  3  0  0  0  0  0  0
  -25.5050  -33.4080   23.9960 N   0  0  0  0  0  0  0  0  0  0  0  0
  -25.7310  -34.5360   23.3090 C   0  0  0  0  0  0  0  0  0  0  0  0
  -26.4030  -34.5670   22.2740 O   0  0  0  0  0  0  0  0  0  0  0  0
  -24.9000  -33.4510   24.8040 H   0  0  0  0  0  0  0  0  0  0  0  0
  -23.8420  -36.1790   23.0610 C   0  0  0  0  0  1  0  0  0  0  0  0
  -25.1110  -35.8370   23.8550 C   0  0  0  0  0  3  0  0  0  0  0  0
  -27.1560  -36.8490   24.7610 C   0  0  0  0  0  1  0  0  0  0  0  0
  -26.0400  -36.9880   23.8290 N   0  0  0  0  0  0  0  0  0  0  0  0
  -25.5500  -37.8510   24.0500 H   0  0  0  0  0  0  0  0  0  0  0  0
  -26.5940  -31.2900   24.7820 C   0  0  1  0  0  0  0  0  0  0  0  0
  -25.5720  -30.8360   25.8500 C   0  0  0  0  0  1  0  0  0  0  0  0
  -27.3430  -30.0310   24.2820 C   0  0  0  0  0  1  0  0  0  0  0  0
  -27.6500  -32.1820   25.4760 C   0  0  0  0  0  1  0  0  0  0  0  0
  2  4  1  0
  3  1  1  0
  3  7  1  0
  4 10  1  0
  4  1  2  0
  5  3  2  0
  6  2  2  0
  6  5  1  0
  8  6  1  0
 10  9  1  0
 11 20  1  0
 11 10  1  0
 12 18  1  0
 12 21  1  0
 13 18  1  0
 14 15  1  0
 14 13  1  0
 16 15  1  0
 16 26  1  0
 16 17  1  0
 18 17  1  0
 19 12  2  0
 20 22  2  0
 21 20  1  0
 23 24  2  0
 24 43  1  0
 25 28  1  0
 25 24  1  0
 26 27  1  0
 26 23  1  0
 27 25  2  0
 28 29  1  0
 29 30  2  0
 31 34  1  0
 31 30  1  0
 32 31  2  0
 33 32  1  0
 33 28  2  0
 34 35  1  0
 35 36  1  0
 36 37  2  0
 38 37  1  0
 38 42  1  0
 39 38  2  0
 40 35  2  0
 40 39  1  0
 41 40  1  0
 43 44  1  0
 44 46  1  0
 44 47  1  0
 45 43  2  0
 48 23  1  0
 48 49  1  0
 50 48  1  0
 52 53  1  0
 53 21  1  0
 53 51  1  0
 54  5  1  0
 54 55  1  0
 56 54  1  0
 57 58  1  0
 57 56  1  0
 58 60  1  0
 59 70  2  0
 60 65  1  0
 61 69  1  0
 61 71  1  0
 62 68  1  0
 62 64  1  0
 63 69  1  0
 64 63  1  0
 65 64  2  0
 66 67  1  0
 66 60  2  0
 67 62  2  0
 68 61  1  0
 69 59  1  0
 71 73  2  0
 72 71  1  0
 74 72  1  0
 75 84  2  0
 75 80  1  0
 76 72  1  0
 76 80  1  0
 77 76  1  0
 78 79  1  0
 78 77  1  0
 79 75  1  0
 80 81  2  0
 81 82  1  0
 83 82  2  0
 84 83  1  0
 85 59  1  0
 85 86  1  0
 85 95  1  0
 86 89  1  0
 87 91  1  0
 87 86  1  0
 88 87  2  0
 91 90  1  0
 93 91  1  0
 93 94  1  0
 93 92  1  0
 95 98  1  1
 95 96  1  0
 97 95  1  0
M  ISO  4  12 100  21 100  57 101  58 101
M  END
>  <TORSDO>  (79) 
F 22

>  <SCORE>  (79) 
-7.935

>  <name>  (79) 
78

>  <ligand_id>  (79) 
78

>  <original_smiles>  (79) 
[H]c1c([H])c([H])c2c(c1[H])C([H])([H])C([H])([H])C([H])([H])C2([H])N([H])C(=O)C1([H])N(C(=O)C([H])(N([H])C(=O)C([H])(N([H])C([H])([H])[H])C([H])([H])[H])C(C([H])([H])[H])(C([H])([H])[H])C([H])([H])[H])C([H])([H])c2c([H])c(OC([H])([H])C([H])([H])N([H])c3c(F)c([H])c(N(C([H])([H])[H])C([H])([H])C(=O)N(C(=O)N4C([H])([H])C([H])([H])C([H])([H])C([H])(n5nc(-c6c([H])c([H])c(Oc7c([H])c([H])c(F)c([H])c7F)c([H])c6[H])c(C(=O)N([H])[H])c5N([H])[H])C4([H])[H])C([H])(C([H])([H])[H])C([H])([H])[H])c([H])c3C([H])([H])[H])c([H])c([H])c2C1([H])[H]

>  <smiles>  (79) 
[H]c1c([H])c([H])c2c(c1[H])C([H])([H])C([H])([H])C([H])([H])C2([H])N([H])C(=O)C1([H])N(C(=O)C([H])(N([H])C(=O)C([H])(N([H])C([H])([H])[H])C([H])([H])[H])C(C([H])([H])[H])(C([H])([H])[H])C([H])([H])[H])C([H])([H])c2c([H])c(OC([H])([H])C([H])([H])N([H])c3c(F)c([H])c(N(C([H])([H])[H])C([H])([H])C(=O)N(C(=O)N4C([H])([H])C([H])([H])C([H])([H])C([H])(n5nc(-c6c([H])c([H])c(Oc7c([H])c([H])c(F)c([H])c7F)c([H])c6[H])c(C(=O)N([H])[H])c5N([H])[H])C4([H])[H])C([H])(C([H])([H])[H])C([H])([H])[H])c([H])c3C([H])([H])[H])c([H])c([H])c2C1([H])[H]

$$$$
79:0:0
     RDKit          3D

 93101  0  0  1  0  0  0  0  0999 V2000
  -31.5870  -17.7650   20.9390 C   0  0  0  0  0  3  0  0  0  0  0  0
  -32.0300  -19.0970   21.0710 C   0  0  0  0  0  0  0  0  0  0  0  0
  -29.7790  -20.0050   20.6110 C   0  0  0  0  0  0  0  0  0  0  0  0
  -30.2430  -17.4460   20.6450 C   0  0  0  0  0  0  0  0  0  0  0  0
  -31.1470  -20.1870   20.9250 C   0  0  0  0  0  0  0  0  0  0  0  0
  -29.3480  -18.6020   20.4880 C   0  0  0  0  0  0  0  0  0  0  0  0
  -33.4850  -19.3720   21.4010 C   0  0  0  0  0  1  0  0  0  0  0  0
  -31.6450  -21.4300   21.1280 F   0  0  0  0  0  0  0  0  0  0  0  0
  -27.6850  -18.2700   20.1550 Cl  0  0  0  0  0  0  0  0  0  0  0  0
  -30.5810  -14.8280   20.3890 C   0  0  0  0  0  0  0  0  0  0  0  0
  -30.3660  -12.5440   19.3780 C   0  0  0  0  0  2  0  0  0  0  0  0
  -29.4320  -12.6020   18.1500 C   0  0  0  0  0  2  0  0  0  0  0  0
  -27.9630  -12.4250   18.5790 C   0  0  0  0  0  2  0  0  0  0  0  0
  -27.5840  -13.3160   19.7920 C   0  0  0  0  0  3  0  0  0  0  0  0
  -28.6420  -13.2520   20.9140 C   0  0  0  0  0  2  0  0  0  0  0  0
  -29.9330  -13.6110   20.3140 N   0  0  0  0  0  0  0  0  0  0  0  0
  -31.7740  -14.8720   20.0770 O   0  0  0  0  0  0  0  0  0  0  0  0
  -29.8370  -16.0000   20.5740 N   0  0  0  0  0  0  0  0  0  0  0  0
  -28.8430  -15.8450   20.6500 H   0  0  0  0  0  0  0  0  0  0  0  0
  -25.1940  -13.8960   20.5170 C   0  0  0  0  0  0  0  0  0  0  0  0
  -24.1310  -13.1190   20.8870 C   0  0  0  0  0  0  0  0  0  0  0  0
  -24.6000  -11.7700   20.8640 C   0  0  0  0  0  0  0  0  0  0  0  0
  -26.2410  -13.0210   20.2850 N   0  0  0  0  0  0  0  0  0  0  0  0
  -25.8920  -11.7360   20.5580 N   0  0  0  0  0  0  0  0  0  0  0  0
  -23.8760  -10.5060   21.0550 C   0  0  0  0  0  0  0  0  0  0  0  0
  -24.3180   -9.5340   21.9810 C   0  0  0  0  0  3  0  0  0  0  0  0
  -23.5930   -8.3350   22.1620 C   0  0  0  0  0  3  0  0  0  0  0  0
  -22.4130   -8.1000   21.4180 C   0  0  0  0  0  0  0  0  0  0  0  0
  -21.9900   -9.0610   20.4820 C   0  0  0  0  0  3  0  0  0  0  0  0
  -22.7150  -10.2500   20.2980 C   0  0  0  0  0  3  0  0  0  0  0  0
  -21.6600   -6.9550   21.5090 O   0  0  0  0  0  0  0  0  0  0  0  0
  -21.6330   -6.2000   22.6540 C   0  0  0  0  0  0  0  0  0  0  0  0
  -21.2460   -6.7470   23.8980 C   0  0  0  0  0  3  0  0  0  0  0  0
  -21.1650   -5.9190   25.0350 C   0  0  0  0  0  3  0  0  0  0  0  0
  -21.4610   -4.5460   24.9310 C   0  0  0  0  0  0  0  0  0  0  0  0
  -21.8420   -4.0000   23.6930 C   0  0  0  0  0  3  0  0  0  0  0  0
  -21.9240   -4.8240   22.5580 C   0  0  0  0  0  0  0  0  0  0  0  0
  -22.2710   -4.2890   21.3620 F   0  0  0  0  0  0  0  0  0  0  0  0
  -21.3770   -3.7490   26.0220 F   0  0  0  0  0  0  0  0  0  0  0  0
  -22.7300  -13.5930   21.1490 C   0  0  0  0  0  0  0  0  0  0  0  0
  -22.0010  -12.9000   22.0160 N   0  0  0  0  0  0  0  0  0  0  0  0
  -22.2920  -14.6130   20.6190 O   0  0  0  0  0  0  0  0  0  0  0  0
  -22.3690  -12.0760   22.4670 H   0  0  0  0  0  0  0  0  0  0  0  0
  -21.0620  -13.2000   22.2350 H   0  0  0  0  0  0  0  0  0  0  0  0
  -25.3510  -15.2660   20.3320 N   0  0  0  0  0  0  0  0  0  0  0  0
  -24.5770  -15.9130   20.4420 H   0  0  0  0  0  0  0  0  0  0  0  0
  -26.1890  -15.7160   19.9920 H   0  0  0  0  0  0  0  0  0  0  0  0
  -28.8580  -21.3350   20.5180 C   0  0  0  0  0  2  0  0  0  0  0  0
  -29.2100  -23.8770   19.8360 C   0  0  0  0  0  0  0  0  0  0  0  0
  -30.1700  -24.6800   18.9810 C   0  0  0  0  0  1  0  0  0  0  0  0
  -29.4620  -22.5680   19.8570 N   0  0  0  0  0  0  0  0  0  0  0  0
  -28.1270  -24.8840   20.4680 C   0  0  0  0  0  2  0  0  0  0  0  0
  -28.3200  -26.3820   20.2520 O   0  0  0  0  0  0  0  0  0  0  0  0
  -24.6280  -31.9200   23.2420 C   0  0  0  0  0  0  0  0  0  0  0  0
  -27.2180  -27.2760   20.2220 C   0  0  0  0  0  0  0  0  0  0  0  0
  -23.4250  -30.5130   21.6110 C   0  0  0  0  0  3  0  0  0  0  0  0
  -24.8720  -28.9450   20.1930 C   0  0  0  0  0  0  0  0  0  0  0  0
  -25.9700  -30.8090   21.4310 C   0  0  0  0  0  2  0  0  0  0  0  0
  -26.0450  -29.4200   20.7910 C   0  0  0  0  0  0  0  0  0  0  0  0
  -27.2220  -28.5990   20.7890 C   0  0  0  0  0  3  0  0  0  0  0  0
  -26.0220  -26.8790   19.5860 C   0  0  0  0  0  3  0  0  0  0  0  0
  -24.8670  -27.6850   19.5790 C   0  0  0  0  0  3  0  0  0  0  0  0
  -23.6390  -29.8300   20.2350 C   0  0  0  0  0  2  0  0  0  0  0  0
  -24.6930  -31.1010   22.1500 N   0  0  0  0  0  0  0  0  0  0  0  0
  -23.5440  -32.2020   23.7720 O   0  0  0  0  0  0  0  0  0  0  0  0
  -22.7580  -29.5040   22.5780 C   0  0  0  0  0  0  0  0  0  0  0  0
  -21.4310  -29.3270   22.4530 N   0  0  0  0  0  0  0  0  0  0  0  0
  -23.4350  -28.8820   23.4020 O   0  0  0  0  0  0  0  0  0  0  0  0
  -20.9430  -29.8780   21.7620 H   0  0  0  0  0  0  0  0  0  0  0  0
  -18.0540  -28.1270   22.9600 C   0  0  0  0  0  0  0  0  0  0  0  0
  -20.6120  -28.3940   23.2310 C   0  0  0  0  0  3  0  0  0  0  0  0
  -20.7170  -26.9580   22.6670 C   0  0  0  0  0  2  0  0  0  0  0  0
  -19.6180  -26.6250   21.6540 C   0  0  0  0  0  2  0  0  0  0  0  0
  -18.2350  -26.7730   22.2940 C   0  0  0  0  0  2  0  0  0  0  0  0
  -19.1710  -28.8940   23.3860 C   0  0  0  0  0  0  0  0  0  0  0  0
  -18.9480  -30.1610   23.9690 C   0  0  0  0  0  3  0  0  0  0  0  0
  -17.6410  -30.6600   24.1300 C   0  0  0  0  0  3  0  0  0  0  0  0
  -16.5400  -29.8890   23.7200 C   0  0  0  0  0  3  0  0  0  0  0  0
  -16.7470  -28.6240   23.1410 C   0  0  0  0  0  3  0  0  0  0  0  0
  -25.9100  -32.5580   23.8600 C   0  0  0  0  0  3  0  0  0  0  0  0
  -26.4300  -31.7900   25.1360 C   0  0  1  0  0  0  0  0  0  0  0  0
  -25.3410  -31.5530   26.2090 C   0  0  0  0  0  1  0  0  0  0  0  0
  -27.0130  -30.4110   24.7490 C   0  0  0  0  0  1  0  0  0  0  0  0
  -27.5810  -32.5860   25.7930 C   0  0  0  0  0  1  0  0  0  0  0  0
  -25.5940  -33.9550   24.1930 N   0  0  0  0  0  0  0  0  0  0  0  0
  -25.9200  -35.0120   23.4360 C   0  0  0  0  0  0  0  0  0  0  0  0
  -26.5850  -34.9130   22.4010 O   0  0  0  0  0  0  0  0  0  0  0  0
  -25.0030  -34.1060   24.9970 H   0  0  0  0  0  0  0  0  0  0  0  0
  -24.1850  -36.8020   23.0960 C   0  0  0  0  0  1  0  0  0  0  0  0
  -25.4310  -36.3980   23.9000 C   0  0  0  0  0  3  0  0  0  0  0  0
  -27.5690  -37.2850   24.7210 C   0  0  0  0  0  1  0  0  0  0  0  0
  -26.4600  -37.4540   23.7850 N   0  0  0  0  0  0  0  0  0  0  0  0
  -26.0520  -38.3730   23.9390 H   0  0  0  0  0  0  0  0  0  0  0  0
  1  2  1  0
  2  7  1  0
  3  5  1  0
  4  1  2  0
  5  2  2  0
  5  8  1  0
  6  3  2  0
  6  4  1  0
  9  6  1  0
 10 18  1  0
 11 16  1  0
 12 13  1  0
 12 11  1  0
 14 13  1  0
 14 23  1  0
 14 15  1  0
 16 10  1  0
 16 15  1  0
 17 10  2  0
 18  4  1  0
 18 19  1  0
 20 21  2  0
 21 40  1  0
 22 21  1  0
 22 25  1  0
 23 20  1  0
 23 24  1  0
 24 22  2  0
 25 26  1  0
 26 27  2  0
 28 31  1  0
 28 27  1  0
 29 28  2  0
 30 29  1  0
 30 25  2  0
 31 32  1  0
 32 33  1  0
 33 34  2  0
 35 34  1  0
 35 39  1  0
 36 35  2  0
 37 32  2  0
 37 36  1  0
 38 37  1  0
 40 41  1  0
 41 44  1  0
 41 43  1  0
 42 40  2  0
 45 46  1  0
 45 20  1  0
 47 45  1  0
 48  3  1  0
 49 51  2  0
 49 52  1  0
 50 49  1  0
 51 48  1  0
 53 52  1  0
 54 65  2  0
 55 53  1  0
 55 60  1  0
 56 64  1  0
 56 66  1  0
 57 63  1  0
 57 59  1  0
 58 64  1  0
 59 58  1  0
 60 59  2  0
 61 55  2  0
 62 61  1  0
 62 57  2  0
 63 56  1  0
 64 54  1  0
 66 68  2  0
 67 66  1  0
 69 67  1  0
 70 79  2  0
 70 75  1  0
 71 67  1  0
 71 75  1  0
 72 71  1  0
 73 74  1  0
 73 72  1  0
 74 70  1  0
 75 76  2  0
 76 77  1  0
 78 77  2  0
 79 78  1  0
 80 54  1  0
 80 85  1  0
 80 81  1  0
 81 84  1  1
 81 82  1  0
 83 81  1  0
 85 88  1  0
 86 90  1  0
 86 85  1  0
 87 86  2  0
 90 89  1  0
 92 90  1  0
 92 93  1  0
 92 91  1  0
M  ISO  4  10 100  18 100  52 101  53 101
M  END
>  <TORSDO>  (80) 
F 19

>  <SCORE>  (80) 
-14.763

>  <name>  (80) 
79

>  <ligand_id>  (80) 
79

>  <original_smiles>  (80) 
[H]c1c([H])c([H])c2c(c1[H])C([H])([H])C([H])([H])C([H])([H])C2([H])N([H])C(=O)C1([H])N(C(=O)C([H])(N([H])C(=O)C([H])(N([H])C([H])([H])[H])C([H])([H])[H])C(C([H])([H])[H])(C([H])([H])[H])C([H])([H])[H])C([H])([H])c2c([H])c(OC([H])([H])C(=NC([H])([H])c3c(F)c(C([H])([H])[H])c([H])c(N([H])C(=O)N4C([H])([H])C([H])([H])C([H])([H])C([H])(n5nc(-c6c([H])c([H])c(Oc7c([H])c([H])c(F)c([H])c7F)c([H])c6[H])c(C(=O)N([H])[H])c5N([H])[H])C4([H])[H])c3Cl)C([H])([H])[H])c([H])c([H])c2C1([H])[H]

>  <smiles>  (80) 
[H]c1c([H])c([H])c2c(c1[H])C([H])([H])C([H])([H])C([H])([H])C2([H])N([H])C(=O)C1([H])N(C(=O)C([H])(N([H])C(=O)C([H])(N([H])C([H])([H])[H])C([H])([H])[H])C(C([H])([H])[H])(C([H])([H])[H])C([H])([H])[H])C([H])([H])c2c([H])c(OC([H])([H])C(=NC([H])([H])c3c(F)c(C([H])([H])[H])c([H])c(N([H])C(=O)N4C([H])([H])C([H])([H])C([H])([H])C([H])(n5nc(-c6c([H])c([H])c(Oc7c([H])c([H])c(F)c([H])c7F)c([H])c6[H])c(C(=O)N([H])[H])c5N([H])[H])C4([H])[H])c3Cl)C([H])([H])[H])c([H])c([H])c2C1([H])[H]

$$$$
80:0:0
     RDKit          3D

 94102  0  0  1  0  0  0  0  0999 V2000
  -29.0300  -21.8650   19.8650 C   0  0  0  0  0  0  0  0  0  0  0  0
  -29.4310  -20.5060   21.8990 C   0  0  0  0  0  1  0  0  0  0  0  0
  -29.3800  -20.5630   20.4370 N   0  0  0  0  0  0  0  0  0  0  0  0
  -29.0760  -22.0100   18.6440 O   0  0  0  0  0  0  0  0  0  0  0  0
  -31.8560  -18.0850   20.1420 C   0  0  0  0  0  3  0  0  0  0  0  0
  -30.0820  -19.3610   18.3820 C   0  0  0  0  0  3  0  0  0  0  0  0
  -32.3470  -18.6550   18.9470 C   0  0  0  0  0  0  0  0  0  0  0  0
  -30.4550  -17.9640   20.2860 C   0  0  0  0  0  0  0  0  0  0  0  0
  -29.7500  -19.1960   19.7450 C   0  0  0  0  0  0  0  0  0  0  0  0
  -31.4300  -19.1760   18.0100 C   0  0  0  0  0  0  0  0  0  0  0  0
  -33.8260  -18.5740   18.6210 C   0  0  0  0  0  1  0  0  0  0  0  0
  -31.8500  -19.5770   16.7870 F   0  0  0  0  0  0  0  0  0  0  0  0
  -30.7420  -15.2140   20.1420 C   0  0  0  0  0  0  0  0  0  0  0  0
  -30.5740  -12.8570   19.1900 C   0  0  0  0  0  2  0  0  0  0  0  0
  -29.6240  -12.7800   17.9730 C   0  0  0  0  0  2  0  0  0  0  0  0
  -28.1780  -12.5470   18.4390 C   0  0  0  0  0  2  0  0  0  0  0  0
  -27.7780  -13.4910   19.6020 C   0  0  0  0  0  3  0  0  0  0  0  0
  -28.8500  -13.5500   20.7130 C   0  0  0  0  0  2  0  0  0  0  0  0
  -30.1040  -13.9680   20.0750 N   0  0  0  0  0  0  0  0  0  0  0  0
  -31.9470  -15.1890   19.8680 O   0  0  0  0  0  0  0  0  0  0  0  0
  -30.0270  -16.4630   20.2920 N   0  0  0  0  0  0  0  0  0  0  0  0
  -29.0310  -16.3270   20.3910 H   0  0  0  0  0  0  0  0  0  0  0  0
  -25.4120  -14.0580   20.3850 C   0  0  0  0  0  0  0  0  0  0  0  0
  -24.3580  -13.2780   20.7700 C   0  0  0  0  0  0  0  0  0  0  0  0
  -24.8270  -11.9290   20.7340 C   0  0  0  0  0  0  0  0  0  0  0  0
  -26.4550  -13.1840   20.1290 N   0  0  0  0  0  0  0  0  0  0  0  0
  -26.1140  -11.8990   20.4060 N   0  0  0  0  0  0  0  0  0  0  0  0
  -24.1070  -10.6640   20.9320 C   0  0  0  0  0  0  0  0  0  0  0  0
  -24.5320   -9.7100   21.8830 C   0  0  0  0  0  3  0  0  0  0  0  0
  -23.8080   -8.5120   22.0680 C   0  0  0  0  0  3  0  0  0  0  0  0
  -22.6450   -8.2600   21.3020 C   0  0  0  0  0  0  0  0  0  0  0  0
  -22.2400   -9.2030   20.3400 C   0  0  0  0  0  3  0  0  0  0  0  0
  -22.9650  -10.3910   20.1530 C   0  0  0  0  0  3  0  0  0  0  0  0
  -21.8940   -7.1140   21.3980 O   0  0  0  0  0  0  0  0  0  0  0  0
  -21.8130   -6.4010   22.5670 C   0  0  0  0  0  0  0  0  0  0  0  0
  -21.3070   -6.9720   23.7550 C   0  0  0  0  0  3  0  0  0  0  0  0
  -21.1760   -6.1840   24.9150 C   0  0  0  0  0  3  0  0  0  0  0  0
  -21.5410   -4.8240   24.8890 C   0  0  0  0  0  0  0  0  0  0  0  0
  -22.0410   -4.2530   23.7050 C   0  0  0  0  0  3  0  0  0  0  0  0
  -22.1730   -5.0380   22.5470 C   0  0  0  0  0  0  0  0  0  0  0  0
  -22.6340   -4.4760   21.4040 F   0  0  0  0  0  0  0  0  0  0  0  0
  -21.4090   -4.0640   26.0000 F   0  0  0  0  0  0  0  0  0  0  0  0
  -22.9630  -13.7510   21.0570 C   0  0  0  0  0  0  0  0  0  0  0  0
  -22.2460  -13.0540   21.9310 N   0  0  0  0  0  0  0  0  0  0  0  0
  -22.5180  -14.7770   20.5430 O   0  0  0  0  0  0  0  0  0  0  0  0
  -22.6160  -12.2230   22.3670 H   0  0  0  0  0  0  0  0  0  0  0  0
  -21.3120  -13.3580   22.1680 H   0  0  0  0  0  0  0  0  0  0  0  0
  -25.5690  -15.4290   20.2000 N   0  0  0  0  0  0  0  0  0  0  0  0
  -24.7980  -16.0790   20.3040 H   0  0  0  0  0  0  0  0  0  0  0  0
  -26.4030  -15.8660   19.8300 H   0  0  0  0  0  0  0  0  0  0  0  0
  -27.2130  -23.0910   21.3220 C   0  0  0  0  0  1  0  0  0  0  0  0
  -28.5640  -23.3070   20.6120 C   0  0  0  0  0  3  0  0  0  0  0  0
  -28.4180  -24.8010   19.7820 C   0  0  0  0  0  2  0  0  0  0  0  0
  -28.3400  -26.2930   20.2850 O   0  0  0  0  0  0  0  0  0  0  0  0
  -24.6240  -31.9290   23.2300 C   0  0  0  0  0  0  0  0  0  0  0  0
  -27.2590  -27.2520   20.1600 C   0  0  0  0  0  0  0  0  0  0  0  0
  -23.4410  -30.5320   21.5780 C   0  0  0  0  0  3  0  0  0  0  0  0
  -24.9080  -28.9850   20.1310 C   0  0  0  0  0  0  0  0  0  0  0  0
  -25.9930  -30.8230   21.4220 C   0  0  0  0  0  2  0  0  0  0  0  0
  -26.0800  -29.4390   20.7470 C   0  0  0  0  0  0  0  0  0  0  0  0
  -27.2510  -28.5890   20.7420 C   0  0  0  0  0  3  0  0  0  0  0  0
  -26.0610  -26.9060   19.4980 C   0  0  0  0  0  3  0  0  0  0  0  0
  -24.9130  -27.7360   19.4900 C   0  0  0  0  0  3  0  0  0  0  0  0
  -23.6710  -29.8710   20.1930 C   0  0  0  0  0  2  0  0  0  0  0  0
  -24.7050  -31.1190   22.1300 N   0  0  0  0  0  0  0  0  0  0  0  0
  -23.5350  -32.1960   23.7640 O   0  0  0  0  0  0  0  0  0  0  0  0
  -22.7760  -29.5090   22.5320 C   0  0  0  0  0  0  0  0  0  0  0  0
  -21.4490  -29.3250   22.4050 N   0  0  0  0  0  0  0  0  0  0  0  0
  -23.4550  -28.8810   23.3470 O   0  0  0  0  0  0  0  0  0  0  0  0
  -20.9540  -29.8810   21.7200 H   0  0  0  0  0  0  0  0  0  0  0  0
  -18.0850  -28.0610   22.8840 C   0  0  0  0  0  0  0  0  0  0  0  0
  -20.6380  -28.3710   23.1670 C   0  0  0  0  0  3  0  0  0  0  0  0
  -20.7700  -26.9410   22.5920 C   0  0  0  0  0  2  0  0  0  0  0  0
  -19.6800  -26.6010   21.5700 C   0  0  0  0  0  2  0  0  0  0  0  0
  -18.2910  -26.7180   22.2040 C   0  0  0  0  0  2  0  0  0  0  0  0
  -19.1860  -28.8450   23.3210 C   0  0  0  0  0  0  0  0  0  0  0  0
  -18.9410  -30.1000   23.9170 C   0  0  0  0  0  3  0  0  0  0  0  0
  -17.6250  -30.5720   24.0860 C   0  0  0  0  0  3  0  0  0  0  0  0
  -16.5380  -29.7870   23.6670 C   0  0  0  0  0  3  0  0  0  0  0  0
  -16.7680  -28.5340   23.0700 C   0  0  0  0  0  3  0  0  0  0  0  0
  -25.8950  -32.5750   23.8620 C   0  0  0  0  0  3  0  0  0  0  0  0
  -26.3940  -31.8320   25.1640 C   0  0  1  0  0  0  0  0  0  0  0  0
  -25.2850  -31.6140   26.2200 C   0  0  0  0  0  1  0  0  0  0  0  0
  -26.9900  -30.4480   24.8200 C   0  0  0  0  0  1  0  0  0  0  0  0
  -27.5270  -32.6490   25.8290 C   0  0  0  0  0  1  0  0  0  0  0  0
  -25.5780  -33.9800   24.1690 N   0  0  0  0  0  0  0  0  0  0  0  0
  -25.9150  -35.0270   23.4060 C   0  0  0  0  0  0  0  0  0  0  0  0
  -26.5920  -34.9150   22.3810 O   0  0  0  0  0  0  0  0  0  0  0  0
  -24.9810  -34.1410   24.9670 H   0  0  0  0  0  0  0  0  0  0  0  0
  -24.1950  -36.8260   23.0260 C   0  0  0  0  0  1  0  0  0  0  0  0
  -25.4250  -36.4180   23.8520 C   0  0  0  0  0  3  0  0  0  0  0  0
  -27.5430  -37.3130   24.7110 C   0  0  0  0  0  1  0  0  0  0  0  0
  -26.4580  -37.4710   23.7480 N   0  0  0  0  0  0  0  0  0  0  0  0
  -26.0470  -38.3900   23.8900 H   0  0  0  0  0  0  0  0  0  0  0  0
  1  3  1  0
  1 52  1  0
  3  2  1  0
  4  1  2  0
  5  8  1  0
  6  9  1  0
  7  5  2  0
  8 21  1  0
  9  8  2  3
  9  3  1  0
 10  6  2  0
 10  7  1  0
 11  7  1  0
 12 10  1  0
 13 21  1  0
 14 19  1  0
 15 16  1  0
 15 14  1  0
 17 16  1  0
 17 26  1  0
 17 18  1  0
 19 13  1  0
 19 18  1  0
 20 13  2  0
 21 22  1  0
 23 24  2  0
 24 43  1  0
 25 24  1  0
 25 28  1  0
 26 23  1  0
 26 27  1  0
 27 25  2  0
 28 29  1  0
 29 30  2  0
 31 34  1  0
 31 30  1  0
 32 31  2  0
 33 32  1  0
 33 28  2  0
 34 35  1  0
 35 36  1  0
 36 37  2  0
 38 37  1  0
 38 42  1  0
 39 38  2  0
 40 35  2  0
 40 39  1  0
 41 40  1  0
 43 44  1  0
 44 47  1  0
 44 46  1  0
 45 43  2  0
 48 49  1  0
 48 23  1  0
 50 48  1  0
 52 51  1  0
 53 54  1  0
 53 52  1  0
 55 66  2  0
 56 54  1  0
 56 61  1  0
 57 65  1  0
 57 67  1  0
 58 64  1  0
 58 60  1  0
 59 65  1  0
 60 59  1  0
 61 60  2  0
 62 56  2  0
 63 62  1  0
 63 58  2  0
 64 57  1  0
 65 55  1  0
 67 69  2  0
 68 67  1  0
 70 68  1  0
 71 80  2  0
 71 76  1  0
 72 68  1  0
 72 76  1  0
 73 72  1  0
 74 75  1  0
 74 73  1  0
 75 71  1  0
 76 77  2  0
 77 78  1  0
 79 78  2  0
 80 79  1  0
 81 55  1  0
 81 86  1  0
 81 82  1  0
 82 85  1  1
 82 83  1  0
 84 82  1  0
 86 89  1  0
 87 91  1  0
 87 86  1  0
 88 87  2  0
 91 90  1  0
 93 91  1  0
 93 94  1  0
 93 92  1  0
M  ISO  4  13 100  21 100  53 101  54 101
M  END
>  <TORSDO>  (81) 
F 19

>  <SCORE>  (81) 
-14.694

>  <name>  (81) 
80

>  <ligand_id>  (81) 
80

>  <original_smiles>  (81) 
[H]c1c([H])c([H])c2c(c1[H])C([H])([H])C([H])([H])C([H])([H])C2([H])N([H])C(=O)C1([H])N(C(=O)C([H])(N([H])C(=O)C([H])(N([H])C([H])([H])[H])C([H])([H])[H])C(C([H])([H])[H])(C([H])([H])[H])C([H])([H])[H])C([H])([H])c2c([H])c(OC([H])([H])C([H])(C(=O)N(c3c([H])c(F)c(C([H])([H])[H])c([H])c3N([H])C(=O)N3C([H])([H])C([H])([H])C([H])([H])C([H])(n4nc(-c5c([H])c([H])c(Oc6c([H])c([H])c(F)c([H])c6F)c([H])c5[H])c(C(=O)N([H])[H])c4N([H])[H])C3([H])[H])C([H])([H])[H])C([H])([H])[H])c([H])c([H])c2C1([H])[H]

>  <smiles>  (81) 
[H]c1c([H])c([H])c2c(c1[H])C([H])([H])C([H])([H])C([H])([H])C2([H])N([H])C(=O)C1([H])N(C(=O)C([H])(N([H])C(=O)C([H])(N([H])C([H])([H])[H])C([H])([H])[H])C(C([H])([H])[H])(C([H])([H])[H])C([H])([H])[H])C([H])([H])c2c([H])c(OC([H])([H])C([H])(C(=O)N(c3c([H])c(F)c(C([H])([H])[H])c([H])c3N([H])C(=O)N3C([H])([H])C([H])([H])C([H])([H])C([H])(n4nc(-c5c([H])c([H])c(Oc6c([H])c([H])c(F)c([H])c6F)c([H])c5[H])c(C(=O)N([H])[H])c4N([H])[H])C3([H])[H])C([H])([H])[H])C([H])([H])[H])c([H])c([H])c2C1([H])[H]

$$$$
81:0:0
     RDKit          3D

 92100  0  0  1  0  0  0  0  0999 V2000
  -28.4570  -18.7640   19.4060 C   0  0  0  0  0  3  0  0  0  0  0  0
  -28.1580  -21.2320   19.4530 C   0  0  0  0  0  3  0  0  0  0  0  0
  -27.8130  -19.9480   18.9550 C   0  0  0  0  0  0  0  0  0  0  0  0
  -29.4980  -18.8080   20.3590 C   0  0  0  0  0  0  0  0  0  0  0  0
  -29.1810  -21.3850   20.4070 C   0  0  0  0  0  0  0  0  0  0  0  0
  -29.8400  -20.1480   20.8320 C   0  0  0  0  0  0  0  0  0  0  0  0
  -26.7450  -19.8440   17.8830 C   0  0  0  0  0  1  0  0  0  0  0  0
  -31.1360  -20.2790   21.9730 Cl  0  0  0  0  0  0  0  0  0  0  0  0
  -29.2670  -23.9750   20.8680 C   0  0  0  0  0  0  0  0  0  0  0  0
  -30.1210  -24.8590   21.7590 C   0  0  0  0  0  1  0  0  0  0  0  0
  -29.5860  -22.6830   20.9360 N   0  0  0  0  0  0  0  0  0  0  0  0
  -28.1910  -24.9080   20.1240 C   0  0  0  0  0  2  0  0  0  0  0  0
  -28.3340  -26.4130   20.2990 O   0  0  0  0  0  0  0  0  0  0  0  0
  -24.6200  -31.9170   23.2580 C   0  0  0  0  0  0  0  0  0  0  0  0
  -27.2260  -27.2940   20.2300 C   0  0  0  0  0  0  0  0  0  0  0  0
  -23.4190  -30.5180   21.6150 C   0  0  0  0  0  3  0  0  0  0  0  0
  -24.8700  -28.9510   20.1980 C   0  0  0  0  0  0  0  0  0  0  0  0
  -25.9630  -30.8180   21.4410 C   0  0  0  0  0  2  0  0  0  0  0  0
  -26.0400  -29.4320   20.7990 C   0  0  0  0  0  0  0  0  0  0  0  0
  -27.2190  -28.6160   20.7990 C   0  0  0  0  0  3  0  0  0  0  0  0
  -26.0310  -26.8810   19.6000 C   0  0  0  0  0  3  0  0  0  0  0  0
  -24.8720  -27.6850   19.5870 C   0  0  0  0  0  3  0  0  0  0  0  0
  -23.6360  -29.8340   20.2390 C   0  0  0  0  0  2  0  0  0  0  0  0
  -24.6870  -31.1050   22.1590 N   0  0  0  0  0  0  0  0  0  0  0  0
  -23.5350  -32.2000   23.7880 O   0  0  0  0  0  0  0  0  0  0  0  0
  -22.7470  -29.5090   22.5790 C   0  0  0  0  0  0  0  0  0  0  0  0
  -21.4220  -29.3320   22.4460 N   0  0  0  0  0  0  0  0  0  0  0  0
  -23.4190  -28.8890   23.4090 O   0  0  0  0  0  0  0  0  0  0  0  0
  -20.9380  -29.8830   21.7510 H   0  0  0  0  0  0  0  0  0  0  0  0
  -18.0430  -28.1310   22.9380 C   0  0  0  0  0  0  0  0  0  0  0  0
  -20.6010  -28.3960   23.2170 C   0  0  0  0  0  3  0  0  0  0  0  0
  -20.7070  -26.9630   22.6480 C   0  0  0  0  0  2  0  0  0  0  0  0
  -19.6080  -26.6340   21.6300 C   0  0  0  0  0  2  0  0  0  0  0  0
  -18.2240  -26.7790   22.2680 C   0  0  0  0  0  2  0  0  0  0  0  0
  -19.1600  -28.8970   23.3700 C   0  0  0  0  0  0  0  0  0  0  0  0
  -18.9360  -30.1600   23.9580 C   0  0  0  0  0  3  0  0  0  0  0  0
  -17.6300  -30.6570   24.1190 C   0  0  0  0  0  3  0  0  0  0  0  0
  -16.5280  -29.8910   23.7030 C   0  0  0  0  0  3  0  0  0  0  0  0
  -16.7360  -28.6290   23.1160 C   0  0  0  0  0  3  0  0  0  0  0  0
  -25.8990  -32.5510   23.8840 C   0  0  0  0  0  3  0  0  0  0  0  0
  -26.4060  -31.7880   25.1690 C   0  0  1  0  0  0  0  0  0  0  0  0
  -25.3070  -31.5630   26.2340 C   0  0  0  0  0  1  0  0  0  0  0  0
  -26.9860  -30.4030   24.7940 C   0  0  0  0  0  1  0  0  0  0  0  0
  -27.5520  -32.5870   25.8340 C   0  0  0  0  0  1  0  0  0  0  0  0
  -25.5900  -33.9520   24.2050 N   0  0  0  0  0  0  0  0  0  0  0  0
  -25.9200  -35.0020   23.4400 C   0  0  0  0  0  0  0  0  0  0  0  0
  -26.5850  -34.8930   22.4080 O   0  0  0  0  0  0  0  0  0  0  0  0
  -24.9970  -34.1090   25.0060 H   0  0  0  0  0  0  0  0  0  0  0  0
  -24.1930  -36.8000   23.0870 C   0  0  0  0  0  1  0  0  0  0  0  0
  -25.4370  -36.3940   23.8940 C   0  0  0  0  0  3  0  0  0  0  0  0
  -27.5740  -37.2840   24.7140 C   0  0  0  0  0  1  0  0  0  0  0  0
  -26.4710  -37.4450   23.7720 N   0  0  0  0  0  0  0  0  0  0  0  0
  -26.0650  -38.3670   23.9130 H   0  0  0  0  0  0  0  0  0  0  0  0
  -30.2760  -17.4710   20.8220 C   0  0  0  0  0  2  0  0  0  0  0  0
  -30.5940  -14.8620   20.3980 C   0  0  0  0  0  0  0  0  0  0  0  0
  -30.4320  -12.5690   19.3950 C   0  0  0  0  0  2  0  0  0  0  0  0
  -29.4990  -12.5990   18.1640 C   0  0  0  0  0  2  0  0  0  0  0  0
  -28.0340  -12.3950   18.5940 C   0  0  0  0  0  2  0  0  0  0  0  0
  -27.6340  -13.2990   19.7900 C   0  0  0  0  0  3  0  0  0  0  0  0
  -28.6860  -13.2580   20.9180 C   0  0  0  0  0  2  0  0  0  0  0  0
  -29.9740  -13.6320   20.3210 N   0  0  0  0  0  0  0  0  0  0  0  0
  -31.7930  -14.9470   20.1200 O   0  0  0  0  0  0  0  0  0  0  0  0
  -29.8250  -16.0130   20.5960 N   0  0  0  0  0  0  0  0  0  0  0  0
  -28.8400  -15.8470   20.7340 H   0  0  0  0  0  0  0  0  0  0  0  0
  -25.2420  -13.8730   20.5100 C   0  0  0  0  0  0  0  0  0  0  0  0
  -24.1790  -13.0920   20.8720 C   0  0  0  0  0  0  0  0  0  0  0  0
  -24.6540  -11.7420   20.8490 C   0  0  0  0  0  0  0  0  0  0  0  0
  -26.2920  -13.0000   20.2780 N   0  0  0  0  0  0  0  0  0  0  0  0
  -25.9470  -11.7150   20.5470 N   0  0  0  0  0  0  0  0  0  0  0  0
  -23.9370  -10.4740   21.0360 C   0  0  0  0  0  0  0  0  0  0  0  0
  -24.3660   -9.5110   21.9760 C   0  0  0  0  0  3  0  0  0  0  0  0
  -23.6440   -8.3100   22.1500 C   0  0  0  0  0  3  0  0  0  0  0  0
  -22.4820   -8.0630   21.3800 C   0  0  0  0  0  0  0  0  0  0  0  0
  -22.0730   -9.0140   20.4290 C   0  0  0  0  0  3  0  0  0  0  0  0
  -22.7940  -10.2070   20.2550 C   0  0  0  0  0  3  0  0  0  0  0  0
  -21.7350   -6.9120   21.4620 O   0  0  0  0  0  0  0  0  0  0  0  0
  -21.6710   -6.1760   22.6180 C   0  0  0  0  0  0  0  0  0  0  0  0
  -21.2060   -6.7330   23.8290 C   0  0  0  0  0  3  0  0  0  0  0  0
  -21.0900   -5.9240   24.9760 C   0  0  0  0  0  3  0  0  0  0  0  0
  -21.4290   -4.5590   24.9140 C   0  0  0  0  0  0  0  0  0  0  0  0
  -21.8870   -4.0010   23.7070 C   0  0  0  0  0  3  0  0  0  0  0  0
  -22.0040   -4.8070   22.5610 C   0  0  0  0  0  0  0  0  0  0  0  0
  -22.4270   -4.2620   21.3960 F   0  0  0  0  0  0  0  0  0  0  0  0
  -21.3090   -3.7800   26.0130 F   0  0  0  0  0  0  0  0  0  0  0  0
  -22.7760  -13.5580   21.1300 C   0  0  0  0  0  0  0  0  0  0  0  0
  -22.0430  -12.8570   21.9870 N   0  0  0  0  0  0  0  0  0  0  0  0
  -22.3380  -14.5810   20.6080 O   0  0  0  0  0  0  0  0  0  0  0  0
  -22.4090  -12.0300   22.4330 H   0  0  0  0  0  0  0  0  0  0  0  0
  -21.1030  -13.1570   22.2050 H   0  0  0  0  0  0  0  0  0  0  0  0
  -25.3940  -15.2460   20.3350 N   0  0  0  0  0  0  0  0  0  0  0  0
  -24.6210  -15.8910   20.4540 H   0  0  0  0  0  0  0  0  0  0  0  0
  -26.2350  -15.6940   19.9970 H   0  0  0  0  0  0  0  0  0  0  0  0
  1  4  1  0
  2  5  2  0
  3  1  2  0
  3  2  1  0
  4 54  1  0
  4  6  2  0
  5  6  1  0
  5 11  1  0
  6  8  1  0
  7  3  1  0
  9 11  2  0
  9 10  1  0
 12 13  1  0
 12  9  1  0
 14 25  2  0
 15 13  1  0
 15 20  1  0
 16 24  1  0
 16 26  1  0
 17 23  1  0
 17 19  1  0
 18 24  1  0
 19 20  2  0
 19 18  1  0
 21 15  2  0
 22 21  1  0
 22 17  2  0
 23 16  1  0
 24 14  1  0
 26 28  2  0
 27 26  1  0
 29 27  1  0
 30 39  2  0
 30 35  1  0
 31 27  1  0
 31 35  1  0
 32 31  1  0
 33 34  1  0
 33 32  1  0
 34 30  1  0
 35 36  2  0
 36 37  1  0
 38 37  2  0
 39 38  1  0
 40 14  1  0
 40 45  1  0
 40 41  1  0
 41 44  1  1
 41 42  1  0
 43 41  1  0
 45 48  1  0
 46 50  1  0
 46 45  1  0
 47 46  2  0
 50 49  1  0
 52 50  1  0
 52 53  1  0
 52 51  1  0
 55 63  1  0
 56 61  1  0
 57 58  1  0
 57 56  1  0
 59 58  1  0
 59 68  1  0
 59 60  1  0
 61 55  1  0
 61 60  1  0
 62 55  2  0
 63 64  1  0
 63 54  1  0
 65 66  2  0
 66 85  1  0
 67 66  1  0
 67 70  1  0
 68 65  1  0
 68 69  1  0
 69 67  2  0
 70 71  1  0
 71 72  2  0
 73 76  1  0
 73 72  1  0
 74 73  2  0
 75 74  1  0
 75 70  2  0
 76 77  1  0
 77 78  1  0
 78 79  2  0
 80 79  1  0
 80 84  1  0
 81 80  2  0
 82 77  2  0
 82 81  1  0
 83 82  1  0
 85 86  1  0
 86 89  1  0
 86 88  1  0
 87 85  2  0
 90 91  1  0
 90 65  1  0
 92 90  1  0
M  ISO  4  12 101  13 101  55 100  63 100
M  END
>  <TORSDO>  (82) 
F 19

>  <SCORE>  (82) 
-14.565

>  <name>  (82) 
81

>  <ligand_id>  (82) 
81

>  <original_smiles>  (82) 
[H]c1c([H])c([H])c2c(c1[H])C([H])([H])C([H])([H])C([H])([H])C2([H])N([H])C(=O)C1([H])N(C(=O)C([H])(N([H])C(=O)C([H])(N([H])C([H])([H])[H])C([H])([H])[H])C(C([H])([H])[H])(C([H])([H])[H])C([H])([H])[H])C([H])([H])c2c([H])c(OC([H])([H])C(=Nc3c([H])c(C([H])([H])[H])c([H])c(C([H])([H])N([H])C(=O)N4C([H])([H])C([H])([H])C([H])([H])C([H])(n5nc(-c6c([H])c([H])c(Oc7c([H])c([H])c(F)c([H])c7F)c([H])c6[H])c(C(=O)N([H])[H])c5N([H])[H])C4([H])[H])c3Cl)C([H])([H])[H])c([H])c([H])c2C1([H])[H]

>  <smiles>  (82) 
[H]c1c([H])c([H])c2c(c1[H])C([H])([H])C([H])([H])C([H])([H])C2([H])N([H])C(=O)C1([H])N(C(=O)C([H])(N([H])C(=O)C([H])(N([H])C([H])([H])[H])C([H])([H])[H])C(C([H])([H])[H])(C([H])([H])[H])C([H])([H])[H])C([H])([H])c2c([H])c(OC([H])([H])C(=Nc3c([H])c(C([H])([H])[H])c([H])c(C([H])([H])N([H])C(=O)N4C([H])([H])C([H])([H])C([H])([H])C([H])(n5nc(-c6c([H])c([H])c(Oc7c([H])c([H])c(F)c([H])c7F)c([H])c6[H])c(C(=O)N([H])[H])c5N([H])[H])C4([H])[H])c3Cl)C([H])([H])[H])c([H])c([H])c2C1([H])[H]

$$$$
82:0:0
     RDKit          3D

 94102  0  0  1  0  0  0  0  0999 V2000
  -30.6430  -19.8030   20.9360 C   0  0  0  0  0  3  0  0  0  0  0  0
  -31.4020  -18.8710   21.6780 C   0  0  0  0  0  0  0  0  0  0  0  0
  -29.6140  -19.3900   20.0610 C   0  0  0  0  0  0  0  0  0  0  0  0
  -30.1450  -17.0290   20.6650 C   0  0  0  0  0  0  0  0  0  0  0  0
  -31.1290  -17.4890   21.5780 C   0  0  0  0  0  0  0  0  0  0  0  0
  -29.4090  -17.9770   19.8970 C   0  0  0  0  0  0  0  0  0  0  0  0
  -32.4950  -19.3670   22.6110 C   0  0  0  0  0  1  0  0  0  0  0  0
  -31.9670  -16.3910   22.6280 Cl  0  0  0  0  0  0  0  0  0  0  0  0
  -28.2910  -17.3460   18.7250 Cl  0  0  0  0  0  0  0  0  0  0  0  0
  -30.4290  -14.7030   19.8210 C   0  0  0  0  0  0  0  0  0  0  0  0
  -30.1000  -12.5380   18.6750 C   0  0  0  0  0  2  0  0  0  0  0  0
  -29.0300  -12.6960   17.5770 C   0  0  0  0  0  2  0  0  0  0  0  0
  -27.6190  -12.4820   18.1590 C   0  0  0  0  0  2  0  0  0  0  0  0
  -27.3730  -13.3110   19.4480 C   0  0  0  0  0  3  0  0  0  0  0  0
  -28.5450  -13.1370   20.4420 C   0  0  0  0  0  2  0  0  0  0  0  0
  -29.7910  -13.5010   19.7440 N   0  0  0  0  0  0  0  0  0  0  0  0
  -31.4490  -14.9560   19.1780 O   0  0  0  0  0  0  0  0  0  0  0  0
  -29.8100  -15.6370   20.5640 N   0  0  0  0  0  0  0  0  0  0  0  0
  -28.9030  -15.3750   20.9130 H   0  0  0  0  0  0  0  0  0  0  0  0
  -25.0450  -13.8160   20.4250 C   0  0  0  0  0  0  0  0  0  0  0  0
  -24.0450  -12.9970   20.8780 C   0  0  0  0  0  0  0  0  0  0  0  0
  -24.5430  -11.6640   20.7560 C   0  0  0  0  0  0  0  0  0  0  0  0
  -26.0870  -12.9790   20.0590 N   0  0  0  0  0  0  0  0  0  0  0  0
  -25.7940  -11.6780   20.3140 N   0  0  0  0  0  0  0  0  0  0  0  0
  -23.8820  -10.3720   20.9810 C   0  0  0  0  0  0  0  0  0  0  0  0
  -24.2890   -9.5050   22.0190 C   0  0  0  0  0  3  0  0  0  0  0  0
  -23.6260   -8.2770   22.2270 C   0  0  0  0  0  3  0  0  0  0  0  0
  -22.5420   -7.9050   21.3960 C   0  0  0  0  0  0  0  0  0  0  0  0
  -22.1560   -8.7610   20.3490 C   0  0  0  0  0  3  0  0  0  0  0  0
  -22.8200   -9.9820   20.1400 C   0  0  0  0  0  3  0  0  0  0  0  0
  -21.8570   -6.7200   21.5060 O   0  0  0  0  0  0  0  0  0  0  0  0
  -21.5800   -6.1600   22.7280 C   0  0  0  0  0  0  0  0  0  0  0  0
  -20.8080   -6.8350   23.6990 C   0  0  0  0  0  3  0  0  0  0  0  0
  -20.4900   -6.1940   24.9140 C   0  0  0  0  0  3  0  0  0  0  0  0
  -20.9320   -4.8800   25.1550 C   0  0  0  0  0  0  0  0  0  0  0  0
  -21.6950   -4.2040   24.1850 C   0  0  0  0  0  3  0  0  0  0  0  0
  -22.0160   -4.8420   22.9750 C   0  0  0  0  0  0  0  0  0  0  0  0
  -22.7330   -4.1800   22.0360 F   0  0  0  0  0  0  0  0  0  0  0  0
  -20.6200   -4.2610   26.3160 F   0  0  0  0  0  0  0  0  0  0  0  0
  -22.6700  -13.4180   21.3110 C   0  0  0  0  0  0  0  0  0  0  0  0
  -22.0630  -12.6780   22.2330 N   0  0  0  0  0  0  0  0  0  0  0  0
  -22.1420  -14.4360   20.8660 O   0  0  0  0  0  0  0  0  0  0  0  0
  -22.5030  -11.8520   22.6130 H   0  0  0  0  0  0  0  0  0  0  0  0
  -21.1460  -12.9420   22.5620 H   0  0  0  0  0  0  0  0  0  0  0  0
  -25.1470  -15.1960   20.2770 N   0  0  0  0  0  0  0  0  0  0  0  0
  -24.3800  -15.8190   20.4960 H   0  0  0  0  0  0  0  0  0  0  0  0
  -25.9500  -15.6780   19.8920 H   0  0  0  0  0  0  0  0  0  0  0  0
  -27.4260  -20.0470   19.1090 C   0  0  0  0  0  1  0  0  0  0  0  0
  -28.8070  -20.3950   19.4470 N   0  0  0  0  0  0  0  0  0  0  0  0
  -29.3470  -21.7190   19.0590 C   0  0  0  0  0  2  0  0  0  0  0  0
  -28.6440  -22.9290   19.7550 C   0  0  0  0  0  2  0  0  0  0  0  0
  -28.9060  -24.3510   19.1660 C   0  0  0  0  0  2  0  0  0  0  0  0
  -28.1680  -25.4760   19.9580 C   0  0  0  0  0  2  0  0  0  0  0  0
  -28.2040  -26.8010   19.3800 O   0  0  0  0  0  0  0  0  0  0  0  0
  -24.4150  -31.5330   23.1850 C   0  0  0  0  0  0  0  0  0  0  0  0
  -27.0430  -27.5440   19.5110 C   0  0  0  0  0  0  0  0  0  0  0  0
  -23.1940  -30.3610   21.3810 C   0  0  0  0  0  3  0  0  0  0  0  0
  -24.6390  -29.0350   19.7450 C   0  0  0  0  0  0  0  0  0  0  0  0
  -25.7140  -30.7600   21.1980 C   0  0  0  0  0  2  0  0  0  0  0  0
  -25.8050  -29.4820   20.3830 C   0  0  0  0  0  0  0  0  0  0  0  0
  -27.0100  -28.7470   20.2590 C   0  0  0  0  0  3  0  0  0  0  0  0
  -25.8620  -27.1190   18.8650 C   0  0  0  0  0  3  0  0  0  0  0  0
  -24.6660  -27.8540   18.9810 C   0  0  0  0  0  3  0  0  0  0  0  0
  -23.3900  -29.8720   19.9210 C   0  0  0  0  0  2  0  0  0  0  0  0
  -24.4610  -30.8910   21.9820 N   0  0  0  0  0  0  0  0  0  0  0  0
  -23.3390  -31.7240   23.7690 O   0  0  0  0  0  0  0  0  0  0  0  0
  -22.5550  -29.2180   22.2030 C   0  0  0  0  0  0  0  0  0  0  0  0
  -21.2280  -29.0540   22.0750 N   0  0  0  0  0  0  0  0  0  0  0  0
  -23.2520  -28.4860   22.9120 O   0  0  0  0  0  0  0  0  0  0  0  0
  -20.7260  -29.7010   21.4830 H   0  0  0  0  0  0  0  0  0  0  0  0
  -17.8560  -27.8230   22.4900 C   0  0  0  0  0  0  0  0  0  0  0  0
  -20.4240  -28.0160   22.7190 C   0  0  0  0  0  3  0  0  0  0  0  0
  -20.4920  -26.6860   21.9310 C   0  0  0  0  0  2  0  0  0  0  0  0
  -19.3580  -26.5300   20.9150 C   0  0  0  0  0  2  0  0  0  0  0  0
  -17.9960  -26.5890   21.6150 C   0  0  0  0  0  2  0  0  0  0  0  0
  -18.9970  -28.5020   22.9970 C   0  0  0  0  0  0  0  0  0  0  0  0
  -18.8120  -29.6640   23.7750 C   0  0  0  0  0  3  0  0  0  0  0  0
  -17.5190  -30.1480   24.0520 C   0  0  0  0  0  3  0  0  0  0  0  0
  -16.3930  -29.4640   23.5630 C   0  0  0  0  0  3  0  0  0  0  0  0
  -16.5630  -28.3020   22.7870 C   0  0  0  0  0  3  0  0  0  0  0  0
  -25.7060  -32.0800   23.8690 C   0  0  0  0  0  3  0  0  0  0  0  0
  -25.4460  -33.4710   24.2620 N   0  0  0  0  0  0  0  0  0  0  0  0
  -25.8600  -34.5450   23.5770 C   0  0  0  0  0  0  0  0  0  0  0  0
  -26.5730  -34.4650   22.5720 O   0  0  0  0  0  0  0  0  0  0  0  0
  -24.8290  -33.6110   25.0480 H   0  0  0  0  0  0  0  0  0  0  0  0
  -24.2480  -36.4400   23.2270 C   0  0  0  0  0  1  0  0  0  0  0  0
  -25.4130  -35.9290   24.0870 C   0  0  0  0  0  3  0  0  0  0  0  0
  -27.5250  -36.6650   25.1000 C   0  0  0  0  0  1  0  0  0  0  0  0
  -26.4990  -36.9320   24.0960 N   0  0  0  0  0  0  0  0  0  0  0  0
  -26.1270  -37.8620   24.2650 H   0  0  0  0  0  0  0  0  0  0  0  0
  -26.1570  -31.2240   25.1150 C   0  0  1  0  0  0  0  0  0  0  0  0
  -25.0210  -30.9530   26.1270 C   0  0  0  0  0  1  0  0  0  0  0  0
  -26.7220  -29.8590   24.6570 C   0  0  0  0  0  1  0  0  0  0  0  0
  -27.2990  -31.9480   25.8650 C   0  0  0  0  0  1  0  0  0  0  0  0
  1  2  1  0
  2  7  1  0
  3  1  2  0
  4  5  1  0
  5  2  2  0
  5  8  1  0
  6  3  1  0
  6  4  2  0
  9  6  1  0
 10 18  1  0
 11 16  1  0
 12 13  1  0
 12 11  1  0
 14 13  1  0
 14 23  1  0
 14 15  1  0
 16 10  1  0
 16 15  1  0
 17 10  2  0
 18  4  1  0
 18 19  1  0
 20 21  2  0
 21 40  1  0
 22 21  1  0
 22 25  1  0
 23 24  1  0
 23 20  1  0
 24 22  2  0
 25 26  1  0
 26 27  2  0
 28 31  1  0
 28 27  1  0
 29 28  2  0
 30 29  1  0
 30 25  2  0
 31 32  1  0
 32 37  2  0
 32 33  1  0
 33 34  2  0
 34 35  1  0
 35 39  1  0
 36 35  2  0
 37 36  1  0
 38 37  1  0
 40 41  1  0
 41 44  1  0
 41 43  1  0
 42 40  2  0
 45 20  1  0
 45 46  1  0
 47 45  1  0
 48 49  1  0
 49  3  1  0
 50 49  1  0
 50 51  1  0
 52 51  1  0
 52 53  1  0
 54 56  1  0
 54 53  1  0
 55 66  2  0
 56 61  1  0
 57 65  1  0
 57 67  1  0
 58 64  1  0
 58 60  1  0
 59 65  1  0
 60 59  1  0
 61 60  2  0
 62 63  1  0
 62 56  2  0
 63 58  2  0
 64 57  1  0
 65 55  1  0
 67 69  2  0
 68 67  1  0
 70 68  1  0
 71 80  2  0
 71 76  1  0
 72 68  1  0
 72 76  1  0
 73 72  1  0
 74 75  1  0
 74 73  1  0
 75 71  1  0
 76 77  2  0
 77 78  1  0
 79 78  2  0
 80 79  1  0
 81 55  1  0
 81 82  1  0
 81 91  1  0
 82 85  1  0
 83 87  1  0
 83 82  1  0
 84 83  2  0
 87 86  1  0
 87 89  1  0
 89 90  1  0
 89 88  1  0
 91 94  1  1
 91 92  1  0
 93 91  1  0
M  ISO  4  10 100  18 100  53 101  54 101
M  END
>  <TORSDO>  (83) 
F 21

>  <SCORE>  (83) 
-10.349

>  <name>  (83) 
82

>  <ligand_id>  (83) 
82

>  <original_smiles>  (83) 
[H]c1c([H])c([H])c2c(c1[H])C([H])([H])C([H])([H])C([H])([H])C2([H])N([H])C(=O)C1([H])N(C(=O)C([H])(N([H])C(=O)C([H])(N([H])C([H])([H])[H])C([H])([H])[H])C(C([H])([H])[H])(C([H])([H])[H])C([H])([H])[H])C([H])([H])c2c([H])c(OC([H])([H])C([H])([H])C([H])([H])C([H])([H])N(c3c([H])c(C([H])([H])[H])c(Cl)c(N([H])C(=O)N4C([H])([H])C([H])([H])C([H])([H])C([H])(n5nc(-c6c([H])c([H])c(Oc7c([H])c([H])c(F)c([H])c7F)c([H])c6[H])c(C(=O)N([H])[H])c5N([H])[H])C4([H])[H])c3Cl)C([H])([H])[H])c([H])c([H])c2C1([H])[H]

>  <smiles>  (83) 
[H]c1c([H])c([H])c2c(c1[H])C([H])([H])C([H])([H])C([H])([H])C2([H])N([H])C(=O)C1([H])N(C(=O)C([H])(N([H])C(=O)C([H])(N([H])C([H])([H])[H])C([H])([H])[H])C(C([H])([H])[H])(C([H])([H])[H])C([H])([H])[H])C([H])([H])c2c([H])c(OC([H])([H])C([H])([H])C([H])([H])C([H])([H])N(c3c([H])c(C([H])([H])[H])c(Cl)c(N([H])C(=O)N4C([H])([H])C([H])([H])C([H])([H])C([H])(n5nc(-c6c([H])c([H])c(Oc7c([H])c([H])c(F)c([H])c7F)c([H])c6[H])c(C(=O)N([H])[H])c5N([H])[H])C4([H])[H])c3Cl)C([H])([H])[H])c([H])c([H])c2C1([H])[H]

$$$$
83:0:0
     RDKit          3D

 94102  0  0  1  0  0  0  0  0999 V2000
  -31.5710  -17.7770   20.8410 C   0  0  0  0  0  3  0  0  0  0  0  0
  -31.9660  -19.1320   20.8810 C   0  0  0  0  0  0  0  0  0  0  0  0
  -29.6510  -19.9140   20.5720 C   0  0  0  0  0  0  0  0  0  0  0  0
  -30.2240  -17.3940   20.6440 C   0  0  0  0  0  0  0  0  0  0  0  0
  -31.0270  -20.1800   20.7480 C   0  0  0  0  0  0  0  0  0  0  0  0
  -29.2750  -18.4970   20.5260 C   0  0  0  0  0  0  0  0  0  0  0  0
  -33.4310  -19.4700   21.0880 C   0  0  0  0  0  1  0  0  0  0  0  0
  -31.4680  -21.4580   20.8190 F   0  0  0  0  0  0  0  0  0  0  0  0
  -27.6080  -18.0860   20.3300 Cl  0  0  0  0  0  0  0  0  0  0  0  0
  -30.5990  -14.7960   20.3670 C   0  0  0  0  0  0  0  0  0  0  0  0
  -30.3650  -12.5350   19.3200 C   0  0  0  0  0  2  0  0  0  0  0  0
  -29.4220  -12.6270   18.0990 C   0  0  0  0  0  2  0  0  0  0  0  0
  -27.9540  -12.4510   18.5360 C   0  0  0  0  0  2  0  0  0  0  0  0
  -27.5910  -13.3220   19.7700 C   0  0  0  0  0  3  0  0  0  0  0  0
  -28.6570  -13.2260   20.8820 C   0  0  0  0  0  2  0  0  0  0  0  0
  -29.9490  -13.5830   20.2830 N   0  0  0  0  0  0  0  0  0  0  0  0
  -31.7820  -14.8580   20.0230 O   0  0  0  0  0  0  0  0  0  0  0  0
  -29.8510  -15.9450   20.6190 N   0  0  0  0  0  0  0  0  0  0  0  0
  -28.8680  -15.7690   20.7560 H   0  0  0  0  0  0  0  0  0  0  0  0
  -25.2070  -13.9000   20.5080 C   0  0  0  0  0  0  0  0  0  0  0  0
  -24.1450  -13.1220   20.8830 C   0  0  0  0  0  0  0  0  0  0  0  0
  -24.6140  -11.7720   20.8530 C   0  0  0  0  0  0  0  0  0  0  0  0
  -26.2530  -13.0260   20.2690 N   0  0  0  0  0  0  0  0  0  0  0  0
  -25.9050  -11.7410   20.5390 N   0  0  0  0  0  0  0  0  0  0  0  0
  -23.8930  -10.5080   21.0480 C   0  0  0  0  0  0  0  0  0  0  0  0
  -24.3390   -9.5370   21.9720 C   0  0  0  0  0  3  0  0  0  0  0  0
  -23.6170   -8.3390   22.1550 C   0  0  0  0  0  3  0  0  0  0  0  0
  -22.4350   -8.1020   21.4130 C   0  0  0  0  0  0  0  0  0  0  0  0
  -22.0090   -9.0600   20.4770 C   0  0  0  0  0  3  0  0  0  0  0  0
  -22.7320  -10.2510   20.2920 C   0  0  0  0  0  3  0  0  0  0  0  0
  -21.6830   -6.9550   21.5050 O   0  0  0  0  0  0  0  0  0  0  0  0
  -21.6570   -6.2020   22.6520 C   0  0  0  0  0  0  0  0  0  0  0  0
  -21.2610   -6.7490   23.8920 C   0  0  0  0  0  3  0  0  0  0  0  0
  -21.1820   -5.9240   25.0310 C   0  0  0  0  0  3  0  0  0  0  0  0
  -21.4850   -4.5520   24.9310 C   0  0  0  0  0  0  0  0  0  0  0  0
  -21.8740   -4.0060   23.6950 C   0  0  0  0  0  3  0  0  0  0  0  0
  -21.9550   -4.8280   22.5590 C   0  0  0  0  0  0  0  0  0  0  0  0
  -22.3090   -4.2920   21.3660 F   0  0  0  0  0  0  0  0  0  0  0  0
  -21.4020   -3.7570   26.0230 F   0  0  0  0  0  0  0  0  0  0  0  0
  -22.7470  -13.5940   21.1560 C   0  0  0  0  0  0  0  0  0  0  0  0
  -22.0260  -12.8980   22.0280 N   0  0  0  0  0  0  0  0  0  0  0  0
  -22.3040  -14.6170   20.6360 O   0  0  0  0  0  0  0  0  0  0  0  0
  -22.3970  -12.0700   22.4690 H   0  0  0  0  0  0  0  0  0  0  0  0
  -21.0880  -13.1980   22.2560 H   0  0  0  0  0  0  0  0  0  0  0  0
  -25.3600  -15.2720   20.3300 N   0  0  0  0  0  0  0  0  0  0  0  0
  -24.5880  -15.9170   20.4510 H   0  0  0  0  0  0  0  0  0  0  0  0
  -26.2030  -15.7300   20.0090 H   0  0  0  0  0  0  0  0  0  0  0  0
  -28.6110  -21.1360   20.5310 C   0  0  0  0  0  2  0  0  0  0  0  0
  -28.3820  -23.7760   20.5060 C   0  0  0  0  0  0  0  0  0  0  0  0
  -28.9460  -22.5730   20.0980 N   0  0  0  0  0  0  0  0  0  0  0  0
  -27.6760  -23.8140   21.5150 O   0  0  0  0  0  0  0  0  0  0  0  0
  -29.5560  -22.6400   19.2940 H   0  0  0  0  0  0  0  0  0  0  0  0
  -28.5580  -25.1280   19.6540 C   0  0  0  0  0  2  0  0  0  0  0  0
  -28.4010  -26.4640   20.3270 O   0  0  0  0  0  0  0  0  0  0  0  0
  -24.6150  -31.9040   23.2340 C   0  0  0  0  0  0  0  0  0  0  0  0
  -27.2680  -27.3050   20.2230 C   0  0  0  0  0  0  0  0  0  0  0  0
  -23.4300  -30.4900   21.5940 C   0  0  0  0  0  3  0  0  0  0  0  0
  -24.8960  -28.9340   20.1810 C   0  0  0  0  0  0  0  0  0  0  0  0
  -25.9690  -30.8100   21.4250 C   0  0  0  0  0  2  0  0  0  0  0  0
  -26.0580  -29.4240   20.7890 C   0  0  0  0  0  0  0  0  0  0  0  0
  -27.2400  -28.6200   20.8020 C   0  0  0  0  0  3  0  0  0  0  0  0
  -26.0810  -26.8740   19.5910 C   0  0  0  0  0  3  0  0  0  0  0  0
  -24.9140  -27.6660   19.5720 C   0  0  0  0  0  3  0  0  0  0  0  0
  -23.6530  -29.8020   20.2190 C   0  0  0  0  0  2  0  0  0  0  0  0
  -24.6900  -31.0880   22.1410 N   0  0  0  0  0  0  0  0  0  0  0  0
  -23.5270  -32.1790   23.7610 O   0  0  0  0  0  0  0  0  0  0  0  0
  -22.7630  -29.4810   22.5610 C   0  0  0  0  0  0  0  0  0  0  0  0
  -21.4360  -29.3070   22.4360 N   0  0  0  0  0  0  0  0  0  0  0  0
  -23.4420  -28.8550   23.3790 O   0  0  0  0  0  0  0  0  0  0  0  0
  -20.9480  -29.8630   21.7490 H   0  0  0  0  0  0  0  0  0  0  0  0
  -18.0550  -28.1270   22.9530 C   0  0  0  0  0  0  0  0  0  0  0  0
  -20.6160  -28.3710   23.2090 C   0  0  0  0  0  3  0  0  0  0  0  0
  -20.7070  -26.9400   22.6310 C   0  0  0  0  0  2  0  0  0  0  0  0
  -19.5990  -26.6250   21.6220 C   0  0  0  0  0  2  0  0  0  0  0  0
  -18.2200  -26.7780   22.2720 C   0  0  0  0  0  2  0  0  0  0  0  0
  -19.1800  -28.8810   23.3780 C   0  0  0  0  0  0  0  0  0  0  0  0
  -18.9690  -30.1440   23.9750 C   0  0  0  0  0  3  0  0  0  0  0  0
  -17.6680  -30.6510   24.1480 C   0  0  0  0  0  3  0  0  0  0  0  0
  -16.5580  -29.8920   23.7380 C   0  0  0  0  0  3  0  0  0  0  0  0
  -16.7520  -28.6320   23.1460 C   0  0  0  0  0  3  0  0  0  0  0  0
  -25.8880  -32.5490   23.8620 C   0  0  0  0  0  3  0  0  0  0  0  0
  -26.3990  -31.7880   25.1480 C   0  0  1  0  0  0  0  0  0  0  0  0
  -25.2980  -31.5530   26.2090 C   0  0  0  0  0  1  0  0  0  0  0  0
  -26.9910  -30.4110   24.7700 C   0  0  0  0  0  1  0  0  0  0  0  0
  -27.5430  -32.5900   25.8120 C   0  0  0  0  0  1  0  0  0  0  0  0
  -25.5700  -33.9470   24.1840 N   0  0  0  0  0  0  0  0  0  0  0  0
  -25.9070  -35.0000   23.4260 C   0  0  0  0  0  0  0  0  0  0  0  0
  -26.5860  -34.8940   22.4010 O   0  0  0  0  0  0  0  0  0  0  0  0
  -24.9640  -34.1020   24.9770 H   0  0  0  0  0  0  0  0  0  0  0  0
  -24.1750  -36.7850   23.0540 C   0  0  0  0  0  1  0  0  0  0  0  0
  -25.4130  -36.3880   23.8750 C   0  0  0  0  0  3  0  0  0  0  0  0
  -27.5400  -37.2820   24.7140 C   0  0  0  0  0  1  0  0  0  0  0  0
  -26.4420  -37.4440   23.7640 N   0  0  0  0  0  0  0  0  0  0  0  0
  -26.0330  -38.3620   23.9070 H   0  0  0  0  0  0  0  0  0  0  0  0
  1  2  1  0
  2  7  1  0
  3  5  1  0
  4  1  2  0
  5  8  1  0
  5  2  2  0
  6  3  2  0
  6  4  1  0
  9  6  1  0
 10 18  1  0
 11 16  1  0
 12 13  1  0
 12 11  1  0
 14 13  1  0
 14 23  1  0
 14 15  1  0
 16 10  1  0
 16 15  1  0
 17 10  2  0
 18  4  1  0
 18 19  1  0
 20 21  2  0
 21 40  1  0
 22 21  1  0
 22 25  1  0
 23 20  1  0
 23 24  1  0
 24 22  2  0
 25 26  1  0
 26 27  2  0
 28 31  1  0
 28 27  1  0
 29 28  2  0
 30 29  1  0
 30 25  2  0
 31 32  1  0
 32 33  1  0
 33 34  2  0
 35 34  1  0
 35 39  1  0
 36 35  2  0
 37 32  2  0
 37 36  1  0
 38 37  1  0
 40 41  1  0
 41 44  1  0
 41 43  1  0
 42 40  2  0
 45 46  1  0
 45 20  1  0
 47 45  1  0
 48  3  1  0
 49 51  2  0
 50 49  1  0
 50 48  1  0
 52 50  1  0
 53 54  1  0
 53 49  1  0
 55 66  2  0
 56 54  1  0
 56 61  1  0
 57 65  1  0
 57 67  1  0
 58 64  1  0
 58 60  1  0
 59 65  1  0
 60 61  2  0
 60 59  1  0
 62 56  2  0
 63 62  1  0
 63 58  2  0
 64 57  1  0
 65 55  1  0
 67 69  2  0
 68 67  1  0
 70 68  1  0
 71 80  2  0
 71 76  1  0
 72 68  1  0
 72 76  1  0
 73 72  1  0
 74 75  1  0
 74 73  1  0
 75 71  1  0
 76 77  2  0
 77 78  1  0
 79 78  2  0
 80 79  1  0
 81 55  1  0
 81 86  1  0
 81 82  1  0
 82 85  1  1
 82 83  1  0
 84 82  1  0
 86 89  1  0
 87 91  1  0
 87 86  1  0
 88 87  2  0
 91 90  1  0
 93 91  1  0
 93 94  1  0
 93 92  1  0
M  ISO  4  10 100  18 100  53 101  54 101
M  END
>  <TORSDO>  (84) 
F 19

>  <SCORE>  (84) 
-14.847

>  <name>  (84) 
83

>  <ligand_id>  (84) 
83

>  <original_smiles>  (84) 
[H]c1c([H])c([H])c2c(c1[H])C([H])([H])C([H])([H])C([H])([H])C2([H])N([H])C(=O)C1([H])N(C(=O)C([H])(N([H])C(=O)C([H])(N([H])C([H])([H])[H])C([H])([H])[H])C(C([H])([H])[H])(C([H])([H])[H])C([H])([H])[H])C([H])([H])c2c([H])c(OC([H])([H])C(=O)N([H])C([H])([H])c3c(F)c(C([H])([H])[H])c([H])c(N([H])C(=O)N4C([H])([H])C([H])([H])C([H])([H])C([H])(n5nc(-c6c([H])c([H])c(Oc7c([H])c([H])c(F)c([H])c7F)c([H])c6[H])c(C(=O)N([H])[H])c5N([H])[H])C4([H])[H])c3Cl)c([H])c([H])c2C1([H])[H]

>  <smiles>  (84) 
[H]c1c([H])c([H])c2c(c1[H])C([H])([H])C([H])([H])C([H])([H])C2([H])N([H])C(=O)C1([H])N(C(=O)C([H])(N([H])C(=O)C([H])(N([H])C([H])([H])[H])C([H])([H])[H])C(C([H])([H])[H])(C([H])([H])[H])C([H])([H])[H])C([H])([H])c2c([H])c(OC([H])([H])C(=O)N([H])C([H])([H])c3c(F)c(C([H])([H])[H])c([H])c(N([H])C(=O)N4C([H])([H])C([H])([H])C([H])([H])C([H])(n5nc(-c6c([H])c([H])c(Oc7c([H])c([H])c(F)c([H])c7F)c([H])c6[H])c(C(=O)N([H])[H])c5N([H])[H])C4([H])[H])c3Cl)c([H])c([H])c2C1([H])[H]

$$$$
84:0:0
     RDKit          3D

 87 94  0  0  1  0  0  0  0  0999 V2000
  -28.5430  -20.2000   20.4320 C   0  0  0  0  0  3  0  0  0  0  0  0
  -28.8160  -21.7640   20.1230 C   0  0  0  0  0  3  0  0  0  0  0  0
  -30.0180  -21.3650   19.5030 C   0  0  0  0  0  0  0  0  0  0  0  0
  -29.4380  -19.0120   20.0660 C   0  0  0  0  0  0  0  0  0  0  0  0
  -30.9360  -22.3460   18.8300 C   0  0  0  0  0  1  0  0  0  0  0  0
  -31.6010  -19.4210   18.8670 C   0  0  0  0  0  1  0  0  0  0  0  0
  -30.3720  -19.9150   19.4730 N   0  0  0  0  0  0  0  0  0  0  0  0
  -30.2160  -15.9630   19.9330 C   0  0  0  0  0  0  0  0  0  0  0  0
  -30.3570  -13.3700   19.0600 C   0  0  0  0  0  2  0  0  0  0  0  0
  -29.4230  -12.8960   17.8990 C   0  0  0  0  0  2  0  0  0  0  0  0
  -28.0450  -12.4630   18.4250 C   0  0  0  0  0  2  0  0  0  0  0  0
  -27.5610  -13.4320   19.5240 C   0  0  0  0  0  3  0  0  0  0  0  0
  -28.6500  -13.7840   20.5740 C   0  0  0  0  0  2  0  0  0  0  0  0
  -29.7350  -14.5390   19.8710 N   0  0  0  0  0  0  0  0  0  0  0  0
  -31.4190  -15.8870   19.6020 O   0  0  0  0  0  0  0  0  0  0  0  0
  -28.3230  -17.0260   21.0690 C   0  0  0  0  0  1  0  0  0  0  0  0
  -29.4470  -17.3780   20.2050 N   0  0  0  0  0  0  0  0  0  0  0  0
  -25.2400  -13.8950   20.4470 C   0  0  0  0  0  0  0  0  0  0  0  0
  -24.2170  -13.0970   20.8640 C   0  0  0  0  0  0  0  0  0  0  0  0
  -24.6990  -11.7540   20.7630 C   0  0  0  0  0  0  0  0  0  0  0  0
  -26.2840  -13.0490   20.1170 N   0  0  0  0  0  0  0  0  0  0  0  0
  -25.9720  -11.7490   20.3670 N   0  0  0  0  0  0  0  0  0  0  0  0
  -23.9920  -10.4820   20.9590 C   0  0  0  0  0  0  0  0  0  0  0  0
  -24.4500   -9.5120   21.8780 C   0  0  0  0  0  3  0  0  0  0  0  0
  -23.7360   -8.3080   22.0630 C   0  0  0  0  0  3  0  0  0  0  0  0
  -22.5500   -8.0660   21.3300 C   0  0  0  0  0  0  0  0  0  0  0  0
  -22.1110   -9.0230   20.3990 C   0  0  0  0  0  3  0  0  0  0  0  0
  -22.8260  -10.2180   20.2110 C   0  0  0  0  0  3  0  0  0  0  0  0
  -21.8050   -6.9150   21.4250 O   0  0  0  0  0  0  0  0  0  0  0  0
  -21.7340   -6.1980   22.5920 C   0  0  0  0  0  0  0  0  0  0  0  0
  -21.2530   -6.7700   23.7890 C   0  0  0  0  0  3  0  0  0  0  0  0
  -21.1300   -5.9780   24.9490 C   0  0  0  0  0  3  0  0  0  0  0  0
  -21.4820   -4.6160   24.9120 C   0  0  0  0  0  0  0  0  0  0  0  0
  -21.9570   -4.0430   23.7190 C   0  0  0  0  0  3  0  0  0  0  0  0
  -22.0800   -4.8320   22.5620 C   0  0  0  0  0  0  0  0  0  0  0  0
  -22.5190   -4.2690   21.4090 F   0  0  0  0  0  0  0  0  0  0  0  0
  -21.3590   -3.8530   26.0240 F   0  0  0  0  0  0  0  0  0  0  0  0
  -22.8360  -13.5540   21.2320 C   0  0  0  0  0  0  0  0  0  0  0  0
  -22.1690  -12.8340   22.1230 N   0  0  0  0  0  0  0  0  0  0  0  0
  -22.3630  -14.5910   20.7660 O   0  0  0  0  0  0  0  0  0  0  0  0
  -22.5670  -11.9980   22.5250 H   0  0  0  0  0  0  0  0  0  0  0  0
  -21.2420  -13.1230   22.4020 H   0  0  0  0  0  0  0  0  0  0  0  0
  -25.3560  -15.2710   20.2830 N   0  0  0  0  0  0  0  0  0  0  0  0
  -24.5700  -15.8970   20.4200 H   0  0  0  0  0  0  0  0  0  0  0  0
  -26.1470  -15.7190   19.8410 H   0  0  0  0  0  0  0  0  0  0  0  0
  -27.9310  -23.5430   20.2760 C   0  0  0  0  0  1  0  0  0  0  0  0
  -28.1670  -25.3580   20.3060 O   0  0  0  0  0  0  0  0  0  0  0  0
  -24.7000  -31.8490   23.2240 C   0  0  0  0  0  0  0  0  0  0  0  0
  -27.2130  -26.6390   20.2730 C   0  0  0  0  0  0  0  0  0  0  0  0
  -23.5150  -30.4470   21.5970 C   0  0  0  0  0  3  0  0  0  0  0  0
  -24.9600  -28.7640   20.1990 C   0  0  0  0  0  0  0  0  0  0  0  0
  -26.0980  -30.5510   21.4780 C   0  0  0  0  0  2  0  0  0  0  0  0
  -26.1600  -29.0970   20.8360 C   0  0  0  0  0  0  0  0  0  0  0  0
  -27.2650  -28.0690   20.8330 C   0  0  0  0  0  3  0  0  0  0  0  0
  -25.9740  -26.5580   19.5730 C   0  0  0  0  0  3  0  0  0  0  0  0
  -24.9170  -27.5250   19.5360 C   0  0  0  0  0  3  0  0  0  0  0  0
  -23.7620  -29.7370   20.2330 C   0  0  0  0  0  2  0  0  0  0  0  0
  -24.7970  -30.9850   22.1530 N   0  0  0  0  0  0  0  0  0  0  0  0
  -23.6060  -32.1570   23.7300 O   0  0  0  0  0  0  0  0  0  0  0  0
  -22.7850  -29.4820   22.5690 C   0  0  0  0  0  0  0  0  0  0  0  0
  -21.4520  -29.3340   22.4410 N   0  0  0  0  0  0  0  0  0  0  0  0
  -23.4310  -28.8690   23.4220 O   0  0  0  0  0  0  0  0  0  0  0  0
  -20.9760  -29.8790   21.7360 H   0  0  0  0  0  0  0  0  0  0  0  0
  -18.0580  -28.1280   22.9520 C   0  0  0  0  0  0  0  0  0  0  0  0
  -20.6180  -28.4020   23.2150 C   0  0  0  0  0  3  0  0  0  0  0  0
  -20.7200  -26.9660   22.6530 C   0  0  0  0  0  2  0  0  0  0  0  0
  -19.6210  -26.6370   21.6380 C   0  0  0  0  0  2  0  0  0  0  0  0
  -18.2370  -26.7790   22.2780 C   0  0  0  0  0  2  0  0  0  0  0  0
  -19.1740  -28.8970   23.3770 C   0  0  0  0  0  0  0  0  0  0  0  0
  -18.9470  -30.1570   23.9730 C   0  0  0  0  0  3  0  0  0  0  0  0
  -17.6380  -30.6480   24.1460 C   0  0  0  0  0  3  0  0  0  0  0  0
  -16.5370  -29.8770   23.7350 C   0  0  0  0  0  3  0  0  0  0  0  0
  -16.7480  -28.6200   23.1410 C   0  0  0  0  0  3  0  0  0  0  0  0
  -25.9610  -32.5070   23.8660 C   0  0  0  0  0  3  0  0  0  0  0  0
  -25.6400  -33.9110   24.1980 N   0  0  0  0  0  0  0  0  0  0  0  0
  -25.9450  -34.9750   23.4420 C   0  0  0  0  0  0  0  0  0  0  0  0
  -26.5850  -34.8800   22.3930 O   0  0  0  0  0  0  0  0  0  0  0  0
  -25.0850  -34.0580   25.0280 H   0  0  0  0  0  0  0  0  0  0  0  0
  -24.1880  -36.7580   23.1610 C   0  0  0  0  0  1  0  0  0  0  0  0
  -25.4650  -36.3620   23.9210 C   0  0  0  0  0  3  0  0  0  0  0  0
  -27.6230  -37.2670   24.6640 C   0  0  0  0  0  1  0  0  0  0  0  0
  -26.4800  -37.4290   23.7710 N   0  0  0  0  0  0  0  0  0  0  0  0
  -26.0680  -38.3430   23.9450 H   0  0  0  0  0  0  0  0  0  0  0  0
  -26.4460  -31.7540   25.1660 C   0  0  1  0  0  0  0  0  0  0  0  0
  -25.3350  -31.5440   26.2210 C   0  0  0  0  0  1  0  0  0  0  0  0
  -27.0290  -30.3670   24.8170 C   0  0  0  0  0  1  0  0  0  0  0  0
  -27.5890  -32.5520   25.8380 C   0  0  0  0  0  1  0  0  0  0  0  0
  2  1  1  0
  3  2  2  0
  4 17  1  0
  4  1  2  0
  5  3  1  0
  6  7  1  0
  7  3  1  0
  7  4  1  0
  8 17  1  0
  9 14  1  0
 10 11  1  0
 10  9  1  0
 12 11  1  0
 12 21  1  0
 12 13  1  0
 14  8  1  0
 14 13  1  0
 15  8  2  0
 17 16  1  0
 18 19  2  0
 19 38  1  0
 20 19  1  0
 20 23  1  0
 21 22  1  0
 21 18  1  0
 22 20  2  0
 23 24  1  0
 24 25  2  0
 26 29  1  0
 26 25  1  0
 27 26  2  0
 28 27  1  0
 28 23  2  0
 29 30  1  0
 30 31  1  0
 31 32  2  0
 33 32  1  0
 33 37  1  0
 34 33  2  0
 35 30  2  0
 35 34  1  0
 36 35  1  0
 38 39  1  0
 39 42  1  0
 39 41  1  0
 40 38  2  0
 43 44  1  0
 43 18  1  0
 45 43  1  0
 46 47  1  0
 48 59  2  0
 49 47  1  0
 49 54  1  0
 50 58  1  0
 50 60  1  0
 51 57  1  0
 51 53  1  0
 52 58  1  0
 53 52  1  0
 54 53  2  0
 55 49  2  0
 56 55  1  0
 56 51  2  0
 57 50  1  0
 58 48  1  0
 60 62  2  0
 61 60  1  0
 63 61  1  0
 64 73  2  0
 64 69  1  0
 65 61  1  0
 65 69  1  0
 66 65  1  0
 67 68  1  0
 67 66  1  0
 68 64  1  0
 69 70  2  0
 70 71  1  0
 72 71  2  0
 73 72  1  0
 74 48  1  0
 74 75  1  0
 74 84  1  0
 75 78  1  0
 76 80  1  0
 76 75  1  0
 77 76  2  0
 80 79  1  0
 82 80  1  0
 82 83  1  0
 82 81  1  0
 84 87  1  1
 84 85  1  0
 86 84  1  0
M  ISO  4   8 100  17 100  46 101  47 101
M  END
>  <TORSDO>  (85) 
F 17

>  <SCORE>  (85) 
-15.595

>  <name>  (85) 
84

>  <ligand_id>  (85) 
84

>  <original_smiles>  (85) 
[H]c1c([H])c([H])c2c(c1[H])C([H])([H])C([H])([H])C([H])([H])C2([H])N([H])C(=O)C1([H])N(C(=O)C([H])(N([H])C(=O)C([H])(N([H])C([H])([H])[H])C([H])([H])[H])C(C([H])([H])[H])(C([H])([H])[H])C([H])([H])[H])C([H])([H])c2c([H])c(OC([H])([H])c3c([H])c(N(C(=O)N4C([H])([H])C([H])([H])C([H])([H])C([H])(n5nc(-c6c([H])c([H])c(Oc7c([H])c([H])c(F)c([H])c7F)c([H])c6[H])c(C(=O)N([H])[H])c5N([H])[H])C4([H])[H])C([H])([H])[H])n(C([H])([H])[H])c3C([H])([H])[H])c([H])c([H])c2C1([H])[H]

>  <smiles>  (85) 
[H]c1c([H])c([H])c2c(c1[H])C([H])([H])C([H])([H])C([H])([H])C2([H])N([H])C(=O)C1([H])N(C(=O)C([H])(N([H])C(=O)C([H])(N([H])C([H])([H])[H])C([H])([H])[H])C(C([H])([H])[H])(C([H])([H])[H])C([H])([H])[H])C([H])([H])c2c([H])c(OC([H])([H])c3c([H])c(N(C(=O)N4C([H])([H])C([H])([H])C([H])([H])C([H])(n5nc(-c6c([H])c([H])c(Oc7c([H])c([H])c(F)c([H])c7F)c([H])c6[H])c(C(=O)N([H])[H])c5N([H])[H])C4([H])[H])C([H])([H])[H])n(C([H])([H])[H])c3C([H])([H])[H])c([H])c([H])c2C1([H])[H]

$$$$
85:0:0
     RDKit          3D

 91 98  0  0  1  0  0  0  0  0999 V2000
  -29.3960  -19.8220   20.6920 C   0  0  0  0  0  0  0  0  0  0  0  0
  -28.8820  -21.1510   20.1750 N   0  0  0  0  0  0  0  0  0  0  0  0
  -29.5900  -19.7890   21.9070 O   0  0  0  0  0  0  0  0  0  0  0  0
  -31.4780  -18.5520   19.9320 C   0  0  0  0  0  1  0  0  0  0  0  0
  -29.4860  -18.2580   18.4780 C   0  0  0  0  0  1  0  0  0  0  0  0
  -29.9560  -18.3000   19.9430 C   0  0  2  0  0  0  0  0  0  0  0  0
  -30.5670  -15.3920   20.2090 C   0  0  0  0  0  0  0  0  0  0  0  0
  -30.5070  -12.9590   19.2990 C   0  0  0  0  0  2  0  0  0  0  0  0
  -29.5630  -12.8100   18.0810 C   0  0  0  0  0  2  0  0  0  0  0  0
  -28.1270  -12.5250   18.5460 C   0  0  0  0  0  2  0  0  0  0  0  0
  -27.7110  -13.4420   19.7220 C   0  0  0  0  0  3  0  0  0  0  0  0
  -28.7860  -13.5630   20.8220 C   0  0  0  0  0  2  0  0  0  0  0  0
  -30.0000  -14.0840   20.1750 N   0  0  0  0  0  0  0  0  0  0  0  0
  -31.7620  -15.3720   19.8780 O   0  0  0  0  0  0  0  0  0  0  0  0
  -29.8310  -16.6790   20.4080 N   0  0  0  0  0  0  0  0  0  0  0  0
  -28.9120  -16.4940   20.7840 H   0  0  0  0  0  0  0  0  0  0  0  0
  -25.3660  -13.9730   20.5540 C   0  0  0  0  0  0  0  0  0  0  0  0
  -24.3140  -13.1830   20.9310 C   0  0  0  0  0  0  0  0  0  0  0  0
  -24.7810  -11.8350   20.8490 C   0  0  0  0  0  0  0  0  0  0  0  0
  -26.4000  -13.1050   20.2570 N   0  0  0  0  0  0  0  0  0  0  0  0
  -26.0630  -11.8100   20.5010 N   0  0  0  0  0  0  0  0  0  0  0  0
  -24.0580  -10.5670   21.0240 C   0  0  0  0  0  0  0  0  0  0  0  0
  -24.4890   -9.5900   21.9480 C   0  0  0  0  0  3  0  0  0  0  0  0
  -23.7620   -8.3920   22.1120 C   0  0  0  0  0  3  0  0  0  0  0  0
  -22.5890   -8.1630   21.3560 C   0  0  0  0  0  0  0  0  0  0  0  0
  -22.1770   -9.1290   20.4210 C   0  0  0  0  0  3  0  0  0  0  0  0
  -22.9050  -10.3200   20.2540 C   0  0  0  0  0  3  0  0  0  0  0  0
  -21.8340   -7.0150   21.4300 O   0  0  0  0  0  0  0  0  0  0  0  0
  -21.7640   -6.2760   22.5830 C   0  0  0  0  0  0  0  0  0  0  0  0
  -21.2590   -6.8150   23.7870 C   0  0  0  0  0  3  0  0  0  0  0  0
  -21.1380   -6.0000   24.9280 C   0  0  0  0  0  3  0  0  0  0  0  0
  -21.5090   -4.6450   24.8700 C   0  0  0  0  0  0  0  0  0  0  0  0
  -22.0050   -4.1020   23.6700 C   0  0  0  0  0  3  0  0  0  0  0  0
  -22.1300   -4.9160   22.5290 C   0  0  0  0  0  0  0  0  0  0  0  0
  -22.5860   -4.3820   21.3720 F   0  0  0  0  0  0  0  0  0  0  0  0
  -21.3860   -3.8580   25.9660 F   0  0  0  0  0  0  0  0  0  0  0  0
  -22.9260  -13.6540   21.2480 C   0  0  0  0  0  0  0  0  0  0  0  0
  -22.2150  -12.9320   22.1080 N   0  0  0  0  0  0  0  0  0  0  0  0
  -22.4810  -14.6980   20.7720 O   0  0  0  0  0  0  0  0  0  0  0  0
  -22.5890  -12.0890   22.5170 H   0  0  0  0  0  0  0  0  0  0  0  0
  -21.2830  -13.2280   22.3620 H   0  0  0  0  0  0  0  0  0  0  0  0
  -25.5210  -15.3480   20.4060 N   0  0  0  0  0  0  0  0  0  0  0  0
  -24.7520  -15.9950   20.5460 H   0  0  0  0  0  0  0  0  0  0  0  0
  -26.3440  -15.7900   20.0200 H   0  0  0  0  0  0  0  0  0  0  0  0
  -28.7980  -22.7820   22.2460 C   0  0  0  0  0  1  0  0  0  0  0  0
  -28.9190  -22.7620   20.7150 C   0  0  0  0  0  3  0  0  0  0  0  0
  -28.0620  -24.2810   20.1980 C   0  0  0  0  0  2  0  0  0  0  0  0
  -28.2210  -25.8920   20.5500 O   0  0  0  0  0  0  0  0  0  0  0  0
  -24.5780  -31.9140   23.2930 C   0  0  0  0  0  0  0  0  0  0  0  0
  -27.2240  -26.9960   20.4160 C   0  0  0  0  0  0  0  0  0  0  0  0
  -23.4360  -30.4920   21.6420 C   0  0  0  0  0  3  0  0  0  0  0  0
  -24.9270  -28.8740   20.2790 C   0  0  0  0  0  0  0  0  0  0  0  0
  -26.0060  -30.7060   21.5680 C   0  0  0  0  0  2  0  0  0  0  0  0
  -26.0970  -29.2880   20.9290 C   0  0  0  0  0  0  0  0  0  0  0  0
  -27.2420  -28.3720   20.9680 C   0  0  0  0  0  3  0  0  0  0  0  0
  -26.0320  -26.7380   19.7070 C   0  0  0  0  0  3  0  0  0  0  0  0
  -24.9230  -27.6210   19.6450 C   0  0  0  0  0  3  0  0  0  0  0  0
  -23.7030  -29.7900   20.2810 C   0  0  0  0  0  2  0  0  0  0  0  0
  -24.6940  -31.0630   22.2210 N   0  0  0  0  0  0  0  0  0  0  0  0
  -23.4730  -32.2130   23.7760 O   0  0  0  0  0  0  0  0  0  0  0  0
  -22.7130  -29.5090   22.5990 C   0  0  0  0  0  0  0  0  0  0  0  0
  -21.3900  -29.3290   22.4250 N   0  0  0  0  0  0  0  0  0  0  0  0
  -23.3500  -28.9100   23.4690 O   0  0  0  0  0  0  0  0  0  0  0  0
  -20.9290  -29.8680   21.7050 H   0  0  0  0  0  0  0  0  0  0  0  0
  -17.9990  -28.1000   22.8360 C   0  0  0  0  0  0  0  0  0  0  0  0
  -20.5460  -28.4000   23.1840 C   0  0  0  0  0  3  0  0  0  0  0  0
  -20.6800  -26.9560   22.6450 C   0  0  0  0  0  2  0  0  0  0  0  0
  -19.6190  -26.6010   21.5980 C   0  0  0  0  0  2  0  0  0  0  0  0
  -18.2140  -26.7420   22.1890 C   0  0  0  0  0  2  0  0  0  0  0  0
  -19.0950  -28.8860   23.2900 C   0  0  0  0  0  0  0  0  0  0  0  0
  -18.8380  -30.1530   23.8560 C   0  0  0  0  0  3  0  0  0  0  0  0
  -17.5220  -30.6390   23.9690 C   0  0  0  0  0  3  0  0  0  0  0  0
  -16.4430  -29.8530   23.5280 C   0  0  0  0  0  3  0  0  0  0  0  0
  -16.6830  -28.5850   22.9710 C   0  0  0  0  0  3  0  0  0  0  0  0
  -25.8290  -32.5660   23.9580 C   0  0  0  0  0  3  0  0  0  0  0  0
  -25.5100  -33.9770   24.2440 N   0  0  0  0  0  0  0  0  0  0  0  0
  -25.8620  -35.0140   23.4720 C   0  0  0  0  0  0  0  0  0  0  0  0
  -26.5520  -34.8850   22.4590 O   0  0  0  0  0  0  0  0  0  0  0  0
  -24.8970  -34.1510   25.0270 H   0  0  0  0  0  0  0  0  0  0  0  0
  -24.1460  -36.8080   23.0480 C   0  0  0  0  0  1  0  0  0  0  0  0
  -25.3740  -36.4190   23.8890 C   0  0  0  0  0  3  0  0  0  0  0  0
  -27.4900  -37.3240   24.7450 C   0  0  0  0  0  1  0  0  0  0  0  0
  -26.4150  -37.4630   23.7660 N   0  0  0  0  0  0  0  0  0  0  0  0
  -26.0090  -38.3890   23.8730 H   0  0  0  0  0  0  0  0  0  0  0  0
  -26.2800  -31.8350   25.2830 C   0  0  1  0  0  0  0  0  0  0  0  0
  -25.1320  -31.6230   26.3010 C   0  0  0  0  0  1  0  0  0  0  0  0
  -26.8850  -30.4480   24.9710 C   0  0  0  0  0  1  0  0  0  0  0  0
  -27.4020  -32.6470   25.9720 C   0  0  0  0  0  1  0  0  0  0  0  0
  -27.8960  -21.1030   19.0880 C   0  0  0  0  0  2  0  0  0  0  0  0
  -27.3670  -21.5460   16.6280 C   0  0  0  0  0  1  0  0  0  0  0  0
  -28.4440  -21.5540   17.7200 C   0  0  0  0  0  2  0  0  0  0  0  0
  1  3  2  0
  2  1  1  0
  2 46  1  0
  6  4  1  6
  5  6  1  0
  6 15  1  0
  6  1  1  0
  7 15  1  0
  8 13  1  0
  9 10  1  0
  9  8  1  0
 11 10  1  0
 11 20  1  0
 11 12  1  0
 13  7  1  0
 13 12  1  0
 14  7  2  0
 15 16  1  0
 17 18  2  0
 18 37  1  0
 19 18  1  0
 19 22  1  0
 20 21  1  0
 20 17  1  0
 21 19  2  0
 22 23  1  0
 23 24  2  0
 25 28  1  0
 25 24  1  0
 26 25  2  0
 27 26  1  0
 27 22  2  0
 28 29  1  0
 29 30  1  0
 30 31  2  0
 32 31  1  0
 32 36  1  0
 33 32  2  0
 34 29  2  0
 34 33  1  0
 35 34  1  0
 37 38  1  0
 38 41  1  0
 38 40  1  0
 39 37  2  0
 42 43  1  0
 42 17  1  0
 44 42  1  0
 46 45  1  0
 47 48  1  0
 47 46  1  0
 49 60  2  0
 50 48  1  0
 50 55  1  0
 51 59  1  0
 51 61  1  0
 52 58  1  0
 52 54  1  0
 53 59  1  0
 54 55  2  0
 54 53  1  0
 56 50  2  0
 57 56  1  0
 57 52  2  0
 58 51  1  0
 59 49  1  0
 61 63  2  0
 62 61  1  0
 64 62  1  0
 65 74  2  0
 65 70  1  0
 66 62  1  0
 66 70  1  0
 67 66  1  0
 68 69  1  0
 68 67  1  0
 69 65  1  0
 70 71  2  0
 71 72  1  0
 73 72  2  0
 74 73  1  0
 75 49  1  0
 75 76  1  0
 75 85  1  0
 76 79  1  0
 77 81  1  0
 77 76  1  0
 78 77  2  0
 81 80  1  0
 83 84  1  0
 83 81  1  0
 83 82  1  0
 85 88  1  1
 85 86  1  0
 87 85  1  0
 89  2  1  0
 90 91  1  0
 91 89  1  0
M  ISO  4   7 100  15 100  47 101  48 101
M  END
>  <TORSDO>  (86) 
F 21

>  <SCORE>  (86) 
-14.052

>  <name>  (86) 
85

>  <ligand_id>  (86) 
85

>  <original_smiles>  (86) 
[H]c1c([H])c([H])c2c(c1[H])C([H])([H])C([H])([H])C([H])([H])C2([H])N([H])C(=O)C1([H])N(C(=O)C([H])(N([H])C(=O)C([H])(N([H])C([H])([H])[H])C([H])([H])[H])C(C([H])([H])[H])(C([H])([H])[H])C([H])([H])[H])C([H])([H])c2c([H])c(OC([H])([H])C([H])(N(C(=O)C(N([H])C(=O)N3C([H])([H])C([H])([H])C([H])([H])C([H])(n4nc(-c5c([H])c([H])c(Oc6c([H])c([H])c(F)c([H])c6F)c([H])c5[H])c(C(=O)N([H])[H])c4N([H])[H])C3([H])[H])(C([H])([H])[H])C([H])([H])[H])C([H])([H])C([H])([H])C([H])([H])[H])C([H])([H])[H])c([H])c([H])c2C1([H])[H]

>  <smiles>  (86) 
[H]c1c([H])c([H])c2c(c1[H])C([H])([H])C([H])([H])C([H])([H])C2([H])N([H])C(=O)C1([H])N(C(=O)C([H])(N([H])C(=O)C([H])(N([H])C([H])([H])[H])C([H])([H])[H])C(C([H])([H])[H])(C([H])([H])[H])C([H])([H])[H])C([H])([H])c2c([H])c(OC([H])([H])C([H])(N(C(=O)C(N([H])C(=O)N3C([H])([H])C([H])([H])C([H])([H])C([H])(n4nc(-c5c([H])c([H])c(Oc6c([H])c([H])c(F)c([H])c6F)c([H])c5[H])c(C(=O)N([H])[H])c4N([H])[H])C3([H])[H])(C([H])([H])[H])C([H])([H])[H])C([H])([H])C([H])([H])C([H])([H])[H])C([H])([H])[H])c([H])c([H])c2C1([H])[H]

$$$$
86:0:0
     RDKit          3D

 93101  0  0  1  0  0  0  0  0999 V2000
  -28.6340  -21.1420   20.5810 C   0  0  0  0  0  2  0  0  0  0  0  0
  -31.6180  -17.7790   20.4970 C   0  0  0  0  0  3  0  0  0  0  0  0
  -32.0110  -19.1290   20.5060 C   0  0  0  0  0  3  0  0  0  0  0  0
  -29.6850  -19.9300   20.4810 C   0  0  0  0  0  0  0  0  0  0  0  0
  -30.2570  -17.4000   20.4710 C   0  0  0  0  0  0  0  0  0  0  0  0
  -31.0810  -20.1860   20.5020 C   0  0  0  0  0  0  0  0  0  0  0  0
  -29.3060  -18.5100   20.4750 C   0  0  0  0  0  0  0  0  0  0  0  0
  -31.7370  -21.7850   20.5790 Cl  0  0  0  0  0  0  0  0  0  0  0  0
  -27.6270  -18.0970   20.4930 Cl  0  0  0  0  0  0  0  0  0  0  0  0
  -30.6040  -14.8010   20.1630 C   0  0  0  0  0  0  0  0  0  0  0  0
  -30.3250  -12.5770   19.0560 C   0  0  0  0  0  2  0  0  0  0  0  0
  -29.3430  -12.7120   17.8720 C   0  0  0  0  0  2  0  0  0  0  0  0
  -27.8920  -12.5260   18.3540 C   0  0  0  0  0  2  0  0  0  0  0  0
  -27.5720  -13.3560   19.6260 C   0  0  0  0  0  3  0  0  0  0  0  0
  -28.6740  -13.2230   20.6980 C   0  0  0  0  0  2  0  0  0  0  0  0
  -29.9460  -13.5940   20.0670 N   0  0  0  0  0  0  0  0  0  0  0  0
  -31.7760  -14.8580   19.7840 O   0  0  0  0  0  0  0  0  0  0  0  0
  -29.8800  -15.9510   20.4750 N   0  0  0  0  0  0  0  0  0  0  0  0
  -28.9080  -15.7780   20.6850 H   0  0  0  0  0  0  0  0  0  0  0  0
  -25.2010  -13.9040   20.4340 C   0  0  0  0  0  0  0  0  0  0  0  0
  -24.1590  -13.1120   20.8280 C   0  0  0  0  0  0  0  0  0  0  0  0
  -24.6410  -11.7670   20.7720 C   0  0  0  0  0  0  0  0  0  0  0  0
  -26.2490  -13.0430   20.1570 N   0  0  0  0  0  0  0  0  0  0  0  0
  -25.9220  -11.7520   20.4240 N   0  0  0  0  0  0  0  0  0  0  0  0
  -23.9370  -10.4940   20.9730 C   0  0  0  0  0  0  0  0  0  0  0  0
  -24.3880   -9.5400   21.9110 C   0  0  0  0  0  3  0  0  0  0  0  0
  -23.6820   -8.3310   22.1000 C   0  0  0  0  0  3  0  0  0  0  0  0
  -22.5130   -8.0680   21.3480 C   0  0  0  0  0  0  0  0  0  0  0  0
  -22.0810   -9.0110   20.3990 C   0  0  0  0  0  3  0  0  0  0  0  0
  -22.7870  -10.2110   20.2090 C   0  0  0  0  0  3  0  0  0  0  0  0
  -21.7770   -6.9120   21.4450 O   0  0  0  0  0  0  0  0  0  0  0  0
  -21.7220   -6.1900   22.6100 C   0  0  0  0  0  0  0  0  0  0  0  0
  -21.2460   -6.7520   23.8140 C   0  0  0  0  0  3  0  0  0  0  0  0
  -21.1420   -5.9540   24.9710 C   0  0  0  0  0  3  0  0  0  0  0  0
  -21.5030   -4.5950   24.9250 C   0  0  0  0  0  0  0  0  0  0  0  0
  -21.9730   -4.0320   23.7250 C   0  0  0  0  0  3  0  0  0  0  0  0
  -22.0790   -4.8260   22.5710 C   0  0  0  0  0  0  0  0  0  0  0  0
  -22.5120   -4.2730   21.4120 F   0  0  0  0  0  0  0  0  0  0  0  0
  -21.3960   -3.8260   26.0340 F   0  0  0  0  0  0  0  0  0  0  0  0
  -22.7640  -13.5680   21.1460 C   0  0  0  0  0  0  0  0  0  0  0  0
  -22.0720  -12.8530   22.0250 N   0  0  0  0  0  0  0  0  0  0  0  0
  -22.2990  -14.5930   20.6510 O   0  0  0  0  0  0  0  0  0  0  0  0
  -22.4610  -12.0220   22.4460 H   0  0  0  0  0  0  0  0  0  0  0  0
  -21.1380  -13.1400   22.2820 H   0  0  0  0  0  0  0  0  0  0  0  0
  -25.3390  -15.2780   20.2640 N   0  0  0  0  0  0  0  0  0  0  0  0
  -24.5660  -15.9170   20.4170 H   0  0  0  0  0  0  0  0  0  0  0  0
  -26.1700  -15.7440   19.9250 H   0  0  0  0  0  0  0  0  0  0  0  0
  -28.3900  -23.7840   20.4860 C   0  0  0  0  0  0  0  0  0  0  0  0
  -28.8560  -22.5580   20.0270 N   0  0  0  0  0  0  0  0  0  0  0  0
  -27.8300  -23.8600   21.5810 O   0  0  0  0  0  0  0  0  0  0  0  0
  -29.3370  -22.5910   19.1380 H   0  0  0  0  0  0  0  0  0  0  0  0
  -28.5150  -25.1170   19.6010 C   0  0  0  0  0  2  0  0  0  0  0  0
  -28.3850  -26.4640   20.2600 O   0  0  0  0  0  0  0  0  0  0  0  0
  -24.6090  -31.8840   23.2220 C   0  0  0  0  0  0  0  0  0  0  0  0
  -27.2560  -27.3090   20.1660 C   0  0  0  0  0  0  0  0  0  0  0  0
  -23.4220  -30.4890   21.5660 C   0  0  0  0  0  3  0  0  0  0  0  0
  -24.8890  -28.9450   20.1400 C   0  0  0  0  0  0  0  0  0  0  0  0
  -25.9650  -30.8060   21.4060 C   0  0  0  0  0  2  0  0  0  0  0  0
  -26.0510  -29.4270   20.7510 C   0  0  0  0  0  0  0  0  0  0  0  0
  -27.2330  -28.6210   20.7540 C   0  0  0  0  0  3  0  0  0  0  0  0
  -26.0640  -26.8870   19.5360 C   0  0  0  0  0  3  0  0  0  0  0  0
  -24.9000  -27.6840   19.5220 C   0  0  0  0  0  3  0  0  0  0  0  0
  -23.6480  -29.8190   20.1840 C   0  0  0  0  0  2  0  0  0  0  0  0
  -24.6830  -31.0780   22.1210 N   0  0  0  0  0  0  0  0  0  0  0  0
  -23.5200  -32.1560   23.7490 O   0  0  0  0  0  0  0  0  0  0  0  0
  -22.7540  -29.4680   22.5180 C   0  0  0  0  0  0  0  0  0  0  0  0
  -21.4280  -29.2920   22.3850 N   0  0  0  0  0  0  0  0  0  0  0  0
  -23.4280  -28.8370   23.3370 O   0  0  0  0  0  0  0  0  0  0  0  0
  -20.9430  -29.8530   21.6990 H   0  0  0  0  0  0  0  0  0  0  0  0
  -18.0470  -28.1010   22.8740 C   0  0  0  0  0  0  0  0  0  0  0  0
  -20.6060  -28.3480   23.1460 C   0  0  0  0  0  3  0  0  0  0  0  0
  -20.7020  -26.9230   22.5550 C   0  0  0  0  0  2  0  0  0  0  0  0
  -19.5990  -26.6150   21.5380 C   0  0  0  0  0  2  0  0  0  0  0  0
  -18.2180  -26.7580   22.1840 C   0  0  0  0  0  2  0  0  0  0  0  0
  -19.1680  -28.8550   23.3110 C   0  0  0  0  0  0  0  0  0  0  0  0
  -18.9530  -30.1110   23.9190 C   0  0  0  0  0  3  0  0  0  0  0  0
  -17.6500  -30.6140   24.0900 C   0  0  0  0  0  3  0  0  0  0  0  0
  -16.5420  -29.8580   23.6680 C   0  0  0  0  0  3  0  0  0  0  0  0
  -16.7420  -28.6020   23.0670 C   0  0  0  0  0  3  0  0  0  0  0  0
  -25.8830  -32.5200   23.8580 C   0  0  0  0  0  3  0  0  0  0  0  0
  -26.3780  -31.7590   25.1500 C   0  0  1  0  0  0  0  0  0  0  0  0
  -25.2670  -31.5340   26.2020 C   0  0  0  0  0  1  0  0  0  0  0  0
  -26.9630  -30.3760   24.7800 C   0  0  0  0  0  1  0  0  0  0  0  0
  -27.5200  -32.5560   25.8210 C   0  0  0  0  0  1  0  0  0  0  0  0
  -25.5710  -33.9210   24.1730 N   0  0  0  0  0  0  0  0  0  0  0  0
  -25.9180  -34.9700   23.4150 C   0  0  0  0  0  0  0  0  0  0  0  0
  -26.6010  -34.8580   22.3930 O   0  0  0  0  0  0  0  0  0  0  0  0
  -24.9650  -34.0820   24.9650 H   0  0  0  0  0  0  0  0  0  0  0  0
  -24.2060  -36.7720   23.0200 C   0  0  0  0  0  1  0  0  0  0  0  0
  -25.4280  -36.3620   23.8570 C   0  0  0  0  0  3  0  0  0  0  0  0
  -27.5490  -37.2420   24.7320 C   0  0  0  0  0  1  0  0  0  0  0  0
  -26.4690  -37.4100   23.7630 N   0  0  0  0  0  0  0  0  0  0  0  0
  -26.0640  -38.3330   23.8950 H   0  0  0  0  0  0  0  0  0  0  0  0
  2  3  1  0
  4  6  1  0
  4  1  1  0
  5 18  1  0
  5  7  1  0
  5  2  2  0
  6  3  2  0
  6  8  1  0
  7  4  2  0
  7  9  1  0
 10 18  1  0
 11 16  1  0
 12 13  1  0
 12 11  1  0
 14 13  1  0
 14 23  1  0
 14 15  1  0
 16 10  1  0
 16 15  1  0
 17 10  2  0
 18 19  1  0
 20 21  2  0
 21 40  1  0
 22 21  1  0
 22 25  1  0
 23 24  1  0
 23 20  1  0
 24 22  2  0
 25 26  1  0
 26 27  2  0
 28 31  1  0
 28 27  1  0
 29 28  2  0
 30 29  1  0
 30 25  2  0
 31 32  1  0
 32 33  1  0
 33 34  2  0
 35 34  1  0
 35 39  1  0
 36 35  2  0
 37 32  2  0
 37 36  1  0
 38 37  1  0
 40 41  1  0
 41 44  1  0
 41 43  1  0
 42 40  2  0
 45 46  1  0
 45 20  1  0
 47 45  1  0
 48 50  2  0
 49 48  1  0
 49  1  1  0
 51 49  1  0
 52 53  1  0
 52 48  1  0
 54 65  2  0
 55 53  1  0
 55 60  1  0
 56 64  1  0
 56 66  1  0
 57 63  1  0
 57 59  1  0
 58 64  1  0
 59 60  2  0
 59 58  1  0
 61 55  2  0
 62 61  1  0
 62 57  2  0
 63 56  1  0
 64 54  1  0
 66 68  2  0
 67 66  1  0
 69 67  1  0
 70 79  2  0
 70 75  1  0
 71 67  1  0
 71 75  1  0
 72 71  1  0
 73 74  1  0
 73 72  1  0
 74 70  1  0
 75 76  2  0
 76 77  1  0
 78 77  2  0
 79 78  1  0
 80 54  1  0
 80 85  1  0
 80 81  1  0
 81 84  1  1
 81 82  1  0
 83 81  1  0
 85 88  1  0
 86 90  1  0
 86 85  1  0
 87 86  2  0
 90 89  1  0
 92 90  1  0
 92 93  1  0
 92 91  1  0
M  ISO  4  10 100  18 100  52 101  53 101
M  END
>  <TORSDO>  (87) 
F 19

>  <SCORE>  (87) 
-14.558

>  <name>  (87) 
86

>  <ligand_id>  (87) 
86

>  <original_smiles>  (87) 
[H]c1c([H])c([H])c2c(c1[H])C([H])([H])C([H])([H])C([H])([H])C2([H])N([H])C(=O)C1([H])N(C(=O)C([H])(N([H])C(=O)C([H])(N([H])C([H])([H])[H])C([H])([H])[H])C(C([H])([H])[H])(C([H])([H])[H])C([H])([H])[H])C([H])([H])c2c([H])c(OC([H])([H])C(=O)N([H])C([H])([H])c3c(Cl)c([H])c([H])c(N([H])C(=O)N4C([H])([H])C([H])([H])C([H])([H])C([H])(n5nc(-c6c([H])c([H])c(Oc7c([H])c([H])c(F)c([H])c7F)c([H])c6[H])c(C(=O)N([H])[H])c5N([H])[H])C4([H])[H])c3Cl)c([H])c([H])c2C1([H])[H]

>  <smiles>  (87) 
[H]c1c([H])c([H])c2c(c1[H])C([H])([H])C([H])([H])C([H])([H])C2([H])N([H])C(=O)C1([H])N(C(=O)C([H])(N([H])C(=O)C([H])(N([H])C([H])([H])[H])C([H])([H])[H])C(C([H])([H])[H])(C([H])([H])[H])C([H])([H])[H])C([H])([H])c2c([H])c(OC([H])([H])C(=O)N([H])C([H])([H])c3c(Cl)c([H])c([H])c(N([H])C(=O)N4C([H])([H])C([H])([H])C([H])([H])C([H])(n5nc(-c6c([H])c([H])c(Oc7c([H])c([H])c(F)c([H])c7F)c([H])c6[H])c(C(=O)N([H])[H])c5N([H])[H])C4([H])[H])c3Cl)c([H])c([H])c2C1([H])[H]

$$$$
87:0:0
     RDKit          3D

 95103  0  0  1  0  0  0  0  0999 V2000
  -29.0900  -20.5290   21.2310 C   0  0  0  0  0  2  0  0  0  0  0  0
  -30.5070  -19.8580   19.2230 C   0  0  0  0  0  3  0  0  0  0  0  0
  -29.8130  -19.4610   20.3810 C   0  0  0  0  0  0  0  0  0  0  0  0
  -31.0200  -17.5270   18.6770 C   0  0  0  0  0  0  0  0  0  0  0  0
  -30.4260  -17.0930   19.9050 C   0  0  0  0  0  0  0  0  0  0  0  0
  -31.0910  -18.9040   18.3780 C   0  0  0  0  0  0  0  0  0  0  0  0
  -29.8050  -18.0780   20.7320 C   0  0  0  0  0  0  0  0  0  0  0  0
  -31.5320  -16.5760   17.6050 C   0  0  0  0  0  1  0  0  0  0  0  0
  -31.6970  -19.3270   17.2420 F   0  0  0  0  0  0  0  0  0  0  0  0
  -29.0050  -17.5670   22.1810 Cl  0  0  0  0  0  0  0  0  0  0  0  0
  -31.0980  -14.6450   20.0240 C   0  0  0  0  0  0  0  0  0  0  0  0
  -30.7680  -12.4770   18.9130 C   0  0  0  0  0  2  0  0  0  0  0  0
  -29.7580  -12.6790   17.7620 C   0  0  0  0  0  2  0  0  0  0  0  0
  -28.3080  -12.5570   18.2680 C   0  0  0  0  0  2  0  0  0  0  0  0
  -28.0420  -13.3770   19.5580 C   0  0  0  0  0  3  0  0  0  0  0  0
  -29.1560  -13.1480   20.6030 C   0  0  0  0  0  2  0  0  0  0  0  0
  -30.4450  -13.4540   19.9650 N   0  0  0  0  0  0  0  0  0  0  0  0
  -32.2640  -14.7820   19.6500 O   0  0  0  0  0  0  0  0  0  0  0  0
  -30.3090  -15.7070   20.3040 N   0  0  0  0  0  0  0  0  0  0  0  0
  -29.4660  -15.4850   20.8090 H   0  0  0  0  0  0  0  0  0  0  0  0
  -25.6950  -13.9780   20.4270 C   0  0  0  0  0  0  0  0  0  0  0  0
  -24.6410  -13.2000   20.8260 C   0  0  0  0  0  0  0  0  0  0  0  0
  -25.0880  -11.8480   20.7250 C   0  0  0  0  0  0  0  0  0  0  0  0
  -26.7170  -13.0970   20.1070 N   0  0  0  0  0  0  0  0  0  0  0  0
  -26.3590  -11.8100   20.3460 N   0  0  0  0  0  0  0  0  0  0  0  0
  -24.3630  -10.5840   20.9080 C   0  0  0  0  0  0  0  0  0  0  0  0
  -24.7720   -9.6300   21.8660 C   0  0  0  0  0  3  0  0  0  0  0  0
  -24.0460   -8.4310   22.0370 C   0  0  0  0  0  3  0  0  0  0  0  0
  -22.8990   -8.1780   21.2490 C   0  0  0  0  0  0  0  0  0  0  0  0
  -22.5090   -9.1200   20.2820 C   0  0  0  0  0  3  0  0  0  0  0  0
  -23.2350  -10.3100   20.1090 C   0  0  0  0  0  3  0  0  0  0  0  0
  -22.1480   -7.0300   21.3290 O   0  0  0  0  0  0  0  0  0  0  0  0
  -21.9590   -6.3740   22.5190 C   0  0  0  0  0  0  0  0  0  0  0  0
  -21.3600   -7.0060   23.6310 C   0  0  0  0  0  3  0  0  0  0  0  0
  -21.1210   -6.2740   24.8110 C   0  0  0  0  0  3  0  0  0  0  0  0
  -21.4710   -4.9120   24.8800 C   0  0  0  0  0  0  0  0  0  0  0  0
  -22.0630   -4.2800   23.7720 C   0  0  0  0  0  3  0  0  0  0  0  0
  -22.3040   -5.0090   22.5940 C   0  0  0  0  0  0  0  0  0  0  0  0
  -22.8550   -4.3910   21.5230 F   0  0  0  0  0  0  0  0  0  0  0  0
  -21.2340   -4.2080   26.0110 F   0  0  0  0  0  0  0  0  0  0  0  0
  -23.2660  -13.6780   21.1900 C   0  0  0  0  0  0  0  0  0  0  0  0
  -22.5840  -12.9630   22.0780 N   0  0  0  0  0  0  0  0  0  0  0  0
  -22.8050  -14.7180   20.7240 O   0  0  0  0  0  0  0  0  0  0  0  0
  -22.9700  -12.1200   22.4780 H   0  0  0  0  0  0  0  0  0  0  0  0
  -21.6630  -13.2630   22.3640 H   0  0  0  0  0  0  0  0  0  0  0  0
  -25.8620  -15.3530   20.2870 N   0  0  0  0  0  0  0  0  0  0  0  0
  -25.1080  -16.0060   20.4600 H   0  0  0  0  0  0  0  0  0  0  0  0
  -26.6940  -15.7970   19.9180 H   0  0  0  0  0  0  0  0  0  0  0  0
  -29.0290  -23.0280   20.9450 C   0  0  0  0  0  0  0  0  0  0  0  0
  -27.7470  -21.5710   19.4120 C   0  0  0  0  0  1  0  0  0  0  0  0
  -28.6740  -21.7770   20.5310 N   0  0  0  0  0  0  0  0  0  0  0  0
  -29.7360  -23.1960   21.9430 O   0  0  0  0  0  0  0  0  0  0  0  0
  -28.5590  -24.2790   20.1450 C   0  0  0  0  0  2  0  0  0  0  0  0
  -28.6860  -25.6360   20.8970 C   0  0  0  0  0  2  0  0  0  0  0  0
  -28.6030  -26.7940   20.0470 O   0  0  0  0  0  0  0  0  0  0  0  0
  -24.6130  -31.8340   23.1490 C   0  0  0  0  0  0  0  0  0  0  0  0
  -27.4150  -27.4890   20.0750 C   0  0  0  0  0  0  0  0  0  0  0  0
  -23.4670  -30.4170   21.4750 C   0  0  0  0  0  3  0  0  0  0  0  0
  -24.9810  -28.9290   20.0590 C   0  0  0  0  0  0  0  0  0  0  0  0
  -25.9820  -30.8460   21.3130 C   0  0  0  0  0  2  0  0  0  0  0  0
  -26.1160  -29.4810   20.6680 C   0  0  0  0  0  0  0  0  0  0  0  0
  -27.3380  -28.7700   20.6700 C   0  0  0  0  0  3  0  0  0  0  0  0
  -26.2680  -26.9480   19.4620 C   0  0  0  0  0  3  0  0  0  0  0  0
  -25.0530  -27.6610   19.4510 C   0  0  0  0  0  3  0  0  0  0  0  0
  -23.7140  -29.7540   20.0930 C   0  0  0  0  0  2  0  0  0  0  0  0
  -24.7040  -31.0480   22.0380 N   0  0  0  0  0  0  0  0  0  0  0  0
  -23.5190  -32.0710   23.6770 O   0  0  0  0  0  0  0  0  0  0  0  0
  -22.8300  -29.3710   22.4170 C   0  0  0  0  0  0  0  0  0  0  0  0
  -21.5120  -29.1590   22.2730 N   0  0  0  0  0  0  0  0  0  0  0  0
  -23.5200  -28.7530   23.2330 O   0  0  0  0  0  0  0  0  0  0  0  0
  -21.0170  -29.7120   21.5880 H   0  0  0  0  0  0  0  0  0  0  0  0
  -18.1620  -27.8830   22.7180 C   0  0  0  0  0  0  0  0  0  0  0  0
  -20.7100  -28.1920   23.0210 C   0  0  0  0  0  3  0  0  0  0  0  0
  -20.8500  -26.7720   22.4260 C   0  0  0  0  0  2  0  0  0  0  0  0
  -19.7650  -26.4400   21.3950 C   0  0  0  0  0  2  0  0  0  0  0  0
  -18.3750  -26.5470   22.0260 C   0  0  0  0  0  2  0  0  0  0  0  0
  -19.2580  -28.6620   23.1720 C   0  0  0  0  0  0  0  0  0  0  0  0
  -19.0060  -29.9130   23.7760 C   0  0  0  0  0  3  0  0  0  0  0  0
  -17.6890  -30.3840   23.9350 C   0  0  0  0  0  3  0  0  0  0  0  0
  -16.6070  -29.6010   23.4980 C   0  0  0  0  0  3  0  0  0  0  0  0
  -16.8430  -28.3530   22.8950 C   0  0  0  0  0  3  0  0  0  0  0  0
  -25.8750  -32.4910   23.7930 C   0  0  0  0  0  3  0  0  0  0  0  0
  -26.4040  -31.7120   25.0590 C   0  0  1  0  0  0  0  0  0  0  0  0
  -25.3090  -31.4180   26.1100 C   0  0  0  0  0  1  0  0  0  0  0  0
  -27.0330  -30.3620   24.6430 C   0  0  0  0  0  1  0  0  0  0  0  0
  -27.5210  -32.5280   25.7500 C   0  0  0  0  0  1  0  0  0  0  0  0
  -25.5250  -33.8740   24.1420 N   0  0  0  0  0  0  0  0  0  0  0  0
  -25.8350  -34.9470   23.4030 C   0  0  0  0  0  0  0  0  0  0  0  0
  -26.5170  -34.8780   22.3770 O   0  0  0  0  0  0  0  0  0  0  0  0
  -24.9180  -33.9990   24.9400 H   0  0  0  0  0  0  0  0  0  0  0  0
  -24.0630  -36.6970   23.0520 C   0  0  0  0  0  1  0  0  0  0  0  0
  -25.3030  -36.3140   23.8750 C   0  0  0  0  0  3  0  0  0  0  0  0
  -27.3960  -37.2460   24.7560 C   0  0  0  0  0  1  0  0  0  0  0  0
  -26.3090  -37.3960   23.7940 N   0  0  0  0  0  0  0  0  0  0  0  0
  -25.8740  -38.3030   23.9430 H   0  0  0  0  0  0  0  0  0  0  0  0
  2  3  1  0
  3  7  2  0
  3  1  1  0
  4  5  2  0
  5 19  1  0
  5  7  1  0
  6  4  1  0
  6  2  2  0
  7 10  1  0
  8  4  1  0
  9  6  1  0
 11 19  1  0
 12 17  1  0
 13 14  1  0
 13 12  1  0
 15 14  1  0
 15 24  1  0
 15 16  1  0
 17 11  1  0
 17 16  1  0
 18 11  2  0
 19 20  1  0
 21 22  2  0
 22 41  1  0
 23 22  1  0
 23 26  1  0
 24 25  1  0
 24 21  1  0
 25 23  2  0
 26 27  1  0
 27 28  2  0
 29 32  1  0
 29 28  1  0
 30 29  2  0
 31 30  1  0
 31 26  2  0
 32 33  1  0
 33 38  2  0
 33 34  1  0
 34 35  2  0
 35 36  1  0
 36 40  1  0
 37 36  2  0
 38 37  1  0
 39 38  1  0
 41 42  1  0
 42 45  1  0
 42 44  1  0
 43 41  2  0
 46 21  1  0
 46 47  1  0
 48 46  1  0
 49 52  2  0
 50 51  1  0
 51 49  1  0
 51  1  1  0
 53 54  1  0
 53 49  1  0
 55 57  1  0
 55 54  1  0
 56 67  2  0
 57 62  1  0
 58 66  1  0
 58 68  1  0
 59 65  1  0
 59 61  1  0
 60 66  1  0
 61 62  2  0
 61 60  1  0
 63 57  2  0
 64 63  1  0
 64 59  2  0
 65 58  1  0
 66 56  1  0
 68 70  2  0
 69 68  1  0
 71 69  1  0
 72 81  2  0
 72 77  1  0
 73 69  1  0
 73 77  1  0
 74 73  1  0
 75 76  1  0
 75 74  1  0
 76 72  1  0
 77 78  2  0
 78 79  1  0
 80 79  2  0
 81 80  1  0
 82 56  1  0
 82 87  1  0
 82 83  1  0
 83 86  1  1
 83 84  1  0
 85 83  1  0
 87 90  1  0
 88 92  1  0
 88 87  1  0
 89 88  2  0
 92 91  1  0
 94 92  1  0
 94 95  1  0
 94 93  1  0
M  ISO  4  11 100  19 100  54 101  55 101
M  END
>  <TORSDO>  (88) 
F 20

>  <SCORE>  (88) 
-12.013

>  <name>  (88) 
87

>  <ligand_id>  (88) 
87

>  <original_smiles>  (88) 
[H]c1c([H])c([H])c2c(c1[H])C([H])([H])C([H])([H])C([H])([H])C2([H])N([H])C(=O)C1([H])N(C(=O)C([H])(N([H])C(=O)C([H])(N([H])C([H])([H])[H])C([H])([H])[H])C(C([H])([H])[H])(C([H])([H])[H])C([H])([H])[H])C([H])([H])c2c([H])c(OC([H])([H])C([H])([H])C(=O)N(C([H])([H])[H])C([H])([H])c3c([H])c(F)c(C([H])([H])[H])c(N([H])C(=O)N4C([H])([H])C([H])([H])C([H])([H])C([H])(n5nc(-c6c([H])c([H])c(Oc7c([H])c([H])c(F)c([H])c7F)c([H])c6[H])c(C(=O)N([H])[H])c5N([H])[H])C4([H])[H])c3Cl)c([H])c([H])c2C1([H])[H]

>  <smiles>  (88) 
[H]c1c([H])c([H])c2c(c1[H])C([H])([H])C([H])([H])C([H])([H])C2([H])N([H])C(=O)C1([H])N(C(=O)C([H])(N([H])C(=O)C([H])(N([H])C([H])([H])[H])C([H])([H])[H])C(C([H])([H])[H])(C([H])([H])[H])C([H])([H])[H])C([H])([H])c2c([H])c(OC([H])([H])C([H])([H])C(=O)N(C([H])([H])[H])C([H])([H])c3c([H])c(F)c(C([H])([H])[H])c(N([H])C(=O)N4C([H])([H])C([H])([H])C([H])([H])C([H])(n5nc(-c6c([H])c([H])c(Oc7c([H])c([H])c(F)c([H])c7F)c([H])c6[H])c(C(=O)N([H])[H])c5N([H])[H])C4([H])[H])c3Cl)c([H])c([H])c2C1([H])[H]

$$$$
88:0:0
     RDKit          3D

 94102  0  0  1  0  0  0  0  0999 V2000
  -31.5470  -17.7810   20.6650 C   0  0  0  0  0  3  0  0  0  0  0  0
  -31.9350  -19.1370   20.6900 C   0  0  0  0  0  0  0  0  0  0  0  0
  -29.2270  -18.4800   20.4780 C   0  0  0  0  0  0  0  0  0  0  0  0
  -29.6010  -19.8980   20.5240 C   0  0  0  0  0  0  0  0  0  0  0  0
  -30.1940  -17.3830   20.5610 C   0  0  0  0  0  0  0  0  0  0  0  0
  -30.9810  -20.1750   20.6370 C   0  0  0  0  0  0  0  0  0  0  0  0
  -33.4070  -19.4870   20.7840 C   0  0  0  0  0  1  0  0  0  0  0  0
  -27.7530  -18.1380   20.3190 C   0  0  0  0  0  1  0  0  0  0  0  0
  -31.4130  -21.4560   20.7110 F   0  0  0  0  0  0  0  0  0  0  0  0
  -30.5990  -14.7750   20.3540 C   0  0  0  0  0  0  0  0  0  0  0  0
  -30.3610  -12.5110   19.3220 C   0  0  0  0  0  2  0  0  0  0  0  0
  -29.4200  -12.6010   18.1010 C   0  0  0  0  0  2  0  0  0  0  0  0
  -27.9520  -12.4340   18.5360 C   0  0  0  0  0  2  0  0  0  0  0  0
  -27.5870  -13.3120   19.7620 C   0  0  0  0  0  3  0  0  0  0  0  0
  -28.6500  -13.2230   20.8790 C   0  0  0  0  0  2  0  0  0  0  0  0
  -29.9460  -13.5650   20.2800 N   0  0  0  0  0  0  0  0  0  0  0  0
  -31.7880  -14.8300   20.0270 O   0  0  0  0  0  0  0  0  0  0  0  0
  -29.8460  -15.9280   20.5730 N   0  0  0  0  0  0  0  0  0  0  0  0
  -28.8690  -15.7330   20.7220 H   0  0  0  0  0  0  0  0  0  0  0  0
  -25.1980  -13.8970   20.4860 C   0  0  0  0  0  0  0  0  0  0  0  0
  -24.1350  -13.1220   20.8620 C   0  0  0  0  0  0  0  0  0  0  0  0
  -24.6030  -11.7730   20.8400 C   0  0  0  0  0  0  0  0  0  0  0  0
  -26.2450  -13.0200   20.2560 N   0  0  0  0  0  0  0  0  0  0  0  0
  -25.8950  -11.7380   20.5340 N   0  0  0  0  0  0  0  0  0  0  0  0
  -23.8800  -10.5100   21.0360 C   0  0  0  0  0  0  0  0  0  0  0  0
  -24.3200   -9.5420   21.9650 C   0  0  0  0  0  3  0  0  0  0  0  0
  -23.5950   -8.3450   22.1490 C   0  0  0  0  0  3  0  0  0  0  0  0
  -22.4160   -8.1070   21.4050 C   0  0  0  0  0  0  0  0  0  0  0  0
  -21.9950   -9.0620   20.4640 C   0  0  0  0  0  3  0  0  0  0  0  0
  -22.7200  -10.2510   20.2770 C   0  0  0  0  0  3  0  0  0  0  0  0
  -21.6620   -6.9620   21.4990 O   0  0  0  0  0  0  0  0  0  0  0  0
  -21.6310   -6.2130   22.6480 C   0  0  0  0  0  0  0  0  0  0  0  0
  -21.2360   -6.7630   23.8860 C   0  0  0  0  0  3  0  0  0  0  0  0
  -21.1510   -5.9410   25.0270 C   0  0  0  0  0  3  0  0  0  0  0  0
  -21.4530   -4.5700   24.9310 C   0  0  0  0  0  0  0  0  0  0  0  0
  -21.8430   -4.0190   23.6980 C   0  0  0  0  0  3  0  0  0  0  0  0
  -21.9280   -4.8380   22.5590 C   0  0  0  0  0  0  0  0  0  0  0  0
  -22.2840   -4.2980   21.3690 F   0  0  0  0  0  0  0  0  0  0  0  0
  -21.3640   -3.7780   26.0250 F   0  0  0  0  0  0  0  0  0  0  0  0
  -22.7360  -13.5980   21.1260 C   0  0  0  0  0  0  0  0  0  0  0  0
  -22.0060  -12.9050   21.9930 N   0  0  0  0  0  0  0  0  0  0  0  0
  -22.2970  -14.6180   20.5970 O   0  0  0  0  0  0  0  0  0  0  0  0
  -22.3740  -12.0800   22.4420 H   0  0  0  0  0  0  0  0  0  0  0  0
  -21.0670  -13.2060   22.2130 H   0  0  0  0  0  0  0  0  0  0  0  0
  -25.3510  -15.2660   20.2950 N   0  0  0  0  0  0  0  0  0  0  0  0
  -24.5650  -15.9020   20.3770 H   0  0  0  0  0  0  0  0  0  0  0  0
  -26.1660  -15.6960   19.8800 H   0  0  0  0  0  0  0  0  0  0  0  0
  -28.5650  -21.1230   20.5450 C   0  0  0  0  0  2  0  0  0  0  0  0
  -28.3320  -23.7570   20.4890 C   0  0  0  0  0  0  0  0  0  0  0  0
  -28.9020  -22.5510   20.0990 N   0  0  0  0  0  0  0  0  0  0  0  0
  -27.5870  -23.7940   21.4700 O   0  0  0  0  0  0  0  0  0  0  0  0
  -29.5470  -22.6100   19.3210 H   0  0  0  0  0  0  0  0  0  0  0  0
  -28.5540  -25.1070   19.6490 C   0  0  0  0  0  2  0  0  0  0  0  0
  -28.4040  -26.4490   20.3140 O   0  0  0  0  0  0  0  0  0  0  0  0
  -24.6370  -31.8940   23.2370 C   0  0  0  0  0  0  0  0  0  0  0  0
  -27.2740  -27.2940   20.2060 C   0  0  0  0  0  0  0  0  0  0  0  0
  -23.4450  -30.4810   21.5990 C   0  0  0  0  0  3  0  0  0  0  0  0
  -24.9050  -28.9240   20.1790 C   0  0  0  0  0  0  0  0  0  0  0  0
  -25.9860  -30.7990   21.4240 C   0  0  0  0  0  2  0  0  0  0  0  0
  -26.0720  -29.4160   20.7760 C   0  0  0  0  0  0  0  0  0  0  0  0
  -27.2540  -28.6110   20.7800 C   0  0  0  0  0  3  0  0  0  0  0  0
  -26.0810  -26.8600   19.5890 C   0  0  0  0  0  3  0  0  0  0  0  0
  -24.9130  -27.6530   19.5790 C   0  0  0  0  0  3  0  0  0  0  0  0
  -23.6650  -29.7950   20.2240 C   0  0  0  0  0  2  0  0  0  0  0  0
  -24.7080  -31.0790   22.1420 N   0  0  0  0  0  0  0  0  0  0  0  0
  -23.5520  -32.1700   23.7670 O   0  0  0  0  0  0  0  0  0  0  0  0
  -22.7820  -29.4690   22.5640 C   0  0  0  0  0  0  0  0  0  0  0  0
  -21.4570  -29.2930   22.4410 N   0  0  0  0  0  0  0  0  0  0  0  0
  -23.4610  -28.8460   23.3840 O   0  0  0  0  0  0  0  0  0  0  0  0
  -20.9690  -29.8450   21.7500 H   0  0  0  0  0  0  0  0  0  0  0  0
  -18.0780  -28.1000   22.9490 C   0  0  0  0  0  0  0  0  0  0  0  0
  -20.6370  -28.3560   23.2120 C   0  0  0  0  0  3  0  0  0  0  0  0
  -20.7370  -26.9250   22.6350 C   0  0  0  0  0  2  0  0  0  0  0  0
  -19.6310  -26.6050   21.6230 C   0  0  0  0  0  2  0  0  0  0  0  0
  -18.2510  -26.7510   22.2720 C   0  0  0  0  0  2  0  0  0  0  0  0
  -19.2000  -28.8600   23.3750 C   0  0  0  0  0  0  0  0  0  0  0  0
  -18.9840  -30.1220   23.9700 C   0  0  0  0  0  3  0  0  0  0  0  0
  -17.6800  -30.6250   24.1440 C   0  0  0  0  0  3  0  0  0  0  0  0
  -16.5740  -29.8600   23.7340 C   0  0  0  0  0  3  0  0  0  0  0  0
  -16.7730  -28.6000   23.1440 C   0  0  0  0  0  3  0  0  0  0  0  0
  -25.9150  -32.5350   23.8610 C   0  0  0  0  0  3  0  0  0  0  0  0
  -26.4300  -31.7740   25.1450 C   0  0  1  0  0  0  0  0  0  0  0  0
  -25.3340  -31.5380   26.2130 C   0  0  0  0  0  1  0  0  0  0  0  0
  -27.0190  -30.3970   24.7650 C   0  0  0  0  0  1  0  0  0  0  0  0
  -27.5750  -32.5760   25.8060 C   0  0  0  0  0  1  0  0  0  0  0  0
  -25.5970  -33.9340   24.1890 N   0  0  0  0  0  0  0  0  0  0  0  0
  -25.9260  -34.9870   23.4290 C   0  0  0  0  0  0  0  0  0  0  0  0
  -26.5960  -34.8850   22.3980 O   0  0  0  0  0  0  0  0  0  0  0  0
  -25.0020  -34.0860   24.9900 H   0  0  0  0  0  0  0  0  0  0  0  0
  -24.1870  -36.7720   23.0740 C   0  0  0  0  0  1  0  0  0  0  0  0
  -25.4320  -36.3740   23.8840 C   0  0  0  0  0  3  0  0  0  0  0  0
  -27.5650  -37.2710   24.7080 C   0  0  0  0  0  1  0  0  0  0  0  0
  -26.4580  -37.4350   23.7690 N   0  0  0  0  0  0  0  0  0  0  0  0
  -26.0470  -38.3520   23.9190 H   0  0  0  0  0  0  0  0  0  0  0  0
  1  2  1  0
  2  7  1  0
  3  4  2  0
  3  5  1  0
  4 48  1  0
  4  6  1  0
  5 18  1  0
  5  1  2  0
  6  2  2  0
  6  9  1  0
  8  3  1  0
 10 18  1  0
 11 16  1  0
 12 13  1  0
 12 11  1  0
 14 13  1  0
 14 23  1  0
 14 15  1  0
 16 10  1  0
 16 15  1  0
 17 10  2  0
 18 19  1  0
 20 21  2  0
 21 40  1  0
 22 21  1  0
 22 25  1  0
 23 20  1  0
 23 24  1  0
 24 22  2  0
 25 26  1  0
 26 27  2  0
 28 31  1  0
 28 27  1  0
 29 28  2  0
 30 29  1  0
 30 25  2  0
 31 32  1  0
 32 33  1  0
 33 34  2  0
 35 34  1  0
 35 39  1  0
 36 35  2  0
 37 32  2  0
 37 36  1  0
 38 37  1  0
 40 41  1  0
 41 44  1  0
 41 43  1  0
 42 40  2  0
 45 46  1  0
 45 20  1  0
 47 45  1  0
 49 51  2  0
 50 49  1  0
 50 48  1  0
 52 50  1  0
 53 54  1  0
 53 49  1  0
 55 66  2  0
 56 54  1  0
 56 61  1  0
 57 65  1  0
 57 67  1  0
 58 64  1  0
 58 60  1  0
 59 65  1  0
 60 61  2  0
 60 59  1  0
 62 56  2  0
 63 62  1  0
 63 58  2  0
 64 57  1  0
 65 55  1  0
 67 69  2  0
 68 67  1  0
 70 68  1  0
 71 80  2  0
 71 76  1  0
 72 68  1  0
 72 76  1  0
 73 72  1  0
 74 75  1  0
 74 73  1  0
 75 71  1  0
 76 77  2  0
 77 78  1  0
 79 78  2  0
 80 79  1  0
 81 55  1  0
 81 86  1  0
 81 82  1  0
 82 85  1  1
 82 83  1  0
 84 82  1  0
 86 89  1  0
 87 91  1  0
 87 86  1  0
 88 87  2  0
 91 90  1  0
 93 91  1  0
 93 94  1  0
 93 92  1  0
M  ISO  4  10 100  18 100  53 101  54 101
M  END
>  <TORSDO>  (89) 
F 19

>  <SCORE>  (89) 
-14.783

>  <name>  (89) 
88

>  <ligand_id>  (89) 
88

>  <original_smiles>  (89) 
[H]c1c([H])c([H])c2c(c1[H])C([H])([H])C([H])([H])C([H])([H])C2([H])N([H])C(=O)C1([H])N(C(=O)C([H])(N([H])C(=O)C([H])(N([H])C([H])([H])[H])C([H])([H])[H])C(C([H])([H])[H])(C([H])([H])[H])C([H])([H])[H])C([H])([H])c2c([H])c(OC([H])([H])C(=O)N([H])C([H])([H])c3c(F)c(C([H])([H])[H])c([H])c(N([H])C(=O)N4C([H])([H])C([H])([H])C([H])([H])C([H])(n5nc(-c6c([H])c([H])c(Oc7c([H])c([H])c(F)c([H])c7F)c([H])c6[H])c(C(=O)N([H])[H])c5N([H])[H])C4([H])[H])c3C([H])([H])[H])c([H])c([H])c2C1([H])[H]

>  <smiles>  (89) 
[H]c1c([H])c([H])c2c(c1[H])C([H])([H])C([H])([H])C([H])([H])C2([H])N([H])C(=O)C1([H])N(C(=O)C([H])(N([H])C(=O)C([H])(N([H])C([H])([H])[H])C([H])([H])[H])C(C([H])([H])[H])(C([H])([H])[H])C([H])([H])[H])C([H])([H])c2c([H])c(OC([H])([H])C(=O)N([H])C([H])([H])c3c(F)c(C([H])([H])[H])c([H])c(N([H])C(=O)N4C([H])([H])C([H])([H])C([H])([H])C([H])(n5nc(-c6c([H])c([H])c(Oc7c([H])c([H])c(F)c([H])c7F)c([H])c6[H])c(C(=O)N([H])[H])c5N([H])[H])C4([H])[H])c3C([H])([H])[H])c([H])c([H])c2C1([H])[H]

$$$$
89:0:0
     RDKit          3D

 96104  0  0  1  0  0  0  0  0999 V2000
  -30.5110  -19.6530   21.1430 C   0  0  0  0  0  3  0  0  0  0  0  0
  -31.4160  -18.6360   21.5110 C   0  0  0  0  0  0  0  0  0  0  0  0
  -29.2850  -19.3470   20.5110 C   0  0  0  0  0  0  0  0  0  0  0  0
  -29.8960  -16.9460   20.5990 C   0  0  0  0  0  0  0  0  0  0  0  0
  -31.1010  -17.2800   21.2670 C   0  0  0  0  0  0  0  0  0  0  0  0
  -28.9870  -17.9790   20.2370 C   0  0  0  0  0  0  0  0  0  0  0  0
  -32.7100  -19.0060   22.2130 C   0  0  0  0  0  1  0  0  0  0  0  0
  -27.4860  -17.5390   19.4910 Cl  0  0  0  0  0  0  0  0  0  0  0  0
  -30.1450  -14.6800   19.5900 C   0  0  0  0  0  0  0  0  0  0  0  0
  -29.7740  -12.5540   18.3820 C   0  0  0  0  0  2  0  0  0  0  0  0
  -28.6310  -12.7340   17.3630 C   0  0  0  0  0  2  0  0  0  0  0  0
  -27.2600  -12.4880   18.0260 C   0  0  0  0  0  2  0  0  0  0  0  0
  -27.0930  -13.2590   19.3620 C   0  0  0  0  0  3  0  0  0  0  0  0
  -28.3300  -13.0590   20.2670 C   0  0  0  0  0  2  0  0  0  0  0  0
  -29.5220  -13.4730   19.5030 N   0  0  0  0  0  0  0  0  0  0  0  0
  -31.1310  -14.9720   18.9060 O   0  0  0  0  0  0  0  0  0  0  0  0
  -29.5300  -15.5810   20.3790 N   0  0  0  0  0  0  0  0  0  0  0  0
  -28.6300  -15.3000   20.7380 H   0  0  0  0  0  0  0  0  0  0  0  0
  -24.8310  -13.6950   20.5130 C   0  0  0  0  0  0  0  0  0  0  0  0
  -23.8760  -12.8470   21.0050 C   0  0  0  0  0  0  0  0  0  0  0  0
  -24.3800  -11.5250   20.8010 C   0  0  0  0  0  0  0  0  0  0  0  0
  -25.8550  -12.8860   20.0460 N   0  0  0  0  0  0  0  0  0  0  0  0
  -25.5970  -11.5730   20.2730 N   0  0  0  0  0  0  0  0  0  0  0  0
  -23.7510  -10.2170   21.0250 C   0  0  0  0  0  0  0  0  0  0  0  0
  -24.2400   -9.3180   21.9970 C   0  0  0  0  0  3  0  0  0  0  0  0
  -23.6060   -8.0750   22.2070 C   0  0  0  0  0  3  0  0  0  0  0  0
  -22.4680   -7.7200   21.4440 C   0  0  0  0  0  0  0  0  0  0  0  0
  -21.9970   -8.6100   20.4620 C   0  0  0  0  0  3  0  0  0  0  0  0
  -22.6340   -9.8450   20.2500 C   0  0  0  0  0  3  0  0  0  0  0  0
  -21.8030   -6.5230   21.5600 O   0  0  0  0  0  0  0  0  0  0  0  0
  -21.6340   -5.9080   22.7750 C   0  0  0  0  0  0  0  0  0  0  0  0
  -20.9390   -6.5310   23.8340 C   0  0  0  0  0  3  0  0  0  0  0  0
  -20.7290   -5.8360   25.0430 C   0  0  0  0  0  3  0  0  0  0  0  0
  -21.2020   -4.5180   25.1900 C   0  0  0  0  0  0  0  0  0  0  0  0
  -21.8890   -3.8950   24.1330 C   0  0  0  0  0  3  0  0  0  0  0  0
  -22.1020   -4.5880   22.9290 C   0  0  0  0  0  0  0  0  0  0  0  0
  -22.7470   -3.9750   21.9070 F   0  0  0  0  0  0  0  0  0  0  0  0
  -20.9950   -3.8480   26.3470 F   0  0  0  0  0  0  0  0  0  0  0  0
  -22.5300  -13.2320   21.5490 C   0  0  0  0  0  0  0  0  0  0  0  0
  -22.0130  -12.4680   22.5040 N   0  0  0  0  0  0  0  0  0  0  0  0
  -21.9510  -14.2460   21.1610 O   0  0  0  0  0  0  0  0  0  0  0  0
  -22.4960  -11.6470   22.8360 H   0  0  0  0  0  0  0  0  0  0  0  0
  -21.1190  -12.7080   22.9090 H   0  0  0  0  0  0  0  0  0  0  0  0
  -24.9070  -15.0790   20.4070 N   0  0  0  0  0  0  0  0  0  0  0  0
  -24.1500  -15.6860   20.7020 H   0  0  0  0  0  0  0  0  0  0  0  0
  -25.6790  -15.5880   19.9910 H   0  0  0  0  0  0  0  0  0  0  0  0
  -31.4130  -15.4820   22.7300 C   0  0  0  0  0  1  0  0  0  0  0  0
  -31.9610  -16.3080   21.7110 O   0  0  0  0  0  0  0  0  0  0  0  0
  -28.2580  -20.4700   20.2530 C   0  0  0  0  0  2  0  0  0  0  0  0
  -28.7980  -21.7700   19.7530 N   0  0  0  0  0  4  0  0  0  0  0  0
  -28.9620  -21.6820   18.7620 H   0  0  0  0  0  0  0  0  0  0  0  0
  -29.6820  -21.9440   20.1980 H   0  0  0  0  0  0  0  0  0  0  0  0
  -27.8950  -22.9290   20.0160 C   0  0  0  0  0  2  0  0  0  0  0  0
  -28.3230  -24.2910   19.3880 C   0  0  0  0  0  2  0  0  0  0  0  0
  -27.4740  -25.4680   19.9390 C   0  0  0  0  0  2  0  0  0  0  0  0
  -27.5970  -26.7250   19.2340 O   0  0  0  0  0  0  0  0  0  0  0  0
  -24.5200  -31.7620   23.2460 C   0  0  0  0  0  0  0  0  0  0  0  0
  -26.5160  -27.5680   19.4150 C   0  0  0  0  0  0  0  0  0  0  0  0
  -23.0550  -30.6230   21.6120 C   0  0  0  0  0  3  0  0  0  0  0  0
  -24.2420  -29.1960   19.8630 C   0  0  0  0  0  0  0  0  0  0  0  0
  -25.5610  -30.8740   21.1600 C   0  0  0  0  0  2  0  0  0  0  0  0
  -25.4900  -29.5840   20.3660 C   0  0  0  0  0  0  0  0  0  0  0  0
  -26.6350  -28.7780   20.1390 C   0  0  0  0  0  3  0  0  0  0  0  0
  -25.2550  -27.2140   18.8880 C   0  0  0  0  0  3  0  0  0  0  0  0
  -24.1190  -28.0120   19.1180 C   0  0  0  0  0  3  0  0  0  0  0  0
  -23.0650  -30.1020   20.1520 C   0  0  0  0  0  2  0  0  0  0  0  0
  -24.4040  -31.0930   22.0630 N   0  0  0  0  0  0  0  0  0  0  0  0
  -23.5250  -32.0200   23.9370 O   0  0  0  0  0  0  0  0  0  0  0  0
  -22.4500  -29.5310   22.5240 C   0  0  0  0  0  0  0  0  0  0  0  0
  -21.1240  -29.3340   22.4280 N   0  0  0  0  0  0  0  0  0  0  0  0
  -23.1690  -28.8660   23.2740 O   0  0  0  0  0  0  0  0  0  0  0  0
  -20.6030  -29.9300   21.8000 H   0  0  0  0  0  0  0  0  0  0  0  0
  -17.8050  -27.9700   22.8640 C   0  0  0  0  0  0  0  0  0  0  0  0
  -20.3460  -28.3340   23.1620 C   0  0  0  0  0  3  0  0  0  0  0  0
  -20.5170  -26.9290   22.5390 C   0  0  0  0  0  2  0  0  0  0  0  0
  -19.4380  -26.5900   21.5080 C   0  0  0  0  0  2  0  0  0  0  0  0
  -18.0470  -26.6530   22.1460 C   0  0  0  0  0  2  0  0  0  0  0  0
  -18.8860  -28.7670   23.3270 C   0  0  0  0  0  0  0  0  0  0  0  0
  -18.6090  -29.9990   23.9580 C   0  0  0  0  0  3  0  0  0  0  0  0
  -17.2830  -30.4370   24.1310 C   0  0  0  0  0  3  0  0  0  0  0  0
  -16.2160  -29.6380   23.6850 C   0  0  0  0  0  3  0  0  0  0  0  0
  -16.4770  -28.4070   23.0580 C   0  0  0  0  0  3  0  0  0  0  0  0
  -25.9050  -32.2520   23.7750 C   0  0  0  0  0  3  0  0  0  0  0  0
  -25.7460  -33.6500   24.1950 N   0  0  0  0  0  0  0  0  0  0  0  0
  -26.1200  -34.7110   23.4660 C   0  0  0  0  0  0  0  0  0  0  0  0
  -26.7060  -34.6070   22.3850 O   0  0  0  0  0  0  0  0  0  0  0  0
  -25.2250  -33.8130   25.0440 H   0  0  0  0  0  0  0  0  0  0  0  0
  -24.5500  -36.6700   23.3150 C   0  0  0  0  0  1  0  0  0  0  0  0
  -25.7920  -36.1090   24.0250 C   0  0  0  0  0  3  0  0  0  0  0  0
  -28.0410  -36.7510   24.7710 C   0  0  0  0  0  1  0  0  0  0  0  0
  -26.9100  -37.0680   23.9040 N   0  0  0  0  0  0  0  0  0  0  0  0
  -26.6000  -38.0120   24.1210 H   0  0  0  0  0  0  0  0  0  0  0  0
  -26.4650  -31.3720   24.9600 C   0  0  1  0  0  0  0  0  0  0  0  0
  -25.4310  -31.1060   26.0800 C   0  0  0  0  0  1  0  0  0  0  0  0
  -26.9560  -30.0030   24.4380 C   0  0  0  0  0  1  0  0  0  0  0  0
  -27.6930  -32.0670   25.5940 C   0  0  0  0  0  1  0  0  0  0  0  0
  1  2  1  0
  2  7  1  0
  3  1  2  0
  4  5  1  0
  5  2  2  0
  5 48  1  0
  6  3  1  0
  6  4  2  0
  8  6  1  0
  9 17  1  0
 10 15  1  0
 11 12  1  0
 11 10  1  0
 13 12  1  0
 13 22  1  0
 13 14  1  0
 15  9  1  0
 15 14  1  0
 16  9  2  0
 17  4  1  0
 17 18  1  0
 19 20  2  0
 20 39  1  0
 21 20  1  0
 21 24  1  0
 22 23  1  0
 22 19  1  0
 23 21  2  0
 24 25  1  0
 25 26  2  0
 27 30  1  0
 27 26  1  0
 28 27  2  0
 29 28  1  0
 29 24  2  0
 30 31  1  0
 31 36  2  0
 31 32  1  0
 32 33  2  0
 33 34  1  0
 34 38  1  0
 35 34  2  0
 36 35  1  0
 37 36  1  0
 39 40  1  0
 40 42  1  0
 40 43  1  0
 41 39  2  0
 44 19  1  0
 44 45  1  0
 46 44  1  0
 48 47  1  0
 49  3  1  0
 50 53  1  0
 50 52  1  0
 50 49  1  0
 51 50  1  0
 54 55  1  0
 54 53  1  0
 56 58  1  0
 56 55  1  0
 57 68  2  0
 58 63  1  0
 59 67  1  0
 59 69  1  0
 60 66  1  0
 60 62  1  0
 61 67  1  0
 62 61  1  0
 63 62  2  0
 64 65  1  0
 64 58  2  0
 65 60  2  0
 66 59  1  0
 67 57  1  0
 69 71  2  0
 70 69  1  0
 72 70  1  0
 73 82  2  0
 73 78  1  0
 74 70  1  0
 74 78  1  0
 75 74  1  0
 76 77  1  0
 76 75  1  0
 77 73  1  0
 78 79  2  0
 79 80  1  0
 81 80  2  0
 82 81  1  0
 83 57  1  0
 83 84  1  0
 83 93  1  0
 84 87  1  0
 85 89  1  0
 85 84  1  0
 86 85  2  0
 89 88  1  0
 91 89  1  0
 91 92  1  0
 91 90  1  0
 93 96  1  1
 93 94  1  0
 95 93  1  0
M  ISO  4   9 100  17 100  55 101  56 101
M  END
>  <TORSDO>  (90) 
F 22

>  <SCORE>  (90) 
-9.879

>  <name>  (90) 
89

>  <ligand_id>  (90) 
89

>  <original_smiles>  (90) 
[H]c1c([H])c([H])c2c(c1[H])C([H])([H])C([H])([H])C([H])([H])C2([H])N([H])C(=O)C1([H])N(C(=O)C([H])(N([H])C(=O)C([H])(N([H])C([H])([H])[H])C([H])([H])[H])C(C([H])([H])[H])(C([H])([H])[H])C([H])([H])[H])C([H])([H])c2c([H])c(OC([H])([H])C([H])([H])C([H])([H])[N+]([H])([H])C([H])([H])c3c([H])c(C([H])([H])[H])c(OC([H])([H])[H])c(N([H])C(=O)N4C([H])([H])C([H])([H])C([H])([H])C([H])(n5nc(-c6c([H])c([H])c(Oc7c([H])c([H])c(F)c([H])c7F)c([H])c6[H])c(C(=O)N([H])[H])c5N([H])[H])C4([H])[H])c3Cl)c([H])c([H])c2C1([H])[H]

>  <smiles>  (90) 
[H]c1c([H])c([H])c2c(c1[H])C([H])([H])C([H])([H])C([H])([H])C2([H])N([H])C(=O)C1([H])N(C(=O)C([H])(N([H])C(=O)C([H])(N([H])C([H])([H])[H])C([H])([H])[H])C(C([H])([H])[H])(C([H])([H])[H])C([H])([H])[H])C([H])([H])c2c([H])c(OC([H])([H])C([H])([H])C([H])([H])[N+]([H])([H])C([H])([H])c3c([H])c(C([H])([H])[H])c(OC([H])([H])[H])c(N([H])C(=O)N4C([H])([H])C([H])([H])C([H])([H])C([H])(n5nc(-c6c([H])c([H])c(Oc7c([H])c([H])c(F)c([H])c7F)c([H])c6[H])c(C(=O)N([H])[H])c5N([H])[H])C4([H])[H])c3Cl)c([H])c([H])c2C1([H])[H]

$$$$
90:0:0
     RDKit          3D

 92100  0  0  1  0  0  0  0  0999 V2000
  -29.8900  -21.1360   19.5790 C   0  0  0  0  0  2  0  0  0  0  0  0
  -30.2490  -19.3120   21.5080 C   0  0  0  0  0  3  0  0  0  0  0  0
  -30.1090  -19.6490   20.1830 C   0  0  0  0  0  0  0  0  0  0  0  0
  -30.2290  -18.3400   19.4970 C   0  0  0  0  0  0  0  0  0  0  0  0
  -30.4140  -17.3100   20.4280 C   0  0  0  0  0  0  0  0  0  0  0  0
  -30.1300  -18.1200   18.0110 C   0  0  0  0  0  1  0  0  0  0  0  0
  -30.5560  -17.2650   22.9530 C   0  0  0  0  0  1  0  0  0  0  0  0
  -30.4190  -17.9330   21.6690 N   0  0  0  0  0  0  0  0  0  0  0  0
  -31.1700  -14.8280   19.9700 C   0  0  0  0  0  0  0  0  0  0  0  0
  -30.9630  -12.5220   18.9800 C   0  0  0  0  0  2  0  0  0  0  0  0
  -29.9690  -12.5710   17.7960 C   0  0  0  0  0  2  0  0  0  0  0  0
  -28.5160  -12.4130   18.2870 C   0  0  0  0  0  2  0  0  0  0  0  0
  -28.2000  -13.3260   19.5000 C   0  0  0  0  0  3  0  0  0  0  0  0
  -29.2990  -13.2210   20.5810 C   0  0  0  0  0  2  0  0  0  0  0  0
  -30.5750  -13.5800   19.9430 N   0  0  0  0  0  0  0  0  0  0  0  0
  -32.3260  -14.9610   19.5520 O   0  0  0  0  0  0  0  0  0  0  0  0
  -30.3440  -15.8990   20.3180 N   0  0  0  0  0  0  0  0  0  0  0  0
  -29.4780  -15.5340   20.6840 H   0  0  0  0  0  0  0  0  0  0  0  0
  -25.8670  -13.9850   20.3380 C   0  0  0  0  0  0  0  0  0  0  0  0
  -24.7910  -13.2420   20.7420 C   0  0  0  0  0  0  0  0  0  0  0  0
  -25.2070  -11.8770   20.6720 C   0  0  0  0  0  0  0  0  0  0  0  0
  -26.8690  -13.0750   20.0420 N   0  0  0  0  0  0  0  0  0  0  0  0
  -26.4810  -11.8020   20.3060 N   0  0  0  0  0  0  0  0  0  0  0  0
  -24.4470  -10.6370   20.8750 C   0  0  0  0  0  0  0  0  0  0  0  0
  -24.8400   -9.6790   21.8360 C   0  0  0  0  0  3  0  0  0  0  0  0
  -24.0810   -8.5030   22.0260 C   0  0  0  0  0  3  0  0  0  0  0  0
  -22.9170   -8.2780   21.2550 C   0  0  0  0  0  0  0  0  0  0  0  0
  -22.5420   -9.2230   20.2830 C   0  0  0  0  0  3  0  0  0  0  0  0
  -23.3010  -10.3900   20.0920 C   0  0  0  0  0  3  0  0  0  0  0  0
  -22.1330   -7.1530   21.3520 O   0  0  0  0  0  0  0  0  0  0  0  0
  -21.9770   -6.4860   22.5420 C   0  0  0  0  0  0  0  0  0  0  0  0
  -21.4570   -7.1200   23.6900 C   0  0  0  0  0  3  0  0  0  0  0  0
  -21.2490   -6.3790   24.8710 C   0  0  0  0  0  3  0  0  0  0  0  0
  -21.5520   -5.0050   24.9020 C   0  0  0  0  0  0  0  0  0  0  0  0
  -22.0650   -4.3700   23.7570 C   0  0  0  0  0  3  0  0  0  0  0  0
  -22.2740   -5.1090   22.5800 C   0  0  0  0  0  0  0  0  0  0  0  0
  -22.7500   -4.4880   21.4720 F   0  0  0  0  0  0  0  0  0  0  0  0
  -21.3450   -4.2900   26.0330 F   0  0  0  0  0  0  0  0  0  0  0  0
  -23.4250  -13.7620   21.0810 C   0  0  0  0  0  0  0  0  0  0  0  0
  -22.7160  -13.0860   21.9790 N   0  0  0  0  0  0  0  0  0  0  0  0
  -22.9940  -14.8020   20.5830 O   0  0  0  0  0  0  0  0  0  0  0  0
  -23.0750  -12.2430   22.4000 H   0  0  0  0  0  0  0  0  0  0  0  0
  -21.8000  -13.4160   22.2460 H   0  0  0  0  0  0  0  0  0  0  0  0
  -26.0690  -15.3530   20.1730 N   0  0  0  0  0  0  0  0  0  0  0  0
  -25.3250  -16.0270   20.3190 H   0  0  0  0  0  0  0  0  0  0  0  0
  -26.9080  -15.7700   19.7910 H   0  0  0  0  0  0  0  0  0  0  0  0
  -29.2300  -23.6780   19.9660 C   0  0  0  0  0  0  0  0  0  0  0  0
  -29.2150  -22.3190   20.3060 N   0  0  0  0  0  0  0  0  0  0  0  0
  -29.9190  -24.0460   19.0110 O   0  0  0  0  0  0  0  0  0  0  0  0
  -28.6400  -22.0700   21.1020 H   0  0  0  0  0  0  0  0  0  0  0  0
  -28.3740  -24.8140   20.7450 C   0  0  0  0  0  2  0  0  0  0  0  0
  -28.6190  -26.2900   20.4570 O   0  0  0  0  0  0  0  0  0  0  0  0
  -24.6980  -31.7880   23.2490 C   0  0  0  0  0  0  0  0  0  0  0  0
  -27.5100  -27.1790   20.3810 C   0  0  0  0  0  0  0  0  0  0  0  0
  -23.5900  -30.3490   21.5780 C   0  0  0  0  0  3  0  0  0  0  0  0
  -25.1280  -28.7970   20.2370 C   0  0  0  0  0  0  0  0  0  0  0  0
  -26.1350  -30.6960   21.4990 C   0  0  0  0  0  2  0  0  0  0  0  0
  -26.2680  -29.3040   20.8730 C   0  0  0  0  0  0  0  0  0  0  0  0
  -27.4650  -28.5110   20.9270 C   0  0  0  0  0  3  0  0  0  0  0  0
  -26.3470  -26.7460   19.7100 C   0  0  0  0  0  3  0  0  0  0  0  0
  -25.1740  -27.5270   19.6430 C   0  0  0  0  0  3  0  0  0  0  0  0
  -23.8760  -29.6570   20.2200 C   0  0  0  0  0  2  0  0  0  0  0  0
  -24.8240  -30.9650   22.1650 N   0  0  0  0  0  0  0  0  0  0  0  0
  -23.5880  -32.0520   23.7350 O   0  0  0  0  0  0  0  0  0  0  0  0
  -22.9010  -29.3360   22.5250 C   0  0  0  0  0  0  0  0  0  0  0  0
  -21.5780  -29.1540   22.3650 N   0  0  0  0  0  0  0  0  0  0  0  0
  -23.5580  -28.7160   23.3650 O   0  0  0  0  0  0  0  0  0  0  0  0
  -21.1060  -29.7040   21.6610 H   0  0  0  0  0  0  0  0  0  0  0  0
  -18.1930  -27.9450   22.7910 C   0  0  0  0  0  0  0  0  0  0  0  0
  -20.7450  -28.2140   23.1180 C   0  0  0  0  0  3  0  0  0  0  0  0
  -20.8640  -26.7820   22.5440 C   0  0  0  0  0  2  0  0  0  0  0  0
  -19.7860  -26.4560   21.5060 C   0  0  0  0  0  2  0  0  0  0  0  0
  -18.3890  -26.5970   22.1180 C   0  0  0  0  0  2  0  0  0  0  0  0
  -19.3000  -28.7110   23.2470 C   0  0  0  0  0  0  0  0  0  0  0  0
  -19.0630  -29.9710   23.8370 C   0  0  0  0  0  3  0  0  0  0  0  0
  -17.7520  -30.4680   23.9740 C   0  0  0  0  0  3  0  0  0  0  0  0
  -16.6610  -29.6980   23.5350 C   0  0  0  0  0  3  0  0  0  0  0  0
  -16.8820  -28.4390   22.9500 C   0  0  0  0  0  3  0  0  0  0  0  0
  -25.9400  -32.4560   23.9150 C   0  0  0  0  0  3  0  0  0  0  0  0
  -26.4150  -31.7120   25.2250 C   0  0  1  0  0  0  0  0  0  0  0  0
  -25.2760  -31.4530   26.2390 C   0  0  0  0  0  1  0  0  0  0  0  0
  -27.0560  -30.3490   24.8790 C   0  0  0  0  0  1  0  0  0  0  0  0
  -27.5070  -32.5470   25.9340 C   0  0  0  0  0  1  0  0  0  0  0  0
  -25.5910  -33.8520   24.2140 N   0  0  0  0  0  0  0  0  0  0  0  0
  -25.9290  -34.9020   23.4540 C   0  0  0  0  0  0  0  0  0  0  0  0
  -26.6350  -34.7990   22.4480 O   0  0  0  0  0  0  0  0  0  0  0  0
  -24.9680  -34.0040   24.9940 H   0  0  0  0  0  0  0  0  0  0  0  0
  -24.1780  -36.6540   23.0240 C   0  0  0  0  0  1  0  0  0  0  0  0
  -25.4010  -36.2870   23.8770 C   0  0  0  0  0  3  0  0  0  0  0  0
  -27.4940  -37.2250   24.7560 C   0  0  0  0  0  1  0  0  0  0  0  0
  -26.4150  -37.3610   23.7810 N   0  0  0  0  0  0  0  0  0  0  0  0
  -25.9860  -38.2730   23.9090 H   0  0  0  0  0  0  0  0  0  0  0  0
  1  3  1  0
  1 48  1  0
  2  8  1  0
  3  2  2  0
  4  3  1  0
  4  5  2  0
  5  8  1  0
  6  4  1  0
  8  7  1  0
  9 17  1  0
 10 15  1  0
 11 12  1  0
 11 10  1  0
 13 12  1  0
 13 22  1  0
 13 14  1  0
 15  9  1  0
 15 14  1  0
 16  9  2  0
 17  5  1  0
 17 18  1  0
 19 20  2  0
 20 39  1  0
 21 20  1  0
 21 24  1  0
 22 23  1  0
 22 19  1  0
 23 21  2  0
 24 25  1  0
 25 26  2  0
 27 30  1  0
 27 26  1  0
 28 27  2  0
 29 28  1  0
 29 24  2  0
 30 31  1  0
 31 36  2  0
 31 32  1  0
 32 33  2  0
 33 34  1  0
 34 38  1  0
 35 34  2  0
 36 35  1  0
 37 36  1  0
 39 40  1  0
 40 43  1  0
 40 42  1  0
 41 39  2  0
 44 45  1  0
 44 19  1  0
 46 44  1  0
 47 48  1  0
 47 51  1  0
 48 50  1  0
 49 47  2  0
 52 51  1  0
 53 64  2  0
 54 52  1  0
 54 59  1  0
 55 63  1  0
 55 65  1  0
 56 58  1  0
 57 63  1  0
 58 59  2  0
 58 57  1  0
 60 54  2  0
 61 60  1  0
 61 56  2  0
 62 56  1  0
 62 55  1  0
 63 53  1  0
 65 67  2  0
 66 65  1  0
 68 66  1  0
 69 78  2  0
 69 74  1  0
 70 66  1  0
 70 74  1  0
 71 70  1  0
 72 73  1  0
 72 71  1  0
 73 69  1  0
 74 75  2  0
 75 76  1  0
 77 76  2  0
 78 77  1  0
 79 53  1  0
 79 84  1  0
 79 80  1  0
 80 83  1  1
 80 81  1  0
 82 80  1  0
 84 87  1  0
 85 89  1  0
 85 84  1  0
 86 85  2  0
 89 88  1  0
 91 89  1  0
 91 92  1  0
 91 90  1  0
M  ISO  4   9 100  17 100  51 101  52 101
M  END
>  <TORSDO>  (91) 
F 19

>  <SCORE>  (91) 
-13.255

>  <name>  (91) 
90

>  <ligand_id>  (91) 
90

>  <original_smiles>  (91) 
[H]c1c([H])c([H])c2c(c1[H])C([H])([H])C([H])([H])C([H])([H])C2([H])N([H])C(=O)C1([H])N(C(=O)C([H])(N([H])C(=O)C([H])(N([H])C([H])([H])[H])C([H])([H])[H])C(C([H])([H])[H])(C([H])([H])[H])C([H])([H])[H])C([H])([H])c2c([H])c(OC([H])([H])C(=O)N([H])C([H])([H])c3c(C([H])([H])[H])c(N([H])C(=O)N4C([H])([H])C([H])([H])C([H])([H])C([H])(n5nc(-c6c([H])c([H])c(Oc7c([H])c([H])c(F)c([H])c7F)c([H])c6[H])c(C(=O)N([H])[H])c5N([H])[H])C4([H])[H])n(C([H])([H])[H])c3[H])c([H])c([H])c2C1([H])[H]

>  <smiles>  (91) 
[H]c1c([H])c([H])c2c(c1[H])C([H])([H])C([H])([H])C([H])([H])C2([H])N([H])C(=O)C1([H])N(C(=O)C([H])(N([H])C(=O)C([H])(N([H])C([H])([H])[H])C([H])([H])[H])C(C([H])([H])[H])(C([H])([H])[H])C([H])([H])[H])C([H])([H])c2c([H])c(OC([H])([H])C(=O)N([H])C([H])([H])c3c(C([H])([H])[H])c(N([H])C(=O)N4C([H])([H])C([H])([H])C([H])([H])C([H])(n5nc(-c6c([H])c([H])c(Oc7c([H])c([H])c(F)c([H])c7F)c([H])c6[H])c(C(=O)N([H])[H])c5N([H])[H])C4([H])[H])n(C([H])([H])[H])c3[H])c([H])c([H])c2C1([H])[H]

$$$$
91:0:0
     RDKit          3D

 82 86  0  0  1  0  0  0  0  0999 V2000
  -28.2050  -25.2050   20.1810 O   0  0  0  0  0  1  0  0  0  0  0  0
  -24.6630  -31.8080   23.1260 C   0  0  0  0  0  0  0  0  0  0  0  0
  -27.2220  -26.5040   20.2220 C   0  0  0  0  0  0  0  0  0  0  0  0
  -23.4970  -30.3850   21.5020 C   0  0  0  0  0  3  0  0  0  0  0  0
  -24.9590  -28.6800   20.1340 C   0  0  0  0  0  0  0  0  0  0  0  0
  -26.0880  -30.4680   21.4190 C   0  0  0  0  0  2  0  0  0  0  0  0
  -26.1600  -29.0030   20.7770 C   0  0  0  0  0  0  0  0  0  0  0  0
  -27.2650  -27.9550   20.7750 C   0  0  0  0  0  3  0  0  0  0  0  0
  -25.9780  -26.4560   19.5220 C   0  0  0  0  0  3  0  0  0  0  0  0
  -24.9220  -27.4330   19.4830 C   0  0  0  0  0  3  0  0  0  0  0  0
  -23.7610  -29.6570   20.1490 C   0  0  0  0  0  2  0  0  0  0  0  0
  -24.7760  -30.9260   22.0670 N   0  0  0  0  0  0  0  0  0  0  0  0
  -23.5610  -32.1170   23.6170 O   0  0  0  0  0  0  0  0  0  0  0  0
  -22.7590  -29.4350   22.4830 C   0  0  0  0  0  0  0  0  0  0  0  0
  -21.4230  -29.2990   22.3640 N   0  0  0  0  0  0  0  0  0  0  0  0
  -23.4070  -28.8130   23.3290 O   0  0  0  0  0  0  0  0  0  0  0  0
  -20.9470  -29.8480   21.6620 H   0  0  0  0  0  0  0  0  0  0  0  0
  -18.0300  -28.1040   22.9050 C   0  0  0  0  0  0  0  0  0  0  0  0
  -20.5940  -28.3680   23.1430 C   0  0  0  0  0  3  0  0  0  0  0  0
  -20.6850  -26.9330   22.5730 C   0  0  0  0  0  2  0  0  0  0  0  0
  -19.5770  -26.6140   21.5660 C   0  0  0  0  0  2  0  0  0  0  0  0
  -18.1990  -26.7580   22.2190 C   0  0  0  0  0  2  0  0  0  0  0  0
  -19.1530  -28.8670   23.3230 C   0  0  0  0  0  0  0  0  0  0  0  0
  -18.9380  -30.1230   23.9300 C   0  0  0  0  0  3  0  0  0  0  0  0
  -17.6340  -30.6180   24.1200 C   0  0  0  0  0  3  0  0  0  0  0  0
  -16.5260  -29.8540   23.7130 C   0  0  0  0  0  3  0  0  0  0  0  0
  -16.7250  -28.5990   23.1120 C   0  0  0  0  0  3  0  0  0  0  0  0
  -25.9100  -32.4810   23.7750 C   0  0  0  0  0  3  0  0  0  0  0  0
  -25.5650  -33.8790   24.1160 N   0  0  0  0  0  0  0  0  0  0  0  0
  -25.8860  -34.9580   23.3920 C   0  0  0  0  0  0  0  0  0  0  0  0
  -26.5550  -34.8840   22.3590 O   0  0  0  0  0  0  0  0  0  0  0  0
  -24.9630  -34.0060   24.9160 H   0  0  0  0  0  0  0  0  0  0  0  0
  -24.1370  -36.7510   23.1000 C   0  0  0  0  0  1  0  0  0  0  0  0
  -25.3920  -36.3360   23.8840 C   0  0  0  0  0  3  0  0  0  0  0  0
  -27.5270  -37.2420   24.7020 C   0  0  0  0  0  1  0  0  0  0  0  0
  -26.4110  -37.4050   23.7740 N   0  0  0  0  0  0  0  0  0  0  0  0
  -25.9940  -38.3170   23.9380 H   0  0  0  0  0  0  0  0  0  0  0  0
  -26.4070  -31.7320   25.0750 C   0  0  1  0  0  0  0  0  0  0  0  0
  -25.2940  -31.5040   26.1250 C   0  0  0  0  0  1  0  0  0  0  0  0
  -27.0060  -30.3500   24.7310 C   0  0  0  0  0  1  0  0  0  0  0  0
  -27.5440  -32.5410   25.7410 C   0  0  0  0  0  1  0  0  0  0  0  0
  -28.2600  -23.3270   20.4490 C   0  0  0  0  0 15  0  0  0  0  0  0
  -28.8130  -21.3740   19.8690 C   0  0  0  0  0 15  0  0  0  0  0  0
  -29.3900  -19.4240   20.4190 C   0  0  0  0  0  1  0  0  0  0  0  0
  -30.1320  -16.0760   20.0710 C   0  0  0  0  0  0  0  0  0  0  0  0
  -30.3210  -13.4470   19.2590 C   0  0  0  0  0  2  0  0  0  0  0  0
  -29.4440  -12.8330   18.1190 C   0  0  0  0  0  2  0  0  0  0  0  0
  -28.0700  -12.3920   18.6390 C   0  0  0  0  0  2  0  0  0  0  0  0
  -27.5180  -13.4260   19.6370 C   0  0  0  0  0  3  0  0  0  0  0  0
  -28.5530  -13.9140   20.6890 C   0  0  0  0  0  2  0  0  0  0  0  0
  -29.6300  -14.6560   19.9560 N   0  0  0  0  0  0  0  0  0  0  0  0
  -31.3780  -15.9210   20.0610 O   0  0  0  0  0  0  0  0  0  0  0  0
  -28.1020  -17.4350   19.3330 C   0  0  0  0  0  1  0  0  0  0  0  0
  -29.3880  -17.5580   20.0160 N   0  0  0  0  0  0  0  0  0  0  0  0
  -25.1830  -13.9270   20.4730 C   0  0  0  0  0  0  0  0  0  0  0  0
  -24.1320  -13.1430   20.8550 C   0  0  0  0  0  0  0  0  0  0  0  0
  -24.6060  -11.7950   20.8040 C   0  0  0  0  0  0  0  0  0  0  0  0
  -26.2260  -13.0640   20.2030 N   0  0  0  0  0  0  0  0  0  0  0  0
  -25.8940  -11.7710   20.4640 N   0  0  0  0  0  0  0  0  0  0  0  0
  -23.8800  -10.5310   21.0000 C   0  0  0  0  0  0  0  0  0  0  0  0
  -24.3230   -9.5560   21.9210 C   0  0  0  0  0  3  0  0  0  0  0  0
  -23.5910   -8.3620   22.1070 C   0  0  0  0  0  3  0  0  0  0  0  0
  -22.4020   -8.1360   21.3740 C   0  0  0  0  0  0  0  0  0  0  0  0
  -21.9770   -9.1010   20.4430 C   0  0  0  0  0  3  0  0  0  0  0  0
  -22.7110  -10.2850   20.2540 C   0  0  0  0  0  3  0  0  0  0  0  0
  -21.6420   -6.9940   21.4690 O   0  0  0  0  0  0  0  0  0  0  0  0
  -21.6130   -6.2440   22.6170 C   0  0  0  0  0  0  0  0  0  0  0  0
  -21.2160   -6.7910   23.8560 C   0  0  0  0  0  3  0  0  0  0  0  0
  -21.1320   -5.9670   24.9970 C   0  0  0  0  0  3  0  0  0  0  0  0
  -21.4380   -4.5960   24.8990 C   0  0  0  0  0  0  0  0  0  0  0  0
  -21.8300   -4.0480   23.6650 C   0  0  0  0  0  3  0  0  0  0  0  0
  -21.9140   -4.8690   22.5270 C   0  0  0  0  0  0  0  0  0  0  0  0
  -22.2710   -4.3300   21.3360 F   0  0  0  0  0  0  0  0  0  0  0  0
  -21.3530   -3.8020   25.9920 F   0  0  0  0  0  0  0  0  0  0  0  0
  -22.7400  -13.6190   21.1450 C   0  0  0  0  0  0  0  0  0  0  0  0
  -22.0220  -12.9210   22.0180 N   0  0  0  0  0  0  0  0  0  0  0  0
  -22.3000  -14.6470   20.6350 O   0  0  0  0  0  0  0  0  0  0  0  0
  -22.3880  -12.0890   22.4530 H   0  0  0  0  0  0  0  0  0  0  0  0
  -21.0890  -13.2290   22.2540 H   0  0  0  0  0  0  0  0  0  0  0  0
  -25.3360  -15.2990   20.2950 N   0  0  0  0  0  0  0  0  0  0  0  0
  -24.5650  -15.9500   20.3980 H   0  0  0  0  0  0  0  0  0  0  0  0
  -26.1710  -15.7290   19.9240 H   0  0  0  0  0  0  0  0  0  0  0  0
  1  3  1  0
  2 13  2  0
  3  8  1  0
  4 12  1  0
  4 14  1  0
  5 11  1  0
  5  7  1  0
  6 12  1  0
  7  6  1  0
  8  7  2  0
  9  3  2  0
 10  9  1  0
 10  5  2  0
 11  4  1  0
 12  2  1  0
 14 16  2  0
 15 14  1  0
 17 15  1  0
 18 27  2  0
 18 23  1  0
 19 15  1  0
 19 23  1  0
 20 19  1  0
 21 22  1  0
 21 20  1  0
 22 18  1  0
 23 24  2  0
 24 25  1  0
 26 25  2  0
 27 26  1  0
 28  2  1  0
 28 29  1  0
 28 38  1  0
 29 32  1  0
 30 34  1  0
 30 29  1  0
 31 30  2  0
 34 33  1  0
 36 34  1  0
 36 37  1  0
 36 35  1  0
 38 41  1  1
 38 39  1  0
 40 38  1  0
 46 51  1  0
 47 48  1  0
 47 46  1  0
 49 48  1  0
 49 58  1  0
 49 50  1  0
 51 45  1  0
 51 50  1  0
 52 45  2  0
 53 54  1  0
 54 45  1  0
 54 44  1  0
 55 56  2  0
 56 75  1  0
 57 56  1  0
 57 60  1  0
 58 59  1  0
 58 55  1  0
 59 57  2  0
 60 61  1  0
 61 62  2  0
 63 66  1  0
 63 62  1  0
 64 63  2  0
 65 64  1  0
 65 60  2  0
 66 67  1  0
 67 68  1  0
 68 69  2  0
 70 69  1  0
 70 74  1  0
 71 70  2  0
 72 67  2  0
 72 71  1  0
 73 72  1  0
 75 76  1  0
 76 79  1  0
 76 78  1  0
 77 75  2  0
 80 81  1  0
 80 55  1  0
 82 80  1  0
M  ISO  4   1 101  42 101  45 100  54 100
M  END
>  <TORSDO>  (92) 
F 18

>  <SCORE>  (92) 
-16.265

>  <name>  (92) 
91

>  <ligand_id>  (92) 
91

>  <original_smiles>  (92) 
[H]c1c([H])c([H])c2c(c1[H])C([H])([H])C([H])([H])C([H])([H])C2([H])N([H])C(=O)C1([H])N(C(=O)C([H])(N([H])C(=O)C([H])(N([H])C([H])([H])[H])C([H])([H])[H])C(C([H])([H])[H])(C([H])([H])[H])C([H])([H])[H])C([H])([H])c2c([H])c(OC([H])([H])C([H])([H])C([H])([H])N(C(=O)N3C([H])([H])C([H])([H])C([H])([H])C([H])(n4nc(-c5c([H])c([H])c(Oc6c([H])c([H])c(F)c([H])c6F)c([H])c5[H])c(C(=O)N([H])[H])c4N([H])[H])C3([H])[H])C([H])([H])[H])c([H])c([H])c2C1([H])[H]

>  <smiles>  (92) 
[H]c1c([H])c([H])c2c(c1[H])C([H])([H])C([H])([H])C([H])([H])C2([H])N([H])C(=O)C1([H])N(C(=O)C([H])(N([H])C(=O)C([H])(N([H])C([H])([H])[H])C([H])([H])[H])C(C([H])([H])[H])(C([H])([H])[H])C([H])([H])[H])C([H])([H])c2c([H])c(OC([H])([H])C([H])([H])C([H])([H])N(C(=O)N3C([H])([H])C([H])([H])C([H])([H])C([H])(n4nc(-c5c([H])c([H])c(Oc6c([H])c([H])c(F)c([H])c6F)c([H])c5[H])c(C(=O)N([H])[H])c4N([H])[H])C3([H])[H])C([H])([H])[H])c([H])c([H])c2C1([H])[H]

$$$$
92:0:0
     RDKit          3D

 94102  0  0  1  0  0  0  0  0999 V2000
  -29.9480  -21.1200   20.4340 C   0  0  0  0  0  2  0  0  0  0  0  0
  -30.2420  -18.3990   20.7850 C   0  0  0  0  0  3  0  0  0  0  0  0
  -29.6210  -19.5820   20.1350 C   0  0  0  0  0  0  0  0  0  0  0  0
  -28.7320  -19.1190   19.1810 C   0  0  0  0  0  0  0  0  0  0  0  0
  -29.8780  -17.1160   20.3240 C   0  0  0  0  0  0  0  0  0  0  0  0
  -28.7420  -17.3640   19.0280 S   0  0  0  0  0  0  0  0  0  0  0  0
  -30.7650  -14.7260   20.2890 C   0  0  0  0  0  0  0  0  0  0  0  0
  -30.4970  -12.4410   19.2980 C   0  0  0  0  0  2  0  0  0  0  0  0
  -29.5790  -12.5530   18.0590 C   0  0  0  0  0  2  0  0  0  0  0  0
  -28.0980  -12.4470   18.4670 C   0  0  0  0  0  2  0  0  0  0  0  0
  -27.7500  -13.3490   19.6810 C   0  0  0  0  0  3  0  0  0  0  0  0
  -28.7920  -13.2070   20.8130 C   0  0  0  0  0  2  0  0  0  0  0  0
  -30.1140  -13.5100   20.2490 N   0  0  0  0  0  0  0  0  0  0  0  0
  -31.9070  -14.8380   19.8340 O   0  0  0  0  0  0  0  0  0  0  0  0
  -30.0770  -15.8120   20.8070 N   0  0  0  0  0  0  0  0  0  0  0  0
  -29.2590  -15.4610   21.2800 H   0  0  0  0  0  0  0  0  0  0  0  0
  -25.3820  -14.0400   20.3770 C   0  0  0  0  0  0  0  0  0  0  0  0
  -24.2850  -13.3090   20.7470 C   0  0  0  0  0  0  0  0  0  0  0  0
  -24.6960  -11.9430   20.7340 C   0  0  0  0  0  0  0  0  0  0  0  0
  -26.3920  -13.1180   20.1580 N   0  0  0  0  0  0  0  0  0  0  0  0
  -25.9870  -11.8530   20.4340 N   0  0  0  0  0  0  0  0  0  0  0  0
  -23.9220  -10.7100   20.9330 C   0  0  0  0  0  0  0  0  0  0  0  0
  -24.3420   -9.7110   21.8410 C   0  0  0  0  0  3  0  0  0  0  0  0
  -23.5680   -8.5440   22.0270 C   0  0  0  0  0  3  0  0  0  0  0  0
  -22.3620   -8.3690   21.3080 C   0  0  0  0  0  0  0  0  0  0  0  0
  -21.9620   -9.3550   20.3910 C   0  0  0  0  0  3  0  0  0  0  0  0
  -22.7340  -10.5140   20.2000 C   0  0  0  0  0  3  0  0  0  0  0  0
  -21.5610   -7.2560   21.4070 O   0  0  0  0  0  0  0  0  0  0  0  0
  -21.5560   -6.4710   22.5320 C   0  0  0  0  0  0  0  0  0  0  0  0
  -21.2510   -7.0010   23.8060 C   0  0  0  0  0  3  0  0  0  0  0  0
  -21.1840   -6.1470   24.9260 C   0  0  0  0  0  3  0  0  0  0  0  0
  -21.4130   -4.7650   24.7730 C   0  0  0  0  0  0  0  0  0  0  0  0
  -21.7130   -4.2360   23.5060 C   0  0  0  0  0  3  0  0  0  0  0  0
  -21.7810   -5.0870   22.3880 C   0  0  0  0  0  0  0  0  0  0  0  0
  -22.0480   -4.5680   21.1660 F   0  0  0  0  0  0  0  0  0  0  0  0
  -21.3430   -3.9440   25.8460 F   0  0  0  0  0  0  0  0  0  0  0  0
  -22.9060  -13.8420   21.0070 C   0  0  0  0  0  0  0  0  0  0  0  0
  -22.1590  -13.1970   21.8950 N   0  0  0  0  0  0  0  0  0  0  0  0
  -22.5020  -14.8660   20.4570 O   0  0  0  0  0  0  0  0  0  0  0  0
  -22.5020  -12.3690   22.3580 H   0  0  0  0  0  0  0  0  0  0  0  0
  -21.2320  -13.5350   22.1140 H   0  0  0  0  0  0  0  0  0  0  0  0
  -25.6030  -15.4000   20.1910 N   0  0  0  0  0  0  0  0  0  0  0  0
  -24.8720  -16.0920   20.3160 H   0  0  0  0  0  0  0  0  0  0  0  0
  -26.4780  -15.7990   19.8810 H   0  0  0  0  0  0  0  0  0  0  0  0
  -27.7550  -19.8710   18.3270 C   0  0  0  0  0  2  0  0  0  0  0  0
  -25.2930  -20.6010   18.1360 C   0  0  0  0  0  1  0  0  0  0  0  0
  -26.3130  -19.6970   18.8370 C   0  0  0  0  0  2  0  0  0  0  0  0
  -28.8770  -22.2320   20.3560 N   0  0  0  0  0  4  0  0  0  0  0  0
  -28.1570  -21.9850   21.0170 H   0  0  0  0  0  0  0  0  0  0  0  0
  -28.4680  -22.1420   19.4390 H   0  0  0  0  0  0  0  0  0  0  0  0
  -29.7450  -23.9810   21.9880 C   0  0  0  0  0  1  0  0  0  0  0  0
  -29.2460  -23.7370   20.5440 C   0  0  0  0  0  3  0  0  0  0  0  0
  -28.1190  -24.8460   20.1200 C   0  0  0  0  0  2  0  0  0  0  0  0
  -28.3280  -26.3430   20.1910 O   0  0  0  0  0  0  0  0  0  0  0  0
  -24.5400  -31.8100   23.1120 C   0  0  0  0  0  0  0  0  0  0  0  0
  -27.2100  -27.2150   20.1120 C   0  0  0  0  0  0  0  0  0  0  0  0
  -23.3530  -30.3830   21.4850 C   0  0  0  0  0  3  0  0  0  0  0  0
  -24.8220  -28.8340   20.0710 C   0  0  0  0  0  0  0  0  0  0  0  0
  -25.8890  -30.7260   21.2910 C   0  0  0  0  0  2  0  0  0  0  0  0
  -25.9900  -29.3380   20.6580 C   0  0  0  0  0  0  0  0  0  0  0  0
  -27.1840  -28.5450   20.6610 C   0  0  0  0  0  3  0  0  0  0  0  0
  -26.0100  -26.7790   19.5020 C   0  0  0  0  0  3  0  0  0  0  0  0
  -24.8390  -27.5630   19.4790 C   0  0  0  0  0  3  0  0  0  0  0  0
  -23.5770  -29.7010   20.1100 C   0  0  0  0  0  2  0  0  0  0  0  0
  -24.6120  -30.9950   22.0180 N   0  0  0  0  0  0  0  0  0  0  0  0
  -23.4550  -32.0760   23.6480 O   0  0  0  0  0  0  0  0  0  0  0  0
  -22.7030  -29.3670   22.4560 C   0  0  0  0  0  0  0  0  0  0  0  0
  -21.3770  -29.1840   22.3460 N   0  0  0  0  0  0  0  0  0  0  0  0
  -23.3920  -28.7470   23.2700 O   0  0  0  0  0  0  0  0  0  0  0  0
  -20.8780  -29.7330   21.6590 H   0  0  0  0  0  0  0  0  0  0  0  0
  -18.0110  -27.9640   22.8850 C   0  0  0  0  0  0  0  0  0  0  0  0
  -20.5700  -28.2460   23.1310 C   0  0  0  0  0  3  0  0  0  0  0  0
  -20.6800  -26.8130   22.5620 C   0  0  0  0  0  2  0  0  0  0  0  0
  -19.5720  -26.4760   21.5600 C   0  0  0  0  0  2  0  0  0  0  0  0
  -18.1940  -26.6130   22.2150 C   0  0  0  0  0  2  0  0  0  0  0  0
  -19.1280  -28.7380   23.3000 C   0  0  0  0  0  0  0  0  0  0  0  0
  -18.9010  -30.0010   23.8880 C   0  0  0  0  0  3  0  0  0  0  0  0
  -17.5940  -30.4910   24.0650 C   0  0  0  0  0  3  0  0  0  0  0  0
  -16.4920  -29.7160   23.6630 C   0  0  0  0  0  3  0  0  0  0  0  0
  -16.7030  -28.4550   23.0780 C   0  0  0  0  0  3  0  0  0  0  0  0
  -25.8160  -32.4670   23.7250 C   0  0  0  0  0  3  0  0  0  0  0  0
  -25.4780  -33.8540   24.0760 N   0  0  0  0  0  0  0  0  0  0  0  0
  -25.8070  -34.9270   23.3440 C   0  0  0  0  0  0  0  0  0  0  0  0
  -26.4950  -34.8530   22.3220 O   0  0  0  0  0  0  0  0  0  0  0  0
  -24.8670  -33.9850   24.8680 H   0  0  0  0  0  0  0  0  0  0  0  0
  -24.0620  -36.7060   22.9920 C   0  0  0  0  0  1  0  0  0  0  0  0
  -25.2920  -36.2980   23.8200 C   0  0  0  0  0  3  0  0  0  0  0  0
  -27.3960  -37.1930   24.7160 C   0  0  0  0  0  1  0  0  0  0  0  0
  -26.3110  -37.3680   23.7530 N   0  0  0  0  0  0  0  0  0  0  0  0
  -25.8900  -38.2780   23.9120 H   0  0  0  0  0  0  0  0  0  0  0  0
  -26.3650  -31.6930   24.9870 C   0  0  1  0  0  0  0  0  0  0  0  0
  -25.2920  -31.4230   26.0660 C   0  0  0  0  0  1  0  0  0  0  0  0
  -26.9700  -30.3300   24.5740 C   0  0  0  0  0  1  0  0  0  0  0  0
  -27.5090  -32.5030   25.6400 C   0  0  0  0  0  1  0  0  0  0  0  0
  3  1  1  0
  3  2  1  0
  4  3  2  0
  5  2  2  0
  5 15  1  0
  6  4  1  0
  6  5  1  0
  7 15  1  0
  8 13  1  0
  9 10  1  0
  9  8  1  0
 11 10  1  0
 11 20  1  0
 11 12  1  0
 13  7  1  0
 13 12  1  0
 14  7  2  0
 15 16  1  0
 17 18  2  0
 18 37  1  0
 19 18  1  0
 19 22  1  0
 20 17  1  0
 20 21  1  0
 21 19  2  0
 22 23  1  0
 23 24  2  0
 25 28  1  0
 25 24  1  0
 26 25  2  0
 27 26  1  0
 27 22  2  0
 28 29  1  0
 29 30  1  0
 30 31  2  0
 32 31  1  0
 32 36  1  0
 33 32  2  0
 34 29  2  0
 34 33  1  0
 35 34  1  0
 37 38  1  0
 38 41  1  0
 38 40  1  0
 39 37  2  0
 42 43  1  0
 42 17  1  0
 44 42  1  0
 45 47  1  0
 45  4  1  0
 46 47  1  0
 48  1  1  0
 48 52  1  0
 48 49  1  0
 50 48  1  0
 52 51  1  0
 53 54  1  0
 53 52  1  0
 55 66  2  0
 56 54  1  0
 56 61  1  0
 57 65  1  0
 57 67  1  0
 58 64  1  0
 58 60  1  0
 59 65  1  0
 60 61  2  0
 60 59  1  0
 62 56  2  0
 63 62  1  0
 63 58  2  0
 64 57  1  0
 65 55  1  0
 67 69  2  0
 68 67  1  0
 70 68  1  0
 71 80  2  0
 71 76  1  0
 72 68  1  0
 72 76  1  0
 73 72  1  0
 74 75  1  0
 74 73  1  0
 75 71  1  0
 76 77  2  0
 77 78  1  0
 79 78  2  0
 80 79  1  0
 81 55  1  0
 81 82  1  0
 81 91  1  0
 82 85  1  0
 83 87  1  0
 83 82  1  0
 84 83  2  0
 87 86  1  0
 89 87  1  0
 89 90  1  0
 89 88  1  0
 91 94  1  1
 91 92  1  0
 93 91  1  0
M  ISO  4   7 100  15 100  53 101  54 101
M  END
>  <TORSDO>  (93) 
F 22

>  <SCORE>  (93) 
-12.998

>  <name>  (93) 
92

>  <ligand_id>  (93) 
92

>  <original_smiles>  (93) 
[H]c1c([H])c([H])c2c(c1[H])C([H])([H])C([H])([H])C([H])([H])C2([H])N([H])C(=O)C1([H])N(C(=O)C([H])(N([H])C(=O)C([H])(N([H])C([H])([H])[H])C([H])([H])[H])C(C([H])([H])[H])(C([H])([H])[H])C([H])([H])[H])C([H])([H])c2c([H])c(OC([H])([H])C([H])(C([H])([H])[H])[N+]([H])([H])C([H])([H])c3c(C([H])([H])C([H])([H])C([H])([H])[H])sc(N([H])C(=O)N4C([H])([H])C([H])([H])C([H])([H])C([H])(n5nc(-c6c([H])c([H])c(Oc7c([H])c([H])c(F)c([H])c7F)c([H])c6[H])c(C(=O)N([H])[H])c5N([H])[H])C4([H])[H])c3[H])c([H])c([H])c2C1([H])[H]

>  <smiles>  (93) 
[H]c1c([H])c([H])c2c(c1[H])C([H])([H])C([H])([H])C([H])([H])C2([H])N([H])C(=O)C1([H])N(C(=O)C([H])(N([H])C(=O)C([H])(N([H])C([H])([H])[H])C([H])([H])[H])C(C([H])([H])[H])(C([H])([H])[H])C([H])([H])[H])C([H])([H])c2c([H])c(OC([H])([H])C([H])(C([H])([H])[H])[N+]([H])([H])C([H])([H])c3c(C([H])([H])C([H])([H])C([H])([H])[H])sc(N([H])C(=O)N4C([H])([H])C([H])([H])C([H])([H])C([H])(n5nc(-c6c([H])c([H])c(Oc7c([H])c([H])c(F)c([H])c7F)c([H])c6[H])c(C(=O)N([H])[H])c5N([H])[H])C4([H])[H])c3[H])c([H])c([H])c2C1([H])[H]

$$$$
93:0:0
     RDKit          3D

 96104  0  0  1  0  0  0  0  0999 V2000
  -31.2710  -18.0910   20.8230 C   0  0  0  0  0  3  0  0  0  0  0  0
  -29.2680  -20.1010   20.2220 C   0  0  0  0  0  0  0  0  0  0  0  0
  -29.9830  -17.6280   20.4910 C   0  0  0  0  0  0  0  0  0  0  0  0
  -31.5600  -19.4660   20.9290 C   0  0  0  0  0  0  0  0  0  0  0  0
  -28.9920  -18.6590   20.1960 C   0  0  0  0  0  0  0  0  0  0  0  0
  -30.5860  -20.4510   20.6440 C   0  0  0  0  0  0  0  0  0  0  0  0
  -27.3950  -18.1240   19.8070 Cl  0  0  0  0  0  0  0  0  0  0  0  0
  -31.0930  -22.0870   20.9140 Cl  0  0  0  0  0  0  0  0  0  0  0  0
  -30.5710  -15.0660   20.5710 C   0  0  0  0  0  0  0  0  0  0  0  0
  -30.5630  -12.6780   19.8340 C   0  0  0  0  0  2  0  0  0  0  0  0
  -29.7130  -12.5540   18.5510 C   0  0  0  0  0  2  0  0  0  0  0  0
  -28.2260  -12.3560   18.8980 C   0  0  0  0  0  2  0  0  0  0  0  0
  -27.7220  -13.3540   19.9800 C   0  0  0  0  0  3  0  0  0  0  0  0
  -28.7010  -13.4520   21.1690 C   0  0  0  0  0  2  0  0  0  0  0  0
  -30.0110  -13.8080   20.6130 N   0  0  0  0  0  0  0  0  0  0  0  0
  -31.7770  -15.1820   20.3420 O   0  0  0  0  0  0  0  0  0  0  0  0
  -29.7140  -16.1590   20.5220 N   0  0  0  0  0  0  0  0  0  0  0  0
  -28.7370  -15.9150   20.4880 H   0  0  0  0  0  0  0  0  0  0  0  0
  -25.2950  -13.9120   20.5890 C   0  0  0  0  0  0  0  0  0  0  0  0
  -24.2280  -13.1230   20.9200 C   0  0  0  0  0  0  0  0  0  0  0  0
  -24.7140  -11.7790   20.9210 C   0  0  0  0  0  0  0  0  0  0  0  0
  -26.3640  -13.0470   20.4120 N   0  0  0  0  0  0  0  0  0  0  0  0
  -26.0200  -11.7620   20.6770 N   0  0  0  0  0  0  0  0  0  0  0  0
  -23.9990  -10.5050   21.0850 C   0  0  0  0  0  0  0  0  0  0  0  0
  -24.3990   -9.5600   22.0560 C   0  0  0  0  0  3  0  0  0  0  0  0
  -23.6870   -8.3510   22.2110 C   0  0  0  0  0  3  0  0  0  0  0  0
  -22.5640   -8.0780   21.3950 C   0  0  0  0  0  0  0  0  0  0  0  0
  -22.1840   -9.0120   20.4140 C   0  0  0  0  0  3  0  0  0  0  0  0
  -22.8940  -10.2140   20.2590 C   0  0  0  0  0  3  0  0  0  0  0  0
  -21.8280   -6.9200   21.4570 O   0  0  0  0  0  0  0  0  0  0  0  0
  -21.7120   -6.2020   22.6200 C   0  0  0  0  0  0  0  0  0  0  0  0
  -21.1200   -6.7480   23.7800 C   0  0  0  0  0  3  0  0  0  0  0  0
  -20.9630   -5.9520   24.9320 C   0  0  0  0  0  3  0  0  0  0  0  0
  -21.3830   -4.6080   24.9210 C   0  0  0  0  0  0  0  0  0  0  0  0
  -21.9670   -4.0600   23.7660 C   0  0  0  0  0  3  0  0  0  0  0  0
  -22.1270   -4.8560   22.6180 C   0  0  0  0  0  0  0  0  0  0  0  0
  -22.6700   -4.3170   21.4990 F   0  0  0  0  0  0  0  0  0  0  0  0
  -21.2240   -3.8400   26.0260 F   0  0  0  0  0  0  0  0  0  0  0  0
  -22.8130  -13.5800   21.1160 C   0  0  0  0  0  0  0  0  0  0  0  0
  -22.0540  -12.8790   21.9520 N   0  0  0  0  0  0  0  0  0  0  0  0
  -22.3830  -14.5880   20.5580 O   0  0  0  0  0  0  0  0  0  0  0  0
  -22.4080  -12.0610   22.4250 H   0  0  0  0  0  0  0  0  0  0  0  0
  -21.1000  -13.1630   22.1190 H   0  0  0  0  0  0  0  0  0  0  0  0
  -25.4370  -15.2820   20.3980 N   0  0  0  0  0  0  0  0  0  0  0  0
  -24.6320  -15.8990   20.4230 H   0  0  0  0  0  0  0  0  0  0  0  0
  -26.2630  -15.7410   20.0400 H   0  0  0  0  0  0  0  0  0  0  0  0
  -33.2470  -19.5400   22.6120 C   0  0  0  0  0  1  0  0  0  0  0  0
  -32.8180  -19.8890   21.2980 O   0  0  0  0  0  0  0  0  0  0  0  0
  -28.1770  -21.2320   19.8380 C   0  0  0  0  0  2  0  0  0  0  0  0
  -28.5650  -22.7250   19.7750 N   0  0  0  0  0  4  0  0  0  0  0  0
  -29.4270  -22.7740   19.2540 H   0  0  0  0  0  0  0  0  0  0  0  0
  -28.8300  -22.9720   20.7170 H   0  0  0  0  0  0  0  0  0  0  0  0
  -28.0300  -24.1940   17.7640 C   0  0  0  0  0  1  0  0  0  0  0  0
  -27.6580  -23.8570   19.2380 C   0  0  0  0  0  3  0  0  0  0  0  0
  -27.6410  -25.1980   20.1500 C   0  0  0  0  0  2  0  0  0  0  0  0
  -27.7640  -26.5930   19.6310 O   0  0  0  0  0  0  0  0  0  0  0  0
  -24.5770  -32.0400   23.2530 C   0  0  0  0  0  0  0  0  0  0  0  0
  -26.6970  -27.4870   19.8000 C   0  0  0  0  0  0  0  0  0  0  0  0
  -23.1780  -30.7640   21.6730 C   0  0  0  0  0  3  0  0  0  0  0  0
  -24.4270  -29.2040   20.0730 C   0  0  0  0  0  0  0  0  0  0  0  0
  -25.7070  -30.9720   21.2820 C   0  0  0  0  0  2  0  0  0  0  0  0
  -25.6660  -29.6180   20.5790 C   0  0  0  0  0  0  0  0  0  0  0  0
  -26.8090  -28.7730   20.4260 C   0  0  0  0  0  3  0  0  0  0  0  0
  -25.4360  -27.1240   19.2930 C   0  0  0  0  0  3  0  0  0  0  0  0
  -24.3130  -27.9650   19.4250 C   0  0  0  0  0  3  0  0  0  0  0  0
  -23.2400  -30.1270   20.2600 C   0  0  0  0  0  2  0  0  0  0  0  0
  -24.5140  -31.2720   22.1260 N   0  0  0  0  0  0  0  0  0  0  0  0
  -23.5530  -32.3430   23.8840 O   0  0  0  0  0  0  0  0  0  0  0  0
  -22.5470  -29.7400   22.6460 C   0  0  0  0  0  0  0  0  0  0  0  0
  -21.2220  -29.5450   22.5400 N   0  0  0  0  0  0  0  0  0  0  0  0
  -23.2480  -29.1230   23.4530 O   0  0  0  0  0  0  0  0  0  0  0  0
  -20.7160  -30.0910   21.8550 H   0  0  0  0  0  0  0  0  0  0  0  0
  -17.8850  -28.2270   23.0140 C   0  0  0  0  0  0  0  0  0  0  0  0
  -20.4250  -28.5970   23.3210 C   0  0  0  0  0  3  0  0  0  0  0  0
  -20.5970  -27.1560   22.7910 C   0  0  0  0  0  2  0  0  0  0  0  0
  -19.5280  -26.7600   21.7680 C   0  0  0  0  0  2  0  0  0  0  0  0
  -18.1290  -26.8680   22.3810 C   0  0  0  0  0  2  0  0  0  0  0  0
  -18.9640  -29.0470   23.4400 C   0  0  0  0  0  0  0  0  0  0  0  0
  -18.6840  -30.3200   23.9840 C   0  0  0  0  0  3  0  0  0  0  0  0
  -17.3570  -30.7720   24.1130 C   0  0  0  0  0  3  0  0  0  0  0  0
  -16.2920  -29.9470   23.7110 C   0  0  0  0  0  3  0  0  0  0  0  0
  -16.5580  -28.6770   23.1680 C   0  0  0  0  0  3  0  0  0  0  0  0
  -25.9340  -32.5890   23.7910 C   0  0  0  0  0  3  0  0  0  0  0  0
  -25.7220  -33.9900   24.1860 N   0  0  0  0  0  0  0  0  0  0  0  0
  -26.0600  -35.0510   23.4440 C   0  0  0  0  0  0  0  0  0  0  0  0
  -26.6580  -34.9510   22.3690 O   0  0  0  0  0  0  0  0  0  0  0  0
  -25.1920  -34.1460   25.0310 H   0  0  0  0  0  0  0  0  0  0  0  0
  -24.4270  -36.9550   23.2430 C   0  0  0  0  0  1  0  0  0  0  0  0
  -25.6770  -36.4440   23.9790 C   0  0  0  0  0  3  0  0  0  0  0  0
  -27.8860  -37.1780   24.7570 C   0  0  0  0  0  1  0  0  0  0  0  0
  -26.7650  -37.4390   23.8600 N   0  0  0  0  0  0  0  0  0  0  0  0
  -26.4180  -38.3770   24.0490 H   0  0  0  0  0  0  0  0  0  0  0  0
  -26.5050  -31.7530   25.0010 C   0  0  1  0  0  0  0  0  0  0  0  0
  -25.4800  -31.5310   26.1370 C   0  0  0  0  0  1  0  0  0  0  0  0
  -26.9930  -30.3630   24.5290 C   0  0  0  0  0  1  0  0  0  0  0  0
  -27.7380  -32.4710   25.5970 C   0  0  0  0  0  1  0  0  0  0  0  0
  1  4  1  0
  2  6  1  0
  3 17  1  0
  3  1  2  0
  4 48  1  0
  5  2  2  0
  5  3  1  0
  6  8  1  0
  6  4  2  0
  7  5  1  0
  9 15  1  0
 10 15  1  0
 11 12  1  0
 11 10  1  0
 13 12  1  0
 13 22  1  0
 13 14  1  0
 15 14  1  0
 16  9  2  0
 17  9  1  0
 18 17  1  0
 19 20  2  0
 20 21  1  0
 20 39  1  0
 21 24  1  0
 22 19  1  0
 22 23  1  0
 23 21  2  0
 24 25  1  0
 25 26  2  0
 27 30  1  0
 27 26  1  0
 28 27  2  0
 29 28  1  0
 29 24  2  0
 30 31  1  0
 31 32  1  0
 32 33  2  0
 34 33  1  0
 34 38  1  0
 35 34  2  0
 36 31  2  0
 36 35  1  0
 37 36  1  0
 39 40  1  0
 40 43  1  0
 40 42  1  0
 41 39  2  0
 44 45  1  0
 44 19  1  0
 46 44  1  0
 48 47  1  0
 49  2  1  0
 50 49  1  0
 50 52  1  0
 51 50  1  0
 54 53  1  0
 54 50  1  0
 54 55  1  0
 56 58  1  0
 56 55  1  0
 57 68  2  0
 58 63  1  0
 59 67  1  0
 59 69  1  0
 60 66  1  0
 60 62  1  0
 61 67  1  0
 62 61  1  0
 63 62  2  0
 64 65  1  0
 64 58  2  0
 65 60  2  0
 66 59  1  0
 67 57  1  0
 69 71  2  0
 70 69  1  0
 72 70  1  0
 73 82  2  0
 73 78  1  0
 74 70  1  0
 74 78  1  0
 75 74  1  0
 76 77  1  0
 76 75  1  0
 77 73  1  0
 78 79  2  0
 79 80  1  0
 81 80  2  0
 82 81  1  0
 83 57  1  0
 83 84  1  0
 83 93  1  0
 84 87  1  0
 85 89  1  0
 85 84  1  0
 86 85  2  0
 89 88  1  0
 91 89  1  0
 91 92  1  0
 91 90  1  0
 93 96  1  1
 93 94  1  0
 95 93  1  0
M  ISO  4   9 100  17 100  55 101  56 101
M  END
>  <TORSDO>  (94) 
F 21

>  <SCORE>  (94) 
-13.289

>  <name>  (94) 
93

>  <ligand_id>  (94) 
93

>  <original_smiles>  (94) 
[H]c1c([H])c([H])c2c(c1[H])C([H])([H])C([H])([H])C([H])([H])C2([H])N([H])C(=O)C1([H])N(C(=O)C([H])(N([H])C(=O)C([H])(N([H])C([H])([H])[H])C([H])([H])[H])C(C([H])([H])[H])(C([H])([H])[H])C([H])([H])[H])C([H])([H])c2c([H])c(OC([H])([H])C([H])(C([H])([H])[H])[N+]([H])([H])C([H])([H])c3c(Cl)c(OC([H])([H])[H])c([H])c(N([H])C(=O)N4C([H])([H])C([H])([H])C([H])([H])C([H])(n5nc(-c6c([H])c([H])c(Oc7c([H])c([H])c(F)c([H])c7F)c([H])c6[H])c(C(=O)N([H])[H])c5N([H])[H])C4([H])[H])c3Cl)c([H])c([H])c2C1([H])[H]

>  <smiles>  (94) 
[H]c1c([H])c([H])c2c(c1[H])C([H])([H])C([H])([H])C([H])([H])C2([H])N([H])C(=O)C1([H])N(C(=O)C([H])(N([H])C(=O)C([H])(N([H])C([H])([H])[H])C([H])([H])[H])C(C([H])([H])[H])(C([H])([H])[H])C([H])([H])[H])C([H])([H])c2c([H])c(OC([H])([H])C([H])(C([H])([H])[H])[N+]([H])([H])C([H])([H])c3c(Cl)c(OC([H])([H])[H])c([H])c(N([H])C(=O)N4C([H])([H])C([H])([H])C([H])([H])C([H])(n5nc(-c6c([H])c([H])c(Oc7c([H])c([H])c(F)c([H])c7F)c([H])c6[H])c(C(=O)N([H])[H])c5N([H])[H])C4([H])[H])c3Cl)c([H])c([H])c2C1([H])[H]

$$$$
94:0:0
     RDKit          3D

 99107  0  0  1  0  0  0  0  0999 V2000
  -31.3460  -17.9980   20.3610 C   0  0  0  0  0  2  0  0  0  0  0  0
  -31.2200  -19.4170   20.1230 C   0  0  0  0  0  0  0  0  0  0  0  0
  -29.8700  -19.7200   19.9510 C   0  0  0  0  0  0  0  0  0  0  0  0
  -30.1510  -17.3770   20.1560 C   0  0  0  0  0  3  0  0  0  0  0  0
  -29.2490  -18.4300   19.7510 N   0  0  0  0  0  0  0  0  0  0  0  0
  -30.6540  -14.8260   20.0820 C   0  0  0  0  0  0  0  0  0  0  0  0
  -30.3680  -12.5630   19.0410 C   0  0  0  0  0  2  0  0  0  0  0  0
  -29.3710  -12.6320   17.8630 C   0  0  0  0  0  2  0  0  0  0  0  0
  -27.9300  -12.4140   18.3620 C   0  0  0  0  0  2  0  0  0  0  0  0
  -27.5990  -13.2960   19.5880 C   0  0  0  0  0  3  0  0  0  0  0  0
  -28.7150  -13.2630   20.6620 C   0  0  0  0  0  2  0  0  0  0  0  0
  -29.9870  -13.6170   20.0120 N   0  0  0  0  0  0  0  0  0  0  0  0
  -31.8450  -14.8710   19.7600 O   0  0  0  0  0  0  0  0  0  0  0  0
  -29.9050  -15.9850   20.2890 N   0  0  0  0  0  0  0  0  0  0  0  0
  -28.9380  -15.7610   20.4610 H   0  0  0  0  0  0  0  0  0  0  0  0
  -25.2390  -13.9150   20.4220 C   0  0  0  0  0  0  0  0  0  0  0  0
  -24.1840  -13.1490   20.8230 C   0  0  0  0  0  0  0  0  0  0  0  0
  -24.6420  -11.8010   20.7730 C   0  0  0  0  0  0  0  0  0  0  0  0
  -26.2750  -13.0340   20.1410 N   0  0  0  0  0  0  0  0  0  0  0  0
  -25.9220  -11.7570   20.4210 N   0  0  0  0  0  0  0  0  0  0  0  0
  -23.9190  -10.5440   20.9790 C   0  0  0  0  0  0  0  0  0  0  0  0
  -24.3800   -9.5750   21.8950 C   0  0  0  0  0  3  0  0  0  0  0  0
  -23.6570   -8.3790   22.0890 C   0  0  0  0  0  3  0  0  0  0  0  0
  -22.4610   -8.1480   21.3680 C   0  0  0  0  0  0  0  0  0  0  0  0
  -22.0210   -9.1080   20.4390 C   0  0  0  0  0  3  0  0  0  0  0  0
  -22.7450  -10.2960   20.2430 C   0  0  0  0  0  3  0  0  0  0  0  0
  -21.7070   -7.0050   21.4740 O   0  0  0  0  0  0  0  0  0  0  0  0
  -21.6950   -6.2560   22.6240 C   0  0  0  0  0  0  0  0  0  0  0  0
  -21.3180   -6.8080   23.8670 C   0  0  0  0  0  3  0  0  0  0  0  0
  -21.2510   -5.9870   25.0100 C   0  0  0  0  0  3  0  0  0  0  0  0
  -21.5510   -4.6150   24.9110 C   0  0  0  0  0  0  0  0  0  0  0  0
  -21.9260   -4.0640   23.6740 C   0  0  0  0  0  3  0  0  0  0  0  0
  -21.9920   -4.8820   22.5320 C   0  0  0  0  0  0  0  0  0  0  0  0
  -22.3300   -4.3400   21.3370 F   0  0  0  0  0  0  0  0  0  0  0  0
  -21.4810   -3.8240   26.0090 F   0  0  0  0  0  0  0  0  0  0  0  0
  -22.7990  -13.6380   21.1380 C   0  0  0  0  0  0  0  0  0  0  0  0
  -22.0960  -12.9420   22.0240 N   0  0  0  0  0  0  0  0  0  0  0  0
  -22.3530  -14.6660   20.6320 O   0  0  0  0  0  0  0  0  0  0  0  0
  -22.4730  -12.1110   22.4550 H   0  0  0  0  0  0  0  0  0  0  0  0
  -21.1660  -13.2460   22.2780 H   0  0  0  0  0  0  0  0  0  0  0  0
  -25.3690  -15.2840   20.2580 N   0  0  0  0  0  0  0  0  0  0  0  0
  -24.5700  -15.8960   20.3860 H   0  0  0  0  0  0  0  0  0  0  0  0
  -26.1580  -15.7540   19.8390 H   0  0  0  0  0  0  0  0  0  0  0  0
  -32.1830  -21.7840   19.7110 C   0  0  0  0  0  1  0  0  0  0  0  0
  -33.3760  -19.7680   18.9190 C   0  0  0  0  0  1  0  0  0  0  0  0
  -33.2110  -20.2600   21.3860 C   0  0  0  0  0  1  0  0  0  0  0  0
  -32.4660  -20.3090   20.0410 C   0  0  2  0  0  0  0  0  0  0  0  0
  -26.8840  -18.2110   20.4140 C   0  0  0  0  0  1  0  0  0  0  0  0
  -27.7770  -16.9020   18.4660 C   0  0  0  0  0  1  0  0  0  0  0  0
  -27.4090  -19.2460   18.1440 C   0  0  0  0  0  1  0  0  0  0  0  0
  -27.8620  -18.2240   19.2260 C   0  0  2  0  0  0  0  0  0  0  0  0
  -29.0750  -21.0850   19.6950 C   0  0  0  0  0  2  0  0  0  0  0  0
  -29.1960  -22.4460   20.3960 N   0  0  0  0  0  4  0  0  0  0  0  0
  -30.1780  -22.6620   20.4670 H   0  0  0  0  0  0  0  0  0  0  0  0
  -28.8510  -22.3090   21.3340 H   0  0  0  0  0  0  0  0  0  0  0  0
  -27.0650  -23.2640   19.2600 C   0  0  0  0  0  1  0  0  0  0  0  0
  -28.4710  -23.6730   19.7650 C   0  0  0  0  0  3  0  0  0  0  0  0
  -28.3550  -25.0520   20.6340 C   0  0  0  0  0  2  0  0  0  0  0  0
  -28.3660  -26.4390   20.0480 O   0  0  0  0  0  0  0  0  0  0  0  0
  -24.5870  -31.8300   23.1730 C   0  0  0  0  0  0  0  0  0  0  0  0
  -27.2380  -27.2860   20.0880 C   0  0  0  0  0  0  0  0  0  0  0  0
  -23.4010  -30.4490   21.5080 C   0  0  0  0  0  3  0  0  0  0  0  0
  -24.8690  -28.9130   20.0810 C   0  0  0  0  0  0  0  0  0  0  0  0
  -25.9430  -30.7660   21.3490 C   0  0  0  0  0  2  0  0  0  0  0  0
  -26.0340  -29.3910   20.6930 C   0  0  0  0  0  0  0  0  0  0  0  0
  -27.2240  -28.5940   20.6810 C   0  0  0  0  0  3  0  0  0  0  0  0
  -26.0530  -26.8820   19.4400 C   0  0  0  0  0  3  0  0  0  0  0  0
  -24.8830  -27.6650   19.4390 C   0  0  0  0  0  3  0  0  0  0  0  0
  -23.6300  -29.7860   20.1260 C   0  0  0  0  0  2  0  0  0  0  0  0
  -24.6620  -31.0330   22.0670 N   0  0  0  0  0  0  0  0  0  0  0  0
  -23.4980  -32.0980   23.7030 O   0  0  0  0  0  0  0  0  0  0  0  0
  -22.7330  -29.4180   22.4500 C   0  0  0  0  0  0  0  0  0  0  0  0
  -21.4060  -29.2470   22.3210 N   0  0  0  0  0  0  0  0  0  0  0  0
  -23.4090  -28.7760   23.2590 O   0  0  0  0  0  0  0  0  0  0  0  0
  -20.9220  -29.8190   21.6430 H   0  0  0  0  0  0  0  0  0  0  0  0
  -18.0220  -28.0630   22.8110 C   0  0  0  0  0  0  0  0  0  0  0  0
  -20.5820  -28.2980   23.0730 C   0  0  0  0  0  3  0  0  0  0  0  0
  -20.6700  -26.8770   22.4680 C   0  0  0  0  0  2  0  0  0  0  0  0
  -19.5600  -26.5860   21.4520 C   0  0  0  0  0  2  0  0  0  0  0  0
  -18.1840  -26.7260   22.1060 C   0  0  0  0  0  2  0  0  0  0  0  0
  -19.1480  -28.8080   23.2520 C   0  0  0  0  0  0  0  0  0  0  0  0
  -18.9410  -30.0580   23.8710 C   0  0  0  0  0  3  0  0  0  0  0  0
  -17.6400  -30.5660   24.0540 C   0  0  0  0  0  3  0  0  0  0  0  0
  -16.5290  -29.8180   23.6280 C   0  0  0  0  0  3  0  0  0  0  0  0
  -16.7210  -28.5670   23.0130 C   0  0  0  0  0  3  0  0  0  0  0  0
  -25.8600  -32.4610   23.8160 C   0  0  0  0  0  3  0  0  0  0  0  0
  -25.5430  -33.8570   24.1490 N   0  0  0  0  0  0  0  0  0  0  0  0
  -25.8840  -34.9160   23.4010 C   0  0  0  0  0  0  0  0  0  0  0  0
  -26.5670  -34.8180   22.3780 O   0  0  0  0  0  0  0  0  0  0  0  0
  -24.9390  -34.0040   24.9450 H   0  0  0  0  0  0  0  0  0  0  0  0
  -24.1640  -36.7120   23.0290 C   0  0  0  0  0  1  0  0  0  0  0  0
  -25.3910  -36.3020   23.8600 C   0  0  0  0  0  3  0  0  0  0  0  0
  -27.5140  -37.1780   24.7310 C   0  0  0  0  0  1  0  0  0  0  0  0
  -26.4280  -37.3550   23.7700 N   0  0  0  0  0  0  0  0  0  0  0  0
  -26.0220  -38.2760   23.9130 H   0  0  0  0  0  0  0  0  0  0  0  0
  -26.3570  -31.6850   25.0960 C   0  0  1  0  0  0  0  0  0  0  0  0
  -25.2500  -31.4450   26.1500 C   0  0  0  0  0  1  0  0  0  0  0  0
  -26.9450  -30.3090   24.7070 C   0  0  0  0  0  1  0  0  0  0  0  0
  -27.5020  -32.4740   25.7730 C   0  0  0  0  0  1  0  0  0  0  0  0
  2  1  1  0
  3  2  2  0
  4 14  1  0
  4  1  1  0
  5  3  1  0
  5  4  1  0
  6 14  1  0
  7 12  1  0
  8  9  1  0
  8  7  1  0
 10  9  1  0
 10 19  1  0
 10 11  1  0
 12  6  1  0
 12 11  1  0
 13  6  2  0
 14 15  1  0
 16 17  2  0
 17 36  1  0
 18 17  1  0
 18 21  1  0
 19 20  1  0
 19 16  1  0
 20 18  2  0
 21 22  1  0
 22 23  2  0
 24 27  1  0
 24 23  1  0
 25 24  2  0
 26 25  1  0
 26 21  2  0
 27 28  1  0
 28 29  1  0
 29 30  2  0
 31 30  1  0
 31 35  1  0
 32 31  2  0
 33 28  2  0
 33 32  1  0
 34 33  1  0
 36 37  1  0
 37 40  1  0
 37 39  1  0
 38 36  2  0
 41 42  1  0
 41 16  1  0
 43 41  1  0
 47 44  1  6
 45 47  1  0
 47  2  1  0
 47 46  1  0
 51 49  1  6
 50 51  1  0
 51  5  1  0
 51 48  1  0
 52  3  1  0
 52 53  1  0
 53 54  1  0
 53 55  1  0
 57 56  1  0
 57 53  1  0
 57 58  1  0
 59 61  1  0
 59 58  1  0
 60 71  2  0
 61 66  1  0
 62 70  1  0
 62 72  1  0
 63 69  1  0
 63 65  1  0
 64 70  1  0
 65 64  1  0
 66 65  2  0
 67 61  2  0
 68 67  1  0
 68 63  2  0
 69 62  1  0
 70 60  1  0
 72 74  2  0
 73 72  1  0
 75 73  1  0
 76 85  2  0
 76 81  1  0
 77 73  1  0
 77 81  1  0
 78 77  1  0
 79 80  1  0
 79 78  1  0
 80 76  1  0
 81 82  2  0
 82 83  1  0
 84 83  2  0
 85 84  1  0
 86 60  1  0
 86 87  1  0
 86 96  1  0
 87 90  1  0
 88 92  1  0
 88 87  1  0
 89 88  2  0
 92 91  1  0
 94 92  1  0
 94 95  1  0
 94 93  1  0
 96 99  1  1
 96 97  1  0
 98 96  1  0
M  ISO  4   6 100  14 100  58 101  59 101
M  END
>  <TORSDO>  (95) 
F 22

>  <SCORE>  (95) 
-13.112

>  <name>  (95) 
94

>  <ligand_id>  (95) 
94

>  <original_smiles>  (95) 
[H]c1c([H])c([H])c2c(c1[H])C([H])([H])C([H])([H])C([H])([H])C2([H])N([H])C(=O)C1([H])N(C(=O)C([H])(N([H])C(=O)C([H])(N([H])C([H])([H])[H])C([H])([H])[H])C(C([H])([H])[H])(C([H])([H])[H])C([H])([H])[H])C([H])([H])c2c([H])c(OC([H])([H])C([H])(C([H])([H])[H])[N+]([H])([H])C([H])([H])c3c(C(C([H])([H])[H])(C([H])([H])[H])C([H])([H])[H])c([H])c(N([H])C(=O)N4C([H])([H])C([H])([H])C([H])([H])C([H])(n5nc(-c6c([H])c([H])c(Oc7c([H])c([H])c(F)c([H])c7F)c([H])c6[H])c(C(=O)N([H])[H])c5N([H])[H])C4([H])[H])n3C(C([H])([H])[H])(C([H])([H])[H])C([H])([H])[H])c([H])c([H])c2C1([H])[H]

>  <smiles>  (95) 
[H]c1c([H])c([H])c2c(c1[H])C([H])([H])C([H])([H])C([H])([H])C2([H])N([H])C(=O)C1([H])N(C(=O)C([H])(N([H])C(=O)C([H])(N([H])C([H])([H])[H])C([H])([H])[H])C(C([H])([H])[H])(C([H])([H])[H])C([H])([H])[H])C([H])([H])c2c([H])c(OC([H])([H])C([H])(C([H])([H])[H])[N+]([H])([H])C([H])([H])c3c(C(C([H])([H])[H])(C([H])([H])[H])C([H])([H])[H])c([H])c(N([H])C(=O)N4C([H])([H])C([H])([H])C([H])([H])C([H])(n5nc(-c6c([H])c([H])c(Oc7c([H])c([H])c(F)c([H])c7F)c([H])c6[H])c(C(=O)N([H])[H])c5N([H])[H])C4([H])[H])n3C(C([H])([H])[H])(C([H])([H])[H])C([H])([H])[H])c([H])c([H])c2C1([H])[H]

$$$$
