0:0:0
     RDKit          3D

 91 98  0  0  1  0  0  0  0  0999 V2000
  -31.0250  -21.0700   19.6610 C   0  0  0  0  0  3  0  0  0  0  0  0
  -29.4670  -19.1250   20.0740 C   0  0  0  0  0  0  0  0  0  0  0  0
  -28.7490  -22.1070   20.0630 C   0  0  0  0  0  0  0  0  0  0  0  0
  -30.7420  -19.6690   19.7840 C   0  0  0  0  0  0  0  0  0  0  0  0
  -30.1410  -22.1980   19.7920 C   0  0  0  0  0  0  0  0  0  0  0  0
  -28.5100  -20.4690   20.1880 C   0  0  0  0  0  0  0  0  0  0  0  0
  -31.7700  -18.8080   19.5950 F   0  0  0  0  0  0  0  0  0  0  0  0
  -30.6820  -23.4300   19.6270 F   0  0  0  0  0  0  0  0  0  0  0  0
  -27.2190  -20.1440   20.4430 F   0  0  0  0  0  0  0  0  0  0  0  0
  -30.1830  -15.9470   20.0260 C   0  0  0  0  0  0  0  0  0  0  0  0
  -30.3420  -13.3580   19.2060 C   0  0  0  0  0  2  0  0  0  0  0  0
  -29.4350  -12.8670   18.0360 C   0  0  0  0  0  2  0  0  0  0  0  0
  -28.0420  -12.4640   18.5370 C   0  0  0  0  0  2  0  0  0  0  0  0
  -27.5380  -13.4550   19.6070 C   0  0  0  0  0  3  0  0  0  0  0  0
  -28.5910  -13.8420   20.6750 C   0  0  0  0  0  2  0  0  0  0  0  0
  -29.6990  -14.5420   19.9700 N   0  0  0  0  0  0  0  0  0  0  0  0
  -31.4120  -15.8620   19.8140 O   0  0  0  0  0  0  0  0  0  0  0  0
  -29.3940  -17.3420   20.1560 N   0  0  0  0  0  0  0  0  0  0  0  0
  -28.4380  -17.0790   20.3410 H   0  0  0  0  0  0  0  0  0  0  0  0
  -25.2180  -13.9370   20.5030 C   0  0  0  0  0  0  0  0  0  0  0  0
  -24.1830  -13.1410   20.8980 C   0  0  0  0  0  0  0  0  0  0  0  0
  -24.6590  -11.7970   20.8100 C   0  0  0  0  0  0  0  0  0  0  0  0
  -26.2540  -13.0820   20.1830 N   0  0  0  0  0  0  0  0  0  0  0  0
  -25.9370  -11.7830   20.4360 N   0  0  0  0  0  0  0  0  0  0  0  0
  -23.9450  -10.5250   21.0030 C   0  0  0  0  0  0  0  0  0  0  0  0
  -24.3970   -9.5540   21.9230 C   0  0  0  0  0  3  0  0  0  0  0  0
  -23.6790   -8.3530   22.1060 C   0  0  0  0  0  3  0  0  0  0  0  0
  -22.4950   -8.1120   21.3700 C   0  0  0  0  0  0  0  0  0  0  0  0
  -22.0600   -9.0740   20.4400 C   0  0  0  0  0  3  0  0  0  0  0  0
  -22.7780  -10.2670   20.2550 C   0  0  0  0  0  3  0  0  0  0  0  0
  -21.7490   -6.9620   21.4620 O   0  0  0  0  0  0  0  0  0  0  0  0
  -21.6940   -6.2310   22.6210 C   0  0  0  0  0  0  0  0  0  0  0  0
  -21.2120   -6.7820   23.8290 C   0  0  0  0  0  3  0  0  0  0  0  0
  -21.1080   -5.9750   24.9790 C   0  0  0  0  0  3  0  0  0  0  0  0
  -21.4750   -4.6170   24.9220 C   0  0  0  0  0  0  0  0  0  0  0  0
  -21.9510   -4.0650   23.7190 C   0  0  0  0  0  3  0  0  0  0  0  0
  -22.0570   -4.8700   22.5720 C   0  0  0  0  0  0  0  0  0  0  0  0
  -22.4950   -4.3280   21.4100 F   0  0  0  0  0  0  0  0  0  0  0  0
  -21.3680   -3.8390   26.0250 F   0  0  0  0  0  0  0  0  0  0  0  0
  -22.7970  -13.6040   21.2330 C   0  0  0  0  0  0  0  0  0  0  0  0
  -22.1060  -12.8940   22.1170 N   0  0  0  0  0  0  0  0  0  0  0  0
  -22.3340  -14.6350   20.7440 O   0  0  0  0  0  0  0  0  0  0  0  0
  -22.4900  -12.0630   22.5420 H   0  0  0  0  0  0  0  0  0  0  0  0
  -21.1780  -13.1950   22.3790 H   0  0  0  0  0  0  0  0  0  0  0  0
  -25.3640  -15.3140   20.3510 N   0  0  0  0  0  0  0  0  0  0  0  0
  -24.5990  -15.9600   20.5190 H   0  0  0  0  0  0  0  0  0  0  0  0
  -26.1810  -15.7600   19.9580 H   0  0  0  0  0  0  0  0  0  0  0  0
  -27.8710  -23.5430   20.1380 N   0  0  0  0  0  2  0  0  0  0  0  0
  -25.9740  -23.7340   21.7220 C   0  0  0  0  0  1  0  0  0  0  0  0
  -26.4500  -23.2940   20.3310 C   0  0  0  0  0  2  0  0  0  0  0  0
  -28.1380  -25.3960   20.0630 O   0  0  0  0  0  1  0  0  0  0  0  0
  -24.6310  -31.8250   23.1080 C   0  0  0  0  0  0  0  0  0  0  0  0
  -27.1540  -26.6530   20.0900 C   0  0  0  0  0  0  0  0  0  0  0  0
  -23.4590  -30.4470   21.4450 C   0  0  0  0  0  3  0  0  0  0  0  0
  -24.9140  -28.7890   20.0340 C   0  0  0  0  0  0  0  0  0  0  0  0
  -26.0450  -30.5370   21.3730 C   0  0  0  0  0  2  0  0  0  0  0  0
  -26.1030  -29.0970   20.7030 C   0  0  0  0  0  0  0  0  0  0  0  0
  -27.1970  -28.0610   20.7010 C   0  0  0  0  0  3  0  0  0  0  0  0
  -25.9420  -26.6090   19.3430 C   0  0  0  0  0  3  0  0  0  0  0  0
  -24.8790  -27.5720   19.3330 C   0  0  0  0  0  3  0  0  0  0  0  0
  -23.7170  -29.7590   20.0720 C   0  0  0  0  0  2  0  0  0  0  0  0
  -24.7360  -30.9740   22.0260 N   0  0  0  0  0  0  0  0  0  0  0  0
  -23.5310  -32.1270   23.6050 O   0  0  0  0  0  0  0  0  0  0  0  0
  -22.7200  -29.4700   22.4000 C   0  0  0  0  0  0  0  0  0  0  0  0
  -21.3840  -29.3470   22.2760 N   0  0  0  0  0  0  0  0  0  0  0  0
  -23.3620  -28.8200   23.2260 O   0  0  0  0  0  0  0  0  0  0  0  0
  -20.9140  -29.9190   21.5870 H   0  0  0  0  0  0  0  0  0  0  0  0
  -17.9660  -28.2280   22.8270 C   0  0  0  0  0  0  0  0  0  0  0  0
  -20.5400  -28.4100   23.0310 C   0  0  0  0  0  3  0  0  0  0  0  0
  -20.5810  -26.9990   22.3970 C   0  0  0  0  0  2  0  0  0  0  0  0
  -19.4450  -26.7530   21.4000 C   0  0  0  0  0  2  0  0  0  0  0  0
  -18.0850  -26.9080   22.0850 C   0  0  0  0  0  2  0  0  0  0  0  0
  -19.1170  -28.9420   23.2560 C   0  0  0  0  0  0  0  0  0  0  0  0
  -18.9470  -30.1770   23.9200 C   0  0  0  0  0  3  0  0  0  0  0  0
  -17.6600  -30.6980   24.1530 C   0  0  0  0  0  3  0  0  0  0  0  0
  -16.5240  -29.9820   23.7360 C   0  0  0  0  0  3  0  0  0  0  0  0
  -16.6790  -28.7480   23.0800 C   0  0  0  0  0  3  0  0  0  0  0  0
  -25.8870  -32.4670   23.7740 C   0  0  0  0  0  3  0  0  0  0  0  0
  -25.5570  -33.8630   24.1330 N   0  0  0  0  0  0  0  0  0  0  0  0
  -25.8670  -34.9460   23.4080 C   0  0  0  0  0  0  0  0  0  0  0  0
  -26.5170  -34.8780   22.3620 O   0  0  0  0  0  0  0  0  0  0  0  0
  -24.9770  -33.9870   24.9510 H   0  0  0  0  0  0  0  0  0  0  0  0
  -24.1150  -36.7430   23.1690 C   0  0  0  0  0  1  0  0  0  0  0  0
  -25.3890  -36.3230   23.9200 C   0  0  0  0  0  3  0  0  0  0  0  0
  -27.5360  -37.2220   24.7050 C   0  0  0  0  0  1  0  0  0  0  0  0
  -26.4080  -37.3900   23.7940 N   0  0  0  0  0  0  0  0  0  0  0  0
  -25.9970  -38.3030   23.9660 H   0  0  0  0  0  0  0  0  0  0  0  0
  -26.3660  -31.6890   25.0630 C   0  0  1  0  0  0  0  0  0  0  0  0
  -25.2450  -31.4510   26.1000 C   0  0  0  0  0  1  0  0  0  0  0  0
  -26.9540  -30.3070   24.6970 C   0  0  0  0  0  1  0  0  0  0  0  0
  -27.5040  -32.4730   25.7590 C   0  0  0  0  0  1  0  0  0  0  0  0
  1  4  2  0
  1  5  1  0
  2 18  1  0
  2  6  2  0
  3 48  1  0
  3  6  1  0
  4  2  1  0
  5  3  2  0
  6  9  1  0
  7  4  1  0
  8  5  1  0
 10 18  1  0
 11 16  1  0
 12 13  1  0
 12 11  1  0
 14 13  1  0
 14 23  1  0
 14 15  1  0
 16 10  1  0
 16 15  1  0
 17 10  2  0
 18 19  1  0
 20 21  2  0
 21 40  1  0
 22 21  1  0
 22 25  1  0
 23 24  1  0
 23 20  1  0
 24 22  2  0
 25 26  1  0
 26 27  2  0
 28 31  1  0
 28 27  1  0
 29 28  2  0
 30 29  1  0
 30 25  2  0
 31 32  1  0
 32 33  1  0
 33 34  2  0
 35 34  1  0
 35 39  1  0
 36 35  2  0
 37 32  2  0
 37 36  1  0
 38 37  1  0
 40 41  1  0
 41 44  1  0
 41 43  1  0
 42 40  2  0
 45 20  1  0
 45 46  1  0
 47 45  1  0
 48 50  1  0
 50 49  1  0
 51 53  1  0
 52 63  2  0
 53 58  1  0
 54 62  1  0
 54 64  1  0
 55 61  1  0
 55 57  1  0
 56 62  1  0
 57 56  1  0
 58 57  2  0
 59 53  2  0
 60 59  1  0
 60 55  2  0
 61 54  1  0
 62 52  1  0
 64 66  2  0
 65 64  1  0
 67 65  1  0
 68 77  2  0
 68 73  1  0
 69 65  1  0
 69 73  1  0
 70 69  1  0
 71 72  1  0
 71 70  1  0
 72 68  1  0
 73 74  2  0
 74 75  1  0
 76 75  2  0
 77 76  1  0
 78 52  1  0
 78 79  1  0
 78 88  1  0
 79 82  1  0
 80 84  1  0
 80 79  1  0
 81 80  2  0
 84 83  1  0
 86 84  1  0
 86 87  1  0
 86 85  1  0
 88 91  1  1
 88 89  1  0
 90 88  1  0
M  ISO  4  10 100  18 100  48 101  51 101
M  END
>  <TORSDO>  (1) 
F 18

>  <SCORE>  (1) 
-16.429

>  <name>  (1) 
0

>  <ligand_id>  (1) 
0

>  <original_smiles>  (1) 
[H]c1c([H])c([H])c2c(c1[H])C([H])([H])C([H])([H])C([H])([H])C2([H])N([H])C(=O)C1([H])N(C(=O)C([H])(N([H])C(=O)C([H])(N([H])C([H])([H])[H])C([H])([H])[H])C(C([H])([H])[H])(C([H])([H])[H])C([H])([H])[H])C([H])([H])c2c([H])c(ON(c3c(F)c([H])c(F)c(N([H])C(=O)N4C([H])([H])C([H])([H])C([H])([H])C([H])(n5nc(-c6c([H])c([H])c(Oc7c([H])c([H])c(F)c([H])c7F)c([H])c6[H])c(C(=O)N([H])[H])c5N([H])[H])C4([H])[H])c3F)C([H])([H])C([H])([H])[H])c([H])c([H])c2C1([H])[H]

>  <smiles>  (1) 
[H]c1c([H])c([H])c2c(c1[H])C([H])([H])C([H])([H])C([H])([H])C2([H])N([H])C(=O)C1([H])N(C(=O)C([H])(N([H])C(=O)C([H])(N([H])C([H])([H])[H])C([H])([H])[H])C(C([H])([H])[H])(C([H])([H])[H])C([H])([H])[H])C([H])([H])c2c([H])c(ON(c3c(F)c([H])c(F)c(N([H])C(=O)N4C([H])([H])C([H])([H])C([H])([H])C([H])(n5nc(-c6c([H])c([H])c(Oc7c([H])c([H])c(F)c([H])c7F)c([H])c6[H])c(C(=O)N([H])[H])c5N([H])[H])C4([H])[H])c3F)C([H])([H])C([H])([H])[H])c([H])c([H])c2C1([H])[H]

$$$$
1:0:0
     RDKit          3D

 95103  0  0  1  0  0  0  0  0999 V2000
  -29.8960  -22.0420   20.5950 C   0  0  0  0  0  3  0  0  0  0  0  0
  -30.4790  -21.8220   19.2230 C   0  0  0  0  0  1  0  0  0  0  0  0
  -29.6940  -21.0220   21.4740 N   0  0  0  0  0  0  0  0  0  0  0  0
  -29.5600  -23.2960   21.0010 N   0  0  0  0  0  0  0  0  0  0  0  0
  -29.6160  -21.3070   22.4420 H   0  0  0  0  0  0  0  0  0  0  0  0
  -29.1700  -23.4070   21.9280 H   0  0  0  0  0  0  0  0  0  0  0  0
  -30.6270  -18.8520   22.1750 C   0  0  0  0  0  3  0  0  0  0  0  0
  -29.2840  -18.9400   20.1440 C   0  0  0  0  0  3  0  0  0  0  0  0
  -29.9030  -19.6040   21.2250 C   0  0  0  0  0  0  0  0  0  0  0  0
  -30.0640  -16.7720   21.0060 C   0  0  0  0  0  0  0  0  0  0  0  0
  -30.7050  -17.4480   22.0680 C   0  0  0  0  0  0  0  0  0  0  0  0
  -29.3610  -17.5320   20.0320 C   0  0  0  0  0  0  0  0  0  0  0  0
  -31.3560  -16.7390   23.0220 F   0  0  0  0  0  0  0  0  0  0  0  0
  -28.5120  -16.7650   18.7350 Cl  0  0  0  0  0  0  0  0  0  0  0  0
  -30.5910  -14.4730   20.2330 C   0  0  0  0  0  0  0  0  0  0  0  0
  -30.2500  -12.3650   18.9870 C   0  0  0  0  0  2  0  0  0  0  0  0
  -29.2470  -12.6140   17.8400 C   0  0  0  0  0  2  0  0  0  0  0  0
  -27.7950  -12.4580   18.3330 C   0  0  0  0  0  2  0  0  0  0  0  0
  -27.5220  -13.2510   19.6370 C   0  0  0  0  0  3  0  0  0  0  0  0
  -28.6210  -12.9640   20.6850 C   0  0  0  0  0  2  0  0  0  0  0  0
  -29.9280  -13.2920   20.0830 N   0  0  0  0  0  0  0  0  0  0  0  0
  -31.6420  -14.7410   19.6410 O   0  0  0  0  0  0  0  0  0  0  0  0
  -29.9880  -15.3490   21.0500 N   0  0  0  0  0  0  0  0  0  0  0  0
  -29.2220  -14.9750   21.5880 H   0  0  0  0  0  0  0  0  0  0  0  0
  -25.1590  -13.8630   20.4620 C   0  0  0  0  0  0  0  0  0  0  0  0
  -24.1030  -13.0890   20.8610 C   0  0  0  0  0  0  0  0  0  0  0  0
  -24.5520  -11.7360   20.7760 C   0  0  0  0  0  0  0  0  0  0  0  0
  -26.1860  -12.9790   20.1640 N   0  0  0  0  0  0  0  0  0  0  0  0
  -25.8260  -11.6950   20.4080 N   0  0  0  0  0  0  0  0  0  0  0  0
  -23.8260  -10.4730   20.9700 C   0  0  0  0  0  0  0  0  0  0  0  0
  -24.2650   -9.5060   21.9000 C   0  0  0  0  0  3  0  0  0  0  0  0
  -23.5420   -8.3070   22.0800 C   0  0  0  0  0  3  0  0  0  0  0  0
  -22.3670   -8.0680   21.3290 C   0  0  0  0  0  0  0  0  0  0  0  0
  -21.9460   -9.0250   20.3890 C   0  0  0  0  0  3  0  0  0  0  0  0
  -22.6710  -10.2160   20.2070 C   0  0  0  0  0  3  0  0  0  0  0  0
  -21.6140   -6.9220   21.4190 O   0  0  0  0  0  0  0  0  0  0  0  0
  -21.5410   -6.1990   22.5820 C   0  0  0  0  0  0  0  0  0  0  0  0
  -21.0580   -6.7640   23.7830 C   0  0  0  0  0  3  0  0  0  0  0  0
  -20.9340   -5.9650   24.9370 C   0  0  0  0  0  3  0  0  0  0  0  0
  -21.2840   -4.6020   24.8920 C   0  0  0  0  0  0  0  0  0  0  0  0
  -21.7600   -4.0370   23.6960 C   0  0  0  0  0  3  0  0  0  0  0  0
  -21.8850   -4.8320   22.5440 C   0  0  0  0  0  0  0  0  0  0  0  0
  -22.3240   -4.2780   21.3880 F   0  0  0  0  0  0  0  0  0  0  0  0
  -21.1580   -3.8330   25.9980 F   0  0  0  0  0  0  0  0  0  0  0  0
  -22.7220  -13.5680   21.2100 C   0  0  0  0  0  0  0  0  0  0  0  0
  -22.0280  -12.8490   22.0850 N   0  0  0  0  0  0  0  0  0  0  0  0
  -22.2700  -14.6120   20.7440 O   0  0  0  0  0  0  0  0  0  0  0  0
  -22.4050  -12.0000   22.4830 H   0  0  0  0  0  0  0  0  0  0  0  0
  -21.1040  -13.1500   22.3620 H   0  0  0  0  0  0  0  0  0  0  0  0
  -25.3260  -15.2360   20.3080 N   0  0  0  0  0  0  0  0  0  0  0  0
  -24.5670  -15.8920   20.4580 H   0  0  0  0  0  0  0  0  0  0  0  0
  -26.1560  -15.6710   19.9230 H   0  0  0  0  0  0  0  0  0  0  0  0
  -29.7170  -24.5930   20.2950 C   0  0  0  0  0  2  0  0  0  0  0  0
  -28.3690  -25.3050   20.0290 C   0  0  0  0  0  2  0  0  0  0  0  0
  -28.4510  -26.7300   20.2140 O   0  0  0  0  0  0  0  0  0  0  0  0
  -24.5980  -31.9000   23.2470 C   0  0  0  0  0  0  0  0  0  0  0  0
  -27.2670  -27.4470   20.1890 C   0  0  0  0  0  0  0  0  0  0  0  0
  -23.4020  -30.4900   21.6030 C   0  0  0  0  0  3  0  0  0  0  0  0
  -24.8650  -28.9540   20.1880 C   0  0  0  0  0  0  0  0  0  0  0  0
  -25.9290  -30.8550   21.4130 C   0  0  0  0  0  2  0  0  0  0  0  0
  -26.0210  -29.4820   20.7760 C   0  0  0  0  0  0  0  0  0  0  0  0
  -27.2240  -28.7370   20.7700 C   0  0  0  0  0  3  0  0  0  0  0  0
  -26.0850  -26.9340   19.6010 C   0  0  0  0  0  3  0  0  0  0  0  0
  -24.8930  -27.6800   19.5980 C   0  0  0  0  0  3  0  0  0  0  0  0
  -23.6180  -29.8080   20.2270 C   0  0  0  0  0  2  0  0  0  0  0  0
  -24.6610  -31.0960   22.1460 N   0  0  0  0  0  0  0  0  0  0  0  0
  -23.5140  -32.1710   23.7810 O   0  0  0  0  0  0  0  0  0  0  0  0
  -22.7510  -29.4680   22.5640 C   0  0  0  0  0  0  0  0  0  0  0  0
  -21.4300  -29.2780   22.4290 N   0  0  0  0  0  0  0  0  0  0  0  0
  -23.4320  -28.8490   23.3850 O   0  0  0  0  0  0  0  0  0  0  0  0
  -20.9400  -29.8310   21.7400 H   0  0  0  0  0  0  0  0  0  0  0  0
  -18.0520  -28.0890   22.9190 C   0  0  0  0  0  0  0  0  0  0  0  0
  -20.6100  -28.3400   23.1970 C   0  0  0  0  0  3  0  0  0  0  0  0
  -20.7110  -26.9100   22.6180 C   0  0  0  0  0  2  0  0  0  0  0  0
  -19.6100  -26.5910   21.6020 C   0  0  0  0  0  2  0  0  0  0  0  0
  -18.2280  -26.7380   22.2440 C   0  0  0  0  0  2  0  0  0  0  0  0
  -19.1720  -28.8480   23.3520 C   0  0  0  0  0  0  0  0  0  0  0  0
  -18.9550  -30.1110   23.9430 C   0  0  0  0  0  3  0  0  0  0  0  0
  -17.6520  -30.6150   24.1070 C   0  0  0  0  0  3  0  0  0  0  0  0
  -16.5470  -29.8520   23.6910 C   0  0  0  0  0  3  0  0  0  0  0  0
  -16.7470  -28.5920   23.1030 C   0  0  0  0  0  3  0  0  0  0  0  0
  -25.8810  -32.5350   23.8690 C   0  0  0  0  0  3  0  0  0  0  0  0
  -26.3960  -31.7680   25.1490 C   0  0  1  0  0  0  0  0  0  0  0  0
  -25.2990  -31.5250   26.2120 C   0  0  0  0  0  1  0  0  0  0  0  0
  -26.9880  -30.3940   24.7570 C   0  0  0  0  0  1  0  0  0  0  0  0
  -27.5400  -32.5680   25.8150 C   0  0  0  0  0  1  0  0  0  0  0  0
  -25.5680  -33.9330   24.1940 N   0  0  0  0  0  0  0  0  0  0  0  0
  -25.9040  -34.9820   23.4310 C   0  0  0  0  0  0  0  0  0  0  0  0
  -26.5790  -34.8740   22.4030 O   0  0  0  0  0  0  0  0  0  0  0  0
  -24.9680  -34.0890   24.9900 H   0  0  0  0  0  0  0  0  0  0  0  0
  -24.1790  -36.7720   23.0500 C   0  0  0  0  0  1  0  0  0  0  0  0
  -25.4100  -36.3700   23.8790 C   0  0  0  0  0  3  0  0  0  0  0  0
  -27.5310  -37.2610   24.7350 C   0  0  0  0  0  1  0  0  0  0  0  0
  -26.4430  -37.4240   23.7750 N   0  0  0  0  0  0  0  0  0  0  0  0
  -26.0350  -38.3440   23.9120 H   0  0  0  0  0  0  0  0  0  0  0  0
  1  2  1  0
  1  4  1  0
  1  3  1  0
  3  5  1  0
  4  6  1  0
  8  9  1  0
  9  3  1  0
  9  7  2  0
 10 23  1  0
 10 11  2  0
 11  7  1  0
 11 13  1  0
 12  8  2  0
 12 10  1  0
 14 12  1  0
 15 23  1  0
 16 21  1  0
 17 18  1  0
 17 16  1  0
 19 18  1  0
 19 28  1  0
 19 20  1  0
 21 15  1  0
 21 20  1  0
 22 15  2  0
 23 24  1  0
 25 26  2  0
 26 45  1  0
 27 26  1  0
 27 30  1  0
 28 29  1  0
 28 25  1  0
 29 27  2  0
 30 31  1  0
 31 32  2  0
 33 36  1  0
 33 32  1  0
 34 33  2  0
 35 34  1  0
 35 30  2  0
 36 37  1  0
 37 38  1  0
 38 39  2  0
 40 39  1  0
 40 44  1  0
 41 40  2  0
 42 37  2  0
 42 41  1  0
 43 42  1  0
 45 46  1  0
 46 49  1  0
 46 48  1  0
 47 45  2  0
 50 51  1  0
 50 25  1  0
 52 50  1  0
 53  4  1  0
 54 55  1  0
 54 53  1  0
 56 67  2  0
 57 55  1  0
 57 62  1  0
 58 66  1  0
 58 68  1  0
 59 65  1  0
 59 61  1  0
 60 66  1  0
 61 60  1  0
 62 61  2  0
 63 57  2  0
 64 63  1  0
 64 59  2  0
 65 58  1  0
 66 56  1  0
 68 70  2  0
 69 68  1  0
 71 69  1  0
 72 81  2  0
 72 77  1  0
 73 69  1  0
 73 77  1  0
 74 73  1  0
 75 76  1  0
 75 74  1  0
 76 72  1  0
 77 78  2  0
 78 79  1  0
 80 79  2  0
 81 80  1  0
 82 56  1  0
 82 87  1  0
 82 83  1  0
 83 86  1  1
 83 84  1  0
 85 83  1  0
 87 90  1  0
 88 92  1  0
 88 87  1  0
 89 88  2  0
 92 91  1  0
 94 92  1  0
 94 95  1  0
 94 93  1  0
M  ISO  4  15 100  23 100  54 101  55 101
M  END
>  <TORSDO>  (2) 
F 19

>  <SCORE>  (2) 
-14.040

>  <name>  (2) 
1

>  <ligand_id>  (2) 
1

>  <original_smiles>  (2) 
[H]c1c([H])c([H])c2c(c1[H])C([H])([H])C([H])([H])C([H])([H])C2([H])N([H])C(=O)C1([H])N(C(=O)C([H])(N([H])C(=O)C([H])(N([H])C([H])([H])[H])C([H])([H])[H])C(C([H])([H])[H])(C([H])([H])[H])C([H])([H])[H])C([H])([H])c2c([H])c(OC([H])([H])C([H])([H])[N+]([H])=C(N([H])c3c([H])c(F)c(N([H])C(=O)N4C([H])([H])C([H])([H])C([H])([H])C([H])(n5nc(-c6c([H])c([H])c(Oc7c([H])c([H])c(F)c([H])c7F)c([H])c6[H])c(C(=O)N([H])[H])c5N([H])[H])C4([H])[H])c(Cl)c3[H])C([H])([H])[H])c([H])c([H])c2C1([H])[H]

>  <smiles>  (2) 
[H]c1c([H])c([H])c2c(c1[H])C([H])([H])C([H])([H])C([H])([H])C2([H])N([H])C(=O)C1([H])N(C(=O)C([H])(N([H])C(=O)C([H])(N([H])C([H])([H])[H])C([H])([H])[H])C(C([H])([H])[H])(C([H])([H])[H])C([H])([H])[H])C([H])([H])c2c([H])c(OC([H])([H])C([H])([H])[N+]([H])=C(N([H])c3c([H])c(F)c(N([H])C(=O)N4C([H])([H])C([H])([H])C([H])([H])C([H])(n5nc(-c6c([H])c([H])c(Oc7c([H])c([H])c(F)c([H])c7F)c([H])c6[H])c(C(=O)N([H])[H])c5N([H])[H])C4([H])[H])c(Cl)c3[H])C([H])([H])[H])c([H])c([H])c2C1([H])[H]

$$$$
2:0:0
     RDKit          3D

 93101  0  0  1  0  0  0  0  0999 V2000
  -30.7630  -18.6180   20.7640 C   0  0  0  0  0  3  0  0  0  0  0  0
  -30.5540  -20.0680   20.8520 C   0  0  0  0  0  0  0  0  0  0  0  0
  -28.4000  -19.8310   19.8690 C   0  0  0  0  0  0  0  0  0  0  0  0
  -29.7990  -17.6910   20.2350 C   0  0  0  0  0  0  0  0  0  0  0  0
  -29.3400  -20.7570   20.4550 C   0  0  0  0  0  0  0  0  0  0  0  0
  -28.6560  -18.4030   19.7240 C   0  0  0  0  0  0  0  0  0  0  0  0
  -31.6880  -20.9000   21.4380 C   0  0  0  0  0  1  0  0  0  0  0  0
  -27.0100  -20.3260   19.4640 C   0  0  0  0  0  1  0  0  0  0  0  0
  -27.5070  -17.4540   18.8480 Cl  0  0  0  0  0  0  0  0  0  0  0  0
  -30.6100  -15.0130   20.1370 C   0  0  0  0  0  0  0  0  0  0  0  0
  -30.4590  -12.6770   19.1680 C   0  0  0  0  0  2  0  0  0  0  0  0
  -29.4890  -12.6400   17.9640 C   0  0  0  0  0  2  0  0  0  0  0  0
  -28.0390  -12.4230   18.4350 C   0  0  0  0  0  2  0  0  0  0  0  0
  -27.6620  -13.3490   19.6180 C   0  0  0  0  0  3  0  0  0  0  0  0
  -28.7450  -13.3500   20.7210 C   0  0  0  0  0  2  0  0  0  0  0  0
  -30.0100  -13.7560   20.0880 N   0  0  0  0  0  0  0  0  0  0  0  0
  -31.8100  -15.0950   19.8630 O   0  0  0  0  0  0  0  0  0  0  0  0
  -29.7690  -16.1520   20.2400 N   0  0  0  0  0  0  0  0  0  0  0  0
  -28.8120  -15.8360   20.2710 H   0  0  0  0  0  0  0  0  0  0  0  0
  -25.2940  -13.9430   20.4070 C   0  0  0  0  0  0  0  0  0  0  0  0
  -24.2360  -13.1760   20.7960 C   0  0  0  0  0  0  0  0  0  0  0  0
  -24.6930  -11.8240   20.7530 C   0  0  0  0  0  0  0  0  0  0  0  0
  -26.3290  -13.0610   20.1410 N   0  0  0  0  0  0  0  0  0  0  0  0
  -25.9780  -11.7790   20.4250 N   0  0  0  0  0  0  0  0  0  0  0  0
  -23.9620  -10.5690   20.9570 C   0  0  0  0  0  0  0  0  0  0  0  0
  -24.4030   -9.6050   21.8920 C   0  0  0  0  0  3  0  0  0  0  0  0
  -23.6740   -8.4130   22.0850 C   0  0  0  0  0  3  0  0  0  0  0  0
  -22.4920   -8.1760   21.3470 C   0  0  0  0  0  0  0  0  0  0  0  0
  -22.0710   -9.1280   20.4000 C   0  0  0  0  0  3  0  0  0  0  0  0
  -22.7990  -10.3130   20.2040 C   0  0  0  0  0  3  0  0  0  0  0  0
  -21.7340   -7.0330   21.4500 O   0  0  0  0  0  0  0  0  0  0  0  0
  -21.6970   -6.2940   22.6050 C   0  0  0  0  0  0  0  0  0  0  0  0
  -21.2750   -6.8500   23.8320 C   0  0  0  0  0  3  0  0  0  0  0  0
  -21.1830   -6.0370   24.9800 C   0  0  0  0  0  3  0  0  0  0  0  0
  -21.5060   -4.6690   24.9010 C   0  0  0  0  0  0  0  0  0  0  0  0
  -21.9220   -4.1120   23.6790 C   0  0  0  0  0  3  0  0  0  0  0  0
  -22.0150   -4.9230   22.5340 C   0  0  0  0  0  0  0  0  0  0  0  0
  -22.3950   -4.3750   21.3540 F   0  0  0  0  0  0  0  0  0  0  0  0
  -21.4120   -3.8860   26.0010 F   0  0  0  0  0  0  0  0  0  0  0  0
  -22.8460  -13.6620   21.0840 C   0  0  0  0  0  0  0  0  0  0  0  0
  -22.1260  -12.9720   21.9560 N   0  0  0  0  0  0  0  0  0  0  0  0
  -22.4060  -14.6900   20.5670 O   0  0  0  0  0  0  0  0  0  0  0  0
  -22.5050  -12.1490   22.4000 H   0  0  0  0  0  0  0  0  0  0  0  0
  -21.1890  -13.2730   22.1810 H   0  0  0  0  0  0  0  0  0  0  0  0
  -25.4440  -15.3130   20.2360 N   0  0  0  0  0  0  0  0  0  0  0  0
  -24.6610  -15.9420   20.3690 H   0  0  0  0  0  0  0  0  0  0  0  0
  -26.2390  -15.7710   19.8070 H   0  0  0  0  0  0  0  0  0  0  0  0
  -28.9120  -23.4320   20.0960 C   0  0  0  0  0  0  0  0  0  0  0  0
  -28.6930  -22.3590   22.2810 C   0  0  0  0  0  1  0  0  0  0  0  0
  -28.9840  -22.2120   20.8450 N   0  0  0  0  0  0  0  0  0  0  0  0
  -29.4720  -23.4970   18.9940 O   0  0  0  0  0  0  0  0  0  0  0  0
  -28.0800  -24.7910   20.5850 C   0  0  0  0  0  2  0  0  0  0  0  0
  -28.3610  -26.2340   20.0790 O   0  0  0  0  0  0  0  0  0  0  0  0
  -24.6250  -31.8180   23.0810 C   0  0  0  0  0  0  0  0  0  0  0  0
  -27.2920  -27.1970   20.0340 C   0  0  0  0  0  0  0  0  0  0  0  0
  -23.4560  -30.4330   21.4080 C   0  0  0  0  0  3  0  0  0  0  0  0
  -24.9400  -28.8970   19.9820 C   0  0  0  0  0  0  0  0  0  0  0  0
  -26.0060  -30.7430   21.2640 C   0  0  0  0  0  2  0  0  0  0  0  0
  -26.1050  -29.3600   20.6040 C   0  0  0  0  0  0  0  0  0  0  0  0
  -27.2880  -28.5310   20.6020 C   0  0  0  0  0  3  0  0  0  0  0  0
  -26.0990  -26.8310   19.3670 C   0  0  0  0  0  3  0  0  0  0  0  0
  -24.9490  -27.6460   19.3450 C   0  0  0  0  0  3  0  0  0  0  0  0
  -23.6980  -29.7740   20.0290 C   0  0  0  0  0  2  0  0  0  0  0  0
  -24.7150  -31.0170   21.9770 N   0  0  0  0  0  0  0  0  0  0  0  0
  -23.5320  -32.0830   23.6050 O   0  0  0  0  0  0  0  0  0  0  0  0
  -22.7770  -29.4070   22.3500 C   0  0  0  0  0  0  0  0  0  0  0  0
  -21.4450  -29.2500   22.2290 N   0  0  0  0  0  0  0  0  0  0  0  0
  -23.4480  -28.7520   23.1530 O   0  0  0  0  0  0  0  0  0  0  0  0
  -20.9600  -29.8260   21.5540 H   0  0  0  0  0  0  0  0  0  0  0  0
  -18.0530  -28.0950   22.7490 C   0  0  0  0  0  0  0  0  0  0  0  0
  -20.6200  -28.3030   22.9820 C   0  0  0  0  0  3  0  0  0  0  0  0
  -20.6850  -26.8900   22.3540 C   0  0  0  0  0  2  0  0  0  0  0  0
  -19.5620  -26.6240   21.3470 C   0  0  0  0  0  2  0  0  0  0  0  0
  -18.1950  -26.7680   22.0200 C   0  0  0  0  0  2  0  0  0  0  0  0
  -19.1910  -28.8210   23.1870 C   0  0  0  0  0  0  0  0  0  0  0  0
  -19.0070  -30.0630   23.8330 C   0  0  0  0  0  3  0  0  0  0  0  0
  -17.7170  -30.5820   24.0390 C   0  0  0  0  0  3  0  0  0  0  0  0
  -16.5910  -29.8510   23.6190 C   0  0  0  0  0  3  0  0  0  0  0  0
  -16.7600  -28.6080   22.9820 C   0  0  0  0  0  3  0  0  0  0  0  0
  -25.8920  -32.4560   23.7310 C   0  0  0  0  0  3  0  0  0  0  0  0
  -25.5570  -33.8410   24.1010 N   0  0  0  0  0  0  0  0  0  0  0  0
  -25.8660  -34.9200   23.3720 C   0  0  0  0  0  0  0  0  0  0  0  0
  -26.5310  -34.8540   22.3340 O   0  0  0  0  0  0  0  0  0  0  0  0
  -24.9680  -33.9650   24.9120 H   0  0  0  0  0  0  0  0  0  0  0  0
  -24.1060  -36.6990   23.0700 C   0  0  0  0  0  1  0  0  0  0  0  0
  -25.3540  -36.2880   23.8690 C   0  0  0  0  0  3  0  0  0  0  0  0
  -27.4730  -37.1890   24.7280 C   0  0  0  0  0  1  0  0  0  0  0  0
  -26.3710  -37.3590   23.7860 N   0  0  0  0  0  0  0  0  0  0  0  0
  -25.9480  -38.2690   23.9500 H   0  0  0  0  0  0  0  0  0  0  0  0
  -26.4080  -31.6580   24.9920 C   0  0  1  0  0  0  0  0  0  0  0  0
  -25.3130  -31.3860   26.0490 C   0  0  0  0  0  1  0  0  0  0  0  0
  -27.0080  -30.2910   24.5740 C   0  0  0  0  0  1  0  0  0  0  0  0
  -27.5380  -32.4520   25.6880 C   0  0  0  0  0  1  0  0  0  0  0  0
  1  2  1  0
  2  7  1  0
  3  5  1  0
  4 18  1  0
  4  1  2  0
  5 50  1  0
  5  2  2  0
  6  3  2  0
  6  4  1  0
  8  3  1  0
  9  6  1  0
 10 18  1  0
 11 16  1  0
 12 13  1  0
 12 11  1  0
 14 13  1  0
 14 23  1  0
 14 15  1  0
 16 10  1  0
 16 15  1  0
 17 10  2  0
 18 19  1  0
 20 21  2  0
 21 40  1  0
 22 21  1  0
 22 25  1  0
 23 20  1  0
 23 24  1  0
 24 22  2  0
 25 26  1  0
 26 27  2  0
 28 31  1  0
 28 27  1  0
 29 28  2  0
 30 29  1  0
 30 25  2  0
 31 32  1  0
 32 33  1  0
 33 34  2  0
 35 34  1  0
 35 39  1  0
 36 35  2  0
 37 32  2  0
 37 36  1  0
 38 37  1  0
 40 41  1  0
 41 44  1  0
 41 43  1  0
 42 40  2  0
 45 46  1  0
 45 20  1  0
 47 45  1  0
 48 52  1  0
 48 50  1  0
 50 49  1  0
 51 48  2  0
 53 52  1  0
 54 65  2  0
 55 53  1  0
 55 60  1  0
 56 64  1  0
 56 66  1  0
 57 63  1  0
 57 59  1  0
 58 64  1  0
 59 58  1  0
 60 59  2  0
 61 55  2  0
 62 61  1  0
 62 57  2  0
 63 56  1  0
 64 54  1  0
 66 68  2  0
 67 66  1  0
 69 67  1  0
 70 79  2  0
 70 75  1  0
 71 67  1  0
 71 75  1  0
 72 71  1  0
 73 74  1  0
 73 72  1  0
 74 70  1  0
 75 76  2  0
 76 77  1  0
 78 77  2  0
 79 78  1  0
 80 54  1  0
 80 81  1  0
 80 90  1  0
 81 84  1  0
 82 86  1  0
 82 81  1  0
 83 82  2  0
 86 85  1  0
 88 86  1  0
 88 89  1  0
 88 87  1  0
 90 93  1  1
 90 91  1  0
 92 90  1  0
M  ISO  4  10 100  18 100  52 101  53 101
M  END
>  <TORSDO>  (3) 
F 18

>  <SCORE>  (3) 
-14.732

>  <name>  (3) 
2

>  <ligand_id>  (3) 
2

>  <original_smiles>  (3) 
[H]c1c([H])c([H])c2c(c1[H])C([H])([H])C([H])([H])C([H])([H])C2([H])N([H])C(=O)C1([H])N(C(=O)C([H])(N([H])C(=O)C([H])(N([H])C([H])([H])[H])C([H])([H])[H])C(C([H])([H])[H])(C([H])([H])[H])C([H])([H])[H])C([H])([H])c2c([H])c(OC([H])([H])C(=O)N(c3c(C([H])([H])[H])c([H])c(N([H])C(=O)N4C([H])([H])C([H])([H])C([H])([H])C([H])(n5nc(-c6c([H])c([H])c(Oc7c([H])c([H])c(F)c([H])c7F)c([H])c6[H])c(C(=O)N([H])[H])c5N([H])[H])C4([H])[H])c(Cl)c3C([H])([H])[H])C([H])([H])[H])c([H])c([H])c2C1([H])[H]

>  <smiles>  (3) 
[H]c1c([H])c([H])c2c(c1[H])C([H])([H])C([H])([H])C([H])([H])C2([H])N([H])C(=O)C1([H])N(C(=O)C([H])(N([H])C(=O)C([H])(N([H])C([H])([H])[H])C([H])([H])[H])C(C([H])([H])[H])(C([H])([H])[H])C([H])([H])[H])C([H])([H])c2c([H])c(OC([H])([H])C(=O)N(c3c(C([H])([H])[H])c([H])c(N([H])C(=O)N4C([H])([H])C([H])([H])C([H])([H])C([H])(n5nc(-c6c([H])c([H])c(Oc7c([H])c([H])c(F)c([H])c7F)c([H])c6[H])c(C(=O)N([H])[H])c5N([H])[H])C4([H])[H])c(Cl)c3C([H])([H])[H])C([H])([H])[H])c([H])c([H])c2C1([H])[H]

$$$$
3:0:0
     RDKit          3D

 92100  0  0  1  0  0  0  0  0999 V2000
  -31.6540  -19.4530   21.4520 C   0  0  0  0  0  3  0  0  0  0  0  0
  -31.2680  -18.1470   21.0950 C   0  0  0  0  0  3  0  0  0  0  0  0
  -30.8300  -20.5970   21.3150 C   0  0  0  0  0  0  0  0  0  0  0  0
  -29.1530  -19.1030   20.3780 C   0  0  0  0  0  0  0  0  0  0  0  0
  -29.9930  -17.8560   20.5830 C   0  0  0  0  0  0  0  0  0  0  0  0
  -29.5430  -20.5380   20.6920 C   0  0  0  0  0  0  0  0  0  0  0  0
  -31.3920  -21.8550   21.9600 C   0  0  0  0  0  1  0  0  0  0  0  0
  -27.7670  -18.8880   19.8020 C   0  0  0  0  0  1  0  0  0  0  0  0
  -30.4470  -15.1200   20.2860 C   0  0  0  0  0  0  0  0  0  0  0  0
  -30.3400  -12.7630   19.3050 C   0  0  0  0  0  2  0  0  0  0  0  0
  -29.3810  -12.6840   18.0940 C   0  0  0  0  0  2  0  0  0  0  0  0
  -27.9360  -12.4320   18.5620 C   0  0  0  0  0  2  0  0  0  0  0  0
  -27.5350  -13.3450   19.7490 C   0  0  0  0  0  3  0  0  0  0  0  0
  -28.6140  -13.3910   20.8500 C   0  0  0  0  0  2  0  0  0  0  0  0
  -29.8510  -13.8530   20.2060 N   0  0  0  0  0  0  0  0  0  0  0  0
  -31.6560  -15.1520   20.0310 O   0  0  0  0  0  0  0  0  0  0  0  0
  -29.6690  -16.3370   20.3940 N   0  0  0  0  0  0  0  0  0  0  0  0
  -28.6800  -16.1400   20.3850 H   0  0  0  0  0  0  0  0  0  0  0  0
  -25.1680  -13.8790   20.5510 C   0  0  0  0  0  0  0  0  0  0  0  0
  -24.1220  -13.0860   20.9330 C   0  0  0  0  0  0  0  0  0  0  0  0
  -24.6030  -11.7420   20.8780 C   0  0  0  0  0  0  0  0  0  0  0  0
  -26.2160  -13.0180   20.2770 N   0  0  0  0  0  0  0  0  0  0  0  0
  -25.8890  -11.7260   20.5420 N   0  0  0  0  0  0  0  0  0  0  0  0
  -23.8960  -10.4680   21.0650 C   0  0  0  0  0  0  0  0  0  0  0  0
  -24.3550   -9.4950   21.9800 C   0  0  0  0  0  3  0  0  0  0  0  0
  -23.6440   -8.2880   22.1580 C   0  0  0  0  0  3  0  0  0  0  0  0
  -22.4600   -8.0460   21.4210 C   0  0  0  0  0  0  0  0  0  0  0  0
  -22.0200   -9.0090   20.4950 C   0  0  0  0  0  3  0  0  0  0  0  0
  -22.7320  -10.2070   20.3160 C   0  0  0  0  0  3  0  0  0  0  0  0
  -21.7190   -6.8920   21.5090 O   0  0  0  0  0  0  0  0  0  0  0  0
  -21.6940   -6.1390   22.6550 C   0  0  0  0  0  0  0  0  0  0  0  0
  -21.2580   -6.6700   23.8890 C   0  0  0  0  0  3  0  0  0  0  0  0
  -21.1840   -5.8410   25.0260 C   0  0  0  0  0  3  0  0  0  0  0  0
  -21.5340   -4.4820   24.9310 C   0  0  0  0  0  0  0  0  0  0  0  0
  -21.9640   -3.9490   23.7020 C   0  0  0  0  0  3  0  0  0  0  0  0
  -22.0410   -4.7750   22.5670 C   0  0  0  0  0  0  0  0  0  0  0  0
  -22.4350   -4.2520   21.3810 F   0  0  0  0  0  0  0  0  0  0  0  0
  -21.4560   -3.6830   26.0210 F   0  0  0  0  0  0  0  0  0  0  0  0
  -22.7240  -13.5420   21.2320 C   0  0  0  0  0  0  0  0  0  0  0  0
  -22.0210  -12.8330   22.1060 N   0  0  0  0  0  0  0  0  0  0  0  0
  -22.2650  -14.5660   20.7250 O   0  0  0  0  0  0  0  0  0  0  0  0
  -22.4060  -12.0050   22.5380 H   0  0  0  0  0  0  0  0  0  0  0  0
  -21.0840  -13.1210   22.3490 H   0  0  0  0  0  0  0  0  0  0  0  0
  -25.3080  -15.2530   20.3830 N   0  0  0  0  0  0  0  0  0  0  0  0
  -24.5290  -15.8910   20.5140 H   0  0  0  0  0  0  0  0  0  0  0  0
  -26.1270  -15.7050   20.0010 H   0  0  0  0  0  0  0  0  0  0  0  0
  -28.9510  -23.2770   20.3330 C   0  0  0  0  0  0  0  0  0  0  0  0
  -28.6940  -21.8600   20.5390 N   0  0  0  0  0  0  0  0  0  0  0  0
  -30.0810  -23.6290   19.9920 O   0  0  0  0  0  0  0  0  0  0  0  0
  -27.7010  -21.6930   20.6270 H   0  0  0  0  0  0  0  0  0  0  0  0
  -27.8380  -24.5450   20.3980 C   0  0  0  0  0  2  0  0  0  0  0  0
  -28.1970  -26.0980   20.3760 O   0  0  0  0  0  0  0  0  0  0  0  0
  -24.6610  -31.9770   23.2710 C   0  0  0  0  0  0  0  0  0  0  0  0
  -27.1740  -27.1400   20.3090 C   0  0  0  0  0  0  0  0  0  0  0  0
  -23.4490  -30.5770   21.6480 C   0  0  0  0  0  3  0  0  0  0  0  0
  -24.8790  -28.9620   20.2450 C   0  0  0  0  0  0  0  0  0  0  0  0
  -26.0110  -30.7910   21.4900 C   0  0  0  0  0  2  0  0  0  0  0  0
  -26.0680  -29.3850   20.8530 C   0  0  0  0  0  0  0  0  0  0  0  0
  -27.2150  -28.4930   20.8640 C   0  0  0  0  0  3  0  0  0  0  0  0
  -25.9590  -26.8380   19.6550 C   0  0  0  0  0  3  0  0  0  0  0  0
  -24.8430  -27.7040   19.6270 C   0  0  0  0  0  3  0  0  0  0  0  0
  -23.6670  -29.8800   20.2780 C   0  0  0  0  0  2  0  0  0  0  0  0
  -24.7280  -31.1390   22.1900 N   0  0  0  0  0  0  0  0  0  0  0  0
  -23.5760  -32.2820   23.7910 O   0  0  0  0  0  0  0  0  0  0  0  0
  -22.7520  -29.5920   22.6210 C   0  0  0  0  0  0  0  0  0  0  0  0
  -21.4240  -29.4240   22.4840 N   0  0  0  0  0  0  0  0  0  0  0  0
  -23.4100  -28.9800   23.4650 O   0  0  0  0  0  0  0  0  0  0  0  0
  -20.9480  -29.9680   21.7780 H   0  0  0  0  0  0  0  0  0  0  0  0
  -18.0350  -28.2330   22.9690 C   0  0  0  0  0  0  0  0  0  0  0  0
  -20.5910  -28.5040   23.2650 C   0  0  0  0  0  3  0  0  0  0  0  0
  -20.7010  -27.0600   22.7240 C   0  0  0  0  0  2  0  0  0  0  0  0
  -19.6130  -26.7130   21.7020 C   0  0  0  0  0  2  0  0  0  0  0  0
  -18.2220  -26.8710   22.3240 C   0  0  0  0  0  2  0  0  0  0  0  0
  -19.1470  -29.0070   23.3970 C   0  0  0  0  0  0  0  0  0  0  0  0
  -18.9180  -30.2800   23.9620 C   0  0  0  0  0  3  0  0  0  0  0  0
  -17.6090  -30.7810   24.1020 C   0  0  0  0  0  3  0  0  0  0  0  0
  -16.5120  -30.0050   23.6900 C   0  0  0  0  0  3  0  0  0  0  0  0
  -16.7260  -28.7340   23.1290 C   0  0  0  0  0  3  0  0  0  0  0  0
  -25.9430  -32.6090   23.8930 C   0  0  0  0  0  3  0  0  0  0  0  0
  -25.6380  -34.0100   24.2250 N   0  0  0  0  0  0  0  0  0  0  0  0
  -25.9520  -35.0650   23.4620 C   0  0  0  0  0  0  0  0  0  0  0  0
  -26.5950  -34.9600   22.4130 O   0  0  0  0  0  0  0  0  0  0  0  0
  -25.0640  -34.1650   25.0420 H   0  0  0  0  0  0  0  0  0  0  0  0
  -24.2130  -36.8610   23.1640 C   0  0  0  0  0  1  0  0  0  0  0  0
  -25.4820  -36.4560   23.9320 C   0  0  0  0  0  3  0  0  0  0  0  0
  -27.6400  -37.3490   24.6900 C   0  0  0  0  0  1  0  0  0  0  0  0
  -26.5090  -37.5090   23.7800 N   0  0  0  0  0  0  0  0  0  0  0  0
  -26.1070  -38.4290   23.9320 H   0  0  0  0  0  0  0  0  0  0  0  0
  -26.4500  -31.8400   25.1750 C   0  0  1  0  0  0  0  0  0  0  0  0
  -25.3530  -31.6140   26.2420 C   0  0  0  0  0  1  0  0  0  0  0  0
  -27.0270  -30.4570   24.7970 C   0  0  0  0  0  1  0  0  0  0  0  0
  -27.6040  -32.6310   25.8360 C   0  0  0  0  0  1  0  0  0  0  0  0
  2  1  2  0
  3  1  1  0
  3  7  1  0
  4  5  2  0
  4  6  1  0
  5  2  1  0
  6  3  2  0
  8  4  1  0
  9 17  1  0
 10 15  1  0
 11 12  1  0
 11 10  1  0
 13 12  1  0
 13 22  1  0
 13 14  1  0
 15  9  1  0
 15 14  1  0
 16  9  2  0
 17  5  1  0
 18 17  1  0
 19 20  2  0
 20 39  1  0
 21 20  1  0
 21 24  1  0
 22 23  1  0
 22 19  1  0
 23 21  2  0
 24 25  1  0
 25 26  2  0
 27 30  1  0
 27 26  1  0
 28 27  2  0
 29 28  1  0
 29 24  2  0
 30 31  1  0
 31 32  1  0
 32 33  2  0
 34 33  1  0
 34 38  1  0
 35 34  2  0
 36 31  2  0
 36 35  1  0
 37 36  1  0
 39 40  1  0
 40 43  1  0
 40 42  1  0
 41 39  2  0
 44 45  1  0
 44 19  1  0
 46 44  1  0
 47 51  1  0
 47 48  1  0
 48 50  1  0
 48  6  1  0
 49 47  2  0
 52 51  1  0
 53 64  2  0
 54 52  1  0
 54 59  1  0
 55 63  1  0
 55 65  1  0
 56 62  1  0
 56 58  1  0
 57 63  1  0
 58 59  2  0
 58 57  1  0
 60 54  2  0
 61 60  1  0
 61 56  2  0
 62 55  1  0
 63 53  1  0
 65 67  2  0
 66 65  1  0
 68 66  1  0
 69 78  2  0
 69 74  1  0
 70 66  1  0
 70 74  1  0
 71 70  1  0
 72 73  1  0
 72 71  1  0
 73 69  1  0
 74 75  2  0
 75 76  1  0
 77 76  2  0
 78 77  1  0
 79 53  1  0
 79 80  1  0
 79 89  1  0
 80 83  1  0
 81 85  1  0
 81 80  1  0
 82 81  2  0
 85 84  1  0
 87 85  1  0
 87 88  1  0
 87 86  1  0
 89 92  1  1
 89 90  1  0
 91 89  1  0
M  ISO  4   9 100  17 100  51 101  52 101
M  END
>  <TORSDO>  (4) 
F 18

>  <SCORE>  (4) 
-14.953

>  <name>  (4) 
3

>  <ligand_id>  (4) 
3

>  <original_smiles>  (4) 
[H]c1c([H])c([H])c2c(c1[H])C([H])([H])C([H])([H])C([H])([H])C2([H])N([H])C(=O)C1([H])N(C(=O)C([H])(N([H])C(=O)C([H])(N([H])C([H])([H])[H])C([H])([H])[H])C(C([H])([H])[H])(C([H])([H])[H])C([H])([H])[H])C([H])([H])c2c([H])c(OC([H])([H])C(=O)N([H])c3c(C([H])([H])[H])c([H])c([H])c(N([H])C(=O)N4C([H])([H])C([H])([H])C([H])([H])C([H])(n5nc(-c6c([H])c([H])c(Oc7c([H])c([H])c(F)c([H])c7F)c([H])c6[H])c(C(=O)N([H])[H])c5N([H])[H])C4([H])[H])c3C([H])([H])[H])c([H])c([H])c2C1([H])[H]

>  <smiles>  (4) 
[H]c1c([H])c([H])c2c(c1[H])C([H])([H])C([H])([H])C([H])([H])C2([H])N([H])C(=O)C1([H])N(C(=O)C([H])(N([H])C(=O)C([H])(N([H])C([H])([H])[H])C([H])([H])[H])C(C([H])([H])[H])(C([H])([H])[H])C([H])([H])[H])C([H])([H])c2c([H])c(OC([H])([H])C(=O)N([H])c3c(C([H])([H])[H])c([H])c([H])c(N([H])C(=O)N4C([H])([H])C([H])([H])C([H])([H])C([H])(n5nc(-c6c([H])c([H])c(Oc7c([H])c([H])c(F)c([H])c7F)c([H])c6[H])c(C(=O)N([H])[H])c5N([H])[H])C4([H])[H])c3C([H])([H])[H])c([H])c([H])c2C1([H])[H]

$$$$
4:0:0
     RDKit          3D

 92100  0  0  1  0  0  0  0  0999 V2000
  -30.7610  -18.5510   20.6370 C   0  0  0  0  0  3  0  0  0  0  0  0
  -28.3930  -19.8200   19.9130 C   0  0  0  0  0  3  0  0  0  0  0  0
  -29.6920  -17.6390   20.3360 C   0  0  0  0  0  0  0  0  0  0  0  0
  -29.4540  -20.7310   20.2000 C   0  0  0  0  0  0  0  0  0  0  0  0
  -30.6520  -20.0050   20.5510 C   0  0  0  0  0  0  0  0  0  0  0  0
  -28.5140  -18.3760   19.9510 C   0  0  0  0  0  0  0  0  0  0  0  0
  -31.7660  -20.7370   20.8020 F   0  0  0  0  0  0  0  0  0  0  0  0
  -27.1480  -17.4850   19.4080 Cl  0  0  0  0  0  0  0  0  0  0  0  0
  -30.4970  -14.9780   20.3310 C   0  0  0  0  0  0  0  0  0  0  0  0
  -30.3790  -12.6370   19.3710 C   0  0  0  0  0  2  0  0  0  0  0  0
  -29.4350  -12.6290   18.1460 C   0  0  0  0  0  2  0  0  0  0  0  0
  -27.9690  -12.4270   18.5790 C   0  0  0  0  0  2  0  0  0  0  0  0
  -27.5730  -13.3280   19.7790 C   0  0  0  0  0  3  0  0  0  0  0  0
  -28.6390  -13.3020   20.8950 C   0  0  0  0  0  2  0  0  0  0  0  0
  -29.9160  -13.7120   20.2890 N   0  0  0  0  0  0  0  0  0  0  0  0
  -31.7000  -15.0730   20.0680 O   0  0  0  0  0  0  0  0  0  0  0  0
  -29.6460  -16.1050   20.4440 N   0  0  0  0  0  0  0  0  0  0  0  0
  -28.6940  -15.7840   20.5280 H   0  0  0  0  0  0  0  0  0  0  0  0
  -25.1850  -13.8960   20.5230 C   0  0  0  0  0  0  0  0  0  0  0  0
  -24.1230  -13.1230   20.8890 C   0  0  0  0  0  0  0  0  0  0  0  0
  -24.5910  -11.7760   20.8560 C   0  0  0  0  0  0  0  0  0  0  0  0
  -26.2330  -13.0250   20.2780 N   0  0  0  0  0  0  0  0  0  0  0  0
  -25.8830  -11.7410   20.5460 N   0  0  0  0  0  0  0  0  0  0  0  0
  -23.8630  -10.5170   21.0440 C   0  0  0  0  0  0  0  0  0  0  0  0
  -24.2930   -9.5470   21.9760 C   0  0  0  0  0  3  0  0  0  0  0  0
  -23.5620   -8.3540   22.1550 C   0  0  0  0  0  3  0  0  0  0  0  0
  -22.3880   -8.1220   21.4010 C   0  0  0  0  0  0  0  0  0  0  0  0
  -21.9760   -9.0790   20.4570 C   0  0  0  0  0  3  0  0  0  0  0  0
  -22.7080  -10.2640   20.2760 C   0  0  0  0  0  3  0  0  0  0  0  0
  -21.6290   -6.9790   21.4900 O   0  0  0  0  0  0  0  0  0  0  0  0
  -21.5820   -6.2350   22.6400 C   0  0  0  0  0  0  0  0  0  0  0  0
  -21.1660   -6.7890   23.8710 C   0  0  0  0  0  3  0  0  0  0  0  0
  -21.0650   -5.9710   25.0140 C   0  0  0  0  0  3  0  0  0  0  0  0
  -21.3710   -4.6000   24.9280 C   0  0  0  0  0  0  0  0  0  0  0  0
  -21.7810   -4.0450   23.7020 C   0  0  0  0  0  3  0  0  0  0  0  0
  -21.8830   -4.8600   22.5610 C   0  0  0  0  0  0  0  0  0  0  0  0
  -22.2580   -4.3160   21.3780 F   0  0  0  0  0  0  0  0  0  0  0  0
  -21.2680   -3.8120   26.0230 F   0  0  0  0  0  0  0  0  0  0  0  0
  -22.7250  -13.6050   21.1540 C   0  0  0  0  0  0  0  0  0  0  0  0
  -21.9930  -12.9110   22.0160 N   0  0  0  0  0  0  0  0  0  0  0  0
  -22.2940  -14.6320   20.6320 O   0  0  0  0  0  0  0  0  0  0  0  0
  -22.3580  -12.0830   22.4630 H   0  0  0  0  0  0  0  0  0  0  0  0
  -21.0550  -13.2140   22.2350 H   0  0  0  0  0  0  0  0  0  0  0  0
  -25.3230  -15.2640   20.3590 N   0  0  0  0  0  0  0  0  0  0  0  0
  -24.5320  -15.8880   20.4690 H   0  0  0  0  0  0  0  0  0  0  0  0
  -26.1320  -15.7380   19.9750 H   0  0  0  0  0  0  0  0  0  0  0  0
  -29.4120  -22.1990   19.9510 N   0  0  0  0  0  0  0  0  0  0  0  0
  -30.3550  -22.4950   19.7060 H   0  0  0  0  0  0  0  0  0  0  0  0
  -27.3570  -22.9650   21.2270 C   0  0  0  0  0  1  0  0  0  0  0  0
  -28.6900  -23.4070   20.6170 C   0  0  0  0  0  3  0  0  0  0  0  0
  -28.4710  -24.8560   19.7850 C   0  0  0  0  0  2  0  0  0  0  0  0
  -28.3550  -26.2920   20.3590 O   0  0  0  0  0  0  0  0  0  0  0  0
  -24.6180  -31.9040   23.2530 C   0  0  0  0  0  0  0  0  0  0  0  0
  -27.2490  -27.2060   20.2510 C   0  0  0  0  0  0  0  0  0  0  0  0
  -23.4300  -30.4920   21.6160 C   0  0  0  0  0  3  0  0  0  0  0  0
  -24.8920  -28.9120   20.2090 C   0  0  0  0  0  0  0  0  0  0  0  0
  -25.9800  -30.7730   21.4600 C   0  0  0  0  0  2  0  0  0  0  0  0
  -26.0630  -29.3790   20.8160 C   0  0  0  0  0  0  0  0  0  0  0  0
  -27.2360  -28.5390   20.8230 C   0  0  0  0  0  3  0  0  0  0  0  0
  -26.0460  -26.8260   19.6150 C   0  0  0  0  0  3  0  0  0  0  0  0
  -24.8940  -27.6470   19.5970 C   0  0  0  0  0  3  0  0  0  0  0  0
  -23.6580  -29.8010   20.2450 C   0  0  0  0  0  2  0  0  0  0  0  0
  -24.6950  -31.0790   22.1650 N   0  0  0  0  0  0  0  0  0  0  0  0
  -23.5290  -32.1890   23.7750 O   0  0  0  0  0  0  0  0  0  0  0  0
  -22.7510  -29.4920   22.5830 C   0  0  0  0  0  0  0  0  0  0  0  0
  -21.4220  -29.3240   22.4560 N   0  0  0  0  0  0  0  0  0  0  0  0
  -23.4200  -28.8680   23.4100 O   0  0  0  0  0  0  0  0  0  0  0  0
  -20.9390  -29.8780   21.7620 H   0  0  0  0  0  0  0  0  0  0  0  0
  -18.0370  -28.1430   22.9620 C   0  0  0  0  0  0  0  0  0  0  0  0
  -20.5970  -28.3940   23.2290 C   0  0  0  0  0  3  0  0  0  0  0  0
  -20.6910  -26.9600   22.6560 C   0  0  0  0  0  2  0  0  0  0  0  0
  -19.5880  -26.6390   21.6430 C   0  0  0  0  0  2  0  0  0  0  0  0
  -18.2070  -26.7920   22.2870 C   0  0  0  0  0  2  0  0  0  0  0  0
  -19.1590  -28.9020   23.3890 C   0  0  0  0  0  0  0  0  0  0  0  0
  -18.9450  -30.1660   23.9800 C   0  0  0  0  0  3  0  0  0  0  0  0
  -17.6410  -30.6710   24.1480 C   0  0  0  0  0  3  0  0  0  0  0  0
  -16.5350  -29.9100   23.7370 C   0  0  0  0  0  3  0  0  0  0  0  0
  -16.7320  -28.6480   23.1480 C   0  0  0  0  0  3  0  0  0  0  0  0
  -25.8920  -32.5460   23.8820 C   0  0  0  0  0  3  0  0  0  0  0  0
  -26.3920  -31.7910   25.1750 C   0  0  1  0  0  0  0  0  0  0  0  0
  -25.2860  -31.5710   26.2340 C   0  0  0  0  0  1  0  0  0  0  0  0
  -26.9750  -30.4060   24.8120 C   0  0  0  0  0  1  0  0  0  0  0  0
  -27.5380  -32.5910   25.8380 C   0  0  0  0  0  1  0  0  0  0  0  0
  -25.5780  -33.9500   24.1980 N   0  0  0  0  0  0  0  0  0  0  0  0
  -25.9160  -34.9980   23.4350 C   0  0  0  0  0  0  0  0  0  0  0  0
  -26.5910  -34.8880   22.4090 O   0  0  0  0  0  0  0  0  0  0  0  0
  -24.9760  -34.1080   24.9930 H   0  0  0  0  0  0  0  0  0  0  0  0
  -24.1890  -36.7930   23.0680 C   0  0  0  0  0  1  0  0  0  0  0  0
  -25.4300  -36.3920   23.8830 C   0  0  0  0  0  3  0  0  0  0  0  0
  -27.5630  -37.2830   24.7110 C   0  0  0  0  0  1  0  0  0  0  0  0
  -26.4640  -37.4430   23.7630 N   0  0  0  0  0  0  0  0  0  0  0  0
  -26.0570  -38.3650   23.9020 H   0  0  0  0  0  0  0  0  0  0  0  0
  2  6  2  0
  2  4  1  0
  3 17  1  0
  3  1  2  0
  4  5  2  0
  5  1  1  0
  5  7  1  0
  6  3  1  0
  8  6  1  0
  9 17  1  0
 10 15  1  0
 11 12  1  0
 11 10  1  0
 13 12  1  0
 13 22  1  0
 13 14  1  0
 15  9  1  0
 15 14  1  0
 16  9  2  0
 17 18  1  0
 19 20  2  0
 20 39  1  0
 21 20  1  0
 21 24  1  0
 22 19  1  0
 22 23  1  0
 23 21  2  0
 24 25  1  0
 25 26  2  0
 27 30  1  0
 27 26  1  0
 28 27  2  0
 29 28  1  0
 29 24  2  0
 30 31  1  0
 31 32  1  0
 32 33  2  0
 34 33  1  0
 34 38  1  0
 35 34  2  0
 36 31  2  0
 36 35  1  0
 37 36  1  0
 39 40  1  0
 40 43  1  0
 40 42  1  0
 41 39  2  0
 44 45  1  0
 44 19  1  0
 46 44  1  0
 47  4  1  0
 47 50  1  0
 48 47  1  0
 50 49  1  0
 51 52  1  0
 51 50  1  0
 53 64  2  0
 54 52  1  0
 54 59  1  0
 55 63  1  0
 55 65  1  0
 56 62  1  0
 56 58  1  0
 57 63  1  0
 58 59  2  0
 58 57  1  0
 60 54  2  0
 61 60  1  0
 61 56  2  0
 62 55  1  0
 63 53  1  0
 65 67  2  0
 66 65  1  0
 68 66  1  0
 69 78  2  0
 69 74  1  0
 70 66  1  0
 70 74  1  0
 71 70  1  0
 72 73  1  0
 72 71  1  0
 73 69  1  0
 74 75  2  0
 75 76  1  0
 77 76  2  0
 78 77  1  0
 79 53  1  0
 79 84  1  0
 79 80  1  0
 80 83  1  1
 80 81  1  0
 82 80  1  0
 84 87  1  0
 85 89  1  0
 85 84  1  0
 86 85  2  0
 89 88  1  0
 91 89  1  0
 91 92  1  0
 91 90  1  0
M  ISO  4   9 100  17 100  51 101  52 101
M  END
>  <TORSDO>  (5) 
F 19

>  <SCORE>  (5) 
-14.617

>  <name>  (5) 
4

>  <ligand_id>  (5) 
4

>  <original_smiles>  (5) 
[H]c1c([H])c([H])c2c(c1[H])C([H])([H])C([H])([H])C([H])([H])C2([H])N([H])C(=O)C1([H])N(C(=O)C([H])(N([H])C(=O)C([H])(N([H])C([H])([H])[H])C([H])([H])[H])C(C([H])([H])[H])(C([H])([H])[H])C([H])([H])[H])C([H])([H])c2c([H])c(OC([H])([H])C([H])(N([H])c3c([H])c(Cl)c(N([H])C(=O)N4C([H])([H])C([H])([H])C([H])([H])C([H])(n5nc(-c6c([H])c([H])c(Oc7c([H])c([H])c(F)c([H])c7F)c([H])c6[H])c(C(=O)N([H])[H])c5N([H])[H])C4([H])[H])c([H])c3F)C([H])([H])[H])c([H])c([H])c2C1([H])[H]

>  <smiles>  (5) 
[H]c1c([H])c([H])c2c(c1[H])C([H])([H])C([H])([H])C([H])([H])C2([H])N([H])C(=O)C1([H])N(C(=O)C([H])(N([H])C(=O)C([H])(N([H])C([H])([H])[H])C([H])([H])[H])C(C([H])([H])[H])(C([H])([H])[H])C([H])([H])[H])C([H])([H])c2c([H])c(OC([H])([H])C([H])(N([H])c3c([H])c(Cl)c(N([H])C(=O)N4C([H])([H])C([H])([H])C([H])([H])C([H])(n5nc(-c6c([H])c([H])c(Oc7c([H])c([H])c(F)c([H])c7F)c([H])c6[H])c(C(=O)N([H])[H])c5N([H])[H])C4([H])[H])c([H])c3F)C([H])([H])[H])c([H])c([H])c2C1([H])[H]

$$$$
5:0:0
     RDKit          3D

104111  0  0  1  0  0  0  0  0999 V2000
  -27.2620  -19.4080   27.4830 C   0  0  0  0  0  2  0  0  0  0  0  0
  -27.9850  -18.4500   26.5130 C   0  0  0  0  0  2  0  0  0  0  0  0
  -29.2590  -19.7440   24.8300 C   0  0  0  0  0  0  0  0  0  0  0  0
  -30.4290  -18.7440   26.7830 C   0  0  0  0  0  1  0  0  0  0  0  0
  -29.2300  -19.0300   25.9830 N   0  0  0  0  0  0  0  0  0  0  0  0
  -28.2620  -19.8760   24.1140 O   0  0  0  0  0  0  0  0  0  0  0  0
  -30.5720  -20.4260   24.4000 C   0  0  0  0  0  2  0  0  0  0  0  0
  -30.4190  -21.4970   23.2930 C   0  0  0  0  0  2  0  0  0  0  0  0
  -29.9110  -22.8730   23.7850 C   0  0  0  0  0  2  0  0  0  0  0  0
  -29.8240  -23.9430   22.6780 C   0  0  0  0  0  2  0  0  0  0  0  0
  -27.5170  -24.2820   21.7710 C   0  0  0  0  0  0  0  0  0  0  0  0
  -28.7210  -23.6990   21.7550 N   0  0  0  0  0  0  0  0  0  0  0  0
  -27.2080  -25.1780   22.5600 O   0  0  0  0  0  0  0  0  0  0  0  0
  -28.8760  -22.9880   21.0510 H   0  0  0  0  0  0  0  0  0  0  0  0
  -26.5180  -23.7430   20.7510 C   0  0  0  0  0  2  0  0  0  0  0  0
  -24.8740  -25.2630   19.6850 C   0  0  0  0  0  0  0  0  0  0  0  0
  -22.9250  -25.1570   18.1980 C   0  0  0  0  0  2  0  0  0  0  0  0
  -22.2180  -26.4830   17.8930 C   0  0  0  0  0  2  0  0  0  0  0  0
  -21.1730  -26.7900   18.9760 C   0  0  0  0  0  2  0  0  0  0  0  0
  -21.7680  -26.7100   20.4040 C   0  0  0  0  0  3  0  0  0  0  0  0
  -22.5480  -25.3920   20.6150 C   0  0  0  0  0  2  0  0  0  0  0  0
  -23.5330  -25.2330   19.5310 N   0  0  0  0  0  0  0  0  0  0  0  0
  -25.6660  -25.6330   18.8100 O   0  0  0  0  0  0  0  0  0  0  0  0
  -25.2620  -24.4880   20.7000 N   0  0  0  0  0  0  0  0  0  0  0  0
  -24.5430  -24.2010   21.3460 H   0  0  0  0  0  0  0  0  0  0  0  0
  -20.5820  -27.9100   22.3510 C   0  0  0  0  0  0  0  0  0  0  0  0
  -19.4060  -27.6480   23.0060 C   0  0  0  0  0  0  0  0  0  0  0  0
  -18.8810  -26.4590   22.4140 C   0  0  0  0  0  0  0  0  0  0  0  0
  -20.7300  -26.8940   21.4180 N   0  0  0  0  0  0  0  0  0  0  0  0
  -19.7200  -25.9890   21.5000 N   0  0  0  0  0  0  0  0  0  0  0  0
  -17.6000  -25.7700   22.6280 C   0  0  0  0  0  0  0  0  0  0  0  0
  -17.5480  -24.4150   23.0230 C   0  0  0  0  0  3  0  0  0  0  0  0
  -16.3060  -23.7810   23.2380 C   0  0  0  0  0  3  0  0  0  0  0  0
  -15.1000  -24.5020   23.0640 C   0  0  0  0  0  0  0  0  0  0  0  0
  -15.1580  -25.8440   22.6490 C   0  0  0  0  0  3  0  0  0  0  0  0
  -16.3950  -26.4720   22.4290 C   0  0  0  0  0  3  0  0  0  0  0  0
  -13.8480  -23.9610   23.2260 O   0  0  0  0  0  0  0  0  0  0  0  0
  -13.6140  -22.9370   24.1100 C   0  0  0  0  0  0  0  0  0  0  0  0
  -13.9640  -23.0370   25.4740 C   0  0  0  0  0  3  0  0  0  0  0  0
  -13.6420  -21.9890   26.3610 C   0  0  0  0  0  3  0  0  0  0  0  0
  -12.9660  -20.8490   25.8900 C   0  0  0  0  0  0  0  0  0  0  0  0
  -12.6130  -20.7510   24.5320 C   0  0  0  0  0  3  0  0  0  0  0  0
  -12.9330  -21.7930   23.6450 C   0  0  0  0  0  0  0  0  0  0  0  0
  -12.5730  -21.7030   22.3430 F   0  0  0  0  0  0  0  0  0  0  0  0
  -12.6500  -19.8460   26.7420 F   0  0  0  0  0  0  0  0  0  0  0  0
  -18.7570  -28.5060   24.0530 C   0  0  0  0  0  0  0  0  0  0  0  0
  -17.9930  -27.8980   24.9550 N   0  0  0  0  0  0  0  0  0  0  0  0
  -18.9630  -29.7170   24.1070 O   0  0  0  0  0  0  0  0  0  0  0  0
  -17.8390  -26.9010   24.9230 H   0  0  0  0  0  0  0  0  0  0  0  0
  -17.5550  -28.4380   25.6880 H   0  0  0  0  0  0  0  0  0  0  0  0
  -21.5220  -28.9280   22.4570 N   0  0  0  0  0  0  0  0  0  0  0  0
  -21.4060  -29.7110   23.0900 H   0  0  0  0  0  0  0  0  0  0  0  0
  -22.3470  -29.0070   21.8740 H   0  0  0  0  0  0  0  0  0  0  0  0
  -27.1720  -20.8570   26.9780 C   0  0  0  0  0  2  0  0  0  0  0  0
  -26.4660  -21.7920   27.9670 C   0  0  0  0  0  2  0  0  0  0  0  0
  -26.4430  -23.2430   27.4700 C   0  0  0  0  0  2  0  0  0  0  0  0
  -25.8740  -24.2160   28.5110 C   0  0  0  0  0  2  0  0  0  0  0  0
  -25.5020  -25.5700   27.8910 C   0  0  0  0  0  2  0  0  0  0  0  0
  -24.4160  -27.6300   28.7510 C   0  0  0  0  0  0  0  0  0  0  0  0
  -25.1760  -26.5410   28.9280 N   0  0  0  0  0  0  0  0  0  0  0  0
  -23.9020  -27.9020   27.6610 O   0  0  0  0  0  0  0  0  0  0  0  0
  -25.5720  -26.3940   29.8480 H   0  0  0  0  0  0  0  0  0  0  0  0
  -24.2100  -28.5510   29.9640 C   0  0  0  0  0  2  0  0  0  0  0  0
  -22.9210  -29.1660   29.8890 O   0  0  0  0  0  0  0  0  0  0  0  0
  -23.1380  -30.9240   36.7910 C   0  0  0  0  0  0  0  0  0  0  0  0
  -22.2650  -29.2950   31.0860 C   0  0  0  0  0  0  0  0  0  0  0  0
  -21.0750  -29.7970   36.0190 C   0  0  0  0  0  3  0  0  0  0  0  0
  -20.8230  -29.5650   33.4920 C   0  0  0  0  0  0  0  0  0  0  0  0
  -22.4730  -31.2040   34.4090 C   0  0  0  0  0  2  0  0  0  0  0  0
  -22.0090  -30.2870   33.3000 C   0  0  0  0  0  0  0  0  0  0  0  0
  -22.7390  -30.1510   32.1020 C   0  0  0  0  0  3  0  0  0  0  0  0
  -21.0670  -28.5830   31.2790 C   0  0  0  0  0  3  0  0  0  0  0  0
  -20.3470  -28.7070   32.4840 C   0  0  0  0  0  3  0  0  0  0  0  0
  -20.1060  -29.7690   34.8060 C   0  0  0  0  0  2  0  0  0  0  0  0
  -22.2850  -30.6430   35.7660 N   0  0  0  0  0  0  0  0  0  0  0  0
  -22.9080  -30.5280   37.9420 O   0  0  0  0  0  0  0  0  0  0  0  0
  -21.4160  -28.3410   36.4090 C   0  0  0  0  0  0  0  0  0  0  0  0
  -20.5170  -27.7020   37.1770 N   0  0  0  0  0  0  0  0  0  0  0  0
  -22.4490  -27.8020   36.0030 O   0  0  0  0  0  0  0  0  0  0  0  0
  -19.7000  -28.2170   37.4740 H   0  0  0  0  0  0  0  0  0  0  0  0
  -18.8420  -25.1730   39.1380 C   0  0  0  0  0  0  0  0  0  0  0  0
  -20.6090  -26.3170   37.6370 C   0  0  0  0  0  3  0  0  0  0  0  0
  -20.1600  -25.3330   36.5310 C   0  0  0  0  0  2  0  0  0  0  0  0
  -18.6770  -24.9640   36.6210 C   0  0  0  0  0  2  0  0  0  0  0  0
  -18.3620  -24.3200   37.9750 C   0  0  0  0  0  2  0  0  0  0  0  0
  -19.8880  -26.1200   38.9750 C   0  0  0  0  0  0  0  0  0  0  0  0
  -20.2750  -26.9090   40.0780 C   0  0  0  0  0  3  0  0  0  0  0  0
  -19.6410  -26.7640   41.3260 C   0  0  0  0  0  3  0  0  0  0  0  0
  -18.6180  -25.8130   41.4870 C   0  0  0  0  0  3  0  0  0  0  0  0
  -18.2240  -25.0170   40.3960 C   0  0  0  0  0  3  0  0  0  0  0  0
  -24.4320  -31.7730   36.5710 C   0  0  0  0  0  3  0  0  0  0  0  0
  -25.6550  -30.9220   36.0560 C   0  0  1  0  0  0  0  0  0  0  0  0
  -25.9500  -29.6770   36.9240 C   0  0  0  0  0  1  0  0  0  0  0  0
  -25.4170  -30.4450   34.6040 C   0  0  0  0  0  1  0  0  0  0  0  0
  -26.9310  -31.7980   36.0300 C   0  0  0  0  0  1  0  0  0  0  0  0
  -24.7500  -32.4280   37.8460 N   0  0  0  0  0  0  0  0  0  0  0  0
  -24.4350  -33.6930   38.1500 C   0  0  0  0  0  0  0  0  0  0  0  0
  -23.9020  -34.4630   37.3440 O   0  0  0  0  0  0  0  0  0  0  0  0
  -25.1370  -31.8420   38.5720 H   0  0  0  0  0  0  0  0  0  0  0  0
  -23.4920  -34.1490   40.4350 C   0  0  0  0  0  1  0  0  0  0  0  0
  -24.7630  -34.1840   39.5720 C   0  0  0  0  0  3  0  0  0  0  0  0
  -26.6940  -35.6020   39.0380 C   0  0  0  0  0  1  0  0  0  0  0  0
  -25.3500  -35.5410   39.6040 N   0  0  0  0  0  0  0  0  0  0  0  0
  -25.3950  -35.8900   40.5580 H   0  0  0  0  0  0  0  0  0  0  0  0
  2  1  1  0
  3  5  1  0
  5  2  1  0
  5  4  1  0
  6  3  2  0
  7  3  1  0
  8  9  1  0
  8  7  1  0
 10  9  1  0
 11 13  2  0
 12 11  1  0
 12 10  1  0
 14 12  1  0
 15 11  1  0
 16 24  1  0
 17 22  1  0
 18 17  1  0
 18 19  1  0
 20 19  1  0
 20 21  1  0
 20 29  1  0
 22 16  1  0
 22 21  1  0
 23 16  2  0
 24 15  1  0
 24 25  1  0
 26 51  1  0
 26 27  2  0
 27 46  1  0
 28 31  1  0
 28 27  1  0
 29 30  1  0
 29 26  1  0
 30 28  2  0
 31 32  1  0
 32 33  2  0
 34 37  1  0
 34 33  1  0
 35 34  2  0
 36 31  2  0
 36 35  1  0
 37 38  1  0
 38 39  1  0
 39 40  2  0
 41 40  1  0
 41 45  1  0
 42 41  2  0
 43 38  2  0
 43 42  1  0
 44 43  1  0
 46 48  2  0
 46 47  1  0
 47 50  1  0
 49 47  1  0
 51 52  1  0
 53 51  1  0
 54  1  1  0
 54 55  1  0
 56 55  1  0
 56 57  1  0
 58 57  1  0
 58 60  1  0
 59 60  1  0
 59 63  1  0
 60 62  1  0
 61 59  2  0
 64 63  1  0
 64 66  1  0
 65 76  2  0
 66 72  2  0
 66 71  1  0
 67 77  1  0
 68 74  1  0
 69 75  1  0
 70 68  1  0
 70 69  1  0
 71 70  2  0
 72 73  1  0
 73 68  2  0
 74 67  1  0
 75 67  1  0
 75 65  1  0
 77 78  1  0
 78 80  1  0
 79 77  2  0
 81 90  1  0
 82 78  1  0
 82 86  1  0
 83 84  1  0
 83 82  1  0
 84 85  1  0
 85 81  1  0
 86 81  2  0
 86 87  1  0
 87 88  2  0
 88 89  1  0
 90 89  2  0
 91 65  1  0
 91 96  1  0
 92 91  1  0
 92 93  1  1
 94 92  1  0
 95 92  1  0
 96 97  1  0
 96 99  1  0
 97101  1  0
 98 97  2  0
101103  1  0
101100  1  0
102103  1  0
103104  1  0
M  ISO  4  16 100  24 100  63 101  64 101
M  END
>  <TORSDO>  (6) 
F 31

>  <SCORE>  (6) 
23.782

>  <name>  (6) 
5

>  <ligand_id>  (6) 
5

>  <original_smiles>  (6) 
[H]c1c([H])c([H])c2c(c1[H])C([H])([H])C([H])([H])C([H])([H])C2([H])N([H])C(=O)C1([H])N(C(=O)C([H])(N([H])C(=O)C([H])(N([H])C([H])([H])[H])C([H])([H])[H])C(C([H])([H])[H])(C([H])([H])[H])C([H])([H])[H])C([H])([H])c2c([H])c(OC([H])([H])C(=O)N([H])C([H])([H])C([H])([H])C([H])([H])C([H])([H])C([H])([H])C([H])([H])C([H])([H])N(C(=O)C([H])([H])C([H])([H])C([H])([H])C([H])([H])N([H])C(=O)C([H])([H])N([H])C(=O)N3C([H])([H])C([H])([H])C([H])([H])C([H])(n4nc(-c5c([H])c([H])c(Oc6c([H])c([H])c(F)c([H])c6F)c([H])c5[H])c(C(=O)N([H])[H])c4N([H])[H])C3([H])[H])C([H])([H])[H])c([H])c([H])c2C1([H])[H]

>  <smiles>  (6) 
[H]c1c([H])c([H])c2c(c1[H])C([H])([H])C([H])([H])C([H])([H])C2([H])N([H])C(=O)C1([H])N(C(=O)C([H])(N([H])C(=O)C([H])(N([H])C([H])([H])[H])C([H])([H])[H])C(C([H])([H])[H])(C([H])([H])[H])C([H])([H])[H])C([H])([H])c2c([H])c(OC([H])([H])C(=O)N([H])C([H])([H])C([H])([H])C([H])([H])C([H])([H])C([H])([H])C([H])([H])C([H])([H])N(C(=O)C([H])([H])C([H])([H])C([H])([H])C([H])([H])N([H])C(=O)C([H])([H])N([H])C(=O)N3C([H])([H])C([H])([H])C([H])([H])C([H])(n4nc(-c5c([H])c([H])c(Oc6c([H])c([H])c(F)c([H])c6F)c([H])c5[H])c(C(=O)N([H])[H])c4N([H])[H])C3([H])[H])C([H])([H])[H])c([H])c([H])c2C1([H])[H]

$$$$
6:0:0
     RDKit          3D

 93101  0  0  1  0  0  0  0  0999 V2000
  -28.5210  -20.3110   18.8140 C   0  0  0  0  0  3  0  0  0  0  0  0
  -29.1400  -20.6060   20.0440 C   0  0  0  0  0  0  0  0  0  0  0  0
  -29.5350  -17.9150   20.2400 C   0  0  0  0  0  0  0  0  0  0  0  0
  -28.4380  -19.0060   18.2860 C   0  0  0  0  0  0  0  0  0  0  0  0
  -29.6280  -19.3450   20.7470 C   0  0  0  0  0  0  0  0  0  0  0  0
  -28.9270  -17.8540   18.9550 C   0  0  0  0  0  0  0  0  0  0  0  0
  -27.8540  -18.8560   17.0720 F   0  0  0  0  0  0  0  0  0  0  0  0
  -30.3450  -19.5390   22.3060 Cl  0  0  0  0  0  0  0  0  0  0  0  0
  -28.6850  -16.3380   18.1550 Cl  0  0  0  0  0  0  0  0  0  0  0  0
  -30.5900  -15.3430   20.7350 C   0  0  0  0  0  0  0  0  0  0  0  0
  -30.6750  -12.8980   19.9830 C   0  0  0  0  0  2  0  0  0  0  0  0
  -29.8540  -12.7000   18.6840 C   0  0  0  0  0  2  0  0  0  0  0  0
  -28.3750  -12.4350   19.0110 C   0  0  0  0  0  2  0  0  0  0  0  0
  -27.8300  -13.4040   20.0910 C   0  0  0  0  0  3  0  0  0  0  0  0
  -28.7860  -13.5630   21.2940 C   0  0  0  0  0  2  0  0  0  0  0  0
  -30.0750  -14.0320   20.7640 N   0  0  0  0  0  0  0  0  0  0  0  0
  -31.7930  -15.4260   20.4550 O   0  0  0  0  0  0  0  0  0  0  0  0
  -29.7850  -16.5290   20.9540 N   0  0  0  0  0  0  0  0  0  0  0  0
  -28.9780  -16.2760   21.5020 H   0  0  0  0  0  0  0  0  0  0  0  0
  -25.3940  -13.9200   20.6670 C   0  0  0  0  0  0  0  0  0  0  0  0
  -24.3270  -13.1180   20.9680 C   0  0  0  0  0  0  0  0  0  0  0  0
  -24.8270  -11.7800   20.9760 C   0  0  0  0  0  0  0  0  0  0  0  0
  -26.4720  -13.0670   20.5020 N   0  0  0  0  0  0  0  0  0  0  0  0
  -26.1370  -11.7760   20.7550 N   0  0  0  0  0  0  0  0  0  0  0  0
  -24.1200  -10.5010   21.1250 C   0  0  0  0  0  0  0  0  0  0  0  0
  -24.4920   -9.5610   22.1120 C   0  0  0  0  0  3  0  0  0  0  0  0
  -23.7820   -8.3480   22.2480 C   0  0  0  0  0  3  0  0  0  0  0  0
  -22.6870   -8.0660   21.3970 C   0  0  0  0  0  0  0  0  0  0  0  0
  -22.3350   -8.9950   20.4020 C   0  0  0  0  0  3  0  0  0  0  0  0
  -23.0470  -10.2000   20.2640 C   0  0  0  0  0  3  0  0  0  0  0  0
  -21.9560   -6.9030   21.4410 O   0  0  0  0  0  0  0  0  0  0  0  0
  -21.7940   -6.1970   22.6050 C   0  0  0  0  0  0  0  0  0  0  0  0
  -21.1880   -6.7700   23.7450 C   0  0  0  0  0  3  0  0  0  0  0  0
  -20.9770   -5.9880   24.8980 C   0  0  0  0  0  3  0  0  0  0  0  0
  -21.3640   -4.6340   24.9120 C   0  0  0  0  0  0  0  0  0  0  0  0
  -21.9620   -4.0600   23.7760 C   0  0  0  0  0  3  0  0  0  0  0  0
  -22.1740   -4.8400   22.6260 C   0  0  0  0  0  0  0  0  0  0  0  0
  -22.7320   -4.2770   21.5260 F   0  0  0  0  0  0  0  0  0  0  0  0
  -21.1550   -3.8800   26.0160 F   0  0  0  0  0  0  0  0  0  0  0  0
  -22.9040  -13.5630   21.1380 C   0  0  0  0  0  0  0  0  0  0  0  0
  -22.1360  -12.8540   21.9580 N   0  0  0  0  0  0  0  0  0  0  0  0
  -22.4780  -14.5720   20.5790 O   0  0  0  0  0  0  0  0  0  0  0  0
  -22.4920  -12.0380   22.4330 H   0  0  0  0  0  0  0  0  0  0  0  0
  -21.1800  -13.1350   22.1170 H   0  0  0  0  0  0  0  0  0  0  0  0
  -25.5360  -15.2930   20.4960 N   0  0  0  0  0  0  0  0  0  0  0  0
  -24.7510  -15.9320   20.5660 H   0  0  0  0  0  0  0  0  0  0  0  0
  -26.3920  -15.7470   20.2080 H   0  0  0  0  0  0  0  0  0  0  0  0
  -28.3930  -23.2710   20.2480 C   0  0  0  0  0  0  0  0  0  0  0  0
  -30.7060  -22.5350   20.6100 C   0  0  0  0  0  1  0  0  0  0  0  0
  -29.3260  -22.1530   20.3040 N   0  0  0  0  0  0  0  0  0  0  0  0
  -27.2540  -23.0590   20.6770 O   0  0  0  0  0  0  0  0  0  0  0  0
  -28.5980  -24.8230   19.5700 C   0  0  0  0  0  2  0  0  0  0  0  0
  -28.4270  -26.2680   20.2140 O   0  0  0  0  0  0  0  0  0  0  0  0
  -24.7730  -31.9250   23.2780 C   0  0  0  0  0  0  0  0  0  0  0  0
  -27.3740  -27.2720   20.0840 C   0  0  0  0  0  0  0  0  0  0  0  0
  -23.5750  -30.5610   21.6080 C   0  0  0  0  0  3  0  0  0  0  0  0
  -25.0300  -29.0350   20.1150 C   0  0  0  0  0  0  0  0  0  0  0  0
  -26.1260  -30.8410   21.4340 C   0  0  0  0  0  2  0  0  0  0  0  0
  -26.2060  -29.4640   20.7380 C   0  0  0  0  0  0  0  0  0  0  0  0
  -27.3690  -28.5960   20.7120 C   0  0  0  0  0  3  0  0  0  0  0  0
  -26.1740  -26.9640   19.4090 C   0  0  0  0  0  3  0  0  0  0  0  0
  -25.0310  -27.8040   19.4320 C   0  0  0  0  0  3  0  0  0  0  0  0
  -23.7920  -29.9220   20.2070 C   0  0  0  0  0  2  0  0  0  0  0  0
  -24.8450  -31.1330   22.1620 N   0  0  0  0  0  0  0  0  0  0  0  0
  -23.6880  -32.1840   23.8220 O   0  0  0  0  0  0  0  0  0  0  0  0
  -22.9110  -29.5260   22.5510 C   0  0  0  0  0  0  0  0  0  0  0  0
  -21.5840  -29.3410   22.4280 N   0  0  0  0  0  0  0  0  0  0  0  0
  -23.5930  -28.8920   23.3590 O   0  0  0  0  0  0  0  0  0  0  0  0
  -21.0870  -29.9070   21.7530 H   0  0  0  0  0  0  0  0  0  0  0  0
  -18.2270  -28.0560   22.9020 C   0  0  0  0  0  0  0  0  0  0  0  0
  -20.7800  -28.3710   23.1780 C   0  0  0  0  0  3  0  0  0  0  0  0
  -20.9140  -26.9540   22.5770 C   0  0  0  0  0  2  0  0  0  0  0  0
  -19.8210  -26.6260   21.5530 C   0  0  0  0  0  2  0  0  0  0  0  0
  -18.4360  -26.7250   22.1980 C   0  0  0  0  0  2  0  0  0  0  0  0
  -19.3280  -28.8360   23.3490 C   0  0  0  0  0  0  0  0  0  0  0  0
  -19.0770  -30.0790   23.9700 C   0  0  0  0  0  3  0  0  0  0  0  0
  -17.7600  -30.5430   24.1450 C   0  0  0  0  0  3  0  0  0  0  0  0
  -16.6750  -29.7610   23.7120 C   0  0  0  0  0  3  0  0  0  0  0  0
  -16.9100  -28.5190   23.0970 C   0  0  0  0  0  3  0  0  0  0  0  0
  -26.0470  -32.5590   23.9150 C   0  0  0  0  0  3  0  0  0  0  0  0
  -25.7120  -33.9340   24.3240 N   0  0  0  0  0  0  0  0  0  0  0  0
  -26.0300  -35.0370   23.6350 C   0  0  0  0  0  0  0  0  0  0  0  0
  -26.7020  -35.0070   22.6010 O   0  0  0  0  0  0  0  0  0  0  0  0
  -25.1130  -34.0300   25.1310 H   0  0  0  0  0  0  0  0  0  0  0  0
  -24.2960  -36.8450   23.3740 C   0  0  0  0  0  1  0  0  0  0  0  0
  -25.5260  -36.3910   24.1780 C   0  0  0  0  0  3  0  0  0  0  0  0
  -27.6370  -37.2350   25.1090 C   0  0  0  0  0  1  0  0  0  0  0  0
  -26.5530  -37.4550   24.1540 N   0  0  0  0  0  0  0  0  0  0  0  0
  -26.1380  -38.3610   24.3500 H   0  0  0  0  0  0  0  0  0  0  0  0
  -26.5970  -31.7410   25.1490 C   0  0  1  0  0  0  0  0  0  0  0  0
  -25.5250  -31.4370   26.2230 C   0  0  0  0  0  1  0  0  0  0  0  0
  -27.1970  -30.3920   24.6910 C   0  0  0  0  0  1  0  0  0  0  0  0
  -27.7450  -32.5250   25.8270 C   0  0  0  0  0  1  0  0  0  0  0  0
  1  2  1  0
  2 50  1  0
  2  5  2  0
  3  5  1  0
  3 18  1  0
  4  1  2  0
  4  6  1  0
  5  8  1  0
  6  3  2  0
  7  4  1  0
  9  6  1  0
 10 16  1  0
 10 18  1  0
 11 16  1  0
 12 13  1  0
 12 11  1  0
 14 13  1  0
 14 23  1  0
 14 15  1  0
 16 15  1  0
 17 10  2  0
 18 19  1  0
 20 21  2  0
 21 22  1  0
 21 40  1  0
 22 25  1  0
 23 20  1  0
 23 24  1  0
 24 22  2  0
 25 26  1  0
 26 27  2  0
 28 31  1  0
 28 27  1  0
 29 28  2  0
 30 29  1  0
 30 25  2  0
 31 32  1  0
 32 37  2  0
 32 33  1  0
 33 34  2  0
 34 35  1  0
 35 39  1  0
 36 35  2  0
 37 36  1  0
 38 37  1  0
 40 41  1  0
 41 44  1  0
 41 43  1  0
 42 40  2  0
 45 46  1  0
 45 20  1  0
 47 45  1  0
 48 50  1  0
 48 51  2  0
 50 49  1  0
 52 53  1  0
 52 48  1  0
 54 65  2  0
 55 53  1  0
 55 60  1  0
 56 64  1  0
 56 66  1  0
 57 63  1  0
 57 59  1  0
 58 64  1  0
 59 58  1  0
 60 59  2  0
 61 62  1  0
 61 55  2  0
 62 57  2  0
 63 56  1  0
 64 54  1  0
 66 68  2  0
 67 66  1  0
 69 67  1  0
 70 79  2  0
 70 75  1  0
 71 67  1  0
 71 75  1  0
 72 71  1  0
 73 74  1  0
 73 72  1  0
 74 70  1  0
 75 76  2  0
 76 77  1  0
 78 77  2  0
 79 78  1  0
 80 54  1  0
 80 81  1  0
 80 90  1  0
 81 84  1  0
 82 86  1  0
 82 81  1  0
 83 82  2  0
 86 85  1  0
 88 86  1  0
 88 89  1  0
 88 87  1  0
 90 93  1  1
 90 91  1  0
 92 90  1  0
M  ISO  4  10 100  18 100  52 101  53 101
M  END
>  <TORSDO>  (7) 
F 18

>  <SCORE>  (7) 
-14.228

>  <name>  (7) 
6

>  <ligand_id>  (7) 
6

>  <original_smiles>  (7) 
[H]c1c([H])c([H])c2c(c1[H])C([H])([H])C([H])([H])C([H])([H])C2([H])N([H])C(=O)C1([H])N(C(=O)C([H])(N([H])C(=O)C([H])(N([H])C([H])([H])[H])C([H])([H])[H])C(C([H])([H])[H])(C([H])([H])[H])C([H])([H])[H])C([H])([H])c2c([H])c(OC([H])([H])C(=O)N(c3c([H])c(F)c(Cl)c(N([H])C(=O)N4C([H])([H])C([H])([H])C([H])([H])C([H])(n5nc(-c6c([H])c([H])c(Oc7c([H])c([H])c(F)c([H])c7F)c([H])c6[H])c(C(=O)N([H])[H])c5N([H])[H])C4([H])[H])c3Cl)C([H])([H])[H])c([H])c([H])c2C1([H])[H]

>  <smiles>  (7) 
[H]c1c([H])c([H])c2c(c1[H])C([H])([H])C([H])([H])C([H])([H])C2([H])N([H])C(=O)C1([H])N(C(=O)C([H])(N([H])C(=O)C([H])(N([H])C([H])([H])[H])C([H])([H])[H])C(C([H])([H])[H])(C([H])([H])[H])C([H])([H])[H])C([H])([H])c2c([H])c(OC([H])([H])C(=O)N(c3c([H])c(F)c(Cl)c(N([H])C(=O)N4C([H])([H])C([H])([H])C([H])([H])C([H])(n5nc(-c6c([H])c([H])c(Oc7c([H])c([H])c(F)c([H])c7F)c([H])c6[H])c(C(=O)N([H])[H])c5N([H])[H])C4([H])[H])c3Cl)C([H])([H])[H])c([H])c([H])c2C1([H])[H]

$$$$
7:0:0
     RDKit          3D

 93101  0  0  1  0  0  0  0  0999 V2000
  -31.3680  -18.1970   20.9200 C   0  0  0  0  0  3  0  0  0  0  0  0
  -30.0460  -17.8710   20.5600 C   0  0  0  0  0  0  0  0  0  0  0  0
  -29.5820  -20.5460   20.5950 C   0  0  0  0  0  0  0  0  0  0  0  0
  -31.7880  -19.5230   21.1480 C   0  0  0  0  0  0  0  0  0  0  0  0
  -29.1740  -19.0990   20.4050 C   0  0  0  0  0  0  0  0  0  0  0  0
  -30.9390  -20.6470   21.0140 C   0  0  0  0  0  0  0  0  0  0  0  0
  -33.0700  -19.7260   21.5380 F   0  0  0  0  0  0  0  0  0  0  0  0
  -27.8820  -18.8760   20.0610 F   0  0  0  0  0  0  0  0  0  0  0  0
  -31.4790  -21.8370   21.3550 F   0  0  0  0  0  0  0  0  0  0  0  0
  -30.4840  -15.1270   20.3330 C   0  0  0  0  0  0  0  0  0  0  0  0
  -30.3850  -12.7650   19.3650 C   0  0  0  0  0  2  0  0  0  0  0  0
  -29.4370  -12.6760   18.1460 C   0  0  0  0  0  2  0  0  0  0  0  0
  -27.9870  -12.4280   18.6020 C   0  0  0  0  0  2  0  0  0  0  0  0
  -27.5760  -13.3450   19.7820 C   0  0  0  0  0  3  0  0  0  0  0  0
  -28.6470  -13.3990   20.8920 C   0  0  0  0  0  2  0  0  0  0  0  0
  -29.8890  -13.8590   20.2560 N   0  0  0  0  0  0  0  0  0  0  0  0
  -31.6950  -15.1560   20.0830 O   0  0  0  0  0  0  0  0  0  0  0  0
  -29.7110  -16.3450   20.4410 N   0  0  0  0  0  0  0  0  0  0  0  0
  -28.7210  -16.1600   20.4550 H   0  0  0  0  0  0  0  0  0  0  0  0
  -25.2020  -13.8780   20.5660 C   0  0  0  0  0  0  0  0  0  0  0  0
  -24.1540  -13.0840   20.9380 C   0  0  0  0  0  0  0  0  0  0  0  0
  -24.6360  -11.7400   20.8860 C   0  0  0  0  0  0  0  0  0  0  0  0
  -26.2540  -13.0170   20.3010 N   0  0  0  0  0  0  0  0  0  0  0  0
  -25.9250  -11.7250   20.5620 N   0  0  0  0  0  0  0  0  0  0  0  0
  -23.9270  -10.4660   21.0670 C   0  0  0  0  0  0  0  0  0  0  0  0
  -24.3730   -9.4960   21.9920 C   0  0  0  0  0  3  0  0  0  0  0  0
  -23.6610   -8.2890   22.1620 C   0  0  0  0  0  3  0  0  0  0  0  0
  -22.4890   -8.0430   21.4090 C   0  0  0  0  0  0  0  0  0  0  0  0
  -22.0620   -9.0020   20.4720 C   0  0  0  0  0  3  0  0  0  0  0  0
  -22.7760  -10.2000   20.3000 C   0  0  0  0  0  3  0  0  0  0  0  0
  -21.7470   -6.8890   21.4890 O   0  0  0  0  0  0  0  0  0  0  0  0
  -21.6970   -6.1460   22.6410 C   0  0  0  0  0  0  0  0  0  0  0  0
  -21.2220   -6.6860   23.8560 C   0  0  0  0  0  3  0  0  0  0  0  0
  -21.1200   -5.8670   24.9980 C   0  0  0  0  0  3  0  0  0  0  0  0
  -21.4840   -4.5100   24.9270 C   0  0  0  0  0  0  0  0  0  0  0  0
  -21.9520   -3.9690   23.7170 C   0  0  0  0  0  3  0  0  0  0  0  0
  -22.0550   -4.7850   22.5760 C   0  0  0  0  0  0  0  0  0  0  0  0
  -22.4870   -4.2530   21.4070 F   0  0  0  0  0  0  0  0  0  0  0  0
  -21.3800   -3.7210   26.0220 F   0  0  0  0  0  0  0  0  0  0  0  0
  -22.7540  -13.5400   21.2280 C   0  0  0  0  0  0  0  0  0  0  0  0
  -22.0440  -12.8280   22.0950 N   0  0  0  0  0  0  0  0  0  0  0  0
  -22.2980  -14.5640   20.7190 O   0  0  0  0  0  0  0  0  0  0  0  0
  -22.4270  -12.0000   22.5280 H   0  0  0  0  0  0  0  0  0  0  0  0
  -21.1050  -13.1150   22.3310 H   0  0  0  0  0  0  0  0  0  0  0  0
  -25.3430  -15.2530   20.4020 N   0  0  0  0  0  0  0  0  0  0  0  0
  -24.5630  -15.8900   20.5260 H   0  0  0  0  0  0  0  0  0  0  0  0
  -26.1680  -15.7090   20.0350 H   0  0  0  0  0  0  0  0  0  0  0  0
  -28.9810  -23.2940   20.3820 C   0  0  0  0  0  0  0  0  0  0  0  0
  -28.7230  -21.8640   20.4640 N   0  0  0  0  0  0  0  0  0  0  0  0
  -30.1410  -23.6890   20.2700 O   0  0  0  0  0  0  0  0  0  0  0  0
  -27.7310  -21.6680   20.4320 H   0  0  0  0  0  0  0  0  0  0  0  0
  -27.8510  -24.5470   20.3370 C   0  0  0  0  0  2  0  0  0  0  0  0
  -28.1950  -26.1020   20.3930 O   0  0  0  0  0  0  0  0  0  0  0  0
  -24.6340  -31.9710   23.2760 C   0  0  0  0  0  0  0  0  0  0  0  0
  -27.1700  -27.1410   20.3190 C   0  0  0  0  0  0  0  0  0  0  0  0
  -23.4310  -30.5680   21.6490 C   0  0  0  0  0  3  0  0  0  0  0  0
  -24.8700  -28.9560   20.2500 C   0  0  0  0  0  0  0  0  0  0  0  0
  -25.9920  -30.7890   21.4980 C   0  0  0  0  0  2  0  0  0  0  0  0
  -26.0560  -29.3830   20.8620 C   0  0  0  0  0  0  0  0  0  0  0  0
  -27.2060  -28.4950   20.8750 C   0  0  0  0  0  3  0  0  0  0  0  0
  -25.9560  -26.8340   19.6650 C   0  0  0  0  0  3  0  0  0  0  0  0
  -24.8380  -27.6970   19.6340 C   0  0  0  0  0  3  0  0  0  0  0  0
  -23.6540  -29.8730   20.2800 C   0  0  0  0  0  2  0  0  0  0  0  0
  -24.7070  -31.1330   22.1960 N   0  0  0  0  0  0  0  0  0  0  0  0
  -23.5470  -32.2740   23.7940 O   0  0  0  0  0  0  0  0  0  0  0  0
  -22.7330  -29.5810   22.6200 C   0  0  0  0  0  0  0  0  0  0  0  0
  -21.4050  -29.4130   22.4810 N   0  0  0  0  0  0  0  0  0  0  0  0
  -23.3900  -28.9690   23.4650 O   0  0  0  0  0  0  0  0  0  0  0  0
  -20.9300  -29.9590   21.7750 H   0  0  0  0  0  0  0  0  0  0  0  0
  -18.0140  -28.2320   22.9690 C   0  0  0  0  0  0  0  0  0  0  0  0
  -20.5720  -28.4920   23.2580 C   0  0  0  0  0  3  0  0  0  0  0  0
  -20.6740  -27.0500   22.7080 C   0  0  0  0  0  2  0  0  0  0  0  0
  -19.5810  -26.7130   21.6880 C   0  0  0  0  0  2  0  0  0  0  0  0
  -18.1940  -26.8720   22.3150 C   0  0  0  0  0  2  0  0  0  0  0  0
  -19.1300  -28.9990   23.3970 C   0  0  0  0  0  0  0  0  0  0  0  0
  -18.9060  -30.2690   23.9710 C   0  0  0  0  0  3  0  0  0  0  0  0
  -17.6010  -30.7730   24.1200 C   0  0  0  0  0  3  0  0  0  0  0  0
  -16.4990  -30.0040   23.7060 C   0  0  0  0  0  3  0  0  0  0  0  0
  -16.7070  -28.7350   23.1370 C   0  0  0  0  0  3  0  0  0  0  0  0
  -25.9130  -32.6050   23.9030 C   0  0  0  0  0  3  0  0  0  0  0  0
  -25.6040  -34.0080   24.2320 N   0  0  0  0  0  0  0  0  0  0  0  0
  -25.9170  -35.0600   23.4640 C   0  0  0  0  0  0  0  0  0  0  0  0
  -26.5620  -34.9530   22.4170 O   0  0  0  0  0  0  0  0  0  0  0  0
  -25.0270  -34.1630   25.0450 H   0  0  0  0  0  0  0  0  0  0  0  0
  -24.1730  -36.8500   23.1640 C   0  0  0  0  0  1  0  0  0  0  0  0
  -25.4450  -36.4520   23.9300 C   0  0  0  0  0  3  0  0  0  0  0  0
  -27.6010  -37.3550   24.6820 C   0  0  0  0  0  1  0  0  0  0  0  0
  -26.4690  -37.5070   23.7710 N   0  0  0  0  0  0  0  0  0  0  0  0
  -26.0650  -38.4280   23.9190 H   0  0  0  0  0  0  0  0  0  0  0  0
  -26.4150  -31.8400   25.1900 C   0  0  1  0  0  0  0  0  0  0  0  0
  -25.3130  -31.6150   26.2510 C   0  0  0  0  0  1  0  0  0  0  0  0
  -26.9950  -30.4570   24.8170 C   0  0  0  0  0  1  0  0  0  0  0  0
  -27.5640  -32.6350   25.8550 C   0  0  0  0  0  1  0  0  0  0  0  0
  1  4  1  0
  2  1  2  0
  3  6  1  0
  4  7  1  0
  5  2  1  0
  5  3  2  0
  6  4  2  0
  6  9  1  0
  8  5  1  0
 10 18  1  0
 11 16  1  0
 12 13  1  0
 12 11  1  0
 14 13  1  0
 14 23  1  0
 14 15  1  0
 16 10  1  0
 16 15  1  0
 17 10  2  0
 18 19  1  0
 18  2  1  0
 20 21  2  0
 21 40  1  0
 22 21  1  0
 22 25  1  0
 23 24  1  0
 23 20  1  0
 24 22  2  0
 25 26  1  0
 26 27  2  0
 28 31  1  0
 28 27  1  0
 29 28  2  0
 30 29  1  0
 30 25  2  0
 31 32  1  0
 32 33  1  0
 33 34  2  0
 35 34  1  0
 35 39  1  0
 36 35  2  0
 37 32  2  0
 37 36  1  0
 38 37  1  0
 40 41  1  0
 41 44  1  0
 41 43  1  0
 42 40  2  0
 45 46  1  0
 45 20  1  0
 47 45  1  0
 48 49  1  0
 49  3  1  0
 50 48  2  0
 51 49  1  0
 52 48  1  0
 52 53  1  0
 54 65  2  0
 55 53  1  0
 55 60  1  0
 56 64  1  0
 56 66  1  0
 57 63  1  0
 57 59  1  0
 58 64  1  0
 59 60  2  0
 59 58  1  0
 61 55  2  0
 62 61  1  0
 62 57  2  0
 63 56  1  0
 64 54  1  0
 66 68  2  0
 67 66  1  0
 69 67  1  0
 70 79  2  0
 70 75  1  0
 71 67  1  0
 71 75  1  0
 72 71  1  0
 73 74  1  0
 73 72  1  0
 74 70  1  0
 75 76  2  0
 76 77  1  0
 78 77  2  0
 79 78  1  0
 80 54  1  0
 80 81  1  0
 80 90  1  0
 81 84  1  0
 82 86  1  0
 82 81  1  0
 83 82  2  0
 86 85  1  0
 88 89  1  0
 88 86  1  0
 88 87  1  0
 90 93  1  1
 90 91  1  0
 92 90  1  0
M  ISO  4  10 100  18 100  52 101  53 101
M  END
>  <TORSDO>  (8) 
F 18

>  <SCORE>  (8) 
-15.043

>  <name>  (8) 
7

>  <ligand_id>  (8) 
7

>  <original_smiles>  (8) 
[H]c1c([H])c([H])c2c(c1[H])C([H])([H])C([H])([H])C([H])([H])C2([H])N([H])C(=O)C1([H])N(C(=O)C([H])(N([H])C(=O)C([H])(N([H])C([H])([H])[H])C([H])([H])[H])C(C([H])([H])[H])(C([H])([H])[H])C([H])([H])[H])C([H])([H])c2c([H])c(OC([H])([H])C(=O)N([H])c3c(F)c(F)c([H])c(N([H])C(=O)N4C([H])([H])C([H])([H])C([H])([H])C([H])(n5nc(-c6c([H])c([H])c(Oc7c([H])c([H])c(F)c([H])c7F)c([H])c6[H])c(C(=O)N([H])[H])c5N([H])[H])C4([H])[H])c3F)c([H])c([H])c2C1([H])[H]

>  <smiles>  (8) 
[H]c1c([H])c([H])c2c(c1[H])C([H])([H])C([H])([H])C([H])([H])C2([H])N([H])C(=O)C1([H])N(C(=O)C([H])(N([H])C(=O)C([H])(N([H])C([H])([H])[H])C([H])([H])[H])C(C([H])([H])[H])(C([H])([H])[H])C([H])([H])[H])C([H])([H])c2c([H])c(OC([H])([H])C(=O)N([H])c3c(F)c(F)c([H])c(N([H])C(=O)N4C([H])([H])C([H])([H])C([H])([H])C([H])(n5nc(-c6c([H])c([H])c(Oc7c([H])c([H])c(F)c([H])c7F)c([H])c6[H])c(C(=O)N([H])[H])c5N([H])[H])C4([H])[H])c3F)c([H])c([H])c2C1([H])[H]

$$$$
8:0:0
     RDKit          3D

 94102  0  0  1  0  0  0  0  0999 V2000
  -29.6320  -20.4570   18.6220 C   0  0  0  0  0  3  0  0  0  0  0  0
  -29.3410  -19.1250   20.6130 C   0  0  0  0  0  3  0  0  0  0  0  0
  -30.0390  -19.2730   17.9530 C   0  0  0  0  0  0  0  0  0  0  0  0
  -29.2530  -20.4870   19.9760 C   0  0  0  0  0  0  0  0  0  0  0  0
  -29.8020  -17.8440   19.9800 C   0  0  0  0  0  0  0  0  0  0  0  0
  -30.1310  -18.0120   18.6100 C   0  0  0  0  0  0  0  0  0  0  0  0
  -30.4730  -16.9230   17.8790 F   0  0  0  0  0  0  0  0  0  0  0  0
  -30.6230  -15.2200   20.3750 C   0  0  0  0  0  0  0  0  0  0  0  0
  -30.6310  -12.8140   19.5560 C   0  0  0  0  0  2  0  0  0  0  0  0
  -29.7420  -12.6870   18.2970 C   0  0  0  0  0  2  0  0  0  0  0  0
  -28.2720  -12.4510   18.6900 C   0  0  0  0  0  2  0  0  0  0  0  0
  -27.8010  -13.3940   19.8280 C   0  0  0  0  0  3  0  0  0  0  0  0
  -28.8190  -13.4750   20.9810 C   0  0  0  0  0  2  0  0  0  0  0  0
  -30.0890  -13.9240   20.3960 N   0  0  0  0  0  0  0  0  0  0  0  0
  -31.8280  -15.2970   20.1050 O   0  0  0  0  0  0  0  0  0  0  0  0
  -29.8100  -16.3930   20.5540 N   0  0  0  0  0  0  0  0  0  0  0  0
  -28.9480  -16.1680   21.0240 H   0  0  0  0  0  0  0  0  0  0  0  0
  -25.3920  -13.9320   20.5010 C   0  0  0  0  0  0  0  0  0  0  0  0
  -24.3320  -13.1420   20.8490 C   0  0  0  0  0  0  0  0  0  0  0  0
  -24.8210  -11.8000   20.8440 C   0  0  0  0  0  0  0  0  0  0  0  0
  -26.4560  -13.0720   20.2950 N   0  0  0  0  0  0  0  0  0  0  0  0
  -26.1220  -11.7840   20.5690 N   0  0  0  0  0  0  0  0  0  0  0  0
  -24.1120  -10.5270   21.0280 C   0  0  0  0  0  0  0  0  0  0  0  0
  -24.5290   -9.5770   21.9880 C   0  0  0  0  0  3  0  0  0  0  0  0
  -23.8150   -8.3700   22.1590 C   0  0  0  0  0  3  0  0  0  0  0  0
  -22.6700   -8.1080   21.3710 C   0  0  0  0  0  0  0  0  0  0  0  0
  -22.2720   -9.0450   20.4030 C   0  0  0  0  0  3  0  0  0  0  0  0
  -22.9860  -10.2420   20.2290 C   0  0  0  0  0  3  0  0  0  0  0  0
  -21.9310   -6.9510   21.4490 O   0  0  0  0  0  0  0  0  0  0  0  0
  -21.8480   -6.2250   22.6110 C   0  0  0  0  0  0  0  0  0  0  0  0
  -21.3320   -6.7820   23.8010 C   0  0  0  0  0  3  0  0  0  0  0  0
  -21.2000   -5.9800   24.9520 C   0  0  0  0  0  3  0  0  0  0  0  0
  -21.5770   -4.6250   24.9150 C   0  0  0  0  0  0  0  0  0  0  0  0
  -22.0890   -4.0680   23.7290 C   0  0  0  0  0  3  0  0  0  0  0  0
  -22.2210   -4.8660   22.5790 C   0  0  0  0  0  0  0  0  0  0  0  0
  -22.6940   -4.3200   21.4330 F   0  0  0  0  0  0  0  0  0  0  0  0
  -21.4440   -3.8520   26.0190 F   0  0  0  0  0  0  0  0  0  0  0  0
  -22.9190  -13.6010   21.0730 C   0  0  0  0  0  0  0  0  0  0  0  0
  -22.1720  -12.9050   21.9200 N   0  0  0  0  0  0  0  0  0  0  0  0
  -22.4860  -14.6160   20.5280 O   0  0  0  0  0  0  0  0  0  0  0  0
  -22.5310  -12.0900   22.3930 H   0  0  0  0  0  0  0  0  0  0  0  0
  -21.2230  -13.2020   22.1060 H   0  0  0  0  0  0  0  0  0  0  0  0
  -25.5300  -15.3030   20.3130 N   0  0  0  0  0  0  0  0  0  0  0  0
  -24.7360  -15.9310   20.3980 H   0  0  0  0  0  0  0  0  0  0  0  0
  -26.3610  -15.7610   19.9600 H   0  0  0  0  0  0  0  0  0  0  0  0
  -30.3380  -19.3510   16.4580 C   0  0  1  0  0  0  0  0  0  0  0  0
  -30.3080  -20.6060   16.0010 F   0  0  0  0  0  0  0  0  0  0  0  0
  -31.5470  -18.8570   16.1930 F   0  0  0  0  0  0  0  0  0  0  0  0
  -29.4290  -18.6500   15.7790 F   0  0  0  0  0  0  0  0  0  0  0  0
  -28.5350  -21.7150   21.9600 C   0  0  0  0  0  1  0  0  0  0  0  0
  -28.8010  -21.8190   20.5300 N   0  0  0  0  0  0  0  0  0  0  0  0
  -28.9540  -23.2970   19.9470 C   0  0  0  0  0  3  0  0  0  0  0  0
  -28.0320  -24.6850   20.3790 C   0  0  0  0  0  3  0  0  0  0  0  0
  -28.2730  -26.2200   20.0580 O   0  0  0  0  0  0  0  0  0  0  0  0
  -24.6380  -31.9100   23.1570 C   0  0  0  0  0  0  0  0  0  0  0  0
  -27.2160  -27.2180   20.0550 C   0  0  0  0  0  0  0  0  0  0  0  0
  -23.4340  -30.5190   21.5180 C   0  0  0  0  0  3  0  0  0  0  0  0
  -24.8790  -28.9690   20.0620 C   0  0  0  0  0  0  0  0  0  0  0  0
  -25.9870  -30.8060   21.3270 C   0  0  0  0  0  2  0  0  0  0  0  0
  -26.0660  -29.4160   20.6580 C   0  0  0  0  0  0  0  0  0  0  0  0
  -27.2360  -28.5600   20.6300 C   0  0  0  0  0  3  0  0  0  0  0  0
  -26.0020  -26.8850   19.4170 C   0  0  0  0  0  3  0  0  0  0  0  0
  -24.8620  -27.7180   19.4280 C   0  0  0  0  0  3  0  0  0  0  0  0
  -23.6450  -29.8560   20.1310 C   0  0  0  0  0  2  0  0  0  0  0  0
  -24.7080  -31.1030   22.0530 N   0  0  0  0  0  0  0  0  0  0  0  0
  -23.5550  -32.1760   23.7000 O   0  0  0  0  0  0  0  0  0  0  0  0
  -22.7770  -29.4960   22.4800 C   0  0  0  0  0  0  0  0  0  0  0  0
  -21.4490  -29.3160   22.3740 N   0  0  0  0  0  0  0  0  0  0  0  0
  -23.4660  -28.8670   23.2850 O   0  0  0  0  0  0  0  0  0  0  0  0
  -20.9470  -29.8740   21.6980 H   0  0  0  0  0  0  0  0  0  0  0  0
  -18.0860  -28.0790   22.9270 C   0  0  0  0  0  0  0  0  0  0  0  0
  -20.6480  -28.3610   23.1450 C   0  0  0  0  0  3  0  0  0  0  0  0
  -20.7480  -26.9370   22.5510 C   0  0  0  0  0  2  0  0  0  0  0  0
  -19.6290  -26.6190   21.5530 C   0  0  0  0  0  2  0  0  0  0  0  0
  -18.2600  -26.7430   22.2260 C   0  0  0  0  0  2  0  0  0  0  0  0
  -19.2070  -28.8460   23.3440 C   0  0  0  0  0  0  0  0  0  0  0  0
  -18.9870  -30.0960   23.9620 C   0  0  0  0  0  3  0  0  0  0  0  0
  -17.6820  -30.5810   24.1650 C   0  0  0  0  0  3  0  0  0  0  0  0
  -16.5760  -29.8130   23.7600 C   0  0  0  0  0  3  0  0  0  0  0  0
  -16.7790  -28.5640   23.1480 C   0  0  0  0  0  3  0  0  0  0  0  0
  -25.9150  -32.5550   23.7750 C   0  0  0  0  0  3  0  0  0  0  0  0
  -26.4450  -31.7840   25.0460 C   0  0  1  0  0  0  0  0  0  0  0  0
  -25.3620  -31.5350   26.1220 C   0  0  0  0  0  1  0  0  0  0  0  0
  -27.0360  -30.4110   24.6540 C   0  0  0  0  0  1  0  0  0  0  0  0
  -27.5930  -32.5860   25.7030 C   0  0  0  0  0  1  0  0  0  0  0  0
  -25.5890  -33.9490   24.1210 N   0  0  0  0  0  0  0  0  0  0  0  0
  -25.9120  -35.0190   23.3840 C   0  0  0  0  0  0  0  0  0  0  0  0
  -26.5810  -34.9380   22.3500 O   0  0  0  0  0  0  0  0  0  0  0  0
  -24.9880  -34.0820   24.9220 H   0  0  0  0  0  0  0  0  0  0  0  0
  -24.1840  -36.8200   23.0520 C   0  0  0  0  0  1  0  0  0  0  0  0
  -25.4170  -36.3970   23.8660 C   0  0  0  0  0  3  0  0  0  0  0  0
  -27.5350  -37.2760   24.7470 C   0  0  0  0  0  1  0  0  0  0  0  0
  -26.4490  -37.4550   23.7880 N   0  0  0  0  0  0  0  0  0  0  0  0
  -26.0370  -38.3720   23.9410 H   0  0  0  0  0  0  0  0  0  0  0  0
  1  4  1  0
  3  6  1  0
  3  1  2  0
  4 51  1  0
  4  2  2  0
  5 16  1  0
  5  2  1  0
  6  5  2  0
  7  6  1  0
  8 14  1  0
  8 16  1  0
  9 14  1  0
 10 11  1  0
 10  9  1  0
 12 11  1  0
 12 21  1  0
 12 13  1  0
 14 13  1  0
 15  8  2  0
 16 17  1  0
 18 19  2  0
 19 38  1  0
 20 19  1  0
 20 23  1  0
 21 18  1  0
 21 22  1  0
 22 20  2  0
 23 24  1  0
 24 25  2  0
 26 29  1  0
 26 25  1  0
 27 26  2  0
 28 27  1  0
 28 23  2  0
 29 30  1  0
 30 31  1  0
 31 32  2  0
 33 32  1  0
 33 37  1  0
 34 33  2  0
 35 30  2  0
 35 34  1  0
 36 35  1  0
 38 39  1  0
 39 42  1  0
 39 41  1  0
 40 38  2  0
 43 44  1  0
 43 18  1  0
 45 43  1  0
 46  3  1  0
 46 47  1  6
 48 46  1  0
 49 46  1  0
 51 50  1  0
 52 53  2  0
 52 51  1  0
 54 53  1  0
 55 66  2  0
 56 54  1  0
 56 61  1  0
 57 65  1  0
 57 67  1  0
 58 64  1  0
 58 60  1  0
 59 65  1  0
 60 59  1  0
 61 60  2  0
 62 63  1  0
 62 56  2  0
 63 58  2  0
 64 57  1  0
 65 55  1  0
 67 69  2  0
 68 67  1  0
 70 68  1  0
 71 80  2  0
 71 76  1  0
 72 68  1  0
 72 76  1  0
 73 72  1  0
 74 75  1  0
 74 73  1  0
 75 71  1  0
 76 77  2  0
 77 78  1  0
 79 78  2  0
 80 79  1  0
 81 55  1  0
 81 86  1  0
 81 82  1  0
 82 85  1  1
 82 83  1  0
 84 82  1  0
 86 89  1  0
 87 91  1  0
 87 86  1  0
 88 87  2  0
 91 90  1  0
 93 91  1  0
 93 94  1  0
 93 92  1  0
M  ISO  4   8 100  16 100  53 101  54 101
M  END
>  <TORSDO>  (9) 
F 20

>  <SCORE>  (9) 
-14.571

>  <name>  (9) 
8

>  <ligand_id>  (9) 
8

>  <original_smiles>  (9) 
[H]c1c([H])c([H])c2c(c1[H])C([H])([H])C([H])([H])C([H])([H])C2([H])N([H])C(=O)C1([H])N(C(=O)C([H])(N([H])C(=O)C([H])(N([H])C([H])([H])[H])C([H])([H])[H])C(C([H])([H])[H])(C([H])([H])[H])C([H])([H])[H])C([H])([H])c2c([H])c(OC([H])([H])C([H])([H])N(c3c([H])c(N([H])C(=O)N4C([H])([H])C([H])([H])C([H])([H])C([H])(n5nc(-c6c([H])c([H])c(Oc7c([H])c([H])c(F)c([H])c7F)c([H])c6[H])c(C(=O)N([H])[H])c5N([H])[H])C4([H])[H])c(F)c(C(F)(F)F)c3[H])C([H])([H])[H])c([H])c([H])c2C1([H])[H]

>  <smiles>  (9) 
[H]c1c([H])c([H])c2c(c1[H])C([H])([H])C([H])([H])C([H])([H])C2([H])N([H])C(=O)C1([H])N(C(=O)C([H])(N([H])C(=O)C([H])(N([H])C([H])([H])[H])C([H])([H])[H])C(C([H])([H])[H])(C([H])([H])[H])C([H])([H])[H])C([H])([H])c2c([H])c(OC([H])([H])C([H])([H])N(c3c([H])c(N([H])C(=O)N4C([H])([H])C([H])([H])C([H])([H])C([H])(n5nc(-c6c([H])c([H])c(Oc7c([H])c([H])c(F)c([H])c7F)c([H])c6[H])c(C(=O)N([H])[H])c5N([H])[H])C4([H])[H])c(F)c(C(F)(F)F)c3[H])C([H])([H])[H])c([H])c([H])c2C1([H])[H]

$$$$
9:0:0
     RDKit          3D

 96104  0  0  1  0  0  0  0  0999 V2000
  -29.9950  -20.5280   18.7460 C   0  0  0  0  0  3  0  0  0  0  0  0
  -29.2740  -19.1000   20.5520 C   0  0  0  0  0  3  0  0  0  0  0  0
  -30.3780  -18.0550   18.6430 C   0  0  0  0  0  0  0  0  0  0  0  0
  -29.3240  -20.5010   19.9830 C   0  0  0  0  0  0  0  0  0  0  0  0
  -30.4730  -19.3690   18.0850 C   0  0  0  0  0  0  0  0  0  0  0  0
  -29.8330  -17.8270   19.9480 C   0  0  0  0  0  0  0  0  0  0  0  0
  -30.7860  -16.8820   17.7490 C   0  0  0  0  0  1  0  0  0  0  0  0
  -30.5310  -15.1350   20.3600 C   0  0  0  0  0  0  0  0  0  0  0  0
  -30.4720  -12.7430   19.4770 C   0  0  0  0  0  2  0  0  0  0  0  0
  -29.5690  -12.6570   18.2240 C   0  0  0  0  0  2  0  0  0  0  0  0
  -28.1030  -12.4210   18.6300 C   0  0  0  0  0  2  0  0  0  0  0  0
  -27.6580  -13.3460   19.7930 C   0  0  0  0  0  3  0  0  0  0  0  0
  -28.6920  -13.4060   20.9380 C   0  0  0  0  0  2  0  0  0  0  0  0
  -29.9580  -13.8530   20.3430 N   0  0  0  0  0  0  0  0  0  0  0  0
  -31.7430  -15.1700   20.1210 O   0  0  0  0  0  0  0  0  0  0  0  0
  -29.7450  -16.3480   20.4830 N   0  0  0  0  0  0  0  0  0  0  0  0
  -28.8570  -16.1510   20.9210 H   0  0  0  0  0  0  0  0  0  0  0  0
  -25.2620  -13.8900   20.4930 C   0  0  0  0  0  0  0  0  0  0  0  0
  -24.2030  -13.1020   20.8490 C   0  0  0  0  0  0  0  0  0  0  0  0
  -24.6870  -11.7580   20.8380 C   0  0  0  0  0  0  0  0  0  0  0  0
  -26.3200  -13.0260   20.2740 N   0  0  0  0  0  0  0  0  0  0  0  0
  -25.9830  -11.7380   20.5490 N   0  0  0  0  0  0  0  0  0  0  0  0
  -23.9730  -10.4880   21.0230 C   0  0  0  0  0  0  0  0  0  0  0  0
  -24.3950   -9.5340   21.9760 C   0  0  0  0  0  3  0  0  0  0  0  0
  -23.6770   -8.3300   22.1510 C   0  0  0  0  0  3  0  0  0  0  0  0
  -22.5250   -8.0710   21.3710 C   0  0  0  0  0  0  0  0  0  0  0  0
  -22.1220   -9.0140   20.4080 C   0  0  0  0  0  3  0  0  0  0  0  0
  -22.8400  -10.2080   20.2320 C   0  0  0  0  0  3  0  0  0  0  0  0
  -21.7810   -6.9190   21.4540 O   0  0  0  0  0  0  0  0  0  0  0  0
  -21.7070   -6.1910   22.6140 C   0  0  0  0  0  0  0  0  0  0  0  0
  -21.2170   -6.7510   23.8150 C   0  0  0  0  0  3  0  0  0  0  0  0
  -21.0920   -5.9490   24.9670 C   0  0  0  0  0  3  0  0  0  0  0  0
  -21.4480   -4.5870   24.9190 C   0  0  0  0  0  0  0  0  0  0  0  0
  -21.9320   -4.0270   23.7240 C   0  0  0  0  0  3  0  0  0  0  0  0
  -22.0580   -4.8260   22.5740 C   0  0  0  0  0  0  0  0  0  0  0  0
  -22.5040   -4.2770   21.4190 F   0  0  0  0  0  0  0  0  0  0  0  0
  -21.3210   -3.8140   26.0230 F   0  0  0  0  0  0  0  0  0  0  0  0
  -22.7950  -13.5640   21.0900 C   0  0  0  0  0  0  0  0  0  0  0  0
  -22.0590  -12.8670   21.9480 N   0  0  0  0  0  0  0  0  0  0  0  0
  -22.3560  -14.5790   20.5500 O   0  0  0  0  0  0  0  0  0  0  0  0
  -22.4280  -12.0480   22.4080 H   0  0  0  0  0  0  0  0  0  0  0  0
  -21.1140  -13.1610   22.1500 H   0  0  0  0  0  0  0  0  0  0  0  0
  -25.4080  -15.2620   20.3090 N   0  0  0  0  0  0  0  0  0  0  0  0
  -24.6250  -15.9000   20.3970 H   0  0  0  0  0  0  0  0  0  0  0  0
  -26.2460  -15.7090   19.9610 H   0  0  0  0  0  0  0  0  0  0  0  0
  -30.5880  -20.1810   15.7460 C   0  0  0  0  0  0  0  0  0  0  0  0
  -31.4170  -20.1290   14.4700 C   0  0  0  0  0  1  0  0  0  0  0  0
  -31.0920  -19.5380   16.8120 N   0  0  0  0  0  0  0  0  0  0  0  0
  -29.5130  -20.7870   15.7470 O   0  0  0  0  0  0  0  0  0  0  0  0
  -31.9330  -19.0030   16.6460 H   0  0  0  0  0  0  0  0  0  0  0  0
  -28.8770  -23.2610   20.1000 C   0  0  0  0  0  0  0  0  0  0  0  0
  -28.7130  -21.8650   20.4710 N   0  0  0  0  0  0  0  0  0  0  0  0
  -29.8360  -23.5660   19.3860 O   0  0  0  0  0  0  0  0  0  0  0  0
  -27.9930  -21.7510   21.1730 H   0  0  0  0  0  0  0  0  0  0  0  0
  -27.9080  -24.5690   20.5530 C   0  0  0  0  0  2  0  0  0  0  0  0
  -28.2210  -26.1060   20.2690 O   0  0  0  0  0  0  0  0  0  0  0  0
  -24.6210  -31.9130   23.2510 C   0  0  0  0  0  0  0  0  0  0  0  0
  -27.1840  -27.1320   20.2420 C   0  0  0  0  0  0  0  0  0  0  0  0
  -23.4190  -30.5060   21.6250 C   0  0  0  0  0  3  0  0  0  0  0  0
  -24.8640  -28.9200   20.2030 C   0  0  0  0  0  0  0  0  0  0  0  0
  -25.9770  -30.7580   21.4560 C   0  0  0  0  0  2  0  0  0  0  0  0
  -26.0500  -29.3570   20.8090 C   0  0  0  0  0  0  0  0  0  0  0  0
  -27.2100  -28.4820   20.8070 C   0  0  0  0  0  3  0  0  0  0  0  0
  -25.9750  -26.8190   19.5860 C   0  0  0  0  0  3  0  0  0  0  0  0
  -24.8440  -27.6670   19.5720 C   0  0  0  0  0  3  0  0  0  0  0  0
  -23.6380  -29.8210   20.2500 C   0  0  0  0  0  2  0  0  0  0  0  0
  -24.6930  -31.0830   22.1640 N   0  0  0  0  0  0  0  0  0  0  0  0
  -23.5350  -32.1990   23.7800 O   0  0  0  0  0  0  0  0  0  0  0  0
  -22.7430  -29.5040   22.5960 C   0  0  0  0  0  0  0  0  0  0  0  0
  -21.4160  -29.3210   22.4690 N   0  0  0  0  0  0  0  0  0  0  0  0
  -23.4160  -28.8940   23.4310 O   0  0  0  0  0  0  0  0  0  0  0  0
  -20.9280  -29.8650   21.7710 H   0  0  0  0  0  0  0  0  0  0  0  0
  -18.0460  -28.0880   22.9750 C   0  0  0  0  0  0  0  0  0  0  0  0
  -20.6000  -28.3850   23.2490 C   0  0  0  0  0  3  0  0  0  0  0  0
  -20.7210  -26.9470   22.6920 C   0  0  0  0  0  2  0  0  0  0  0  0
  -19.6270  -26.5990   21.6780 C   0  0  0  0  0  2  0  0  0  0  0  0
  -18.2410  -26.7340   22.3140 C   0  0  0  0  0  2  0  0  0  0  0  0
  -19.1530  -28.8700   23.3990 C   0  0  0  0  0  0  0  0  0  0  0  0
  -18.9140  -30.1350   23.9790 C   0  0  0  0  0  3  0  0  0  0  0  0
  -17.6020  -30.6180   24.1380 C   0  0  0  0  0  3  0  0  0  0  0  0
  -16.5090  -29.8340   23.7280 C   0  0  0  0  0  3  0  0  0  0  0  0
  -16.7320  -28.5710   23.1520 C   0  0  0  0  0  3  0  0  0  0  0  0
  -25.8980  -32.5570   23.8710 C   0  0  0  0  0  3  0  0  0  0  0  0
  -26.3980  -31.8130   25.1710 C   0  0  1  0  0  0  0  0  0  0  0  0
  -25.2950  -31.6070   26.2350 C   0  0  0  0  0  1  0  0  0  0  0  0
  -26.9770  -30.4230   24.8230 C   0  0  0  0  0  1  0  0  0  0  0  0
  -27.5480  -32.6160   25.8230 C   0  0  0  0  0  1  0  0  0  0  0  0
  -25.5880  -33.9630   24.1770 N   0  0  0  0  0  0  0  0  0  0  0  0
  -25.9310  -35.0080   23.4110 C   0  0  0  0  0  0  0  0  0  0  0  0
  -26.6060  -34.8880   22.3860 O   0  0  0  0  0  0  0  0  0  0  0  0
  -24.9860  -34.1300   24.9710 H   0  0  0  0  0  0  0  0  0  0  0  0
  -24.2240  -36.8180   23.0190 C   0  0  0  0  0  1  0  0  0  0  0  0
  -25.4510  -36.4060   23.8500 C   0  0  0  0  0  3  0  0  0  0  0  0
  -27.5790  -37.2850   24.7070 C   0  0  0  0  0  1  0  0  0  0  0  0
  -26.4950  -37.4490   23.7420 N   0  0  0  0  0  0  0  0  0  0  0  0
  -26.0950  -38.3740   23.8700 H   0  0  0  0  0  0  0  0  0  0  0  0
  1  4  1  0
  3  6  2  0
  4 52  1  0
  4  2  2  0
  5  3  1  0
  5  1  2  0
  6 16  1  0
  6  2  1  0
  7  3  1  0
  8 16  1  0
  9 14  1  0
 10 11  1  0
 10  9  1  0
 12 11  1  0
 12 21  1  0
 12 13  1  0
 14  8  1  0
 14 13  1  0
 15  8  2  0
 16 17  1  0
 18 19  2  0
 19 38  1  0
 20 19  1  0
 20 23  1  0
 21 18  1  0
 21 22  1  0
 22 20  2  0
 23 24  1  0
 24 25  2  0
 26 29  1  0
 26 25  1  0
 27 26  2  0
 28 27  1  0
 28 23  2  0
 29 30  1  0
 30 31  1  0
 31 32  2  0
 33 32  1  0
 33 37  1  0
 34 33  2  0
 35 30  2  0
 35 34  1  0
 36 35  1  0
 38 39  1  0
 39 42  1  0
 39 41  1  0
 40 38  2  0
 43 44  1  0
 43 18  1  0
 45 43  1  0
 46 49  2  0
 46 48  1  0
 47 46  1  0
 48  5  1  0
 50 48  1  0
 51 52  1  0
 51 55  1  0
 52 54  1  0
 53 51  2  0
 56 55  1  0
 57 68  2  0
 58 56  1  0
 58 63  1  0
 59 67  1  0
 59 69  1  0
 60 66  1  0
 60 62  1  0
 61 67  1  0
 62 61  1  0
 63 62  2  0
 64 58  2  0
 65 64  1  0
 65 60  2  0
 66 59  1  0
 67 57  1  0
 69 71  2  0
 70 69  1  0
 72 70  1  0
 73 82  2  0
 73 78  1  0
 74 70  1  0
 74 78  1  0
 75 74  1  0
 76 77  1  0
 76 75  1  0
 77 73  1  0
 78 79  2  0
 79 80  1  0
 81 80  2  0
 82 81  1  0
 83 57  1  0
 83 88  1  0
 83 84  1  0
 84 87  1  1
 84 85  1  0
 86 84  1  0
 88 91  1  0
 89 93  1  0
 89 88  1  0
 90 89  2  0
 93 92  1  0
 95 93  1  0
 95 96  1  0
 95 94  1  0
M  ISO  4   8 100  16 100  55 101  56 101
M  END
>  <TORSDO>  (10) 
F 19

>  <SCORE>  (10) 
-14.056

>  <name>  (10) 
9

>  <ligand_id>  (10) 
9

>  <original_smiles>  (10) 
[H]c1c([H])c([H])c2c(c1[H])C([H])([H])C([H])([H])C([H])([H])C2([H])N([H])C(=O)C1([H])N(C(=O)C([H])(N([H])C(=O)C([H])(N([H])C([H])([H])[H])C([H])([H])[H])C(C([H])([H])[H])(C([H])([H])[H])C([H])([H])[H])C([H])([H])c2c([H])c(OC([H])([H])C(=O)N([H])c3c([H])c(N([H])C(=O)N4C([H])([H])C([H])([H])C([H])([H])C([H])(n5nc(-c6c([H])c([H])c(Oc7c([H])c([H])c(F)c([H])c7F)c([H])c6[H])c(C(=O)N([H])[H])c5N([H])[H])C4([H])[H])c(C([H])([H])[H])c(N([H])C(=O)C([H])([H])[H])c3[H])c([H])c([H])c2C1([H])[H]

>  <smiles>  (10) 
[H]c1c([H])c([H])c2c(c1[H])C([H])([H])C([H])([H])C([H])([H])C2([H])N([H])C(=O)C1([H])N(C(=O)C([H])(N([H])C(=O)C([H])(N([H])C([H])([H])[H])C([H])([H])[H])C(C([H])([H])[H])(C([H])([H])[H])C([H])([H])[H])C([H])([H])c2c([H])c(OC([H])([H])C(=O)N([H])c3c([H])c(N([H])C(=O)N4C([H])([H])C([H])([H])C([H])([H])C([H])(n5nc(-c6c([H])c([H])c(Oc7c([H])c([H])c(F)c([H])c7F)c([H])c6[H])c(C(=O)N([H])[H])c5N([H])[H])C4([H])[H])c(C([H])([H])[H])c(N([H])C(=O)C([H])([H])[H])c3[H])c([H])c([H])c2C1([H])[H]

$$$$
10:0:0
     RDKit          3D

 98106  0  0  1  0  0  0  0  0999 V2000
  -30.7840  -19.3380   21.1770 C   0  0  0  0  0  3  0  0  0  0  0  0
  -28.3270  -20.5710   20.6290 C   0  0  0  0  0  3  0  0  0  0  0  0
  -29.6570  -18.4870   21.0250 C   0  0  0  0  0  0  0  0  0  0  0  0
  -29.4380  -21.4220   20.8650 C   0  0  0  0  0  0  0  0  0  0  0  0
  -30.6730  -20.7600   21.1140 C   0  0  0  0  0  0  0  0  0  0  0  0
  -28.4300  -19.1480   20.7190 C   0  0  0  0  0  0  0  0  0  0  0  0
  -31.7790  -21.5110   21.3350 F   0  0  0  0  0  0  0  0  0  0  0  0
  -27.3110  -18.4030   20.5530 F   0  0  0  0  0  0  0  0  0  0  0  0
  -29.3680  -22.8580   20.9760 N   0  0  0  0  0  0  0  0  0  0  0  0
  -30.2480  -23.2400   21.3190 H   0  0  0  0  0  0  0  0  0  0  0  0
  -29.4710  -23.9390   18.7760 C   0  0  0  0  0  1  0  0  0  0  0  0
  -28.6540  -23.8080   20.0660 C   0  0  0  0  0  3  0  0  0  0  0  0
  -28.3290  -25.2460   20.7120 C   0  0  0  0  0  2  0  0  0  0  0  0
  -28.3800  -26.5040   19.9320 O   0  0  0  0  0  0  0  0  0  0  0  0
  -24.6120  -31.7690   23.1380 C   0  0  0  0  0  0  0  0  0  0  0  0
  -27.2580  -27.3370   19.9560 C   0  0  0  0  0  0  0  0  0  0  0  0
  -23.4180  -30.4100   21.4560 C   0  0  0  0  0  3  0  0  0  0  0  0
  -24.8800  -28.9140   19.9830 C   0  0  0  0  0  0  0  0  0  0  0  0
  -25.9500  -30.7650   21.2720 C   0  0  0  0  0  2  0  0  0  0  0  0
  -26.0430  -29.4060   20.5910 C   0  0  0  0  0  0  0  0  0  0  0  0
  -27.2400  -28.6310   20.5630 C   0  0  0  0  0  3  0  0  0  0  0  0
  -26.0780  -26.8900   19.3350 C   0  0  0  0  0  3  0  0  0  0  0  0
  -24.8980  -27.6620   19.3450 C   0  0  0  0  0  3  0  0  0  0  0  0
  -23.6330  -29.7740   20.0570 C   0  0  0  0  0  2  0  0  0  0  0  0
  -24.6790  -30.9980   22.0130 N   0  0  0  0  0  0  0  0  0  0  0  0
  -23.5280  -32.0180   23.6830 O   0  0  0  0  0  0  0  0  0  0  0  0
  -22.7670  -29.3600   22.3870 C   0  0  0  0  0  0  0  0  0  0  0  0
  -21.4380  -29.1890   22.2700 N   0  0  0  0  0  0  0  0  0  0  0  0
  -23.4560  -28.7010   23.1710 O   0  0  0  0  0  0  0  0  0  0  0  0
  -20.9430  -29.7680   21.6070 H   0  0  0  0  0  0  0  0  0  0  0  0
  -18.0610  -28.0100   22.8020 C   0  0  0  0  0  0  0  0  0  0  0  0
  -20.6280  -28.2240   23.0160 C   0  0  0  0  0  3  0  0  0  0  0  0
  -20.6980  -26.8230   22.3640 C   0  0  0  0  0  2  0  0  0  0  0  0
  -19.5660  -26.5640   21.3650 C   0  0  0  0  0  2  0  0  0  0  0  0
  -18.2030  -26.6950   22.0510 C   0  0  0  0  0  2  0  0  0  0  0  0
  -19.2010  -28.7350   23.2400 C   0  0  0  0  0  0  0  0  0  0  0  0
  -19.0170  -29.9670   23.9040 C   0  0  0  0  0  3  0  0  0  0  0  0
  -17.7240  -30.4770   24.1290 C   0  0  0  0  0  3  0  0  0  0  0  0
  -16.5980  -29.7480   23.7070 C   0  0  0  0  0  3  0  0  0  0  0  0
  -16.7680  -28.5140   23.0520 C   0  0  0  0  0  3  0  0  0  0  0  0
  -25.8910  -32.3920   23.7780 C   0  0  0  0  0  3  0  0  0  0  0  0
  -25.5700  -33.7780   24.1540 N   0  0  0  0  0  0  0  0  0  0  0  0
  -25.9140  -34.8590   23.4410 C   0  0  0  0  0  0  0  0  0  0  0  0
  -26.6040  -34.7970   22.4210 O   0  0  0  0  0  0  0  0  0  0  0  0
  -24.9600  -33.8990   24.9480 H   0  0  0  0  0  0  0  0  0  0  0  0
  -24.2050  -36.6730   23.0990 C   0  0  0  0  0  1  0  0  0  0  0  0
  -25.4120  -36.2280   23.9420 C   0  0  0  0  0  3  0  0  0  0  0  0
  -27.5080  -37.0700   24.9030 C   0  0  0  0  0  1  0  0  0  0  0  0
  -26.4510  -37.2810   23.9170 N   0  0  0  0  0  0  0  0  0  0  0  0
  -26.0400  -38.1960   24.0830 H   0  0  0  0  0  0  0  0  0  0  0  0
  -26.4150  -31.5860   25.0300 C   0  0  1  0  0  0  0  0  0  0  0  0
  -25.3230  -31.3080   26.0890 C   0  0  0  0  0  1  0  0  0  0  0  0
  -27.0060  -30.2260   24.5930 C   0  0  0  0  0  1  0  0  0  0  0  0
  -27.5620  -32.3660   25.7150 C   0  0  0  0  0  1  0  0  0  0  0  0
  -29.7250  -16.9300   21.3310 C   0  0  0  0  0  2  0  0  0  0  0  0
  -31.0110  -14.8080   20.6960 C   0  0  0  0  0  0  0  0  0  0  0  0
  -30.8440  -12.5040   19.7730 C   0  0  0  0  0  2  0  0  0  0  0  0
  -29.9650  -12.4710   18.5040 C   0  0  0  0  0  2  0  0  0  0  0  0
  -28.4720  -12.3440   18.8610 C   0  0  0  0  0  2  0  0  0  0  0  0
  -28.0250  -13.3180   19.9850 C   0  0  0  0  0  3  0  0  0  0  0  0
  -29.0190  -13.3170   21.1640 C   0  0  0  0  0  2  0  0  0  0  0  0
  -30.3490  -13.6080   20.6150 N   0  0  0  0  0  0  0  0  0  0  0  0
  -32.2370  -14.8380   20.6360 O   0  0  0  0  0  0  0  0  0  0  0  0
  -30.1860  -16.2900   19.0390 C   0  0  0  0  0  0  0  0  0  0  0  0
  -30.2870  -15.9360   20.3460 N   0  0  0  0  0  0  0  0  0  0  0  0
  -29.1230  -16.7560   18.5950 O   0  0  0  0  0  0  0  0  0  0  0  0
  -25.6070  -13.9590   20.5690 C   0  0  0  0  0  0  0  0  0  0  0  0
  -24.5110  -13.2030   20.8880 C   0  0  0  0  0  0  0  0  0  0  0  0
  -24.9610  -11.8480   20.9160 C   0  0  0  0  0  0  0  0  0  0  0  0
  -26.6530  -13.0630   20.4140 N   0  0  0  0  0  0  0  0  0  0  0  0
  -26.2670  -11.7920   20.6900 N   0  0  0  0  0  0  0  0  0  0  0  0
  -24.2130  -10.5960   21.0870 C   0  0  0  0  0  0  0  0  0  0  0  0
  -24.5900   -9.6370   22.0520 C   0  0  0  0  0  3  0  0  0  0  0  0
  -23.8440   -8.4480   22.2090 C   0  0  0  0  0  3  0  0  0  0  0  0
  -22.7080   -8.2110   21.4000 C   0  0  0  0  0  0  0  0  0  0  0  0
  -22.3500   -9.1610   20.4260 C   0  0  0  0  0  3  0  0  0  0  0  0
  -23.0950  -10.3420   20.2680 C   0  0  0  0  0  3  0  0  0  0  0  0
  -21.9390   -7.0730   21.4640 O   0  0  0  0  0  0  0  0  0  0  0  0
  -21.8270   -6.3420   22.6200 C   0  0  0  0  0  0  0  0  0  0  0  0
  -21.3330   -6.9100   23.8150 C   0  0  0  0  0  3  0  0  0  0  0  0
  -21.1700   -6.1050   24.9610 C   0  0  0  0  0  3  0  0  0  0  0  0
  -21.4910   -4.7350   24.9100 C   0  0  0  0  0  0  0  0  0  0  0  0
  -21.9740   -4.1670   23.7190 C   0  0  0  0  0  3  0  0  0  0  0  0
  -22.1390   -4.9690   22.5760 C   0  0  0  0  0  0  0  0  0  0  0  0
  -22.5860   -4.4100   21.4250 F   0  0  0  0  0  0  0  0  0  0  0  0
  -21.3280   -3.9600   26.0090 F   0  0  0  0  0  0  0  0  0  0  0  0
  -23.1030  -13.7000   21.0570 C   0  0  0  0  0  0  0  0  0  0  0  0
  -22.3180  -13.0460   21.9060 N   0  0  0  0  0  0  0  0  0  0  0  0
  -22.7030  -14.7010   20.4670 O   0  0  0  0  0  0  0  0  0  0  0  0
  -22.6500  -12.2370   22.4100 H   0  0  0  0  0  0  0  0  0  0  0  0
  -21.3710  -13.3610   22.0570 H   0  0  0  0  0  0  0  0  0  0  0  0
  -25.7960  -15.3240   20.3740 N   0  0  0  0  0  0  0  0  0  0  0  0
  -25.0210  -15.9750   20.4370 H   0  0  0  0  0  0  0  0  0  0  0  0
  -26.6620  -15.7660   20.0910 H   0  0  0  0  0  0  0  0  0  0  0  0
  -31.4510  -16.2450   18.1270 C   0  0  2  0  0  0  0  0  0  0  0  0
  -31.2350  -16.9540   17.0140 F   0  0  0  0  0  0  0  0  0  0  0  0
  -31.7490  -14.9980   17.7660 F   0  0  0  0  0  0  0  0  0  0  0  0
  -32.4910  -16.7950   18.7600 F   0  0  0  0  0  0  0  0  0  0  0  0
  2  6  2  0
  2  4  1  0
  3  1  2  0
  3 55  1  0
  4  9  1  0
  4  5  2  0
  5  1  1  0
  5  7  1  0
  6  3  1  0
  8  6  1  0
  9 10  1  0
 12 11  1  0
 12 13  1  0
 12  9  1  0
 14 16  1  0
 14 13  1  0
 15 26  2  0
 16 21  1  0
 17 25  1  0
 17 27  1  0
 18 24  1  0
 18 20  1  0
 19 25  1  0
 20 19  1  0
 21 20  2  0
 22 23  1  0
 22 16  2  0
 23 18  2  0
 24 17  1  0
 25 15  1  0
 27 29  2  0
 28 27  1  0
 30 28  1  0
 31 40  2  0
 31 36  1  0
 32 28  1  0
 32 36  1  0
 33 32  1  0
 34 35  1  0
 34 33  1  0
 35 31  1  0
 36 37  2  0
 37 38  1  0
 39 38  2  0
 40 39  1  0
 41 15  1  0
 41 42  1  0
 41 51  1  0
 42 45  1  0
 43 47  1  0
 43 42  1  0
 44 43  2  0
 47 46  1  0
 49 47  1  0
 49 50  1  0
 49 48  1  0
 51 54  1  1
 51 52  1  0
 53 51  1  0
 57 62  1  0
 58 59  1  0
 58 57  1  0
 60 59  1  0
 60 70  1  0
 60 61  1  0
 62 56  1  0
 62 61  1  0
 63 56  2  0
 64 65  1  0
 65 56  1  0
 65 55  1  0
 66 64  2  0
 67 68  2  0
 68 69  1  0
 68 87  1  0
 69 72  1  0
 70 67  1  0
 70 71  1  0
 71 69  2  0
 72 73  1  0
 73 74  2  0
 75 78  1  0
 75 74  1  0
 76 75  2  0
 77 76  1  0
 77 72  2  0
 78 79  1  0
 79 80  1  0
 80 81  2  0
 82 81  1  0
 82 86  1  0
 83 82  2  0
 84 79  2  0
 84 83  1  0
 85 84  1  0
 87 88  1  0
 88 91  1  0
 88 90  1  0
 89 87  2  0
 92 93  1  0
 92 67  1  0
 94 92  1  0
 95 98  1  1
 95 64  1  0
 96 95  1  0
 97 95  1  0
M  ISO  4  13 101  14 101  56 100  65 100
M  END
>  <TORSDO>  (11) 
F 21

>  <SCORE>  (11) 
-13.343

>  <name>  (11) 
10

>  <ligand_id>  (11) 
10

>  <original_smiles>  (11) 
[H]c1c([H])c([H])c2c(c1[H])C([H])([H])C([H])([H])C([H])([H])C2([H])N([H])C(=O)C1([H])N(C(=O)C([H])(N([H])C(=O)C([H])(N([H])C([H])([H])[H])C([H])([H])[H])C(C([H])([H])[H])(C([H])([H])[H])C([H])([H])[H])C([H])([H])c2c([H])c(OC([H])([H])C([H])(N([H])c3c([H])c(F)c(C([H])([H])N(C(=O)N4C([H])([H])C([H])([H])C([H])([H])C([H])(n5nc(-c6c([H])c([H])c(Oc7c([H])c([H])c(F)c([H])c7F)c([H])c6[H])c(C(=O)N([H])[H])c5N([H])[H])C4([H])[H])C(=O)C(F)(F)F)c([H])c3F)C([H])([H])[H])c([H])c([H])c2C1([H])[H]

>  <smiles>  (11) 
[H]c1c([H])c([H])c2c(c1[H])C([H])([H])C([H])([H])C([H])([H])C2([H])N([H])C(=O)C1([H])N(C(=O)C([H])(N([H])C(=O)C([H])(N([H])C([H])([H])[H])C([H])([H])[H])C(C([H])([H])[H])(C([H])([H])[H])C([H])([H])[H])C([H])([H])c2c([H])c(OC([H])([H])C([H])(N([H])c3c([H])c(F)c(C([H])([H])N(C(=O)N4C([H])([H])C([H])([H])C([H])([H])C([H])(n5nc(-c6c([H])c([H])c(Oc7c([H])c([H])c(F)c([H])c7F)c([H])c6[H])c(C(=O)N([H])[H])c5N([H])[H])C4([H])[H])C(=O)C(F)(F)F)c([H])c3F)C([H])([H])[H])c([H])c([H])c2C1([H])[H]

$$$$
11:0:0
     RDKit          3D

 93101  0  0  1  0  0  0  0  0999 V2000
  -28.7720  -21.0870   20.7840 C   0  0  0  0  0  2  0  0  0  0  0  0
  -31.0390  -20.1550   20.0080 C   0  0  0  0  0  3  0  0  0  0  0  0
  -31.6240  -17.7680   19.9380 C   0  0  0  0  0  3  0  0  0  0  0  0
  -31.9820  -19.1260   19.7950 C   0  0  0  0  0  0  0  0  0  0  0  0
  -29.7190  -19.8630   20.4070 C   0  0  0  0  0  0  0  0  0  0  0  0
  -30.3170  -17.3630   20.3060 C   0  0  0  0  0  0  0  0  0  0  0  0
  -29.3770  -18.4470   20.5520 C   0  0  0  0  0  0  0  0  0  0  0  0
  -33.4140  -19.4680   19.4240 C   0  0  0  0  0  1  0  0  0  0  0  0
  -27.7820  -18.0120   21.0620 Cl  0  0  0  0  0  0  0  0  0  0  0  0
  -30.6570  -14.7620   20.0790 C   0  0  0  0  0  0  0  0  0  0  0  0
  -30.3230  -12.5630   18.9540 C   0  0  0  0  0  2  0  0  0  0  0  0
  -29.3320  -12.7330   17.7840 C   0  0  0  0  0  2  0  0  0  0  0  0
  -27.8850  -12.5530   18.2800 C   0  0  0  0  0  2  0  0  0  0  0  0
  -27.5880  -13.3740   19.5650 C   0  0  0  0  0  3  0  0  0  0  0  0
  -28.7010  -13.2200   20.6240 C   0  0  0  0  0  2  0  0  0  0  0  0
  -29.9720  -13.5720   19.9820 N   0  0  0  0  0  0  0  0  0  0  0  0
  -31.8240  -14.8010   19.6910 O   0  0  0  0  0  0  0  0  0  0  0  0
  -29.9630  -15.9150   20.4250 N   0  0  0  0  0  0  0  0  0  0  0  0
  -29.0190  -15.7460   20.7370 H   0  0  0  0  0  0  0  0  0  0  0  0
  -25.2290  -13.9350   20.3950 C   0  0  0  0  0  0  0  0  0  0  0  0
  -24.1860  -13.1480   20.8010 C   0  0  0  0  0  0  0  0  0  0  0  0
  -24.6600  -11.8010   20.7410 C   0  0  0  0  0  0  0  0  0  0  0  0
  -26.2690  -13.0670   20.1090 N   0  0  0  0  0  0  0  0  0  0  0  0
  -25.9380  -11.7780   20.3800 N   0  0  0  0  0  0  0  0  0  0  0  0
  -23.9540  -10.5290   20.9490 C   0  0  0  0  0  0  0  0  0  0  0  0
  -24.4120   -9.5730   21.8820 C   0  0  0  0  0  3  0  0  0  0  0  0
  -23.7030   -8.3690   22.0780 C   0  0  0  0  0  3  0  0  0  0  0  0
  -22.5240   -8.1120   21.3390 C   0  0  0  0  0  0  0  0  0  0  0  0
  -22.0850   -9.0560   20.3950 C   0  0  0  0  0  3  0  0  0  0  0  0
  -22.7950  -10.2530   20.1980 C   0  0  0  0  0  3  0  0  0  0  0  0
  -21.7860   -6.9570   21.4430 O   0  0  0  0  0  0  0  0  0  0  0  0
  -21.7330   -6.2390   22.6120 C   0  0  0  0  0  0  0  0  0  0  0  0
  -21.2810   -6.8130   23.8200 C   0  0  0  0  0  3  0  0  0  0  0  0
  -21.1740   -6.0210   24.9800 C   0  0  0  0  0  3  0  0  0  0  0  0
  -21.5140   -4.6560   24.9340 C   0  0  0  0  0  0  0  0  0  0  0  0
  -21.9590   -4.0790   23.7300 C   0  0  0  0  0  3  0  0  0  0  0  0
  -22.0650   -4.8700   22.5720 C   0  0  0  0  0  0  0  0  0  0  0  0
  -22.4730   -4.3050   21.4110 F   0  0  0  0  0  0  0  0  0  0  0  0
  -21.4050   -3.8920   26.0460 F   0  0  0  0  0  0  0  0  0  0  0  0
  -22.7970  -13.6100   21.1340 C   0  0  0  0  0  0  0  0  0  0  0  0
  -22.1110  -12.8990   22.0210 N   0  0  0  0  0  0  0  0  0  0  0  0
  -22.3330  -14.6380   20.6440 O   0  0  0  0  0  0  0  0  0  0  0  0
  -22.5010  -12.0660   22.4350 H   0  0  0  0  0  0  0  0  0  0  0  0
  -21.1810  -13.1910   22.2870 H   0  0  0  0  0  0  0  0  0  0  0  0
  -25.3720  -15.3080   20.2230 N   0  0  0  0  0  0  0  0  0  0  0  0
  -24.5980  -15.9470   20.3720 H   0  0  0  0  0  0  0  0  0  0  0  0
  -26.2030  -15.7690   19.8780 H   0  0  0  0  0  0  0  0  0  0  0  0
  -28.7610  -23.7190   20.6410 C   0  0  0  0  0  0  0  0  0  0  0  0
  -28.8200  -22.4500   20.0870 N   0  0  0  0  0  0  0  0  0  0  0  0
  -29.0290  -23.8680   21.8390 O   0  0  0  0  0  0  0  0  0  0  0  0
  -28.6470  -22.4150   19.0910 H   0  0  0  0  0  0  0  0  0  0  0  0
  -28.2930  -24.9990   19.7770 C   0  0  0  0  0  2  0  0  0  0  0  0
  -28.3640  -26.4330   20.2350 O   0  0  0  0  0  0  0  0  0  0  0  0
  -24.6060  -31.8630   23.1940 C   0  0  0  0  0  0  0  0  0  0  0  0
  -27.2560  -27.3050   20.1340 C   0  0  0  0  0  0  0  0  0  0  0  0
  -23.4240  -30.4750   21.5260 C   0  0  0  0  0  3  0  0  0  0  0  0
  -24.8940  -28.9340   20.1050 C   0  0  0  0  0  0  0  0  0  0  0  0
  -25.9660  -30.7910   21.3810 C   0  0  0  0  0  2  0  0  0  0  0  0
  -26.0550  -29.4160   20.7190 C   0  0  0  0  0  0  0  0  0  0  0  0
  -27.2360  -28.6120   20.7260 C   0  0  0  0  0  3  0  0  0  0  0  0
  -26.0730  -26.8900   19.4840 C   0  0  0  0  0  3  0  0  0  0  0  0
  -24.9040  -27.6780   19.4800 C   0  0  0  0  0  3  0  0  0  0  0  0
  -23.6550  -29.8040   20.1450 C   0  0  0  0  0  2  0  0  0  0  0  0
  -24.6850  -31.0610   22.0920 N   0  0  0  0  0  0  0  0  0  0  0  0
  -23.5170  -32.1330   23.7190 O   0  0  0  0  0  0  0  0  0  0  0  0
  -22.7500  -29.4540   22.4770 C   0  0  0  0  0  0  0  0  0  0  0  0
  -21.4260  -29.2800   22.3400 N   0  0  0  0  0  0  0  0  0  0  0  0
  -23.4230  -28.8240   23.2980 O   0  0  0  0  0  0  0  0  0  0  0  0
  -20.9420  -29.8390   21.6500 H   0  0  0  0  0  0  0  0  0  0  0  0
  -18.0440  -28.0790   22.8020 C   0  0  0  0  0  0  0  0  0  0  0  0
  -20.6010  -28.3340   23.0970 C   0  0  0  0  0  3  0  0  0  0  0  0
  -20.7080  -26.9060   22.5130 C   0  0  0  0  0  2  0  0  0  0  0  0
  -19.6160  -26.5910   21.4880 C   0  0  0  0  0  2  0  0  0  0  0  0
  -18.2280  -26.7350   22.1200 C   0  0  0  0  0  2  0  0  0  0  0  0
  -19.1590  -28.8370   23.2500 C   0  0  0  0  0  0  0  0  0  0  0  0
  -18.9360  -30.0970   23.8460 C   0  0  0  0  0  3  0  0  0  0  0  0
  -17.6290  -30.5950   24.0110 C   0  0  0  0  0  3  0  0  0  0  0  0
  -16.5280  -29.8310   23.5860 C   0  0  0  0  0  3  0  0  0  0  0  0
  -16.7350  -28.5770   22.9840 C   0  0  0  0  0  3  0  0  0  0  0  0
  -25.8810  -32.4980   23.8320 C   0  0  0  0  0  3  0  0  0  0  0  0
  -26.3890  -31.7220   25.1090 C   0  0  1  0  0  0  0  0  0  0  0  0
  -25.2860  -31.4740   26.1640 C   0  0  0  0  0  1  0  0  0  0  0  0
  -26.9850  -30.3510   24.7170 C   0  0  0  0  0  1  0  0  0  0  0  0
  -27.5330  -32.5140   25.7840 C   0  0  0  0  0  1  0  0  0  0  0  0
  -25.5650  -33.8920   24.1710 N   0  0  0  0  0  0  0  0  0  0  0  0
  -25.8980  -34.9520   23.4260 C   0  0  0  0  0  0  0  0  0  0  0  0
  -26.5710  -34.8630   22.3960 O   0  0  0  0  0  0  0  0  0  0  0  0
  -24.9720  -34.0350   24.9760 H   0  0  0  0  0  0  0  0  0  0  0  0
  -24.1660  -36.7410   23.0870 C   0  0  0  0  0  1  0  0  0  0  0  0
  -25.4060  -36.3340   23.8960 C   0  0  0  0  0  3  0  0  0  0  0  0
  -27.5370  -37.2170   24.7380 C   0  0  0  0  0  1  0  0  0  0  0  0
  -26.4330  -37.3930   23.7980 N   0  0  0  0  0  0  0  0  0  0  0  0
  -26.0210  -38.3080   23.9660 H   0  0  0  0  0  0  0  0  0  0  0  0
  2  5  1  0
  3  6  2  0
  4  3  1  0
  4  2  2  0
  5  7  2  0
  5  1  1  0
  6 18  1  0
  6  7  1  0
  7  9  1  0
  8  4  1  0
 10 18  1  0
 11 16  1  0
 12 13  1  0
 12 11  1  0
 14 13  1  0
 14 23  1  0
 14 15  1  0
 16 10  1  0
 16 15  1  0
 17 10  2  0
 18 19  1  0
 20 21  2  0
 21 40  1  0
 22 21  1  0
 22 25  1  0
 23 24  1  0
 23 20  1  0
 24 22  2  0
 25 26  1  0
 26 27  2  0
 28 31  1  0
 28 27  1  0
 29 28  2  0
 30 29  1  0
 30 25  2  0
 31 32  1  0
 32 33  1  0
 33 34  2  0
 35 34  1  0
 35 39  1  0
 36 35  2  0
 37 32  2  0
 37 36  1  0
 38 37  1  0
 40 41  1  0
 41 44  1  0
 41 43  1  0
 42 40  2  0
 45 46  1  0
 45 20  1  0
 47 45  1  0
 48 50  2  0
 49 48  1  0
 49  1  1  0
 51 49  1  0
 52 53  1  0
 52 48  1  0
 54 65  2  0
 55 53  1  0
 55 60  1  0
 56 64  1  0
 56 66  1  0
 57 63  1  0
 57 59  1  0
 58 64  1  0
 59 60  2  0
 59 58  1  0
 61 55  2  0
 62 61  1  0
 62 57  2  0
 63 56  1  0
 64 54  1  0
 66 68  2  0
 67 66  1  0
 69 67  1  0
 70 79  2  0
 70 75  1  0
 71 67  1  0
 71 75  1  0
 72 71  1  0
 73 74  1  0
 73 72  1  0
 74 70  1  0
 75 76  2  0
 76 77  1  0
 78 77  2  0
 79 78  1  0
 80 54  1  0
 80 85  1  0
 80 81  1  0
 81 84  1  1
 81 82  1  0
 83 81  1  0
 85 88  1  0
 86 90  1  0
 86 85  1  0
 87 86  2  0
 90 89  1  0
 92 90  1  0
 92 93  1  0
 92 91  1  0
M  ISO  4  10 100  18 100  52 101  53 101
M  END
>  <TORSDO>  (12) 
F 19

>  <SCORE>  (12) 
-13.693

>  <name>  (12) 
11

>  <ligand_id>  (12) 
11

>  <original_smiles>  (12) 
[H]c1c([H])c([H])c2c(c1[H])C([H])([H])C([H])([H])C([H])([H])C2([H])N([H])C(=O)C1([H])N(C(=O)C([H])(N([H])C(=O)C([H])(N([H])C([H])([H])[H])C([H])([H])[H])C(C([H])([H])[H])(C([H])([H])[H])C([H])([H])[H])C([H])([H])c2c([H])c(OC([H])([H])C(=O)N([H])C([H])([H])c3c([H])c(C([H])([H])[H])c([H])c(N([H])C(=O)N4C([H])([H])C([H])([H])C([H])([H])C([H])(n5nc(-c6c([H])c([H])c(Oc7c([H])c([H])c(F)c([H])c7F)c([H])c6[H])c(C(=O)N([H])[H])c5N([H])[H])C4([H])[H])c3Cl)c([H])c([H])c2C1([H])[H]

>  <smiles>  (12) 
[H]c1c([H])c([H])c2c(c1[H])C([H])([H])C([H])([H])C([H])([H])C2([H])N([H])C(=O)C1([H])N(C(=O)C([H])(N([H])C(=O)C([H])(N([H])C([H])([H])[H])C([H])([H])[H])C(C([H])([H])[H])(C([H])([H])[H])C([H])([H])[H])C([H])([H])c2c([H])c(OC([H])([H])C(=O)N([H])C([H])([H])c3c([H])c(C([H])([H])[H])c([H])c(N([H])C(=O)N4C([H])([H])C([H])([H])C([H])([H])C([H])(n5nc(-c6c([H])c([H])c(Oc7c([H])c([H])c(F)c([H])c7F)c([H])c6[H])c(C(=O)N([H])[H])c5N([H])[H])C4([H])[H])c3Cl)c([H])c([H])c2C1([H])[H]

$$$$
12:0:0
     RDKit          3D

 91 99  0  0  1  0  0  0  0  0999 V2000
  -29.8740  -18.8250   21.2830 C   0  0  0  0  0  3  0  0  0  0  0  0
  -29.6640  -19.9380   18.7850 C   0  0  0  0  0  3  0  0  0  0  0  0
  -29.6470  -20.2580   21.1240 C   0  0  0  0  0  0  0  0  0  0  0  0
  -30.0160  -17.8680   20.2160 C   0  0  0  0  0  0  0  0  0  0  0  0
  -29.5020  -20.9000   19.8450 C   0  0  0  0  0  0  0  0  0  0  0  0
  -29.9060  -18.5130   18.9420 C   0  0  0  0  0  0  0  0  0  0  0  0
  -29.4920  -21.0950   22.3800 C   0  0  0  0  0  1  0  0  0  0  0  0
  -29.9700  -17.5450   17.5130 Cl  0  0  0  0  0  0  0  0  0  0  0  0
  -30.8070  -15.2440   20.1010 C   0  0  0  0  0  0  0  0  0  0  0  0
  -30.6790  -12.8960   19.1740 C   0  0  0  0  0  2  0  0  0  0  0  0
  -29.7280  -12.8850   17.9530 C   0  0  0  0  0  2  0  0  0  0  0  0
  -28.2650  -12.6970   18.3980 C   0  0  0  0  0  2  0  0  0  0  0  0
  -27.8870  -13.6180   19.5880 C   0  0  0  0  0  3  0  0  0  0  0  0
  -28.9550  -13.5850   20.7040 C   0  0  0  0  0  2  0  0  0  0  0  0
  -30.2340  -13.9770   20.0950 N   0  0  0  0  0  0  0  0  0  0  0  0
  -31.9760  -15.3540   19.7150 O   0  0  0  0  0  0  0  0  0  0  0  0
  -30.0130  -16.3570   20.4530 N   0  0  0  0  0  0  0  0  0  0  0  0
  -29.1710  -16.0490   20.9150 H   0  0  0  0  0  0  0  0  0  0  0  0
  -25.5270  -14.2270   20.3740 C   0  0  0  0  0  0  0  0  0  0  0  0
  -24.4540  -13.4640   20.7450 C   0  0  0  0  0  0  0  0  0  0  0  0
  -24.8910  -12.1050   20.6740 C   0  0  0  0  0  0  0  0  0  0  0  0
  -26.5490  -13.3350   20.0960 N   0  0  0  0  0  0  0  0  0  0  0  0
  -26.1750  -12.0520   20.3400 N   0  0  0  0  0  0  0  0  0  0  0  0
  -24.1440  -10.8540   20.8470 C   0  0  0  0  0  0  0  0  0  0  0  0
  -24.5580   -9.8660   21.7690 C   0  0  0  0  0  3  0  0  0  0  0  0
  -23.8100   -8.6800   21.9310 C   0  0  0  0  0  3  0  0  0  0  0  0
  -22.6340   -8.4710   21.1730 C   0  0  0  0  0  0  0  0  0  0  0  0
  -22.2390   -9.4470   20.2400 C   0  0  0  0  0  3  0  0  0  0  0  0
  -22.9870  -10.6250   20.0750 C   0  0  0  0  0  3  0  0  0  0  0  0
  -21.8590   -7.3390   21.2450 O   0  0  0  0  0  0  0  0  0  0  0  0
  -21.7870   -6.5890   22.3910 C   0  0  0  0  0  0  0  0  0  0  0  0
  -21.2990   -7.1240   23.6030 C   0  0  0  0  0  3  0  0  0  0  0  0
  -21.1760   -6.2980   24.7380 C   0  0  0  0  0  3  0  0  0  0  0  0
  -21.5310   -4.9390   24.6620 C   0  0  0  0  0  0  0  0  0  0  0  0
  -22.0130   -4.4030   23.4550 C   0  0  0  0  0  3  0  0  0  0  0  0
  -22.1370   -5.2260   22.3220 C   0  0  0  0  0  0  0  0  0  0  0  0
  -22.5820   -4.6980   21.1560 F   0  0  0  0  0  0  0  0  0  0  0  0
  -21.4070   -4.1430   25.7500 F   0  0  0  0  0  0  0  0  0  0  0  0
  -23.0710  -13.9610   21.0510 C   0  0  0  0  0  0  0  0  0  0  0  0
  -22.3470  -13.2650   21.9200 N   0  0  0  0  0  0  0  0  0  0  0  0
  -22.6420  -15.0020   20.5540 O   0  0  0  0  0  0  0  0  0  0  0  0
  -22.7070  -12.4220   22.3420 H   0  0  0  0  0  0  0  0  0  0  0  0
  -21.4190  -13.5790   22.1660 H   0  0  0  0  0  0  0  0  0  0  0  0
  -25.7130  -15.5980   20.2250 N   0  0  0  0  0  0  0  0  0  0  0  0
  -24.9560  -16.2600   20.3570 H   0  0  0  0  0  0  0  0  0  0  0  0
  -26.5530  -16.0280   19.8580 H   0  0  0  0  0  0  0  0  0  0  0  0
  -29.1380  -22.3110   19.5340 N   0  0  0  0  0  0  0  0  0  0  0  0
  -28.9380  -22.4350   18.5450 H   0  0  0  0  0  0  0  0  0  0  0  0
  -29.2630  -23.7020   20.2230 C   0  0  0  0  0  3  0  0  0  0  0  0
  -28.3400  -25.0150   19.7180 C   0  0  0  0  0  3  0  0  0  0  0  0
  -28.4760  -26.5090   20.1190 O   0  0  0  0  0  0  0  0  0  0  0  0
  -24.5850  -31.9180   23.2240 C   0  0  0  0  0  0  0  0  0  0  0  0
  -27.3780  -27.4380   20.0510 C   0  0  0  0  0  0  0  0  0  0  0  0
  -23.4550  -30.5370   21.5230 C   0  0  0  0  0  3  0  0  0  0  0  0
  -24.9780  -29.0770   20.0570 C   0  0  0  0  0  0  0  0  0  0  0  0
  -25.9960  -30.9120   21.3970 C   0  0  0  0  0  2  0  0  0  0  0  0
  -26.1310  -29.5500   20.6960 C   0  0  0  0  0  0  0  0  0  0  0  0
  -27.3290  -28.7450   20.6810 C   0  0  0  0  0  3  0  0  0  0  0  0
  -26.1990  -27.0710   19.3630 C   0  0  0  0  0  3  0  0  0  0  0  0
  -25.0240  -27.8510   19.3760 C   0  0  0  0  0  3  0  0  0  0  0  0
  -23.7150  -29.9200   20.1230 C   0  0  0  0  0  2  0  0  0  0  0  0
  -24.6960  -31.1430   22.1040 N   0  0  0  0  0  0  0  0  0  0  0  0
  -23.4830  -32.1420   23.7510 O   0  0  0  0  0  0  0  0  0  0  0  0
  -22.8090  -29.4690   22.4410 C   0  0  0  0  0  0  0  0  0  0  0  0
  -21.4890  -29.2540   22.2960 N   0  0  0  0  0  0  0  0  0  0  0  0
  -23.4980  -28.8370   23.2460 O   0  0  0  0  0  0  0  0  0  0  0  0
  -20.9890  -29.8190   21.6250 H   0  0  0  0  0  0  0  0  0  0  0  0
  -18.1440  -27.9430   22.7540 C   0  0  0  0  0  0  0  0  0  0  0  0
  -20.6960  -28.2610   23.0260 C   0  0  0  0  0  3  0  0  0  0  0  0
  -20.8340  -26.8600   22.3860 C   0  0  0  0  0  2  0  0  0  0  0  0
  -19.7370  -26.5550   21.3600 C   0  0  0  0  0  2  0  0  0  0  0  0
  -18.3540  -26.6320   22.0150 C   0  0  0  0  0  2  0  0  0  0  0  0
  -19.2430  -28.7150   23.2140 C   0  0  0  0  0  0  0  0  0  0  0  0
  -18.9920  -29.9420   23.8680 C   0  0  0  0  0  3  0  0  0  0  0  0
  -17.6730  -30.3970   24.0620 C   0  0  0  0  0  3  0  0  0  0  0  0
  -16.5890  -29.6210   23.6150 C   0  0  0  0  0  3  0  0  0  0  0  0
  -16.8260  -28.3960   22.9680 C   0  0  0  0  0  3  0  0  0  0  0  0
  -25.8310  -32.5800   23.8870 C   0  0  0  0  0  3  0  0  0  0  0  0
  -26.3060  -31.8350   25.1950 C   0  0  1  0  0  0  0  0  0  0  0  0
  -25.1740  -31.5910   26.2190 C   0  0  0  0  0  1  0  0  0  0  0  0
  -26.9300  -30.4620   24.8510 C   0  0  0  0  0  1  0  0  0  0  0  0
  -27.4130  -32.6590   25.8930 C   0  0  0  0  0  1  0  0  0  0  0  0
  -25.4880  -33.9790   24.1900 N   0  0  0  0  0  0  0  0  0  0  0  0
  -25.8180  -35.0290   23.4270 C   0  0  0  0  0  0  0  0  0  0  0  0
  -26.5090  -34.9250   22.4100 O   0  0  0  0  0  0  0  0  0  0  0  0
  -24.8750  -34.1310   24.9770 H   0  0  0  0  0  0  0  0  0  0  0  0
  -24.0690  -36.7930   23.0190 C   0  0  0  0  0  1  0  0  0  0  0  0
  -25.3000  -36.4160   23.8590 C   0  0  0  0  0  3  0  0  0  0  0  0
  -27.3920  -37.3580   24.7360 C   0  0  0  0  0  1  0  0  0  0  0  0
  -26.3190  -37.4840   23.7540 N   0  0  0  0  0  0  0  0  0  0  0  0
  -25.8930  -38.4000   23.8640 H   0  0  0  0  0  0  0  0  0  0  0  0
  2  6  2  0
  2  5  1  0
  3  1  1  0
  3  7  1  0
  4 17  1  0
  4  1  2  0
  5  3  2  0
  6  4  1  0
  8  6  1  0
  9 17  1  0
 10 15  1  0
 11 12  1  0
 11 10  1  0
 13 12  1  0
 13 22  1  0
 13 14  1  0
 15  9  1  0
 15 14  1  0
 16  9  2  0
 17 18  1  0
 19 20  2  0
 20 39  1  0
 21 20  1  0
 21 24  1  0
 22 23  1  0
 22 19  1  0
 23 21  2  0
 24 25  1  0
 25 26  2  0
 27 30  1  0
 27 26  1  0
 28 27  2  0
 29 28  1  0
 29 24  2  0
 30 31  1  0
 31 32  1  0
 32 33  2  0
 34 33  1  0
 34 38  1  0
 35 34  2  0
 36 31  2  0
 36 35  1  0
 37 36  1  0
 39 40  1  0
 40 43  1  0
 40 42  1  0
 41 39  2  0
 44 45  1  0
 44 19  1  0
 46 44  1  0
 47  5  1  0
 47 49  1  0
 48 47  1  0
 50 51  1  0
 50 49  2  0
 52 63  2  0
 53 51  1  0
 53 58  1  0
 54 62  1  0
 54 64  1  0
 55 61  1  0
 55 57  1  0
 56 62  1  0
 57 56  1  0
 58 57  2  0
 59 60  1  0
 59 53  2  0
 60 55  2  0
 61 54  1  0
 62 52  1  0
 64 66  2  0
 65 64  1  0
 67 65  1  0
 68 77  2  0
 68 73  1  0
 69 65  1  0
 69 73  1  0
 70 69  1  0
 71 72  1  0
 71 70  1  0
 72 68  1  0
 73 74  2  0
 74 75  1  0
 76 75  2  0
 77 76  1  0
 78 52  1  0
 78 83  1  0
 78 79  1  0
 79 82  1  1
 79 80  1  0
 81 79  1  0
 83 86  1  0
 84 88  1  0
 84 83  1  0
 85 84  2  0
 88 87  1  0
 90 88  1  0
 90 91  1  0
 90 89  1  0
M  ISO  4   9 100  17 100  50 101  51 101
M  END
>  <TORSDO>  (13) 
F 19

>  <SCORE>  (13) 
-13.267

>  <name>  (13) 
12

>  <ligand_id>  (13) 
12

>  <original_smiles>  (13) 
[H]c1c([H])c([H])c2c(c1[H])C([H])([H])C([H])([H])C([H])([H])C2([H])N([H])C(=O)C1([H])N(C(=O)C([H])(N([H])C(=O)C([H])(N([H])C([H])([H])[H])C([H])([H])[H])C(C([H])([H])[H])(C([H])([H])[H])C([H])([H])[H])C([H])([H])c2c([H])c(OC([H])([H])C([H])([H])N([H])c3c([H])c(Cl)c(N([H])C(=O)N4C([H])([H])C([H])([H])C([H])([H])C([H])(n5nc(-c6c([H])c([H])c(Oc7c([H])c([H])c(F)c([H])c7F)c([H])c6[H])c(C(=O)N([H])[H])c5N([H])[H])C4([H])[H])c([H])c3C([H])([H])[H])c([H])c([H])c2C1([H])[H]

>  <smiles>  (13) 
[H]c1c([H])c([H])c2c(c1[H])C([H])([H])C([H])([H])C([H])([H])C2([H])N([H])C(=O)C1([H])N(C(=O)C([H])(N([H])C(=O)C([H])(N([H])C([H])([H])[H])C([H])([H])[H])C(C([H])([H])[H])(C([H])([H])[H])C([H])([H])[H])C([H])([H])c2c([H])c(OC([H])([H])C([H])([H])N([H])c3c([H])c(Cl)c(N([H])C(=O)N4C([H])([H])C([H])([H])C([H])([H])C([H])(n5nc(-c6c([H])c([H])c(Oc7c([H])c([H])c(F)c([H])c7F)c([H])c6[H])c(C(=O)N([H])[H])c5N([H])[H])C4([H])[H])c([H])c3C([H])([H])[H])c([H])c([H])c2C1([H])[H]

$$$$
13:0:0
     RDKit          3D

 90 97  0  0  1  0  0  0  0  0999 V2000
  -30.8720  -19.6530   20.2230 C   0  0  0  0  0  3  0  0  0  0  0  0
  -31.2100  -21.0550   20.2450 C   0  0  0  0  0  0  0  0  0  0  0  0
  -29.5670  -19.1100   20.1800 C   0  0  0  0  0  0  0  0  0  0  0  0
  -28.8810  -22.0940   20.1770 C   0  0  0  0  0  0  0  0  0  0  0  0
  -30.3030  -22.1880   20.2270 C   0  0  0  0  0  0  0  0  0  0  0  0
  -28.6170  -20.4590   20.1590 C   0  0  0  0  0  0  0  0  0  0  0  0
  -32.7020  -21.3580   20.2960 C   0  0  0  0  0  1  0  0  0  0  0  0
  -30.9970  -23.7780   20.2700 Cl  0  0  0  0  0  0  0  0  0  0  0  0
  -26.9380  -20.0640   20.1040 Cl  0  0  0  0  0  0  0  0  0  0  0  0
  -30.2540  -15.9240   20.0600 C   0  0  0  0  0  0  0  0  0  0  0  0
  -30.4120  -13.3440   19.2030 C   0  0  0  0  0  2  0  0  0  0  0  0
  -29.5040  -12.8490   18.0340 C   0  0  0  0  0  2  0  0  0  0  0  0
  -28.1190  -12.4290   18.5430 C   0  0  0  0  0  2  0  0  0  0  0  0
  -27.6060  -13.4220   19.6070 C   0  0  0  0  0  3  0  0  0  0  0  0
  -28.6580  -13.8090   20.6770 C   0  0  0  0  0  2  0  0  0  0  0  0
  -29.7650  -14.5190   19.9770 N   0  0  0  0  0  0  0  0  0  0  0  0
  -31.4870  -15.8430   19.8630 O   0  0  0  0  0  0  0  0  0  0  0  0
  -29.4730  -17.3250   20.1690 N   0  0  0  0  0  0  0  0  0  0  0  0
  -28.5010  -17.0660   20.2640 H   0  0  0  0  0  0  0  0  0  0  0  0
  -25.2720  -13.8940   20.4720 C   0  0  0  0  0  0  0  0  0  0  0  0
  -24.2380  -13.0910   20.8610 C   0  0  0  0  0  0  0  0  0  0  0  0
  -24.7270  -11.7500   20.7870 C   0  0  0  0  0  0  0  0  0  0  0  0
  -26.3200  -13.0440   20.1730 N   0  0  0  0  0  0  0  0  0  0  0  0
  -26.0090  -11.7440   20.4290 N   0  0  0  0  0  0  0  0  0  0  0  0
  -24.0220  -10.4740   20.9770 C   0  0  0  0  0  0  0  0  0  0  0  0
  -24.4720   -9.5100   21.9060 C   0  0  0  0  0  3  0  0  0  0  0  0
  -23.7590   -8.3040   22.0870 C   0  0  0  0  0  3  0  0  0  0  0  0
  -22.5840   -8.0530   21.3400 C   0  0  0  0  0  0  0  0  0  0  0  0
  -22.1530   -9.0070   20.4010 C   0  0  0  0  0  3  0  0  0  0  0  0
  -22.8650  -10.2040   20.2180 C   0  0  0  0  0  3  0  0  0  0  0  0
  -21.8430   -6.8990   21.4320 O   0  0  0  0  0  0  0  0  0  0  0  0
  -21.7780   -6.1750   22.5960 C   0  0  0  0  0  0  0  0  0  0  0  0
  -21.2880   -6.7350   23.7960 C   0  0  0  0  0  3  0  0  0  0  0  0
  -21.1740   -5.9350   24.9500 C   0  0  0  0  0  3  0  0  0  0  0  0
  -21.5400   -4.5760   24.9060 C   0  0  0  0  0  0  0  0  0  0  0  0
  -22.0240   -4.0160   23.7100 C   0  0  0  0  0  3  0  0  0  0  0  0
  -22.1390   -4.8130   22.5580 C   0  0  0  0  0  0  0  0  0  0  0  0
  -22.5850   -4.2630   21.4030 F   0  0  0  0  0  0  0  0  0  0  0  0
  -21.4240   -3.8060   26.0120 F   0  0  0  0  0  0  0  0  0  0  0  0
  -22.8450  -13.5440   21.1790 C   0  0  0  0  0  0  0  0  0  0  0  0
  -22.1550  -12.8310   22.0620 N   0  0  0  0  0  0  0  0  0  0  0  0
  -22.3780  -14.5670   20.6810 O   0  0  0  0  0  0  0  0  0  0  0  0
  -22.5490  -12.0040   22.4860 H   0  0  0  0  0  0  0  0  0  0  0  0
  -21.2210  -13.1170   22.3190 H   0  0  0  0  0  0  0  0  0  0  0  0
  -25.4040  -15.2700   20.3140 N   0  0  0  0  0  0  0  0  0  0  0  0
  -24.6290  -15.9060   20.4630 H   0  0  0  0  0  0  0  0  0  0  0  0
  -26.2240  -15.7270   19.9380 H   0  0  0  0  0  0  0  0  0  0  0  0
  -27.9910  -23.5190   20.1540 N   0  0  0  0  0  2  0  0  0  0  0  0
  -26.9890  -23.3550   20.1160 H   0  0  0  0  0  0  0  0  0  0  0  0
  -28.2370  -25.3770   20.1810 O   0  0  0  0  0  1  0  0  0  0  0  0
  -24.6520  -31.7900   23.1520 C   0  0  0  0  0  0  0  0  0  0  0  0
  -27.2460  -26.6270   20.1780 C   0  0  0  0  0  0  0  0  0  0  0  0
  -23.5150  -30.4180   21.4590 C   0  0  0  0  0  3  0  0  0  0  0  0
  -25.0010  -28.7570   20.0760 C   0  0  0  0  0  0  0  0  0  0  0  0
  -26.1000  -30.5110   21.4360 C   0  0  0  0  0  2  0  0  0  0  0  0
  -26.1770  -29.0710   20.7660 C   0  0  0  0  0  0  0  0  0  0  0  0
  -27.2740  -28.0370   20.7840 C   0  0  0  0  0  3  0  0  0  0  0  0
  -26.0420  -26.5660   19.4220 C   0  0  0  0  0  3  0  0  0  0  0  0
  -24.9800  -27.5330   19.3820 C   0  0  0  0  0  3  0  0  0  0  0  0
  -23.8020  -29.7300   20.0910 C   0  0  0  0  0  2  0  0  0  0  0  0
  -24.7790  -30.9430   22.0690 N   0  0  0  0  0  0  0  0  0  0  0  0
  -23.5410  -32.0910   23.6250 O   0  0  0  0  0  0  0  0  0  0  0  0
  -22.7540  -29.4400   22.3960 C   0  0  0  0  0  0  0  0  0  0  0  0
  -21.4190  -29.3290   22.2550 N   0  0  0  0  0  0  0  0  0  0  0  0
  -23.3810  -28.7770   23.2260 O   0  0  0  0  0  0  0  0  0  0  0  0
  -20.9620  -29.9130   21.5690 H   0  0  0  0  0  0  0  0  0  0  0  0
  -17.9860  -28.2410   22.7640 C   0  0  0  0  0  0  0  0  0  0  0  0
  -20.5600  -28.3900   22.9900 C   0  0  0  0  0  3  0  0  0  0  0  0
  -20.5890  -26.9870   22.3400 C   0  0  0  0  0  2  0  0  0  0  0  0
  -19.4590  -26.7670   21.3290 C   0  0  0  0  0  2  0  0  0  0  0  0
  -18.0960  -26.9280   22.0060 C   0  0  0  0  0  2  0  0  0  0  0  0
  -19.1420  -28.9350   23.2120 C   0  0  0  0  0  0  0  0  0  0  0  0
  -18.9810  -30.1630   23.8890 C   0  0  0  0  0  3  0  0  0  0  0  0
  -17.6980  -30.6970   24.1180 C   0  0  0  0  0  3  0  0  0  0  0  0
  -16.5570  -30.0010   23.6800 C   0  0  0  0  0  3  0  0  0  0  0  0
  -16.7030  -28.7730   23.0100 C   0  0  0  0  0  3  0  0  0  0  0  0
  -25.8900  -32.4330   23.8460 C   0  0  0  0  0  3  0  0  0  0  0  0
  -25.5560  -33.8310   24.1910 N   0  0  0  0  0  0  0  0  0  0  0  0
  -25.8840  -34.9090   23.4660 C   0  0  0  0  0  0  0  0  0  0  0  0
  -26.5520  -34.8310   22.4320 O   0  0  0  0  0  0  0  0  0  0  0  0
  -24.9580  -33.9620   24.9940 H   0  0  0  0  0  0  0  0  0  0  0  0
  -24.1360  -36.7050   23.1900 C   0  0  0  0  0  1  0  0  0  0  0  0
  -25.4000  -36.2900   23.9600 C   0  0  0  0  0  3  0  0  0  0  0  0
  -27.5410  -37.1960   24.7570 C   0  0  0  0  0  1  0  0  0  0  0  0
  -26.4220  -37.3540   23.8330 N   0  0  0  0  0  0  0  0  0  0  0  0
  -26.0110  -38.2710   23.9840 H   0  0  0  0  0  0  0  0  0  0  0  0
  -26.3380  -31.6580   25.1490 C   0  0  1  0  0  0  0  0  0  0  0  0
  -25.1910  -31.4250   26.1620 C   0  0  0  0  0  1  0  0  0  0  0  0
  -26.9320  -30.2780   24.7990 C   0  0  0  0  0  1  0  0  0  0  0  0
  -27.4580  -32.4460   25.8670 C   0  0  0  0  0  1  0  0  0  0  0  0
  1  2  1  0
  2  7  1  0
  3  1  2  0
  4  5  1  0
  5  2  2  0
  5  8  1  0
  6  4  2  0
  6  3  1  0
  9  6  1  0
 10 18  1  0
 11 16  1  0
 12 13  1  0
 12 11  1  0
 14 13  1  0
 14 23  1  0
 14 15  1  0
 16 10  1  0
 16 15  1  0
 17 10  2  0
 18  3  1  0
 18 19  1  0
 20 21  2  0
 21 40  1  0
 22 21  1  0
 22 25  1  0
 23 24  1  0
 23 20  1  0
 24 22  2  0
 25 26  1  0
 26 27  2  0
 28 31  1  0
 28 27  1  0
 29 28  2  0
 30 29  1  0
 30 25  2  0
 31 32  1  0
 32 33  1  0
 33 34  2  0
 35 34  1  0
 35 39  1  0
 36 35  2  0
 37 32  2  0
 37 36  1  0
 38 37  1  0
 40 41  1  0
 41 44  1  0
 41 43  1  0
 42 40  2  0
 45 46  1  0
 45 20  1  0
 47 45  1  0
 48  4  1  0
 49 48  1  0
 51 62  2  0
 52 50  1  0
 52 57  1  0
 53 61  1  0
 53 63  1  0
 54 60  1  0
 54 56  1  0
 55 61  1  0
 56 57  2  0
 56 55  1  0
 58 52  2  0
 59 58  1  0
 59 54  2  0
 60 53  1  0
 61 51  1  0
 63 65  2  0
 64 63  1  0
 66 64  1  0
 67 76  2  0
 67 72  1  0
 68 64  1  0
 68 72  1  0
 69 68  1  0
 70 71  1  0
 70 69  1  0
 71 67  1  0
 72 73  2  0
 73 74  1  0
 75 74  2  0
 76 75  1  0
 77 51  1  0
 77 78  1  0
 77 87  1  0
 78 81  1  0
 79 83  1  0
 79 78  1  0
 80 79  2  0
 83 82  1  0
 85 83  1  0
 85 86  1  0
 85 84  1  0
 87 90  1  1
 87 88  1  0
 89 87  1  0
M  ISO  4  10 100  18 100  48 101  50 101
M  END
>  <TORSDO>  (14) 
F 17

>  <SCORE>  (14) 
-15.935

>  <name>  (14) 
13

>  <ligand_id>  (14) 
13

>  <original_smiles>  (14) 
[H]c1c([H])c([H])c2c(c1[H])C([H])([H])C([H])([H])C([H])([H])C2([H])N([H])C(=O)C1([H])N(C(=O)C([H])(N([H])C(=O)C([H])(N([H])C([H])([H])[H])C([H])([H])[H])C(C([H])([H])[H])(C([H])([H])[H])C([H])([H])[H])C([H])([H])c2c([H])c(ON([H])c3c(Cl)c(N([H])C(=O)N4C([H])([H])C([H])([H])C([H])([H])C([H])(n5nc(-c6c([H])c([H])c(Oc7c([H])c([H])c(F)c([H])c7F)c([H])c6[H])c(C(=O)N([H])[H])c5N([H])[H])C4([H])[H])c([H])c(C([H])([H])[H])c3Cl)c([H])c([H])c2C1([H])[H]

>  <smiles>  (14) 
[H]c1c([H])c([H])c2c(c1[H])C([H])([H])C([H])([H])C([H])([H])C2([H])N([H])C(=O)C1([H])N(C(=O)C([H])(N([H])C(=O)C([H])(N([H])C([H])([H])[H])C([H])([H])[H])C(C([H])([H])[H])(C([H])([H])[H])C([H])([H])[H])C([H])([H])c2c([H])c(ON([H])c3c(Cl)c(N([H])C(=O)N4C([H])([H])C([H])([H])C([H])([H])C([H])(n5nc(-c6c([H])c([H])c(Oc7c([H])c([H])c(F)c([H])c7F)c([H])c6[H])c(C(=O)N([H])[H])c5N([H])[H])C4([H])[H])c([H])c(C([H])([H])[H])c3Cl)c([H])c([H])c2C1([H])[H]

$$$$
14:0:0
     RDKit          3D

 92100  0  0  1  0  0  0  0  0999 V2000
  -30.8250  -18.5980   19.7410 C   0  0  0  0  0  3  0  0  0  0  0  0
  -30.6270  -20.0520   19.7480 C   0  0  0  0  0  3  0  0  0  0  0  0
  -29.7750  -17.6310   19.9360 C   0  0  0  0  0  0  0  0  0  0  0  0
  -29.3570  -20.7180   19.9280 C   0  0  0  0  0  0  0  0  0  0  0  0
  -28.5140  -18.3030   20.1090 C   0  0  0  0  0  0  0  0  0  0  0  0
  -28.3100  -19.7450   20.0900 C   0  0  0  0  0  0  0  0  0  0  0  0
  -27.1430  -17.2960   20.4180 Cl  0  0  0  0  0  0  0  0  0  0  0  0
  -26.6930  -20.3370   20.3070 Cl  0  0  0  0  0  0  0  0  0  0  0  0
  -30.5880  -14.9780   19.5640 C   0  0  0  0  0  0  0  0  0  0  0  0
  -30.3520  -12.6510   18.5750 C   0  0  0  0  0  2  0  0  0  0  0  0
  -29.2900  -12.6690   17.4500 C   0  0  0  0  0  2  0  0  0  0  0  0
  -27.8730  -12.4780   18.0270 C   0  0  0  0  0  2  0  0  0  0  0  0
  -27.6150  -13.3700   19.2680 C   0  0  0  0  0  3  0  0  0  0  0  0
  -28.7820  -13.3040   20.2760 C   0  0  0  0  0  2  0  0  0  0  0  0
  -30.0000  -13.7140   19.5590 N   0  0  0  0  0  0  0  0  0  0  0  0
  -31.7310  -15.0830   19.1030 O   0  0  0  0  0  0  0  0  0  0  0  0
  -29.7990  -16.0890   19.9520 N   0  0  0  0  0  0  0  0  0  0  0  0
  -28.9430  -15.7410   20.3610 H   0  0  0  0  0  0  0  0  0  0  0  0
  -25.3440  -13.9790   20.2860 C   0  0  0  0  0  0  0  0  0  0  0  0
  -24.3020  -13.2210   20.7390 C   0  0  0  0  0  0  0  0  0  0  0  0
  -24.7090  -11.8610   20.5820 C   0  0  0  0  0  0  0  0  0  0  0  0
  -26.3260  -13.0870   19.8920 N   0  0  0  0  0  0  0  0  0  0  0  0
  -25.9560  -11.8010   20.1300 N   0  0  0  0  0  0  0  0  0  0  0  0
  -23.9580  -10.6150   20.7810 C   0  0  0  0  0  0  0  0  0  0  0  0
  -24.4380   -9.5880   21.6240 C   0  0  0  0  0  3  0  0  0  0  0  0
  -23.6870   -8.4090   21.8130 C   0  0  0  0  0  3  0  0  0  0  0  0
  -22.4400   -8.2480   21.1620 C   0  0  0  0  0  0  0  0  0  0  0  0
  -21.9760   -9.2650   20.3090 C   0  0  0  0  0  3  0  0  0  0  0  0
  -22.7280  -10.4350   20.1160 C   0  0  0  0  0  3  0  0  0  0  0  0
  -21.6540   -7.1270   21.2680 O   0  0  0  0  0  0  0  0  0  0  0  0
  -21.6760   -6.3350   22.3890 C   0  0  0  0  0  0  0  0  0  0  0  0
  -21.3780   -6.8490   23.6700 C   0  0  0  0  0  3  0  0  0  0  0  0
  -21.3450   -5.9870   24.7840 C   0  0  0  0  0  3  0  0  0  0  0  0
  -21.6000   -4.6120   24.6190 C   0  0  0  0  0  0  0  0  0  0  0  0
  -21.8920   -4.0980   23.3430 C   0  0  0  0  0  3  0  0  0  0  0  0
  -21.9270   -4.9570   22.2310 C   0  0  0  0  0  0  0  0  0  0  0  0
  -22.1880   -4.4530   21.0010 F   0  0  0  0  0  0  0  0  0  0  0  0
  -21.5600   -3.7830   25.6880 F   0  0  0  0  0  0  0  0  0  0  0  0
  -22.9640  -13.7290   21.1930 C   0  0  0  0  0  0  0  0  0  0  0  0
  -22.3210  -13.0250   22.1180 N   0  0  0  0  0  0  0  0  0  0  0  0
  -22.5030  -14.7860   20.7650 O   0  0  0  0  0  0  0  0  0  0  0  0
  -22.7090  -12.1690   22.4890 H   0  0  0  0  0  0  0  0  0  0  0  0
  -21.4290  -13.3470   22.4620 H   0  0  0  0  0  0  0  0  0  0  0  0
  -25.5200  -15.3510   20.1520 N   0  0  0  0  0  0  0  0  0  0  0  0
  -24.8000  -16.0100   20.4220 H   0  0  0  0  0  0  0  0  0  0  0  0
  -26.3560  -15.8040   19.8100 H   0  0  0  0  0  0  0  0  0  0  0  0
  -28.8200  -23.3650   19.4270 C   0  0  0  0  0  0  0  0  0  0  0  0
  -29.1340  -22.4850   21.6720 C   0  0  0  0  0  1  0  0  0  0  0  0
  -29.1140  -22.2150   20.2300 N   0  0  0  0  0  0  0  0  0  0  0  0
  -29.0490  -23.3250   18.2150 O   0  0  0  0  0  0  0  0  0  0  0  0
  -28.1180  -24.7660   20.0100 C   0  0  0  0  0  2  0  0  0  0  0  0
  -28.2420  -26.1780   19.3730 O   0  0  0  0  0  0  0  0  0  0  0  0
  -24.6840  -31.5760   22.9550 C   0  0  0  0  0  0  0  0  0  0  0  0
  -27.1710  -27.1320   19.4920 C   0  0  0  0  0  0  0  0  0  0  0  0
  -23.4230  -30.2810   21.2780 C   0  0  0  0  0  3  0  0  0  0  0  0
  -24.8200  -28.8270   19.6860 C   0  0  0  0  0  0  0  0  0  0  0  0
  -25.9620  -30.5970   21.0140 C   0  0  0  0  0  2  0  0  0  0  0  0
  -26.0210  -29.2540   20.2660 C   0  0  0  0  0  0  0  0  0  0  0  0
  -27.1990  -28.4250   20.1500 C   0  0  0  0  0  3  0  0  0  0  0  0
  -25.9410  -26.8020   18.8860 C   0  0  0  0  0  3  0  0  0  0  0  0
  -24.7900  -27.6150   18.9790 C   0  0  0  0  0  3  0  0  0  0  0  0
  -23.5860  -29.7020   19.8480 C   0  0  0  0  0  2  0  0  0  0  0  0
  -24.7120  -30.8370   21.8050 N   0  0  0  0  0  0  0  0  0  0  0  0
  -23.6200  -31.8080   23.5500 O   0  0  0  0  0  0  0  0  0  0  0  0
  -22.8000  -29.2010   22.1970 C   0  0  0  0  0  0  0  0  0  0  0  0
  -21.4690  -29.0210   22.1170 N   0  0  0  0  0  0  0  0  0  0  0  0
  -23.5140  -28.5280   22.9450 O   0  0  0  0  0  0  0  0  0  0  0  0
  -20.9470  -29.6150   21.4900 H   0  0  0  0  0  0  0  0  0  0  0  0
  -18.1260  -27.7480   22.6900 C   0  0  0  0  0  0  0  0  0  0  0  0
  -20.6920  -28.0220   22.8580 C   0  0  0  0  0  3  0  0  0  0  0  0
  -20.7790  -26.6360   22.1790 C   0  0  0  0  0  2  0  0  0  0  0  0
  -19.6340  -26.3710   21.1970 C   0  0  0  0  0  2  0  0  0  0  0  0
  -18.2830  -26.4530   21.9120 C   0  0  0  0  0  2  0  0  0  0  0  0
  -19.2560  -28.4930   23.1200 C   0  0  0  0  0  0  0  0  0  0  0  0
  -19.0530  -29.7070   23.8130 C   0  0  0  0  0  3  0  0  0  0  0  0
  -17.7520  -30.1770   24.0760 C   0  0  0  0  0  3  0  0  0  0  0  0
  -16.6380  -29.4290   23.6590 C   0  0  0  0  0  3  0  0  0  0  0  0
  -16.8250  -28.2160   22.9730 C   0  0  0  0  0  3  0  0  0  0  0  0
  -25.9840  -32.1810   23.5680 C   0  0  0  0  0  3  0  0  0  0  0  0
  -25.6670  -33.5390   24.0370 N   0  0  0  0  0  0  0  0  0  0  0  0
  -25.9550  -34.6640   23.3700 C   0  0  0  0  0  0  0  0  0  0  0  0
  -26.5840  -34.6680   22.3080 O   0  0  0  0  0  0  0  0  0  0  0  0
  -25.1020  -33.6100   24.8710 H   0  0  0  0  0  0  0  0  0  0  0  0
  -24.1840  -36.4500   23.2710 C   0  0  0  0  0  1  0  0  0  0  0  0
  -25.4730  -35.9980   23.9760 C   0  0  0  0  0  3  0  0  0  0  0  0
  -27.6350  -36.8490   24.7720 C   0  0  0  0  0  1  0  0  0  0  0  0
  -26.4820  -37.0780   23.9040 N   0  0  0  0  0  0  0  0  0  0  0  0
  -26.0700  -37.9730   24.1520 H   0  0  0  0  0  0  0  0  0  0  0  0
  -26.5740  -31.3160   24.7470 C   0  0  1  0  0  0  0  0  0  0  0  0
  -25.5430  -30.9770   25.8480 C   0  0  0  0  0  1  0  0  0  0  0  0
  -27.1490  -29.9820   24.2160 C   0  0  0  0  0  1  0  0  0  0  0  0
  -27.7520  -32.0690   25.4100 C   0  0  0  0  0  1  0  0  0  0  0  0
  1  2  2  0
  1  3  1  0
  2  4  1  0
  3 17  1  0
  3  5  2  0
  4  6  2  0
  4 49  1  0
  5  7  1  0
  6  5  1  0
  6  8  1  0
  9 17  1  0
 10 15  1  0
 11 12  1  0
 11 10  1  0
 13 12  1  0
 13 22  1  0
 13 14  1  0
 15  9  1  0
 15 14  1  0
 16  9  2  0
 17 18  1  0
 19 20  2  0
 20 39  1  0
 21 20  1  0
 21 24  1  0
 22 23  1  0
 22 19  1  0
 23 21  2  0
 24 25  1  0
 25 26  2  0
 27 30  1  0
 27 26  1  0
 28 27  2  0
 29 28  1  0
 29 24  2  0
 30 31  1  0
 31 32  1  0
 32 33  2  0
 34 33  1  0
 34 38  1  0
 35 34  2  0
 36 31  2  0
 36 35  1  0
 37 36  1  0
 39 40  1  0
 40 43  1  0
 40 42  1  0
 41 39  2  0
 44 19  1  0
 44 45  1  0
 46 44  1  0
 47 51  1  0
 47 49  1  0
 49 48  1  0
 50 47  2  0
 52 54  1  0
 52 51  1  0
 53 64  2  0
 54 59  1  0
 55 63  1  0
 55 65  1  0
 56 62  1  0
 56 58  1  0
 57 63  1  0
 58 57  1  0
 59 58  2  0
 60 61  1  0
 60 54  2  0
 61 56  2  0
 62 55  1  0
 63 53  1  0
 65 67  2  0
 66 65  1  0
 68 66  1  0
 69 78  2  0
 69 74  1  0
 70 66  1  0
 70 74  1  0
 71 70  1  0
 72 73  1  0
 72 71  1  0
 73 69  1  0
 74 75  2  0
 75 76  1  0
 77 76  2  0
 78 77  1  0
 79 53  1  0
 79 80  1  0
 79 89  1  0
 80 83  1  0
 81 85  1  0
 81 80  1  0
 82 81  2  0
 85 84  1  0
 87 85  1  0
 87 88  1  0
 87 86  1  0
 89 92  1  1
 89 90  1  0
 91 89  1  0
M  ISO  4   9 100  17 100  51 101  52 101
M  END
>  <TORSDO>  (15) 
F 18

>  <SCORE>  (15) 
-12.200

>  <name>  (15) 
14

>  <ligand_id>  (15) 
14

>  <original_smiles>  (15) 
[H]c1c([H])c([H])c2c(c1[H])C([H])([H])C([H])([H])C([H])([H])C2([H])N([H])C(=O)C1([H])N(C(=O)C([H])(N([H])C(=O)C([H])(N([H])C([H])([H])[H])C([H])([H])[H])C(C([H])([H])[H])(C([H])([H])[H])C([H])([H])[H])C([H])([H])c2c([H])c(OC([H])([H])C(=O)N(c3c([H])c([H])c(N([H])C(=O)N4C([H])([H])C([H])([H])C([H])([H])C([H])(n5nc(-c6c([H])c([H])c(Oc7c([H])c([H])c(F)c([H])c7F)c([H])c6[H])c(C(=O)N([H])[H])c5N([H])[H])C4([H])[H])c(Cl)c3Cl)C([H])([H])[H])c([H])c([H])c2C1([H])[H]

>  <smiles>  (15) 
[H]c1c([H])c([H])c2c(c1[H])C([H])([H])C([H])([H])C([H])([H])C2([H])N([H])C(=O)C1([H])N(C(=O)C([H])(N([H])C(=O)C([H])(N([H])C([H])([H])[H])C([H])([H])[H])C(C([H])([H])[H])(C([H])([H])[H])C([H])([H])[H])C([H])([H])c2c([H])c(OC([H])([H])C(=O)N(c3c([H])c([H])c(N([H])C(=O)N4C([H])([H])C([H])([H])C([H])([H])C([H])(n5nc(-c6c([H])c([H])c(Oc7c([H])c([H])c(F)c([H])c7F)c([H])c6[H])c(C(=O)N([H])[H])c5N([H])[H])C4([H])[H])c(Cl)c3Cl)C([H])([H])[H])c([H])c([H])c2C1([H])[H]

$$$$
15:0:0
     RDKit          3D

 85 92  0  0  1  0  0  0  0  0999 V2000
  -28.8290  -21.5610   19.9450 C   0  0  0  0  0  0  0  0  0  0  0  0
  -28.3520  -23.0900   20.4990 C   0  0  0  0  0  0  0  0  0  0  0  0
  -29.1440  -21.6520   18.4640 C   0  0  0  0  0  1  0  0  0  0  0  0
  -28.0150  -22.9510   21.7920 F   0  0  0  0  0  0  0  0  0  0  0  0
  -30.0360  -16.5160   20.0640 C   0  0  0  0  0  0  0  0  0  0  0  0
  -30.3320  -13.8100   19.2220 C   0  0  0  0  0  2  0  0  0  0  0  0
  -29.5140  -13.0300   18.1220 C   0  0  0  0  0  2  0  0  0  0  0  0
  -28.1920  -12.4830   18.6700 C   0  0  0  0  0  2  0  0  0  0  0  0
  -27.5810  -13.5170   19.6300 C   0  0  0  0  0  3  0  0  0  0  0  0
  -28.5840  -14.1610   20.6450 C   0  0  0  0  0  2  0  0  0  0  0  0
  -29.5770  -15.0340   19.8910 N   0  0  0  0  0  0  0  0  0  0  0  0
  -31.2800  -16.2890   20.1000 O   0  0  0  0  0  0  0  0  0  0  0  0
  -29.3160  -19.7640   20.4450 C   0  0  0  0  0  0  0  0  0  0  0  0
  -28.3020  -18.0160   18.8990 C   0  0  0  0  0  1  0  0  0  0  0  0
  -29.3190  -18.1040   19.9470 N   0  0  0  0  0  0  0  0  0  0  0  0
  -29.9010  -19.7960   21.5310 O   0  0  0  0  0  0  0  0  0  0  0  0
  -25.2580  -13.9540   20.5090 C   0  0  0  0  0  0  0  0  0  0  0  0
  -24.2190  -13.1540   20.8870 C   0  0  0  0  0  0  0  0  0  0  0  0
  -24.7010  -11.8100   20.8000 C   0  0  0  0  0  0  0  0  0  0  0  0
  -26.3060  -13.1080   20.2120 N   0  0  0  0  0  0  0  0  0  0  0  0
  -25.9860  -11.8040   20.4410 N   0  0  0  0  0  0  0  0  0  0  0  0
  -23.9790  -10.5390   20.9830 C   0  0  0  0  0  0  0  0  0  0  0  0
  -24.4130   -9.5640   21.9090 C   0  0  0  0  0  3  0  0  0  0  0  0
  -23.6840   -8.3670   22.0860 C   0  0  0  0  0  3  0  0  0  0  0  0
  -22.5050   -8.1350   21.3380 C   0  0  0  0  0  0  0  0  0  0  0  0
  -22.0900   -9.0970   20.4010 C   0  0  0  0  0  3  0  0  0  0  0  0
  -22.8200  -10.2850   20.2210 C   0  0  0  0  0  3  0  0  0  0  0  0
  -21.7480   -6.9890   21.4230 O   0  0  0  0  0  0  0  0  0  0  0  0
  -21.6770   -6.2570   22.5810 C   0  0  0  0  0  0  0  0  0  0  0  0
  -21.1910   -6.8130   23.7860 C   0  0  0  0  0  3  0  0  0  0  0  0
  -21.0690   -6.0060   24.9350 C   0  0  0  0  0  3  0  0  0  0  0  0
  -21.4230   -4.6440   24.8810 C   0  0  0  0  0  0  0  0  0  0  0  0
  -21.9030   -4.0880   23.6820 C   0  0  0  0  0  3  0  0  0  0  0  0
  -22.0260   -4.8910   22.5350 C   0  0  0  0  0  0  0  0  0  0  0  0
  -22.4680   -4.3460   21.3770 F   0  0  0  0  0  0  0  0  0  0  0  0
  -21.3000   -3.8670   25.9820 F   0  0  0  0  0  0  0  0  0  0  0  0
  -22.8280  -13.6140   21.2040 C   0  0  0  0  0  0  0  0  0  0  0  0
  -22.1250  -12.8930   22.0710 N   0  0  0  0  0  0  0  0  0  0  0  0
  -22.3770  -14.6530   20.7220 O   0  0  0  0  0  0  0  0  0  0  0  0
  -22.5100  -12.0580   22.4850 H   0  0  0  0  0  0  0  0  0  0  0  0
  -21.1910  -13.1820   22.3230 H   0  0  0  0  0  0  0  0  0  0  0  0
  -25.3920  -15.3300   20.3560 N   0  0  0  0  0  0  0  0  0  0  0  0
  -24.6140  -15.9670   20.4950 H   0  0  0  0  0  0  0  0  0  0  0  0
  -26.2240  -15.7900   20.0110 H   0  0  0  0  0  0  0  0  0  0  0  0
  -28.1870  -24.8540   20.1270 O   0  0  0  0  0  0  0  0  0  0  0  0
  -24.6390  -31.7920   23.0890 C   0  0  0  0  0  0  0  0  0  0  0  0
  -27.2420  -26.2710   20.2580 C   0  0  0  0  0  0  0  0  0  0  0  0
  -23.4980  -30.3370   21.4810 C   0  0  0  0  0  3  0  0  0  0  0  0
  -24.9830  -28.5880   20.1430 C   0  0  0  0  0  0  0  0  0  0  0  0
  -26.0970  -30.3760   21.4240 C   0  0  0  0  0  2  0  0  0  0  0  0
  -26.1840  -28.8750   20.8040 C   0  0  0  0  0  0  0  0  0  0  0  0
  -27.2730  -27.7660   20.8090 C   0  0  0  0  0  3  0  0  0  0  0  0
  -25.9960  -26.3340   19.5300 C   0  0  0  0  0  3  0  0  0  0  0  0
  -24.9590  -27.3460   19.4790 C   0  0  0  0  0  3  0  0  0  0  0  0
  -23.7830  -29.5820   20.1440 C   0  0  0  0  0  2  0  0  0  0  0  0
  -24.7750  -30.8800   22.0500 N   0  0  0  0  0  0  0  0  0  0  0  0
  -23.5290  -32.1040   23.5620 O   0  0  0  0  0  0  0  0  0  0  0  0
  -22.7470  -29.4070   22.4750 C   0  0  0  0  0  0  0  0  0  0  0  0
  -21.4090  -29.2710   22.3600 N   0  0  0  0  0  0  0  0  0  0  0  0
  -23.3900  -28.7980   23.3330 O   0  0  0  0  0  0  0  0  0  0  0  0
  -20.9330  -29.8090   21.6480 H   0  0  0  0  0  0  0  0  0  0  0  0
  -18.0170  -28.0640   22.9310 C   0  0  0  0  0  0  0  0  0  0  0  0
  -20.5820  -28.3440   23.1480 C   0  0  0  0  0  3  0  0  0  0  0  0
  -20.6740  -26.9070   22.5840 C   0  0  0  0  0  2  0  0  0  0  0  0
  -19.5600  -26.5800   21.5840 C   0  0  0  0  0  2  0  0  0  0  0  0
  -18.1870  -26.7180   22.2460 C   0  0  0  0  0  2  0  0  0  0  0  0
  -19.1380  -28.8340   23.3390 C   0  0  0  0  0  0  0  0  0  0  0  0
  -18.9180  -30.0890   23.9490 C   0  0  0  0  0  3  0  0  0  0  0  0
  -17.6120  -30.5740   24.1480 C   0  0  0  0  0  3  0  0  0  0  0  0
  -16.5060  -29.8030   23.7510 C   0  0  0  0  0  3  0  0  0  0  0  0
  -16.7090  -28.5480   23.1490 C   0  0  0  0  0  3  0  0  0  0  0  0
  -25.8650  -32.5000   23.7440 C   0  0  0  0  0  3  0  0  0  0  0  0
  -26.3650  -31.7730   25.0560 C   0  0  1  0  0  0  0  0  0  0  0  0
  -25.2500  -31.5300   26.1020 C   0  0  0  0  0  1  0  0  0  0  0  0
  -26.9960  -30.4030   24.7300 C   0  0  0  0  0  1  0  0  0  0  0  0
  -27.4760  -32.6120   25.7330 C   0  0  0  0  0  1  0  0  0  0  0  0
  -25.4950  -33.8980   24.0730 N   0  0  0  0  0  0  0  0  0  0  0  0
  -25.8160  -34.9830   23.3530 C   0  0  0  0  0  0  0  0  0  0  0  0
  -26.5000  -34.9150   22.3310 O   0  0  0  0  0  0  0  0  0  0  0  0
  -24.8820  -34.0210   24.8650 H   0  0  0  0  0  0  0  0  0  0  0  0
  -24.0640  -36.7720   23.0260 C   0  0  0  0  0  1  0  0  0  0  0  0
  -25.3030  -36.3590   23.8390 C   0  0  0  0  0  3  0  0  0  0  0  0
  -27.4120  -37.2700   24.7160 C   0  0  0  0  0  1  0  0  0  0  0  0
  -26.3170  -37.4360   23.7650 N   0  0  0  0  0  0  0  0  0  0  0  0
  -25.8900  -38.3430   23.9350 H   0  0  0  0  0  0  0  0  0  0  0  0
  1 13  1  0
  1  2  2  0
  2  4  1  0
  3  1  1  0
  5 12  2  0
  6 11  1  0
  7  8  1  0
  7  6  1  0
  9  8  1  0
  9 20  1  0
  9 10  1  0
 11  5  1  0
 11 10  1  0
 13 16  2  0
 14 15  1  0
 15  5  1  0
 15 13  1  0
 17 18  2  0
 18 37  1  0
 19 18  1  0
 19 22  1  0
 20 21  1  0
 20 17  1  0
 21 19  2  0
 22 23  1  0
 23 24  2  0
 25 28  1  0
 25 24  1  0
 26 25  2  0
 27 26  1  0
 27 22  2  0
 28 29  1  0
 29 30  1  0
 30 31  2  0
 32 31  1  0
 32 36  1  0
 33 32  2  0
 34 29  2  0
 34 33  1  0
 35 34  1  0
 37 38  1  0
 38 41  1  0
 38 40  1  0
 39 37  2  0
 42 43  1  0
 42 17  1  0
 44 42  1  0
 45 47  1  0
 45  2  1  0
 46 57  2  0
 47 52  1  0
 48 56  1  0
 48 58  1  0
 49 55  1  0
 49 51  1  0
 50 56  1  0
 51 52  2  0
 51 50  1  0
 53 47  2  0
 54 53  1  0
 54 49  2  0
 55 48  1  0
 56 46  1  0
 58 60  2  0
 59 58  1  0
 61 59  1  0
 62 71  2  0
 62 67  1  0
 63 59  1  0
 63 67  1  0
 64 63  1  0
 65 66  1  0
 65 64  1  0
 66 62  1  0
 67 68  2  0
 68 69  1  0
 70 69  2  0
 71 70  1  0
 72 46  1  0
 72 77  1  0
 72 73  1  0
 73 76  1  1
 73 74  1  0
 75 73  1  0
 77 80  1  0
 78 82  1  0
 78 77  1  0
 79 78  2  0
 82 81  1  0
 84 82  1  0
 84 85  1  0
 84 83  1  0
M  ISO  4   2 101   5 100  15 100  45 101
M  END
>  <TORSDO>  (16) 
F 16

>  <SCORE>  (16) 
-16.646

>  <name>  (16) 
15

>  <ligand_id>  (16) 
15

>  <original_smiles>  (16) 
[H]c1c([H])c([H])c2c(c1[H])C([H])([H])C([H])([H])C([H])([H])C2([H])N([H])C(=O)C1([H])N(C(=O)C([H])(N([H])C(=O)C([H])(N([H])C([H])([H])[H])C([H])([H])[H])C(C([H])([H])[H])(C([H])([H])[H])C([H])([H])[H])C([H])([H])c2c([H])c(OC(F)=C(C(=O)N(C(=O)N3C([H])([H])C([H])([H])C([H])([H])C([H])(n4nc(-c5c([H])c([H])c(Oc6c([H])c([H])c(F)c([H])c6F)c([H])c5[H])c(C(=O)N([H])[H])c4N([H])[H])C3([H])[H])C([H])([H])[H])C([H])([H])[H])c([H])c([H])c2C1([H])[H]

>  <smiles>  (16) 
[H]c1c([H])c([H])c2c(c1[H])C([H])([H])C([H])([H])C([H])([H])C2([H])N([H])C(=O)C1([H])N(C(=O)C([H])(N([H])C(=O)C([H])(N([H])C([H])([H])[H])C([H])([H])[H])C(C([H])([H])[H])(C([H])([H])[H])C([H])([H])[H])C([H])([H])c2c([H])c(OC(F)=C(C(=O)N(C(=O)N3C([H])([H])C([H])([H])C([H])([H])C([H])(n4nc(-c5c([H])c([H])c(Oc6c([H])c([H])c(F)c([H])c6F)c([H])c5[H])c(C(=O)N([H])[H])c4N([H])[H])C3([H])[H])C([H])([H])[H])C([H])([H])[H])c([H])c([H])c2C1([H])[H]

$$$$
16:0:0
     RDKit          3D

 92 99  0  0  1  0  0  0  0  0999 V2000
  -30.5790  -19.5820   21.1160 C   0  0  0  0  0  3  0  0  0  0  0  0
  -29.5000  -19.0750   20.3490 C   0  0  0  0  0  0  0  0  0  0  0  0
  -30.8130  -20.9680   21.4570 C   0  0  0  0  0  0  0  0  0  0  0  0
  -28.8340  -22.0620   20.2550 C   0  0  0  0  0  0  0  0  0  0  0  0
  -28.6540  -20.4360   19.9810 C   0  0  0  0  0  0  0  0  0  0  0  0
  -30.0330  -22.1210   21.0320 C   0  0  0  0  0  0  0  0  0  0  0  0
  -27.2130  -20.0140   19.1250 Cl  0  0  0  0  0  0  0  0  0  0  0  0
  -30.5880  -23.6940   21.5200 Cl  0  0  0  0  0  0  0  0  0  0  0  0
  -30.1750  -15.8850   20.2130 C   0  0  0  0  0  0  0  0  0  0  0  0
  -30.3480  -13.2930   19.4050 C   0  0  0  0  0  2  0  0  0  0  0  0
  -29.4880  -12.7640   18.2150 C   0  0  0  0  0  2  0  0  0  0  0  0
  -28.0830  -12.3600   18.6810 C   0  0  0  0  0  2  0  0  0  0  0  0
  -27.5230  -13.3920   19.6830 C   0  0  0  0  0  3  0  0  0  0  0  0
  -28.5290  -13.8050   20.7850 C   0  0  0  0  0  2  0  0  0  0  0  0
  -29.6700  -14.4910   20.1110 N   0  0  0  0  0  0  0  0  0  0  0  0
  -31.4190  -15.7810   20.1220 O   0  0  0  0  0  0  0  0  0  0  0  0
  -29.4130  -17.2990   20.1820 N   0  0  0  0  0  0  0  0  0  0  0  0
  -28.4480  -17.0570   20.0150 H   0  0  0  0  0  0  0  0  0  0  0  0
  -25.1530  -13.9030   20.4240 C   0  0  0  0  0  0  0  0  0  0  0  0
  -24.0950  -13.1190   20.7810 C   0  0  0  0  0  0  0  0  0  0  0  0
  -24.5740  -11.7710   20.7610 C   0  0  0  0  0  0  0  0  0  0  0  0
  -26.2070  -13.0400   20.1960 N   0  0  0  0  0  0  0  0  0  0  0  0
  -25.8720  -11.7490   20.4650 N   0  0  0  0  0  0  0  0  0  0  0  0
  -23.8490  -10.5060   20.9480 C   0  0  0  0  0  0  0  0  0  0  0  0
  -24.2610   -9.5520   21.9040 C   0  0  0  0  0  3  0  0  0  0  0  0
  -23.5300   -8.3550   22.0820 C   0  0  0  0  0  3  0  0  0  0  0  0
  -22.3740   -8.1070   21.3060 C   0  0  0  0  0  0  0  0  0  0  0  0
  -21.9810   -9.0500   20.3410 C   0  0  0  0  0  3  0  0  0  0  0  0
  -22.7130  -10.2360   20.1610 C   0  0  0  0  0  3  0  0  0  0  0  0
  -21.6210   -6.9590   21.3890 O   0  0  0  0  0  0  0  0  0  0  0  0
  -21.5340   -6.2390   22.5530 C   0  0  0  0  0  0  0  0  0  0  0  0
  -21.0390   -6.8090   23.7470 C   0  0  0  0  0  3  0  0  0  0  0  0
  -20.9000   -6.0140   24.9010 C   0  0  0  0  0  3  0  0  0  0  0  0
  -21.2490   -4.6510   24.8650 C   0  0  0  0  0  0  0  0  0  0  0  0
  -21.7360   -4.0790   23.6760 C   0  0  0  0  0  3  0  0  0  0  0  0
  -21.8760   -4.8720   22.5220 C   0  0  0  0  0  0  0  0  0  0  0  0
  -22.3280   -4.3140   21.3740 F   0  0  0  0  0  0  0  0  0  0  0  0
  -21.1080   -3.8850   25.9700 F   0  0  0  0  0  0  0  0  0  0  0  0
  -22.6920  -13.5880   21.0260 C   0  0  0  0  0  0  0  0  0  0  0  0
  -21.9580  -12.9020   21.8950 N   0  0  0  0  0  0  0  0  0  0  0  0
  -22.2570  -14.6030   20.4830 O   0  0  0  0  0  0  0  0  0  0  0  0
  -22.3260  -12.0860   22.3610 H   0  0  0  0  0  0  0  0  0  0  0  0
  -21.0170  -13.2040   22.1030 H   0  0  0  0  0  0  0  0  0  0  0  0
  -25.2980  -15.2740   20.2420 N   0  0  0  0  0  0  0  0  0  0  0  0
  -24.5090  -15.9050   20.3350 H   0  0  0  0  0  0  0  0  0  0  0  0
  -26.1300  -15.7260   19.8860 H   0  0  0  0  0  0  0  0  0  0  0  0
  -33.2170  -20.9360   21.7900 C   0  0  0  0  0  1  0  0  0  0  0  0
  -31.6500  -20.7340   23.6960 C   0  0  0  0  0  1  0  0  0  0  0  0
  -31.8930  -21.2130   22.3380 N   0  0  0  0  0  0  0  0  0  0  0  0
  -27.0480  -23.2850   18.8650 C   0  0  0  0  0  1  0  0  0  0  0  0
  -28.0430  -23.5110   19.8980 N   0  0  0  0  0  2  0  0  0  0  0  0
  -28.2080  -25.3600   20.1880 O   0  0  0  0  0  1  0  0  0  0  0  0
  -24.6500  -31.7950   23.1160 C   0  0  0  0  0  0  0  0  0  0  0  0
  -27.2100  -26.6120   20.1330 C   0  0  0  0  0  0  0  0  0  0  0  0
  -23.4860  -30.3970   21.4680 C   0  0  0  0  0  3  0  0  0  0  0  0
  -24.9480  -28.7360   20.0680 C   0  0  0  0  0  0  0  0  0  0  0  0
  -26.0730  -30.5090   21.3800 C   0  0  0  0  0  2  0  0  0  0  0  0
  -26.1420  -29.0630   20.7210 C   0  0  0  0  0  0  0  0  0  0  0  0
  -27.2460  -28.0340   20.7160 C   0  0  0  0  0  3  0  0  0  0  0  0
  -25.9710  -26.5380   19.4300 C   0  0  0  0  0  3  0  0  0  0  0  0
  -24.9100  -27.5020   19.4010 C   0  0  0  0  0  3  0  0  0  0  0  0
  -23.7490  -29.7060   20.0980 C   0  0  0  0  0  2  0  0  0  0  0  0
  -24.7620  -30.9360   22.0410 N   0  0  0  0  0  0  0  0  0  0  0  0
  -23.5480  -32.0920   23.6120 O   0  0  0  0  0  0  0  0  0  0  0  0
  -22.7510  -29.4200   22.4280 C   0  0  0  0  0  0  0  0  0  0  0  0
  -21.4150  -29.2910   22.3070 N   0  0  0  0  0  0  0  0  0  0  0  0
  -23.3990  -28.7790   23.2560 O   0  0  0  0  0  0  0  0  0  0  0  0
  -20.9420  -29.8600   21.6190 H   0  0  0  0  0  0  0  0  0  0  0  0
  -18.0050  -28.1420   22.8560 C   0  0  0  0  0  0  0  0  0  0  0  0
  -20.5760  -28.3550   23.0710 C   0  0  0  0  0  3  0  0  0  0  0  0
  -20.6350  -26.9350   22.4570 C   0  0  0  0  0  2  0  0  0  0  0  0
  -19.5070  -26.6620   21.4580 C   0  0  0  0  0  2  0  0  0  0  0  0
  -18.1410  -26.8120   22.1330 C   0  0  0  0  0  2  0  0  0  0  0  0
  -19.1480  -28.8740   23.2810 C   0  0  0  0  0  0  0  0  0  0  0  0
  -18.9610  -30.1150   23.9260 C   0  0  0  0  0  3  0  0  0  0  0  0
  -17.6680  -30.6300   24.1440 C   0  0  0  0  0  3  0  0  0  0  0  0
  -16.5410  -29.8960   23.7300 C   0  0  0  0  0  3  0  0  0  0  0  0
  -16.7110  -28.6530   23.0940 C   0  0  0  0  0  3  0  0  0  0  0  0
  -25.8980  -32.4550   23.7780 C   0  0  0  0  0  3  0  0  0  0  0  0
  -25.5650  -33.8550   24.1110 N   0  0  0  0  0  0  0  0  0  0  0  0
  -25.8870  -34.9250   23.3720 C   0  0  0  0  0  0  0  0  0  0  0  0
  -26.5520  -34.8360   22.3370 O   0  0  0  0  0  0  0  0  0  0  0  0
  -24.9720  -33.9940   24.9160 H   0  0  0  0  0  0  0  0  0  0  0  0
  -24.1440  -36.7240   23.0710 C   0  0  0  0  0  1  0  0  0  0  0  0
  -25.4020  -36.3110   23.8530 C   0  0  0  0  0  3  0  0  0  0  0  0
  -27.5450  -37.2110   24.6530 C   0  0  0  0  0  1  0  0  0  0  0  0
  -26.4270  -37.3730   23.7300 N   0  0  0  0  0  0  0  0  0  0  0  0
  -26.0160  -38.2900   23.8890 H   0  0  0  0  0  0  0  0  0  0  0  0
  -26.3730  -31.6990   25.0810 C   0  0  1  0  0  0  0  0  0  0  0  0
  -25.2490  -31.4790   26.1240 C   0  0  0  0  0  1  0  0  0  0  0  0
  -26.9610  -30.3130   24.7360 C   0  0  0  0  0  1  0  0  0  0  0  0
  -27.5080  -32.4980   25.7640 C   0  0  0  0  0  1  0  0  0  0  0  0
  1  3  1  0
  2  1  2  0
  3 49  1  0
  4  6  1  0
  5  4  2  0
  5  2  1  0
  6  3  2  0
  6  8  1  0
  7  5  1  0
 10 15  1  0
 11 12  1  0
 11 10  1  0
 13 12  1  0
 13 22  1  0
 13 14  1  0
 15  9  1  0
 15 14  1  0
 16  9  2  0
 17  9  1  0
 17  2  1  0
 18 17  1  0
 19 20  2  0
 20 39  1  0
 21 20  1  0
 21 24  1  0
 22 19  1  0
 22 23  1  0
 23 21  2  0
 24 25  1  0
 25 26  2  0
 27 30  1  0
 27 26  1  0
 28 27  2  0
 29 28  1  0
 29 24  2  0
 30 31  1  0
 31 32  1  0
 32 33  2  0
 34 33  1  0
 34 38  1  0
 35 34  2  0
 36 31  2  0
 36 35  1  0
 37 36  1  0
 39 40  1  0
 40 43  1  0
 40 42  1  0
 41 39  2  0
 44 45  1  0
 44 19  1  0
 46 44  1  0
 47 49  1  0
 49 48  1  0
 50 51  1  0
 51  4  1  0
 53 64  2  0
 54 52  1  0
 54 59  1  0
 55 63  1  0
 55 65  1  0
 56 62  1  0
 56 58  1  0
 57 63  1  0
 58 57  1  0
 59 58  2  0
 60 54  2  0
 61 60  1  0
 61 56  2  0
 62 55  1  0
 63 53  1  0
 65 67  2  0
 66 65  1  0
 68 66  1  0
 69 78  2  0
 69 74  1  0
 70 66  1  0
 70 74  1  0
 71 70  1  0
 72 73  1  0
 72 71  1  0
 73 69  1  0
 74 75  2  0
 75 76  1  0
 77 76  2  0
 78 77  1  0
 79 53  1  0
 79 80  1  0
 79 89  1  0
 80 83  1  0
 81 85  1  0
 81 80  1  0
 82 81  2  0
 85 84  1  0
 87 85  1  0
 87 88  1  0
 87 86  1  0
 89 92  1  1
 89 90  1  0
 91 89  1  0
M  ISO  4   9 100  17 100  51 101  52 101
M  END
>  <TORSDO>  (17) 
F 18

>  <SCORE>  (17) 
-16.544

>  <name>  (17) 
16

>  <ligand_id>  (17) 
16

>  <original_smiles>  (17) 
[H]c1c([H])c([H])c2c(c1[H])C([H])([H])C([H])([H])C([H])([H])C2([H])N([H])C(=O)C1([H])N(C(=O)C([H])(N([H])C(=O)C([H])(N([H])C([H])([H])[H])C([H])([H])[H])C(C([H])([H])[H])(C([H])([H])[H])C([H])([H])[H])C([H])([H])c2c([H])c(ON(c3c(Cl)c(N([H])C(=O)N4C([H])([H])C([H])([H])C([H])([H])C([H])(n5nc(-c6c([H])c([H])c(Oc7c([H])c([H])c(F)c([H])c7F)c([H])c6[H])c(C(=O)N([H])[H])c5N([H])[H])C4([H])[H])c([H])c(N(C([H])([H])[H])C([H])([H])[H])c3Cl)C([H])([H])[H])c([H])c([H])c2C1([H])[H]

>  <smiles>  (17) 
[H]c1c([H])c([H])c2c(c1[H])C([H])([H])C([H])([H])C([H])([H])C2([H])N([H])C(=O)C1([H])N(C(=O)C([H])(N([H])C(=O)C([H])(N([H])C([H])([H])[H])C([H])([H])[H])C(C([H])([H])[H])(C([H])([H])[H])C([H])([H])[H])C([H])([H])c2c([H])c(ON(c3c(Cl)c(N([H])C(=O)N4C([H])([H])C([H])([H])C([H])([H])C([H])(n5nc(-c6c([H])c([H])c(Oc7c([H])c([H])c(F)c([H])c7F)c([H])c6[H])c(C(=O)N([H])[H])c5N([H])[H])C4([H])[H])c([H])c(N(C([H])([H])[H])C([H])([H])[H])c3Cl)C([H])([H])[H])c([H])c([H])c2C1([H])[H]

$$$$
17:0:0
     RDKit          3D

 93101  0  0  1  0  0  0  0  0999 V2000
  -30.7620  -20.7030   19.1140 C   0  0  0  0  0  3  0  0  0  0  0  0
  -29.5280  -20.5270   19.7720 C   0  0  0  0  0  0  0  0  0  0  0  0
  -30.1850  -17.8910   19.8340 C   0  0  0  0  0  0  0  0  0  0  0  0
  -31.6260  -19.6330   18.7970 C   0  0  0  0  0  0  0  0  0  0  0  0
  -31.3490  -18.2820   19.1170 C   0  0  0  0  0  0  0  0  0  0  0  0
  -29.2960  -19.0710   20.1460 C   0  0  0  0  0  0  0  0  0  0  0  0
  -32.7660  -19.9170   18.1200 F   0  0  0  0  0  0  0  0  0  0  0  0
  -32.2320  -17.3590   18.6710 F   0  0  0  0  0  0  0  0  0  0  0  0
  -27.8920  -18.6700   21.0680 Cl  0  0  0  0  0  0  0  0  0  0  0  0
  -30.6540  -15.1310   19.8950 C   0  0  0  0  0  0  0  0  0  0  0  0
  -30.4340  -12.7760   18.9420 C   0  0  0  0  0  2  0  0  0  0  0  0
  -29.4260  -12.7260   17.7690 C   0  0  0  0  0  2  0  0  0  0  0  0
  -27.9960  -12.5110   18.2940 C   0  0  0  0  0  2  0  0  0  0  0  0
  -27.6670  -13.4290   19.4990 C   0  0  0  0  0  3  0  0  0  0  0  0
  -28.7930  -13.4460   20.5550 C   0  0  0  0  0  2  0  0  0  0  0  0
  -30.0190  -13.8780   19.8680 N   0  0  0  0  0  0  0  0  0  0  0  0
  -31.8460  -15.1130   19.5790 O   0  0  0  0  0  0  0  0  0  0  0  0
  -29.9400  -16.3670   20.1240 N   0  0  0  0  0  0  0  0  0  0  0  0
  -29.0230  -16.1930   20.5040 H   0  0  0  0  0  0  0  0  0  0  0  0
  -25.3530  -14.0150   20.4140 C   0  0  0  0  0  0  0  0  0  0  0  0
  -24.3010  -13.2440   20.8300 C   0  0  0  0  0  0  0  0  0  0  0  0
  -24.7430  -11.8880   20.7320 C   0  0  0  0  0  0  0  0  0  0  0  0
  -26.3630  -13.1290   20.0810 N   0  0  0  0  0  0  0  0  0  0  0  0
  -26.0110  -11.8430   20.3390 N   0  0  0  0  0  0  0  0  0  0  0  0
  -24.0100  -10.6300   20.9300 C   0  0  0  0  0  0  0  0  0  0  0  0
  -24.4360   -9.6660   21.8690 C   0  0  0  0  0  3  0  0  0  0  0  0
  -23.7050   -8.4730   22.0560 C   0  0  0  0  0  3  0  0  0  0  0  0
  -22.5280   -8.2380   21.3050 C   0  0  0  0  0  0  0  0  0  0  0  0
  -22.1200   -9.1910   20.3520 C   0  0  0  0  0  3  0  0  0  0  0  0
  -22.8540  -10.3740   20.1640 C   0  0  0  0  0  3  0  0  0  0  0  0
  -21.7640   -7.1010   21.4040 O   0  0  0  0  0  0  0  0  0  0  0  0
  -21.6600   -6.4030   22.5800 C   0  0  0  0  0  0  0  0  0  0  0  0
  -21.1380   -6.9910   23.7530 C   0  0  0  0  0  3  0  0  0  0  0  0
  -20.9870   -6.2170   24.9210 C   0  0  0  0  0  3  0  0  0  0  0  0
  -21.3430   -4.8550   24.9150 C   0  0  0  0  0  0  0  0  0  0  0  0
  -21.8530   -4.2650   23.7450 C   0  0  0  0  0  3  0  0  0  0  0  0
  -22.0080   -5.0370   22.5800 C   0  0  0  0  0  0  0  0  0  0  0  0
  -22.4810   -4.4590   21.4490 F   0  0  0  0  0  0  0  0  0  0  0  0
  -21.1870   -4.1080   26.0320 F   0  0  0  0  0  0  0  0  0  0  0  0
  -22.9290  -13.7320   21.1960 C   0  0  0  0  0  0  0  0  0  0  0  0
  -22.2400  -13.0210   22.0830 N   0  0  0  0  0  0  0  0  0  0  0  0
  -22.4780  -14.7750   20.7270 O   0  0  0  0  0  0  0  0  0  0  0  0
  -22.6210  -12.1800   22.4890 H   0  0  0  0  0  0  0  0  0  0  0  0
  -21.3180  -13.3270   22.3610 H   0  0  0  0  0  0  0  0  0  0  0  0
  -25.5290  -15.3870   20.2650 N   0  0  0  0  0  0  0  0  0  0  0  0
  -24.7920  -16.0550   20.4640 H   0  0  0  0  0  0  0  0  0  0  0  0
  -26.3580  -15.8180   19.8830 H   0  0  0  0  0  0  0  0  0  0  0  0
  -28.9480  -23.2380   19.9060 C   0  0  0  0  0  0  0  0  0  0  0  0
  -27.1820  -21.5280   19.8420 C   0  0  0  0  0  1  0  0  0  0  0  0
  -28.6220  -21.8130   19.8710 N   0  0  0  0  0  0  0  0  0  0  0  0
  -30.1030  -23.5660   20.1950 O   0  0  0  0  0  0  0  0  0  0  0  0
  -27.9030  -24.5400   19.6040 C   0  0  0  0  0  2  0  0  0  0  0  0
  -28.2210  -26.0900   19.7840 O   0  0  0  0  0  0  0  0  0  0  0  0
  -24.4630  -31.6490   22.9870 C   0  0  0  0  0  0  0  0  0  0  0  0
  -27.1690  -27.1030   19.7550 C   0  0  0  0  0  0  0  0  0  0  0  0
  -23.3130  -30.3070   21.2710 C   0  0  0  0  0  3  0  0  0  0  0  0
  -24.8130  -28.8420   19.7770 C   0  0  0  0  0  0  0  0  0  0  0  0
  -25.8690  -30.6270   21.1480 C   0  0  0  0  0  2  0  0  0  0  0  0
  -25.9810  -29.2690   20.4230 C   0  0  0  0  0  0  0  0  0  0  0  0
  -27.1590  -28.4190   20.3890 C   0  0  0  0  0  3  0  0  0  0  0  0
  -25.9730  -26.8010   19.0700 C   0  0  0  0  0  3  0  0  0  0  0  0
  -24.8280  -27.6270   19.0800 C   0  0  0  0  0  3  0  0  0  0  0  0
  -23.5640  -29.7110   19.8610 C   0  0  0  0  0  2  0  0  0  0  0  0
  -24.5680  -30.8810   21.8580 N   0  0  0  0  0  0  0  0  0  0  0  0
  -23.3640  -31.8840   23.5130 O   0  0  0  0  0  0  0  0  0  0  0  0
  -22.6480  -29.2370   22.1750 C   0  0  0  0  0  0  0  0  0  0  0  0
  -21.3160  -29.0800   22.0680 N   0  0  0  0  0  0  0  0  0  0  0  0
  -23.3340  -28.5550   22.9400 O   0  0  0  0  0  0  0  0  0  0  0  0
  -20.8170  -29.6890   21.4340 H   0  0  0  0  0  0  0  0  0  0  0  0
  -17.9330  -27.9120   22.6420 C   0  0  0  0  0  0  0  0  0  0  0  0
  -20.5100  -28.0910   22.7900 C   0  0  0  0  0  3  0  0  0  0  0  0
  -20.5430  -26.7190   22.0790 C   0  0  0  0  0  2  0  0  0  0  0  0
  -19.3800  -26.5180   21.1010 C   0  0  0  0  0  2  0  0  0  0  0  0
  -18.0380  -26.6310   21.8310 C   0  0  0  0  0  2  0  0  0  0  0  0
  -19.0930  -28.6060   23.0790 C   0  0  0  0  0  0  0  0  0  0  0  0
  -18.9360  -29.8080   23.8020 C   0  0  0  0  0  3  0  0  0  0  0  0
  -17.6560  -30.3150   24.0910 C   0  0  0  0  0  3  0  0  0  0  0  0
  -16.5120  -29.6160   23.6690 C   0  0  0  0  0  3  0  0  0  0  0  0
  -16.6510  -28.4160   22.9490 C   0  0  0  0  0  3  0  0  0  0  0  0
  -25.7160  -32.2890   23.6570 C   0  0  0  0  0  3  0  0  0  0  0  0
  -25.3710  -33.6700   24.0370 N   0  0  0  0  0  0  0  0  0  0  0  0
  -25.6830  -34.7600   23.3250 C   0  0  0  0  0  0  0  0  0  0  0  0
  -26.3570  -34.7110   22.2920 O   0  0  0  0  0  0  0  0  0  0  0  0
  -24.7760  -33.7860   24.8430 H   0  0  0  0  0  0  0  0  0  0  0  0
  -23.9160  -36.5290   23.0470 C   0  0  0  0  0  1  0  0  0  0  0  0
  -25.1700  -36.1210   23.8380 C   0  0  0  0  0  3  0  0  0  0  0  0
  -27.2820  -37.0260   24.7030 C   0  0  0  0  0  1  0  0  0  0  0  0
  -26.1790  -37.1990   23.7600 N   0  0  0  0  0  0  0  0  0  0  0  0
  -25.7530  -38.1050   23.9350 H   0  0  0  0  0  0  0  0  0  0  0  0
  -26.2230  -31.4840   24.9170 C   0  0  1  0  0  0  0  0  0  0  0  0
  -25.1140  -31.1940   25.9530 C   0  0  0  0  0  1  0  0  0  0  0  0
  -26.8400  -30.1290   24.4980 C   0  0  0  0  0  1  0  0  0  0  0  0
  -27.3440  -32.2770   25.6290 C   0  0  0  0  0  1  0  0  0  0  0  0
  1  2  1  0
  2 50  1  0
  2  6  2  0
  3 18  1  0
  3  6  1  0
  4  1  2  0
  4  5  1  0
  5  3  2  0
  6  9  1  0
  7  4  1  0
  8  5  1  0
 10 18  1  0
 11 16  1  0
 12 13  1  0
 12 11  1  0
 14 13  1  0
 14 23  1  0
 14 15  1  0
 16 10  1  0
 16 15  1  0
 17 10  2  0
 18 19  1  0
 20 21  2  0
 21 40  1  0
 22 21  1  0
 22 25  1  0
 23 24  1  0
 23 20  1  0
 24 22  2  0
 25 26  1  0
 26 27  2  0
 28 31  1  0
 28 27  1  0
 29 28  2  0
 30 29  1  0
 30 25  2  0
 31 32  1  0
 32 37  2  0
 32 33  1  0
 33 34  2  0
 35 34  1  0
 35 39  1  0
 36 35  2  0
 37 36  1  0
 38 37  1  0
 40 41  1  0
 41 44  1  0
 41 43  1  0
 42 40  2  0
 45 20  1  0
 45 46  1  0
 47 45  1  0
 48 51  2  0
 49 50  1  0
 50 48  1  0
 52 53  1  0
 52 48  1  0
 54 65  2  0
 55 53  1  0
 55 60  1  0
 56 64  1  0
 56 66  1  0
 57 63  1  0
 57 59  1  0
 58 64  1  0
 59 58  1  0
 60 59  2  0
 61 62  1  0
 61 55  2  0
 62 57  2  0
 63 56  1  0
 64 54  1  0
 66 68  2  0
 67 66  1  0
 69 67  1  0
 70 79  2  0
 70 75  1  0
 71 67  1  0
 71 75  1  0
 72 71  1  0
 73 74  1  0
 73 72  1  0
 74 70  1  0
 75 76  2  0
 76 77  1  0
 78 77  2  0
 79 78  1  0
 80 54  1  0
 80 81  1  0
 80 90  1  0
 81 84  1  0
 82 86  1  0
 82 81  1  0
 83 82  2  0
 86 85  1  0
 88 86  1  0
 88 89  1  0
 88 87  1  0
 90 93  1  1
 90 91  1  0
 92 90  1  0
M  ISO  4  10 100  18 100  52 101  53 101
M  END
>  <TORSDO>  (18) 
F 18

>  <SCORE>  (18) 
-13.996

>  <name>  (18) 
17

>  <ligand_id>  (18) 
17

>  <original_smiles>  (18) 
[H]c1c([H])c([H])c2c(c1[H])C([H])([H])C([H])([H])C([H])([H])C2([H])N([H])C(=O)C1([H])N(C(=O)C([H])(N([H])C(=O)C([H])(N([H])C([H])([H])[H])C([H])([H])[H])C(C([H])([H])[H])(C([H])([H])[H])C([H])([H])[H])C([H])([H])c2c([H])c(OC([H])([H])C(=O)N(c3c([H])c(F)c(F)c(N([H])C(=O)N4C([H])([H])C([H])([H])C([H])([H])C([H])(n5nc(-c6c([H])c([H])c(Oc7c([H])c([H])c(F)c([H])c7F)c([H])c6[H])c(C(=O)N([H])[H])c5N([H])[H])C4([H])[H])c3Cl)C([H])([H])[H])c([H])c([H])c2C1([H])[H]

>  <smiles>  (18) 
[H]c1c([H])c([H])c2c(c1[H])C([H])([H])C([H])([H])C([H])([H])C2([H])N([H])C(=O)C1([H])N(C(=O)C([H])(N([H])C(=O)C([H])(N([H])C([H])([H])[H])C([H])([H])[H])C(C([H])([H])[H])(C([H])([H])[H])C([H])([H])[H])C([H])([H])c2c([H])c(OC([H])([H])C(=O)N(c3c([H])c(F)c(F)c(N([H])C(=O)N4C([H])([H])C([H])([H])C([H])([H])C([H])(n5nc(-c6c([H])c([H])c(Oc7c([H])c([H])c(F)c([H])c7F)c([H])c6[H])c(C(=O)N([H])[H])c5N([H])[H])C4([H])[H])c3Cl)C([H])([H])[H])c([H])c([H])c2C1([H])[H]

$$$$
18:0:0
     RDKit          3D

 91 99  0  0  1  0  0  0  0  0999 V2000
  -28.9840  -23.4060   20.2160 C   0  0  0  0  0  0  0  0  0  0  0  0
  -28.5330  -22.0740   20.0580 N   0  0  0  0  0  0  0  0  0  0  0  0
  -30.1440  -23.6320   20.5700 O   0  0  0  0  0  0  0  0  0  0  0  0
  -27.5480  -22.0810   19.8230 H   0  0  0  0  0  0  0  0  0  0  0  0
  -30.6150  -18.6040   20.2960 C   0  0  0  0  0  3  0  0  0  0  0  0
  -30.3410  -20.0470   20.2500 C   0  0  0  0  0  3  0  0  0  0  0  0
  -28.2990  -18.1820   20.2110 C   0  0  0  0  0  3  0  0  0  0  0  0
  -29.5970  -17.5800   20.2820 C   0  0  0  0  0  0  0  0  0  0  0  0
  -29.0190  -20.6250   20.1720 C   0  0  0  0  0  0  0  0  0  0  0  0
  -28.0240  -19.5980   20.1470 C   0  0  0  0  0  0  0  0  0  0  0  0
  -26.7300  -19.9890   20.0570 F   0  0  0  0  0  0  0  0  0  0  0  0
  -30.5510  -14.9620   20.1150 C   0  0  0  0  0  0  0  0  0  0  0  0
  -30.4380  -12.6340   19.1180 C   0  0  0  0  0  2  0  0  0  0  0  0
  -29.4590  -12.6410   17.9190 C   0  0  0  0  0  2  0  0  0  0  0  0
  -28.0060  -12.4260   18.3900 C   0  0  0  0  0  2  0  0  0  0  0  0
  -27.6440  -13.3100   19.6110 C   0  0  0  0  0  3  0  0  0  0  0  0
  -28.7370  -13.2580   20.7010 C   0  0  0  0  0  2  0  0  0  0  0  0
  -29.9960  -13.6850   20.0730 N   0  0  0  0  0  0  0  0  0  0  0  0
  -31.7310  -15.0980   19.7720 O   0  0  0  0  0  0  0  0  0  0  0  0
  -29.6790  -16.0480   20.3690 N   0  0  0  0  0  0  0  0  0  0  0  0
  -28.7830  -15.6540   20.6080 H   0  0  0  0  0  0  0  0  0  0  0  0
  -25.2800  -13.8790   20.4200 C   0  0  0  0  0  0  0  0  0  0  0  0
  -24.2290  -13.0980   20.8130 C   0  0  0  0  0  0  0  0  0  0  0  0
  -24.6940  -11.7480   20.7490 C   0  0  0  0  0  0  0  0  0  0  0  0
  -26.3180  -13.0050   20.1380 N   0  0  0  0  0  0  0  0  0  0  0  0
  -25.9750  -11.7180   20.4010 N   0  0  0  0  0  0  0  0  0  0  0  0
  -23.9740  -10.4820   20.9410 C   0  0  0  0  0  0  0  0  0  0  0  0
  -24.4040   -9.5240   21.8840 C   0  0  0  0  0  3  0  0  0  0  0  0
  -23.6830   -8.3230   22.0640 C   0  0  0  0  0  3  0  0  0  0  0  0
  -22.5180   -8.0720   21.3000 C   0  0  0  0  0  0  0  0  0  0  0  0
  -22.1080   -9.0210   20.3460 C   0  0  0  0  0  3  0  0  0  0  0  0
  -22.8300  -10.2120   20.1650 C   0  0  0  0  0  3  0  0  0  0  0  0
  -21.7710   -6.9240   21.3890 O   0  0  0  0  0  0  0  0  0  0  0  0
  -21.6710   -6.2170   22.5600 C   0  0  0  0  0  0  0  0  0  0  0  0
  -21.1670   -6.8020   23.7430 C   0  0  0  0  0  3  0  0  0  0  0  0
  -21.0170   -6.0230   24.9060 C   0  0  0  0  0  3  0  0  0  0  0  0
  -21.3610   -4.6570   24.8890 C   0  0  0  0  0  0  0  0  0  0  0  0
  -21.8590   -4.0710   23.7110 C   0  0  0  0  0  3  0  0  0  0  0  0
  -22.0100   -4.8490   22.5500 C   0  0  0  0  0  0  0  0  0  0  0  0
  -22.4700   -4.2740   21.4130 F   0  0  0  0  0  0  0  0  0  0  0  0
  -21.2100   -3.9060   26.0050 F   0  0  0  0  0  0  0  0  0  0  0  0
  -22.8380  -13.5690   21.1280 C   0  0  0  0  0  0  0  0  0  0  0  0
  -22.1370  -12.8660   22.0090 N   0  0  0  0  0  0  0  0  0  0  0  0
  -22.3840  -14.5970   20.6260 O   0  0  0  0  0  0  0  0  0  0  0  0
  -22.5180  -12.0350   22.4370 H   0  0  0  0  0  0  0  0  0  0  0  0
  -21.2060  -13.1640   22.2620 H   0  0  0  0  0  0  0  0  0  0  0  0
  -25.4330  -15.2520   20.2490 N   0  0  0  0  0  0  0  0  0  0  0  0
  -24.6480  -15.8850   20.3550 H   0  0  0  0  0  0  0  0  0  0  0  0
  -26.2200  -15.6750   19.7760 H   0  0  0  0  0  0  0  0  0  0  0  0
  -27.9800  -24.6920   19.9200 C   0  0  0  0  0  2  0  0  0  0  0  0
  -28.3120  -26.1880   20.1970 O   0  0  0  0  0  0  0  0  0  0  0  0
  -24.6660  -31.8440   23.2340 C   0  0  0  0  0  0  0  0  0  0  0  0
  -27.2610  -27.1790   20.1420 C   0  0  0  0  0  0  0  0  0  0  0  0
  -23.4720  -30.4670   21.5760 C   0  0  0  0  0  3  0  0  0  0  0  0
  -24.9260  -28.9180   20.1340 C   0  0  0  0  0  0  0  0  0  0  0  0
  -26.0270  -30.7400   21.4210 C   0  0  0  0  0  2  0  0  0  0  0  0
  -26.1060  -29.3580   20.7490 C   0  0  0  0  0  0  0  0  0  0  0  0
  -27.2740  -28.5040   20.7380 C   0  0  0  0  0  3  0  0  0  0  0  0
  -26.0520  -26.8450   19.4880 C   0  0  0  0  0  3  0  0  0  0  0  0
  -24.9120  -27.6740   19.4900 C   0  0  0  0  0  3  0  0  0  0  0  0
  -23.6970  -29.8110   20.1890 C   0  0  0  0  0  2  0  0  0  0  0  0
  -24.7420  -31.0380   22.1320 N   0  0  0  0  0  0  0  0  0  0  0  0
  -23.5780  -32.1210   23.7620 O   0  0  0  0  0  0  0  0  0  0  0  0
  -22.7940  -29.4450   22.5230 C   0  0  0  0  0  0  0  0  0  0  0  0
  -21.4650  -29.2810   22.3990 N   0  0  0  0  0  0  0  0  0  0  0  0
  -23.4660  -28.8030   23.3340 O   0  0  0  0  0  0  0  0  0  0  0  0
  -20.9790  -29.8510   21.7200 H   0  0  0  0  0  0  0  0  0  0  0  0
  -18.0770  -28.1010   22.9080 C   0  0  0  0  0  0  0  0  0  0  0  0
  -20.6410  -28.3360   23.1580 C   0  0  0  0  0  3  0  0  0  0  0  0
  -20.7240  -26.9140   22.5550 C   0  0  0  0  0  2  0  0  0  0  0  0
  -19.6100  -26.6210   21.5450 C   0  0  0  0  0  2  0  0  0  0  0  0
  -18.2360  -26.7640   22.2040 C   0  0  0  0  0  2  0  0  0  0  0  0
  -19.2060  -28.8470   23.3430 C   0  0  0  0  0  0  0  0  0  0  0  0
  -19.0010  -30.0970   23.9630 C   0  0  0  0  0  3  0  0  0  0  0  0
  -17.7010  -30.6040   24.1540 C   0  0  0  0  0  3  0  0  0  0  0  0
  -16.5880  -29.8560   23.7330 C   0  0  0  0  0  3  0  0  0  0  0  0
  -16.7770  -28.6060   23.1170 C   0  0  0  0  0  3  0  0  0  0  0  0
  -25.9420  -32.4740   23.8720 C   0  0  0  0  0  3  0  0  0  0  0  0
  -25.6290  -33.8700   24.2110 N   0  0  0  0  0  0  0  0  0  0  0  0
  -25.9410  -34.9310   23.4540 C   0  0  0  0  0  0  0  0  0  0  0  0
  -26.5900  -34.8350   22.4080 O   0  0  0  0  0  0  0  0  0  0  0  0
  -25.0490  -34.0180   25.0240 H   0  0  0  0  0  0  0  0  0  0  0  0
  -24.1860  -36.7120   23.1640 C   0  0  0  0  0  1  0  0  0  0  0  0
  -25.4600  -36.3150   23.9290 C   0  0  0  0  0  3  0  0  0  0  0  0
  -27.6110  -37.2250   24.6860 C   0  0  0  0  0  1  0  0  0  0  0  0
  -26.4790  -37.3770   23.7770 N   0  0  0  0  0  0  0  0  0  0  0  0
  -26.0690  -38.2950   23.9310 H   0  0  0  0  0  0  0  0  0  0  0  0
  -26.4440  -31.6960   25.1500 C   0  0  1  0  0  0  0  0  0  0  0  0
  -25.3410  -31.4590   26.2070 C   0  0  0  0  0  1  0  0  0  0  0  0
  -27.0260  -30.3170   24.7630 C   0  0  0  0  0  1  0  0  0  0  0  0
  -27.5910  -32.4850   25.8250 C   0  0  0  0  0  1  0  0  0  0  0  0
  1  3  2  0
  2  9  1  0
  2  1  1  0
  4  2  1  0
  6  5  2  0
  7  8  2  0
  8  5  1  0
  8 20  1  0
  9  6  1  0
 10  9  2  0
 10  7  1  0
 11 10  1  0
 12 20  1  0
 13 18  1  0
 14 15  1  0
 14 13  1  0
 16 15  1  0
 16 25  1  0
 16 17  1  0
 18 12  1  0
 18 17  1  0
 19 12  2  0
 20 21  1  0
 22 23  2  0
 23 42  1  0
 24 23  1  0
 24 27  1  0
 25 26  1  0
 25 22  1  0
 26 24  2  0
 27 28  1  0
 28 29  2  0
 30 33  1  0
 30 29  1  0
 31 30  2  0
 32 31  1  0
 32 27  2  0
 33 34  1  0
 34 35  1  0
 35 36  2  0
 37 36  1  0
 37 41  1  0
 38 37  2  0
 39 34  2  0
 39 38  1  0
 40 39  1  0
 42 43  1  0
 43 46  1  0
 43 45  1  0
 44 42  2  0
 47 48  1  0
 47 22  1  0
 49 47  1  0
 50 51  1  0
 50  1  1  0
 52 63  2  0
 53 51  1  0
 53 58  1  0
 54 62  1  0
 54 64  1  0
 55 61  1  0
 55 57  1  0
 56 62  1  0
 57 56  1  0
 58 57  2  0
 59 60  1  0
 59 53  2  0
 60 55  2  0
 61 54  1  0
 62 52  1  0
 64 66  2  0
 65 64  1  0
 67 65  1  0
 68 77  2  0
 68 73  1  0
 69 65  1  0
 69 73  1  0
 70 69  1  0
 71 72  1  0
 71 70  1  0
 72 68  1  0
 73 74  2  0
 74 75  1  0
 76 75  2  0
 77 76  1  0
 78 52  1  0
 78 79  1  0
 78 88  1  0
 79 82  1  0
 80 84  1  0
 80 79  1  0
 81 80  2  0
 84 83  1  0
 86 84  1  0
 86 87  1  0
 86 85  1  0
 88 91  1  1
 88 89  1  0
 90 88  1  0
M  ISO  4  12 100  20 100  50 101  51 101
M  END
>  <TORSDO>  (19) 
F 18

>  <SCORE>  (19) 
-14.264

>  <name>  (19) 
18

>  <ligand_id>  (19) 
18

>  <original_smiles>  (19) 
[H]c1c([H])c([H])c2c(c1[H])C([H])([H])C([H])([H])C([H])([H])C2([H])N([H])C(=O)C1([H])N(C(=O)C([H])(N([H])C(=O)C([H])(N([H])C([H])([H])[H])C([H])([H])[H])C(C([H])([H])[H])(C([H])([H])[H])C([H])([H])[H])C([H])([H])c2c([H])c(OC([H])([H])C(=O)N([H])c3c([H])c([H])c(N([H])C(=O)N4C([H])([H])C([H])([H])C([H])([H])C([H])(n5nc(-c6c([H])c([H])c(Oc7c([H])c([H])c(F)c([H])c7F)c([H])c6[H])c(C(=O)N([H])[H])c5N([H])[H])C4([H])[H])c([H])c3F)c([H])c([H])c2C1([H])[H]

>  <smiles>  (19) 
[H]c1c([H])c([H])c2c(c1[H])C([H])([H])C([H])([H])C([H])([H])C2([H])N([H])C(=O)C1([H])N(C(=O)C([H])(N([H])C(=O)C([H])(N([H])C([H])([H])[H])C([H])([H])[H])C(C([H])([H])[H])(C([H])([H])[H])C([H])([H])[H])C([H])([H])c2c([H])c(OC([H])([H])C(=O)N([H])c3c([H])c([H])c(N([H])C(=O)N4C([H])([H])C([H])([H])C([H])([H])C([H])(n5nc(-c6c([H])c([H])c(Oc7c([H])c([H])c(F)c([H])c7F)c([H])c6[H])c(C(=O)N([H])[H])c5N([H])[H])C4([H])[H])c([H])c3F)c([H])c([H])c2C1([H])[H]

$$$$
19:0:0
     RDKit          3D

 93101  0  0  1  0  0  0  0  0999 V2000
  -31.0310  -18.4580   18.6800 C   0  0  0  0  0  3  0  0  0  0  0  0
  -28.8130  -19.5750   19.8690 C   0  0  0  0  0  3  0  0  0  0  0  0
  -30.7830  -19.9090   18.6250 C   0  0  0  0  0  0  0  0  0  0  0  0
  -30.1880  -17.4940   19.3470 C   0  0  0  0  0  0  0  0  0  0  0  0
  -29.6500  -20.5670   19.2460 C   0  0  0  0  0  0  0  0  0  0  0  0
  -29.0520  -18.1410   19.9280 C   0  0  0  0  0  0  0  0  0  0  0  0
  -31.8040  -20.7570   17.8920 C   0  0  0  0  0  1  0  0  0  0  0  0
  -31.0690  -14.8560   19.0350 C   0  0  0  0  0  0  0  0  0  0  0  0
  -30.8600  -12.4620   18.2030 C   0  0  0  0  0  2  0  0  0  0  0  0
  -29.7290  -12.3870   17.1500 C   0  0  0  0  0  2  0  0  0  0  0  0
  -28.3570  -12.1940   17.8280 C   0  0  0  0  0  2  0  0  0  0  0  0
  -28.1540  -13.1430   19.0370 C   0  0  0  0  0  3  0  0  0  0  0  0
  -29.3870  -13.1700   19.9650 C   0  0  0  0  0  2  0  0  0  0  0  0
  -30.5400  -13.5710   19.1450 N   0  0  0  0  0  0  0  0  0  0  0  0
  -32.1730  -14.9790   18.4900 O   0  0  0  0  0  0  0  0  0  0  0  0
  -30.2610  -15.9570   19.4180 N   0  0  0  0  0  0  0  0  0  0  0  0
  -29.4740  -15.6070   19.9470 H   0  0  0  0  0  0  0  0  0  0  0  0
  -26.0200  -13.7470   20.3190 C   0  0  0  0  0  0  0  0  0  0  0  0
  -24.9970  -12.9890   20.8200 C   0  0  0  0  0  0  0  0  0  0  0  0
  -25.3410  -11.6300   20.5420 C   0  0  0  0  0  0  0  0  0  0  0  0
  -26.9220  -12.8530   19.7680 N   0  0  0  0  0  0  0  0  0  0  0  0
  -26.5350  -11.5660   19.9620 N   0  0  0  0  0  0  0  0  0  0  0  0
  -24.5700  -10.3940   20.7390 C   0  0  0  0  0  0  0  0  0  0  0  0
  -24.9630   -9.4250   21.6880 C   0  0  0  0  0  3  0  0  0  0  0  0
  -24.1980   -8.2530   21.8750 C   0  0  0  0  0  3  0  0  0  0  0  0
  -23.0250   -8.0430   21.1140 C   0  0  0  0  0  0  0  0  0  0  0  0
  -22.6480   -9.0020   20.1570 C   0  0  0  0  0  3  0  0  0  0  0  0
  -23.4130  -10.1650   19.9690 C   0  0  0  0  0  3  0  0  0  0  0  0
  -22.2320   -6.9260   21.2110 O   0  0  0  0  0  0  0  0  0  0  0  0
  -21.8890   -6.3870   22.4250 C   0  0  0  0  0  0  0  0  0  0  0  0
  -21.1400   -7.1140   23.3770 C   0  0  0  0  0  3  0  0  0  0  0  0
  -20.7500   -6.4980   24.5840 C   0  0  0  0  0  3  0  0  0  0  0  0
  -21.0980   -5.1570   24.8360 C   0  0  0  0  0  0  0  0  0  0  0  0
  -21.8350   -4.4310   23.8860 C   0  0  0  0  0  3  0  0  0  0  0  0
  -22.2270   -5.0430   22.6830 C   0  0  0  0  0  0  0  0  0  0  0  0
  -22.9210   -4.3320   21.7610 F   0  0  0  0  0  0  0  0  0  0  0  0
  -20.7150   -4.5640   25.9910 F   0  0  0  0  0  0  0  0  0  0  0  0
  -23.7250  -13.5020   21.4280 C   0  0  0  0  0  0  0  0  0  0  0  0
  -23.1580  -12.7760   22.3860 N   0  0  0  0  0  0  0  0  0  0  0  0
  -23.2490  -14.5860   21.0900 O   0  0  0  0  0  0  0  0  0  0  0  0
  -23.5510  -11.8980   22.6880 H   0  0  0  0  0  0  0  0  0  0  0  0
  -22.3110  -13.1080   22.8270 H   0  0  0  0  0  0  0  0  0  0  0  0
  -26.2450  -15.1190   20.2630 N   0  0  0  0  0  0  0  0  0  0  0  0
  -25.5550  -15.7860   20.5910 H   0  0  0  0  0  0  0  0  0  0  0  0
  -27.0370  -15.5590   19.8140 H   0  0  0  0  0  0  0  0  0  0  0  0
  -28.9400  -23.1740   18.5970 C   0  0  0  0  0  0  0  0  0  0  0  0
  -29.3990  -22.4690   20.8630 C   0  0  0  0  0  1  0  0  0  0  0  0
  -29.3250  -22.0790   19.4450 N   0  0  0  0  0  0  0  0  0  0  0  0
  -29.0750  -23.0870   17.3720 O   0  0  0  0  0  0  0  0  0  0  0  0
  -28.2470  -24.5870   19.1540 C   0  0  0  0  0  2  0  0  0  0  0  0
  -28.3170  -25.9570   18.4390 O   0  0  0  0  0  0  0  0  0  0  0  0
  -24.9350  -31.0620   22.5300 C   0  0  0  0  0  0  0  0  0  0  0  0
  -27.2730  -26.9190   18.6490 C   0  0  0  0  0  0  0  0  0  0  0  0
  -23.6260  -29.9690   20.7490 C   0  0  0  0  0  3  0  0  0  0  0  0
  -24.9700  -28.6400   19.0140 C   0  0  0  0  0  0  0  0  0  0  0  0
  -26.1730  -30.2450   20.4930 C   0  0  0  0  0  2  0  0  0  0  0  0
  -26.1880  -28.9810   19.6210 C   0  0  0  0  0  0  0  0  0  0  0  0
  -27.3430  -28.1450   19.4160 C   0  0  0  0  0  3  0  0  0  0  0  0
  -26.0300  -26.6640   18.0340 C   0  0  0  0  0  3  0  0  0  0  0  0
  -24.9030  -27.4960   18.2050 C   0  0  0  0  0  3  0  0  0  0  0  0
  -23.7640  -29.5290   19.2680 C   0  0  0  0  0  2  0  0  0  0  0  0
  -24.9350  -30.4390   21.3120 N   0  0  0  0  0  0  0  0  0  0  0  0
  -23.8820  -31.2640   23.1550 O   0  0  0  0  0  0  0  0  0  0  0  0
  -22.9830  -28.8210   21.5680 C   0  0  0  0  0  0  0  0  0  0  0  0
  -21.6420  -28.7170   21.5290 N   0  0  0  0  0  0  0  0  0  0  0  0
  -23.6880  -28.0310   22.2010 O   0  0  0  0  0  0  0  0  0  0  0  0
  -21.1310  -29.4090   20.9980 H   0  0  0  0  0  0  0  0  0  0  0  0
  -18.2520  -27.6010   22.1550 C   0  0  0  0  0  0  0  0  0  0  0  0
  -20.8380  -27.6830   22.1850 C   0  0  0  0  0  3  0  0  0  0  0  0
  -20.7840  -26.3940   21.3320 C   0  0  0  0  0  2  0  0  0  0  0  0
  -19.5660  -26.3380   20.4030 C   0  0  0  0  0  2  0  0  0  0  0  0
  -18.2680  -26.4120   21.2110 C   0  0  0  0  0  2  0  0  0  0  0  0
  -19.4570  -28.2080   22.6010 C   0  0  0  0  0  0  0  0  0  0  0  0
  -19.3810  -29.3310   23.4520 C   0  0  0  0  0  3  0  0  0  0  0  0
  -18.1350  -29.8440   23.8610 C   0  0  0  0  0  3  0  0  0  0  0  0
  -16.9460  -29.2310   23.4260 C   0  0  0  0  0  3  0  0  0  0  0  0
  -17.0070  -28.1120   22.5790 C   0  0  0  0  0  3  0  0  0  0  0  0
  -26.2550  -31.5690   23.1870 C   0  0  0  0  0  3  0  0  0  0  0  0
  -26.9010  -30.5180   24.1720 C   0  0  1  0  0  0  0  0  0  0  0  0
  -25.9190  -29.9850   25.2410 C   0  0  0  0  0  1  0  0  0  0  0  0
  -27.4520  -29.3010   23.3930 C   0  0  0  0  0  1  0  0  0  0  0  0
  -28.1060  -31.1570   24.9030 C   0  0  0  0  0  1  0  0  0  0  0  0
  -25.9480  -32.8190   23.8980 N   0  0  0  0  0  0  0  0  0  0  0  0
  -26.2680  -34.0460   23.4640 C   0  0  0  0  0  0  0  0  0  0  0  0
  -26.9200  -34.2390   22.4350 O   0  0  0  0  0  0  0  0  0  0  0  0
  -25.3600  -32.7400   24.7150 H   0  0  0  0  0  0  0  0  0  0  0  0
  -24.5550  -35.8800   23.6460 C   0  0  0  0  0  1  0  0  0  0  0  0
  -25.7920  -35.2490   24.3040 C   0  0  0  0  0  3  0  0  0  0  0  0
  -27.9180  -35.8500   25.3760 C   0  0  0  0  0  1  0  0  0  0  0  0
  -26.8340  -36.2810   24.4970 N   0  0  0  0  0  0  0  0  0  0  0  0
  -26.4330  -37.1320   24.8810 H   0  0  0  0  0  0  0  0  0  0  0  0
  -27.2520  -17.8250   21.4960 C   0  0  0  0  0  1  0  0  0  0  0  0
  -28.1830  -17.2820   20.5700 O   0  0  0  0  0  0  0  0  0  0  0  0
  1  4  1  0
  2  6  1  0
  3  1  2  0
  3  5  1  0
  4 16  1  0
  4  6  2  0
  5 48  1  0
  5  2  2  0
  6 93  1  0
  7  3  1  0
  8 14  1  0
  8 16  1  0
  9 14  1  0
 10 11  1  0
 10  9  1  0
 12 11  1  0
 12 21  1  0
 12 13  1  0
 14 13  1  0
 15  8  2  0
 16 17  1  0
 18 19  2  0
 19 38  1  0
 20 23  1  0
 20 19  1  0
 21 22  1  0
 21 18  1  0
 22 20  2  0
 23 24  1  0
 24 25  2  0
 26 29  1  0
 26 25  1  0
 27 26  2  0
 28 27  1  0
 28 23  2  0
 29 30  1  0
 30 35  2  0
 30 31  1  0
 31 32  2  0
 32 33  1  0
 33 37  1  0
 34 33  2  0
 35 34  1  0
 36 35  1  0
 38 39  1  0
 39 41  1  0
 39 42  1  0
 40 38  2  0
 43 18  1  0
 43 44  1  0
 45 43  1  0
 46 50  1  0
 46 48  1  0
 48 47  1  0
 49 46  2  0
 51 53  1  0
 51 50  1  0
 52 63  2  0
 53 58  1  0
 54 62  1  0
 54 64  1  0
 55 61  1  0
 55 57  1  0
 56 62  1  0
 57 56  1  0
 58 57  2  0
 59 60  1  0
 59 53  2  0
 60 55  2  0
 61 54  1  0
 62 52  1  0
 64 66  2  0
 65 64  1  0
 67 65  1  0
 68 77  2  0
 68 73  1  0
 69 65  1  0
 69 73  1  0
 70 69  1  0
 71 72  1  0
 71 70  1  0
 72 68  1  0
 73 74  2  0
 74 75  1  0
 76 75  2  0
 77 76  1  0
 78 52  1  0
 78 83  1  0
 78 79  1  0
 79 82  1  1
 79 80  1  0
 81 79  1  0
 83 86  1  0
 84 83  1  0
 84 88  1  0
 85 84  2  0
 88 87  1  0
 88 90  1  0
 90 91  1  0
 90 89  1  0
 93 92  1  0
M  ISO  4   8 100  16 100  50 101  51 101
M  END
>  <TORSDO>  (20) 
F 19

>  <SCORE>  (20) 
-7.119

>  <name>  (20) 
19

>  <ligand_id>  (20) 
19

>  <original_smiles>  (20) 
[H]c1c([H])c([H])c2c(c1[H])C([H])([H])C([H])([H])C([H])([H])C2([H])N([H])C(=O)C1([H])N(C(=O)C([H])(N([H])C(=O)C([H])(N([H])C([H])([H])[H])C([H])([H])[H])C(C([H])([H])[H])(C([H])([H])[H])C([H])([H])[H])C([H])([H])c2c([H])c(OC([H])([H])C(=O)N(c3c([H])c(OC([H])([H])[H])c(N([H])C(=O)N4C([H])([H])C([H])([H])C([H])([H])C([H])(n5nc(-c6c([H])c([H])c(Oc7c([H])c([H])c(F)c([H])c7F)c([H])c6[H])c(C(=O)N([H])[H])c5N([H])[H])C4([H])[H])c([H])c3C([H])([H])[H])C([H])([H])[H])c([H])c([H])c2C1([H])[H]

>  <smiles>  (20) 
[H]c1c([H])c([H])c2c(c1[H])C([H])([H])C([H])([H])C([H])([H])C2([H])N([H])C(=O)C1([H])N(C(=O)C([H])(N([H])C(=O)C([H])(N([H])C([H])([H])[H])C([H])([H])[H])C(C([H])([H])[H])(C([H])([H])[H])C([H])([H])[H])C([H])([H])c2c([H])c(OC([H])([H])C(=O)N(c3c([H])c(OC([H])([H])[H])c(N([H])C(=O)N4C([H])([H])C([H])([H])C([H])([H])C([H])(n5nc(-c6c([H])c([H])c(Oc7c([H])c([H])c(F)c([H])c7F)c([H])c6[H])c(C(=O)N([H])[H])c5N([H])[H])C4([H])[H])c([H])c3C([H])([H])[H])C([H])([H])[H])c([H])c([H])c2C1([H])[H]

$$$$
20:0:0
     RDKit          3D

 91 99  0  0  1  0  0  0  0  0999 V2000
  -28.5780  -23.3350   20.2560 C   0  0  0  0  0  0  0  0  0  0  0  0
  -30.6180  -22.8760   19.0860 C   0  0  0  0  0  1  0  0  0  0  0  0
  -29.4550  -22.3060   19.7810 N   0  0  0  0  0  0  0  0  0  0  0  0
  -27.8610  -23.1040   21.2350 O   0  0  0  0  0  0  0  0  0  0  0  0
  -28.9140  -18.4960   21.0230 C   0  0  0  0  0  3  0  0  0  0  0  0
  -28.8040  -19.9480   20.9090 C   0  0  0  0  0  3  0  0  0  0  0  0
  -30.4200  -18.4310   19.2290 C   0  0  0  0  0  3  0  0  0  0  0  0
  -29.7420  -17.6390   20.2060 C   0  0  0  0  0  0  0  0  0  0  0  0
  -29.4970  -20.7520   19.9390 C   0  0  0  0  0  0  0  0  0  0  0  0
  -30.2920  -19.8750   19.0880 C   0  0  0  0  0  0  0  0  0  0  0  0
  -30.9610  -20.4010   18.0350 F   0  0  0  0  0  0  0  0  0  0  0  0
  -30.5300  -14.9960   19.9410 C   0  0  0  0  0  0  0  0  0  0  0  0
  -30.3690  -12.6720   18.9420 C   0  0  0  0  0  2  0  0  0  0  0  0
  -29.3500  -12.6830   17.7770 C   0  0  0  0  0  2  0  0  0  0  0  0
  -27.9160  -12.4670   18.2980 C   0  0  0  0  0  2  0  0  0  0  0  0
  -27.6000  -13.3440   19.5390 C   0  0  0  0  0  3  0  0  0  0  0  0
  -28.7300  -13.2900   20.5890 C   0  0  0  0  0  2  0  0  0  0  0  0
  -29.9670  -13.7220   19.9210 N   0  0  0  0  0  0  0  0  0  0  0  0
  -31.6790  -15.1200   19.5010 O   0  0  0  0  0  0  0  0  0  0  0  0
  -29.7400  -16.1060   20.3420 N   0  0  0  0  0  0  0  0  0  0  0  0
  -28.9140  -15.7700   20.8140 H   0  0  0  0  0  0  0  0  0  0  0  0
  -25.2780  -13.9080   20.4580 C   0  0  0  0  0  0  0  0  0  0  0  0
  -24.2360  -13.1250   20.8730 C   0  0  0  0  0  0  0  0  0  0  0  0
  -24.6880  -11.7750   20.7610 C   0  0  0  0  0  0  0  0  0  0  0  0
  -26.2960  -13.0340   20.1140 N   0  0  0  0  0  0  0  0  0  0  0  0
  -25.9540  -11.7440   20.3590 N   0  0  0  0  0  0  0  0  0  0  0  0
  -23.9680  -10.5090   20.9580 C   0  0  0  0  0  0  0  0  0  0  0  0
  -24.4250   -9.5320   21.8700 C   0  0  0  0  0  3  0  0  0  0  0  0
  -23.7050   -8.3320   22.0550 C   0  0  0  0  0  3  0  0  0  0  0  0
  -22.5120   -8.1010   21.3290 C   0  0  0  0  0  0  0  0  0  0  0  0
  -22.0730   -9.0670   20.4070 C   0  0  0  0  0  3  0  0  0  0  0  0
  -22.7950  -10.2580   20.2190 C   0  0  0  0  0  3  0  0  0  0  0  0
  -21.7600   -6.9550   21.4260 O   0  0  0  0  0  0  0  0  0  0  0  0
  -21.7010   -6.2290   22.5880 C   0  0  0  0  0  0  0  0  0  0  0  0
  -21.2460   -6.7940   23.7980 C   0  0  0  0  0  3  0  0  0  0  0  0
  -21.1350   -5.9920   24.9520 C   0  0  0  0  0  3  0  0  0  0  0  0
  -21.4700   -4.6260   24.8960 C   0  0  0  0  0  0  0  0  0  0  0  0
  -21.9170   -4.0590   23.6900 C   0  0  0  0  0  3  0  0  0  0  0  0
  -22.0290   -4.8580   22.5390 C   0  0  0  0  0  0  0  0  0  0  0  0
  -22.4420   -4.3020   21.3730 F   0  0  0  0  0  0  0  0  0  0  0  0
  -21.3560   -3.8540   26.0030 F   0  0  0  0  0  0  0  0  0  0  0  0
  -22.8650  -13.5990   21.2580 C   0  0  0  0  0  0  0  0  0  0  0  0
  -22.1930  -12.8780   22.1480 N   0  0  0  0  0  0  0  0  0  0  0  0
  -22.3990  -14.6430   20.8030 O   0  0  0  0  0  0  0  0  0  0  0  0
  -22.5840  -12.0330   22.5380 H   0  0  0  0  0  0  0  0  0  0  0  0
  -21.2750  -13.1780   22.4460 H   0  0  0  0  0  0  0  0  0  0  0  0
  -25.4390  -15.2840   20.3210 N   0  0  0  0  0  0  0  0  0  0  0  0
  -24.6870  -15.9350   20.5130 H   0  0  0  0  0  0  0  0  0  0  0  0
  -26.2630  -15.7330   19.9420 H   0  0  0  0  0  0  0  0  0  0  0  0
  -28.3700  -24.8310   19.5290 C   0  0  0  0  0  2  0  0  0  0  0  0
  -28.2730  -26.2080   20.2620 O   0  0  0  0  0  0  0  0  0  0  0  0
  -24.6100  -31.8720   23.2080 C   0  0  0  0  0  0  0  0  0  0  0  0
  -27.2050  -27.1760   20.1460 C   0  0  0  0  0  0  0  0  0  0  0  0
  -23.4120  -30.4740   21.5700 C   0  0  0  0  0  3  0  0  0  0  0  0
  -24.8640  -28.9160   20.1300 C   0  0  0  0  0  0  0  0  0  0  0  0
  -25.9660  -30.7500   21.4010 C   0  0  0  0  0  2  0  0  0  0  0  0
  -26.0420  -29.3610   20.7430 C   0  0  0  0  0  0  0  0  0  0  0  0
  -27.2070  -28.5040   20.7400 C   0  0  0  0  0  3  0  0  0  0  0  0
  -25.9960  -26.8380   19.4930 C   0  0  0  0  0  3  0  0  0  0  0  0
  -24.8560  -27.6680   19.4920 C   0  0  0  0  0  3  0  0  0  0  0  0
  -23.6320  -29.8050   20.1880 C   0  0  0  0  0  2  0  0  0  0  0  0
  -24.6830  -31.0540   22.1140 N   0  0  0  0  0  0  0  0  0  0  0  0
  -23.5230  -32.1510   23.7390 O   0  0  0  0  0  0  0  0  0  0  0  0
  -22.7420  -29.4620   22.5300 C   0  0  0  0  0  0  0  0  0  0  0  0
  -21.4140  -29.2880   22.4100 N   0  0  0  0  0  0  0  0  0  0  0  0
  -23.4190  -28.8350   23.3490 O   0  0  0  0  0  0  0  0  0  0  0  0
  -20.9230  -29.8450   21.7250 H   0  0  0  0  0  0  0  0  0  0  0  0
  -18.0350  -28.0880   22.9360 C   0  0  0  0  0  0  0  0  0  0  0  0
  -20.5970  -28.3470   23.1830 C   0  0  0  0  0  3  0  0  0  0  0  0
  -20.6920  -26.9190   22.5990 C   0  0  0  0  0  2  0  0  0  0  0  0
  -19.5820  -26.6020   21.5930 C   0  0  0  0  0  2  0  0  0  0  0  0
  -18.2050  -26.7440   22.2490 C   0  0  0  0  0  2  0  0  0  0  0  0
  -19.1580  -28.8480   23.3600 C   0  0  0  0  0  0  0  0  0  0  0  0
  -18.9430  -30.1060   23.9650 C   0  0  0  0  0  3  0  0  0  0  0  0
  -17.6390  -30.6040   24.1480 C   0  0  0  0  0  3  0  0  0  0  0  0
  -16.5310  -29.8410   23.7390 C   0  0  0  0  0  3  0  0  0  0  0  0
  -16.7310  -28.5850   23.1370 C   0  0  0  0  0  3  0  0  0  0  0  0
  -25.8870  -32.5130   23.8340 C   0  0  0  0  0  3  0  0  0  0  0  0
  -25.5660  -33.9080   24.1740 N   0  0  0  0  0  0  0  0  0  0  0  0
  -25.8860  -34.9710   23.4230 C   0  0  0  0  0  0  0  0  0  0  0  0
  -26.5480  -34.8800   22.3860 O   0  0  0  0  0  0  0  0  0  0  0  0
  -24.9740  -34.0520   24.9780 H   0  0  0  0  0  0  0  0  0  0  0  0
  -24.1440  -36.7600   23.1040 C   0  0  0  0  0  1  0  0  0  0  0  0
  -25.3960  -36.3540   23.8980 C   0  0  0  0  0  3  0  0  0  0  0  0
  -27.5330  -37.2490   24.7140 C   0  0  0  0  0  1  0  0  0  0  0  0
  -26.4210  -37.4150   23.7820 N   0  0  0  0  0  0  0  0  0  0  0  0
  -26.0100  -38.3310   23.9370 H   0  0  0  0  0  0  0  0  0  0  0  0
  -26.4040  -31.7420   25.1110 C   0  0  1  0  0  0  0  0  0  0  0  0
  -25.3100  -31.5010   26.1790 C   0  0  0  0  0  1  0  0  0  0  0  0
  -26.9910  -30.3650   24.7240 C   0  0  0  0  0  1  0  0  0  0  0  0
  -27.5520  -32.5390   25.7740 C   0  0  0  0  0  1  0  0  0  0  0  0
  1  4  2  0
  2  3  1  0
  3  9  1  0
  3  1  1  0
  6  5  1  0
  7  8  1  0
  8 20  1  0
  8  5  2  0
  9  6  2  0
 10  7  2  0
 10  9  1  0
 11 10  1  0
 12 20  1  0
 13 18  1  0
 14 15  1  0
 14 13  1  0
 16 15  1  0
 16 25  1  0
 16 17  1  0
 18 12  1  0
 18 17  1  0
 19 12  2  0
 20 21  1  0
 22 23  2  0
 23 42  1  0
 24 23  1  0
 24 27  1  0
 25 26  1  0
 25 22  1  0
 26 24  2  0
 27 28  1  0
 28 29  2  0
 30 33  1  0
 30 29  1  0
 31 30  2  0
 32 31  1  0
 32 27  2  0
 33 34  1  0
 34 35  1  0
 35 36  2  0
 37 36  1  0
 37 41  1  0
 38 37  2  0
 39 34  2  0
 39 38  1  0
 40 39  1  0
 42 43  1  0
 43 46  1  0
 43 45  1  0
 44 42  2  0
 47 22  1  0
 47 48  1  0
 49 47  1  0
 50  1  1  0
 50 51  1  0
 52 63  2  0
 53 51  1  0
 53 58  1  0
 54 62  1  0
 54 64  1  0
 55 61  1  0
 55 57  1  0
 56 62  1  0
 57 56  1  0
 58 57  2  0
 59 53  2  0
 60 59  1  0
 60 55  2  0
 61 54  1  0
 62 52  1  0
 64 66  2  0
 65 64  1  0
 67 65  1  0
 68 77  2  0
 68 73  1  0
 69 65  1  0
 69 73  1  0
 70 69  1  0
 71 72  1  0
 71 70  1  0
 72 68  1  0
 73 74  2  0
 74 75  1  0
 76 75  2  0
 77 76  1  0
 78 52  1  0
 78 79  1  0
 78 88  1  0
 79 82  1  0
 80 84  1  0
 80 79  1  0
 81 80  2  0
 84 83  1  0
 86 84  1  0
 86 87  1  0
 86 85  1  0
 88 91  1  1
 88 89  1  0
 90 88  1  0
M  ISO  4  12 100  20 100  50 101  51 101
M  END
>  <TORSDO>  (21) 
F 18

>  <SCORE>  (21) 
-14.179

>  <name>  (21) 
20

>  <ligand_id>  (21) 
20

>  <original_smiles>  (21) 
[H]c1c([H])c([H])c2c(c1[H])C([H])([H])C([H])([H])C([H])([H])C2([H])N([H])C(=O)C1([H])N(C(=O)C([H])(N([H])C(=O)C([H])(N([H])C([H])([H])[H])C([H])([H])[H])C(C([H])([H])[H])(C([H])([H])[H])C([H])([H])[H])C([H])([H])c2c([H])c(OC([H])([H])C(=O)N(c3c([H])c([H])c(N([H])C(=O)N4C([H])([H])C([H])([H])C([H])([H])C([H])(n5nc(-c6c([H])c([H])c(Oc7c([H])c([H])c(F)c([H])c7F)c([H])c6[H])c(C(=O)N([H])[H])c5N([H])[H])C4([H])[H])c([H])c3F)C([H])([H])[H])c([H])c([H])c2C1([H])[H]

>  <smiles>  (21) 
[H]c1c([H])c([H])c2c(c1[H])C([H])([H])C([H])([H])C([H])([H])C2([H])N([H])C(=O)C1([H])N(C(=O)C([H])(N([H])C(=O)C([H])(N([H])C([H])([H])[H])C([H])([H])[H])C(C([H])([H])[H])(C([H])([H])[H])C([H])([H])[H])C([H])([H])c2c([H])c(OC([H])([H])C(=O)N(c3c([H])c([H])c(N([H])C(=O)N4C([H])([H])C([H])([H])C([H])([H])C([H])(n5nc(-c6c([H])c([H])c(Oc7c([H])c([H])c(F)c([H])c7F)c([H])c6[H])c(C(=O)N([H])[H])c5N([H])[H])C4([H])[H])c([H])c3F)C([H])([H])[H])c([H])c([H])c2C1([H])[H]

$$$$
21:0:0
     RDKit          3D

 97105  0  0  1  0  0  0  0  0999 V2000
  -28.7770  -21.2280   19.8600 C   0  0  0  0  0  0  0  0  0  0  0  0
  -27.3030  -19.2560   19.8530 C   0  0  0  0  0  1  0  0  0  0  0  0
  -28.6110  -19.8920   20.0440 N   0  0  0  0  0  0  0  0  0  0  0  0
  -29.8840  -21.7770   19.9450 O   0  0  0  0  0  0  0  0  0  0  0  0
  -31.8390  -17.2520   20.9090 C   0  0  0  0  0  3  0  0  0  0  0  0
  -30.8080  -19.4640   21.0860 C   0  0  0  0  0  3  0  0  0  0  0  0
  -31.8580  -18.5750   21.4020 C   0  0  0  0  0  0  0  0  0  0  0  0
  -30.7480  -16.8110   20.1280 C   0  0  0  0  0  0  0  0  0  0  0  0
  -29.7140  -19.0280   20.3030 C   0  0  0  0  0  0  0  0  0  0  0  0
  -29.6860  -17.6940   19.8380 C   0  0  0  0  0  0  0  0  0  0  0  0
  -32.9850  -19.0230   22.3140 C   0  0  0  0  0  1  0  0  0  0  0  0
  -28.6230  -17.2420   19.1270 F   0  0  0  0  0  0  0  0  0  0  0  0
  -31.4470  -14.4500   19.6270 C   0  0  0  0  0  0  0  0  0  0  0  0
  -31.1920  -12.1070   18.8870 C   0  0  0  0  0  2  0  0  0  0  0  0
  -30.1670  -12.0600   17.7330 C   0  0  0  0  0  2  0  0  0  0  0  0
  -28.7160  -12.0150   18.2600 C   0  0  0  0  0  2  0  0  0  0  0  0
  -28.4370  -13.0760   19.3570 C   0  0  0  0  0  3  0  0  0  0  0  0
  -29.5510  -13.0330   20.4270 C   0  0  0  0  0  2  0  0  0  0  0  0
  -30.8360  -13.2450   19.7390 N   0  0  0  0  0  0  0  0  0  0  0  0
  -32.5880  -14.6150   19.1820 O   0  0  0  0  0  0  0  0  0  0  0  0
  -30.5710  -15.4580   19.7590 N   0  0  0  0  0  0  0  0  0  0  0  0
  -29.6080  -15.1690   19.7050 H   0  0  0  0  0  0  0  0  0  0  0  0
  -26.1860  -13.8840   20.3160 C   0  0  0  0  0  0  0  0  0  0  0  0
  -25.0820  -13.2010   20.7430 C   0  0  0  0  0  0  0  0  0  0  0  0
  -25.3950  -11.8140   20.6010 C   0  0  0  0  0  0  0  0  0  0  0  0
  -27.1100  -12.9180   19.9430 N   0  0  0  0  0  0  0  0  0  0  0  0
  -26.6410  -11.6640   20.1700 N   0  0  0  0  0  0  0  0  0  0  0  0
  -24.5620  -10.6210   20.7920 C   0  0  0  0  0  0  0  0  0  0  0  0
  -24.8870   -9.6440   21.7600 C   0  0  0  0  0  3  0  0  0  0  0  0
  -24.0640   -8.5120   21.9370 C   0  0  0  0  0  3  0  0  0  0  0  0
  -22.9010   -8.3510   21.1460 C   0  0  0  0  0  0  0  0  0  0  0  0
  -22.5930   -9.3150   20.1710 C   0  0  0  0  0  3  0  0  0  0  0  0
  -23.4160  -10.4380   19.9930 C   0  0  0  0  0  3  0  0  0  0  0  0
  -22.0550   -7.2710   21.2310 O   0  0  0  0  0  0  0  0  0  0  0  0
  -21.7920   -6.6550   22.4280 C   0  0  0  0  0  0  0  0  0  0  0  0
  -21.2050   -7.3480   23.5090 C   0  0  0  0  0  3  0  0  0  0  0  0
  -20.8910   -6.6590   24.6980 C   0  0  0  0  0  3  0  0  0  0  0  0
  -21.1520   -5.2800   24.8030 C   0  0  0  0  0  0  0  0  0  0  0  0
  -21.7310   -4.5880   23.7250 C   0  0  0  0  0  3  0  0  0  0  0  0
  -22.0490   -5.2740   22.5400 C   0  0  0  0  0  0  0  0  0  0  0  0
  -22.5890   -4.5980   21.4970 F   0  0  0  0  0  0  0  0  0  0  0  0
  -20.8420   -4.6160   25.9420 F   0  0  0  0  0  0  0  0  0  0  0  0
  -23.7710  -13.7950   21.1680 C   0  0  0  0  0  0  0  0  0  0  0  0
  -23.0580  -13.1310   22.0710 N   0  0  0  0  0  0  0  0  0  0  0  0
  -23.3890  -14.8820   20.7330 O   0  0  0  0  0  0  0  0  0  0  0  0
  -23.3810  -12.2520   22.4450 H   0  0  0  0  0  0  0  0  0  0  0  0
  -22.1780  -13.5100   22.3920 H   0  0  0  0  0  0  0  0  0  0  0  0
  -26.4700  -15.2420   20.2010 N   0  0  0  0  0  0  0  0  0  0  0  0
  -25.7700  -15.9410   20.4230 H   0  0  0  0  0  0  0  0  0  0  0  0
  -27.3160  -15.6400   19.8190 H   0  0  0  0  0  0  0  0  0  0  0  0
  -27.5410  -22.0890   19.5080 C   0  0  0  0  0  2  0  0  0  0  0  0
  -28.2020  -24.4920   19.7000 C   0  0  0  0  0  0  0  0  0  0  0  0
  -27.8580  -23.4210   18.9730 N   0  0  0  0  0  0  0  0  0  0  0  0
  -28.2820  -24.4580   20.9310 O   0  0  0  0  0  0  0  0  0  0  0  0
  -27.8330  -23.5210   17.9670 H   0  0  0  0  0  0  0  0  0  0  0  0
  -28.5110  -25.7830   18.9190 C   0  0  0  0  0  2  0  0  0  0  0  0
  -28.3280  -26.9470   19.7330 O   0  0  0  0  0  0  0  0  0  0  0  0
  -24.4860  -31.8110   23.1650 C   0  0  0  0  0  0  0  0  0  0  0  0
  -27.1110  -27.5920   19.7800 C   0  0  0  0  0  0  0  0  0  0  0  0
  -23.2540  -30.4760   21.4840 C   0  0  0  0  0  3  0  0  0  0  0  0
  -24.6870  -29.0410   19.9370 C   0  0  0  0  0  0  0  0  0  0  0  0
  -25.7630  -30.8900   21.2340 C   0  0  0  0  0  2  0  0  0  0  0  0
  -25.8490  -29.5560   20.5210 C   0  0  0  0  0  0  0  0  0  0  0  0
  -27.0600  -28.8370   20.4420 C   0  0  0  0  0  3  0  0  0  0  0  0
  -25.9250  -27.0800   19.2010 C   0  0  0  0  0  3  0  0  0  0  0  0
  -24.7200  -27.8010   19.2750 C   0  0  0  0  0  3  0  0  0  0  0  0
  -23.4270  -29.8680   20.0660 C   0  0  0  0  0  2  0  0  0  0  0  0
  -24.5200  -31.0720   22.0180 N   0  0  0  0  0  0  0  0  0  0  0  0
  -23.4160  -32.0350   23.7480 O   0  0  0  0  0  0  0  0  0  0  0  0
  -22.6470  -29.3980   22.4090 C   0  0  0  0  0  0  0  0  0  0  0  0
  -21.3300  -29.1730   22.2760 N   0  0  0  0  0  0  0  0  0  0  0  0
  -23.3550  -28.7680   23.1970 O   0  0  0  0  0  0  0  0  0  0  0  0
  -20.8190  -29.7260   21.6040 H   0  0  0  0  0  0  0  0  0  0  0  0
  -18.0050  -27.8340   22.7290 C   0  0  0  0  0  0  0  0  0  0  0  0
  -20.5490  -28.1830   23.0150 C   0  0  0  0  0  3  0  0  0  0  0  0
  -20.7070  -26.7770   22.3900 C   0  0  0  0  0  2  0  0  0  0  0  0
  -19.6200  -26.4500   21.3620 C   0  0  0  0  0  2  0  0  0  0  0  0
  -18.2340  -26.5140   22.0080 C   0  0  0  0  0  2  0  0  0  0  0  0
  -19.0910  -28.6250   23.1850 C   0  0  0  0  0  0  0  0  0  0  0  0
  -18.8220  -29.8600   23.8140 C   0  0  0  0  0  3  0  0  0  0  0  0
  -17.5000  -30.3080   23.9960 C   0  0  0  0  0  3  0  0  0  0  0  0
  -16.4260  -29.5160   23.5540 C   0  0  0  0  0  3  0  0  0  0  0  0
  -16.6820  -28.2820   22.9240 C   0  0  0  0  0  3  0  0  0  0  0  0
  -25.7810  -32.4270   23.7800 C   0  0  0  0  0  3  0  0  0  0  0  0
  -26.2950  -31.6490   25.0520 C   0  0  1  0  0  0  0  0  0  0  0  0
  -25.1960  -31.3940   26.1110 C   0  0  0  0  0  1  0  0  0  0  0  0
  -26.8910  -30.2780   24.6510 C   0  0  0  0  0  1  0  0  0  0  0  0
  -27.4370  -32.4450   25.7280 C   0  0  0  0  0  1  0  0  0  0  0  0
  -25.4870  -33.8280   24.1100 N   0  0  0  0  0  0  0  0  0  0  0  0
  -25.8480  -34.8770   23.3590 C   0  0  0  0  0  0  0  0  0  0  0  0
  -26.5320  -34.7660   22.3360 O   0  0  0  0  0  0  0  0  0  0  0  0
  -24.8830  -33.9870   24.9050 H   0  0  0  0  0  0  0  0  0  0  0  0
  -24.1650  -36.7030   22.9660 C   0  0  0  0  0  1  0  0  0  0  0  0
  -25.3730  -36.2700   23.8130 C   0  0  0  0  0  3  0  0  0  0  0  0
  -27.4910  -37.1120   24.7240 C   0  0  0  0  0  1  0  0  0  0  0  0
  -26.4280  -37.3030   23.7410 N   0  0  0  0  0  0  0  0  0  0  0  0
  -26.0360  -38.2310   23.8710 H   0  0  0  0  0  0  0  0  0  0  0  0
  1  4  2  0
  1  3  1  0
  2  3  1  0
  3  9  1  0
  5  7  1  0
  6  7  2  0
  7 11  1  0
  8  5  2  0
  9  6  1  0
 10  8  1  0
 10  9  2  0
 12 10  1  0
 13 19  1  0
 13 21  1  0
 14 19  1  0
 15 16  1  0
 15 14  1  0
 17 16  1  0
 17 26  1  0
 17 18  1  0
 19 18  1  0
 20 13  2  0
 21  8  1  0
 22 21  1  0
 23 24  2  0
 24 43  1  0
 25 24  1  0
 25 28  1  0
 26 27  1  0
 26 23  1  0
 27 25  2  0
 28 29  1  0
 29 30  2  0
 31 34  1  0
 31 30  1  0
 32 31  2  0
 33 32  1  0
 33 28  2  0
 34 35  1  0
 35 40  2  0
 35 36  1  0
 36 37  2  0
 37 38  1  0
 38 42  1  0
 39 38  2  0
 40 39  1  0
 41 40  1  0
 43 44  1  0
 44 47  1  0
 44 46  1  0
 45 43  2  0
 48 23  1  0
 48 49  1  0
 50 48  1  0
 51  1  1  0
 52 54  2  0
 53 51  1  0
 53 52  1  0
 55 53  1  0
 56 52  1  0
 56 57  1  0
 57 59  1  0
 58 69  2  0
 59 64  1  0
 60 68  1  0
 60 70  1  0
 61 67  1  0
 61 63  1  0
 62 68  1  0
 63 62  1  0
 64 63  2  0
 65 66  1  0
 65 59  2  0
 66 61  2  0
 67 60  1  0
 68 58  1  0
 70 72  2  0
 71 70  1  0
 73 71  1  0
 74 83  2  0
 74 79  1  0
 75 71  1  0
 75 79  1  0
 76 75  1  0
 77 78  1  0
 77 76  1  0
 78 74  1  0
 79 80  2  0
 80 81  1  0
 82 81  2  0
 83 82  1  0
 84 58  1  0
 84 89  1  0
 84 85  1  0
 85 88  1  1
 85 86  1  0
 87 85  1  0
 89 92  1  0
 90 94  1  0
 90 89  1  0
 91 90  2  0
 94 93  1  0
 96 94  1  0
 96 97  1  0
 96 95  1  0
M  ISO  4  13 100  21 100  56 101  57 101
M  END
>  <TORSDO>  (22) 
F 20

>  <SCORE>  (22) 
-12.556

>  <name>  (22) 
21

>  <ligand_id>  (22) 
21

>  <original_smiles>  (22) 
[H]c1c([H])c([H])c2c(c1[H])C([H])([H])C([H])([H])C([H])([H])C2([H])N([H])C(=O)C1([H])N(C(=O)C([H])(N([H])C(=O)C([H])(N([H])C([H])([H])[H])C([H])([H])[H])C(C([H])([H])[H])(C([H])([H])[H])C([H])([H])[H])C([H])([H])c2c([H])c(OC([H])([H])C(=O)N([H])C([H])([H])C(=O)N(c3c([H])c(C([H])([H])[H])c([H])c(N([H])C(=O)N4C([H])([H])C([H])([H])C([H])([H])C([H])(n5nc(-c6c([H])c([H])c(Oc7c([H])c([H])c(F)c([H])c7F)c([H])c6[H])c(C(=O)N([H])[H])c5N([H])[H])C4([H])[H])c3F)C([H])([H])[H])c([H])c([H])c2C1([H])[H]

>  <smiles>  (22) 
[H]c1c([H])c([H])c2c(c1[H])C([H])([H])C([H])([H])C([H])([H])C2([H])N([H])C(=O)C1([H])N(C(=O)C([H])(N([H])C(=O)C([H])(N([H])C([H])([H])[H])C([H])([H])[H])C(C([H])([H])[H])(C([H])([H])[H])C([H])([H])[H])C([H])([H])c2c([H])c(OC([H])([H])C(=O)N([H])C([H])([H])C(=O)N(c3c([H])c(C([H])([H])[H])c([H])c(N([H])C(=O)N4C([H])([H])C([H])([H])C([H])([H])C([H])(n5nc(-c6c([H])c([H])c(Oc7c([H])c([H])c(F)c([H])c7F)c([H])c6[H])c(C(=O)N([H])[H])c5N([H])[H])C4([H])[H])c3F)C([H])([H])[H])c([H])c([H])c2C1([H])[H]

$$$$
22:0:0
     RDKit          3D

 93101  0  0  1  0  0  0  0  0999 V2000
  -28.8350  -20.2420   18.6860 C   0  0  0  0  0  3  0  0  0  0  0  0
  -29.2090  -20.4410   20.0300 C   0  0  0  0  0  0  0  0  0  0  0  0
  -29.6460  -17.7670   20.0770 C   0  0  0  0  0  0  0  0  0  0  0  0
  -28.8830  -18.9780   18.0500 C   0  0  0  0  0  0  0  0  0  0  0  0
  -29.5970  -19.1390   20.7070 C   0  0  0  0  0  0  0  0  0  0  0  0
  -29.2790  -17.7880   18.7120 C   0  0  0  0  0  0  0  0  0  0  0  0
  -28.5230  -18.9030   16.7460 F   0  0  0  0  0  0  0  0  0  0  0  0
  -29.9310  -19.1970   22.0190 F   0  0  0  0  0  0  0  0  0  0  0  0
  -29.2440  -16.6260   18.0160 F   0  0  0  0  0  0  0  0  0  0  0  0
  -30.6110  -15.1730   20.3770 C   0  0  0  0  0  0  0  0  0  0  0  0
  -30.5950  -12.7730   19.5180 C   0  0  0  0  0  2  0  0  0  0  0  0
  -29.6930  -12.6660   18.2630 C   0  0  0  0  0  2  0  0  0  0  0  0
  -28.2310  -12.4070   18.6690 C   0  0  0  0  0  2  0  0  0  0  0  0
  -27.7750  -13.3450   19.8160 C   0  0  0  0  0  3  0  0  0  0  0  0
  -28.8020  -13.4210   20.9670 C   0  0  0  0  0  2  0  0  0  0  0  0
  -30.0730  -13.8770   20.3860 N   0  0  0  0  0  0  0  0  0  0  0  0
  -31.7930  -15.2570   20.0190 O   0  0  0  0  0  0  0  0  0  0  0  0
  -29.8420  -16.3470   20.7010 N   0  0  0  0  0  0  0  0  0  0  0  0
  -29.0650  -16.1000   21.2950 H   0  0  0  0  0  0  0  0  0  0  0  0
  -25.3780  -13.8800   20.5200 C   0  0  0  0  0  0  0  0  0  0  0  0
  -24.3220  -13.0870   20.8750 C   0  0  0  0  0  0  0  0  0  0  0  0
  -24.8090  -11.7430   20.8500 C   0  0  0  0  0  0  0  0  0  0  0  0
  -26.4370  -13.0200   20.2940 N   0  0  0  0  0  0  0  0  0  0  0  0
  -26.1040  -11.7300   20.5580 N   0  0  0  0  0  0  0  0  0  0  0  0
  -24.1000  -10.4700   21.0300 C   0  0  0  0  0  0  0  0  0  0  0  0
  -24.5160   -9.5210   21.9900 C   0  0  0  0  0  3  0  0  0  0  0  0
  -23.8050   -8.3120   22.1560 C   0  0  0  0  0  3  0  0  0  0  0  0
  -22.6630   -8.0450   21.3630 C   0  0  0  0  0  0  0  0  0  0  0  0
  -22.2670   -8.9830   20.3940 C   0  0  0  0  0  3  0  0  0  0  0  0
  -22.9770  -10.1830   20.2250 C   0  0  0  0  0  3  0  0  0  0  0  0
  -21.9260   -6.8880   21.4380 O   0  0  0  0  0  0  0  0  0  0  0  0
  -21.8230   -6.1740   22.6060 C   0  0  0  0  0  0  0  0  0  0  0  0
  -21.2770   -6.7420   23.7790 C   0  0  0  0  0  3  0  0  0  0  0  0
  -21.1250   -5.9540   24.9370 C   0  0  0  0  0  3  0  0  0  0  0  0
  -21.5060   -4.5980   24.9220 C   0  0  0  0  0  0  0  0  0  0  0  0
  -22.0440   -4.0300   23.7530 C   0  0  0  0  0  3  0  0  0  0  0  0
  -22.1980   -4.8160   22.5980 C   0  0  0  0  0  0  0  0  0  0  0  0
  -22.6970   -4.2580   21.4680 F   0  0  0  0  0  0  0  0  0  0  0  0
  -21.3530   -3.8380   26.0320 F   0  0  0  0  0  0  0  0  0  0  0  0
  -22.9130  -13.5410   21.1250 C   0  0  0  0  0  0  0  0  0  0  0  0
  -22.1850  -12.8310   21.9800 N   0  0  0  0  0  0  0  0  0  0  0  0
  -22.4690  -14.5620   20.6010 O   0  0  0  0  0  0  0  0  0  0  0  0
  -22.5590  -12.0050   22.4240 H   0  0  0  0  0  0  0  0  0  0  0  0
  -21.2390  -13.1160   22.1940 H   0  0  0  0  0  0  0  0  0  0  0  0
  -25.5230  -15.2540   20.3450 N   0  0  0  0  0  0  0  0  0  0  0  0
  -24.7400  -15.8940   20.4340 H   0  0  0  0  0  0  0  0  0  0  0  0
  -26.3660  -15.7040   20.0110 H   0  0  0  0  0  0  0  0  0  0  0  0
  -30.2670  -22.0900   21.5170 C   0  0  0  0  0  1  0  0  0  0  0  0
  -29.2470  -21.8880   20.4950 N   0  0  0  0  0  0  0  0  0  0  0  0
  -27.3050  -23.1880   21.5260 C   0  0  0  0  0  1  0  0  0  0  0  0
  -28.2490  -23.1210   20.3180 C   0  0  0  0  0  3  0  0  0  0  0  0
  -28.6050  -24.7360   19.7930 C   0  0  0  0  0  2  0  0  0  0  0  0
  -28.4260  -26.2120   20.3540 O   0  0  0  0  0  0  0  0  0  0  0  0
  -24.7080  -31.9080   23.2390 C   0  0  0  0  0  0  0  0  0  0  0  0
  -27.3550  -27.1880   20.2080 C   0  0  0  0  0  0  0  0  0  0  0  0
  -23.5320  -30.4970   21.5940 C   0  0  0  0  0  3  0  0  0  0  0  0
  -25.0060  -28.9350   20.1610 C   0  0  0  0  0  0  0  0  0  0  0  0
  -26.0830  -30.7850   21.4370 C   0  0  0  0  0  2  0  0  0  0  0  0
  -26.1750  -29.3890   20.7820 C   0  0  0  0  0  0  0  0  0  0  0  0
  -27.3420  -28.5290   20.7900 C   0  0  0  0  0  3  0  0  0  0  0  0
  -26.1630  -26.8470   19.5360 C   0  0  0  0  0  3  0  0  0  0  0  0
  -25.0160  -27.6810   19.5210 C   0  0  0  0  0  3  0  0  0  0  0  0
  -23.7670  -29.8210   20.2140 C   0  0  0  0  0  2  0  0  0  0  0  0
  -24.7950  -31.0880   22.1450 N   0  0  0  0  0  0  0  0  0  0  0  0
  -23.6170  -32.1740   23.7670 O   0  0  0  0  0  0  0  0  0  0  0  0
  -22.8640  -29.4830   22.5560 C   0  0  0  0  0  0  0  0  0  0  0  0
  -21.5390  -29.2880   22.4220 N   0  0  0  0  0  0  0  0  0  0  0  0
  -23.5400  -28.8740   23.3890 O   0  0  0  0  0  0  0  0  0  0  0  0
  -21.0460  -29.8290   21.7260 H   0  0  0  0  0  0  0  0  0  0  0  0
  -18.1820  -28.0120   22.9030 C   0  0  0  0  0  0  0  0  0  0  0  0
  -20.7310  -28.3360   23.1910 C   0  0  0  0  0  3  0  0  0  0  0  0
  -20.8720  -26.9030   22.6240 C   0  0  0  0  0  2  0  0  0  0  0  0
  -19.7880  -26.5510   21.6010 C   0  0  0  0  0  2  0  0  0  0  0  0
  -18.3970  -26.6650   22.2320 C   0  0  0  0  0  2  0  0  0  0  0  0
  -19.2780  -28.8020   23.3390 C   0  0  0  0  0  0  0  0  0  0  0  0
  -19.0220  -30.0600   23.9280 C   0  0  0  0  0  3  0  0  0  0  0  0
  -17.7040  -30.5290   24.0820 C   0  0  0  0  0  3  0  0  0  0  0  0
  -16.6220  -29.7350   23.6610 C   0  0  0  0  0  3  0  0  0  0  0  0
  -16.8620  -28.4790   23.0770 C   0  0  0  0  0  3  0  0  0  0  0  0
  -25.9740  -32.5650   23.8700 C   0  0  0  0  0  3  0  0  0  0  0  0
  -26.4750  -31.8210   25.1700 C   0  0  1  0  0  0  0  0  0  0  0  0
  -25.3660  -31.5980   26.2250 C   0  0  0  0  0  1  0  0  0  0  0  0
  -27.0710  -30.4390   24.8170 C   0  0  0  0  0  1  0  0  0  0  0  0
  -27.6120  -32.6310   25.8340 C   0  0  0  0  0  1  0  0  0  0  0  0
  -25.6470  -33.9670   24.1780 N   0  0  0  0  0  0  0  0  0  0  0  0
  -25.9780  -35.0170   23.4160 C   0  0  0  0  0  0  0  0  0  0  0  0
  -26.6540  -34.9080   22.3890 O   0  0  0  0  0  0  0  0  0  0  0  0
  -25.0450  -34.1240   24.9720 H   0  0  0  0  0  0  0  0  0  0  0  0
  -24.2440  -36.8040   23.0370 C   0  0  0  0  0  1  0  0  0  0  0  0
  -25.4810  -36.4080   23.8590 C   0  0  0  0  0  3  0  0  0  0  0  0
  -27.6000  -37.3180   24.7050 C   0  0  0  0  0  1  0  0  0  0  0  0
  -26.5100  -37.4660   23.7440 N   0  0  0  0  0  0  0  0  0  0  0  0
  -26.0970  -38.3860   23.8730 H   0  0  0  0  0  0  0  0  0  0  0  0
  1  2  1  0
  2 49  1  0
  2  5  2  0
  3 18  1  0
  3  5  1  0
  4  1  2  0
  4  6  1  0
  5  8  1  0
  6  3  2  0
  7  4  1  0
  9  6  1  0
 10 16  1  0
 10 18  1  0
 11 16  1  0
 12 13  1  0
 12 11  1  0
 14 13  1  0
 14 23  1  0
 14 15  1  0
 16 15  1  0
 17 10  2  0
 18 19  1  0
 20 21  2  0
 21 40  1  0
 22 21  1  0
 22 25  1  0
 23 20  1  0
 23 24  1  0
 24 22  2  0
 25 26  1  0
 26 27  2  0
 28 31  1  0
 28 27  1  0
 29 28  2  0
 30 29  1  0
 30 25  2  0
 31 32  1  0
 32 33  1  0
 33 34  2  0
 35 34  1  0
 35 39  1  0
 36 35  2  0
 37 32  2  0
 37 36  1  0
 38 37  1  0
 40 41  1  0
 41 44  1  0
 41 43  1  0
 42 40  2  0
 45 46  1  0
 45 20  1  0
 47 45  1  0
 49 48  1  0
 51 49  1  0
 51 50  1  0
 52 51  1  0
 52 53  1  0
 54 65  2  0
 55 53  1  0
 55 60  1  0
 56 64  1  0
 56 66  1  0
 57 63  1  0
 57 59  1  0
 58 64  1  0
 59 60  2  0
 59 58  1  0
 61 55  2  0
 62 61  1  0
 62 57  2  0
 63 56  1  0
 64 54  1  0
 66 68  2  0
 67 66  1  0
 69 67  1  0
 70 79  2  0
 70 75  1  0
 71 67  1  0
 71 75  1  0
 72 71  1  0
 73 74  1  0
 73 72  1  0
 74 70  1  0
 75 76  2  0
 76 77  1  0
 78 77  2  0
 79 78  1  0
 80 54  1  0
 80 85  1  0
 80 81  1  0
 81 84  1  1
 81 82  1  0
 83 81  1  0
 85 88  1  0
 86 90  1  0
 86 85  1  0
 87 86  2  0
 90 89  1  0
 92 90  1  0
 92 93  1  0
 92 91  1  0
M  ISO  4  10 100  18 100  52 101  53 101
M  END
>  <TORSDO>  (23) 
F 19

>  <SCORE>  (23) 
-14.519

>  <name>  (23) 
22

>  <ligand_id>  (23) 
22

>  <original_smiles>  (23) 
[H]c1c([H])c([H])c2c(c1[H])C([H])([H])C([H])([H])C([H])([H])C2([H])N([H])C(=O)C1([H])N(C(=O)C([H])(N([H])C(=O)C([H])(N([H])C([H])([H])[H])C([H])([H])[H])C(C([H])([H])[H])(C([H])([H])[H])C([H])([H])[H])C([H])([H])c2c([H])c(OC([H])([H])C([H])(N(c3c([H])c(F)c(F)c(N([H])C(=O)N4C([H])([H])C([H])([H])C([H])([H])C([H])(n5nc(-c6c([H])c([H])c(Oc7c([H])c([H])c(F)c([H])c7F)c([H])c6[H])c(C(=O)N([H])[H])c5N([H])[H])C4([H])[H])c3F)C([H])([H])[H])C([H])([H])[H])c([H])c([H])c2C1([H])[H]

>  <smiles>  (23) 
[H]c1c([H])c([H])c2c(c1[H])C([H])([H])C([H])([H])C([H])([H])C2([H])N([H])C(=O)C1([H])N(C(=O)C([H])(N([H])C(=O)C([H])(N([H])C([H])([H])[H])C([H])([H])[H])C(C([H])([H])[H])(C([H])([H])[H])C([H])([H])[H])C([H])([H])c2c([H])c(OC([H])([H])C([H])(N(c3c([H])c(F)c(F)c(N([H])C(=O)N4C([H])([H])C([H])([H])C([H])([H])C([H])(n5nc(-c6c([H])c([H])c(Oc7c([H])c([H])c(F)c([H])c7F)c([H])c6[H])c(C(=O)N([H])[H])c5N([H])[H])C4([H])[H])c3F)C([H])([H])[H])C([H])([H])[H])c([H])c([H])c2C1([H])[H]

$$$$
23:0:0
     RDKit          3D

 95103  0  0  1  0  0  0  0  0999 V2000
  -28.7150  -23.2090   20.3480 C   0  0  0  0  0  0  0  0  0  0  0  0
  -29.3210  -22.0240   19.7360 N   0  0  0  0  0  0  0  0  0  0  0  0
  -28.2860  -23.0950   21.5020 O   0  0  0  0  0  0  0  0  0  0  0  0
  -30.4980  -20.6620   21.4910 C   0  0  0  0  0  3  0  0  0  0  0  0
  -31.0760  -19.5040   22.0670 C   0  0  0  0  0  3  0  0  0  0  0  0
  -29.4550  -19.1890   19.8770 C   0  0  0  0  0  3  0  0  0  0  0  0
  -29.6600  -20.6150   20.3550 C   0  0  0  0  0  0  0  0  0  0  0  0
  -30.0220  -17.9200   20.4780 C   0  0  0  0  0  0  0  0  0  0  0  0
  -30.8420  -18.1890   21.5980 C   0  0  0  0  0  0  0  0  0  0  0  0
  -31.3750  -17.1620   22.3010 F   0  0  0  0  0  0  0  0  0  0  0  0
  -30.5300  -15.1870   20.1330 C   0  0  0  0  0  0  0  0  0  0  0  0
  -30.3880  -12.8390   19.1310 C   0  0  0  0  0  2  0  0  0  0  0  0
  -29.3980  -12.7660   17.9450 C   0  0  0  0  0  2  0  0  0  0  0  0
  -27.9670  -12.5020   18.4510 C   0  0  0  0  0  2  0  0  0  0  0  0
  -27.5850  -13.4150   19.6440 C   0  0  0  0  0  3  0  0  0  0  0  0
  -28.6910  -13.4670   20.7170 C   0  0  0  0  0  2  0  0  0  0  0  0
  -29.9210  -13.9240   20.0510 N   0  0  0  0  0  0  0  0  0  0  0  0
  -31.7420  -15.2110   19.8880 O   0  0  0  0  0  0  0  0  0  0  0  0
  -29.7560  -16.4070   20.1670 N   0  0  0  0  0  0  0  0  0  0  0  0
  -28.7720  -16.1940   20.1090 H   0  0  0  0  0  0  0  0  0  0  0  0
  -25.2430  -13.9470   20.5240 C   0  0  0  0  0  0  0  0  0  0  0  0
  -24.1960  -13.1540   20.9080 C   0  0  0  0  0  0  0  0  0  0  0  0
  -24.6650  -11.8100   20.8180 C   0  0  0  0  0  0  0  0  0  0  0  0
  -26.2770  -13.0840   20.2060 N   0  0  0  0  0  0  0  0  0  0  0  0
  -25.9450  -11.7910   20.4530 N   0  0  0  0  0  0  0  0  0  0  0  0
  -23.9520  -10.5380   20.9990 C   0  0  0  0  0  0  0  0  0  0  0  0
  -24.3920   -9.5650   21.9250 C   0  0  0  0  0  3  0  0  0  0  0  0
  -23.6710   -8.3610   22.0970 C   0  0  0  0  0  3  0  0  0  0  0  0
  -22.4970   -8.1220   21.3430 C   0  0  0  0  0  0  0  0  0  0  0  0
  -22.0790   -9.0830   20.4070 C   0  0  0  0  0  3  0  0  0  0  0  0
  -22.7990  -10.2760   20.2300 C   0  0  0  0  0  3  0  0  0  0  0  0
  -21.7490   -6.9710   21.4230 O   0  0  0  0  0  0  0  0  0  0  0  0
  -21.6830   -6.2360   22.5790 C   0  0  0  0  0  0  0  0  0  0  0  0
  -21.1800   -6.7800   23.7830 C   0  0  0  0  0  3  0  0  0  0  0  0
  -21.0710   -5.9680   24.9290 C   0  0  0  0  0  3  0  0  0  0  0  0
  -21.4440   -4.6120   24.8720 C   0  0  0  0  0  0  0  0  0  0  0  0
  -21.9370   -4.0680   23.6710 C   0  0  0  0  0  3  0  0  0  0  0  0
  -22.0550   -4.8770   22.5280 C   0  0  0  0  0  0  0  0  0  0  0  0
  -22.5100   -4.3410   21.3700 F   0  0  0  0  0  0  0  0  0  0  0  0
  -21.3320   -3.8290   25.9700 F   0  0  0  0  0  0  0  0  0  0  0  0
  -22.8060  -13.6170   21.2390 C   0  0  0  0  0  0  0  0  0  0  0  0
  -22.1020  -12.8920   22.1010 N   0  0  0  0  0  0  0  0  0  0  0  0
  -22.3550  -14.6600   20.7670 O   0  0  0  0  0  0  0  0  0  0  0  0
  -22.4730  -12.0480   22.5150 H   0  0  0  0  0  0  0  0  0  0  0  0
  -21.1660  -13.1860   22.3450 H   0  0  0  0  0  0  0  0  0  0  0  0
  -25.3960  -15.3230   20.3870 N   0  0  0  0  0  0  0  0  0  0  0  0
  -24.6540  -15.9810   20.5920 H   0  0  0  0  0  0  0  0  0  0  0  0
  -26.2540  -15.7760   20.1050 H   0  0  0  0  0  0  0  0  0  0  0  0
  -28.4170  -24.7360   19.6500 C   0  0  0  0  0  2  0  0  0  0  0  0
  -28.3220  -26.1440   20.3930 O   0  0  0  0  0  0  0  0  0  0  0  0
  -24.6250  -31.9350   23.2600 C   0  0  0  0  0  0  0  0  0  0  0  0
  -27.2670  -27.1560   20.2830 C   0  0  0  0  0  0  0  0  0  0  0  0
  -23.4520  -30.5120   21.6260 C   0  0  0  0  0  3  0  0  0  0  0  0
  -24.9280  -28.9300   20.2290 C   0  0  0  0  0  0  0  0  0  0  0  0
  -26.0110  -30.7790   21.4910 C   0  0  0  0  0  2  0  0  0  0  0  0
  -26.1000  -29.3760   20.8470 C   0  0  0  0  0  0  0  0  0  0  0  0
  -27.2670  -28.5060   20.8550 C   0  0  0  0  0  3  0  0  0  0  0  0
  -26.0570  -26.8330   19.6270 C   0  0  0  0  0  3  0  0  0  0  0  0
  -24.9260  -27.6800   19.5970 C   0  0  0  0  0  3  0  0  0  0  0  0
  -23.6910  -29.8180   20.2590 C   0  0  0  0  0  2  0  0  0  0  0  0
  -24.7150  -31.1010   22.1790 N   0  0  0  0  0  0  0  0  0  0  0  0
  -23.5300  -32.2190   23.7720 O   0  0  0  0  0  0  0  0  0  0  0  0
  -22.7620  -29.5170   22.5970 C   0  0  0  0  0  0  0  0  0  0  0  0
  -21.4360  -29.3370   22.4490 N   0  0  0  0  0  0  0  0  0  0  0  0
  -23.4230  -28.9140   23.4430 O   0  0  0  0  0  0  0  0  0  0  0  0
  -20.9640  -29.8720   21.7360 H   0  0  0  0  0  0  0  0  0  0  0  0
  -18.0540  -28.1180   22.9230 C   0  0  0  0  0  0  0  0  0  0  0  0
  -20.6080  -28.4060   23.2200 C   0  0  0  0  0  3  0  0  0  0  0  0
  -20.7290  -26.9670   22.6680 C   0  0  0  0  0  2  0  0  0  0  0  0
  -19.6420  -26.6230   21.6430 C   0  0  0  0  0  2  0  0  0  0  0  0
  -18.2500  -26.7630   22.2650 C   0  0  0  0  0  2  0  0  0  0  0  0
  -19.1610  -28.8960   23.3560 C   0  0  0  0  0  0  0  0  0  0  0  0
  -18.9210  -30.1620   23.9360 C   0  0  0  0  0  3  0  0  0  0  0  0
  -17.6100  -30.6500   24.0860 C   0  0  0  0  0  3  0  0  0  0  0  0
  -16.5180  -29.8720   23.6650 C   0  0  0  0  0  3  0  0  0  0  0  0
  -16.7390  -28.6090   23.0890 C   0  0  0  0  0  3  0  0  0  0  0  0
  -25.8910  -32.5840   23.8980 C   0  0  0  0  0  3  0  0  0  0  0  0
  -26.3840  -31.8360   25.1980 C   0  0  1  0  0  0  0  0  0  0  0  0
  -25.2670  -31.6090   26.2430 C   0  0  0  0  0  1  0  0  0  0  0  0
  -26.9840  -30.4530   24.8510 C   0  0  0  0  0  1  0  0  0  0  0  0
  -27.5130  -32.6490   25.8720 C   0  0  0  0  0  1  0  0  0  0  0  0
  -25.5670  -33.9880   24.2060 N   0  0  0  0  0  0  0  0  0  0  0  0
  -25.9010  -35.0380   23.4460 C   0  0  0  0  0  0  0  0  0  0  0  0
  -26.5800  -34.9290   22.4210 O   0  0  0  0  0  0  0  0  0  0  0  0
  -24.9560  -34.1450   24.9960 H   0  0  0  0  0  0  0  0  0  0  0  0
  -24.1730  -36.8310   23.0610 C   0  0  0  0  0  1  0  0  0  0  0  0
  -25.4050  -36.4310   23.8870 C   0  0  0  0  0  3  0  0  0  0  0  0
  -27.5180  -37.3350   24.7470 C   0  0  0  0  0  1  0  0  0  0  0  0
  -26.4350  -37.4850   23.7790 N   0  0  0  0  0  0  0  0  0  0  0  0
  -26.0240  -38.4040   23.9070 H   0  0  0  0  0  0  0  0  0  0  0  0
  -30.2520  -22.3490   18.6290 C   0  0  0  0  0  2  0  0  0  0  0  0
  -30.9130  -22.8330   16.2680 C   0  0  0  0  0  1  0  0  0  0  0  0
  -29.6200  -20.7490   16.7270 C   0  0  0  0  0  1  0  0  0  0  0  0
  -28.4760  -22.9640   16.8390 C   0  0  0  0  0  1  0  0  0  0  0  0
  -29.7920  -22.2220   17.1420 C   0  0  1  0  0  0  0  0  0  0  0  0
  1  3  2  0
  2  1  1  0
  2  7  1  0
  4  5  1  0
  6  7  1  0
  6  8  2  0
  7  4  2  0
  8  9  1  0
  9  5  2  0
  9 10  1  0
 11 19  1  0
 12 17  1  0
 13 14  1  0
 13 12  1  0
 15 14  1  0
 15 24  1  0
 15 16  1  0
 17 11  1  0
 17 16  1  0
 18 11  2  0
 19  8  1  0
 20 19  1  0
 21 22  2  0
 22 41  1  0
 23 22  1  0
 23 26  1  0
 24 25  1  0
 24 21  1  0
 25 23  2  0
 26 27  1  0
 27 28  2  0
 29 32  1  0
 29 28  1  0
 30 29  2  0
 31 30  1  0
 31 26  2  0
 32 33  1  0
 33 34  1  0
 34 35  2  0
 36 35  1  0
 36 40  1  0
 37 36  2  0
 38 33  2  0
 38 37  1  0
 39 38  1  0
 41 42  1  0
 42 45  1  0
 42 44  1  0
 43 41  2  0
 46 21  1  0
 46 47  1  0
 48 46  1  0
 49  1  1  0
 49 50  1  0
 51 62  2  0
 52 50  1  0
 52 57  1  0
 53 61  1  0
 53 63  1  0
 54 60  1  0
 54 56  1  0
 55 61  1  0
 56 57  2  0
 56 55  1  0
 58 52  2  0
 59 58  1  0
 59 54  2  0
 60 53  1  0
 61 51  1  0
 63 65  2  0
 64 63  1  0
 66 64  1  0
 67 76  2  0
 67 72  1  0
 68 64  1  0
 68 72  1  0
 69 68  1  0
 70 71  1  0
 70 69  1  0
 71 67  1  0
 72 73  2  0
 73 74  1  0
 75 74  2  0
 76 75  1  0
 77 51  1  0
 77 82  1  0
 77 78  1  0
 78 81  1  1
 78 79  1  0
 80 78  1  0
 82 85  1  0
 83 87  1  0
 83 82  1  0
 84 83  2  0
 87 86  1  0
 89 87  1  0
 89 90  1  0
 89 88  1  0
 91  2  1  0
 95 92  1  6
 93 95  1  0
 94 95  1  0
 95 91  1  0
M  ISO  4  11 100  19 100  49 101  50 101
M  END
>  <TORSDO>  (24) 
F 20

>  <SCORE>  (24) 
-14.459

>  <name>  (24) 
23

>  <ligand_id>  (24) 
23

>  <original_smiles>  (24) 
[H]c1c([H])c([H])c2c(c1[H])C([H])([H])C([H])([H])C([H])([H])C2([H])N([H])C(=O)C1([H])N(C(=O)C([H])(N([H])C(=O)C([H])(N([H])C([H])([H])[H])C([H])([H])[H])C(C([H])([H])[H])(C([H])([H])[H])C([H])([H])[H])C([H])([H])c2c([H])c(OC([H])([H])C(=O)N(c3c([H])c([H])c(F)c(N([H])C(=O)N4C([H])([H])C([H])([H])C([H])([H])C([H])(n5nc(-c6c([H])c([H])c(Oc7c([H])c([H])c(F)c([H])c7F)c([H])c6[H])c(C(=O)N([H])[H])c5N([H])[H])C4([H])[H])c3[H])C([H])([H])C(C([H])([H])[H])(C([H])([H])[H])C([H])([H])[H])c([H])c([H])c2C1([H])[H]

>  <smiles>  (24) 
[H]c1c([H])c([H])c2c(c1[H])C([H])([H])C([H])([H])C([H])([H])C2([H])N([H])C(=O)C1([H])N(C(=O)C([H])(N([H])C(=O)C([H])(N([H])C([H])([H])[H])C([H])([H])[H])C(C([H])([H])[H])(C([H])([H])[H])C([H])([H])[H])C([H])([H])c2c([H])c(OC([H])([H])C(=O)N(c3c([H])c([H])c(F)c(N([H])C(=O)N4C([H])([H])C([H])([H])C([H])([H])C([H])(n5nc(-c6c([H])c([H])c(Oc7c([H])c([H])c(F)c([H])c7F)c([H])c6[H])c(C(=O)N([H])[H])c5N([H])[H])C4([H])[H])c3[H])C([H])([H])C(C([H])([H])[H])(C([H])([H])[H])C([H])([H])[H])c([H])c([H])c2C1([H])[H]

$$$$
24:0:0
     RDKit          3D

 93101  0  0  1  0  0  0  0  0999 V2000
  -28.6650  -22.5280   20.2270 C   0  0  0  0  0  0  0  0  0  0  0  0
  -29.1690  -21.5040   19.4650 N   0  0  0  0  0  0  0  0  0  0  0  0
  -28.2050  -22.3210   21.3500 O   0  0  0  0  0  0  0  0  0  0  0  0
  -29.3680  -21.7640   18.5070 H   0  0  0  0  0  0  0  0  0  0  0  0
  -29.0540  -19.1010   18.8170 C   0  0  0  0  0  3  0  0  0  0  0  0
  -29.9260  -19.6060   20.9960 C   0  0  0  0  0  3  0  0  0  0  0  0
  -29.2210  -17.7030   19.0600 C   0  0  0  0  0  0  0  0  0  0  0  0
  -30.1190  -18.2110   21.2430 C   0  0  0  0  0  0  0  0  0  0  0  0
  -29.3770  -20.0900   19.7810 C   0  0  0  0  0  0  0  0  0  0  0  0
  -29.7990  -17.2190   20.2700 C   0  0  0  0  0  0  0  0  0  0  0  0
  -28.6520  -16.7440   18.0310 C   0  0  0  0  0  1  0  0  0  0  0  0
  -30.6220  -17.7850   22.6080 C   0  0  0  0  0  1  0  0  0  0  0  0
  -30.6660  -14.7670   20.3000 C   0  0  0  0  0  0  0  0  0  0  0  0
  -30.5200  -12.4910   19.3220 C   0  0  0  0  0  2  0  0  0  0  0  0
  -29.5650  -12.5740   18.1090 C   0  0  0  0  0  2  0  0  0  0  0  0
  -28.0920  -12.4220   18.5470 C   0  0  0  0  0  2  0  0  0  0  0  0
  -27.7340  -13.2960   19.7770 C   0  0  0  0  0  3  0  0  0  0  0  0
  -28.8030  -13.1660   20.8880 C   0  0  0  0  0  2  0  0  0  0  0  0
  -30.1010  -13.5190   20.2920 N   0  0  0  0  0  0  0  0  0  0  0  0
  -31.8220  -14.9490   19.9030 O   0  0  0  0  0  0  0  0  0  0  0  0
  -29.8160  -15.7970   20.6220 N   0  0  0  0  0  0  0  0  0  0  0  0
  -28.9540  -15.4700   21.0280 H   0  0  0  0  0  0  0  0  0  0  0  0
  -25.3620  -13.8990   20.5570 C   0  0  0  0  0  0  0  0  0  0  0  0
  -24.2970  -13.1230   20.9280 C   0  0  0  0  0  0  0  0  0  0  0  0
  -24.7480  -11.7700   20.8540 C   0  0  0  0  0  0  0  0  0  0  0  0
  -26.3940  -13.0150   20.2810 N   0  0  0  0  0  0  0  0  0  0  0  0
  -26.0320  -11.7280   20.5210 N   0  0  0  0  0  0  0  0  0  0  0  0
  -24.0160  -10.5080   21.0310 C   0  0  0  0  0  0  0  0  0  0  0  0
  -24.4240   -9.5400   21.9730 C   0  0  0  0  0  3  0  0  0  0  0  0
  -23.6930   -8.3430   22.1340 C   0  0  0  0  0  3  0  0  0  0  0  0
  -22.5390   -8.1070   21.3510 C   0  0  0  0  0  0  0  0  0  0  0  0
  -22.1500   -9.0620   20.3950 C   0  0  0  0  0  3  0  0  0  0  0  0
  -22.8840  -10.2500   20.2330 C   0  0  0  0  0  3  0  0  0  0  0  0
  -21.7850   -6.9610   21.4180 O   0  0  0  0  0  0  0  0  0  0  0  0
  -21.6550   -6.2520   22.5850 C   0  0  0  0  0  0  0  0  0  0  0  0
  -21.1180   -6.8330   23.7550 C   0  0  0  0  0  3  0  0  0  0  0  0
  -20.9350   -6.0470   24.9110 C   0  0  0  0  0  3  0  0  0  0  0  0
  -21.2820   -4.6840   24.9000 C   0  0  0  0  0  0  0  0  0  0  0  0
  -21.8160   -4.1040   23.7350 C   0  0  0  0  0  3  0  0  0  0  0  0
  -22.0000   -4.8850   22.5810 C   0  0  0  0  0  0  0  0  0  0  0  0
  -22.4900   -4.3150   21.4560 F   0  0  0  0  0  0  0  0  0  0  0  0
  -21.1020   -3.9290   26.0090 F   0  0  0  0  0  0  0  0  0  0  0  0
  -22.9070  -13.6040   21.2360 C   0  0  0  0  0  0  0  0  0  0  0  0
  -22.1920  -12.8990   22.1050 N   0  0  0  0  0  0  0  0  0  0  0  0
  -22.4660  -14.6440   20.7470 O   0  0  0  0  0  0  0  0  0  0  0  0
  -22.5570  -12.0580   22.5270 H   0  0  0  0  0  0  0  0  0  0  0  0
  -21.2600  -13.2070   22.3490 H   0  0  0  0  0  0  0  0  0  0  0  0
  -25.5330  -15.2720   20.4120 N   0  0  0  0  0  0  0  0  0  0  0  0
  -24.7730  -15.9270   20.5570 H   0  0  0  0  0  0  0  0  0  0  0  0
  -26.3770  -15.7180   20.0840 H   0  0  0  0  0  0  0  0  0  0  0  0
  -28.6360  -23.9980   19.6440 C   0  0  0  0  0  3  0  0  0  0  0  0
  -28.2200  -25.1710   20.6340 C   0  0  0  0  0  3  0  0  0  0  0  0
  -28.4160  -26.5800   20.2220 O   0  0  0  0  0  0  0  0  0  0  0  0
  -24.6460  -31.9680   23.2010 C   0  0  0  0  0  0  0  0  0  0  0  0
  -27.2930  -27.4100   20.2010 C   0  0  0  0  0  0  0  0  0  0  0  0
  -23.4570  -30.5390   21.5740 C   0  0  0  0  0  3  0  0  0  0  0  0
  -24.9220  -28.9890   20.1660 C   0  0  0  0  0  0  0  0  0  0  0  0
  -25.9920  -30.8860   21.3870 C   0  0  0  0  0  2  0  0  0  0  0  0
  -26.0860  -29.5000   20.7580 C   0  0  0  0  0  0  0  0  0  0  0  0
  -27.2790  -28.7200   20.7640 C   0  0  0  0  0  3  0  0  0  0  0  0
  -26.1120  -26.9440   19.5880 C   0  0  0  0  0  3  0  0  0  0  0  0
  -24.9360  -27.7180   19.5730 C   0  0  0  0  0  3  0  0  0  0  0  0
  -23.6790  -29.8540   20.2010 C   0  0  0  0  0  2  0  0  0  0  0  0
  -24.7180  -31.1470   22.1120 N   0  0  0  0  0  0  0  0  0  0  0  0
  -23.5590  -32.2420   23.7300 O   0  0  0  0  0  0  0  0  0  0  0  0
  -22.8050  -29.5270   22.5430 C   0  0  0  0  0  0  0  0  0  0  0  0
  -21.4830  -29.3310   22.4080 N   0  0  0  0  0  0  0  0  0  0  0  0
  -23.4870  -28.9220   23.3750 O   0  0  0  0  0  0  0  0  0  0  0  0
  -20.9940  -29.8680   21.7060 H   0  0  0  0  0  0  0  0  0  0  0  0
  -18.1140  -28.1070   22.8970 C   0  0  0  0  0  0  0  0  0  0  0  0
  -20.6690  -28.3970   23.1860 C   0  0  0  0  0  3  0  0  0  0  0  0
  -20.7920  -26.9590   22.6320 C   0  0  0  0  0  2  0  0  0  0  0  0
  -19.7010  -26.6080   21.6140 C   0  0  0  0  0  2  0  0  0  0  0  0
  -18.3110  -26.7510   22.2420 C   0  0  0  0  0  2  0  0  0  0  0  0
  -19.2230  -28.8870   23.3260 C   0  0  0  0  0  0  0  0  0  0  0  0
  -18.9850  -30.1560   23.8980 C   0  0  0  0  0  3  0  0  0  0  0  0
  -17.6730  -30.6450   24.0460 C   0  0  0  0  0  3  0  0  0  0  0  0
  -16.5800  -29.8620   23.6360 C   0  0  0  0  0  3  0  0  0  0  0  0
  -16.8020  -28.5950   23.0670 C   0  0  0  0  0  3  0  0  0  0  0  0
  -25.9230  -32.6190   23.8180 C   0  0  0  0  0  3  0  0  0  0  0  0
  -26.4570  -31.8500   25.0890 C   0  0  1  0  0  0  0  0  0  0  0  0
  -25.3690  -31.5840   26.1570 C   0  0  0  0  0  1  0  0  0  0  0  0
  -27.0640  -30.4870   24.6860 C   0  0  0  0  0  1  0  0  0  0  0  0
  -27.5930  -32.6630   25.7520 C   0  0  0  0  0  1  0  0  0  0  0  0
  -25.5940  -34.0090   24.1560 N   0  0  0  0  0  0  0  0  0  0  0  0
  -25.9020  -35.0690   23.3960 C   0  0  0  0  0  0  0  0  0  0  0  0
  -26.5640  -34.9800   22.3600 O   0  0  0  0  0  0  0  0  0  0  0  0
  -25.0090  -34.1530   24.9660 H   0  0  0  0  0  0  0  0  0  0  0  0
  -24.1420  -36.8350   23.0590 C   0  0  0  0  0  1  0  0  0  0  0  0
  -25.3950  -36.4490   23.8620 C   0  0  0  0  0  3  0  0  0  0  0  0
  -27.5190  -37.3650   24.6850 C   0  0  0  0  0  1  0  0  0  0  0  0
  -26.4100  -37.5180   23.7470 N   0  0  0  0  0  0  0  0  0  0  0  0
  -25.9890  -38.4300   23.9010 H   0  0  0  0  0  0  0  0  0  0  0  0
  1  3  2  0
  2  9  1  0
  2  1  1  0
  4  2  1  0
  5  7  2  0
  5  9  1  0
  6  8  1  0
  7 10  1  0
  8 12  1  0
  9  6  2  0
 10 21  1  0
 10  8  2  0
 11  7  1  0
 13 21  1  0
 14 19  1  0
 15 16  1  0
 15 14  1  0
 17 16  1  0
 17 26  1  0
 17 18  1  0
 19 13  1  0
 19 18  1  0
 20 13  2  0
 21 22  1  0
 23 24  2  0
 24 43  1  0
 25 24  1  0
 25 28  1  0
 26 27  1  0
 26 23  1  0
 27 25  2  0
 28 29  1  0
 29 30  2  0
 31 34  1  0
 31 30  1  0
 32 31  2  0
 33 32  1  0
 33 28  2  0
 34 35  1  0
 35 36  1  0
 36 37  2  0
 38 37  1  0
 38 42  1  0
 39 38  2  0
 40 35  2  0
 40 39  1  0
 41 40  1  0
 43 44  1  0
 44 47  1  0
 44 46  1  0
 45 43  2  0
 48 49  1  0
 48 23  1  0
 50 48  1  0
 51  1  1  0
 51 52  2  0
 53 52  1  0
 54 65  2  0
 55 53  1  0
 55 60  1  0
 56 64  1  0
 56 66  1  0
 57 63  1  0
 57 59  1  0
 58 64  1  0
 59 60  2  0
 59 58  1  0
 61 55  2  0
 62 61  1  0
 62 57  2  0
 63 56  1  0
 64 54  1  0
 66 68  2  0
 67 66  1  0
 69 67  1  0
 70 79  2  0
 70 75  1  0
 71 67  1  0
 71 75  1  0
 72 71  1  0
 73 74  1  0
 73 72  1  0
 74 70  1  0
 75 76  2  0
 76 77  1  0
 78 77  2  0
 79 78  1  0
 80 54  1  0
 80 85  1  0
 80 81  1  0
 81 84  1  1
 81 82  1  0
 83 81  1  0
 85 88  1  0
 86 90  1  0
 86 85  1  0
 87 86  2  0
 90 89  1  0
 92 90  1  0
 92 93  1  0
 92 91  1  0
M  ISO  4  13 100  21 100  52 101  53 101
M  END
>  <TORSDO>  (25) 
F 19

>  <SCORE>  (25) 
-13.426

>  <name>  (25) 
24

>  <ligand_id>  (25) 
24

>  <original_smiles>  (25) 
[H]c1c([H])c([H])c2c(c1[H])C([H])([H])C([H])([H])C([H])([H])C2([H])N([H])C(=O)C1([H])N(C(=O)C([H])(N([H])C(=O)C([H])(N([H])C([H])([H])[H])C([H])([H])[H])C(C([H])([H])[H])(C([H])([H])[H])C([H])([H])[H])C([H])([H])c2c([H])c(OC([H])([H])C([H])([H])C(=O)N([H])c3c([H])c(C([H])([H])[H])c(N([H])C(=O)N4C([H])([H])C([H])([H])C([H])([H])C([H])(n5nc(-c6c([H])c([H])c(Oc7c([H])c([H])c(F)c([H])c7F)c([H])c6[H])c(C(=O)N([H])[H])c5N([H])[H])C4([H])[H])c(C([H])([H])[H])c3[H])c([H])c([H])c2C1([H])[H]

>  <smiles>  (25) 
[H]c1c([H])c([H])c2c(c1[H])C([H])([H])C([H])([H])C([H])([H])C2([H])N([H])C(=O)C1([H])N(C(=O)C([H])(N([H])C(=O)C([H])(N([H])C([H])([H])[H])C([H])([H])[H])C(C([H])([H])[H])(C([H])([H])[H])C([H])([H])[H])C([H])([H])c2c([H])c(OC([H])([H])C([H])([H])C(=O)N([H])c3c([H])c(C([H])([H])[H])c(N([H])C(=O)N4C([H])([H])C([H])([H])C([H])([H])C([H])(n5nc(-c6c([H])c([H])c(Oc7c([H])c([H])c(F)c([H])c7F)c([H])c6[H])c(C(=O)N([H])[H])c5N([H])[H])C4([H])[H])c(C([H])([H])[H])c3[H])c([H])c([H])c2C1([H])[H]

$$$$
26:0:0
     RDKit          3D

 94100  0  0  1  0  0  0  0  0999 V2000
  -24.8240  -16.1430   19.9920 C   0  0  0  0  0  3  0  0  0  0  0  0
  -25.6500  -13.8680   22.2350 C   0  0  0  0  0  3  0  0  0  0  0  0
  -26.5790  -16.2490   19.3100 C   0  0  0  0  0  0  0  0  0  0  0  0
  -27.8590  -14.9280   19.9780 C   0  0  0  0  0  0  0  0  0  0  0  0
  -27.3920  -13.7880   21.4820 C   0  0  0  0  0  0  0  0  0  0  0  0
  -24.3740  -15.0890   21.5080 C   0  0  0  0  0  0  0  0  0  0  0  0
  -23.2070  -15.3140   22.1720 F   0  0  0  0  0  0  0  0  0  0  0  0
  -30.3320  -13.9980   19.1700 C   0  0  0  0  0  0  0  0  0  0  0  0
  -30.4380  -11.7270   18.0750 C   0  0  0  0  0  2  0  0  0  0  0  0
  -29.2940  -11.6640   17.0160 C   0  0  0  0  0  2  0  0  0  0  0  0
  -27.8620  -11.5090   17.6320 C   0  0  0  0  0  2  0  0  0  0  0  0
  -27.7310  -12.5120   18.7950 C   0  0  0  0  0  3  0  0  0  0  0  0
  -28.8800  -12.1330   19.7560 C   0  0  0  0  0  2  0  0  0  0  0  0
  -30.0310  -12.6710   19.1270 N   0  0  0  0  0  0  0  0  0  0  0  0
  -31.4370  -14.3330   18.6920 O   0  0  0  0  0  0  0  0  0  0  0  0
  -29.3340  -14.9370   19.5660 N   0  0  0  0  0  0  0  0  0  0  0  0
  -29.6960  -15.8720   19.4600 H   0  0  0  0  0  0  0  0  0  0  0  0
  -25.7500  -13.8440   20.1450 C   0  0  0  0  0  2  0  0  0  0  0  0
  -24.6010  -12.8080   20.3230 C   0  0  0  0  0  3  0  0  0  0  0  0
  -24.9400  -11.3740   20.3130 C   0  0  0  0  0  3  0  0  0  0  0  0
  -26.4730  -12.6560   19.5170 N   0  0  0  0  0  0  0  0  0  0  0  0
  -26.1130  -11.3500   19.8180 N   0  0  0  0  0  2  0  0  0  0  0  0
  -24.2220  -10.0230   20.6390 C   0  0  0  0  0  0  0  0  0  0  0  0
  -24.6580   -9.0950   21.6410 C   0  0  0  0  0  3  0  0  0  0  0  0
  -23.9580   -7.8850   21.9470 C   0  0  0  0  0  3  0  0  0  0  0  0
  -22.7690   -7.5380   21.2590 C   0  0  0  0  0  0  0  0  0  0  0  0
  -22.3400   -8.4190   20.2460 C   0  0  0  0  0  3  0  0  0  0  0  0
  -23.0470   -9.6150   19.9430 C   0  0  0  0  0  3  0  0  0  0  0  0
  -22.0340   -6.3760   21.4510 O   0  0  0  0  0  0  0  0  0  0  0  0
  -21.9160   -5.7410   22.6700 C   0  0  0  0  0  0  0  0  0  0  0  0
  -21.3890   -6.3960   23.8050 C   0  0  0  0  0  3  0  0  0  0  0  0
  -21.2260   -5.6970   25.0200 C   0  0  0  0  0  3  0  0  0  0  0  0
  -21.5800   -4.3360   25.1080 C   0  0  0  0  0  0  0  0  0  0  0  0
  -22.0860   -3.6730   23.9780 C   0  0  0  0  0  3  0  0  0  0  0  0
  -22.2440   -4.3680   22.7650 C   0  0  0  0  0  0  0  0  0  0  0  0
  -22.7080   -3.7030   21.6760 F   0  0  0  0  0  0  0  0  0  0  0  0
  -21.4310   -3.6670   26.2760 F   0  0  0  0  0  0  0  0  0  0  0  0
  -23.1150  -12.9670   20.6910 C   0  0  0  0  0  0  0  0  0  0  0  0
  -22.6160  -12.3550   21.7760 N   0  0  0  0  0  0  0  0  0  0  0  0
  -22.4180  -13.7670   20.0790 O   0  0  0  0  0  0  0  0  0  0  0  0
  -23.1740  -11.7460   22.3580 H   0  0  0  0  0  0  0  0  0  0  0  0
  -21.6550  -12.5170   22.0340 H   0  0  0  0  0  0  0  0  0  0  0  0
  -26.4810  -15.9590   21.4350 N   0  0  0  0  0  2  0  0  0  0  0  0
  -25.8040  -16.6260   21.7890 H   0  0  0  0  0  0  0  0  0  0  0  0
  -27.3800  -16.4010   21.2850 H   0  0  0  0  0  0  0  0  0  0  0  0
  -26.7450  -19.4050   19.2290 C   0  0  0  0  0  0  0  0  0  0  0  0
  -27.1560  -17.8920   19.2710 N   0  0  0  0  0  0  0  0  0  0  0  0
  -25.5590  -19.5530   18.9270 O   0  0  0  0  0  0  0  0  0  0  0  0
  -28.1530  -17.8770   19.4400 H   0  0  0  0  0  0  0  0  0  0  0  0
  -27.5640  -21.0940   19.4660 C   0  0  0  0  0  1  0  0  0  0  0  0
  -27.1370  -23.0230   19.5340 C   0  0  0  0  0  1  0  0  0  0  0  0
  -27.8030  -24.6820   19.6990 O   0  0  0  0  0  0  0  0  0  0  0  0
  -24.8650  -31.0990   23.0130 C   0  0  0  0  0  0  0  0  0  0  0  0
  -27.1040  -26.0650   19.7350 C   0  0  0  0  0  0  0  0  0  0  0  0
  -23.6770  -29.8240   21.3000 C   0  0  0  0  0  3  0  0  0  0  0  0
  -25.0690  -28.2710   19.7680 C   0  0  0  0  0  0  0  0  0  0  0  0
  -26.2610  -29.8820   21.2190 C   0  0  0  0  0  2  0  0  0  0  0  0
  -26.2620  -28.4940   20.4640 C   0  0  0  0  0  0  0  0  0  0  0  0
  -27.2910  -27.4090   20.4210 C   0  0  0  0  0  3  0  0  0  0  0  0
  -25.9410  -26.1060   18.9580 C   0  0  0  0  0  3  0  0  0  0  0  0
  -24.9620  -27.1200   18.9850 C   0  0  0  0  0  3  0  0  0  0  0  0
  -23.9050  -29.2560   19.8760 C   0  0  0  0  0  2  0  0  0  0  0  0
  -24.9620  -30.3050   21.8940 N   0  0  0  0  0  0  0  0  0  0  0  0
  -23.7670  -31.3840   23.5260 O   0  0  0  0  0  0  0  0  0  0  0  0
  -22.9560  -28.7770   22.1930 C   0  0  0  0  0  0  0  0  0  0  0  0
  -21.6260  -28.6250   22.0360 N   0  0  0  0  0  0  0  0  0  0  0  0
  -23.6010  -28.1080   23.0030 O   0  0  0  0  0  0  0  0  0  0  0  0
  -21.1560  -29.2170   21.3660 H   0  0  0  0  0  0  0  0  0  0  0  0
  -18.2290  -27.4210   22.4670 C   0  0  0  0  0  0  0  0  0  0  0  0
  -20.7900  -27.6490   22.7440 C   0  0  0  0  0  3  0  0  0  0  0  0
  -20.8770  -26.2550   22.0790 C   0  0  0  0  0  2  0  0  0  0  0  0
  -19.7710  -26.0090   21.0460 C   0  0  0  0  0  2  0  0  0  0  0  0
  -18.3920  -26.1210   21.6990 C   0  0  0  0  0  2  0  0  0  0  0  0
  -19.3530  -28.1470   22.9440 C   0  0  0  0  0  0  0  0  0  0  0  0
  -19.1380  -29.3640   23.6270 C   0  0  0  0  0  3  0  0  0  0  0  0
  -17.8340  -29.8550   23.8340 C   0  0  0  0  0  3  0  0  0  0  0  0
  -16.7270  -29.1280   23.3660 C   0  0  0  0  0  3  0  0  0  0  0  0
  -16.9240  -27.9120   22.6900 C   0  0  0  0  0  3  0  0  0  0  0  0
  -26.1240  -31.7060   23.7000 C   0  0  0  0  0  3  0  0  0  0  0  0
  -26.5910  -30.8840   24.9670 C   0  0  1  0  0  0  0  0  0  0  0  0
  -25.4650  -30.6330   25.9980 C   0  0  0  0  0  1  0  0  0  0  0  0
  -27.1590  -29.5080   24.5590 C   0  0  0  0  0  1  0  0  0  0  0  0
  -27.7380  -31.6360   25.6810 C   0  0  0  0  0  1  0  0  0  0  0  0
  -25.8010  -33.0910   24.0990 N   0  0  0  0  0  0  0  0  0  0  0  0
  -26.1510  -34.1940   23.4250 C   0  0  0  0  0  0  0  0  0  0  0  0
  -26.8390  -34.1530   22.4010 O   0  0  0  0  0  0  0  0  0  0  0  0
  -25.1860  -33.1920   24.8930 H   0  0  0  0  0  0  0  0  0  0  0  0
  -24.4510  -36.0400   23.1610 C   0  0  0  0  0  1  0  0  0  0  0  0
  -25.6680  -35.5570   23.9660 C   0  0  0  0  0  3  0  0  0  0  0  0
  -27.7910  -36.3700   24.9020 C   0  0  0  0  0  1  0  0  0  0  0  0
  -26.7120  -36.6070   23.9470 N   0  0  0  0  0  0  0  0  0  0  0  0
  -26.3080  -37.5180   24.1450 H   0  0  0  0  0  0  0  0  0  0  0  0
  -29.5190  -13.8390   22.5180 C   0  0  0  0  0  1  0  0  0  0  0  0
  -28.3120  -13.1300   22.2660 O   0  0  0  0  0  0  0  0  0  0  0  0
  1  6  1  0
  3  4  1  0
  3  1  2  0
  4  5  2  0
  5  2  1  0
  5 94  1  0
  6  7  1  0
  6  2  2  0
  8 16  1  0
  9 14  1  0
 10 11  1  0
 10  9  1  0
 12 11  1  0
 12 21  1  0
 12 13  1  0
 14  8  1  0
 14 13  1  0
 15  8  2  0
 16  4  1  0
 17 16  1  0
 18 19  1  0
 19 38  1  0
 20 19  1  0
 20 23  1  0
 21 22  1  0
 21 18  1  0
 22 20  1  0
 23 24  1  0
 24 25  2  0
 26 29  1  0
 26 25  1  0
 27 26  2  0
 28 27  1  0
 28 23  2  0
 29 30  1  0
 30 35  2  0
 30 31  1  0
 31 32  2  0
 32 33  1  0
 33 37  1  0
 34 33  2  0
 35 34  1  0
 36 35  1  0
 38 39  1  0
 39 42  1  0
 39 41  1  0
 40 38  2  0
 43 44  1  0
 45 43  1  0
 46 47  1  0
 46 50  1  0
 47  3  1  0
 47 49  1  0
 48 46  2  0
 51 52  1  0
 52 54  1  0
 53 64  2  0
 54 59  1  0
 55 63  1  0
 55 65  1  0
 56 62  1  0
 56 58  1  0
 57 63  1  0
 58 57  1  0
 59 58  2  0
 60 61  1  0
 60 54  2  0
 61 56  2  0
 62 55  1  0
 63 53  1  0
 65 67  2  0
 66 65  1  0
 68 66  1  0
 69 78  2  0
 69 74  1  0
 70 66  1  0
 70 74  1  0
 71 70  1  0
 72 73  1  0
 72 71  1  0
 73 69  1  0
 74 75  2  0
 75 76  1  0
 77 76  2  0
 78 77  1  0
 79 53  1  0
 79 84  1  0
 79 80  1  0
 80 83  1  1
 80 81  1  0
 82 80  1  0
 84 87  1  0
 85 89  1  0
 85 84  1  0
 86 85  2  0
 89 88  1  0
 91 89  1  0
 91 92  1  0
 91 90  1  0
 94 93  1  0
M  ISO  4   8 100  16 100  51 101  52 101
M  END
>  <TORSDO>  (26) 
F 20

>  <SCORE>  (26) 
-3.094

>  <name>  (26) 
26

>  <ligand_id>  (26) 
26

>  <original_smiles>  (26) 
[H]c1c([H])c([H])c2c(c1[H])C([H])([H])C([H])([H])C([H])([H])C2([H])N([H])C(=O)C1([H])N(C(=O)C([H])(N([H])C(=O)C([H])(N([H])C([H])([H])[H])C([H])([H])[H])C(C([H])([H])[H])(C([H])([H])[H])C([H])([H])[H])C([H])([H])c2c([H])c(OC([H])([H])C([H])([H])C(=O)N([H])c3c([H])c(F)c([H])c(OC([H])([H])[H])c3N([H])C(=O)N3C([H])([H])C([H])([H])C([H])([H])C([H])(n4nc(-c5c([H])c([H])c(Oc6c([H])c([H])c(F)c([H])c6F)c([H])c5[H])c(C(=O)N([H])[H])c4N([H])[H])C3([H])[H])c([H])c([H])c2C1([H])[H]

>  <smiles>  (26) 
[H]c1c([H])c([H])c2c(c1[H])C([H])([H])C([H])([H])C([H])([H])C2([H])N([H])C(=O)C1([H])N(C(=O)C([H])(N([H])C(=O)C([H])(N([H])C([H])([H])[H])C([H])([H])[H])C(C([H])([H])[H])(C([H])([H])[H])C([H])([H])[H])C([H])([H])c2c([H])c(OC([H])([H])C([H])([H])C(=O)N([H])c3c([H])c(F)c([H])c(OC([H])([H])[H])c3N([H])C(=O)N3C([H])([H])C([H])([H])C([H])([H])C([H])(n4nc(-c5c([H])c([H])c(Oc6c([H])c([H])c(F)c([H])c6F)c([H])c5[H])c(C(=O)N([H])[H])c4N([H])[H])C3([H])[H])c([H])c([H])c2C1([H])[H]

$$$$
27:0:0
     RDKit          3D

 92100  0  0  1  0  0  0  0  0999 V2000
  -30.5550  -19.8470   19.4090 C   0  0  0  0  0  3  0  0  0  0  0  0
  -30.7100  -18.4150   19.6150 C   0  0  0  0  0  3  0  0  0  0  0  0
  -28.3210  -19.7570   20.1280 C   0  0  0  0  0  3  0  0  0  0  0  0
  -29.3570  -20.6260   19.6390 C   0  0  0  0  0  0  0  0  0  0  0  0
  -29.6610  -17.5530   20.0650 C   0  0  0  0  0  0  0  0  0  0  0  0
  -28.4510  -18.3040   20.3080 C   0  0  0  0  0  0  0  0  0  0  0  0
  -30.4840  -14.9130   19.8720 C   0  0  0  0  0  0  0  0  0  0  0  0
  -30.3460  -12.5640   18.9290 C   0  0  0  0  0  2  0  0  0  0  0  0
  -29.3300  -12.5440   17.7620 C   0  0  0  0  0  2  0  0  0  0  0  0
  -27.8940  -12.3260   18.2780 C   0  0  0  0  0  2  0  0  0  0  0  0
  -27.5660  -13.2250   19.5000 C   0  0  0  0  0  3  0  0  0  0  0  0
  -28.6950  -13.2060   20.5550 C   0  0  0  0  0  2  0  0  0  0  0  0
  -29.9290  -13.6330   19.8810 N   0  0  0  0  0  0  0  0  0  0  0  0
  -31.6370  -15.0350   19.4470 O   0  0  0  0  0  0  0  0  0  0  0  0
  -29.6720  -16.0240   20.2130 N   0  0  0  0  0  0  0  0  0  0  0  0
  -28.8240  -15.7030   20.6540 H   0  0  0  0  0  0  0  0  0  0  0  0
  -25.2470  -13.7830   20.4300 C   0  0  0  0  0  0  0  0  0  0  0  0
  -24.2050  -13.0000   20.8460 C   0  0  0  0  0  0  0  0  0  0  0  0
  -24.6550  -11.6490   20.7260 C   0  0  0  0  0  0  0  0  0  0  0  0
  -26.2630  -12.9120   20.0780 N   0  0  0  0  0  0  0  0  0  0  0  0
  -25.9200  -11.6200   20.3200 N   0  0  0  0  0  0  0  0  0  0  0  0
  -23.9330  -10.3840   20.9160 C   0  0  0  0  0  0  0  0  0  0  0  0
  -24.3510   -9.4310   21.8720 C   0  0  0  0  0  3  0  0  0  0  0  0
  -23.6290   -8.2300   22.0500 C   0  0  0  0  0  3  0  0  0  0  0  0
  -22.4750   -7.9750   21.2730 C   0  0  0  0  0  0  0  0  0  0  0  0
  -22.0760   -8.9150   20.3070 C   0  0  0  0  0  3  0  0  0  0  0  0
  -22.7990  -10.1060   20.1270 C   0  0  0  0  0  3  0  0  0  0  0  0
  -21.7260   -6.8260   21.3610 O   0  0  0  0  0  0  0  0  0  0  0  0
  -21.5790   -6.1500   22.5460 C   0  0  0  0  0  0  0  0  0  0  0  0
  -21.0190   -6.7620   23.6890 C   0  0  0  0  0  3  0  0  0  0  0  0
  -20.8250   -6.0110   24.8650 C   0  0  0  0  0  3  0  0  0  0  0  0
  -21.1780   -4.6480   24.8980 C   0  0  0  0  0  0  0  0  0  0  0  0
  -21.7270   -4.0350   23.7590 C   0  0  0  0  0  3  0  0  0  0  0  0
  -21.9260   -4.7850   22.5860 C   0  0  0  0  0  0  0  0  0  0  0  0
  -22.4380   -4.1830   21.4850 F   0  0  0  0  0  0  0  0  0  0  0  0
  -20.9820   -3.9250   26.0250 F   0  0  0  0  0  0  0  0  0  0  0  0
  -22.8350  -13.4710   21.2380 C   0  0  0  0  0  0  0  0  0  0  0  0
  -22.1780  -12.7610   22.1480 N   0  0  0  0  0  0  0  0  0  0  0  0
  -22.3610  -14.5050   20.7720 O   0  0  0  0  0  0  0  0  0  0  0  0
  -22.5750  -11.9220   22.5440 H   0  0  0  0  0  0  0  0  0  0  0  0
  -21.2600  -13.0580   22.4510 H   0  0  0  0  0  0  0  0  0  0  0  0
  -25.4050  -15.1600   20.2940 N   0  0  0  0  0  0  0  0  0  0  0  0
  -24.6490  -15.8080   20.4800 H   0  0  0  0  0  0  0  0  0  0  0  0
  -26.2180  -15.6030   19.8870 H   0  0  0  0  0  0  0  0  0  0  0  0
  -28.6350  -23.2590   19.8960 C   0  0  0  0  0  0  0  0  0  0  0  0
  -30.0340  -22.4810   18.0740 C   0  0  0  0  0  1  0  0  0  0  0  0
  -29.2300  -22.1270   19.2530 N   0  0  0  0  0  0  0  0  0  0  0  0
  -28.4790  -23.2180   21.1210 O   0  0  0  0  0  0  0  0  0  0  0  0
  -28.0290  -24.6160   19.1330 C   0  0  0  0  0  2  0  0  0  0  0  0
  -28.3000  -26.1060   19.5060 O   0  0  0  0  0  0  0  0  0  0  0  0
  -24.6420  -31.5540   22.8490 C   0  0  0  0  0  0  0  0  0  0  0  0
  -27.2380  -27.0910   19.4810 C   0  0  0  0  0  0  0  0  0  0  0  0
  -23.4300  -30.2410   21.1530 C   0  0  0  0  0  3  0  0  0  0  0  0
  -24.8760  -28.7920   19.5990 C   0  0  0  0  0  0  0  0  0  0  0  0
  -25.9750  -30.5680   20.9510 C   0  0  0  0  0  2  0  0  0  0  0  0
  -26.0610  -29.2210   20.2120 C   0  0  0  0  0  0  0  0  0  0  0  0
  -27.2380  -28.3850   20.1440 C   0  0  0  0  0  3  0  0  0  0  0  0
  -26.0300  -26.7830   18.8130 C   0  0  0  0  0  3  0  0  0  0  0  0
  -24.8730  -27.5870   18.8840 C   0  0  0  0  0  3  0  0  0  0  0  0
  -23.6330  -29.6570   19.7290 C   0  0  0  0  0  2  0  0  0  0  0  0
  -24.7030  -30.8060   21.7060 N   0  0  0  0  0  0  0  0  0  0  0  0
  -23.5640  -31.7830   23.4180 O   0  0  0  0  0  0  0  0  0  0  0  0
  -22.7920  -29.1600   22.0630 C   0  0  0  0  0  0  0  0  0  0  0  0
  -21.4560  -29.0110   21.9970 N   0  0  0  0  0  0  0  0  0  0  0  0
  -23.5000  -28.4610   22.7930 O   0  0  0  0  0  0  0  0  0  0  0  0
  -20.9400  -29.6260   21.3820 H   0  0  0  0  0  0  0  0  0  0  0  0
  -18.0880  -27.8370   22.6290 C   0  0  0  0  0  0  0  0  0  0  0  0
  -20.6660  -28.0220   22.7350 C   0  0  0  0  0  3  0  0  0  0  0  0
  -20.6890  -26.6480   22.0250 C   0  0  0  0  0  2  0  0  0  0  0  0
  -19.5110  -26.4450   21.0670 C   0  0  0  0  0  2  0  0  0  0  0  0
  -18.1820  -26.5550   21.8190 C   0  0  0  0  0  2  0  0  0  0  0  0
  -19.2540  -28.5320   23.0470 C   0  0  0  0  0  0  0  0  0  0  0  0
  -19.1090  -29.7360   23.7710 C   0  0  0  0  0  3  0  0  0  0  0  0
  -17.8310  -30.2410   24.0790 C   0  0  0  0  0  3  0  0  0  0  0  0
  -16.6810  -29.5400   23.6750 C   0  0  0  0  0  3  0  0  0  0  0  0
  -16.8120  -28.3400   22.9570 C   0  0  0  0  0  3  0  0  0  0  0  0
  -25.9220  -32.1740   23.4850 C   0  0  0  0  0  3  0  0  0  0  0  0
  -26.5120  -31.3040   24.6630 C   0  0  1  0  0  0  0  0  0  0  0  0
  -25.4730  -30.9420   25.7490 C   0  0  0  0  0  1  0  0  0  0  0  0
  -27.1070  -29.9810   24.1270 C   0  0  0  0  0  1  0  0  0  0  0  0
  -27.6770  -32.0640   25.3410 C   0  0  0  0  0  1  0  0  0  0  0  0
  -25.5780  -33.5230   23.9650 N   0  0  0  0  0  0  0  0  0  0  0  0
  -25.8790  -34.6610   23.3240 C   0  0  0  0  0  0  0  0  0  0  0  0
  -26.5440  -34.6850   22.2860 O   0  0  0  0  0  0  0  0  0  0  0  0
  -24.9840  -33.5730   24.7790 H   0  0  0  0  0  0  0  0  0  0  0  0
  -24.1100  -36.4420   23.1720 C   0  0  0  0  0  1  0  0  0  0  0  0
  -25.3630  -35.9800   23.9330 C   0  0  0  0  0  3  0  0  0  0  0  0
  -27.4750  -36.8220   24.8600 C   0  0  0  0  0  1  0  0  0  0  0  0
  -26.3710  -37.0630   23.9340 N   0  0  0  0  0  0  0  0  0  0  0  0
  -25.9450  -37.9530   24.1760 H   0  0  0  0  0  0  0  0  0  0  0  0
  -26.0750  -17.9390   20.4040 C   0  0  0  0  0  1  0  0  0  0  0  0
  -27.3940  -17.5140   20.7110 O   0  0  0  0  0  0  0  0  0  0  0  0
  1  2  2  0
  1  4  1  0
  2  5  1  0
  3  6  1  0
  4  3  2  0
  5 15  1  0
  5  6  2  0
  6 92  1  0
  7 13  1  0
  7 15  1  0
  8 13  1  0
  9 10  1  0
  9  8  1  0
 11 10  1  0
 11 20  1  0
 11 12  1  0
 13 12  1  0
 14  7  2  0
 15 16  1  0
 17 18  2  0
 18 37  1  0
 19 18  1  0
 19 22  1  0
 20 21  1  0
 20 17  1  0
 21 19  2  0
 22 23  1  0
 23 24  2  0
 25 28  1  0
 25 24  1  0
 26 25  2  0
 27 26  1  0
 27 22  2  0
 28 29  1  0
 29 34  2  0
 29 30  1  0
 30 31  2  0
 31 32  1  0
 32 36  1  0
 33 32  2  0
 34 33  1  0
 35 34  1  0
 37 38  1  0
 38 41  1  0
 38 40  1  0
 39 37  2  0
 42 17  1  0
 42 43  1  0
 44 42  1  0
 45 48  2  0
 46 47  1  0
 47  4  1  0
 47 45  1  0
 49 50  1  0
 49 45  1  0
 51 62  2  0
 52 50  1  0
 52 57  1  0
 53 61  1  0
 53 63  1  0
 54 60  1  0
 54 56  1  0
 55 61  1  0
 56 55  1  0
 57 56  2  0
 58 59  1  0
 58 52  2  0
 59 54  2  0
 60 53  1  0
 61 51  1  0
 63 65  2  0
 64 63  1  0
 66 64  1  0
 67 76  2  0
 67 72  1  0
 68 64  1  0
 68 72  1  0
 69 68  1  0
 70 71  1  0
 70 69  1  0
 71 67  1  0
 72 73  2  0
 73 74  1  0
 75 74  2  0
 76 75  1  0
 77 51  1  0
 77 82  1  0
 77 78  1  0
 78 81  1  1
 78 79  1  0
 80 78  1  0
 82 85  1  0
 83 87  1  0
 83 82  1  0
 84 83  2  0
 87 86  1  0
 87 89  1  0
 89 90  1  0
 89 88  1  0
 91 92  1  0
M  ISO  4   7 100  15 100  49 101  50 101
M  END
>  <TORSDO>  (27) 
F 19

>  <SCORE>  (27) 
-12.906

>  <name>  (27) 
27

>  <ligand_id>  (27) 
27

>  <original_smiles>  (27) 
[H]c1c([H])c([H])c2c(c1[H])C([H])([H])C([H])([H])C([H])([H])C2([H])N([H])C(=O)C1([H])N(C(=O)C([H])(N([H])C(=O)C([H])(N([H])C([H])([H])[H])C([H])([H])[H])C(C([H])([H])[H])(C([H])([H])[H])C([H])([H])[H])C([H])([H])c2c([H])c(OC([H])([H])C(=O)N(c3c([H])c([H])c(N([H])C(=O)N4C([H])([H])C([H])([H])C([H])([H])C([H])(n5nc(-c6c([H])c([H])c(Oc7c([H])c([H])c(F)c([H])c7F)c([H])c6[H])c(C(=O)N([H])[H])c5N([H])[H])C4([H])[H])c(OC([H])([H])[H])c3[H])C([H])([H])[H])c([H])c([H])c2C1([H])[H]

>  <smiles>  (27) 
[H]c1c([H])c([H])c2c(c1[H])C([H])([H])C([H])([H])C([H])([H])C2([H])N([H])C(=O)C1([H])N(C(=O)C([H])(N([H])C(=O)C([H])(N([H])C([H])([H])[H])C([H])([H])[H])C(C([H])([H])[H])(C([H])([H])[H])C([H])([H])[H])C([H])([H])c2c([H])c(OC([H])([H])C(=O)N(c3c([H])c([H])c(N([H])C(=O)N4C([H])([H])C([H])([H])C([H])([H])C([H])(n5nc(-c6c([H])c([H])c(Oc7c([H])c([H])c(F)c([H])c7F)c([H])c6[H])c(C(=O)N([H])[H])c5N([H])[H])C4([H])[H])c(OC([H])([H])[H])c3[H])C([H])([H])[H])c([H])c([H])c2C1([H])[H]

$$$$
28:0:0
     RDKit          3D

 91 99  0  0  1  0  0  0  0  0999 V2000
  -29.0610  -23.4450   20.0910 C   0  0  0  0  0  0  0  0  0  0  0  0
  -28.6380  -22.1120   19.8760 N   0  0  0  0  0  0  0  0  0  0  0  0
  -30.1620  -23.6750   20.5980 O   0  0  0  0  0  0  0  0  0  0  0  0
  -27.6940  -22.1210   19.5110 H   0  0  0  0  0  0  0  0  0  0  0  0
  -30.6760  -18.6590   20.4740 C   0  0  0  0  0  3  0  0  0  0  0  0
  -30.3890  -20.0980   20.4000 C   0  0  0  0  0  3  0  0  0  0  0  0
  -28.4350  -18.2030   19.9100 C   0  0  0  0  0  3  0  0  0  0  0  0
  -29.7010  -17.6200   20.2340 C   0  0  0  0  0  0  0  0  0  0  0  0
  -29.1000  -20.6600   20.0640 C   0  0  0  0  0  0  0  0  0  0  0  0
  -28.1500  -19.6160   19.8190 C   0  0  0  0  0  0  0  0  0  0  0  0
  -26.5400  -20.0680   19.3770 Cl  0  0  0  0  0  0  0  0  0  0  0  0
  -30.6570  -15.0090   20.0000 C   0  0  0  0  0  0  0  0  0  0  0  0
  -30.5170  -12.6940   18.9780 C   0  0  0  0  0  2  0  0  0  0  0  0
  -29.5020  -12.7160   17.8100 C   0  0  0  0  0  2  0  0  0  0  0  0
  -28.0640  -12.4930   18.3190 C   0  0  0  0  0  2  0  0  0  0  0  0
  -27.7380  -13.3590   19.5620 C   0  0  0  0  0  3  0  0  0  0  0  0
  -28.8620  -13.2950   20.6200 C   0  0  0  0  0  2  0  0  0  0  0  0
  -30.1030  -13.7310   19.9610 N   0  0  0  0  0  0  0  0  0  0  0  0
  -31.8250  -15.1520   19.6230 O   0  0  0  0  0  0  0  0  0  0  0  0
  -29.7920  -16.0880   20.2970 N   0  0  0  0  0  0  0  0  0  0  0  0
  -28.9060  -15.6880   20.5660 H   0  0  0  0  0  0  0  0  0  0  0  0
  -25.4040  -13.9140   20.4600 C   0  0  0  0  0  0  0  0  0  0  0  0
  -24.3620  -13.1260   20.8680 C   0  0  0  0  0  0  0  0  0  0  0  0
  -24.8220  -11.7780   20.7590 C   0  0  0  0  0  0  0  0  0  0  0  0
  -26.4290  -13.0460   20.1260 N   0  0  0  0  0  0  0  0  0  0  0  0
  -26.0920  -11.7540   20.3690 N   0  0  0  0  0  0  0  0  0  0  0  0
  -24.1050  -10.5090   20.9440 C   0  0  0  0  0  0  0  0  0  0  0  0
  -24.5260   -9.5550   21.8950 C   0  0  0  0  0  3  0  0  0  0  0  0
  -23.8090   -8.3520   22.0690 C   0  0  0  0  0  3  0  0  0  0  0  0
  -22.6540   -8.0950   21.2930 C   0  0  0  0  0  0  0  0  0  0  0  0
  -22.2510   -9.0380   20.3310 C   0  0  0  0  0  3  0  0  0  0  0  0
  -22.9700  -10.2330   20.1560 C   0  0  0  0  0  3  0  0  0  0  0  0
  -21.9100   -6.9430   21.3750 O   0  0  0  0  0  0  0  0  0  0  0  0
  -21.7500   -6.2720   22.5600 C   0  0  0  0  0  0  0  0  0  0  0  0
  -21.1550   -6.8830   23.6870 C   0  0  0  0  0  3  0  0  0  0  0  0
  -20.9440   -6.1370   24.8630 C   0  0  0  0  0  3  0  0  0  0  0  0
  -21.3190   -4.7810   24.9140 C   0  0  0  0  0  0  0  0  0  0  0  0
  -21.9070   -4.1700   23.7930 C   0  0  0  0  0  3  0  0  0  0  0  0
  -22.1180   -4.9130   22.6190 C   0  0  0  0  0  0  0  0  0  0  0  0
  -22.6650   -4.3130   21.5340 F   0  0  0  0  0  0  0  0  0  0  0  0
  -21.1110   -4.0630   26.0430 F   0  0  0  0  0  0  0  0  0  0  0  0
  -22.9830  -13.5940   21.2360 C   0  0  0  0  0  0  0  0  0  0  0  0
  -22.3100  -12.8740   22.1270 N   0  0  0  0  0  0  0  0  0  0  0  0
  -22.5160  -14.6310   20.7700 O   0  0  0  0  0  0  0  0  0  0  0  0
  -22.7030  -12.0350   22.5260 H   0  0  0  0  0  0  0  0  0  0  0  0
  -21.3880  -13.1690   22.4150 H   0  0  0  0  0  0  0  0  0  0  0  0
  -25.5550  -15.2900   20.3160 N   0  0  0  0  0  0  0  0  0  0  0  0
  -24.7750  -15.9230   20.4620 H   0  0  0  0  0  0  0  0  0  0  0  0
  -26.3270  -15.7230   19.8300 H   0  0  0  0  0  0  0  0  0  0  0  0
  -28.1030  -24.7250   19.6530 C   0  0  0  0  0  2  0  0  0  0  0  0
  -28.3840  -26.2240   19.9700 O   0  0  0  0  0  0  0  0  0  0  0  0
  -24.5450  -31.6820   23.1290 C   0  0  0  0  0  0  0  0  0  0  0  0
  -27.3000  -27.1790   19.9360 C   0  0  0  0  0  0  0  0  0  0  0  0
  -23.4000  -30.3040   21.4370 C   0  0  0  0  0  3  0  0  0  0  0  0
  -24.9080  -28.8380   19.9640 C   0  0  0  0  0  0  0  0  0  0  0  0
  -25.9450  -30.6660   21.2940 C   0  0  0  0  0  2  0  0  0  0  0  0
  -26.0710  -29.3030   20.5920 C   0  0  0  0  0  0  0  0  0  0  0  0
  -27.2670  -28.4900   20.5630 C   0  0  0  0  0  3  0  0  0  0  0  0
  -26.1030  -26.8200   19.2740 C   0  0  0  0  0  3  0  0  0  0  0  0
  -24.9360  -27.6090   19.2930 C   0  0  0  0  0  3  0  0  0  0  0  0
  -23.6500  -29.6880   20.0370 C   0  0  0  0  0  2  0  0  0  0  0  0
  -24.6490  -30.9030   22.0090 N   0  0  0  0  0  0  0  0  0  0  0  0
  -23.4460  -31.9100   23.6600 O   0  0  0  0  0  0  0  0  0  0  0  0
  -22.7550  -29.2380   22.3600 C   0  0  0  0  0  0  0  0  0  0  0  0
  -21.4390  -29.0080   22.2030 N   0  0  0  0  0  0  0  0  0  0  0  0
  -23.4410  -28.6230   23.1790 O   0  0  0  0  0  0  0  0  0  0  0  0
  -20.9390  -29.5590   21.5190 H   0  0  0  0  0  0  0  0  0  0  0  0
  -18.1020  -27.6660   22.6450 C   0  0  0  0  0  0  0  0  0  0  0  0
  -20.6490  -28.0130   22.9360 C   0  0  0  0  0  3  0  0  0  0  0  0
  -20.8070  -26.6070   22.3110 C   0  0  0  0  0  2  0  0  0  0  0  0
  -19.7210  -26.2800   21.2800 C   0  0  0  0  0  2  0  0  0  0  0  0
  -18.3320  -26.3500   21.9210 C   0  0  0  0  0  2  0  0  0  0  0  0
  -19.1900  -28.4550   23.1080 C   0  0  0  0  0  0  0  0  0  0  0  0
  -18.9190  -29.6840   23.7460 C   0  0  0  0  0  3  0  0  0  0  0  0
  -17.5960  -30.1270   23.9250 C   0  0  0  0  0  3  0  0  0  0  0  0
  -16.5230  -29.3370   23.4760 C   0  0  0  0  0  3  0  0  0  0  0  0
  -16.7780  -28.1080   22.8420 C   0  0  0  0  0  3  0  0  0  0  0  0
  -25.7970  -32.3410   23.7840 C   0  0  0  0  0  3  0  0  0  0  0  0
  -25.4530  -33.7330   24.1070 N   0  0  0  0  0  0  0  0  0  0  0  0
  -25.7520  -34.7930   23.3420 C   0  0  0  0  0  0  0  0  0  0  0  0
  -26.4130  -34.7000   22.3060 O   0  0  0  0  0  0  0  0  0  0  0  0
  -24.8610  -33.8770   24.9130 H   0  0  0  0  0  0  0  0  0  0  0  0
  -23.9630  -36.5340   23.0200 C   0  0  0  0  0  1  0  0  0  0  0  0
  -25.2380  -36.1720   23.8010 C   0  0  0  0  0  3  0  0  0  0  0  0
  -27.3590  -37.1370   24.5750 C   0  0  0  0  0  1  0  0  0  0  0  0
  -26.2370  -37.2530   23.6470 N   0  0  0  0  0  0  0  0  0  0  0  0
  -25.8060  -38.1640   23.7800 H   0  0  0  0  0  0  0  0  0  0  0  0
  -26.2900  -31.5810   25.0770 C   0  0  1  0  0  0  0  0  0  0  0  0
  -25.1720  -31.3290   26.1150 C   0  0  0  0  0  1  0  0  0  0  0  0
  -26.9070  -30.2120   24.7120 C   0  0  0  0  0  1  0  0  0  0  0  0
  -27.4070  -32.3980   25.7680 C   0  0  0  0  0  1  0  0  0  0  0  0
  1  3  2  0
  2  9  1  0
  2  1  1  0
  4  2  1  0
  6  5  1  0
  7  8  1  0
  8 20  1  0
  8  5  2  0
  9  6  2  0
 10  7  2  0
 10  9  1  0
 11 10  1  0
 12 20  1  0
 13 18  1  0
 14 15  1  0
 14 13  1  0
 16 15  1  0
 16 25  1  0
 16 17  1  0
 18 12  1  0
 18 17  1  0
 19 12  2  0
 20 21  1  0
 22 23  2  0
 23 42  1  0
 24 23  1  0
 24 27  1  0
 25 26  1  0
 25 22  1  0
 26 24  2  0
 27 28  1  0
 28 29  2  0
 30 33  1  0
 30 29  1  0
 31 30  2  0
 32 31  1  0
 32 27  2  0
 33 34  1  0
 34 39  2  0
 34 35  1  0
 35 36  2  0
 36 37  1  0
 37 41  1  0
 38 37  2  0
 39 38  1  0
 40 39  1  0
 42 43  1  0
 43 46  1  0
 43 45  1  0
 44 42  2  0
 47 22  1  0
 47 48  1  0
 49 47  1  0
 50 51  1  0
 50  1  1  0
 52 63  2  0
 53 51  1  0
 53 58  1  0
 54 62  1  0
 54 64  1  0
 55 61  1  0
 55 57  1  0
 56 62  1  0
 57 56  1  0
 58 57  2  0
 59 60  1  0
 59 53  2  0
 60 55  2  0
 61 54  1  0
 62 52  1  0
 64 66  2  0
 65 64  1  0
 67 65  1  0
 68 77  2  0
 68 73  1  0
 69 65  1  0
 69 73  1  0
 70 69  1  0
 71 72  1  0
 71 70  1  0
 72 68  1  0
 73 74  2  0
 74 75  1  0
 76 75  2  0
 77 76  1  0
 78 52  1  0
 78 79  1  0
 78 88  1  0
 79 82  1  0
 80 84  1  0
 80 79  1  0
 81 80  2  0
 84 83  1  0
 86 87  1  0
 86 84  1  0
 86 85  1  0
 88 91  1  1
 88 89  1  0
 90 88  1  0
M  ISO  4  12 100  20 100  50 101  51 101
M  END
>  <TORSDO>  (28) 
F 18

>  <SCORE>  (28) 
-13.863

>  <name>  (28) 
28

>  <ligand_id>  (28) 
28

>  <original_smiles>  (28) 
[H]c1c([H])c([H])c2c(c1[H])C([H])([H])C([H])([H])C([H])([H])C2([H])N([H])C(=O)C1([H])N(C(=O)C([H])(N([H])C(=O)C([H])(N([H])C([H])([H])[H])C([H])([H])[H])C(C([H])([H])[H])(C([H])([H])[H])C([H])([H])[H])C([H])([H])c2c([H])c(OC([H])([H])C(=O)N([H])c3c([H])c([H])c(N([H])C(=O)N4C([H])([H])C([H])([H])C([H])([H])C([H])(n5nc(-c6c([H])c([H])c(Oc7c([H])c([H])c(F)c([H])c7F)c([H])c6[H])c(C(=O)N([H])[H])c5N([H])[H])C4([H])[H])c([H])c3Cl)c([H])c([H])c2C1([H])[H]

>  <smiles>  (28) 
[H]c1c([H])c([H])c2c(c1[H])C([H])([H])C([H])([H])C([H])([H])C2([H])N([H])C(=O)C1([H])N(C(=O)C([H])(N([H])C(=O)C([H])(N([H])C([H])([H])[H])C([H])([H])[H])C(C([H])([H])[H])(C([H])([H])[H])C([H])([H])[H])C([H])([H])c2c([H])c(OC([H])([H])C(=O)N([H])c3c([H])c([H])c(N([H])C(=O)N4C([H])([H])C([H])([H])C([H])([H])C([H])(n5nc(-c6c([H])c([H])c(Oc7c([H])c([H])c(F)c([H])c7F)c([H])c6[H])c(C(=O)N([H])[H])c5N([H])[H])C4([H])[H])c([H])c3Cl)c([H])c([H])c2C1([H])[H]

$$$$
29:0:0
     RDKit          3D

 96103  0  0  1  0  0  0  0  0999 V2000
  -26.3440  -21.2280   19.8630 C   0  0  0  0  0  2  0  0  0  0  0  0
  -27.5560  -20.3470   20.2230 C   0  0  0  0  0  2  0  0  0  0  0  0
  -27.7890  -19.2380   19.1830 C   0  0  0  0  0  2  0  0  0  0  0  0
  -29.0730  -18.4250   19.4000 C   0  0  0  0  0  2  0  0  0  0  0  0
  -31.3220  -14.8720   19.9780 C   0  0  0  0  0  0  0  0  0  0  0  0
  -30.9420  -12.6700   18.9530 C   0  0  0  0  0  2  0  0  0  0  0  0
  -29.9550  -12.8180   17.7750 C   0  0  0  0  0  2  0  0  0  0  0  0
  -28.4960  -12.7230   18.2670 C   0  0  0  0  0  2  0  0  0  0  0  0
  -28.2150  -13.6280   19.4960 C   0  0  0  0  0  3  0  0  0  0  0  0
  -29.3130  -13.4500   20.5660 C   0  0  0  0  0  2  0  0  0  0  0  0
  -30.6140  -13.7120   19.9360 N   0  0  0  0  0  0  0  0  0  0  0  0
  -32.4480  -14.9980   19.4800 O   0  0  0  0  0  0  0  0  0  0  0  0
  -29.8640  -16.6530   21.0060 C   0  0  0  0  0  0  0  0  0  0  0  0
  -29.8800  -16.2470   22.2870 N   0  0  0  0  0  4  0  0  0  0  0  0
  -30.5410  -16.0670   19.9960 N   0  0  0  0  0  0  0  0  0  0  0  0
  -29.1350  -17.7540   20.7180 N   0  0  0  0  0  0  0  0  0  0  0  0
  -30.4550  -15.4820   22.6130 H   0  0  0  0  0  0  0  0  0  0  0  0
  -29.3580  -16.7330   23.0030 H   0  0  0  0  0  0  0  0  0  0  0  0
  -30.7530  -16.7590   19.3000 H   0  0  0  0  0  0  0  0  0  0  0  0
  -28.6650  -18.2400   21.4680 H   0  0  0  0  0  0  0  0  0  0  0  0
  -25.8950  -14.3040   20.3810 C   0  0  0  0  0  0  0  0  0  0  0  0
  -24.8170  -13.5630   20.7790 C   0  0  0  0  0  0  0  0  0  0  0  0
  -25.2130  -12.1950   20.6570 C   0  0  0  0  0  0  0  0  0  0  0  0
  -26.8830  -13.3900   20.0450 N   0  0  0  0  0  0  0  0  0  0  0  0
  -26.4780  -12.1140   20.2680 N   0  0  0  0  0  0  0  0  0  0  0  0
  -24.4420  -10.9590   20.8330 C   0  0  0  0  0  0  0  0  0  0  0  0
  -24.8040   -9.9930   21.7980 C   0  0  0  0  0  3  0  0  0  0  0  0
  -24.0370   -8.8200   21.9590 C   0  0  0  0  0  3  0  0  0  0  0  0
  -22.8920   -8.6050   21.1550 C   0  0  0  0  0  0  0  0  0  0  0  0
  -22.5480   -9.5580   20.1810 C   0  0  0  0  0  3  0  0  0  0  0  0
  -23.3160  -10.7240   20.0180 C   0  0  0  0  0  3  0  0  0  0  0  0
  -22.1020   -7.4820   21.2240 O   0  0  0  0  0  0  0  0  0  0  0  0
  -21.8780   -6.8320   22.4120 C   0  0  0  0  0  0  0  0  0  0  0  0
  -21.3010   -7.4860   23.5210 C   0  0  0  0  0  3  0  0  0  0  0  0
  -21.0220   -6.7630   24.6980 C   0  0  0  0  0  3  0  0  0  0  0  0
  -21.3110   -5.3860   24.7650 C   0  0  0  0  0  0  0  0  0  0  0  0
  -21.8800   -4.7320   23.6590 C   0  0  0  0  0  3  0  0  0  0  0  0
  -22.1590   -5.4520   22.4850 C   0  0  0  0  0  0  0  0  0  0  0  0
  -22.6880   -4.8120   21.4130 F   0  0  0  0  0  0  0  0  0  0  0  0
  -21.0360   -4.6900   25.8920 F   0  0  0  0  0  0  0  0  0  0  0  0
  -23.4620  -14.0880   21.1610 C   0  0  0  0  0  0  0  0  0  0  0  0
  -22.7790  -13.4130   22.0790 N   0  0  0  0  0  0  0  0  0  0  0  0
  -23.0220  -15.1290   20.6780 O   0  0  0  0  0  0  0  0  0  0  0  0
  -23.1470  -12.5670   22.4870 H   0  0  0  0  0  0  0  0  0  0  0  0
  -21.8740  -13.7490   22.3770 H   0  0  0  0  0  0  0  0  0  0  0  0
  -26.1120  -15.6750   20.2560 N   0  0  0  0  0  0  0  0  0  0  0  0
  -25.3720  -16.3470   20.4250 H   0  0  0  0  0  0  0  0  0  0  0  0
  -26.9580  -16.0900   19.8930 H   0  0  0  0  0  0  0  0  0  0  0  0
  -26.0170  -22.3050   20.9140 C   0  0  0  0  0  2  0  0  0  0  0  0
  -27.1540  -23.2960   21.2190 C   0  0  0  0  0  2  0  0  0  0  0  0
  -28.4540  -25.0550   20.0780 C   0  0  0  0  0  0  0  0  0  0  0  0
  -27.4750  -24.1430   20.0750 N   0  0  0  0  0  0  0  0  0  0  0  0
  -29.2170  -25.2010   21.0380 O   0  0  0  0  0  0  0  0  0  0  0  0
  -26.8900  -24.0710   19.2530 H   0  0  0  0  0  0  0  0  0  0  0  0
  -28.5880  -25.9610   18.8470 C   0  0  0  0  0  2  0  0  0  0  0  0
  -28.5220  -27.3310   19.2550 O   0  0  0  0  0  0  0  0  0  0  0  0
  -24.7200  -31.8400   23.2290 C   0  0  0  0  0  0  0  0  0  0  0  0
  -27.2960  -27.9430   19.4310 C   0  0  0  0  0  0  0  0  0  0  0  0
  -23.4610  -30.6440   21.4690 C   0  0  0  0  0  3  0  0  0  0  0  0
  -24.8680  -29.3470   19.7890 C   0  0  0  0  0  0  0  0  0  0  0  0
  -25.9680  -31.0880   21.2080 C   0  0  0  0  0  2  0  0  0  0  0  0
  -26.0440  -29.8230   20.3800 C   0  0  0  0  0  0  0  0  0  0  0  0
  -27.2590  -29.1290   20.1970 C   0  0  0  0  0  3  0  0  0  0  0  0
  -26.0900  -27.4620   18.8640 C   0  0  0  0  0  3  0  0  0  0  0  0
  -24.8830  -28.1620   19.0360 C   0  0  0  0  0  3  0  0  0  0  0  0
  -23.6150  -30.1620   20.0030 C   0  0  0  0  0  2  0  0  0  0  0  0
  -24.7370  -31.1980   22.0270 N   0  0  0  0  0  0  0  0  0  0  0  0
  -23.6620  -32.0080   23.8500 O   0  0  0  0  0  0  0  0  0  0  0  0
  -22.8790  -29.4830   22.3060 C   0  0  0  0  0  0  0  0  0  0  0  0
  -21.5560  -29.2770   22.2020 N   0  0  0  0  0  0  0  0  0  0  0  0
  -23.6120  -28.7790   23.0060 O   0  0  0  0  0  0  0  0  0  0  0  0
  -21.0250  -29.9070   21.6170 H   0  0  0  0  0  0  0  0  0  0  0  0
  -18.2430  -27.9030   22.6330 C   0  0  0  0  0  0  0  0  0  0  0  0
  -20.7950  -28.2210   22.8680 C   0  0  0  0  0  3  0  0  0  0  0  0
  -20.9310  -26.8760   22.1180 C   0  0  0  0  0  2  0  0  0  0  0  0
  -19.8110  -26.6390   21.0990 C   0  0  0  0  0  2  0  0  0  0  0  0
  -18.4440  -26.6540   21.7910 C   0  0  0  0  0  2  0  0  0  0  0  0
  -19.3470  -28.6490   23.1240 C   0  0  0  0  0  0  0  0  0  0  0  0
  -19.1020  -29.8220   23.8710 C   0  0  0  0  0  3  0  0  0  0  0  0
  -17.7860  -30.2520   24.1270 C   0  0  0  0  0  3  0  0  0  0  0  0
  -16.6970  -29.5020   23.6500 C   0  0  0  0  0  3  0  0  0  0  0  0
  -16.9270  -28.3280   22.9110 C   0  0  0  0  0  3  0  0  0  0  0  0
  -26.0240  -32.4140   23.8690 C   0  0  0  0  0  3  0  0  0  0  0  0
  -25.7170  -33.7620   24.3650 N   0  0  0  0  0  0  0  0  0  0  0  0
  -26.0260  -34.8970   23.7230 C   0  0  0  0  0  0  0  0  0  0  0  0
  -26.6750  -34.9170   22.6720 O   0  0  0  0  0  0  0  0  0  0  0  0
  -25.1490  -33.8190   25.1970 H   0  0  0  0  0  0  0  0  0  0  0  0
  -24.2920  -36.7120   23.5920 C   0  0  0  0  0  1  0  0  0  0  0  0
  -25.5390  -36.2200   24.3430 C   0  0  0  0  0  3  0  0  0  0  0  0
  -27.6750  -37.0050   25.2650 C   0  0  0  0  0  1  0  0  0  0  0  0
  -26.5700  -37.2820   24.3510 N   0  0  0  0  0  0  0  0  0  0  0  0
  -26.1630  -38.1760   24.6080 H   0  0  0  0  0  0  0  0  0  0  0  0
  -26.6000  -31.5110   25.0280 C   0  0  1  0  0  0  0  0  0  0  0  0
  -25.5560  -31.1440   26.1070 C   0  0  0  0  0  1  0  0  0  0  0  0
  -27.1720  -30.1920   24.4600 C   0  0  0  0  0  1  0  0  0  0  0  0
  -27.7750  -32.2380   25.7240 C   0  0  0  0  0  1  0  0  0  0  0  0
  1  2  1  0
  1 49  1  0
  3  4  1  0
  3  2  1  0
  4 16  1  0
  5 15  1  0
  6 11  1  0
  7  8  1  0
  7  6  1  0
  9  8  1  0
  9 24  1  0
  9 10  1  0
 11  5  1  0
 11 10  1  0
 12  5  2  0
 13 14  2  0
 14 17  1  0
 14 18  1  0
 15 13  1  0
 16 13  1  0
 16 20  1  0
 19 15  1  0
 21 22  2  0
 22 41  1  0
 23 22  1  0
 23 26  1  0
 24 25  1  0
 24 21  1  0
 25 23  2  0
 26 27  1  0
 27 28  2  0
 29 32  1  0
 29 28  1  0
 30 29  2  0
 31 30  1  0
 31 26  2  0
 32 33  1  0
 33 38  2  0
 33 34  1  0
 34 35  2  0
 35 36  1  0
 36 40  1  0
 37 36  2  0
 38 37  1  0
 39 38  1  0
 41 42  1  0
 42 45  1  0
 42 44  1  0
 43 41  2  0
 46 21  1  0
 46 47  1  0
 48 46  1  0
 49 50  1  0
 51 53  2  0
 52 51  1  0
 52 50  1  0
 54 52  1  0
 55 56  1  0
 55 51  1  0
 56 58  1  0
 57 68  2  0
 58 63  1  0
 59 67  1  0
 59 69  1  0
 60 66  1  0
 60 62  1  0
 61 67  1  0
 62 61  1  0
 63 62  2  0
 64 65  1  0
 64 58  2  0
 65 60  2  0
 66 59  1  0
 67 57  1  0
 69 71  2  0
 70 69  1  0
 72 70  1  0
 73 82  2  0
 73 78  1  0
 74 70  1  0
 74 78  1  0
 75 74  1  0
 76 77  1  0
 76 75  1  0
 77 73  1  0
 78 79  2  0
 79 80  1  0
 81 80  2  0
 82 81  1  0
 83 57  1  0
 83 84  1  0
 83 93  1  0
 84 87  1  0
 85 89  1  0
 85 84  1  0
 86 85  2  0
 89 88  1  0
 89 91  1  0
 91 92  1  0
 91 90  1  0
 93 96  1  1
 93 94  1  0
 95 93  1  0
M  ISO  4   5 100  15 100  55 101  56 101
M  END
>  <TORSDO>  (29) 
F 23

>  <SCORE>  (29) 
-9.273

>  <name>  (29) 
29

>  <ligand_id>  (29) 
29

>  <original_smiles>  (29) 
[H]c1c([H])c([H])c2c(c1[H])C([H])([H])C([H])([H])C([H])([H])C2([H])N([H])C(=O)C1([H])N(C(=O)C([H])(N([H])C(=O)C([H])(N([H])C([H])([H])[H])C([H])([H])[H])C(C([H])([H])[H])(C([H])([H])[H])C([H])([H])[H])C([H])([H])c2c([H])c(OC([H])([H])C(=O)N([H])C([H])([H])C([H])([H])C([H])([H])C([H])([H])C([H])([H])C([H])([H])[N+]([H])=C(N([H])[H])N([H])C(=O)N3C([H])([H])C([H])([H])C([H])([H])C([H])(n4nc(-c5c([H])c([H])c(Oc6c([H])c([H])c(F)c([H])c6F)c([H])c5[H])c(C(=O)N([H])[H])c4N([H])[H])C3([H])[H])c([H])c([H])c2C1([H])[H]

>  <smiles>  (29) 
[H]c1c([H])c([H])c2c(c1[H])C([H])([H])C([H])([H])C([H])([H])C2([H])N([H])C(=O)C1([H])N(C(=O)C([H])(N([H])C(=O)C([H])(N([H])C([H])([H])[H])C([H])([H])[H])C(C([H])([H])[H])(C([H])([H])[H])C([H])([H])[H])C([H])([H])c2c([H])c(OC([H])([H])C(=O)N([H])C([H])([H])C([H])([H])C([H])([H])C([H])([H])C([H])([H])C([H])([H])[N+]([H])=C(N([H])[H])N([H])C(=O)N3C([H])([H])C([H])([H])C([H])([H])C([H])(n4nc(-c5c([H])c([H])c(Oc6c([H])c([H])c(F)c([H])c6F)c([H])c5[H])c(C(=O)N([H])[H])c4N([H])[H])C3([H])[H])c([H])c([H])c2C1([H])[H]

$$$$
30:0:0
     RDKit          3D

 86 93  0  0  1  0  0  0  0  0999 V2000
  -28.8140  -22.7330   20.5280 C   0  0  0  0  0  2  0  0  0  0  0  0
  -29.2620  -19.8160   20.4830 C   0  0  0  0  0  0  0  0  0  0  0  0
  -29.3630  -21.2580   18.4750 C   0  0  0  0  0  1  0  0  0  0  0  0
  -29.0920  -21.1880   19.9070 N   0  0  0  0  0  0  0  0  0  0  0  0
  -28.9700  -19.7060   21.6750 O   0  0  0  0  0  0  0  0  0  0  0  0
  -29.8710  -18.3060   19.8020 C   0  0  0  0  0  2  0  0  0  0  0  0
  -30.4800  -15.3960   19.9570 C   0  0  0  0  0  0  0  0  0  0  0  0
  -30.3950  -12.9610   19.0450 C   0  0  0  0  0  2  0  0  0  0  0  0
  -29.4060  -12.7860   17.8630 C   0  0  0  0  0  2  0  0  0  0  0  0
  -27.9840  -12.5100   18.3800 C   0  0  0  0  0  2  0  0  0  0  0  0
  -27.6050  -13.4460   19.5540 C   0  0  0  0  0  3  0  0  0  0  0  0
  -28.7180  -13.5680   20.6190 C   0  0  0  0  0  2  0  0  0  0  0  0
  -29.9120  -14.0860   19.9330 N   0  0  0  0  0  0  0  0  0  0  0  0
  -31.6680  -15.3990   19.6020 O   0  0  0  0  0  0  0  0  0  0  0  0
  -29.7340  -16.6680   20.1670 N   0  0  0  0  0  0  0  0  0  0  0  0
  -28.8090  -16.4680   20.5160 H   0  0  0  0  0  0  0  0  0  0  0  0
  -25.2900  -13.9920   20.4670 C   0  0  0  0  0  0  0  0  0  0  0  0
  -24.2470  -13.2100   20.8760 C   0  0  0  0  0  0  0  0  0  0  0  0
  -24.7010  -11.8590   20.7730 C   0  0  0  0  0  0  0  0  0  0  0  0
  -26.3100  -13.1200   20.1320 N   0  0  0  0  0  0  0  0  0  0  0  0
  -25.9720  -11.8280   20.3840 N   0  0  0  0  0  0  0  0  0  0  0  0
  -23.9750  -10.5950   20.9670 C   0  0  0  0  0  0  0  0  0  0  0  0
  -24.4330   -9.6100   21.8690 C   0  0  0  0  0  3  0  0  0  0  0  0
  -23.7040   -8.4140   22.0530 C   0  0  0  0  0  3  0  0  0  0  0  0
  -22.5050   -8.1950   21.3350 C   0  0  0  0  0  0  0  0  0  0  0  0
  -22.0680   -9.1690   20.4200 C   0  0  0  0  0  3  0  0  0  0  0  0
  -22.7960  -10.3550   20.2330 C   0  0  0  0  0  3  0  0  0  0  0  0
  -21.7460   -7.0530   21.4290 O   0  0  0  0  0  0  0  0  0  0  0  0
  -21.7070   -6.3100   22.5810 C   0  0  0  0  0  0  0  0  0  0  0  0
  -21.2760   -6.8590   23.8090 C   0  0  0  0  0  3  0  0  0  0  0  0
  -21.1840   -6.0410   24.9520 C   0  0  0  0  0  3  0  0  0  0  0  0
  -21.5120   -4.6750   24.8700 C   0  0  0  0  0  0  0  0  0  0  0  0
  -21.9360   -4.1250   23.6470 C   0  0  0  0  0  3  0  0  0  0  0  0
  -22.0290   -4.9400   22.5060 C   0  0  0  0  0  0  0  0  0  0  0  0
  -22.4170   -4.4000   21.3250 F   0  0  0  0  0  0  0  0  0  0  0  0
  -21.4170   -3.8870   25.9670 F   0  0  0  0  0  0  0  0  0  0  0  0
  -22.8720  -13.6860   21.2410 C   0  0  0  0  0  0  0  0  0  0  0  0
  -22.1910  -12.9720   22.1280 N   0  0  0  0  0  0  0  0  0  0  0  0
  -22.4140  -14.7300   20.7760 O   0  0  0  0  0  0  0  0  0  0  0  0
  -22.5770  -12.1270   22.5260 H   0  0  0  0  0  0  0  0  0  0  0  0
  -21.2710  -13.2720   22.4160 H   0  0  0  0  0  0  0  0  0  0  0  0
  -25.4490  -15.3670   20.3210 N   0  0  0  0  0  0  0  0  0  0  0  0
  -24.6870  -16.0160   20.4900 H   0  0  0  0  0  0  0  0  0  0  0  0
  -26.2610  -15.8110   19.9140 H   0  0  0  0  0  0  0  0  0  0  0  0
  -28.1170  -24.2870   19.8860 C   0  0  0  0  0  2  0  0  0  0  0  0
  -28.1980  -25.8980   20.2970 O   0  0  0  0  0  0  0  0  0  0  0  0
  -24.6270  -31.8760   23.2260 C   0  0  0  0  0  0  0  0  0  0  0  0
  -27.1820  -26.9940   20.1960 C   0  0  0  0  0  0  0  0  0  0  0  0
  -23.4280  -30.4750   21.5950 C   0  0  0  0  0  3  0  0  0  0  0  0
  -24.8750  -28.8740   20.1610 C   0  0  0  0  0  0  0  0  0  0  0  0
  -25.9930  -30.6910   21.4350 C   0  0  0  0  0  2  0  0  0  0  0  0
  -26.0630  -29.2800   20.7780 C   0  0  0  0  0  0  0  0  0  0  0  0
  -27.2060  -28.3600   20.7740 C   0  0  0  0  0  3  0  0  0  0  0  0
  -25.9660  -26.7460   19.5190 C   0  0  0  0  0  3  0  0  0  0  0  0
  -24.8520  -27.6290   19.5100 C   0  0  0  0  0  3  0  0  0  0  0  0
  -23.6520  -29.7910   20.2180 C   0  0  0  0  0  2  0  0  0  0  0  0
  -24.7040  -31.0420   22.1390 N   0  0  0  0  0  0  0  0  0  0  0  0
  -23.5390  -32.1630   23.7550 O   0  0  0  0  0  0  0  0  0  0  0  0
  -22.7430  -29.4780   22.5670 C   0  0  0  0  0  0  0  0  0  0  0  0
  -21.4130  -29.3040   22.4470 N   0  0  0  0  0  0  0  0  0  0  0  0
  -23.4140  -28.8620   23.3980 O   0  0  0  0  0  0  0  0  0  0  0  0
  -20.9240  -29.8520   21.7530 H   0  0  0  0  0  0  0  0  0  0  0  0
  -18.0430  -28.0620   22.9620 C   0  0  0  0  0  0  0  0  0  0  0  0
  -20.6000  -28.3620   23.2240 C   0  0  0  0  0  3  0  0  0  0  0  0
  -20.7190  -26.9270   22.6580 C   0  0  0  0  0  2  0  0  0  0  0  0
  -19.6210  -26.5850   21.6460 C   0  0  0  0  0  2  0  0  0  0  0  0
  -18.2370  -26.7130   22.2890 C   0  0  0  0  0  2  0  0  0  0  0  0
  -19.1510  -28.8430   23.3860 C   0  0  0  0  0  0  0  0  0  0  0  0
  -18.9140  -30.1020   23.9780 C   0  0  0  0  0  3  0  0  0  0  0  0
  -17.6010  -30.5820   24.1480 C   0  0  0  0  0  3  0  0  0  0  0  0
  -16.5080  -29.8000   23.7370 C   0  0  0  0  0  3  0  0  0  0  0  0
  -16.7290  -28.5410   23.1510 C   0  0  0  0  0  3  0  0  0  0  0  0
  -25.8980  -32.5250   23.8520 C   0  0  0  0  0  3  0  0  0  0  0  0
  -26.4080  -31.7700   25.1430 C   0  0  1  0  0  0  0  0  0  0  0  0
  -25.3090  -31.5460   26.2090 C   0  0  0  0  0  1  0  0  0  0  0  0
  -26.9940  -30.3870   24.7800 C   0  0  0  0  0  1  0  0  0  0  0  0
  -27.5550  -32.5730   25.8000 C   0  0  0  0  0  1  0  0  0  0  0  0
  -25.5800  -33.9260   24.1800 N   0  0  0  0  0  0  0  0  0  0  0  0
  -25.9050  -34.9850   23.4250 C   0  0  0  0  0  0  0  0  0  0  0  0
  -26.5660  -34.8850   22.3890 O   0  0  0  0  0  0  0  0  0  0  0  0
  -24.9900  -34.0770   24.9840 H   0  0  0  0  0  0  0  0  0  0  0  0
  -24.1700  -36.7830   23.1010 C   0  0  0  0  0  1  0  0  0  0  0  0
  -25.4230  -36.3750   23.8930 C   0  0  0  0  0  3  0  0  0  0  0  0
  -27.5640  -37.2690   24.7000 C   0  0  0  0  0  1  0  0  0  0  0  0
  -26.4530  -37.4300   23.7660 N   0  0  0  0  0  0  0  0  0  0  0  0
  -26.0460  -38.3500   23.9130 H   0  0  0  0  0  0  0  0  0  0  0  0
  2  5  2  0
  3  4  1  0
  4  2  1  0
  4  1  1  0
  6 15  1  0
  6  2  1  0
  7 15  1  0
  8 13  1  0
  9 10  1  0
  9  8  1  0
 11 10  1  0
 11 20  1  0
 11 12  1  0
 13  7  1  0
 13 12  1  0
 14  7  2  0
 15 16  1  0
 17 18  2  0
 18 37  1  0
 19 18  1  0
 19 22  1  0
 20 21  1  0
 20 17  1  0
 21 19  2  0
 22 23  1  0
 23 24  2  0
 25 28  1  0
 25 24  1  0
 26 25  2  0
 27 26  1  0
 27 22  2  0
 28 29  1  0
 29 30  1  0
 30 31  2  0
 32 31  1  0
 32 36  1  0
 33 32  2  0
 34 29  2  0
 34 33  1  0
 35 34  1  0
 37 38  1  0
 38 41  1  0
 38 40  1  0
 39 37  2  0
 42 17  1  0
 42 43  1  0
 44 42  1  0
 45 46  1  0
 45  1  1  0
 47 58  2  0
 48 46  1  0
 48 53  1  0
 49 57  1  0
 49 59  1  0
 50 56  1  0
 50 52  1  0
 51 57  1  0
 52 51  1  0
 53 52  2  0
 54 48  2  0
 55 54  1  0
 55 50  2  0
 56 49  1  0
 57 47  1  0
 59 61  2  0
 60 59  1  0
 62 60  1  0
 63 72  2  0
 63 68  1  0
 64 60  1  0
 64 68  1  0
 65 64  1  0
 66 67  1  0
 66 65  1  0
 67 63  1  0
 68 69  2  0
 69 70  1  0
 71 70  2  0
 72 71  1  0
 73 47  1  0
 73 78  1  0
 73 74  1  0
 74 77  1  1
 74 75  1  0
 76 74  1  0
 78 81  1  0
 79 83  1  0
 79 78  1  0
 80 79  2  0
 83 82  1  0
 85 83  1  0
 85 86  1  0
 85 84  1  0
M  ISO  4   7 100  15 100  45 101  46 101
M  END
>  <TORSDO>  (30) 
F 19

>  <SCORE>  (30) 
-15.675

>  <name>  (30) 
30

>  <ligand_id>  (30) 
30

>  <original_smiles>  (30) 
[H]c1c([H])c([H])c2c(c1[H])C([H])([H])C([H])([H])C([H])([H])C2([H])N([H])C(=O)C1([H])N(C(=O)C([H])(N([H])C(=O)C([H])(N([H])C([H])([H])[H])C([H])([H])[H])C(C([H])([H])[H])(C([H])([H])[H])C([H])([H])[H])C([H])([H])c2c([H])c(OC([H])([H])C([H])([H])N(C(=O)C([H])([H])N([H])C(=O)N3C([H])([H])C([H])([H])C([H])([H])C([H])(n4nc(-c5c([H])c([H])c(Oc6c([H])c([H])c(F)c([H])c6F)c([H])c5[H])c(C(=O)N([H])[H])c4N([H])[H])C3([H])[H])C([H])([H])[H])c([H])c([H])c2C1([H])[H]

>  <smiles>  (30) 
[H]c1c([H])c([H])c2c(c1[H])C([H])([H])C([H])([H])C([H])([H])C2([H])N([H])C(=O)C1([H])N(C(=O)C([H])(N([H])C(=O)C([H])(N([H])C([H])([H])[H])C([H])([H])[H])C(C([H])([H])[H])(C([H])([H])[H])C([H])([H])[H])C([H])([H])c2c([H])c(OC([H])([H])C([H])([H])N(C(=O)C([H])([H])N([H])C(=O)N3C([H])([H])C([H])([H])C([H])([H])C([H])(n4nc(-c5c([H])c([H])c(Oc6c([H])c([H])c(F)c([H])c6F)c([H])c5[H])c(C(=O)N([H])[H])c4N([H])[H])C3([H])[H])C([H])([H])[H])c([H])c([H])c2C1([H])[H]

$$$$
31:0:0
     RDKit          3D

 92100  0  0  1  0  0  0  0  0999 V2000
  -30.7760  -18.0870   21.6610 C   0  0  0  0  0  3  0  0  0  0  0  0
  -30.2280  -20.5100   21.5960 C   0  0  0  0  0  3  0  0  0  0  0  0
  -30.6710  -19.3540   22.2860 C   0  0  0  0  0  0  0  0  0  0  0  0
  -30.3950  -17.8720   20.3190 C   0  0  0  0  0  0  0  0  0  0  0  0
  -29.8350  -20.5170   20.2360 C   0  0  0  0  0  0  0  0  0  0  0  0
  -29.9370  -19.1260   19.6270 C   0  0  0  0  0  0  0  0  0  0  0  0
  -30.9770  -19.4780   23.7680 C   0  0  0  0  0  1  0  0  0  0  0  0
  -29.5450  -18.8610   17.9630 Cl  0  0  0  0  0  0  0  0  0  0  0  0
  -31.0310  -15.1630   20.0810 C   0  0  0  0  0  0  0  0  0  0  0  0
  -30.8570  -12.7770   19.1900 C   0  0  0  0  0  2  0  0  0  0  0  0
  -29.9070  -12.6530   17.9750 C   0  0  0  0  0  2  0  0  0  0  0  0
  -28.4480  -12.4660   18.4410 C   0  0  0  0  0  2  0  0  0  0  0  0
  -28.0530  -13.4630   19.5600 C   0  0  0  0  0  3  0  0  0  0  0  0
  -29.1230  -13.5440   20.6670 C   0  0  0  0  0  2  0  0  0  0  0  0
  -30.3780  -13.9270   20.0050 N   0  0  0  0  0  0  0  0  0  0  0  0
  -32.2610  -15.1300   19.9760 O   0  0  0  0  0  0  0  0  0  0  0  0
  -30.3240  -16.3920   19.8420 N   0  0  0  0  0  0  0  0  0  0  0  0
  -29.5220  -16.2310   19.2510 H   0  0  0  0  0  0  0  0  0  0  0  0
  -25.7180  -14.1390   20.3490 C   0  0  0  0  0  0  0  0  0  0  0  0
  -24.6230  -13.4090   20.7250 C   0  0  0  0  0  0  0  0  0  0  0  0
  -25.0270  -12.0410   20.6770 C   0  0  0  0  0  0  0  0  0  0  0  0
  -26.7170  -13.2150   20.0870 N   0  0  0  0  0  0  0  0  0  0  0  0
  -26.3130  -11.9480   20.3550 N   0  0  0  0  0  0  0  0  0  0  0  0
  -24.2450  -10.8110   20.8620 C   0  0  0  0  0  0  0  0  0  0  0  0
  -24.6110   -9.8370   21.8160 C   0  0  0  0  0  3  0  0  0  0  0  0
  -23.8310   -8.6750   21.9880 C   0  0  0  0  0  3  0  0  0  0  0  0
  -22.6700   -8.4780   21.2040 C   0  0  0  0  0  0  0  0  0  0  0  0
  -22.3230   -9.4390   20.2380 C   0  0  0  0  0  3  0  0  0  0  0  0
  -23.1030  -10.5930   20.0660 C   0  0  0  0  0  3  0  0  0  0  0  0
  -21.8640   -7.3660   21.2840 O   0  0  0  0  0  0  0  0  0  0  0  0
  -21.7470   -6.6420   22.4440 C   0  0  0  0  0  0  0  0  0  0  0  0
  -21.2320   -7.2120   23.6280 C   0  0  0  0  0  3  0  0  0  0  0  0
  -21.0660   -6.4150   24.7780 C   0  0  0  0  0  3  0  0  0  0  0  0
  -21.4080   -5.0510   24.7440 C   0  0  0  0  0  0  0  0  0  0  0  0
  -21.9170   -4.4800   23.5650 C   0  0  0  0  0  3  0  0  0  0  0  0
  -22.0870   -5.2730   22.4170 C   0  0  0  0  0  0  0  0  0  0  0  0
  -22.5580   -4.7140   21.2760 F   0  0  0  0  0  0  0  0  0  0  0  0
  -21.2400   -4.2840   25.8480 F   0  0  0  0  0  0  0  0  0  0  0  0
  -23.2520  -13.9490   21.0100 C   0  0  0  0  0  0  0  0  0  0  0  0
  -22.5000  -13.2790   21.8790 N   0  0  0  0  0  0  0  0  0  0  0  0
  -22.8590  -14.9940   20.4960 O   0  0  0  0  0  0  0  0  0  0  0  0
  -22.8390  -12.4340   22.3140 H   0  0  0  0  0  0  0  0  0  0  0  0
  -21.5750  -13.6180   22.1110 H   0  0  0  0  0  0  0  0  0  0  0  0
  -25.9290  -15.5010   20.1650 N   0  0  0  0  0  0  0  0  0  0  0  0
  -25.1680  -16.1650   20.2490 H   0  0  0  0  0  0  0  0  0  0  0  0
  -26.7520  -15.9010   19.7370 H   0  0  0  0  0  0  0  0  0  0  0  0
  -29.3530  -23.2570   20.2390 C   0  0  0  0  0  0  0  0  0  0  0  0
  -28.5820  -21.8550   18.4130 C   0  0  0  0  0  1  0  0  0  0  0  0
  -29.2850  -21.9010   19.6980 N   0  0  0  0  0  0  0  0  0  0  0  0
  -30.2570  -23.5240   21.0360 O   0  0  0  0  0  0  0  0  0  0  0  0
  -28.3140  -24.5580   19.8940 C   0  0  0  0  0  2  0  0  0  0  0  0
  -28.5250  -26.0900   20.2680 O   0  0  0  0  0  0  0  0  0  0  0  0
  -24.7350  -31.8010   23.1700 C   0  0  0  0  0  0  0  0  0  0  0  0
  -27.4640  -27.0950   20.1700 C   0  0  0  0  0  0  0  0  0  0  0  0
  -23.5910  -30.3740   21.5150 C   0  0  0  0  0  3  0  0  0  0  0  0
  -25.0950  -28.8300   20.1030 C   0  0  0  0  0  0  0  0  0  0  0  0
  -26.1440  -30.6870   21.3880 C   0  0  0  0  0  2  0  0  0  0  0  0
  -26.2610  -29.2920   20.7280 C   0  0  0  0  0  0  0  0  0  0  0  0
  -27.4420  -28.4430   20.7360 C   0  0  0  0  0  3  0  0  0  0  0  0
  -26.2680  -26.7570   19.4990 C   0  0  0  0  0  3  0  0  0  0  0  0
  -25.1190  -27.5820   19.4620 C   0  0  0  0  0  3  0  0  0  0  0  0
  -23.8540  -29.7150   20.1340 C   0  0  0  0  0  2  0  0  0  0  0  0
  -24.8410  -30.9780   22.0800 N   0  0  0  0  0  0  0  0  0  0  0  0
  -23.6370  -32.0630   23.6860 O   0  0  0  0  0  0  0  0  0  0  0  0
  -22.9180  -29.3540   22.4700 C   0  0  0  0  0  0  0  0  0  0  0  0
  -21.5980  -29.1340   22.3140 N   0  0  0  0  0  0  0  0  0  0  0  0
  -23.5880  -28.7580   23.3170 O   0  0  0  0  0  0  0  0  0  0  0  0
  -21.1030  -29.6680   21.6150 H   0  0  0  0  0  0  0  0  0  0  0  0
  -18.2420  -27.8380   22.7770 C   0  0  0  0  0  0  0  0  0  0  0  0
  -20.7920  -28.1720   23.0750 C   0  0  0  0  0  3  0  0  0  0  0  0
  -20.9360  -26.7350   22.5100 C   0  0  0  0  0  2  0  0  0  0  0  0
  -19.8440  -26.3620   21.5000 C   0  0  0  0  0  2  0  0  0  0  0  0
  -18.4600  -26.4810   22.1380 C   0  0  0  0  0  2  0  0  0  0  0  0
  -19.3350  -28.6330   23.2130 C   0  0  0  0  0  0  0  0  0  0  0  0
  -19.0690  -29.8900   23.7950 C   0  0  0  0  0  3  0  0  0  0  0  0
  -17.7450  -30.3470   23.9510 C   0  0  0  0  0  3  0  0  0  0  0  0
  -16.6680  -29.5500   23.5280 C   0  0  0  0  0  3  0  0  0  0  0  0
  -16.9200  -28.2990   22.9450 C   0  0  0  0  0  3  0  0  0  0  0  0
  -25.9910  -32.4700   23.8120 C   0  0  0  0  0  3  0  0  0  0  0  0
  -25.6450  -33.8610   24.1460 N   0  0  0  0  0  0  0  0  0  0  0  0
  -25.9250  -34.9260   23.3830 C   0  0  0  0  0  0  0  0  0  0  0  0
  -26.5760  -34.8440   22.3380 O   0  0  0  0  0  0  0  0  0  0  0  0
  -25.0690  -33.9970   24.9650 H   0  0  0  0  0  0  0  0  0  0  0  0
  -24.1270  -36.6630   23.0900 C   0  0  0  0  0  1  0  0  0  0  0  0
  -25.4100  -36.2990   23.8540 C   0  0  0  0  0  3  0  0  0  0  0  0
  -27.5300  -37.2830   24.6140 C   0  0  0  0  0  1  0  0  0  0  0  0
  -26.4010  -37.3880   23.6930 N   0  0  0  0  0  0  0  0  0  0  0  0
  -25.9620  -38.2950   23.8320 H   0  0  0  0  0  0  0  0  0  0  0  0
  -26.5050  -31.7110   25.0990 C   0  0  1  0  0  0  0  0  0  0  0  0
  -25.3980  -31.4390   26.1430 C   0  0  0  0  0  1  0  0  0  0  0  0
  -27.1470  -30.3550   24.7290 C   0  0  0  0  0  1  0  0  0  0  0  0
  -27.6080  -32.5440   25.7930 C   0  0  0  0  0  1  0  0  0  0  0  0
  1  3  1  0
  2  3  2  0
  3  7  1  0
  4  1  2  0
  5  2  1  0
  6  5  2  0
  6  4  1  0
  8  6  1  0
 10 15  1  0
 11 12  1  0
 11 10  1  0
 13 12  1  0
 13 22  1  0
 13 14  1  0
 15  9  1  0
 15 14  1  0
 16  9  2  0
 17  9  1  0
 17  4  1  0
 18 17  1  0
 19 20  2  0
 20 39  1  0
 21 20  1  0
 21 24  1  0
 22 19  1  0
 22 23  1  0
 23 21  2  0
 24 25  1  0
 25 26  2  0
 27 30  1  0
 27 26  1  0
 28 27  2  0
 29 28  1  0
 29 24  2  0
 30 31  1  0
 31 32  1  0
 32 33  2  0
 34 33  1  0
 34 38  1  0
 35 34  2  0
 36 31  2  0
 36 35  1  0
 37 36  1  0
 39 40  1  0
 40 43  1  0
 40 42  1  0
 41 39  2  0
 44 45  1  0
 44 19  1  0
 46 44  1  0
 47 50  2  0
 48 49  1  0
 49  5  1  0
 49 47  1  0
 51 47  1  0
 51 52  1  0
 53 64  2  0
 54 52  1  0
 54 59  1  0
 55 63  1  0
 55 65  1  0
 56 62  1  0
 56 58  1  0
 57 63  1  0
 58 59  2  0
 58 57  1  0
 60 54  2  0
 61 60  1  0
 61 56  2  0
 62 55  1  0
 63 53  1  0
 65 67  2  0
 66 65  1  0
 68 66  1  0
 69 78  2  0
 69 74  1  0
 70 66  1  0
 70 74  1  0
 71 70  1  0
 72 73  1  0
 72 71  1  0
 73 69  1  0
 74 75  2  0
 75 76  1  0
 77 76  2  0
 78 77  1  0
 79 53  1  0
 79 80  1  0
 79 89  1  0
 80 83  1  0
 81 85  1  0
 81 80  1  0
 82 81  2  0
 85 84  1  0
 87 88  1  0
 87 85  1  0
 87 86  1  0
 89 92  1  1
 89 90  1  0
 91 89  1  0
M  ISO  4   9 100  17 100  51 101  52 101
M  END
>  <TORSDO>  (31) 
F 18

>  <SCORE>  (31) 
-14.797

>  <name>  (31) 
31

>  <ligand_id>  (31) 
31

>  <original_smiles>  (31) 
[H]c1c([H])c([H])c2c(c1[H])C([H])([H])C([H])([H])C([H])([H])C2([H])N([H])C(=O)C1([H])N(C(=O)C([H])(N([H])C(=O)C([H])(N([H])C([H])([H])[H])C([H])([H])[H])C(C([H])([H])[H])(C([H])([H])[H])C([H])([H])[H])C([H])([H])c2c([H])c(OC([H])([H])C(=O)N(c3c([H])c(C([H])([H])[H])c([H])c(N([H])C(=O)N4C([H])([H])C([H])([H])C([H])([H])C([H])(n5nc(-c6c([H])c([H])c(Oc7c([H])c([H])c(F)c([H])c7F)c([H])c6[H])c(C(=O)N([H])[H])c5N([H])[H])C4([H])[H])c3Cl)C([H])([H])[H])c([H])c([H])c2C1([H])[H]

>  <smiles>  (31) 
[H]c1c([H])c([H])c2c(c1[H])C([H])([H])C([H])([H])C([H])([H])C2([H])N([H])C(=O)C1([H])N(C(=O)C([H])(N([H])C(=O)C([H])(N([H])C([H])([H])[H])C([H])([H])[H])C(C([H])([H])[H])(C([H])([H])[H])C([H])([H])[H])C([H])([H])c2c([H])c(OC([H])([H])C(=O)N(c3c([H])c(C([H])([H])[H])c([H])c(N([H])C(=O)N4C([H])([H])C([H])([H])C([H])([H])C([H])(n5nc(-c6c([H])c([H])c(Oc7c([H])c([H])c(F)c([H])c7F)c([H])c6[H])c(C(=O)N([H])[H])c5N([H])[H])C4([H])[H])c3Cl)C([H])([H])[H])c([H])c([H])c2C1([H])[H]

$$$$
32:0:0
     RDKit          3D

 90 97  0  0  1  0  0  0  0  0999 V2000
  -29.7190  -19.7380   20.8570 C   0  0  0  0  0  0  0  0  0  0  0  0
  -29.1090  -21.0710   20.5060 N   0  0  0  0  0  0  0  0  0  0  0  0
  -30.4210  -19.7950   21.8680 O   0  0  0  0  0  0  0  0  0  0  0  0
  -28.4640  -20.9490   19.7430 H   0  0  0  0  0  0  0  0  0  0  0  0
  -29.6190  -18.2620   20.0920 C   0  0  0  0  0  3  0  0  0  0  0  0
  -28.9100  -18.2500   18.9130 C   0  0  0  0  0  3  0  0  0  0  0  0
  -28.9140  -17.1020   17.9090 C   0  0  0  0  0  1  0  0  0  0  0  0
  -30.7090  -15.5180   20.0290 C   0  0  0  0  0  0  0  0  0  0  0  0
  -30.6190  -13.0490   19.0640 C   0  0  0  0  0  2  0  0  0  0  0  0
  -29.6330  -12.8470   17.8790 C   0  0  0  0  0  2  0  0  0  0  0  0
  -28.2070  -12.5870   18.3920 C   0  0  0  0  0  2  0  0  0  0  0  0
  -27.8350  -13.5200   19.5630 C   0  0  0  0  0  3  0  0  0  0  0  0
  -28.9480  -13.6460   20.6230 C   0  0  0  0  0  2  0  0  0  0  0  0
  -30.1450  -14.1910   19.9650 N   0  0  0  0  0  0  0  0  0  0  0  0
  -31.8370  -15.5290   19.5080 O   0  0  0  0  0  0  0  0  0  0  0  0
  -29.8480  -16.6580   22.0340 C   0  0  0  0  0  1  0  0  0  0  0  0
  -30.0760  -16.7850   20.5760 N   0  0  0  0  0  0  0  0  0  0  0  0
  -25.5250  -14.0630   20.4800 C   0  0  0  0  0  0  0  0  0  0  0  0
  -24.4740  -13.2890   20.8770 C   0  0  0  0  0  0  0  0  0  0  0  0
  -24.9210  -11.9330   20.7670 C   0  0  0  0  0  0  0  0  0  0  0  0
  -26.5410  -13.1900   20.1420 N   0  0  0  0  0  0  0  0  0  0  0  0
  -26.1900  -11.8980   20.3740 N   0  0  0  0  0  0  0  0  0  0  0  0
  -24.1930  -10.6730   20.9590 C   0  0  0  0  0  0  0  0  0  0  0  0
  -24.6270   -9.7010   21.8900 C   0  0  0  0  0  3  0  0  0  0  0  0
  -23.8970   -8.5060   22.0710 C   0  0  0  0  0  3  0  0  0  0  0  0
  -22.7190   -8.2750   21.3200 C   0  0  0  0  0  0  0  0  0  0  0  0
  -22.2990   -9.2380   20.3850 C   0  0  0  0  0  3  0  0  0  0  0  0
  -23.0280  -10.4240   20.2030 C   0  0  0  0  0  3  0  0  0  0  0  0
  -21.9610   -7.1290   21.4080 O   0  0  0  0  0  0  0  0  0  0  0  0
  -21.8490   -6.4240   22.5800 C   0  0  0  0  0  0  0  0  0  0  0  0
  -21.3230   -7.0090   23.7520 C   0  0  0  0  0  3  0  0  0  0  0  0
  -21.1600   -6.2300   24.9150 C   0  0  0  0  0  3  0  0  0  0  0  0
  -21.5140   -4.8680   24.9070 C   0  0  0  0  0  0  0  0  0  0  0  0
  -22.0360   -4.2830   23.7400 C   0  0  0  0  0  3  0  0  0  0  0  0
  -22.1970   -5.0580   22.5780 C   0  0  0  0  0  0  0  0  0  0  0  0
  -22.6800   -4.4820   21.4510 F   0  0  0  0  0  0  0  0  0  0  0  0
  -21.3530   -4.1220   26.0240 F   0  0  0  0  0  0  0  0  0  0  0  0
  -23.1020  -13.7670   21.2550 C   0  0  0  0  0  0  0  0  0  0  0  0
  -22.4270  -13.0510   22.1470 N   0  0  0  0  0  0  0  0  0  0  0  0
  -22.6430  -14.8100   20.7890 O   0  0  0  0  0  0  0  0  0  0  0  0
  -22.8220  -12.2050   22.5240 H   0  0  0  0  0  0  0  0  0  0  0  0
  -21.5160  -13.3490   22.4610 H   0  0  0  0  0  0  0  0  0  0  0  0
  -25.7150  -15.4360   20.3530 N   0  0  0  0  0  0  0  0  0  0  0  0
  -24.9900  -16.1220   20.5170 H   0  0  0  0  0  0  0  0  0  0  0  0
  -26.5910  -15.8530   20.0720 H   0  0  0  0  0  0  0  0  0  0  0  0
  -26.4610  -18.9480   19.0110 C   0  0  0  0  0  1  0  0  0  0  0  0
  -27.8630  -19.2870   18.4460 C   0  0  0  0  0  2  0  0  0  0  0  0
  -29.1180  -22.7020   20.9760 C   0  0  0  0  0  3  0  0  0  0  0  0
  -28.2270  -24.2170   20.3990 C   0  0  0  0  0  3  0  0  0  0  0  0
  -28.3120  -25.8870   20.5980 O   0  0  0  0  0  0  0  0  0  0  0  0
  -24.6580  -31.9520   23.2580 C   0  0  0  0  0  0  0  0  0  0  0  0
  -27.2830  -26.9830   20.4190 C   0  0  0  0  0  0  0  0  0  0  0  0
  -23.4900  -30.5170   21.6280 C   0  0  0  0  0  3  0  0  0  0  0  0
  -24.9700  -28.8810   20.2510 C   0  0  0  0  0  0  0  0  0  0  0  0
  -26.0540  -30.7340   21.5010 C   0  0  0  0  0  2  0  0  0  0  0  0
  -26.1460  -29.3020   20.8860 C   0  0  0  0  0  0  0  0  0  0  0  0
  -27.2880  -28.3760   20.9410 C   0  0  0  0  0  3  0  0  0  0  0  0
  -26.0770  -26.7200   19.7120 C   0  0  0  0  0  3  0  0  0  0  0  0
  -24.9660  -27.6140   19.6370 C   0  0  0  0  0  3  0  0  0  0  0  0
  -23.7460  -29.8040   20.2680 C   0  0  0  0  0  2  0  0  0  0  0  0
  -24.7550  -31.1030   22.1810 N   0  0  0  0  0  0  0  0  0  0  0  0
  -23.5620  -32.2520   23.7620 O   0  0  0  0  0  0  0  0  0  0  0  0
  -22.7860  -29.5470   22.6080 C   0  0  0  0  0  0  0  0  0  0  0  0
  -21.4580  -29.3670   22.4730 N   0  0  0  0  0  0  0  0  0  0  0  0
  -23.4420  -28.9480   23.4630 O   0  0  0  0  0  0  0  0  0  0  0  0
  -20.9760  -29.9170   21.7740 H   0  0  0  0  0  0  0  0  0  0  0  0
  -18.0800  -28.1280   22.9700 C   0  0  0  0  0  0  0  0  0  0  0  0
  -20.6360  -28.4340   23.2520 C   0  0  0  0  0  3  0  0  0  0  0  0
  -20.7580  -26.9920   22.7070 C   0  0  0  0  0  2  0  0  0  0  0  0
  -19.6720  -26.6400   21.6840 C   0  0  0  0  0  2  0  0  0  0  0  0
  -18.2810  -26.7740   22.3130 C   0  0  0  0  0  2  0  0  0  0  0  0
  -19.1870  -28.9140   23.3940 C   0  0  0  0  0  0  0  0  0  0  0  0
  -18.9390  -30.1800   23.9700 C   0  0  0  0  0  3  0  0  0  0  0  0
  -17.6240  -30.6620   24.1210 C   0  0  0  0  0  3  0  0  0  0  0  0
  -16.5360  -29.8750   23.7080 C   0  0  0  0  0  3  0  0  0  0  0  0
  -16.7640  -28.6100   23.1390 C   0  0  0  0  0  3  0  0  0  0  0  0
  -25.9240  -32.6100   23.8920 C   0  0  0  0  0  3  0  0  0  0  0  0
  -26.4250  -31.8680   25.1920 C   0  0  1  0  0  0  0  0  0  0  0  0
  -25.3090  -31.6360   26.2400 C   0  0  0  0  0  1  0  0  0  0  0  0
  -27.0350  -30.4890   24.8490 C   0  0  0  0  0  1  0  0  0  0  0  0
  -27.5520  -32.6920   25.8610 C   0  0  0  0  0  1  0  0  0  0  0  0
  -25.6040  -34.0150   24.2030 N   0  0  0  0  0  0  0  0  0  0  0  0
  -25.9250  -35.0660   23.4340 C   0  0  0  0  0  0  0  0  0  0  0  0
  -26.5870  -34.9510   22.3980 O   0  0  0  0  0  0  0  0  0  0  0  0
  -25.0040  -34.1740   25.0000 H   0  0  0  0  0  0  0  0  0  0  0  0
  -24.1820  -36.8580   23.0960 C   0  0  0  0  0  1  0  0  0  0  0  0
  -25.4420  -36.4610   23.8830 C   0  0  0  0  0  3  0  0  0  0  0  0
  -27.5790  -37.3780   24.6800 C   0  0  0  0  0  1  0  0  0  0  0  0
  -26.4690  -37.5180   23.7440 N   0  0  0  0  0  0  0  0  0  0  0  0
  -26.0560  -38.4370   23.8780 H   0  0  0  0  0  0  0  0  0  0  0  0
  1  3  2  0
  2  1  1  0
  2 48  1  0
  4  2  1  0
  5 17  1  0
  5  1  1  0
  6  7  1  0
  6  5  1  0
  8 17  1  0
  9 14  1  0
 10 11  1  0
 10  9  1  0
 12 11  1  0
 12 21  1  0
 12 13  1  0
 14  8  1  0
 14 13  1  0
 15  8  2  0
 17 16  1  0
 18 19  2  0
 19 38  1  0
 20 19  1  0
 20 23  1  0
 21 22  1  0
 21 18  1  0
 22 20  2  0
 23 24  1  0
 24 25  2  0
 26 29  1  0
 26 25  1  0
 27 26  2  0
 28 27  1  0
 28 23  2  0
 29 30  1  0
 30 31  1  0
 31 32  2  0
 33 32  1  0
 33 37  1  0
 34 33  2  0
 35 30  2  0
 35 34  1  0
 36 35  1  0
 38 39  1  0
 39 42  1  0
 39 41  1  0
 40 38  2  0
 43 18  1  0
 43 44  1  0
 45 43  1  0
 47  6  1  0
 47 46  1  0
 49 50  1  0
 49 48  2  0
 51 62  2  0
 52 50  1  0
 52 57  1  0
 53 61  1  0
 53 63  1  0
 54 60  1  0
 54 56  1  0
 55 61  1  0
 56 57  2  0
 56 55  1  0
 58 52  2  0
 59 58  1  0
 59 54  2  0
 60 53  1  0
 61 51  1  0
 63 65  2  0
 64 63  1  0
 66 64  1  0
 67 76  2  0
 67 72  1  0
 68 64  1  0
 68 72  1  0
 69 68  1  0
 70 71  1  0
 70 69  1  0
 71 67  1  0
 72 73  2  0
 73 74  1  0
 75 74  2  0
 76 75  1  0
 77 51  1  0
 77 82  1  0
 77 78  1  0
 78 81  1  1
 78 79  1  0
 80 78  1  0
 82 85  1  0
 83 87  1  0
 83 82  1  0
 84 83  2  0
 87 86  1  0
 89 90  1  0
 89 87  1  0
 89 88  1  0
M  ISO  4   8 100  17 100  49 101  50 101
M  END
>  <TORSDO>  (32) 
F 20

>  <SCORE>  (32) 
-14.033

>  <name>  (32) 
32

>  <ligand_id>  (32) 
32

>  <original_smiles>  (32) 
[H]c1c([H])c([H])c2c(c1[H])C([H])([H])C([H])([H])C([H])([H])C2([H])N([H])C(=O)C1([H])N(C(=O)C([H])(N([H])C(=O)C([H])(N([H])C([H])([H])[H])C([H])([H])[H])C(C([H])([H])[H])(C([H])([H])[H])C([H])([H])[H])C([H])([H])c2c([H])c(OC([H])([H])C([H])([H])N([H])C(=O)C(=C(C([H])([H])[H])C([H])([H])C([H])([H])[H])N(C(=O)N3C([H])([H])C([H])([H])C([H])([H])C([H])(n4nc(-c5c([H])c([H])c(Oc6c([H])c([H])c(F)c([H])c6F)c([H])c5[H])c(C(=O)N([H])[H])c4N([H])[H])C3([H])[H])C([H])([H])[H])c([H])c([H])c2C1([H])[H]

>  <smiles>  (32) 
[H]c1c([H])c([H])c2c(c1[H])C([H])([H])C([H])([H])C([H])([H])C2([H])N([H])C(=O)C1([H])N(C(=O)C([H])(N([H])C(=O)C([H])(N([H])C([H])([H])[H])C([H])([H])[H])C(C([H])([H])[H])(C([H])([H])[H])C([H])([H])[H])C([H])([H])c2c([H])c(OC([H])([H])C([H])([H])N([H])C(=O)C(=C(C([H])([H])[H])C([H])([H])C([H])([H])[H])N(C(=O)N3C([H])([H])C([H])([H])C([H])([H])C([H])(n4nc(-c5c([H])c([H])c(Oc6c([H])c([H])c(F)c([H])c6F)c([H])c5[H])c(C(=O)N([H])[H])c4N([H])[H])C3([H])[H])C([H])([H])[H])c([H])c([H])c2C1([H])[H]

$$$$
33:0:0
     RDKit          3D

 96104  0  0  1  0  0  0  0  0999 V2000
  -30.4510  -22.7710   21.8760 C   0  0  0  0  0  3  0  0  0  0  0  0
  -30.7740  -23.4390   23.1810 C   0  0  0  0  0  1  0  0  0  0  0  0
  -30.0460  -23.4880   20.8070 N   0  0  0  0  0  0  0  0  0  0  0  0
  -30.5750  -21.4340   21.7850 N   0  0  0  0  0  0  0  0  0  0  0  0
  -29.8840  -23.0240   19.9250 H   0  0  0  0  0  0  0  0  0  0  0  0
  -30.8830  -20.9100   22.5930 H   0  0  0  0  0  0  0  0  0  0  0  0
  -30.3020  -20.6450   20.5780 C   0  0  0  0  0  2  0  0  0  0  0  0
  -29.2440  -18.3760   20.9070 C   0  0  0  0  0  3  0  0  0  0  0  0
  -31.7750  -17.1470   20.9580 C   0  0  0  0  0  3  0  0  0  0  0  0
  -30.4100  -19.1570   20.8010 C   0  0  0  0  0  0  0  0  0  0  0  0
  -30.6040  -16.3510   20.9770 C   0  0  0  0  0  0  0  0  0  0  0  0
  -31.6770  -18.5440   20.8570 C   0  0  0  0  0  0  0  0  0  0  0  0
  -29.3380  -16.9760   21.0020 C   0  0  0  0  0  0  0  0  0  0  0  0
  -32.8030  -19.2950   20.7880 F   0  0  0  0  0  0  0  0  0  0  0  0
  -27.8920  -16.0350   21.1010 Cl  0  0  0  0  0  0  0  0  0  0  0  0
  -30.9470  -14.2210   19.8530 C   0  0  0  0  0  0  0  0  0  0  0  0
  -30.4100  -12.2230   18.5230 C   0  0  0  0  0  2  0  0  0  0  0  0
  -29.3760  -12.5620   17.4330 C   0  0  0  0  0  2  0  0  0  0  0  0
  -27.9420  -12.4420   17.9830 C   0  0  0  0  0  2  0  0  0  0  0  0
  -27.7540  -13.2030   19.3220 C   0  0  0  0  0  3  0  0  0  0  0  0
  -28.8850  -12.8440   20.3130 C   0  0  0  0  0  2  0  0  0  0  0  0
  -30.1850  -13.1150   19.6680 N   0  0  0  0  0  0  0  0  0  0  0  0
  -31.8960  -14.5190   19.1200 O   0  0  0  0  0  0  0  0  0  0  0  0
  -30.6360  -14.9360   20.9400 N   0  0  0  0  0  0  0  0  0  0  0  0
  -29.9400  -14.4940   21.5210 H   0  0  0  0  0  0  0  0  0  0  0  0
  -25.4130  -13.8370   20.1960 C   0  0  0  0  0  0  0  0  0  0  0  0
  -24.3680  -13.0760   20.6470 C   0  0  0  0  0  0  0  0  0  0  0  0
  -24.8120  -11.7190   20.5790 C   0  0  0  0  0  0  0  0  0  0  0  0
  -26.4330  -12.9470   19.8950 N   0  0  0  0  0  0  0  0  0  0  0  0
  -26.0740  -11.6680   20.1750 N   0  0  0  0  0  0  0  0  0  0  0  0
  -24.0880  -10.4630   20.8220 C   0  0  0  0  0  0  0  0  0  0  0  0
  -24.5480   -9.5180   21.7650 C   0  0  0  0  0  3  0  0  0  0  0  0
  -23.8260   -8.3260   21.9940 C   0  0  0  0  0  3  0  0  0  0  0  0
  -22.6320   -8.0720   21.2800 C   0  0  0  0  0  0  0  0  0  0  0  0
  -22.1910   -9.0060   20.3260 C   0  0  0  0  0  3  0  0  0  0  0  0
  -22.9130  -10.1890   20.0950 C   0  0  0  0  0  3  0  0  0  0  0  0
  -21.8790   -6.9300   21.4170 O   0  0  0  0  0  0  0  0  0  0  0  0
  -21.8160   -6.2490   22.6050 C   0  0  0  0  0  0  0  0  0  0  0  0
  -21.3980   -6.8730   23.8010 C   0  0  0  0  0  3  0  0  0  0  0  0
  -21.2810   -6.1180   24.9850 C   0  0  0  0  0  3  0  0  0  0  0  0
  -21.5720   -4.7400   24.9750 C   0  0  0  0  0  0  0  0  0  0  0  0
  -21.9830   -4.1160   23.7840 C   0  0  0  0  0  3  0  0  0  0  0  0
  -22.1010   -4.8690   22.6020 C   0  0  0  0  0  0  0  0  0  0  0  0
  -22.4780   -4.2580   21.4520 F   0  0  0  0  0  0  0  0  0  0  0  0
  -21.4520   -4.0130   26.1100 F   0  0  0  0  0  0  0  0  0  0  0  0
  -23.0010  -13.5660   21.0300 C   0  0  0  0  0  0  0  0  0  0  0  0
  -22.3500  -12.8910   21.9700 N   0  0  0  0  0  0  0  0  0  0  0  0
  -22.5220  -14.5830   20.5300 O   0  0  0  0  0  0  0  0  0  0  0  0
  -22.7500  -12.0670   22.3950 H   0  0  0  0  0  0  0  0  0  0  0  0
  -21.4360  -13.2020   22.2710 H   0  0  0  0  0  0  0  0  0  0  0  0
  -25.5740  -15.2050   20.0020 N   0  0  0  0  0  0  0  0  0  0  0  0
  -24.8360  -15.8720   20.1980 H   0  0  0  0  0  0  0  0  0  0  0  0
  -26.4280  -15.6410   19.6810 H   0  0  0  0  0  0  0  0  0  0  0  0
  -29.8640  -24.9390   20.7460 C   0  0  0  0  0  2  0  0  0  0  0  0
  -28.7600  -25.3080   19.7520 C   0  0  0  0  0  2  0  0  0  0  0  0
  -28.6970  -26.7220   19.7490 O   0  0  0  0  0  0  0  0  0  0  0  0
  -24.6840  -31.5230   23.0300 C   0  0  0  0  0  0  0  0  0  0  0  0
  -27.4640  -27.3180   19.7870 C   0  0  0  0  0  0  0  0  0  0  0  0
  -23.5120  -30.1460   21.3370 C   0  0  0  0  0  3  0  0  0  0  0  0
  -25.0080  -28.7000   19.8620 C   0  0  0  0  0  0  0  0  0  0  0  0
  -26.0180  -30.5990   21.1440 C   0  0  0  0  0  2  0  0  0  0  0  0
  -26.1440  -29.2570   20.4630 C   0  0  0  0  0  0  0  0  0  0  0  0
  -27.3720  -28.5720   20.4200 C   0  0  0  0  0  3  0  0  0  0  0  0
  -26.3110  -26.7560   19.1920 C   0  0  0  0  0  3  0  0  0  0  0  0
  -25.0820  -27.4460   19.2290 C   0  0  0  0  0  3  0  0  0  0  0  0
  -23.7380  -29.5150   19.9350 C   0  0  0  0  0  2  0  0  0  0  0  0
  -24.7560  -30.7680   21.8970 N   0  0  0  0  0  0  0  0  0  0  0  0
  -23.5980  -31.7430   23.5830 O   0  0  0  0  0  0  0  0  0  0  0  0
  -22.8960  -29.0730   22.2620 C   0  0  0  0  0  0  0  0  0  0  0  0
  -21.5720  -28.8810   22.1530 N   0  0  0  0  0  0  0  0  0  0  0  0
  -23.6050  -28.4160   23.0290 O   0  0  0  0  0  0  0  0  0  0  0  0
  -21.0600  -29.4660   21.5070 H   0  0  0  0  0  0  0  0  0  0  0  0
  -18.2170  -27.6620   22.6890 C   0  0  0  0  0  0  0  0  0  0  0  0
  -20.7810  -27.8990   22.8940 C   0  0  0  0  0  3  0  0  0  0  0  0
  -20.8610  -26.5040   22.2300 C   0  0  0  0  0  2  0  0  0  0  0  0
  -19.7260  -26.2440   21.2350 C   0  0  0  0  0  2  0  0  0  0  0  0
  -18.3660  -26.3530   21.9310 C   0  0  0  0  0  2  0  0  0  0  0  0
  -19.3510  -28.3950   23.1280 C   0  0  0  0  0  0  0  0  0  0  0  0
  -19.1560  -29.6230   23.7950 C   0  0  0  0  0  3  0  0  0  0  0  0
  -17.8600  -30.1170   24.0310 C   0  0  0  0  0  3  0  0  0  0  0  0
  -16.7390  -29.3790   23.6100 C   0  0  0  0  0  3  0  0  0  0  0  0
  -16.9190  -28.1540   22.9450 C   0  0  0  0  0  3  0  0  0  0  0  0
  -25.9540  -32.1650   23.6700 C   0  0  0  0  0  3  0  0  0  0  0  0
  -26.5130  -31.3490   24.8980 C   0  0  1  0  0  0  0  0  0  0  0  0
  -25.4400  -31.0100   25.9590 C   0  0  0  0  0  1  0  0  0  0  0  0
  -27.1480  -30.0210   24.4230 C   0  0  0  0  0  1  0  0  0  0  0  0
  -27.6360  -32.1520   25.5960 C   0  0  0  0  0  1  0  0  0  0  0  0
  -25.6020  -33.5340   24.0700 N   0  0  0  0  0  0  0  0  0  0  0  0
  -25.9170  -34.6340   23.3740 C   0  0  0  0  0  0  0  0  0  0  0  0
  -26.6080  -34.6040   22.3510 O   0  0  0  0  0  0  0  0  0  0  0  0
  -24.9920  -33.6290   24.8690 H   0  0  0  0  0  0  0  0  0  0  0  0
  -24.1490  -36.3940   23.0770 C   0  0  0  0  0  1  0  0  0  0  0  0
  -25.3840  -35.9810   23.8960 C   0  0  0  0  0  3  0  0  0  0  0  0
  -27.4770  -36.8730   24.8170 C   0  0  0  0  0  1  0  0  0  0  0  0
  -26.3890  -37.0660   23.8620 N   0  0  0  0  0  0  0  0  0  0  0  0
  -25.9550  -37.9650   24.0530 H   0  0  0  0  0  0  0  0  0  0  0  0
  1  2  1  0
  3  1  1  0
  4  1  1  0
  4  6  1  0
  5  3  1  0
  7 10  1  0
  7  4  1  0
  8 13  1  0
  9 11  1  0
 10 12  1  0
 10  8  2  0
 11 13  2  0
 12  9  2  0
 13 15  1  0
 14 12  1  0
 16 24  1  0
 17 22  1  0
 18 19  1  0
 18 17  1  0
 20 19  1  0
 20 29  1  0
 20 21  1  0
 22 16  1  0
 22 21  1  0
 23 16  2  0
 24 11  1  0
 24 25  1  0
 26 27  2  0
 27 46  1  0
 28 27  1  0
 28 31  1  0
 29 30  1  0
 29 26  1  0
 30 28  2  0
 31 32  1  0
 32 33  2  0
 34 37  1  0
 34 33  1  0
 35 34  2  0
 36 35  1  0
 36 31  2  0
 37 38  1  0
 38 39  1  0
 39 40  2  0
 41 40  1  0
 41 45  1  0
 42 41  2  0
 43 38  2  0
 43 42  1  0
 44 43  1  0
 46 47  1  0
 47 50  1  0
 47 49  1  0
 48 46  2  0
 51 26  1  0
 51 52  1  0
 53 51  1  0
 54  3  1  0
 55 54  1  0
 56 55  1  0
 56 58  1  0
 57 68  2  0
 58 63  1  0
 59 67  1  0
 59 69  1  0
 60 66  1  0
 60 62  1  0
 61 67  1  0
 62 61  1  0
 63 62  2  0
 64 65  1  0
 64 58  2  0
 65 60  2  0
 66 59  1  0
 67 57  1  0
 69 71  2  0
 70 69  1  0
 72 70  1  0
 73 82  2  0
 73 78  1  0
 74 70  1  0
 74 78  1  0
 75 74  1  0
 76 77  1  0
 76 75  1  0
 77 73  1  0
 78 79  2  0
 79 80  1  0
 81 80  2  0
 82 81  1  0
 83 57  1  0
 83 88  1  0
 83 84  1  0
 84 87  1  1
 84 85  1  0
 86 84  1  0
 88 91  1  0
 89 93  1  0
 89 88  1  0
 90 89  2  0
 93 92  1  0
 95 93  1  0
 95 96  1  0
 95 94  1  0
M  ISO  4  16 100  24 100  55 101  56 101
M  END
>  <TORSDO>  (33) 
F 20

>  <SCORE>  (33) 
-11.515

>  <name>  (33) 
33

>  <ligand_id>  (33) 
33

>  <original_smiles>  (33) 
[H]c1c([H])c([H])c2c(c1[H])C([H])([H])C([H])([H])C([H])([H])C2([H])N([H])C(=O)C1([H])N(C(=O)C([H])(N([H])C(=O)C([H])(N([H])C([H])([H])[H])C([H])([H])[H])C(C([H])([H])[H])(C([H])([H])[H])C([H])([H])[H])C([H])([H])c2c([H])c(OC([H])([H])C([H])([H])N([H])C(=[N+]([H])C([H])([H])c3c([H])c(Cl)c(N([H])C(=O)N4C([H])([H])C([H])([H])C([H])([H])C([H])(n5nc(-c6c([H])c([H])c(Oc7c([H])c([H])c(F)c([H])c7F)c([H])c6[H])c(C(=O)N([H])[H])c5N([H])[H])C4([H])[H])c([H])c3F)C([H])([H])[H])c([H])c([H])c2C1([H])[H]

>  <smiles>  (33) 
[H]c1c([H])c([H])c2c(c1[H])C([H])([H])C([H])([H])C([H])([H])C2([H])N([H])C(=O)C1([H])N(C(=O)C([H])(N([H])C(=O)C([H])(N([H])C([H])([H])[H])C([H])([H])[H])C(C([H])([H])[H])(C([H])([H])[H])C([H])([H])[H])C([H])([H])c2c([H])c(OC([H])([H])C([H])([H])N([H])C(=[N+]([H])C([H])([H])c3c([H])c(Cl)c(N([H])C(=O)N4C([H])([H])C([H])([H])C([H])([H])C([H])(n5nc(-c6c([H])c([H])c(Oc7c([H])c([H])c(F)c([H])c7F)c([H])c6[H])c(C(=O)N([H])[H])c5N([H])[H])C4([H])[H])c([H])c3F)C([H])([H])[H])c([H])c([H])c2C1([H])[H]

$$$$
34:0:0
     RDKit          3D

 94102  0  0  1  0  0  0  0  0999 V2000
  -30.5940  -20.6930   21.0330 C   0  0  0  0  0  2  0  0  0  0  0  0
  -28.9680  -19.4950   19.4960 C   0  0  0  0  0  3  0  0  0  0  0  0
  -28.7720  -17.0660   19.3910 C   0  0  0  0  0  3  0  0  0  0  0  0
  -28.3940  -18.3430   18.9300 C   0  0  0  0  0  0  0  0  0  0  0  0
  -29.9290  -19.3950   20.5220 C   0  0  0  0  0  0  0  0  0  0  0  0
  -29.7110  -16.9110   20.4360 C   0  0  0  0  0  0  0  0  0  0  0  0
  -30.2970  -18.0880   20.9960 C   0  0  0  0  0  0  0  0  0  0  0  0
  -27.3550  -18.4850   17.8350 C   0  0  0  0  0  1  0  0  0  0  0  0
  -31.4500  -17.9150   22.2760 Cl  0  0  0  0  0  0  0  0  0  0  0  0
  -30.6310  -14.5850   20.4370 C   0  0  0  0  0  0  0  0  0  0  0  0
  -30.3840  -12.3860   19.3290 C   0  0  0  0  0  2  0  0  0  0  0  0
  -29.4560  -12.5680   18.1090 C   0  0  0  0  0  2  0  0  0  0  0  0
  -27.9750  -12.4330   18.5150 C   0  0  0  0  0  2  0  0  0  0  0  0
  -27.6210  -13.2700   19.7730 C   0  0  0  0  0  3  0  0  0  0  0  0
  -28.6640  -13.0640   20.8970 C   0  0  0  0  0  2  0  0  0  0  0  0
  -29.9930  -13.3810   20.3450 N   0  0  0  0  0  0  0  0  0  0  0  0
  -31.7590  -14.7740   19.9740 O   0  0  0  0  0  0  0  0  0  0  0  0
  -29.9030  -15.5890   20.9800 N   0  0  0  0  0  0  0  0  0  0  0  0
  -29.0870  -15.2320   21.4520 H   0  0  0  0  0  0  0  0  0  0  0  0
  -25.2170  -13.9110   20.4290 C   0  0  0  0  0  0  0  0  0  0  0  0
  -24.1370  -13.1520   20.7900 C   0  0  0  0  0  0  0  0  0  0  0  0
  -24.5890  -11.7960   20.7880 C   0  0  0  0  0  0  0  0  0  0  0  0
  -26.2590  -13.0150   20.2320 N   0  0  0  0  0  0  0  0  0  0  0  0
  -25.8840  -11.7410   20.5050 N   0  0  0  0  0  0  0  0  0  0  0  0
  -23.8520  -10.5420   20.9840 C   0  0  0  0  0  0  0  0  0  0  0  0
  -24.2750   -9.5800   21.9280 C   0  0  0  0  0  3  0  0  0  0  0  0
  -23.5420   -8.3880   22.1110 C   0  0  0  0  0  3  0  0  0  0  0  0
  -22.3730   -8.1510   21.3500 C   0  0  0  0  0  0  0  0  0  0  0  0
  -21.9710   -9.1020   20.3940 C   0  0  0  0  0  3  0  0  0  0  0  0
  -22.7040  -10.2850   20.2100 C   0  0  0  0  0  3  0  0  0  0  0  0
  -21.6100   -7.0120   21.4430 O   0  0  0  0  0  0  0  0  0  0  0  0
  -21.5590   -6.2740   22.5970 C   0  0  0  0  0  0  0  0  0  0  0  0
  -21.1500   -6.8370   23.8260 C   0  0  0  0  0  3  0  0  0  0  0  0
  -21.0450   -6.0250   24.9730 C   0  0  0  0  0  3  0  0  0  0  0  0
  -21.3380   -4.6510   24.8910 C   0  0  0  0  0  0  0  0  0  0  0  0
  -21.7380   -4.0870   23.6690 C   0  0  0  0  0  3  0  0  0  0  0  0
  -21.8460   -4.8960   22.5240 C   0  0  0  0  0  0  0  0  0  0  0  0
  -22.2130   -4.3430   21.3420 F   0  0  0  0  0  0  0  0  0  0  0  0
  -21.2280   -3.8680   25.9910 F   0  0  0  0  0  0  0  0  0  0  0  0
  -22.7390  -13.6420   21.0330 C   0  0  0  0  0  0  0  0  0  0  0  0
  -21.9920  -12.9610   21.8970 N   0  0  0  0  0  0  0  0  0  0  0  0
  -22.3150  -14.6620   20.4920 O   0  0  0  0  0  0  0  0  0  0  0  0
  -22.3470  -12.1340   22.3560 H   0  0  0  0  0  0  0  0  0  0  0  0
  -21.0540  -13.2710   22.1020 H   0  0  0  0  0  0  0  0  0  0  0  0
  -25.3940  -15.2780   20.2340 N   0  0  0  0  0  0  0  0  0  0  0  0
  -24.6330  -15.9410   20.3290 H   0  0  0  0  0  0  0  0  0  0  0  0
  -26.2580  -15.7120   19.9380 H   0  0  0  0  0  0  0  0  0  0  0  0
  -29.7470  -22.9740   20.2580 C   0  0  0  0  0  0  0  0  0  0  0  0
  -29.7870  -21.9410   21.1330 N   0  0  0  0  0  0  0  0  0  0  0  0
  -30.0830  -22.8320   19.0810 O   0  0  0  0  0  0  0  0  0  0  0  0
  -29.4490  -22.1450   22.0640 H   0  0  0  0  0  0  0  0  0  0  0  0
  -29.3780  -24.3950   20.7820 C   0  0  0  0  0  2  0  0  0  0  0  0
  -28.3470  -25.2280   19.9490 C   0  0  0  0  0  2  0  0  0  0  0  0
  -28.3920  -26.6600   20.2260 O   0  0  0  0  0  0  0  0  0  0  0  0
  -24.5870  -31.9030   23.2350 C   0  0  0  0  0  0  0  0  0  0  0  0
  -27.2230  -27.4160   20.1680 C   0  0  0  0  0  0  0  0  0  0  0  0
  -23.3790  -30.5020   21.5930 C   0  0  0  0  0  3  0  0  0  0  0  0
  -24.8320  -28.9600   20.1670 C   0  0  0  0  0  0  0  0  0  0  0  0
  -25.9090  -30.8500   21.3970 C   0  0  0  0  0  2  0  0  0  0  0  0
  -25.9940  -29.4740   20.7560 C   0  0  0  0  0  0  0  0  0  0  0  0
  -27.1890  -28.7120   20.7500 C   0  0  0  0  0  3  0  0  0  0  0  0
  -26.0430  -26.9380   19.5520 C   0  0  0  0  0  3  0  0  0  0  0  0
  -24.8540  -27.6940   19.5600 C   0  0  0  0  0  3  0  0  0  0  0  0
  -23.5900  -29.8230   20.2140 C   0  0  0  0  0  2  0  0  0  0  0  0
  -24.6440  -31.1010   22.1330 N   0  0  0  0  0  0  0  0  0  0  0  0
  -23.5060  -32.1770   23.7750 O   0  0  0  0  0  0  0  0  0  0  0  0
  -22.7260  -29.4840   22.5570 C   0  0  0  0  0  0  0  0  0  0  0  0
  -21.4010  -29.3010   22.4300 N   0  0  0  0  0  0  0  0  0  0  0  0
  -23.4090  -28.8600   23.3730 O   0  0  0  0  0  0  0  0  0  0  0  0
  -20.9100  -29.8570   21.7440 H   0  0  0  0  0  0  0  0  0  0  0  0
  -18.0280  -28.1020   22.9270 C   0  0  0  0  0  0  0  0  0  0  0  0
  -20.5850  -28.3640   23.2020 C   0  0  0  0  0  3  0  0  0  0  0  0
  -20.6910  -26.9310   22.6300 C   0  0  0  0  0  2  0  0  0  0  0  0
  -19.5900  -26.6050   21.6150 C   0  0  0  0  0  2  0  0  0  0  0  0
  -18.2070  -26.7500   22.2570 C   0  0  0  0  0  2  0  0  0  0  0  0
  -19.1450  -28.8660   23.3580 C   0  0  0  0  0  0  0  0  0  0  0  0
  -18.9240  -30.1310   23.9450 C   0  0  0  0  0  3  0  0  0  0  0  0
  -17.6180  -30.6310   24.1070 C   0  0  0  0  0  3  0  0  0  0  0  0
  -16.5150  -29.8640   23.6920 C   0  0  0  0  0  3  0  0  0  0  0  0
  -16.7210  -28.6010   23.1080 C   0  0  0  0  0  3  0  0  0  0  0  0
  -25.8720  -32.5370   23.8520 C   0  0  0  0  0  3  0  0  0  0  0  0
  -26.3950  -31.7630   25.1250 C   0  0  1  0  0  0  0  0  0  0  0  0
  -25.3070  -31.5220   26.1960 C   0  0  0  0  0  1  0  0  0  0  0  0
  -26.9790  -30.3870   24.7270 C   0  0  0  0  0  1  0  0  0  0  0  0
  -27.5460  -32.5570   25.7850 C   0  0  0  0  0  1  0  0  0  0  0  0
  -25.5610  -33.9330   24.1860 N   0  0  0  0  0  0  0  0  0  0  0  0
  -25.8890  -34.9870   23.4280 C   0  0  0  0  0  0  0  0  0  0  0  0
  -26.5550  -34.8870   22.3940 O   0  0  0  0  0  0  0  0  0  0  0  0
  -24.9670  -34.0840   24.9880 H   0  0  0  0  0  0  0  0  0  0  0  0
  -24.1540  -36.7770   23.0830 C   0  0  0  0  0  1  0  0  0  0  0  0
  -25.4000  -36.3750   23.8880 C   0  0  0  0  0  3  0  0  0  0  0  0
  -27.5390  -37.2620   24.7080 C   0  0  0  0  0  1  0  0  0  0  0  0
  -26.4300  -37.4300   23.7720 N   0  0  0  0  0  0  0  0  0  0  0  0
  -26.0230  -38.3490   23.9230 H   0  0  0  0  0  0  0  0  0  0  0  0
  1 49  1  0
  2  5  1  0
  3  6  2  0
  4  3  1  0
  4  2  2  0
  5  7  2  0
  5  1  1  0
  6 18  1  0
  6  7  1  0
  7  9  1  0
  8  4  1  0
 10 18  1  0
 11 16  1  0
 12 13  1  0
 12 11  1  0
 14 13  1  0
 14 23  1  0
 14 15  1  0
 16 10  1  0
 16 15  1  0
 17 10  2  0
 18 19  1  0
 20 21  2  0
 21 40  1  0
 22 21  1  0
 22 25  1  0
 23 20  1  0
 23 24  1  0
 24 22  2  0
 25 26  1  0
 26 27  2  0
 28 31  1  0
 28 27  1  0
 29 28  2  0
 30 29  1  0
 30 25  2  0
 31 32  1  0
 32 33  1  0
 33 34  2  0
 35 34  1  0
 35 39  1  0
 36 35  2  0
 37 32  2  0
 37 36  1  0
 38 37  1  0
 40 41  1  0
 41 44  1  0
 41 43  1  0
 42 40  2  0
 45 46  1  0
 45 20  1  0
 47 45  1  0
 48 52  1  0
 48 49  1  0
 49 51  1  0
 50 48  2  0
 53 54  1  0
 53 52  1  0
 55 66  2  0
 56 54  1  0
 56 61  1  0
 57 65  1  0
 57 67  1  0
 58 64  1  0
 58 60  1  0
 59 65  1  0
 60 59  1  0
 61 60  2  0
 62 63  1  0
 62 56  2  0
 63 58  2  0
 64 57  1  0
 65 55  1  0
 67 69  2  0
 68 67  1  0
 70 68  1  0
 71 80  2  0
 71 76  1  0
 72 68  1  0
 72 76  1  0
 73 72  1  0
 74 75  1  0
 74 73  1  0
 75 71  1  0
 76 77  2  0
 77 78  1  0
 79 78  2  0
 80 79  1  0
 81 55  1  0
 81 86  1  0
 81 82  1  0
 82 85  1  1
 82 83  1  0
 84 82  1  0
 86 89  1  0
 87 91  1  0
 87 86  1  0
 88 87  2  0
 91 90  1  0
 93 91  1  0
 93 94  1  0
 93 92  1  0
M  ISO  4  10 100  18 100  53 101  54 101
M  END
>  <TORSDO>  (34) 
F 20

>  <SCORE>  (34) 
-13.846

>  <name>  (34) 
34

>  <ligand_id>  (34) 
34

>  <original_smiles>  (34) 
[H]c1c([H])c([H])c2c(c1[H])C([H])([H])C([H])([H])C([H])([H])C2([H])N([H])C(=O)C1([H])N(C(=O)C([H])(N([H])C(=O)C([H])(N([H])C([H])([H])[H])C([H])([H])[H])C(C([H])([H])[H])(C([H])([H])[H])C([H])([H])[H])C([H])([H])c2c([H])c(OC([H])([H])C([H])([H])C(=O)N([H])C([H])([H])c3c([H])c(C([H])([H])[H])c([H])c(N([H])C(=O)N4C([H])([H])C([H])([H])C([H])([H])C([H])(n5nc(-c6c([H])c([H])c(Oc7c([H])c([H])c(F)c([H])c7F)c([H])c6[H])c(C(=O)N([H])[H])c5N([H])[H])C4([H])[H])c3Cl)c([H])c([H])c2C1([H])[H]

>  <smiles>  (34) 
[H]c1c([H])c([H])c2c(c1[H])C([H])([H])C([H])([H])C([H])([H])C2([H])N([H])C(=O)C1([H])N(C(=O)C([H])(N([H])C(=O)C([H])(N([H])C([H])([H])[H])C([H])([H])[H])C(C([H])([H])[H])(C([H])([H])[H])C([H])([H])[H])C([H])([H])c2c([H])c(OC([H])([H])C([H])([H])C(=O)N([H])C([H])([H])c3c([H])c(C([H])([H])[H])c([H])c(N([H])C(=O)N4C([H])([H])C([H])([H])C([H])([H])C([H])(n5nc(-c6c([H])c([H])c(Oc7c([H])c([H])c(F)c([H])c7F)c([H])c6[H])c(C(=O)N([H])[H])c5N([H])[H])C4([H])[H])c3Cl)c([H])c([H])c2C1([H])[H]

$$$$
35:0:0
     RDKit          3D

 91 99  0  0  1  0  0  0  0  0999 V2000
  -30.6040  -19.7700   19.4730 C   0  0  0  0  0  3  0  0  0  0  0  0
  -30.7430  -18.3430   19.6870 C   0  0  0  0  0  3  0  0  0  0  0  0
  -28.2870  -19.6610   19.8350 C   0  0  0  0  0  3  0  0  0  0  0  0
  -29.3810  -20.5450   19.5400 C   0  0  0  0  0  0  0  0  0  0  0  0
  -29.6500  -17.4790   19.9820 C   0  0  0  0  0  0  0  0  0  0  0  0
  -28.4040  -18.2080   20.0350 C   0  0  0  0  0  0  0  0  0  0  0  0
  -30.5140  -14.8690   19.8310 C   0  0  0  0  0  0  0  0  0  0  0  0
  -30.3970  -12.5140   18.9150 C   0  0  0  0  0  2  0  0  0  0  0  0
  -29.3710  -12.4670   17.7560 C   0  0  0  0  0  2  0  0  0  0  0  0
  -27.9430  -12.2450   18.2950 C   0  0  0  0  0  2  0  0  0  0  0  0
  -27.6160  -13.1650   19.4990 C   0  0  0  0  0  3  0  0  0  0  0  0
  -28.7500  -13.1600   20.5460 C   0  0  0  0  0  2  0  0  0  0  0  0
  -29.9760  -13.5860   19.8580 N   0  0  0  0  0  0  0  0  0  0  0  0
  -31.6630  -15.0080   19.3970 O   0  0  0  0  0  0  0  0  0  0  0  0
  -29.6800  -15.9610   20.1620 N   0  0  0  0  0  0  0  0  0  0  0  0
  -28.8340  -15.6330   20.6010 H   0  0  0  0  0  0  0  0  0  0  0  0
  -25.3050  -13.7260   20.4520 C   0  0  0  0  0  0  0  0  0  0  0  0
  -24.2710  -12.9390   20.8790 C   0  0  0  0  0  0  0  0  0  0  0  0
  -24.7230  -11.5900   20.7570 C   0  0  0  0  0  0  0  0  0  0  0  0
  -26.3200  -12.8540   20.0920 N   0  0  0  0  0  0  0  0  0  0  0  0
  -25.9830  -11.5620   20.3400 N   0  0  0  0  0  0  0  0  0  0  0  0
  -24.0090  -10.3220   20.9580 C   0  0  0  0  0  0  0  0  0  0  0  0
  -24.4530   -9.3620   21.8930 C   0  0  0  0  0  3  0  0  0  0  0  0
  -23.7370   -8.1610   22.0820 C   0  0  0  0  0  3  0  0  0  0  0  0
  -22.5610   -7.9110   21.3340 C   0  0  0  0  0  0  0  0  0  0  0  0
  -22.1370   -8.8590   20.3870 C   0  0  0  0  0  3  0  0  0  0  0  0
  -22.8540  -10.0520   20.1970 C   0  0  0  0  0  3  0  0  0  0  0  0
  -21.8150   -6.7610   21.4330 O   0  0  0  0  0  0  0  0  0  0  0  0
  -21.7020   -6.0750   22.6160 C   0  0  0  0  0  0  0  0  0  0  0  0
  -21.1660   -6.6760   23.7760 C   0  0  0  0  0  3  0  0  0  0  0  0
  -21.0030   -5.9150   24.9510 C   0  0  0  0  0  3  0  0  0  0  0  0
  -21.3640   -4.5540   24.9660 C   0  0  0  0  0  0  0  0  0  0  0  0
  -21.8940   -3.9530   23.8090 C   0  0  0  0  0  3  0  0  0  0  0  0
  -22.0590   -4.7120   22.6370 C   0  0  0  0  0  0  0  0  0  0  0  0
  -22.5490   -4.1230   21.5200 F   0  0  0  0  0  0  0  0  0  0  0  0
  -21.2010   -3.8200   26.0910 F   0  0  0  0  0  0  0  0  0  0  0  0
  -22.9040  -13.4080   21.2840 C   0  0  0  0  0  0  0  0  0  0  0  0
  -22.2540  -12.6930   22.1960 N   0  0  0  0  0  0  0  0  0  0  0  0
  -22.4230  -14.4450   20.8280 O   0  0  0  0  0  0  0  0  0  0  0  0
  -22.6580  -11.8540   22.5850 H   0  0  0  0  0  0  0  0  0  0  0  0
  -21.3410  -12.9890   22.5090 H   0  0  0  0  0  0  0  0  0  0  0  0
  -25.4600  -15.1020   20.3180 N   0  0  0  0  0  0  0  0  0  0  0  0
  -24.7040  -15.7480   20.5210 H   0  0  0  0  0  0  0  0  0  0  0  0
  -26.2860  -15.5620   19.9560 H   0  0  0  0  0  0  0  0  0  0  0  0
  -30.6770  -22.5530   19.0120 C   0  0  0  0  0  1  0  0  0  0  0  0
  -29.3390  -22.0300   19.3090 N   0  0  0  0  0  0  0  0  0  0  0  0
  -28.4010  -23.1900   19.7750 C   0  0  0  0  0  2  0  0  0  0  0  0
  -28.2900  -24.6660   18.9530 C   0  0  0  0  0  2  0  0  0  0  0  0
  -28.2750  -26.1160   19.5190 O   0  0  0  0  0  0  0  0  0  0  0  0
  -24.6090  -31.5190   22.8830 C   0  0  0  0  0  0  0  0  0  0  0  0
  -27.1830  -27.0560   19.4920 C   0  0  0  0  0  0  0  0  0  0  0  0
  -23.3940  -30.2160   21.1790 C   0  0  0  0  0  3  0  0  0  0  0  0
  -24.8290  -28.7600   19.6240 C   0  0  0  0  0  0  0  0  0  0  0  0
  -25.9380  -30.5280   20.9830 C   0  0  0  0  0  2  0  0  0  0  0  0
  -26.0140  -29.1830   20.2390 C   0  0  0  0  0  0  0  0  0  0  0  0
  -27.1870  -28.3460   20.1590 C   0  0  0  0  0  3  0  0  0  0  0  0
  -25.9680  -26.7340   18.8450 C   0  0  0  0  0  3  0  0  0  0  0  0
  -24.8180  -27.5500   18.9150 C   0  0  0  0  0  3  0  0  0  0  0  0
  -23.5940  -29.6350   19.7550 C   0  0  0  0  0  2  0  0  0  0  0  0
  -24.6680  -30.7740   21.7380 N   0  0  0  0  0  0  0  0  0  0  0  0
  -23.5310  -31.7550   23.4500 O   0  0  0  0  0  0  0  0  0  0  0  0
  -22.7470  -29.1390   22.0860 C   0  0  0  0  0  0  0  0  0  0  0  0
  -21.4120  -28.9940   22.0110 N   0  0  0  0  0  0  0  0  0  0  0  0
  -23.4480  -28.4400   22.8220 O   0  0  0  0  0  0  0  0  0  0  0  0
  -20.9040  -29.6150   21.3970 H   0  0  0  0  0  0  0  0  0  0  0  0
  -18.0350  -27.8410   22.6300 C   0  0  0  0  0  0  0  0  0  0  0  0
  -20.6130  -28.0060   22.7420 C   0  0  0  0  0  3  0  0  0  0  0  0
  -20.6260  -26.6370   22.0220 C   0  0  0  0  0  2  0  0  0  0  0  0
  -19.4490  -26.4480   21.0610 C   0  0  0  0  0  2  0  0  0  0  0  0
  -18.1190  -26.5630   21.8120 C   0  0  0  0  0  2  0  0  0  0  0  0
  -19.2050  -28.5270   23.0530 C   0  0  0  0  0  0  0  0  0  0  0  0
  -19.0670  -29.7260   23.7850 C   0  0  0  0  0  3  0  0  0  0  0  0
  -17.7940  -30.2410   24.0940 C   0  0  0  0  0  3  0  0  0  0  0  0
  -16.6400  -29.5500   23.6850 C   0  0  0  0  0  3  0  0  0  0  0  0
  -16.7610  -28.3520   22.9590 C   0  0  0  0  0  3  0  0  0  0  0  0
  -25.8920  -32.1300   23.5260 C   0  0  0  0  0  3  0  0  0  0  0  0
  -26.4500  -31.2760   24.7310 C   0  0  1  0  0  0  0  0  0  0  0  0
  -25.3900  -30.9560   25.8110 C   0  0  0  0  0  1  0  0  0  0  0  0
  -27.0300  -29.9340   24.2290 C   0  0  0  0  0  1  0  0  0  0  0  0
  -27.6140  -32.0320   25.4150 C   0  0  0  0  0  1  0  0  0  0  0  0
  -25.5630  -33.4920   23.9750 N   0  0  0  0  0  0  0  0  0  0  0  0
  -25.8710  -34.6130   23.3080 C   0  0  0  0  0  0  0  0  0  0  0  0
  -26.5300  -34.6080   22.2650 O   0  0  0  0  0  0  0  0  0  0  0  0
  -24.9760  -33.5670   24.7930 H   0  0  0  0  0  0  0  0  0  0  0  0
  -24.1100  -36.4030   23.1390 C   0  0  0  0  0  1  0  0  0  0  0  0
  -25.3720  -35.9510   23.8910 C   0  0  0  0  0  3  0  0  0  0  0  0
  -27.5030  -36.8050   24.7630 C   0  0  0  0  0  1  0  0  0  0  0  0
  -26.3850  -37.0270   23.8490 N   0  0  0  0  0  0  0  0  0  0  0  0
  -25.9660  -37.9250   24.0770 H   0  0  0  0  0  0  0  0  0  0  0  0
  -26.0210  -17.8490   19.8890 C   0  0  0  0  0  1  0  0  0  0  0  0
  -27.3100  -17.4040   20.2900 O   0  0  0  0  0  0  0  0  0  0  0  0
  1  4  2  0
  1  2  1  0
  2  5  2  0
  3  6  2  0
  4  3  1  0
  5  6  1  0
  5 15  1  0
  6 91  1  0
  7 13  1  0
  7 15  1  0
  8 13  1  0
  9 10  1  0
  9  8  1  0
 11 10  1  0
 11 20  1  0
 11 12  1  0
 13 12  1  0
 14  7  2  0
 15 16  1  0
 17 18  2  0
 18 37  1  0
 19 18  1  0
 19 22  1  0
 20 21  1  0
 20 17  1  0
 21 19  2  0
 22 23  1  0
 23 24  2  0
 25 28  1  0
 25 24  1  0
 26 25  2  0
 27 26  1  0
 27 22  2  0
 28 29  1  0
 29 34  2  0
 29 30  1  0
 30 31  2  0
 31 32  1  0
 32 36  1  0
 33 32  2  0
 34 33  1  0
 35 34  1  0
 37 38  1  0
 38 41  1  0
 38 40  1  0
 39 37  2  0
 42 17  1  0
 42 43  1  0
 44 42  1  0
 45 46  1  0
 46  4  1  0
 46 47  1  0
 48 49  1  0
 48 47  1  0
 50 61  2  0
 51 49  1  0
 51 56  1  0
 52 60  1  0
 52 62  1  0
 53 59  1  0
 53 55  1  0
 54 60  1  0
 55 54  1  0
 56 55  2  0
 57 58  1  0
 57 51  2  0
 58 53  2  0
 59 52  1  0
 60 50  1  0
 62 64  2  0
 63 62  1  0
 65 63  1  0
 66 75  2  0
 66 71  1  0
 67 63  1  0
 67 71  1  0
 68 67  1  0
 69 70  1  0
 69 68  1  0
 70 66  1  0
 71 72  2  0
 72 73  1  0
 74 73  2  0
 75 74  1  0
 76 50  1  0
 76 81  1  0
 76 77  1  0
 77 80  1  1
 77 78  1  0
 79 77  1  0
 81 84  1  0
 82 86  1  0
 82 81  1  0
 83 82  2  0
 86 85  1  0
 88 86  1  0
 88 89  1  0
 88 87  1  0
 90 91  1  0
M  ISO  4   7 100  15 100  48 101  49 101
M  END
>  <TORSDO>  (35) 
F 20

>  <SCORE>  (35) 
-12.864

>  <name>  (35) 
35

>  <ligand_id>  (35) 
35

>  <original_smiles>  (35) 
[H]c1c([H])c([H])c2c(c1[H])C([H])([H])C([H])([H])C([H])([H])C2([H])N([H])C(=O)C1([H])N(C(=O)C([H])(N([H])C(=O)C([H])(N([H])C([H])([H])[H])C([H])([H])[H])C(C([H])([H])[H])(C([H])([H])[H])C([H])([H])[H])C([H])([H])c2c([H])c(OC([H])([H])C([H])([H])N(c3c([H])c([H])c(N([H])C(=O)N4C([H])([H])C([H])([H])C([H])([H])C([H])(n5nc(-c6c([H])c([H])c(Oc7c([H])c([H])c(F)c([H])c7F)c([H])c6[H])c(C(=O)N([H])[H])c5N([H])[H])C4([H])[H])c(OC([H])([H])[H])c3[H])C([H])([H])[H])c([H])c([H])c2C1([H])[H]

>  <smiles>  (35) 
[H]c1c([H])c([H])c2c(c1[H])C([H])([H])C([H])([H])C([H])([H])C2([H])N([H])C(=O)C1([H])N(C(=O)C([H])(N([H])C(=O)C([H])(N([H])C([H])([H])[H])C([H])([H])[H])C(C([H])([H])[H])(C([H])([H])[H])C([H])([H])[H])C([H])([H])c2c([H])c(OC([H])([H])C([H])([H])N(c3c([H])c([H])c(N([H])C(=O)N4C([H])([H])C([H])([H])C([H])([H])C([H])(n5nc(-c6c([H])c([H])c(Oc7c([H])c([H])c(F)c([H])c7F)c([H])c6[H])c(C(=O)N([H])[H])c5N([H])[H])C4([H])[H])c(OC([H])([H])[H])c3[H])C([H])([H])[H])c([H])c([H])c2C1([H])[H]

$$$$
36:0:0
     RDKit          3D

 92100  0  0  1  0  0  0  0  0999 V2000
  -31.4160  -18.1480   20.6360 C   0  0  0  0  0  3  0  0  0  0  0  0
  -31.8640  -19.4820   20.7000 C   0  0  0  0  0  0  0  0  0  0  0  0
  -30.0720  -17.8030   20.4160 C   0  0  0  0  0  0  0  0  0  0  0  0
  -29.5940  -20.4750   20.2800 C   0  0  0  0  0  0  0  0  0  0  0  0
  -31.0020  -20.6050   20.5360 C   0  0  0  0  0  0  0  0  0  0  0  0
  -29.1830  -19.0080   20.2530 C   0  0  0  0  0  0  0  0  0  0  0  0
  -33.3510  -19.6930   20.9470 C   0  0  0  0  0  1  0  0  0  0  0  0
  -31.7880  -22.1490   20.6420 Cl  0  0  0  0  0  0  0  0  0  0  0  0
  -27.5110  -18.6060   20.0520 Cl  0  0  0  0  0  0  0  0  0  0  0  0
  -30.4910  -15.0660   20.3010 C   0  0  0  0  0  0  0  0  0  0  0  0
  -30.3630  -12.7000   19.3650 C   0  0  0  0  0  2  0  0  0  0  0  0
  -29.4230  -12.6360   18.1380 C   0  0  0  0  0  2  0  0  0  0  0  0
  -27.9640  -12.4190   18.5840 C   0  0  0  0  0  2  0  0  0  0  0  0
  -27.5630  -13.3420   19.7650 C   0  0  0  0  0  3  0  0  0  0  0  0
  -28.6290  -13.3760   20.8790 C   0  0  0  0  0  2  0  0  0  0  0  0
  -29.8840  -13.8060   20.2500 N   0  0  0  0  0  0  0  0  0  0  0  0
  -31.6980  -15.0810   20.0360 O   0  0  0  0  0  0  0  0  0  0  0  0
  -29.7290  -16.2830   20.4140 N   0  0  0  0  0  0  0  0  0  0  0  0
  -28.7390  -16.1030   20.4970 H   0  0  0  0  0  0  0  0  0  0  0  0
  -25.1940  -13.9090   20.5400 C   0  0  0  0  0  0  0  0  0  0  0  0
  -24.1340  -13.1310   20.9140 C   0  0  0  0  0  0  0  0  0  0  0  0
  -24.5980  -11.7800   20.8650 C   0  0  0  0  0  0  0  0  0  0  0  0
  -26.2340  -13.0330   20.2790 N   0  0  0  0  0  0  0  0  0  0  0  0
  -25.8870  -11.7460   20.5420 N   0  0  0  0  0  0  0  0  0  0  0  0
  -23.8720  -10.5160   21.0500 C   0  0  0  0  0  0  0  0  0  0  0  0
  -24.2980   -9.5470   21.9850 C   0  0  0  0  0  3  0  0  0  0  0  0
  -23.5690   -8.3500   22.1580 C   0  0  0  0  0  3  0  0  0  0  0  0
  -22.4000   -8.1140   21.3950 C   0  0  0  0  0  0  0  0  0  0  0  0
  -21.9930   -9.0720   20.4500 C   0  0  0  0  0  3  0  0  0  0  0  0
  -22.7230  -10.2600   20.2750 C   0  0  0  0  0  3  0  0  0  0  0  0
  -21.6440   -6.9700   21.4770 O   0  0  0  0  0  0  0  0  0  0  0  0
  -21.5730   -6.2360   22.6340 C   0  0  0  0  0  0  0  0  0  0  0  0
  -21.0780   -6.7850   23.8360 C   0  0  0  0  0  3  0  0  0  0  0  0
  -20.9570   -5.9750   24.9840 C   0  0  0  0  0  3  0  0  0  0  0  0
  -21.3220   -4.6170   24.9290 C   0  0  0  0  0  0  0  0  0  0  0  0
  -21.8110   -4.0650   23.7310 C   0  0  0  0  0  3  0  0  0  0  0  0
  -21.9320   -4.8730   22.5850 C   0  0  0  0  0  0  0  0  0  0  0  0
  -22.3840   -4.3330   21.4280 F   0  0  0  0  0  0  0  0  0  0  0  0
  -21.2000   -3.8360   26.0280 F   0  0  0  0  0  0  0  0  0  0  0  0
  -22.7400  -13.6060   21.1990 C   0  0  0  0  0  0  0  0  0  0  0  0
  -22.0180  -12.9060   22.0660 N   0  0  0  0  0  0  0  0  0  0  0  0
  -22.3010  -14.6360   20.6880 O   0  0  0  0  0  0  0  0  0  0  0  0
  -22.3870  -12.0740   22.5010 H   0  0  0  0  0  0  0  0  0  0  0  0
  -21.0820  -13.2080   22.2990 H   0  0  0  0  0  0  0  0  0  0  0  0
  -25.3540  -15.2810   20.3740 N   0  0  0  0  0  0  0  0  0  0  0  0
  -24.5820  -15.9270   20.4990 H   0  0  0  0  0  0  0  0  0  0  0  0
  -26.1850  -15.7300   20.0120 H   0  0  0  0  0  0  0  0  0  0  0  0
  -27.8100  -21.5300   18.9390 C   0  0  0  0  0  1  0  0  0  0  0  0
  -28.7540  -21.7310   20.0370 N   0  0  0  0  0  0  0  0  0  0  0  0
  -29.0510  -23.2800   20.2870 C   0  0  0  0  0  3  0  0  0  0  0  0
  -27.9820  -24.6050   20.0850 C   0  0  0  0  0  3  0  0  0  0  0  0
  -28.2470  -26.1460   20.2910 O   0  0  0  0  0  0  0  0  0  0  0  0
  -24.6110  -31.8930   23.2320 C   0  0  0  0  0  0  0  0  0  0  0  0
  -27.2000  -27.1510   20.2200 C   0  0  0  0  0  0  0  0  0  0  0  0
  -23.4240  -30.5040   21.5790 C   0  0  0  0  0  3  0  0  0  0  0  0
  -24.8810  -28.9230   20.1670 C   0  0  0  0  0  0  0  0  0  0  0  0
  -25.9810  -30.7560   21.4390 C   0  0  0  0  0  2  0  0  0  0  0  0
  -26.0580  -29.3620   20.7860 C   0  0  0  0  0  0  0  0  0  0  0  0
  -27.2190  -28.4920   20.7910 C   0  0  0  0  0  3  0  0  0  0  0  0
  -25.9930  -26.8220   19.5650 C   0  0  0  0  0  3  0  0  0  0  0  0
  -24.8630  -27.6680   19.5390 C   0  0  0  0  0  3  0  0  0  0  0  0
  -23.6560  -29.8260   20.2020 C   0  0  0  0  0  2  0  0  0  0  0  0
  -24.6910  -31.0730   22.1380 N   0  0  0  0  0  0  0  0  0  0  0  0
  -23.5200  -32.1790   23.7480 O   0  0  0  0  0  0  0  0  0  0  0  0
  -22.7290  -29.4990   22.5340 C   0  0  0  0  0  0  0  0  0  0  0  0
  -21.4020  -29.3320   22.3920 N   0  0  0  0  0  0  0  0  0  0  0  0
  -23.3900  -28.8720   23.3660 O   0  0  0  0  0  0  0  0  0  0  0  0
  -20.9250  -29.8890   21.6970 H   0  0  0  0  0  0  0  0  0  0  0  0
  -18.0110  -28.1490   22.8700 C   0  0  0  0  0  0  0  0  0  0  0  0
  -20.5700  -28.3960   23.1540 C   0  0  0  0  0  3  0  0  0  0  0  0
  -20.6670  -26.9670   22.5740 C   0  0  0  0  0  2  0  0  0  0  0  0
  -19.5700  -26.6540   21.5520 C   0  0  0  0  0  2  0  0  0  0  0  0
  -18.1850  -26.8030   22.1880 C   0  0  0  0  0  2  0  0  0  0  0  0
  -19.1310  -28.9040   23.3100 C   0  0  0  0  0  0  0  0  0  0  0  0
  -18.9130  -30.1630   23.9110 C   0  0  0  0  0  3  0  0  0  0  0  0
  -17.6100  -30.6680   24.0740 C   0  0  0  0  0  3  0  0  0  0  0  0
  -16.5050  -29.9110   23.6490 C   0  0  0  0  0  3  0  0  0  0  0  0
  -16.7060  -28.6530   23.0540 C   0  0  0  0  0  3  0  0  0  0  0  0
  -25.8820  -32.5270   23.8730 C   0  0  0  0  0  3  0  0  0  0  0  0
  -26.3730  -31.7590   25.1630 C   0  0  1  0  0  0  0  0  0  0  0  0
  -25.2590  -31.5290   26.2100 C   0  0  0  0  0  1  0  0  0  0  0  0
  -26.9590  -30.3780   24.7910 C   0  0  0  0  0  1  0  0  0  0  0  0
  -27.5110  -32.5520   25.8440 C   0  0  0  0  0  1  0  0  0  0  0  0
  -25.5710  -33.9270   24.2000 N   0  0  0  0  0  0  0  0  0  0  0  0
  -25.8870  -34.9810   23.4350 C   0  0  0  0  0  0  0  0  0  0  0  0
  -26.5380  -34.8750   22.3920 O   0  0  0  0  0  0  0  0  0  0  0  0
  -24.9930  -34.0820   25.0130 H   0  0  0  0  0  0  0  0  0  0  0  0
  -24.1400  -36.7660   23.1230 C   0  0  0  0  0  1  0  0  0  0  0  0
  -25.4070  -36.3710   23.8990 C   0  0  0  0  0  3  0  0  0  0  0  0
  -27.5550  -37.2830   24.6660 C   0  0  0  0  0  1  0  0  0  0  0  0
  -26.4300  -37.4290   23.7460 N   0  0  0  0  0  0  0  0  0  0  0  0
  -26.0210  -38.3480   23.8880 H   0  0  0  0  0  0  0  0  0  0  0  0
  1  2  1  0
  2  7  1  0
  3  1  2  0
  4  5  1  0
  5  8  1  0
  5  2  2  0
  6  4  2  0
  6  3  1  0
  9  6  1  0
 10 18  1  0
 11 16  1  0
 12 13  1  0
 12 11  1  0
 14 13  1  0
 14 23  1  0
 14 15  1  0
 16 10  1  0
 16 15  1  0
 17 10  2  0
 18  3  1  0
 18 19  1  0
 20 21  2  0
 21 40  1  0
 22 21  1  0
 22 25  1  0
 23 20  1  0
 23 24  1  0
 24 22  2  0
 25 26  1  0
 26 27  2  0
 28 31  1  0
 28 27  1  0
 29 28  2  0
 30 29  1  0
 30 25  2  0
 31 32  1  0
 32 33  1  0
 33 34  2  0
 35 34  1  0
 35 39  1  0
 36 35  2  0
 37 32  2  0
 37 36  1  0
 38 37  1  0
 40 41  1  0
 41 44  1  0
 41 43  1  0
 42 40  2  0
 45 46  1  0
 45 20  1  0
 47 45  1  0
 48 49  1  0
 49  4  1  0
 49 50  1  0
 51 50  2  0
 51 52  1  0
 53 64  2  0
 54 52  1  0
 54 59  1  0
 55 63  1  0
 55 65  1  0
 56 62  1  0
 56 58  1  0
 57 63  1  0
 58 59  2  0
 58 57  1  0
 60 54  2  0
 61 60  1  0
 61 56  2  0
 62 55  1  0
 63 53  1  0
 65 67  2  0
 66 65  1  0
 68 66  1  0
 69 78  2  0
 69 74  1  0
 70 66  1  0
 70 74  1  0
 71 70  1  0
 72 73  1  0
 72 71  1  0
 73 69  1  0
 74 75  2  0
 75 76  1  0
 77 76  2  0
 78 77  1  0
 79 53  1  0
 79 84  1  0
 79 80  1  0
 80 83  1  1
 80 81  1  0
 82 80  1  0
 84 87  1  0
 85 89  1  0
 85 84  1  0
 86 85  2  0
 89 88  1  0
 91 92  1  0
 91 89  1  0
 91 90  1  0
M  ISO  4  10 100  18 100  51 101  52 101
M  END
>  <TORSDO>  (36) 
F 19

>  <SCORE>  (36) 
-15.518

>  <name>  (36) 
36

>  <ligand_id>  (36) 
36

>  <original_smiles>  (36) 
[H]c1c([H])c([H])c2c(c1[H])C([H])([H])C([H])([H])C([H])([H])C2([H])N([H])C(=O)C1([H])N(C(=O)C([H])(N([H])C(=O)C([H])(N([H])C([H])([H])[H])C([H])([H])[H])C(C([H])([H])[H])(C([H])([H])[H])C([H])([H])[H])C([H])([H])c2c([H])c(OC([H])([H])C([H])([H])N(c3c(Cl)c(N([H])C(=O)N4C([H])([H])C([H])([H])C([H])([H])C([H])(n5nc(-c6c([H])c([H])c(Oc7c([H])c([H])c(F)c([H])c7F)c([H])c6[H])c(C(=O)N([H])[H])c5N([H])[H])C4([H])[H])c([H])c(C([H])([H])[H])c3Cl)C([H])([H])[H])c([H])c([H])c2C1([H])[H]

>  <smiles>  (36) 
[H]c1c([H])c([H])c2c(c1[H])C([H])([H])C([H])([H])C([H])([H])C2([H])N([H])C(=O)C1([H])N(C(=O)C([H])(N([H])C(=O)C([H])(N([H])C([H])([H])[H])C([H])([H])[H])C(C([H])([H])[H])(C([H])([H])[H])C([H])([H])[H])C([H])([H])c2c([H])c(OC([H])([H])C([H])([H])N(c3c(Cl)c(N([H])C(=O)N4C([H])([H])C([H])([H])C([H])([H])C([H])(n5nc(-c6c([H])c([H])c(Oc7c([H])c([H])c(F)c([H])c7F)c([H])c6[H])c(C(=O)N([H])[H])c5N([H])[H])C4([H])[H])c([H])c(C([H])([H])[H])c3Cl)C([H])([H])[H])c([H])c([H])c2C1([H])[H]

$$$$
37:0:0
     RDKit          3D

 92 99  0  0  1  0  0  0  0  0999 V2000
  -30.2040  -22.3000   21.5940 C   0  0  0  0  0  2  0  0  0  0  0  0
  -29.6240  -24.5400   20.5260 C   0  0  0  0  0  0  0  0  0  0  0  0
  -29.3880  -23.2390   20.7990 N   0  0  0  0  0  0  0  0  0  0  0  0
  -30.6540  -25.1140   20.8930 O   0  0  0  0  0  0  0  0  0  0  0  0
  -28.5080  -22.8770   20.4580 H   0  0  0  0  0  0  0  0  0  0  0  0
  -28.5320  -25.2970   19.7270 C   0  0  0  0  0  2  0  0  0  0  0  0
  -28.5290  -26.7140   20.0090 O   0  0  0  0  0  0  0  0  0  0  0  0
  -24.7040  -31.8420   23.1330 C   0  0  0  0  0  0  0  0  0  0  0  0
  -27.3370  -27.4230   19.9780 C   0  0  0  0  0  0  0  0  0  0  0  0
  -23.4860  -30.4620   21.4830 C   0  0  0  0  0  3  0  0  0  0  0  0
  -24.9290  -28.9360   20.0300 C   0  0  0  0  0  0  0  0  0  0  0  0
  -26.0120  -30.8110   21.2760 C   0  0  0  0  0  2  0  0  0  0  0  0
  -26.0900  -29.4470   20.6190 C   0  0  0  0  0  0  0  0  0  0  0  0
  -27.2900  -28.6990   20.5900 C   0  0  0  0  0  3  0  0  0  0  0  0
  -26.1540  -26.9370   19.3680 C   0  0  0  0  0  3  0  0  0  0  0  0
  -24.9580  -27.6790   19.4000 C   0  0  0  0  0  3  0  0  0  0  0  0
  -23.6850  -29.7960   20.0960 C   0  0  0  0  0  2  0  0  0  0  0  0
  -24.7530  -31.0540   22.0220 N   0  0  0  0  0  0  0  0  0  0  0  0
  -23.6270  -32.1120   23.6840 O   0  0  0  0  0  0  0  0  0  0  0  0
  -22.8360  -29.4330   22.4360 C   0  0  0  0  0  0  0  0  0  0  0  0
  -21.5050  -29.2780   22.3340 N   0  0  0  0  0  0  0  0  0  0  0  0
  -23.5250  -28.7780   23.2210 O   0  0  0  0  0  0  0  0  0  0  0  0
  -21.0090  -29.8580   21.6700 H   0  0  0  0  0  0  0  0  0  0  0  0
  -18.1180  -28.1490   22.8940 C   0  0  0  0  0  0  0  0  0  0  0  0
  -20.6880  -28.3390   23.1000 C   0  0  0  0  0  3  0  0  0  0  0  0
  -20.7390  -26.9230   22.4800 C   0  0  0  0  0  2  0  0  0  0  0  0
  -19.6010  -26.6560   21.4880 C   0  0  0  0  0  2  0  0  0  0  0  0
  -18.2420  -26.8150   22.1750 C   0  0  0  0  0  2  0  0  0  0  0  0
  -19.2660  -28.8710   23.3130 C   0  0  0  0  0  0  0  0  0  0  0  0
  -19.0940  -30.1230   23.9450 C   0  0  0  0  0  3  0  0  0  0  0  0
  -17.8070  -30.6510   24.1610 C   0  0  0  0  0  3  0  0  0  0  0  0
  -16.6740  -29.9240   23.7560 C   0  0  0  0  0  3  0  0  0  0  0  0
  -16.8300  -28.6750   23.1300 C   0  0  0  0  0  3  0  0  0  0  0  0
  -25.9970  -32.4610   23.7530 C   0  0  0  0  0  3  0  0  0  0  0  0
  -25.6810  -33.8380   24.1540 N   0  0  0  0  0  0  0  0  0  0  0  0
  -26.0190  -34.9290   23.4550 C   0  0  0  0  0  0  0  0  0  0  0  0
  -26.7020  -34.8820   22.4270 O   0  0  0  0  0  0  0  0  0  0  0  0
  -25.0770  -33.9480   24.9550 H   0  0  0  0  0  0  0  0  0  0  0  0
  -24.3000  -36.7410   23.1580 C   0  0  0  0  0  1  0  0  0  0  0  0
  -25.5200  -36.2900   23.9770 C   0  0  0  0  0  3  0  0  0  0  0  0
  -27.6310  -37.1210   24.9140 C   0  0  0  0  0  1  0  0  0  0  0  0
  -26.5550  -37.3460   23.9520 N   0  0  0  0  0  0  0  0  0  0  0  0
  -26.1460  -38.2580   24.1410 H   0  0  0  0  0  0  0  0  0  0  0  0
  -26.5540  -31.6390   24.9790 C   0  0  1  0  0  0  0  0  0  0  0  0
  -25.4910  -31.3410   26.0640 C   0  0  0  0  0  1  0  0  0  0  0  0
  -27.1400  -30.2860   24.5090 C   0  0  0  0  0  1  0  0  0  0  0  0
  -27.7140  -32.4150   25.6470 C   0  0  0  0  0  1  0  0  0  0  0  0
  -30.1690  -20.8760   20.9770 C   0  0  0  0  0  2  0  0  0  0  0  0
  -30.7640  -19.7040   21.8180 C   0  0  0  0  0  2  0  0  0  0  0  0
  -30.8390  -18.3810   20.9960 C   0  0  0  0  0  3  0  0  0  0  0  0
  -30.5050  -17.0180   21.7240 C   0  0  0  0  0  3  0  0  0  0  0  0
  -30.9490  -14.6680   20.9180 C   0  0  0  0  0  0  0  0  0  0  0  0
  -30.7580  -12.3900   19.9480 C   0  0  0  0  0  2  0  0  0  0  0  0
  -29.9230  -12.3830   18.6510 C   0  0  0  0  0  2  0  0  0  0  0  0
  -28.4200  -12.2470   18.9670 C   0  0  0  0  0  2  0  0  0  0  0  0
  -27.9330  -13.1940   20.0900 C   0  0  0  0  0  3  0  0  0  0  0  0
  -28.9060  -13.2150   21.2930 C   0  0  0  0  0  2  0  0  0  0  0  0
  -30.2590  -13.4930   20.7820 N   0  0  0  0  0  0  0  0  0  0  0  0
  -32.1750  -14.7060   20.8420 O   0  0  0  0  0  0  0  0  0  0  0  0
  -29.5020  -16.1240   19.7270 C   0  0  0  0  0  0  0  0  0  0  0  0
  -30.2480  -15.8460   20.8240 N   0  0  0  0  0  0  0  0  0  0  0  0
  -28.3960  -16.6760   19.8160 O   0  0  0  0  0  0  0  0  0  0  0  0
  -25.4980  -13.8200   20.6000 C   0  0  0  0  0  0  0  0  0  0  0  0
  -24.4040  -13.0540   20.8940 C   0  0  0  0  0  0  0  0  0  0  0  0
  -24.8720  -11.7050   20.9540 C   0  0  0  0  0  0  0  0  0  0  0  0
  -26.5580  -12.9330   20.4870 N   0  0  0  0  0  0  0  0  0  0  0  0
  -26.1850  -11.6620   20.7690 N   0  0  0  0  0  0  0  0  0  0  0  0
  -24.1420  -10.4430   21.1160 C   0  0  0  0  0  0  0  0  0  0  0  0
  -24.5130   -9.5040   22.1030 C   0  0  0  0  0  3  0  0  0  0  0  0
  -23.7840   -8.3040   22.2510 C   0  0  0  0  0  3  0  0  0  0  0  0
  -22.6760   -8.0390   21.4120 C   0  0  0  0  0  0  0  0  0  0  0  0
  -22.3270   -8.9680   20.4160 C   0  0  0  0  0  3  0  0  0  0  0  0
  -23.0550  -10.1590   20.2660 C   0  0  0  0  0  3  0  0  0  0  0  0
  -21.9260   -6.8880   21.4700 O   0  0  0  0  0  0  0  0  0  0  0  0
  -21.8000   -6.1690   22.6290 C   0  0  0  0  0  0  0  0  0  0  0  0
  -21.2920   -6.7470   23.8150 C   0  0  0  0  0  3  0  0  0  0  0  0
  -21.1140   -5.9520   24.9640 C   0  0  0  0  0  3  0  0  0  0  0  0
  -21.4350   -4.5810   24.9310 C   0  0  0  0  0  0  0  0  0  0  0  0
  -21.9370   -4.0050   23.7510 C   0  0  0  0  0  3  0  0  0  0  0  0
  -22.1170   -4.7960   22.6040 C   0  0  0  0  0  0  0  0  0  0  0  0
  -22.5820   -4.2330   21.4610 F   0  0  0  0  0  0  0  0  0  0  0  0
  -21.2580   -3.8140   26.0300 F   0  0  0  0  0  0  0  0  0  0  0  0
  -22.9860  -13.5300   21.0150 C   0  0  0  0  0  0  0  0  0  0  0  0
  -22.1860  -12.8620   21.8390 N   0  0  0  0  0  0  0  0  0  0  0  0
  -22.5950  -14.5300   20.4160 O   0  0  0  0  0  0  0  0  0  0  0  0
  -22.5140  -12.0570   22.3500 H   0  0  0  0  0  0  0  0  0  0  0  0
  -21.2300  -13.1620   21.9600 H   0  0  0  0  0  0  0  0  0  0  0  0
  -25.6710  -15.1850   20.3920 N   0  0  0  0  0  0  0  0  0  0  0  0
  -24.8910  -15.8310   20.4170 H   0  0  0  0  0  0  0  0  0  0  0  0
  -26.5490  -15.6460   20.1660 H   0  0  0  0  0  0  0  0  0  0  0  0
  -30.1010  -15.9150   18.3230 C   0  0  0  0  0  2  0  0  0  0  0  0
  -30.5150  -17.4910   17.5840 Cl  0  0  0  0  0  0  0  0  0  0  0  0
  2  3  1  0
  2  4  2  0
  3  1  1  0
  5  3  1  0
  6  7  1  0
  6  2  1  0
  8 19  2  0
  9  7  1  0
  9 14  1  0
 10 18  1  0
 10 20  1  0
 11 17  1  0
 11 13  1  0
 12 18  1  0
 13 12  1  0
 14 13  2  0
 15 16  1  0
 15  9  2  0
 16 11  2  0
 17 10  1  0
 18  8  1  0
 20 22  2  0
 21 20  1  0
 23 21  1  0
 24 33  2  0
 24 29  1  0
 25 21  1  0
 25 29  1  0
 26 25  1  0
 27 28  1  0
 27 26  1  0
 28 24  1  0
 29 30  2  0
 30 31  1  0
 32 31  2  0
 33 32  1  0
 34  8  1  0
 34 35  1  0
 34 44  1  0
 35 38  1  0
 36 40  1  0
 36 35  1  0
 37 36  2  0
 40 39  1  0
 42 40  1  0
 42 43  1  0
 42 41  1  0
 44 47  1  1
 44 45  1  0
 46 44  1  0
 48  1  1  0
 48 49  1  0
 50 51  2  0
 50 49  1  0
 53 58  1  0
 54 55  1  0
 54 53  1  0
 56 55  1  0
 56 66  1  0
 56 57  1  0
 58 52  1  0
 58 57  1  0
 59 52  2  0
 60 62  2  0
 60 61  1  0
 61 52  1  0
 61 51  1  0
 63 64  2  0
 64 65  1  0
 64 83  1  0
 65 68  1  0
 66 63  1  0
 66 67  1  0
 67 65  2  0
 68 69  1  0
 69 70  2  0
 71 74  1  0
 71 70  1  0
 72 71  2  0
 73 72  1  0
 73 68  2  0
 74 75  1  0
 75 76  1  0
 76 77  2  0
 78 77  1  0
 78 82  1  0
 79 78  2  0
 80 75  2  0
 80 79  1  0
 81 80  1  0
 83 84  1  0
 84 87  1  0
 84 86  1  0
 85 83  2  0
 88 89  1  0
 88 63  1  0
 90 88  1  0
 91 60  1  0
 92 91  1  0
M  ISO  4   6 101   7 101  52 100  61 100
M  END
>  <TORSDO>  (37) 
F 23

>  <SCORE>  (37) 
-12.014

>  <name>  (37) 
37

>  <ligand_id>  (37) 
37

>  <original_smiles>  (37) 
[H]c1c([H])c([H])c2c(c1[H])C([H])([H])C([H])([H])C([H])([H])C2([H])N([H])C(=O)C1([H])N(C(=O)C([H])(N([H])C(=O)C([H])(N([H])C([H])([H])[H])C([H])([H])[H])C(C([H])([H])[H])(C([H])([H])[H])C([H])([H])[H])C([H])([H])c2c([H])c(OC([H])([H])C(=O)N([H])C([H])([H])C([H])([H])C([H])([H])C([H])([H])C([H])([H])N(C(=O)N3C([H])([H])C([H])([H])C([H])([H])C([H])(n4nc(-c5c([H])c([H])c(Oc6c([H])c([H])c(F)c([H])c6F)c([H])c5[H])c(C(=O)N([H])[H])c4N([H])[H])C3([H])[H])C(=O)C([H])([H])Cl)c([H])c([H])c2C1([H])[H]

>  <smiles>  (37) 
[H]c1c([H])c([H])c2c(c1[H])C([H])([H])C([H])([H])C([H])([H])C2([H])N([H])C(=O)C1([H])N(C(=O)C([H])(N([H])C(=O)C([H])(N([H])C([H])([H])[H])C([H])([H])[H])C(C([H])([H])[H])(C([H])([H])[H])C([H])([H])[H])C([H])([H])c2c([H])c(OC([H])([H])C(=O)N([H])C([H])([H])C([H])([H])C([H])([H])C([H])([H])C([H])([H])N(C(=O)N3C([H])([H])C([H])([H])C([H])([H])C([H])(n4nc(-c5c([H])c([H])c(Oc6c([H])c([H])c(F)c([H])c6F)c([H])c5[H])c(C(=O)N([H])[H])c4N([H])[H])C3([H])[H])C(=O)C([H])([H])Cl)c([H])c([H])c2C1([H])[H]

$$$$
38:0:0
     RDKit          3D

 96104  0  0  1  0  0  0  0  0999 V2000
  -29.8470  -19.7880   18.9190 C   0  0  0  0  0  3  0  0  0  0  0  0
  -29.8800  -18.4670   18.4560 C   0  0  0  0  0  3  0  0  0  0  0  0
  -29.8410  -18.9440   21.1910 C   0  0  0  0  0  3  0  0  0  0  0  0
  -29.7570  -20.0920   20.2900 C   0  0  0  0  0  0  0  0  0  0  0  0
  -29.8240  -17.3550   19.3270 C   0  0  0  0  0  0  0  0  0  0  0  0
  -29.9120  -17.5540   20.7380 C   0  0  0  0  0  0  0  0  0  0  0  0
  -30.8370  -15.3610   21.8170 C   0  0  0  0  0  0  0  0  0  0  0  0
  -31.1320  -12.9330   21.3390 C   0  0  0  0  0  2  0  0  0  0  0  0
  -30.5300  -12.6500   19.9480 C   0  0  0  0  0  2  0  0  0  0  0  0
  -29.0120  -12.3840   20.0390 C   0  0  0  0  0  2  0  0  0  0  0  0
  -28.2660  -13.3970   20.9490 C   0  0  0  0  0  3  0  0  0  0  0  0
  -29.0220  -13.6410   22.2720 C   0  0  0  0  0  2  0  0  0  0  0  0
  -30.3850  -14.0670   21.9270 N   0  0  0  0  0  0  0  0  0  0  0  0
  -32.0480  -15.5860   21.7240 O   0  0  0  0  0  0  0  0  0  0  0  0
  -29.8990  -16.3680   21.6390 N   0  0  0  0  0  0  0  0  0  0  0  0
  -28.9790  -16.1180   21.9680 H   0  0  0  0  0  0  0  0  0  0  0  0
  -25.7510  -13.8090   21.2500 C   0  0  0  0  0  0  0  0  0  0  0  0
  -24.6910  -12.9550   21.3980 C   0  0  0  0  0  0  0  0  0  0  0  0
  -25.2440  -11.6370   21.4070 C   0  0  0  0  0  0  0  0  0  0  0  0
  -26.8770  -13.0060   21.1760 N   0  0  0  0  0  0  0  0  0  0  0  0
  -26.5680  -11.6940   21.3350 N   0  0  0  0  0  0  0  0  0  0  0  0
  -24.5850  -10.3250   21.4220 C   0  0  0  0  0  0  0  0  0  0  0  0
  -24.9050   -9.3480   22.3900 C   0  0  0  0  0  3  0  0  0  0  0  0
  -24.2440   -8.1010   22.3940 C   0  0  0  0  0  3  0  0  0  0  0  0
  -23.2500   -7.8200   21.4260 C   0  0  0  0  0  0  0  0  0  0  0  0
  -22.9510   -8.7880   20.4510 C   0  0  0  0  0  3  0  0  0  0  0  0
  -23.6140  -10.0270   20.4440 C   0  0  0  0  0  3  0  0  0  0  0  0
  -22.5730   -6.6280   21.3380 O   0  0  0  0  0  0  0  0  0  0  0  0
  -22.3410   -5.8490   22.4430 C   0  0  0  0  0  0  0  0  0  0  0  0
  -21.6540   -6.3440   23.5720 C   0  0  0  0  0  3  0  0  0  0  0  0
  -21.3750   -5.4890   24.6570 C   0  0  0  0  0  3  0  0  0  0  0  0
  -21.7720   -4.1380   24.6110 C   0  0  0  0  0  0  0  0  0  0  0  0
  -22.4510   -3.6430   23.4840 C   0  0  0  0  0  3  0  0  0  0  0  0
  -22.7310   -4.4940   22.4020 C   0  0  0  0  0  0  0  0  0  0  0  0
  -23.3670   -4.0060   21.3100 F   0  0  0  0  0  0  0  0  0  0  0  0
  -21.4980   -3.3150   25.6490 F   0  0  0  0  0  0  0  0  0  0  0  0
  -23.2370  -13.3310   21.4280 C   0  0  0  0  0  0  0  0  0  0  0  0
  -22.4200  -12.5650   22.1410 N   0  0  0  0  0  0  0  0  0  0  0  0
  -22.8270  -14.3410   20.8560 O   0  0  0  0  0  0  0  0  0  0  0  0
  -22.7600  -11.7500   22.6300 H   0  0  0  0  0  0  0  0  0  0  0  0
  -21.4380  -12.7980   22.2000 H   0  0  0  0  0  0  0  0  0  0  0  0
  -25.8490  -15.1930   21.1500 N   0  0  0  0  0  0  0  0  0  0  0  0
  -25.0280  -15.7870   21.1300 H   0  0  0  0  0  0  0  0  0  0  0  0
  -26.7050  -15.6960   20.9600 H   0  0  0  0  0  0  0  0  0  0  0  0
  -29.1160  -22.5860   19.9400 C   0  0  0  0  0  0  0  0  0  0  0  0
  -29.6720  -21.5310   20.6610 N   0  0  0  0  0  0  0  0  0  0  0  0
  -28.3210  -22.3500   19.0260 O   0  0  0  0  0  0  0  0  0  0  0  0
  -30.1430  -21.7920   21.5180 H   0  0  0  0  0  0  0  0  0  0  0  0
  -29.4130  -24.1300   20.2380 C   0  0  0  0  0  3  0  0  0  0  0  0
  -28.3990  -25.2410   19.6350 C   0  0  0  0  0  3  0  0  0  0  0  0
  -28.6200  -26.7270   19.7200 O   0  0  0  0  0  0  0  0  0  0  0  0
  -24.8670  -31.8630   23.1940 C   0  0  0  0  0  0  0  0  0  0  0  0
  -27.4970  -27.5890   19.7330 C   0  0  0  0  0  0  0  0  0  0  0  0
  -23.6500  -30.5550   21.4920 C   0  0  0  0  0  3  0  0  0  0  0  0
  -25.0960  -29.1610   19.9060 C   0  0  0  0  0  0  0  0  0  0  0  0
  -26.1760  -30.9520   21.2580 C   0  0  0  0  0  2  0  0  0  0  0  0
  -26.2720  -29.6260   20.5070 C   0  0  0  0  0  0  0  0  0  0  0  0
  -27.4730  -28.8530   20.4120 C   0  0  0  0  0  3  0  0  0  0  0  0
  -26.2960  -27.2020   19.0920 C   0  0  0  0  0  3  0  0  0  0  0  0
  -25.1130  -27.9570   19.1870 C   0  0  0  0  0  3  0  0  0  0  0  0
  -23.8380  -29.9930   20.0580 C   0  0  0  0  0  2  0  0  0  0  0  0
  -24.9170  -31.1380   22.0380 N   0  0  0  0  0  0  0  0  0  0  0  0
  -23.7930  -32.0690   23.7800 O   0  0  0  0  0  0  0  0  0  0  0  0
  -23.0450  -29.4510   22.3920 C   0  0  0  0  0  0  0  0  0  0  0  0
  -21.7250  -29.2270   22.2750 N   0  0  0  0  0  0  0  0  0  0  0  0
  -23.7630  -28.8020   23.1580 O   0  0  0  0  0  0  0  0  0  0  0  0
  -21.2030  -29.8090   21.6360 H   0  0  0  0  0  0  0  0  0  0  0  0
  -18.4200  -27.8120   22.6950 C   0  0  0  0  0  0  0  0  0  0  0  0
  -20.9590  -28.2080   22.9960 C   0  0  0  0  0  3  0  0  0  0  0  0
  -21.1460  -26.8130   22.3550 C   0  0  0  0  0  2  0  0  0  0  0  0
  -20.0700  -26.4750   21.3190 C   0  0  0  0  0  2  0  0  0  0  0  0
  -18.6790  -26.5080   21.9580 C   0  0  0  0  0  2  0  0  0  0  0  0
  -19.4900  -28.6170   23.1680 C   0  0  0  0  0  0  0  0  0  0  0  0
  -19.1950  -29.8360   23.8160 C   0  0  0  0  0  3  0  0  0  0  0  0
  -17.8620  -30.2510   23.9970 C   0  0  0  0  0  3  0  0  0  0  0  0
  -16.8070  -29.4430   23.5400 C   0  0  0  0  0  3  0  0  0  0  0  0
  -17.0870  -28.2250   22.8950 C   0  0  0  0  0  3  0  0  0  0  0  0
  -26.1510  -32.4860   23.8230 C   0  0  0  0  0  3  0  0  0  0  0  0
  -25.8070  -33.8390   24.2860 N   0  0  0  0  0  0  0  0  0  0  0  0
  -26.1220  -34.9700   23.6410 C   0  0  0  0  0  0  0  0  0  0  0  0
  -26.8040  -34.9840   22.6130 O   0  0  0  0  0  0  0  0  0  0  0  0
  -25.2020  -33.8990   25.0930 H   0  0  0  0  0  0  0  0  0  0  0  0
  -24.3670  -36.7620   23.4430 C   0  0  0  0  0  1  0  0  0  0  0  0
  -25.6010  -36.2950   24.2300 C   0  0  0  0  0  3  0  0  0  0  0  0
  -27.7100  -37.1210   25.1800 C   0  0  0  0  0  1  0  0  0  0  0  0
  -26.6150  -37.3720   24.2460 N   0  0  0  0  0  0  0  0  0  0  0  0
  -26.1910  -38.2630   24.4870 H   0  0  0  0  0  0  0  0  0  0  0  0
  -26.7410  -31.6280   25.0080 C   0  0  1  0  0  0  0  0  0  0  0  0
  -25.7020  -31.2680   26.0960 C   0  0  0  0  0  1  0  0  0  0  0  0
  -27.3460  -30.3060   24.4800 C   0  0  0  0  0  1  0  0  0  0  0  0
  -27.8950  -32.4000   25.6900 C   0  0  0  0  0  1  0  0  0  0  0  0
  -29.6010  -16.0770   18.7780 N   0  0  0  0  0  0  0  0  0  0  0  0
  -29.8200  -15.3050   19.3940 H   0  0  0  0  0  0  0  0  0  0  0  0
  -27.1200  -16.2040   18.7070 C   0  0  0  0  0  1  0  0  0  0  0  0
  -28.3500  -14.4590   17.3600 C   0  0  0  0  0  1  0  0  0  0  0  0
  -28.4110  -15.8760   17.9410 C   0  0  0  0  0  3  0  0  0  0  0  0
  1  4  1  0
  2  1  2  0
  2  5  1  0
  4 46  1  0
  4  3  2  0
  5  6  2  0
  6  3  1  0
  6 15  1  0
  7 13  1  0
  8 13  1  0
  9 10  1  0
  9  8  1  0
 11 10  1  0
 11 20  1  0
 11 12  1  0
 13 12  1  0
 14  7  2  0
 15  7  1  0
 15 16  1  0
 17 18  2  0
 18 19  1  0
 18 37  1  0
 19 22  1  0
 20 17  1  0
 20 21  1  0
 21 19  2  0
 22 23  1  0
 23 24  2  0
 25 24  1  0
 26 25  2  0
 27 26  1  0
 27 22  2  0
 28 25  1  0
 28 29  1  0
 29 30  1  0
 30 31  2  0
 32 31  1  0
 32 36  1  0
 33 32  2  0
 34 29  2  0
 34 33  1  0
 35 34  1  0
 37 38  1  0
 38 41  1  0
 38 40  1  0
 39 37  2  0
 42 17  1  0
 43 42  1  0
 44 42  1  0
 45 49  1  0
 45 46  1  0
 46 48  1  0
 47 45  2  0
 50 51  1  0
 50 49  2  0
 51 53  1  0
 52 63  2  0
 53 58  1  0
 54 62  1  0
 54 64  1  0
 55 61  1  0
 55 57  1  0
 56 62  1  0
 57 56  1  0
 58 57  2  0
 59 60  1  0
 59 53  2  0
 60 55  2  0
 61 54  1  0
 62 52  1  0
 64 66  2  0
 65 64  1  0
 67 65  1  0
 68 77  2  0
 68 73  1  0
 69 65  1  0
 69 73  1  0
 70 69  1  0
 71 72  1  0
 71 70  1  0
 72 68  1  0
 73 74  2  0
 74 75  1  0
 76 75  2  0
 77 76  1  0
 78 52  1  0
 78 79  1  0
 78 88  1  0
 79 82  1  0
 80 84  1  0
 80 79  1  0
 81 80  2  0
 84 83  1  0
 84 86  1  0
 86 87  1  0
 86 85  1  0
 88 91  1  1
 88 89  1  0
 90 88  1  0
 92  5  1  0
 92 93  1  0
 95 96  1  0
 96 94  1  0
 96 92  1  0
M  ISO  4   7 100  15 100  50 101  51 101
M  END
>  <TORSDO>  (38) 
F 21

>  <SCORE>  (38) 
-3.579

>  <name>  (38) 
38

>  <ligand_id>  (38) 
38

>  <original_smiles>  (38) 
[H]c1c([H])c([H])c2c(c1[H])C([H])([H])C([H])([H])C([H])([H])C2([H])N([H])C(=O)C1([H])N(C(=O)C([H])(N([H])C(=O)C([H])(N([H])C([H])([H])[H])C([H])([H])[H])C(C([H])([H])[H])(C([H])([H])[H])C([H])([H])[H])C([H])([H])c2c([H])c(OC([H])([H])C([H])([H])C(=O)N([H])c3c([H])c([H])c(N([H])C([H])(C([H])([H])[H])C([H])([H])[H])c(N([H])C(=O)N4C([H])([H])C([H])([H])C([H])([H])C([H])(n5nc(-c6c([H])c([H])c(Oc7c([H])c([H])c(F)c([H])c7F)c([H])c6[H])c(C(=O)N([H])[H])c5N([H])[H])C4([H])[H])c3[H])c([H])c([H])c2C1([H])[H]

>  <smiles>  (38) 
[H]c1c([H])c([H])c2c(c1[H])C([H])([H])C([H])([H])C([H])([H])C2([H])N([H])C(=O)C1([H])N(C(=O)C([H])(N([H])C(=O)C([H])(N([H])C([H])([H])[H])C([H])([H])[H])C(C([H])([H])[H])(C([H])([H])[H])C([H])([H])[H])C([H])([H])c2c([H])c(OC([H])([H])C([H])([H])C(=O)N([H])c3c([H])c([H])c(N([H])C([H])(C([H])([H])[H])C([H])([H])[H])c(N([H])C(=O)N4C([H])([H])C([H])([H])C([H])([H])C([H])(n5nc(-c6c([H])c([H])c(Oc7c([H])c([H])c(F)c([H])c7F)c([H])c6[H])c(C(=O)N([H])[H])c5N([H])[H])C4([H])[H])c3[H])c([H])c([H])c2C1([H])[H]

$$$$
39:0:0
     RDKit          3D

 89 97  0  0  1  0  0  0  0  0999 V2000
  -29.3110  -22.8040   19.2160 C   0  0  0  0  0  0  0  0  0  0  0  0
  -29.8770  -19.0130   17.8760 C   0  0  0  0  0  2  0  0  0  0  0  0
  -29.8960  -20.6190   17.9220 C   0  0  0  0  0  2  0  0  0  0  0  0
  -29.4690  -19.8630   20.0090 C   0  0  0  0  0  2  0  0  0  0  0  0
  -30.1980  -18.4330   19.2620 C   0  0  0  0  0  3  0  0  0  0  0  0
  -29.4410  -21.2780   19.2000 N   0  0  0  0  0  0  0  0  0  0  0  0
  -29.9360  -23.3210   18.2840 O   0  0  0  0  0  0  0  0  0  0  0  0
  -30.7740  -15.4530   19.1290 C   0  0  0  0  0  0  0  0  0  0  0  0
  -30.6660  -13.0070   18.1650 C   0  0  0  0  0  2  0  0  0  0  0  0
  -29.5590  -12.7590   17.1030 C   0  0  0  0  0  2  0  0  0  0  0  0
  -28.2090  -12.4340   17.7650 C   0  0  0  0  0  2  0  0  0  0  0  0
  -27.9360  -13.3480   18.9840 C   0  0  0  0  0  3  0  0  0  0  0  0
  -29.1590  -13.4890   19.9140 C   0  0  0  0  0  2  0  0  0  0  0  0
  -30.2350  -14.1130   19.1150 N   0  0  0  0  0  0  0  0  0  0  0  0
  -31.8910  -15.4720   18.5810 O   0  0  0  0  0  0  0  0  0  0  0  0
  -30.0850  -16.7460   19.5510 N   0  0  0  0  0  0  0  0  0  0  0  0
  -25.7860  -13.8200   20.2700 C   0  0  0  0  0  0  0  0  0  0  0  0
  -24.7970  -13.0180   20.7560 C   0  0  0  0  0  0  0  0  0  0  0  0
  -25.1830  -11.6800   20.4360 C   0  0  0  0  0  0  0  0  0  0  0  0
  -26.7250  -12.9770   19.7050 N   0  0  0  0  0  0  0  0  0  0  0  0
  -26.3850  -11.6700   19.8620 N   0  0  0  0  0  0  0  0  0  0  0  0
  -24.4420  -10.4220   20.5840 C   0  0  0  0  0  0  0  0  0  0  0  0
  -24.9360   -9.3610   21.3740 C   0  0  0  0  0  3  0  0  0  0  0  0
  -24.1900   -8.1720   21.5220 C   0  0  0  0  0  3  0  0  0  0  0  0
  -22.9360   -8.0350   20.8770 C   0  0  0  0  0  0  0  0  0  0  0  0
  -22.4600   -9.0860   20.0740 C   0  0  0  0  0  3  0  0  0  0  0  0
  -23.2060  -10.2670   19.9250 C   0  0  0  0  0  3  0  0  0  0  0  0
  -22.1560   -6.9060   20.9410 O   0  0  0  0  0  0  0  0  0  0  0  0
  -22.1040   -6.1300   22.0700 C   0  0  0  0  0  0  0  0  0  0  0  0
  -21.7090   -6.6570   23.3190 C   0  0  0  0  0  3  0  0  0  0  0  0
  -21.6040   -5.8080   24.4390 C   0  0  0  0  0  3  0  0  0  0  0  0
  -21.8820   -4.4350   24.3100 C   0  0  0  0  0  0  0  0  0  0  0  0
  -22.2690   -3.9060   23.0670 C   0  0  0  0  0  3  0  0  0  0  0  0
  -22.3770   -4.7520   21.9500 C   0  0  0  0  0  0  0  0  0  0  0  0
  -22.7310   -4.2350   20.7480 F   0  0  0  0  0  0  0  0  0  0  0  0
  -21.7730   -3.6170   25.3850 F   0  0  0  0  0  0  0  0  0  0  0  0
  -23.5130  -13.4800   21.3800 C   0  0  0  0  0  0  0  0  0  0  0  0
  -22.9560  -12.6960   22.2960 N   0  0  0  0  0  0  0  0  0  0  0  0
  -23.0210  -14.5710   21.0930 O   0  0  0  0  0  0  0  0  0  0  0  0
  -23.3750  -11.8140   22.5520 H   0  0  0  0  0  0  0  0  0  0  0  0
  -22.1020  -12.9850   22.7510 H   0  0  0  0  0  0  0  0  0  0  0  0
  -25.9320  -15.2000   20.2260 N   0  0  0  0  0  0  0  0  0  0  0  0
  -25.2310  -15.8180   20.6160 H   0  0  0  0  0  0  0  0  0  0  0  0
  -26.7190  -15.6920   19.8240 H   0  0  0  0  0  0  0  0  0  0  0  0
  -29.7290  -16.7430   20.9820 C   0  0  0  0  0  2  0  0  0  0  0  0
  -27.5000  -17.4540   22.0690 C   0  0  0  0  0  1  0  0  0  0  0  0
  -28.2480  -16.4110   21.2290 C   0  0  0  0  0  2  0  0  0  0  0  0
  -28.4560  -24.1190   20.0490 C   0  0  0  0  0  2  0  0  0  0  0  0
  -28.6380  -25.7880   19.8730 O   0  0  0  0  0  0  0  0  0  0  0  0
  -24.9000  -31.7190   22.9260 C   0  0  0  0  0  0  0  0  0  0  0  0
  -27.5940  -26.8800   19.8810 C   0  0  0  0  0  0  0  0  0  0  0  0
  -23.7500  -30.2980   21.2790 C   0  0  0  0  0  3  0  0  0  0  0  0
  -25.2460  -28.7330   19.8530 C   0  0  0  0  0  0  0  0  0  0  0  0
  -26.3160  -30.5640   21.1430 C   0  0  0  0  0  2  0  0  0  0  0  0
  -26.4270  -29.1570   20.4760 C   0  0  0  0  0  0  0  0  0  0  0  0
  -27.5950  -28.2550   20.4590 C   0  0  0  0  0  3  0  0  0  0  0  0
  -26.3710  -26.6220   19.2200 C   0  0  0  0  0  3  0  0  0  0  0  0
  -25.2450  -27.4870   19.2060 C   0  0  0  0  0  3  0  0  0  0  0  0
  -24.0060  -29.6290   19.9000 C   0  0  0  0  0  2  0  0  0  0  0  0
  -25.0100  -30.8900   21.8360 N   0  0  0  0  0  0  0  0  0  0  0  0
  -23.8000  -31.9750   23.4450 O   0  0  0  0  0  0  0  0  0  0  0  0
  -23.0800  -29.2800   22.2370 C   0  0  0  0  0  0  0  0  0  0  0  0
  -21.7410  -29.1510   22.1780 N   0  0  0  0  0  0  0  0  0  0  0  0
  -23.7720  -28.6040   23.0030 O   0  0  0  0  0  0  0  0  0  0  0  0
  -21.2340  -29.7500   21.5410 H   0  0  0  0  0  0  0  0  0  0  0  0
  -18.3550  -28.0580   22.8930 C   0  0  0  0  0  0  0  0  0  0  0  0
  -20.9380  -28.1970   22.9520 C   0  0  0  0  0  3  0  0  0  0  0  0
  -20.9200  -26.8060   22.2770 C   0  0  0  0  0  2  0  0  0  0  0  0
  -19.7250  -26.6060   21.3410 C   0  0  0  0  0  2  0  0  0  0  0  0
  -18.4090  -26.7590   22.1090 C   0  0  0  0  0  2  0  0  0  0  0  0
  -19.5400  -28.7420   23.2750 C   0  0  0  0  0  0  0  0  0  0  0  0
  -19.4290  -29.9630   23.9760 C   0  0  0  0  0  3  0  0  0  0  0  0
  -18.1670  -30.4990   24.2960 C   0  0  0  0  0  3  0  0  0  0  0  0
  -16.9980  -29.8110   23.9250 C   0  0  0  0  0  3  0  0  0  0  0  0
  -17.0940  -28.5920   23.2310 C   0  0  0  0  0  3  0  0  0  0  0  0
  -26.1470  -32.3960   23.5670 C   0  0  0  0  0  3  0  0  0  0  0  0
  -26.7180  -31.5970   24.8040 C   0  0  1  0  0  0  0  0  0  0  0  0
  -25.6540  -31.2620   25.8750 C   0  0  0  0  0  1  0  0  0  0  0  0
  -27.3630  -30.2650   24.3540 C   0  0  0  0  0  1  0  0  0  0  0  0
  -27.8390  -32.4190   25.4840 C   0  0  0  0  0  1  0  0  0  0  0  0
  -25.7640  -33.7570   23.9840 N   0  0  0  0  0  0  0  0  0  0  0  0
  -26.0200  -34.8750   23.2920 C   0  0  0  0  0  0  0  0  0  0  0  0
  -26.6660  -34.8720   22.2400 O   0  0  0  0  0  0  0  0  0  0  0  0
  -25.1850  -33.8300   24.8080 H   0  0  0  0  0  0  0  0  0  0  0  0
  -24.1970  -36.6010   23.0980 C   0  0  0  0  0  1  0  0  0  0  0  0
  -25.4780  -36.2070   23.8510 C   0  0  0  0  0  3  0  0  0  0  0  0
  -27.5820  -37.1540   24.6960 C   0  0  0  0  0  1  0  0  0  0  0  0
  -26.4540  -37.3180   23.7830 N   0  0  0  0  0  0  0  0  0  0  0  0
  -26.0040  -38.2050   23.9930 H   0  0  0  0  0  0  0  0  0  0  0  0
  1 48  1  0
  2  3  1  0
  2  5  1  0
  3  6  1  0
  5 16  1  0
  5  4  1  0
  6  1  1  0
  6  4  1  0
  7  1  2  0
  8 16  1  0
  9 14  1  0
 10 11  1  0
 10  9  1  0
 12 11  1  0
 12 20  1  0
 12 13  1  0
 14  8  1  0
 14 13  1  0
 15  8  2  0
 16 45  1  0
 17 18  2  0
 18 37  1  0
 19 22  1  0
 19 18  1  0
 20 21  1  0
 20 17  1  0
 21 19  2  0
 22 23  1  0
 23 24  2  0
 25 28  1  0
 25 24  1  0
 26 25  2  0
 27 26  1  0
 27 22  2  0
 28 29  1  0
 29 30  1  0
 30 31  2  0
 32 31  1  0
 32 36  1  0
 33 32  2  0
 34 29  2  0
 34 33  1  0
 35 34  1  0
 37 38  1  0
 38 40  1  0
 38 41  1  0
 39 37  2  0
 42 17  1  0
 42 43  1  0
 44 42  1  0
 45 47  1  0
 47 46  1  0
 49 51  1  0
 49 48  1  0
 50 61  2  0
 51 56  1  0
 52 60  1  0
 52 62  1  0
 53 59  1  0
 53 55  1  0
 54 60  1  0
 55 54  1  0
 56 55  2  0
 57 51  2  0
 58 57  1  0
 58 53  2  0
 59 52  1  0
 60 50  1  0
 62 64  2  0
 63 62  1  0
 65 63  1  0
 66 75  2  0
 66 71  1  0
 67 63  1  0
 67 71  1  0
 68 67  1  0
 69 70  1  0
 69 68  1  0
 70 66  1  0
 71 72  2  0
 72 73  1  0
 74 73  2  0
 75 74  1  0
 76 50  1  0
 76 81  1  0
 76 77  1  0
 77 80  1  1
 77 78  1  0
 79 77  1  0
 81 84  1  0
 82 86  1  0
 82 81  1  0
 83 82  2  0
 86 85  1  0
 88 86  1  0
 88 89  1  0
 88 87  1  0
M  ISO  4   8 100  16 100  48 101  49 101
M  END
>  <TORSDO>  (39) 
F 19

>  <SCORE>  (39) 
-6.354

>  <name>  (39) 
39

>  <ligand_id>  (39) 
39

>  <original_smiles>  (39) 
[H]c1c([H])c([H])c2c(c1[H])C([H])([H])C([H])([H])C([H])([H])C2([H])N([H])C(=O)C1([H])N(C(=O)C([H])(N([H])C(=O)C([H])(N([H])C([H])([H])[H])C([H])([H])[H])C(C([H])([H])[H])(C([H])([H])[H])C([H])([H])[H])C([H])([H])c2c([H])c(OC([H])([H])C(=O)N3C([H])([H])C([H])([H])C([H])(N(C(=O)N4C([H])([H])C([H])([H])C([H])([H])C([H])(n5nc(-c6c([H])c([H])c(Oc7c([H])c([H])c(F)c([H])c7F)c([H])c6[H])c(C(=O)N([H])[H])c5N([H])[H])C4([H])[H])C([H])([H])C([H])([H])C([H])([H])[H])C3([H])[H])c([H])c([H])c2C1([H])[H]

>  <smiles>  (39) 
[H]c1c([H])c([H])c2c(c1[H])C([H])([H])C([H])([H])C([H])([H])C2([H])N([H])C(=O)C1([H])N(C(=O)C([H])(N([H])C(=O)C([H])(N([H])C([H])([H])[H])C([H])([H])[H])C(C([H])([H])[H])(C([H])([H])[H])C([H])([H])[H])C([H])([H])c2c([H])c(OC([H])([H])C(=O)N3C([H])([H])C([H])([H])C([H])(N(C(=O)N4C([H])([H])C([H])([H])C([H])([H])C([H])(n5nc(-c6c([H])c([H])c(Oc7c([H])c([H])c(F)c([H])c7F)c([H])c6[H])c(C(=O)N([H])[H])c5N([H])[H])C4([H])[H])C([H])([H])C([H])([H])C([H])([H])[H])C3([H])[H])c([H])c([H])c2C1([H])[H]

$$$$
40:0:0
     RDKit          3D

 92100  0  0  1  0  0  0  0  0999 V2000
  -28.6720  -23.2970   20.2480 C   0  0  0  0  0  0  0  0  0  0  0  0
  -29.2290  -22.2260   19.4710 N   0  0  0  0  0  0  0  0  0  0  0  0
  -28.6050  -23.1600   21.4740 O   0  0  0  0  0  0  0  0  0  0  0  0
  -30.4130  -19.8900   19.0770 C   0  0  0  0  0  3  0  0  0  0  0  0
  -30.5820  -18.4520   19.2110 C   0  0  0  0  0  3  0  0  0  0  0  0
  -28.7650  -19.9020   20.7510 C   0  0  0  0  0  3  0  0  0  0  0  0
  -29.4720  -20.7220   19.8030 C   0  0  0  0  0  0  0  0  0  0  0  0
  -29.8360  -17.6360   20.1210 C   0  0  0  0  0  0  0  0  0  0  0  0
  -28.9350  -18.4570   20.8950 C   0  0  0  0  0  0  0  0  0  0  0  0
  -28.1650  -17.8240   21.8120 F   0  0  0  0  0  0  0  0  0  0  0  0
  -30.6030  -14.9890   19.8330 C   0  0  0  0  0  0  0  0  0  0  0  0
  -30.4000  -12.6710   18.8350 C   0  0  0  0  0  2  0  0  0  0  0  0
  -29.3660  -12.7110   17.6850 C   0  0  0  0  0  2  0  0  0  0  0  0
  -27.9290  -12.5050   18.2100 C   0  0  0  0  0  2  0  0  0  0  0  0
  -27.6430  -13.3420   19.4840 C   0  0  0  0  0  3  0  0  0  0  0  0
  -28.7950  -13.2970   20.5130 C   0  0  0  0  0  2  0  0  0  0  0  0
  -30.0220  -13.7190   19.8230 N   0  0  0  0  0  0  0  0  0  0  0  0
  -31.7390  -15.1020   19.3630 O   0  0  0  0  0  0  0  0  0  0  0  0
  -29.8380  -16.1050   20.2630 N   0  0  0  0  0  0  0  0  0  0  0  0
  -29.0460  -15.7920   20.8000 H   0  0  0  0  0  0  0  0  0  0  0  0
  -25.3520  -13.8950   20.4830 C   0  0  0  0  0  0  0  0  0  0  0  0
  -24.3130  -13.1150   20.9070 C   0  0  0  0  0  0  0  0  0  0  0  0
  -24.7460  -11.7610   20.7490 C   0  0  0  0  0  0  0  0  0  0  0  0
  -26.3520  -13.0210   20.0890 N   0  0  0  0  0  0  0  0  0  0  0  0
  -26.0020  -11.7280   20.3070 N   0  0  0  0  0  0  0  0  0  0  0  0
  -24.0130  -10.5010   20.9300 C   0  0  0  0  0  0  0  0  0  0  0  0
  -24.4800   -9.4940   21.8020 C   0  0  0  0  0  3  0  0  0  0  0  0
  -23.7480   -8.2990   21.9740 C   0  0  0  0  0  3  0  0  0  0  0  0
  -22.5330   -8.1030   21.2740 C   0  0  0  0  0  0  0  0  0  0  0  0
  -22.0830   -9.1000   20.3910 C   0  0  0  0  0  3  0  0  0  0  0  0
  -22.8140  -10.2870   20.2160 C   0  0  0  0  0  3  0  0  0  0  0  0
  -21.7660   -6.9680   21.3600 O   0  0  0  0  0  0  0  0  0  0  0  0
  -21.7230   -6.2140   22.5060 C   0  0  0  0  0  0  0  0  0  0  0  0
  -21.3170   -6.7590   23.7430 C   0  0  0  0  0  3  0  0  0  0  0  0
  -21.2200   -5.9310   24.8800 C   0  0  0  0  0  3  0  0  0  0  0  0
  -21.5180   -4.5590   24.7790 C   0  0  0  0  0  0  0  0  0  0  0  0
  -21.9100   -4.0100   23.5450 C   0  0  0  0  0  3  0  0  0  0  0  0
  -22.0110   -4.8370   22.4120 C   0  0  0  0  0  0  0  0  0  0  0  0
  -22.3730   -4.3020   21.2220 F   0  0  0  0  0  0  0  0  0  0  0  0
  -21.4170   -3.7610   25.8660 F   0  0  0  0  0  0  0  0  0  0  0  0
  -22.9590  -13.5970   21.3390 C   0  0  0  0  0  0  0  0  0  0  0  0
  -22.3080  -12.8750   22.2420 N   0  0  0  0  0  0  0  0  0  0  0  0
  -22.4920  -14.6530   20.9110 O   0  0  0  0  0  0  0  0  0  0  0  0
  -22.7000  -12.0260   22.6190 H   0  0  0  0  0  0  0  0  0  0  0  0
  -21.4020  -13.1830   22.5670 H   0  0  0  0  0  0  0  0  0  0  0  0
  -25.5230  -15.2720   20.3710 N   0  0  0  0  0  0  0  0  0  0  0  0
  -24.7700  -15.9220   20.5630 H   0  0  0  0  0  0  0  0  0  0  0  0
  -26.3330  -15.7200   19.9620 H   0  0  0  0  0  0  0  0  0  0  0  0
  -31.1990  -23.2480   18.2980 C   0  0  0  0  0  1  0  0  0  0  0  0
  -29.7740  -22.6430   18.1560 C   0  0  0  0  0  2  0  0  0  0  0  0
  -27.9920  -24.6990   19.6460 C   0  0  0  0  0  2  0  0  0  0  0  0
  -28.2290  -26.1410   20.1790 O   0  0  0  0  0  0  0  0  0  0  0  0
  -24.5880  -31.8160   23.1630 C   0  0  0  0  0  0  0  0  0  0  0  0
  -27.1890  -27.1400   20.0870 C   0  0  0  0  0  0  0  0  0  0  0  0
  -23.3970  -30.4150   21.5240 C   0  0  0  0  0  3  0  0  0  0  0  0
  -24.8530  -28.8730   20.0730 C   0  0  0  0  0  0  0  0  0  0  0  0
  -25.9510  -30.6950   21.3650 C   0  0  0  0  0  2  0  0  0  0  0  0
  -26.0260  -29.3100   20.7020 C   0  0  0  0  0  0  0  0  0  0  0  0
  -27.1920  -28.4530   20.7060 C   0  0  0  0  0  3  0  0  0  0  0  0
  -26.0010  -26.8270   19.3880 C   0  0  0  0  0  3  0  0  0  0  0  0
  -24.8530  -27.6450   19.4010 C   0  0  0  0  0  3  0  0  0  0  0  0
  -23.6170  -29.7550   20.1370 C   0  0  0  0  0  2  0  0  0  0  0  0
  -24.6640  -31.0010   22.0680 N   0  0  0  0  0  0  0  0  0  0  0  0
  -23.4990  -32.0880   23.6930 O   0  0  0  0  0  0  0  0  0  0  0  0
  -22.7360  -29.3920   22.4800 C   0  0  0  0  0  0  0  0  0  0  0  0
  -21.4120  -29.1970   22.3440 N   0  0  0  0  0  0  0  0  0  0  0  0
  -23.4120  -28.7820   23.3110 O   0  0  0  0  0  0  0  0  0  0  0  0
  -20.9230  -29.7410   21.6480 H   0  0  0  0  0  0  0  0  0  0  0  0
  -18.0500  -27.9390   22.8380 C   0  0  0  0  0  0  0  0  0  0  0  0
  -20.6040  -28.2480   23.1140 C   0  0  0  0  0  3  0  0  0  0  0  0
  -20.7320  -26.8160   22.5460 C   0  0  0  0  0  2  0  0  0  0  0  0
  -19.6410  -26.4680   21.5280 C   0  0  0  0  0  2  0  0  0  0  0  0
  -18.2510  -26.5930   22.1610 C   0  0  0  0  0  2  0  0  0  0  0  0
  -19.1520  -28.7220   23.2680 C   0  0  0  0  0  0  0  0  0  0  0  0
  -18.9060  -29.9800   23.8610 C   0  0  0  0  0  3  0  0  0  0  0  0
  -17.5920  -30.4560   24.0220 C   0  0  0  0  0  3  0  0  0  0  0  0
  -16.5050  -29.6710   23.6030 C   0  0  0  0  0  3  0  0  0  0  0  0
  -16.7340  -28.4120   23.0190 C   0  0  0  0  0  3  0  0  0  0  0  0
  -25.8630  -32.4620   23.7870 C   0  0  0  0  0  3  0  0  0  0  0  0
  -26.3590  -31.7140   25.0850 C   0  0  1  0  0  0  0  0  0  0  0  0
  -25.2540  -31.5100   26.1490 C   0  0  0  0  0  1  0  0  0  0  0  0
  -26.9350  -30.3230   24.7340 C   0  0  0  0  0  1  0  0  0  0  0  0
  -27.5140  -32.5110   25.7380 C   0  0  0  0  0  1  0  0  0  0  0  0
  -25.5440  -33.8630   24.1000 N   0  0  0  0  0  0  0  0  0  0  0  0
  -25.8500  -34.9100   23.3220 C   0  0  0  0  0  0  0  0  0  0  0  0
  -26.5040  -34.7980   22.2820 O   0  0  0  0  0  0  0  0  0  0  0  0
  -24.9650  -34.0230   24.9120 H   0  0  0  0  0  0  0  0  0  0  0  0
  -24.0900  -36.6790   22.9890 C   0  0  0  0  0  1  0  0  0  0  0  0
  -25.3590  -36.3020   23.7710 C   0  0  0  0  0  3  0  0  0  0  0  0
  -27.5050  -37.2210   24.5310 C   0  0  0  0  0  1  0  0  0  0  0  0
  -26.3750  -37.3670   23.6170 N   0  0  0  0  0  0  0  0  0  0  0  0
  -25.9630  -38.2850   23.7650 H   0  0  0  0  0  0  0  0  0  0  0  0
  1  3  2  0
  2  7  1  0
  2  1  1  0
  4  5  2  0
  4  7  1  0
  5  8  1  0
  6  9  1  0
  7  6  2  0
  8 19  1  0
  8  9  2  0
  9 10  1  0
 11 19  1  0
 12 17  1  0
 13 14  1  0
 13 12  1  0
 15 14  1  0
 15 24  1  0
 15 16  1  0
 17 11  1  0
 17 16  1  0
 18 11  2  0
 19 20  1  0
 21 22  2  0
 22 41  1  0
 23 22  1  0
 23 26  1  0
 24 25  1  0
 24 21  1  0
 25 23  2  0
 26 27  1  0
 27 28  2  0
 29 32  1  0
 29 28  1  0
 30 29  2  0
 31 30  1  0
 31 26  2  0
 32 33  1  0
 33 34  1  0
 34 35  2  0
 36 35  1  0
 36 40  1  0
 37 36  2  0
 38 33  2  0
 38 37  1  0
 39 38  1  0
 41 42  1  0
 42 45  1  0
 42 44  1  0
 43 41  2  0
 46 21  1  0
 46 47  1  0
 48 46  1  0
 50 49  1  0
 50  2  1  0
 51 52  1  0
 51  1  1  0
 53 64  2  0
 54 52  1  0
 54 59  1  0
 55 63  1  0
 55 65  1  0
 56 62  1  0
 56 58  1  0
 57 63  1  0
 58 59  2  0
 58 57  1  0
 60 61  1  0
 60 54  2  0
 61 56  2  0
 62 55  1  0
 63 53  1  0
 65 67  2  0
 66 65  1  0
 68 66  1  0
 69 78  2  0
 69 74  1  0
 70 66  1  0
 70 74  1  0
 71 70  1  0
 72 73  1  0
 72 71  1  0
 73 69  1  0
 74 75  2  0
 75 76  1  0
 77 76  2  0
 78 77  1  0
 79 53  1  0
 79 84  1  0
 79 80  1  0
 80 83  1  1
 80 81  1  0
 82 80  1  0
 84 87  1  0
 85 89  1  0
 85 84  1  0
 86 85  2  0
 89 88  1  0
 91 92  1  0
 91 89  1  0
 91 90  1  0
M  ISO  4  11 100  19 100  51 101  52 101
M  END
>  <TORSDO>  (40) 
F 19

>  <SCORE>  (40) 
-12.501

>  <name>  (40) 
40

>  <ligand_id>  (40) 
40

>  <original_smiles>  (40) 
[H]c1c([H])c([H])c2c(c1[H])C([H])([H])C([H])([H])C([H])([H])C2([H])N([H])C(=O)C1([H])N(C(=O)C([H])(N([H])C(=O)C([H])(N([H])C([H])([H])[H])C([H])([H])[H])C(C([H])([H])[H])(C([H])([H])[H])C([H])([H])[H])C([H])([H])c2c([H])c(OC([H])([H])C(=O)N(c3c([H])c([H])c(N([H])C(=O)N4C([H])([H])C([H])([H])C([H])([H])C([H])(n5nc(-c6c([H])c([H])c(Oc7c([H])c([H])c(F)c([H])c7F)c([H])c6[H])c(C(=O)N([H])[H])c5N([H])[H])C4([H])[H])c(F)c3[H])C([H])([H])C([H])([H])[H])c([H])c([H])c2C1([H])[H]

>  <smiles>  (40) 
[H]c1c([H])c([H])c2c(c1[H])C([H])([H])C([H])([H])C([H])([H])C2([H])N([H])C(=O)C1([H])N(C(=O)C([H])(N([H])C(=O)C([H])(N([H])C([H])([H])[H])C([H])([H])[H])C(C([H])([H])[H])(C([H])([H])[H])C([H])([H])[H])C([H])([H])c2c([H])c(OC([H])([H])C(=O)N(c3c([H])c([H])c(N([H])C(=O)N4C([H])([H])C([H])([H])C([H])([H])C([H])(n5nc(-c6c([H])c([H])c(Oc7c([H])c([H])c(F)c([H])c7F)c([H])c6[H])c(C(=O)N([H])[H])c5N([H])[H])C4([H])[H])c(F)c3[H])C([H])([H])C([H])([H])[H])c([H])c([H])c2C1([H])[H]

$$$$
41:0:0
     RDKit          3D

 92100  0  0  1  0  0  0  0  0999 V2000
  -28.8600  -22.4790   20.1720 C   0  0  0  0  0  0  0  0  0  0  0  0
  -29.8500  -21.5370   20.2620 N   0  0  0  0  0  0  0  0  0  0  0  0
  -27.6840  -22.1670   19.9720 O   0  0  0  0  0  0  0  0  0  0  0  0
  -30.7770  -21.9330   20.3270 H   0  0  0  0  0  0  0  0  0  0  0  0
  -31.0270  -19.3400   20.1400 C   0  0  0  0  0  3  0  0  0  0  0  0
  -31.0810  -17.9150   20.2060 C   0  0  0  0  0  3  0  0  0  0  0  0
  -28.6460  -19.2890   20.4840 C   0  0  0  0  0  3  0  0  0  0  0  0
  -29.8130  -20.0710   20.2750 C   0  0  0  0  0  0  0  0  0  0  0  0
  -29.9110  -17.1420   20.4250 C   0  0  0  0  0  0  0  0  0  0  0  0
  -28.6990  -17.8680   20.5590 C   0  0  0  0  0  0  0  0  0  0  0  0
  -27.5540  -17.1750   20.7700 F   0  0  0  0  0  0  0  0  0  0  0  0
  -30.6110  -14.6660   20.0610 C   0  0  0  0  0  0  0  0  0  0  0  0
  -30.3240  -12.4760   18.9270 C   0  0  0  0  0  2  0  0  0  0  0  0
  -29.3130  -12.6620   17.7740 C   0  0  0  0  0  2  0  0  0  0  0  0
  -27.8650  -12.4990   18.2800 C   0  0  0  0  0  2  0  0  0  0  0  0
  -27.5860  -13.3180   19.5680 C   0  0  0  0  0  3  0  0  0  0  0  0
  -28.7030  -13.0990   20.6140 C   0  0  0  0  0  2  0  0  0  0  0  0
  -29.9850  -13.4500   19.9810 N   0  0  0  0  0  0  0  0  0  0  0  0
  -31.7420  -14.8410   19.5970 O   0  0  0  0  0  0  0  0  0  0  0  0
  -29.8410  -15.6890   20.5390 N   0  0  0  0  0  0  0  0  0  0  0  0
  -28.9620  -15.3710   20.9160 H   0  0  0  0  0  0  0  0  0  0  0  0
  -25.2350  -13.9130   20.4230 C   0  0  0  0  0  0  0  0  0  0  0  0
  -24.1840  -13.1360   20.8290 C   0  0  0  0  0  0  0  0  0  0  0  0
  -24.6350  -11.7840   20.7400 C   0  0  0  0  0  0  0  0  0  0  0  0
  -26.2620  -13.0340   20.1160 N   0  0  0  0  0  0  0  0  0  0  0  0
  -25.9090  -11.7480   20.3640 N   0  0  0  0  0  0  0  0  0  0  0  0
  -23.9130  -10.5210   20.9380 C   0  0  0  0  0  0  0  0  0  0  0  0
  -24.3490   -9.5590   21.8760 C   0  0  0  0  0  3  0  0  0  0  0  0
  -23.6270   -8.3610   22.0590 C   0  0  0  0  0  3  0  0  0  0  0  0
  -22.4530   -8.1160   21.3060 C   0  0  0  0  0  0  0  0  0  0  0  0
  -22.0350   -9.0680   20.3600 C   0  0  0  0  0  3  0  0  0  0  0  0
  -22.7590  -10.2580   20.1740 C   0  0  0  0  0  3  0  0  0  0  0  0
  -21.7010   -6.9710   21.4000 O   0  0  0  0  0  0  0  0  0  0  0  0
  -21.6030   -6.2690   22.5750 C   0  0  0  0  0  0  0  0  0  0  0  0
  -21.1050   -6.8600   23.7570 C   0  0  0  0  0  3  0  0  0  0  0  0
  -20.9550   -6.0830   24.9230 C   0  0  0  0  0  3  0  0  0  0  0  0
  -21.2920   -4.7160   24.9080 C   0  0  0  0  0  0  0  0  0  0  0  0
  -21.7830   -4.1240   23.7310 C   0  0  0  0  0  3  0  0  0  0  0  0
  -21.9340   -4.8980   22.5670 C   0  0  0  0  0  0  0  0  0  0  0  0
  -22.3880   -4.3190   21.4290 F   0  0  0  0  0  0  0  0  0  0  0  0
  -21.1410   -3.9670   26.0250 F   0  0  0  0  0  0  0  0  0  0  0  0
  -22.8070  -13.6140   21.1890 C   0  0  0  0  0  0  0  0  0  0  0  0
  -22.1240  -12.9050   22.0810 N   0  0  0  0  0  0  0  0  0  0  0  0
  -22.3450  -14.6510   20.7140 O   0  0  0  0  0  0  0  0  0  0  0  0
  -22.5110  -12.0650   22.4880 H   0  0  0  0  0  0  0  0  0  0  0  0
  -21.2030  -13.2080   22.3630 H   0  0  0  0  0  0  0  0  0  0  0  0
  -25.3950  -15.2880   20.2780 N   0  0  0  0  0  0  0  0  0  0  0  0
  -24.6450  -15.9360   20.4870 H   0  0  0  0  0  0  0  0  0  0  0  0
  -26.2590  -15.7540   20.0330 H   0  0  0  0  0  0  0  0  0  0  0  0
  -29.2320  -24.0100   20.3100 C   0  0  0  0  0  3  0  0  0  0  0  0
  -28.1180  -25.0750   19.9290 C   0  0  0  0  0  3  0  0  0  0  0  0
  -28.3460  -26.5170   20.1790 O   0  0  0  0  0  0  0  0  0  0  0  0
  -24.6150  -31.8690   23.2600 C   0  0  0  0  0  0  0  0  0  0  0  0
  -27.2260  -27.3640   20.1360 C   0  0  0  0  0  0  0  0  0  0  0  0
  -23.4110  -30.4940   21.6030 C   0  0  0  0  0  3  0  0  0  0  0  0
  -24.8600  -28.9710   20.1540 C   0  0  0  0  0  0  0  0  0  0  0  0
  -25.9500  -30.8190   21.4230 C   0  0  0  0  0  2  0  0  0  0  0  0
  -26.0300  -29.4510   20.7570 C   0  0  0  0  0  0  0  0  0  0  0  0
  -27.2160  -28.6590   20.7390 C   0  0  0  0  0  3  0  0  0  0  0  0
  -26.0310  -26.9410   19.5060 C   0  0  0  0  0  3  0  0  0  0  0  0
  -24.8630  -27.7210   19.5210 C   0  0  0  0  0  3  0  0  0  0  0  0
  -23.6240  -29.8430   20.2130 C   0  0  0  0  0  2  0  0  0  0  0  0
  -24.6780  -31.0760   22.1520 N   0  0  0  0  0  0  0  0  0  0  0  0
  -23.5310  -32.1390   23.7990 O   0  0  0  0  0  0  0  0  0  0  0  0
  -22.7510  -29.4610   22.5480 C   0  0  0  0  0  0  0  0  0  0  0  0
  -21.4260  -29.2830   22.4170 N   0  0  0  0  0  0  0  0  0  0  0  0
  -23.4300  -28.8230   23.3570 O   0  0  0  0  0  0  0  0  0  0  0  0
  -20.9360  -29.8490   21.7380 H   0  0  0  0  0  0  0  0  0  0  0  0
  -18.0450  -28.0970   22.9120 C   0  0  0  0  0  0  0  0  0  0  0  0
  -20.6060  -28.3370   23.1760 C   0  0  0  0  0  3  0  0  0  0  0  0
  -20.6980  -26.9150   22.5750 C   0  0  0  0  0  2  0  0  0  0  0  0
  -19.5890  -26.6160   21.5620 C   0  0  0  0  0  2  0  0  0  0  0  0
  -18.2110  -26.7570   22.2150 C   0  0  0  0  0  2  0  0  0  0  0  0
  -19.1690  -28.8440   23.3510 C   0  0  0  0  0  0  0  0  0  0  0  0
  -18.9600  -30.0990   23.9650 C   0  0  0  0  0  3  0  0  0  0  0  0
  -17.6580  -30.6040   24.1450 C   0  0  0  0  0  3  0  0  0  0  0  0
  -16.5480  -29.8520   23.7220 C   0  0  0  0  0  3  0  0  0  0  0  0
  -16.7430  -28.6000   23.1120 C   0  0  0  0  0  3  0  0  0  0  0  0
  -25.8980  -32.4930   23.8910 C   0  0  0  0  0  3  0  0  0  0  0  0
  -26.4020  -31.7150   25.1690 C   0  0  1  0  0  0  0  0  0  0  0  0
  -25.3010  -31.4810   26.2290 C   0  0  0  0  0  1  0  0  0  0  0  0
  -26.9820  -30.3360   24.7770 C   0  0  0  0  0  1  0  0  0  0  0  0
  -27.5530  -32.5020   25.8390 C   0  0  0  0  0  1  0  0  0  0  0  0
  -25.5940  -33.8910   24.2220 N   0  0  0  0  0  0  0  0  0  0  0  0
  -25.9140  -34.9420   23.4550 C   0  0  0  0  0  0  0  0  0  0  0  0
  -26.5670  -34.8350   22.4130 O   0  0  0  0  0  0  0  0  0  0  0  0
  -25.0100  -34.0480   25.0320 H   0  0  0  0  0  0  0  0  0  0  0  0
  -24.1690  -36.7260   23.1380 C   0  0  0  0  0  1  0  0  0  0  0  0
  -25.4340  -36.3330   23.9160 C   0  0  0  0  0  3  0  0  0  0  0  0
  -27.5850  -37.2360   24.6830 C   0  0  0  0  0  1  0  0  0  0  0  0
  -26.4590  -37.3880   23.7660 N   0  0  0  0  0  0  0  0  0  0  0  0
  -26.0520  -38.3090   23.9130 H   0  0  0  0  0  0  0  0  0  0  0  0
  1  2  1  0
  1 50  1  0
  2  8  1  0
  2  4  1  0
  3  1  2  0
  5  6  2  0
  5  8  1  0
  6  9  1  0
  7 10  1  0
  8  7  2  0
  9 20  1  0
  9 10  2  0
 10 11  1  0
 12 20  1  0
 13 18  1  0
 14 15  1  0
 14 13  1  0
 16 15  1  0
 16 25  1  0
 16 17  1  0
 18 12  1  0
 18 17  1  0
 19 12  2  0
 20 21  1  0
 22 23  2  0
 23 42  1  0
 24 23  1  0
 24 27  1  0
 25 26  1  0
 25 22  1  0
 26 24  2  0
 27 28  1  0
 28 29  2  0
 30 33  1  0
 30 29  1  0
 31 30  2  0
 32 31  1  0
 32 27  2  0
 33 34  1  0
 34 35  1  0
 35 36  2  0
 37 36  1  0
 37 41  1  0
 38 37  2  0
 39 34  2  0
 39 38  1  0
 40 39  1  0
 42 43  1  0
 43 46  1  0
 43 45  1  0
 44 42  2  0
 47 22  1  0
 47 48  1  0
 49 47  1  0
 51 52  1  0
 51 50  2  0
 53 64  2  0
 54 52  1  0
 54 59  1  0
 55 63  1  0
 55 65  1  0
 56 62  1  0
 56 58  1  0
 57 63  1  0
 58 57  1  0
 59 58  2  0
 60 61  1  0
 60 54  2  0
 61 56  2  0
 62 55  1  0
 63 53  1  0
 65 67  2  0
 66 65  1  0
 68 66  1  0
 69 78  2  0
 69 74  1  0
 70 66  1  0
 70 74  1  0
 71 70  1  0
 72 73  1  0
 72 71  1  0
 73 69  1  0
 74 75  2  0
 75 76  1  0
 77 76  2  0
 78 77  1  0
 79 53  1  0
 79 84  1  0
 79 80  1  0
 80 83  1  1
 80 81  1  0
 82 80  1  0
 84 87  1  0
 85 89  1  0
 85 84  1  0
 86 85  2  0
 89 88  1  0
 91 92  1  0
 91 89  1  0
 91 90  1  0
M  ISO  4  12 100  20 100  51 101  52 101
M  END
>  <TORSDO>  (41) 
F 19

>  <SCORE>  (41) 
-14.241

>  <name>  (41) 
41

>  <ligand_id>  (41) 
41

>  <original_smiles>  (41) 
[H]c1c([H])c([H])c2c(c1[H])C([H])([H])C([H])([H])C([H])([H])C2([H])N([H])C(=O)C1([H])N(C(=O)C([H])(N([H])C(=O)C([H])(N([H])C([H])([H])[H])C([H])([H])[H])C(C([H])([H])[H])(C([H])([H])[H])C([H])([H])[H])C([H])([H])c2c([H])c(OC([H])([H])C([H])([H])C(=O)N([H])c3c([H])c([H])c(N([H])C(=O)N4C([H])([H])C([H])([H])C([H])([H])C([H])(n5nc(-c6c([H])c([H])c(Oc7c([H])c([H])c(F)c([H])c7F)c([H])c6[H])c(C(=O)N([H])[H])c5N([H])[H])C4([H])[H])c(F)c3[H])c([H])c([H])c2C1([H])[H]

>  <smiles>  (41) 
[H]c1c([H])c([H])c2c(c1[H])C([H])([H])C([H])([H])C([H])([H])C2([H])N([H])C(=O)C1([H])N(C(=O)C([H])(N([H])C(=O)C([H])(N([H])C([H])([H])[H])C([H])([H])[H])C(C([H])([H])[H])(C([H])([H])[H])C([H])([H])[H])C([H])([H])c2c([H])c(OC([H])([H])C([H])([H])C(=O)N([H])c3c([H])c([H])c(N([H])C(=O)N4C([H])([H])C([H])([H])C([H])([H])C([H])(n5nc(-c6c([H])c([H])c(Oc7c([H])c([H])c(F)c([H])c7F)c([H])c6[H])c(C(=O)N([H])[H])c5N([H])[H])C4([H])[H])c(F)c3[H])c([H])c([H])c2C1([H])[H]

$$$$
42:0:0
     RDKit          3D

 98106  0  0  1  0  0  0  0  0999 V2000
  -31.0070  -21.4120   21.3920 C   0  0  0  0  0  0  0  0  0  0  0  0
  -30.3170  -20.7290   20.5480 N   0  0  0  0  0  0  0  0  0  0  0  0
  -29.6500  -18.5980   21.5250 C   0  0  0  0  0  3  0  0  0  0  0  0
  -31.1050  -17.2410   19.5410 C   0  0  0  0  0  3  0  0  0  0  0  0
  -29.6920  -17.1880   21.5320 C   0  0  0  0  0  0  0  0  0  0  0  0
  -30.3430  -19.3330   20.5410 C   0  0  0  0  0  0  0  0  0  0  0  0
  -30.4270  -16.4950   20.5380 C   0  0  0  0  0  0  0  0  0  0  0  0
  -31.0640  -18.6470   19.5430 C   0  0  0  0  0  0  0  0  0  0  0  0
  -28.9390  -16.4320   22.6150 C   0  0  0  0  0  1  0  0  0  0  0  0
  -31.7270  -19.3380   18.5840 F   0  0  0  0  0  0  0  0  0  0  0  0
  -30.9000  -14.1870   19.6860 C   0  0  0  0  0  0  0  0  0  0  0  0
  -30.4190  -12.0720   18.5200 C   0  0  0  0  0  2  0  0  0  0  0  0
  -29.3080  -12.3170   17.4760 C   0  0  0  0  0  2  0  0  0  0  0  0
  -27.9130  -12.1780   18.1140 C   0  0  0  0  0  2  0  0  0  0  0  0
  -27.7740  -12.9870   19.4320 C   0  0  0  0  0  3  0  0  0  0  0  0
  -28.9740  -12.7100   20.3650 C   0  0  0  0  0  2  0  0  0  0  0  0
  -30.2140  -13.0170   19.6260 N   0  0  0  0  0  0  0  0  0  0  0  0
  -31.8830  -14.4280   18.9780 O   0  0  0  0  0  0  0  0  0  0  0  0
  -30.4020  -15.0700   20.5650 N   0  0  0  0  0  0  0  0  0  0  0  0
  -29.7340  -14.6680   21.2040 H   0  0  0  0  0  0  0  0  0  0  0  0
  -25.5880  -13.5980   20.6510 C   0  0  0  0  0  0  0  0  0  0  0  0
  -24.5360  -12.8330   21.0790 C   0  0  0  0  0  0  0  0  0  0  0  0
  -24.8680  -11.4840   20.7440 C   0  0  0  0  0  0  0  0  0  0  0  0
  -26.5000  -12.7140   20.0950 N   0  0  0  0  0  0  0  0  0  0  0  0
  -26.0780  -11.4280   20.2020 N   0  0  0  0  0  0  0  0  0  0  0  0
  -24.0810  -10.2490   20.8570 C   0  0  0  0  0  0  0  0  0  0  0  0
  -24.4650   -9.2060   21.7290 C   0  0  0  0  0  3  0  0  0  0  0  0
  -23.6830   -8.0350   21.8330 C   0  0  0  0  0  3  0  0  0  0  0  0
  -22.5030   -7.9000   21.0640 C   0  0  0  0  0  0  0  0  0  0  0  0
  -22.1380   -8.9310   20.1800 C   0  0  0  0  0  3  0  0  0  0  0  0
  -22.9210  -10.0930   20.0740 C   0  0  0  0  0  3  0  0  0  0  0  0
  -21.6960   -6.7890   21.0810 O   0  0  0  0  0  0  0  0  0  0  0  0
  -21.4070   -6.1270   22.2470 C   0  0  0  0  0  0  0  0  0  0  0  0
  -20.8090   -6.7810   23.3460 C   0  0  0  0  0  3  0  0  0  0  0  0
  -20.4650   -6.0470   24.4990 C   0  0  0  0  0  3  0  0  0  0  0  0
  -20.7070   -4.6620   24.5520 C   0  0  0  0  0  0  0  0  0  0  0  0
  -21.2960   -4.0080   23.4550 C   0  0  0  0  0  3  0  0  0  0  0  0
  -21.6410   -4.7380   22.3050 C   0  0  0  0  0  0  0  0  0  0  0  0
  -22.1890   -4.1000   21.2430 F   0  0  0  0  0  0  0  0  0  0  0  0
  -20.3690   -3.9550   25.6560 F   0  0  0  0  0  0  0  0  0  0  0  0
  -23.2530  -13.3290   21.6790 C   0  0  0  0  0  0  0  0  0  0  0  0
  -22.6470  -12.5450   22.5640 N   0  0  0  0  0  0  0  0  0  0  0  0
  -22.8030  -14.4400   21.4010 O   0  0  0  0  0  0  0  0  0  0  0  0
  -23.0260  -11.6420   22.8070 H   0  0  0  0  0  0  0  0  0  0  0  0
  -21.7920  -12.8530   23.0050 H   0  0  0  0  0  0  0  0  0  0  0  0
  -25.8380  -14.9670   20.6730 N   0  0  0  0  0  0  0  0  0  0  0  0
  -25.1610  -15.6350   21.0260 H   0  0  0  0  0  0  0  0  0  0  0  0
  -26.6610  -15.4070   20.2790 H   0  0  0  0  0  0  0  0  0  0  0  0
  -31.0280  -22.9400   21.2900 C   0  0  0  0  0  0  0  0  0  0  0  0
  -30.1740  -23.4250   20.3740 N   0  0  0  0  0  0  0  0  0  0  0  0
  -31.7700  -23.6650   21.9600 O   0  0  0  0  0  0  0  0  0  0  0  0
  -29.6210  -22.7350   19.8790 H   0  0  0  0  0  0  0  0  0  0  0  0
  -30.0750  -24.8320   20.0010 C   0  0  0  0  0  2  0  0  0  0  0  0
  -28.6770  -25.2220   19.5030 C   0  0  0  0  0  2  0  0  0  0  0  0
  -28.6450  -26.6420   19.5370 O   0  0  0  0  0  0  0  0  0  0  0  0
  -24.6560  -31.3500   23.0170 C   0  0  0  0  0  0  0  0  0  0  0  0
  -27.4210  -27.2580   19.6070 C   0  0  0  0  0  0  0  0  0  0  0  0
  -23.4810  -30.0390   21.2760 C   0  0  0  0  0  3  0  0  0  0  0  0
  -24.9700  -28.6520   19.7420 C   0  0  0  0  0  0  0  0  0  0  0  0
  -25.9880  -30.4970   21.0930 C   0  0  0  0  0  2  0  0  0  0  0  0
  -26.1110  -29.1800   20.3570 C   0  0  0  0  0  0  0  0  0  0  0  0
  -27.3380  -28.4910   20.2830 C   0  0  0  0  0  3  0  0  0  0  0  0
  -26.2620  -26.7230   19.0010 C   0  0  0  0  0  3  0  0  0  0  0  0
  -25.0380  -27.4200   19.0630 C   0  0  0  0  0  3  0  0  0  0  0  0
  -23.7010  -29.4650   19.8510 C   0  0  0  0  0  2  0  0  0  0  0  0
  -24.7270  -30.6380   21.8560 N   0  0  0  0  0  0  0  0  0  0  0  0
  -23.5710  -31.5480   23.5810 O   0  0  0  0  0  0  0  0  0  0  0  0
  -22.8660  -28.9310   22.1600 C   0  0  0  0  0  0  0  0  0  0  0  0
  -21.5510  -28.7070   22.0080 N   0  0  0  0  0  0  0  0  0  0  0  0
  -23.5690  -28.2780   22.9370 O   0  0  0  0  0  0  0  0  0  0  0  0
  -21.0450  -29.2900   21.3550 H   0  0  0  0  0  0  0  0  0  0  0  0
  -18.2180  -27.3780   22.4030 C   0  0  0  0  0  0  0  0  0  0  0  0
  -20.7650  -27.6900   22.7050 C   0  0  0  0  0  3  0  0  0  0  0  0
  -20.9130  -26.3110   22.0220 C   0  0  0  0  0  2  0  0  0  0  0  0
  -19.8230  -26.0320   20.9840 C   0  0  0  0  0  2  0  0  0  0  0  0
  -18.4370  -26.0870   21.6320 C   0  0  0  0  0  2  0  0  0  0  0  0
  -19.3110  -28.1370   22.8940 C   0  0  0  0  0  0  0  0  0  0  0  0
  -19.0550  -29.3470   23.5750 C   0  0  0  0  0  3  0  0  0  0  0  0
  -17.7350  -29.7970   23.7720 C   0  0  0  0  0  3  0  0  0  0  0  0
  -16.6550  -29.0310   23.3000 C   0  0  0  0  0  3  0  0  0  0  0  0
  -16.8970  -27.8240   22.6200 C   0  0  0  0  0  3  0  0  0  0  0  0
  -25.9290  -31.9670   23.6770 C   0  0  0  0  0  3  0  0  0  0  0  0
  -25.6000  -33.3440   24.0680 N   0  0  0  0  0  0  0  0  0  0  0  0
  -25.8930  -34.4300   23.3410 C   0  0  0  0  0  0  0  0  0  0  0  0
  -26.5390  -34.3800   22.2900 O   0  0  0  0  0  0  0  0  0  0  0  0
  -25.0210  -33.4550   24.8870 H   0  0  0  0  0  0  0  0  0  0  0  0
  -24.1080  -36.1860   23.1030 C   0  0  0  0  0  1  0  0  0  0  0  0
  -25.3850  -35.7890   23.8600 C   0  0  0  0  0  3  0  0  0  0  0  0
  -27.5170  -36.7070   24.6590 C   0  0  0  0  0  1  0  0  0  0  0  0
  -26.3870  -36.8720   23.7500 N   0  0  0  0  0  0  0  0  0  0  0  0
  -25.9610  -37.7770   23.9330 H   0  0  0  0  0  0  0  0  0  0  0  0
  -26.4470  -31.1420   24.9180 C   0  0  1  0  0  0  0  0  0  0  0  0
  -25.3480  -30.8330   25.9610 C   0  0  0  0  0  1  0  0  0  0  0  0
  -27.0590  -29.7980   24.4600 C   0  0  0  0  0  1  0  0  0  0  0  0
  -27.5760  -31.9220   25.6330 C   0  0  0  0  0  1  0  0  0  0  0  0
  -33.3680  -20.8790   22.3050 C   0  0  0  0  0  1  0  0  0  0  0  0
  -31.4290  -21.2580   23.9360 C   0  0  0  0  0  1  0  0  0  0  0  0
  -31.8490  -20.7720   22.5360 C   0  0  0  0  0  3  0  0  0  0  0  0
  1 98  1  0
  2  1  2  0
  3  5  1  0
  4  8  2  0
  4  7  1  0
  5  9  1  0
  6  2  1  0
  6  3  2  0
  7 19  1  0
  7  5  2  0
  8  6  1  0
 10  8  1  0
 11 19  1  0
 12 17  1  0
 13 14  1  0
 13 12  1  0
 15 14  1  0
 15 24  1  0
 15 16  1  0
 17 11  1  0
 17 16  1  0
 18 11  2  0
 19 20  1  0
 21 46  1  0
 21 22  2  0
 22 41  1  0
 23 26  1  0
 23 22  1  0
 24 25  1  0
 24 21  1  0
 25 23  2  0
 26 27  1  0
 27 28  2  0
 29 32  1  0
 29 28  1  0
 30 29  2  0
 31 30  1  0
 31 26  2  0
 32 33  1  0
 33 38  2  0
 33 34  1  0
 34 35  2  0
 35 36  1  0
 36 40  1  0
 37 36  2  0
 38 37  1  0
 39 38  1  0
 41 42  1  0
 42 44  1  0
 42 45  1  0
 43 41  2  0
 46 47  1  0
 48 46  1  0
 49  1  1  0
 49 51  2  0
 50 49  1  0
 52 50  1  0
 53 50  1  0
 54 55  1  0
 54 53  1  0
 55 57  1  0
 56 67  2  0
 57 62  1  0
 58 66  1  0
 58 68  1  0
 59 65  1  0
 59 61  1  0
 60 66  1  0
 61 60  1  0
 62 61  2  0
 63 64  1  0
 63 57  2  0
 64 59  2  0
 65 58  1  0
 66 56  1  0
 68 70  2  0
 69 68  1  0
 71 69  1  0
 72 81  2  0
 72 77  1  0
 73 69  1  0
 73 77  1  0
 74 73  1  0
 75 76  1  0
 75 74  1  0
 76 72  1  0
 77 78  2  0
 78 79  1  0
 80 79  2  0
 81 80  1  0
 82 56  1  0
 82 83  1  0
 82 92  1  0
 83 86  1  0
 84 88  1  0
 84 83  1  0
 85 84  2  0
 88 87  1  0
 90 88  1  0
 90 91  1  0
 90 89  1  0
 92 95  1  1
 92 93  1  0
 94 92  1  0
 96 98  1  0
 98 97  1  0
M  ISO  4  11 100  19 100  54 101  55 101
M  END
>  <TORSDO>  (42) 
F 21

>  <SCORE>  (42) 
-7.147

>  <name>  (42) 
42

>  <ligand_id>  (42) 
42

>  <original_smiles>  (42) 
[H]c1c([H])c([H])c2c(c1[H])C([H])([H])C([H])([H])C([H])([H])C2([H])N([H])C(=O)C1([H])N(C(=O)C([H])(N([H])C(=O)C([H])(N([H])C([H])([H])[H])C([H])([H])[H])C(C([H])([H])[H])(C([H])([H])[H])C([H])([H])[H])C([H])([H])c2c([H])c(OC([H])([H])C([H])([H])N([H])C(=O)C(=Nc3c([H])c(C([H])([H])[H])c(N([H])C(=O)N4C([H])([H])C([H])([H])C([H])([H])C([H])(n5nc(-c6c([H])c([H])c(Oc7c([H])c([H])c(F)c([H])c7F)c([H])c6[H])c(C(=O)N([H])[H])c5N([H])[H])C4([H])[H])c([H])c3F)C([H])(C([H])([H])[H])C([H])([H])[H])c([H])c([H])c2C1([H])[H]

>  <smiles>  (42) 
[H]c1c([H])c([H])c2c(c1[H])C([H])([H])C([H])([H])C([H])([H])C2([H])N([H])C(=O)C1([H])N(C(=O)C([H])(N([H])C(=O)C([H])(N([H])C([H])([H])[H])C([H])([H])[H])C(C([H])([H])[H])(C([H])([H])[H])C([H])([H])[H])C([H])([H])c2c([H])c(OC([H])([H])C([H])([H])N([H])C(=O)C(=Nc3c([H])c(C([H])([H])[H])c(N([H])C(=O)N4C([H])([H])C([H])([H])C([H])([H])C([H])(n5nc(-c6c([H])c([H])c(Oc7c([H])c([H])c(F)c([H])c7F)c([H])c6[H])c(C(=O)N([H])[H])c5N([H])[H])C4([H])[H])c([H])c3F)C([H])(C([H])([H])[H])C([H])([H])[H])c([H])c([H])c2C1([H])[H]

$$$$
43:0:0
     RDKit          3D

 92100  0  0  1  0  0  0  0  0999 V2000
  -30.7700  -20.6480   21.0470 C   0  0  0  0  0  3  0  0  0  0  0  0
  -31.5890  -19.5380   21.3500 C   0  0  0  0  0  3  0  0  0  0  0  0
  -29.4750  -20.5190   20.4960 C   0  0  0  0  0  0  0  0  0  0  0  0
  -29.9680  -17.8480   20.5460 C   0  0  0  0  0  0  0  0  0  0  0  0
  -31.2110  -18.1970   21.1290 C   0  0  0  0  0  0  0  0  0  0  0  0
  -29.1120  -19.0660   20.2590 C   0  0  0  0  0  0  0  0  0  0  0  0
  -32.0700  -17.2380   21.5470 F   0  0  0  0  0  0  0  0  0  0  0  0
  -27.5470  -18.7630   19.5960 Cl  0  0  0  0  0  0  0  0  0  0  0  0
  -30.4280  -15.1040   20.2570 C   0  0  0  0  0  0  0  0  0  0  0  0
  -30.3130  -12.7330   19.3050 C   0  0  0  0  0  2  0  0  0  0  0  0
  -29.3570  -12.6430   18.0930 C   0  0  0  0  0  2  0  0  0  0  0  0
  -27.9100  -12.4000   18.5620 C   0  0  0  0  0  2  0  0  0  0  0  0
  -27.5110  -13.3250   19.7410 C   0  0  0  0  0  3  0  0  0  0  0  0
  -28.5910  -13.3820   20.8420 C   0  0  0  0  0  2  0  0  0  0  0  0
  -29.8310  -13.8360   20.1950 N   0  0  0  0  0  0  0  0  0  0  0  0
  -31.6280  -15.1260   19.9630 O   0  0  0  0  0  0  0  0  0  0  0  0
  -29.6530  -16.3190   20.3810 N   0  0  0  0  0  0  0  0  0  0  0  0
  -28.6650  -16.1290   20.3810 H   0  0  0  0  0  0  0  0  0  0  0  0
  -25.1480  -13.8700   20.5470 C   0  0  0  0  0  0  0  0  0  0  0  0
  -24.1000  -13.0820   20.9310 C   0  0  0  0  0  0  0  0  0  0  0  0
  -24.5750  -11.7350   20.8740 C   0  0  0  0  0  0  0  0  0  0  0  0
  -26.1920  -13.0040   20.2710 N   0  0  0  0  0  0  0  0  0  0  0  0
  -25.8590  -11.7140   20.5360 N   0  0  0  0  0  0  0  0  0  0  0  0
  -23.8610  -10.4650   21.0640 C   0  0  0  0  0  0  0  0  0  0  0  0
  -24.3170   -9.4900   21.9770 C   0  0  0  0  0  3  0  0  0  0  0  0
  -23.6000   -8.2860   22.1570 C   0  0  0  0  0  3  0  0  0  0  0  0
  -22.4130   -8.0510   21.4240 C   0  0  0  0  0  0  0  0  0  0  0  0
  -21.9750   -9.0160   20.5000 C   0  0  0  0  0  3  0  0  0  0  0  0
  -22.6930  -10.2100   20.3180 C   0  0  0  0  0  3  0  0  0  0  0  0
  -21.6650   -6.9010   21.5150 O   0  0  0  0  0  0  0  0  0  0  0  0
  -21.6470   -6.1440   22.6590 C   0  0  0  0  0  0  0  0  0  0  0  0
  -21.2410   -6.6790   23.9000 C   0  0  0  0  0  3  0  0  0  0  0  0
  -21.1690   -5.8480   25.0350 C   0  0  0  0  0  3  0  0  0  0  0  0
  -21.4920   -4.4830   24.9320 C   0  0  0  0  0  0  0  0  0  0  0  0
  -21.8920   -3.9460   23.6940 C   0  0  0  0  0  3  0  0  0  0  0  0
  -21.9650   -4.7750   22.5610 C   0  0  0  0  0  0  0  0  0  0  0  0
  -22.3300   -4.2480   21.3670 F   0  0  0  0  0  0  0  0  0  0  0  0
  -21.4170   -3.6820   26.0200 F   0  0  0  0  0  0  0  0  0  0  0  0
  -22.7050  -13.5460   21.2330 C   0  0  0  0  0  0  0  0  0  0  0  0
  -22.0000  -12.8370   22.1090 N   0  0  0  0  0  0  0  0  0  0  0  0
  -22.2500  -14.5720   20.7310 O   0  0  0  0  0  0  0  0  0  0  0  0
  -22.3820  -12.0070   22.5370 H   0  0  0  0  0  0  0  0  0  0  0  0
  -21.0650  -13.1300   22.3540 H   0  0  0  0  0  0  0  0  0  0  0  0
  -25.2940  -15.2440   20.3790 N   0  0  0  0  0  0  0  0  0  0  0  0
  -24.5170  -15.8820   20.5090 H   0  0  0  0  0  0  0  0  0  0  0  0
  -26.1110  -15.6960   19.9930 H   0  0  0  0  0  0  0  0  0  0  0  0
  -28.9020  -23.2630   20.4320 C   0  0  0  0  0  0  0  0  0  0  0  0
  -28.6630  -21.8410   20.2440 N   0  0  0  0  0  0  0  0  0  0  0  0
  -29.9930  -23.6210   20.8830 O   0  0  0  0  0  0  0  0  0  0  0  0
  -27.7430  -21.6670   19.8610 H   0  0  0  0  0  0  0  0  0  0  0  0
  -27.8500  -24.5410   20.0990 C   0  0  0  0  0  2  0  0  0  0  0  0
  -28.1690  -26.0830   20.3310 O   0  0  0  0  0  0  0  0  0  0  0  0
  -24.6310  -31.9290   23.2640 C   0  0  0  0  0  0  0  0  0  0  0  0
  -27.1500  -27.1260   20.2530 C   0  0  0  0  0  0  0  0  0  0  0  0
  -23.4190  -30.5410   21.6300 C   0  0  0  0  0  3  0  0  0  0  0  0
  -24.8500  -28.9400   20.2090 C   0  0  0  0  0  0  0  0  0  0  0  0
  -25.9800  -30.7630   21.4700 C   0  0  0  0  0  2  0  0  0  0  0  0
  -26.0380  -29.3620   20.8200 C   0  0  0  0  0  0  0  0  0  0  0  0
  -27.1880  -28.4720   20.8220 C   0  0  0  0  0  3  0  0  0  0  0  0
  -25.9360  -26.8240   19.5970 C   0  0  0  0  0  3  0  0  0  0  0  0
  -24.8160  -27.6870   19.5800 C   0  0  0  0  0  3  0  0  0  0  0  0
  -23.6350  -29.8560   20.2540 C   0  0  0  0  0  2  0  0  0  0  0  0
  -24.6970  -31.1010   22.1760 N   0  0  0  0  0  0  0  0  0  0  0  0
  -23.5480  -32.2280   23.7890 O   0  0  0  0  0  0  0  0  0  0  0  0
  -22.7250  -29.5460   22.5970 C   0  0  0  0  0  0  0  0  0  0  0  0
  -21.3960  -29.3880   22.4690 N   0  0  0  0  0  0  0  0  0  0  0  0
  -23.3880  -28.9200   23.4280 O   0  0  0  0  0  0  0  0  0  0  0  0
  -20.9160  -29.9440   21.7750 H   0  0  0  0  0  0  0  0  0  0  0  0
  -18.0050  -28.2070   22.9670 C   0  0  0  0  0  0  0  0  0  0  0  0
  -20.5640  -28.4610   23.2440 C   0  0  0  0  0  3  0  0  0  0  0  0
  -20.6610  -27.0230   22.6810 C   0  0  0  0  0  2  0  0  0  0  0  0
  -19.5620  -26.6970   21.6640 C   0  0  0  0  0  2  0  0  0  0  0  0
  -18.1790  -26.8530   22.3000 C   0  0  0  0  0  2  0  0  0  0  0  0
  -19.1250  -28.9690   23.3960 C   0  0  0  0  0  0  0  0  0  0  0  0
  -18.9060  -30.2350   23.9810 C   0  0  0  0  0  3  0  0  0  0  0  0
  -17.6030  -30.7410   24.1400 C   0  0  0  0  0  3  0  0  0  0  0  0
  -16.4970  -29.9770   23.7260 C   0  0  0  0  0  3  0  0  0  0  0  0
  -16.6990  -28.7120   23.1460 C   0  0  0  0  0  3  0  0  0  0  0  0
  -25.9130  -32.5570   23.8910 C   0  0  0  0  0  3  0  0  0  0  0  0
  -25.6110  -33.9590   24.2250 N   0  0  0  0  0  0  0  0  0  0  0  0
  -25.9260  -35.0130   23.4600 C   0  0  0  0  0  0  0  0  0  0  0  0
  -26.5680  -34.9080   22.4120 O   0  0  0  0  0  0  0  0  0  0  0  0
  -25.0380  -34.1130   25.0410 H   0  0  0  0  0  0  0  0  0  0  0  0
  -24.1810  -36.8050   23.1780 C   0  0  0  0  0  1  0  0  0  0  0  0
  -25.4590  -36.4040   23.9340 C   0  0  0  0  0  3  0  0  0  0  0  0
  -27.6250  -37.3010   24.6640 C   0  0  0  0  0  1  0  0  0  0  0  0
  -26.4830  -37.4590   23.7680 N   0  0  0  0  0  0  0  0  0  0  0  0
  -26.0810  -38.3790   23.9250 H   0  0  0  0  0  0  0  0  0  0  0  0
  -26.4180  -31.7850   25.1730 C   0  0  1  0  0  0  0  0  0  0  0  0
  -25.3180  -31.5640   26.2380 C   0  0  0  0  0  1  0  0  0  0  0  0
  -26.9890  -30.4000   24.7930 C   0  0  0  0  0  1  0  0  0  0  0  0
  -27.5740  -32.5710   25.8340 C   0  0  0  0  0  1  0  0  0  0  0  0
  1  2  1  0
  3  1  2  0
  4  5  1  0
  5  2  2  0
  5  7  1  0
  6  3  1  0
  6  4  2  0
  8  6  1  0
  9 17  1  0
 10 15  1  0
 11 12  1  0
 11 10  1  0
 13 12  1  0
 13 22  1  0
 13 14  1  0
 15  9  1  0
 15 14  1  0
 16  9  2  0
 17 18  1  0
 17  4  1  0
 19 20  2  0
 20 39  1  0
 21 20  1  0
 21 24  1  0
 22 23  1  0
 22 19  1  0
 23 21  2  0
 24 25  1  0
 25 26  2  0
 27 30  1  0
 27 26  1  0
 28 27  2  0
 29 28  1  0
 29 24  2  0
 30 31  1  0
 31 32  1  0
 32 33  2  0
 34 33  1  0
 34 38  1  0
 35 34  2  0
 36 31  2  0
 36 35  1  0
 37 36  1  0
 39 40  1  0
 40 43  1  0
 40 42  1  0
 41 39  2  0
 44 45  1  0
 44 19  1  0
 46 44  1  0
 47 49  2  0
 48 47  1  0
 48  3  1  0
 50 48  1  0
 51 52  1  0
 51 47  1  0
 53 64  2  0
 54 52  1  0
 54 59  1  0
 55 63  1  0
 55 65  1  0
 56 62  1  0
 56 58  1  0
 57 63  1  0
 58 59  2  0
 58 57  1  0
 60 54  2  0
 61 60  1  0
 61 56  2  0
 62 55  1  0
 63 53  1  0
 65 67  2  0
 66 65  1  0
 68 66  1  0
 69 78  2  0
 69 74  1  0
 70 66  1  0
 70 74  1  0
 71 70  1  0
 72 73  1  0
 72 71  1  0
 73 69  1  0
 74 75  2  0
 75 76  1  0
 77 76  2  0
 78 77  1  0
 79 53  1  0
 79 80  1  0
 79 89  1  0
 80 83  1  0
 81 85  1  0
 81 80  1  0
 82 81  2  0
 85 84  1  0
 87 88  1  0
 87 85  1  0
 87 86  1  0
 89 92  1  1
 89 90  1  0
 91 89  1  0
M  ISO  4   9 100  17 100  51 101  52 101
M  END
>  <TORSDO>  (43) 
F 18

>  <SCORE>  (43) 
-14.869

>  <name>  (43) 
43

>  <ligand_id>  (43) 
43

>  <original_smiles>  (43) 
[H]c1c([H])c([H])c2c(c1[H])C([H])([H])C([H])([H])C([H])([H])C2([H])N([H])C(=O)C1([H])N(C(=O)C([H])(N([H])C(=O)C([H])(N([H])C([H])([H])[H])C([H])([H])[H])C(C([H])([H])[H])(C([H])([H])[H])C([H])([H])[H])C([H])([H])c2c([H])c(OC([H])([H])C(=O)N([H])c3c([H])c([H])c(F)c(N([H])C(=O)N4C([H])([H])C([H])([H])C([H])([H])C([H])(n5nc(-c6c([H])c([H])c(Oc7c([H])c([H])c(F)c([H])c7F)c([H])c6[H])c(C(=O)N([H])[H])c5N([H])[H])C4([H])[H])c3Cl)c([H])c([H])c2C1([H])[H]

>  <smiles>  (43) 
[H]c1c([H])c([H])c2c(c1[H])C([H])([H])C([H])([H])C([H])([H])C2([H])N([H])C(=O)C1([H])N(C(=O)C([H])(N([H])C(=O)C([H])(N([H])C([H])([H])[H])C([H])([H])[H])C(C([H])([H])[H])(C([H])([H])[H])C([H])([H])[H])C([H])([H])c2c([H])c(OC([H])([H])C(=O)N([H])c3c([H])c([H])c(F)c(N([H])C(=O)N4C([H])([H])C([H])([H])C([H])([H])C([H])(n5nc(-c6c([H])c([H])c(Oc7c([H])c([H])c(F)c([H])c7F)c([H])c6[H])c(C(=O)N([H])[H])c5N([H])[H])C4([H])[H])c3Cl)c([H])c([H])c2C1([H])[H]

$$$$
44:0:0
     RDKit          3D

 93101  0  0  1  0  0  0  0  0999 V2000
  -28.4410  -21.1230   20.4760 C   0  0  0  0  0  2  0  0  0  0  0  0
  -30.8120  -20.1810   20.8400 C   0  0  0  0  0  3  0  0  0  0  0  0
  -31.4000  -17.7960   20.9040 C   0  0  0  0  0  3  0  0  0  0  0  0
  -31.7580  -19.1530   21.0380 C   0  0  0  0  0  0  0  0  0  0  0  0
  -29.4700  -19.8920   20.5220 C   0  0  0  0  0  0  0  0  0  0  0  0
  -29.1220  -18.4750   20.3850 C   0  0  0  0  0  0  0  0  0  0  0  0
  -30.0870  -17.3880   20.5720 C   0  0  0  0  0  0  0  0  0  0  0  0
  -33.1780  -19.5050   21.4430 C   0  0  0  0  0  1  0  0  0  0  0  0
  -27.6820  -18.1310   20.0380 C   0  0  0  0  0  1  0  0  0  0  0  0
  -30.5730  -14.7980   20.3220 C   0  0  0  0  0  0  0  0  0  0  0  0
  -30.3800  -12.5260   19.2970 C   0  0  0  0  0  2  0  0  0  0  0  0
  -29.4310  -12.6030   18.0820 C   0  0  0  0  0  2  0  0  0  0  0  0
  -27.9640  -12.4230   18.5220 C   0  0  0  0  0  2  0  0  0  0  0  0
  -27.5990  -13.2950   19.7530 C   0  0  0  0  0  3  0  0  0  0  0  0
  -28.6680  -13.2040   20.8630 C   0  0  0  0  0  2  0  0  0  0  0  0
  -29.9520  -13.5700   20.2550 N   0  0  0  0  0  0  0  0  0  0  0  0
  -31.7620  -14.8850   20.0030 O   0  0  0  0  0  0  0  0  0  0  0  0
  -29.7740  -15.9270   20.5110 N   0  0  0  0  0  0  0  0  0  0  0  0
  -28.7970  -15.7030   20.6050 H   0  0  0  0  0  0  0  0  0  0  0  0
  -25.2140  -13.8640   20.5020 C   0  0  0  0  0  0  0  0  0  0  0  0
  -24.1590  -13.0810   20.8790 C   0  0  0  0  0  0  0  0  0  0  0  0
  -24.6340  -11.7340   20.8450 C   0  0  0  0  0  0  0  0  0  0  0  0
  -26.2620  -12.9940   20.2550 N   0  0  0  0  0  0  0  0  0  0  0  0
  -25.9230  -11.7080   20.5270 N   0  0  0  0  0  0  0  0  0  0  0  0
  -23.9190  -10.4660   21.0380 C   0  0  0  0  0  0  0  0  0  0  0  0
  -24.3610   -9.5040   21.9720 C   0  0  0  0  0  3  0  0  0  0  0  0
  -23.6450   -8.3020   22.1540 C   0  0  0  0  0  3  0  0  0  0  0  0
  -22.4720   -8.0540   21.4020 C   0  0  0  0  0  0  0  0  0  0  0  0
  -22.0490   -9.0050   20.4560 C   0  0  0  0  0  3  0  0  0  0  0  0
  -22.7650  -10.1980   20.2730 C   0  0  0  0  0  3  0  0  0  0  0  0
  -21.7270   -6.9030   21.4920 O   0  0  0  0  0  0  0  0  0  0  0  0
  -21.6870   -6.1620   22.6450 C   0  0  0  0  0  0  0  0  0  0  0  0
  -21.2490   -6.7120   23.8710 C   0  0  0  0  0  3  0  0  0  0  0  0
  -21.1560   -5.8960   25.0140 C   0  0  0  0  0  3  0  0  0  0  0  0
  -21.4920   -4.5300   24.9370 C   0  0  0  0  0  0  0  0  0  0  0  0
  -21.9210   -3.9790   23.7170 C   0  0  0  0  0  3  0  0  0  0  0  0
  -22.0170   -4.7930   22.5750 C   0  0  0  0  0  0  0  0  0  0  0  0
  -22.4110   -4.2530   21.3960 F   0  0  0  0  0  0  0  0  0  0  0  0
  -21.3950   -3.7440   26.0350 F   0  0  0  0  0  0  0  0  0  0  0  0
  -22.7590  -13.5480   21.1580 C   0  0  0  0  0  0  0  0  0  0  0  0
  -22.0420  -12.8450   22.0250 N   0  0  0  0  0  0  0  0  0  0  0  0
  -22.3110  -14.5710   20.6410 O   0  0  0  0  0  0  0  0  0  0  0  0
  -22.4190  -12.0180   22.4650 H   0  0  0  0  0  0  0  0  0  0  0  0
  -21.1040  -13.1380   22.2570 H   0  0  0  0  0  0  0  0  0  0  0  0
  -25.3600  -15.2360   20.3220 N   0  0  0  0  0  0  0  0  0  0  0  0
  -24.5780  -15.8730   20.4350 H   0  0  0  0  0  0  0  0  0  0  0  0
  -26.1790  -15.6800   19.9350 H   0  0  0  0  0  0  0  0  0  0  0  0
  -28.3590  -23.7530   20.4160 C   0  0  0  0  0  0  0  0  0  0  0  0
  -29.3980  -22.4490   18.5890 C   0  0  0  0  0  1  0  0  0  0  0  0
  -28.7790  -22.5130   19.9120 N   0  0  0  0  0  0  0  0  0  0  0  0
  -27.8300  -23.8250   21.5300 O   0  0  0  0  0  0  0  0  0  0  0  0
  -28.4810  -25.1190   19.5680 C   0  0  0  0  0  2  0  0  0  0  0  0
  -28.3460  -26.4500   20.2580 O   0  0  0  0  0  0  0  0  0  0  0  0
  -24.6180  -31.8890   23.2470 C   0  0  0  0  0  0  0  0  0  0  0  0
  -27.2170  -27.2970   20.1730 C   0  0  0  0  0  0  0  0  0  0  0  0
  -23.4090  -30.4850   21.6140 C   0  0  0  0  0  3  0  0  0  0  0  0
  -24.8550  -28.9350   20.1730 C   0  0  0  0  0  0  0  0  0  0  0  0
  -25.9490  -30.8030   21.4170 C   0  0  0  0  0  2  0  0  0  0  0  0
  -26.0250  -29.4220   20.7650 C   0  0  0  0  0  0  0  0  0  0  0  0
  -27.2030  -28.6100   20.7570 C   0  0  0  0  0  3  0  0  0  0  0  0
  -26.0140  -26.8660   19.5700 C   0  0  0  0  0  3  0  0  0  0  0  0
  -24.8530  -27.6690   19.5700 C   0  0  0  0  0  3  0  0  0  0  0  0
  -23.6170  -29.8090   20.2320 C   0  0  0  0  0  2  0  0  0  0  0  0
  -24.6780  -31.0760   22.1510 N   0  0  0  0  0  0  0  0  0  0  0  0
  -23.5350  -32.1670   23.7860 O   0  0  0  0  0  0  0  0  0  0  0  0
  -22.7540  -29.4680   22.5800 C   0  0  0  0  0  0  0  0  0  0  0  0
  -21.4270  -29.2830   22.4610 N   0  0  0  0  0  0  0  0  0  0  0  0
  -23.4380  -28.8470   23.3970 O   0  0  0  0  0  0  0  0  0  0  0  0
  -20.9290  -29.8380   21.7780 H   0  0  0  0  0  0  0  0  0  0  0  0
  -18.0620  -28.0610   22.9720 C   0  0  0  0  0  0  0  0  0  0  0  0
  -20.6190  -28.3430   23.2390 C   0  0  0  0  0  3  0  0  0  0  0  0
  -20.7310  -26.9080   22.6720 C   0  0  0  0  0  2  0  0  0  0  0  0
  -19.6330  -26.5720   21.6600 C   0  0  0  0  0  2  0  0  0  0  0  0
  -18.2490  -26.7090   22.3010 C   0  0  0  0  0  2  0  0  0  0  0  0
  -19.1740  -28.8340   23.3970 C   0  0  0  0  0  0  0  0  0  0  0  0
  -18.9440  -30.0970   23.9830 C   0  0  0  0  0  3  0  0  0  0  0  0
  -17.6350  -30.5890   24.1460 C   0  0  0  0  0  3  0  0  0  0  0  0
  -16.5370  -29.8100   23.7400 C   0  0  0  0  0  3  0  0  0  0  0  0
  -16.7520  -28.5500   23.1570 C   0  0  0  0  0  3  0  0  0  0  0  0
  -25.9020  -32.5270   23.8620 C   0  0  0  0  0  3  0  0  0  0  0  0
  -26.4310  -31.7620   25.1370 C   0  0  1  0  0  0  0  0  0  0  0  0
  -25.3450  -31.5270   26.2120 C   0  0  0  0  0  1  0  0  0  0  0  0
  -27.0130  -30.3840   24.7440 C   0  0  0  0  0  1  0  0  0  0  0  0
  -27.5840  -32.5600   25.7890 C   0  0  0  0  0  1  0  0  0  0  0  0
  -25.5920  -33.9270   24.1920 N   0  0  0  0  0  0  0  0  0  0  0  0
  -25.9120  -34.9790   23.4290 C   0  0  0  0  0  0  0  0  0  0  0  0
  -26.5700  -34.8770   22.3910 O   0  0  0  0  0  0  0  0  0  0  0  0
  -25.0080  -34.0830   25.0000 H   0  0  0  0  0  0  0  0  0  0  0  0
  -24.1770  -36.7690   23.0980 C   0  0  0  0  0  1  0  0  0  0  0  0
  -25.4270  -36.3660   23.8940 C   0  0  0  0  0  3  0  0  0  0  0  0
  -27.5680  -37.2560   24.7040 C   0  0  0  0  0  1  0  0  0  0  0  0
  -26.4550  -37.4220   23.7720 N   0  0  0  0  0  0  0  0  0  0  0  0
  -26.0490  -38.3400   23.9280 H   0  0  0  0  0  0  0  0  0  0  0  0
  1  5  1  0
  2  4  1  0
  3  4  2  0
  4  8  1  0
  5  2  2  0
  6  5  1  0
  6  7  2  0
  7  3  1  0
  9  6  1  0
 10 18  1  0
 11 16  1  0
 12 13  1  0
 12 11  1  0
 14 13  1  0
 14 23  1  0
 14 15  1  0
 16 10  1  0
 16 15  1  0
 17 10  2  0
 18  7  1  0
 18 19  1  0
 20 21  2  0
 21 40  1  0
 22 21  1  0
 22 25  1  0
 23 20  1  0
 23 24  1  0
 24 22  2  0
 25 26  1  0
 26 27  2  0
 28 31  1  0
 28 27  1  0
 29 28  2  0
 30 29  1  0
 30 25  2  0
 31 32  1  0
 32 33  1  0
 33 34  2  0
 35 34  1  0
 35 39  1  0
 36 35  2  0
 37 32  2  0
 37 36  1  0
 38 37  1  0
 40 41  1  0
 41 44  1  0
 41 43  1  0
 42 40  2  0
 45 46  1  0
 45 20  1  0
 47 45  1  0
 48 51  2  0
 49 50  1  0
 50 48  1  0
 50  1  1  0
 52 53  1  0
 52 48  1  0
 54 65  2  0
 55 53  1  0
 55 60  1  0
 56 64  1  0
 56 66  1  0
 57 63  1  0
 57 59  1  0
 58 64  1  0
 59 58  1  0
 60 59  2  0
 61 55  2  0
 62 61  1  0
 62 57  2  0
 63 56  1  0
 64 54  1  0
 66 68  2  0
 67 66  1  0
 69 67  1  0
 70 79  2  0
 70 75  1  0
 71 67  1  0
 71 75  1  0
 72 71  1  0
 73 74  1  0
 73 72  1  0
 74 70  1  0
 75 76  2  0
 76 77  1  0
 78 77  2  0
 79 78  1  0
 80 54  1  0
 80 85  1  0
 80 81  1  0
 81 84  1  1
 81 82  1  0
 83 81  1  0
 85 88  1  0
 86 90  1  0
 86 85  1  0
 87 86  2  0
 90 89  1  0
 92 90  1  0
 92 93  1  0
 92 91  1  0
M  ISO  4  10 100  18 100  52 101  53 101
M  END
>  <TORSDO>  (44) 
F 19

>  <SCORE>  (44) 
-14.818

>  <name>  (44) 
44

>  <ligand_id>  (44) 
44

>  <original_smiles>  (44) 
[H]c1c([H])c([H])c2c(c1[H])C([H])([H])C([H])([H])C([H])([H])C2([H])N([H])C(=O)C1([H])N(C(=O)C([H])(N([H])C(=O)C([H])(N([H])C([H])([H])[H])C([H])([H])[H])C(C([H])([H])[H])(C([H])([H])[H])C([H])([H])[H])C([H])([H])c2c([H])c(OC([H])([H])C(=O)N(C([H])([H])[H])C([H])([H])c3c([H])c(C([H])([H])[H])c([H])c(N([H])C(=O)N4C([H])([H])C([H])([H])C([H])([H])C([H])(n5nc(-c6c([H])c([H])c(Oc7c([H])c([H])c(F)c([H])c7F)c([H])c6[H])c(C(=O)N([H])[H])c5N([H])[H])C4([H])[H])c3C([H])([H])[H])c([H])c([H])c2C1([H])[H]

>  <smiles>  (44) 
[H]c1c([H])c([H])c2c(c1[H])C([H])([H])C([H])([H])C([H])([H])C2([H])N([H])C(=O)C1([H])N(C(=O)C([H])(N([H])C(=O)C([H])(N([H])C([H])([H])[H])C([H])([H])[H])C(C([H])([H])[H])(C([H])([H])[H])C([H])([H])[H])C([H])([H])c2c([H])c(OC([H])([H])C(=O)N(C([H])([H])[H])C([H])([H])c3c([H])c(C([H])([H])[H])c([H])c(N([H])C(=O)N4C([H])([H])C([H])([H])C([H])([H])C([H])(n5nc(-c6c([H])c([H])c(Oc7c([H])c([H])c(F)c([H])c7F)c([H])c6[H])c(C(=O)N([H])[H])c5N([H])[H])C4([H])[H])c3C([H])([H])[H])c([H])c([H])c2C1([H])[H]

$$$$
45:0:0
     RDKit          3D

 93101  0  0  1  0  0  0  0  0999 V2000
  -30.0510  -20.5340   20.3820 C   0  0  0  0  0  0  0  0  0  0  0  0
  -29.0290  -21.4350   20.5100 N   0  0  0  0  0  0  0  0  0  0  0  0
  -31.2250  -20.9200   20.3880 O   0  0  0  0  0  0  0  0  0  0  0  0
  -28.1100  -21.0140   20.4570 H   0  0  0  0  0  0  0  0  0  0  0  0
  -30.6780  -17.9480   20.4360 C   0  0  0  0  0  0  0  0  0  0  0  0
  -29.7150  -19.0340   20.3460 C   0  0  0  0  0  0  0  0  0  0  0  0
  -29.9400  -16.7780   20.5900 C   0  0  0  0  0  0  0  0  0  0  0  0
  -27.4000  -16.4130   20.7340 C   0  0  0  0  0  1  0  0  0  0  0  0
  -28.4810  -18.5300   20.3680 N   0  0  0  0  0  0  0  0  0  0  0  0
  -28.6110  -17.1890   20.5500 N   0  0  0  0  0  0  0  0  0  0  0  0
  -32.4020  -18.0830   20.4460 Cl  0  0  0  0  0  0  0  0  0  0  0  0
  -30.7850  -14.4970   20.0100 C   0  0  0  0  0  0  0  0  0  0  0  0
  -30.4380  -12.2630   18.9610 C   0  0  0  0  0  2  0  0  0  0  0  0
  -29.4460  -12.4030   17.7810 C   0  0  0  0  0  2  0  0  0  0  0  0
  -27.9950  -12.2750   18.2770 C   0  0  0  0  0  2  0  0  0  0  0  0
  -27.7200  -13.1630   19.5180 C   0  0  0  0  0  3  0  0  0  0  0  0
  -28.8230  -12.9920   20.5950 C   0  0  0  0  0  2  0  0  0  0  0  0
  -30.1290  -13.2890   19.9730 N   0  0  0  0  0  0  0  0  0  0  0  0
  -31.7970  -14.6740   19.3220 O   0  0  0  0  0  0  0  0  0  0  0  0
  -30.3040  -15.4560   20.8520 N   0  0  0  0  0  0  0  0  0  0  0  0
  -29.8110  -15.0750   21.6380 H   0  0  0  0  0  0  0  0  0  0  0  0
  -25.3730  -13.8350   20.3400 C   0  0  0  0  0  0  0  0  0  0  0  0
  -24.3030  -13.1000   20.7790 C   0  0  0  0  0  0  0  0  0  0  0  0
  -24.7120  -11.7350   20.7090 C   0  0  0  0  0  0  0  0  0  0  0  0
  -26.3790  -12.9230   20.0580 N   0  0  0  0  0  0  0  0  0  0  0  0
  -25.9820  -11.6510   20.3280 N   0  0  0  0  0  0  0  0  0  0  0  0
  -23.9470  -10.4980   20.9220 C   0  0  0  0  0  0  0  0  0  0  0  0
  -24.3810   -9.5110   21.8340 C   0  0  0  0  0  3  0  0  0  0  0  0
  -23.6170   -8.3400   22.0370 C   0  0  0  0  0  3  0  0  0  0  0  0
  -22.4070   -8.1510   21.3290 C   0  0  0  0  0  0  0  0  0  0  0  0
  -21.9940   -9.1250   20.4020 C   0  0  0  0  0  3  0  0  0  0  0  0
  -22.7570  -10.2850   20.1970 C   0  0  0  0  0  3  0  0  0  0  0  0
  -21.6160   -7.0320   21.4390 O   0  0  0  0  0  0  0  0  0  0  0  0
  -21.5650   -6.3010   22.5980 C   0  0  0  0  0  0  0  0  0  0  0  0
  -21.1890   -6.8800   23.8290 C   0  0  0  0  0  3  0  0  0  0  0  0
  -21.0850   -6.0770   24.9830 C   0  0  0  0  0  3  0  0  0  0  0  0
  -21.3420   -4.6960   24.9070 C   0  0  0  0  0  0  0  0  0  0  0  0
  -21.7110   -4.1160   23.6800 C   0  0  0  0  0  3  0  0  0  0  0  0
  -21.8180   -4.9160   22.5290 C   0  0  0  0  0  0  0  0  0  0  0  0
  -22.1540   -4.3470   21.3470 F   0  0  0  0  0  0  0  0  0  0  0  0
  -21.2320   -3.9230   26.0120 F   0  0  0  0  0  0  0  0  0  0  0  0
  -22.9470  -13.6320   21.1450 C   0  0  0  0  0  0  0  0  0  0  0  0
  -22.2470  -12.9530   22.0490 N   0  0  0  0  0  0  0  0  0  0  0  0
  -22.5130  -14.6740   20.6560 O   0  0  0  0  0  0  0  0  0  0  0  0
  -22.6080  -12.1030   22.4590 H   0  0  0  0  0  0  0  0  0  0  0  0
  -21.3430  -13.2940   22.3440 H   0  0  0  0  0  0  0  0  0  0  0  0
  -25.5650  -15.1930   20.1350 N   0  0  0  0  0  0  0  0  0  0  0  0
  -24.8240  -15.8760   20.2610 H   0  0  0  0  0  0  0  0  0  0  0  0
  -26.3910  -15.5780   19.6990 H   0  0  0  0  0  0  0  0  0  0  0  0
  -29.1160  -22.8170   21.0810 C   0  0  0  0  0  2  0  0  0  0  0  0
  -28.4190  -24.0030   20.2950 C   0  0  0  0  0  2  0  0  0  0  0  0
  -28.4900  -25.4050   21.0160 C   0  0  0  0  0  2  0  0  0  0  0  0
  -28.3700  -26.5870   20.1730 O   0  0  0  0  0  0  0  0  0  0  0  0
  -24.5580  -31.8520   23.2020 C   0  0  0  0  0  0  0  0  0  0  0  0
  -27.2050  -27.3360   20.2150 C   0  0  0  0  0  0  0  0  0  0  0  0
  -23.3550  -30.4480   21.5560 C   0  0  0  0  0  3  0  0  0  0  0  0
  -24.8160  -28.8740   20.1670 C   0  0  0  0  0  0  0  0  0  0  0  0
  -25.8850  -30.7860   21.3740 C   0  0  0  0  0  2  0  0  0  0  0  0
  -25.9730  -29.3980   20.7590 C   0  0  0  0  0  0  0  0  0  0  0  0
  -27.1710  -28.6410   20.7740 C   0  0  0  0  0  3  0  0  0  0  0  0
  -26.0320  -26.8330   19.6150 C   0  0  0  0  0  3  0  0  0  0  0  0
  -24.8410  -27.5900   19.5840 C   0  0  0  0  0  3  0  0  0  0  0  0
  -23.5750  -29.7440   20.1880 C   0  0  0  0  0  2  0  0  0  0  0  0
  -24.6190  -31.0430   22.1050 N   0  0  0  0  0  0  0  0  0  0  0  0
  -23.4750  -32.1340   23.7320 O   0  0  0  0  0  0  0  0  0  0  0  0
  -22.6820  -29.4460   22.5230 C   0  0  0  0  0  0  0  0  0  0  0  0
  -21.3530  -29.2880   22.4090 N   0  0  0  0  0  0  0  0  0  0  0  0
  -23.3570  -28.8050   23.3330 O   0  0  0  0  0  0  0  0  0  0  0  0
  -20.8720  -29.8650   21.7330 H   0  0  0  0  0  0  0  0  0  0  0  0
  -17.9590  -28.1750   22.9410 C   0  0  0  0  0  0  0  0  0  0  0  0
  -20.5250  -28.3640   23.1820 C   0  0  0  0  0  3  0  0  0  0  0  0
  -20.5870  -26.9380   22.5930 C   0  0  0  0  0  2  0  0  0  0  0  0
  -19.4660  -26.6560   21.5870 C   0  0  0  0  0  2  0  0  0  0  0  0
  -18.0960  -26.8330   22.2450 C   0  0  0  0  0  2  0  0  0  0  0  0
  -19.1030  -28.9030   23.3660 C   0  0  0  0  0  0  0  0  0  0  0  0
  -18.9280  -30.1670   23.9690 C   0  0  0  0  0  3  0  0  0  0  0  0
  -17.6400  -30.7040   24.1490 C   0  0  0  0  0  3  0  0  0  0  0  0
  -16.5100  -29.9720   23.7450 C   0  0  0  0  0  3  0  0  0  0  0  0
  -16.6700  -28.7080   23.1490 C   0  0  0  0  0  3  0  0  0  0  0  0
  -25.8440  -32.4790   23.8250 C   0  0  0  0  0  3  0  0  0  0  0  0
  -26.3600  -31.6970   25.0950 C   0  0  1  0  0  0  0  0  0  0  0  0
  -25.2700  -31.4480   26.1620 C   0  0  0  0  0  1  0  0  0  0  0  0
  -26.9510  -30.3260   24.6900 C   0  0  0  0  0  1  0  0  0  0  0  0
  -27.5060  -32.4840   25.7660 C   0  0  0  0  0  1  0  0  0  0  0  0
  -25.5370  -33.8750   24.1650 N   0  0  0  0  0  0  0  0  0  0  0  0
  -25.8710  -34.9290   23.4070 C   0  0  0  0  0  0  0  0  0  0  0  0
  -26.5350  -34.8280   22.3720 O   0  0  0  0  0  0  0  0  0  0  0  0
  -24.9540  -34.0230   24.9740 H   0  0  0  0  0  0  0  0  0  0  0  0
  -24.1470  -36.7300   23.0570 C   0  0  0  0  0  1  0  0  0  0  0  0
  -25.3840  -36.3150   23.8720 C   0  0  0  0  0  3  0  0  0  0  0  0
  -27.5180  -37.1920   24.7120 C   0  0  0  0  0  1  0  0  0  0  0  0
  -26.4170  -37.3650   23.7670 N   0  0  0  0  0  0  0  0  0  0  0  0
  -26.0140  -38.2840   23.9230 H   0  0  0  0  0  0  0  0  0  0  0  0
  1  3  2  0
  1  2  1  0
  2 50  1  0
  4  2  1  0
  5 11  1  0
  5  7  2  0
  6  9  2  0
  6  1  1  0
  6  5  1  0
  7 20  1  0
  9 10  1  0
 10  7  1  0
 10  8  1  0
 12 20  1  0
 13 18  1  0
 14 15  1  0
 14 13  1  0
 16 15  1  0
 16 25  1  0
 16 17  1  0
 18 12  1  0
 18 17  1  0
 19 12  2  0
 20 21  1  0
 22 23  2  0
 23 42  1  0
 24 23  1  0
 24 27  1  0
 25 26  1  0
 25 22  1  0
 26 24  2  0
 27 28  1  0
 28 29  2  0
 30 33  1  0
 30 29  1  0
 31 30  2  0
 32 31  1  0
 32 27  2  0
 33 34  1  0
 34 35  1  0
 35 36  2  0
 37 36  1  0
 37 41  1  0
 38 37  2  0
 39 34  2  0
 39 38  1  0
 40 39  1  0
 42 43  1  0
 43 46  1  0
 43 45  1  0
 44 42  2  0
 47 48  1  0
 47 22  1  0
 49 47  1  0
 51 52  1  0
 51 50  1  0
 53 55  1  0
 53 52  1  0
 54 65  2  0
 55 60  1  0
 56 64  1  0
 56 66  1  0
 57 63  1  0
 57 59  1  0
 58 64  1  0
 59 60  2  0
 59 58  1  0
 61 55  2  0
 62 61  1  0
 62 57  2  0
 63 56  1  0
 64 54  1  0
 66 68  2  0
 67 66  1  0
 69 67  1  0
 70 79  2  0
 70 75  1  0
 71 67  1  0
 71 75  1  0
 72 71  1  0
 73 74  1  0
 73 72  1  0
 74 70  1  0
 75 76  2  0
 76 77  1  0
 78 77  2  0
 79 78  1  0
 80 54  1  0
 80 85  1  0
 80 81  1  0
 81 84  1  1
 81 82  1  0
 83 81  1  0
 85 88  1  0
 86 90  1  0
 86 85  1  0
 87 86  2  0
 90 89  1  0
 92 90  1  0
 92 93  1  0
 92 91  1  0
M  ISO  4  12 100  20 100  52 101  53 101
M  END
>  <TORSDO>  (45) 
F 20

>  <SCORE>  (45) 
-13.666

>  <name>  (45) 
45

>  <ligand_id>  (45) 
45

>  <original_smiles>  (45) 
[H]c1c([H])c([H])c2c(c1[H])C([H])([H])C([H])([H])C([H])([H])C2([H])N([H])C(=O)C1([H])N(C(=O)C([H])(N([H])C(=O)C([H])(N([H])C([H])([H])[H])C([H])([H])[H])C(C([H])([H])[H])(C([H])([H])[H])C([H])([H])[H])C([H])([H])c2c([H])c(OC([H])([H])C([H])([H])C([H])([H])N([H])C(=O)c3nn(C([H])([H])[H])c(N([H])C(=O)N4C([H])([H])C([H])([H])C([H])([H])C([H])(n5nc(-c6c([H])c([H])c(Oc7c([H])c([H])c(F)c([H])c7F)c([H])c6[H])c(C(=O)N([H])[H])c5N([H])[H])C4([H])[H])c3Cl)c([H])c([H])c2C1([H])[H]

>  <smiles>  (45) 
[H]c1c([H])c([H])c2c(c1[H])C([H])([H])C([H])([H])C([H])([H])C2([H])N([H])C(=O)C1([H])N(C(=O)C([H])(N([H])C(=O)C([H])(N([H])C([H])([H])[H])C([H])([H])[H])C(C([H])([H])[H])(C([H])([H])[H])C([H])([H])[H])C([H])([H])c2c([H])c(OC([H])([H])C([H])([H])C([H])([H])N([H])C(=O)c3nn(C([H])([H])[H])c(N([H])C(=O)N4C([H])([H])C([H])([H])C([H])([H])C([H])(n5nc(-c6c([H])c([H])c(Oc7c([H])c([H])c(F)c([H])c7F)c([H])c6[H])c(C(=O)N([H])[H])c5N([H])[H])C4([H])[H])c3Cl)c([H])c([H])c2C1([H])[H]

$$$$
46:0:0
     RDKit          3D

 92100  0  0  1  0  0  0  0  0999 V2000
  -29.0770  -17.7460   18.6860 C   0  0  0  0  0  3  0  0  0  0  0  0
  -28.5790  -18.9120   18.0650 C   0  0  0  0  0  3  0  0  0  0  0  0
  -29.6830  -17.7680   19.9560 C   0  0  0  0  0  0  0  0  0  0  0  0
  -29.2720  -20.4610   19.8810 C   0  0  0  0  0  0  0  0  0  0  0  0
  -28.6610  -20.2090   18.6220 C   0  0  0  0  0  0  0  0  0  0  0  0
  -29.7670  -19.1740   20.5300 C   0  0  0  0  0  0  0  0  0  0  0  0
  -28.0590  -21.4980   17.6350 Cl  0  0  0  0  0  0  0  0  0  0  0  0
  -30.4990  -19.3160   22.0860 Cl  0  0  0  0  0  0  0  0  0  0  0  0
  -30.6650  -15.1490   20.1480 C   0  0  0  0  0  0  0  0  0  0  0  0
  -30.5690  -12.7620   19.2330 C   0  0  0  0  0  2  0  0  0  0  0  0
  -29.6050  -12.6910   18.0240 C   0  0  0  0  0  2  0  0  0  0  0  0
  -28.1610  -12.4450   18.4970 C   0  0  0  0  0  2  0  0  0  0  0  0
  -27.7770  -13.3550   19.6920 C   0  0  0  0  0  3  0  0  0  0  0  0
  -28.8640  -13.3950   20.7890 C   0  0  0  0  0  2  0  0  0  0  0  0
  -30.1070  -13.8560   20.1530 N   0  0  0  0  0  0  0  0  0  0  0  0
  -31.8250  -15.2150   19.7210 O   0  0  0  0  0  0  0  0  0  0  0  0
  -29.9530  -16.3420   20.5550 N   0  0  0  0  0  0  0  0  0  0  0  0
  -29.2370  -16.0960   21.2230 H   0  0  0  0  0  0  0  0  0  0  0  0
  -25.4290  -13.8970   20.5350 C   0  0  0  0  0  0  0  0  0  0  0  0
  -24.3800  -13.1100   20.9220 C   0  0  0  0  0  0  0  0  0  0  0  0
  -24.8450  -11.7610   20.8340 C   0  0  0  0  0  0  0  0  0  0  0  0
  -26.4620  -13.0300   20.2300 N   0  0  0  0  0  0  0  0  0  0  0  0
  -26.1240  -11.7360   20.4750 N   0  0  0  0  0  0  0  0  0  0  0  0
  -24.1250  -10.4920   21.0150 C   0  0  0  0  0  0  0  0  0  0  0  0
  -24.5590   -9.5200   21.9430 C   0  0  0  0  0  3  0  0  0  0  0  0
  -23.8380   -8.3190   22.1130 C   0  0  0  0  0  3  0  0  0  0  0  0
  -22.6670   -8.0800   21.3540 C   0  0  0  0  0  0  0  0  0  0  0  0
  -22.2510   -9.0410   20.4140 C   0  0  0  0  0  3  0  0  0  0  0  0
  -22.9740  -10.2340   20.2430 C   0  0  0  0  0  3  0  0  0  0  0  0
  -21.9170   -6.9320   21.4330 O   0  0  0  0  0  0  0  0  0  0  0  0
  -21.8190   -6.2150   22.5990 C   0  0  0  0  0  0  0  0  0  0  0  0
  -21.2940   -6.7810   23.7800 C   0  0  0  0  0  3  0  0  0  0  0  0
  -21.1470   -5.9890   24.9360 C   0  0  0  0  0  3  0  0  0  0  0  0
  -21.5140   -4.6310   24.9100 C   0  0  0  0  0  0  0  0  0  0  0  0
  -22.0330   -4.0630   23.7330 C   0  0  0  0  0  3  0  0  0  0  0  0
  -22.1820   -4.8530   22.5800 C   0  0  0  0  0  0  0  0  0  0  0  0
  -22.6620   -4.2960   21.4420 F   0  0  0  0  0  0  0  0  0  0  0  0
  -21.3670   -3.8670   26.0180 F   0  0  0  0  0  0  0  0  0  0  0  0
  -22.9940  -13.5760   21.2570 C   0  0  0  0  0  0  0  0  0  0  0  0
  -22.2950  -12.8520   22.1230 N   0  0  0  0  0  0  0  0  0  0  0  0
  -22.5410  -14.6180   20.7840 O   0  0  0  0  0  0  0  0  0  0  0  0
  -22.6770  -12.0090   22.5260 H   0  0  0  0  0  0  0  0  0  0  0  0
  -21.3670  -13.1460   22.3900 H   0  0  0  0  0  0  0  0  0  0  0  0
  -25.5850  -15.2720   20.3920 N   0  0  0  0  0  0  0  0  0  0  0  0
  -24.8220  -15.9220   20.5490 H   0  0  0  0  0  0  0  0  0  0  0  0
  -26.4180  -15.7220   20.0350 H   0  0  0  0  0  0  0  0  0  0  0  0
  -28.6160  -23.1300   20.3890 C   0  0  0  0  0  0  0  0  0  0  0  0
  -30.9180  -22.3640   20.2230 C   0  0  0  0  0  1  0  0  0  0  0  0
  -29.5070  -21.9870   20.2230 N   0  0  0  0  0  0  0  0  0  0  0  0
  -27.5560  -22.9290   20.9920 O   0  0  0  0  0  0  0  0  0  0  0  0
  -28.7920  -24.7140   19.7750 C   0  0  0  0  0  2  0  0  0  0  0  0
  -28.5350  -26.1290   20.4650 O   0  0  0  0  0  0  0  0  0  0  0  0
  -24.7090  -31.8340   23.2310 C   0  0  0  0  0  0  0  0  0  0  0  0
  -27.4800  -27.1220   20.2710 C   0  0  0  0  0  0  0  0  0  0  0  0
  -23.5930  -30.4120   21.5560 C   0  0  0  0  0  3  0  0  0  0  0  0
  -25.1200  -28.8620   20.1620 C   0  0  0  0  0  0  0  0  0  0  0  0
  -26.1460  -30.7160   21.4720 C   0  0  0  0  0  2  0  0  0  0  0  0
  -26.2690  -29.3210   20.8170 C   0  0  0  0  0  0  0  0  0  0  0  0
  -27.4400  -28.4630   20.8590 C   0  0  0  0  0  3  0  0  0  0  0  0
  -26.3090  -26.7840   19.5610 C   0  0  0  0  0  3  0  0  0  0  0  0
  -25.1580  -27.6120   19.5180 C   0  0  0  0  0  3  0  0  0  0  0  0
  -23.8710  -29.7370   20.1830 C   0  0  0  0  0  2  0  0  0  0  0  0
  -24.8350  -31.0130   22.1410 N   0  0  0  0  0  0  0  0  0  0  0  0
  -23.6020  -32.0930   23.7270 O   0  0  0  0  0  0  0  0  0  0  0  0
  -22.9050  -29.3940   22.5010 C   0  0  0  0  0  0  0  0  0  0  0  0
  -21.5790  -29.2170   22.3580 N   0  0  0  0  0  0  0  0  0  0  0  0
  -23.5690  -28.7650   23.3280 O   0  0  0  0  0  0  0  0  0  0  0  0
  -21.0980  -29.7770   21.6680 H   0  0  0  0  0  0  0  0  0  0  0  0
  -18.1970  -27.9990   22.8280 C   0  0  0  0  0  0  0  0  0  0  0  0
  -20.7550  -28.2650   23.1090 C   0  0  0  0  0  3  0  0  0  0  0  0
  -20.8630  -26.8430   22.5090 C   0  0  0  0  0  2  0  0  0  0  0  0
  -19.7670  -26.5360   21.4840 C   0  0  0  0  0  2  0  0  0  0  0  0
  -18.3820  -26.6630   22.1250 C   0  0  0  0  0  2  0  0  0  0  0  0
  -19.3120  -28.7570   23.2760 C   0  0  0  0  0  0  0  0  0  0  0  0
  -19.0830  -30.0050   23.8950 C   0  0  0  0  0  3  0  0  0  0  0  0
  -17.7760  -30.4950   24.0690 C   0  0  0  0  0  3  0  0  0  0  0  0
  -16.6760  -29.7340   23.6350 C   0  0  0  0  0  3  0  0  0  0  0  0
  -16.8890  -28.4870   23.0200 C   0  0  0  0  0  3  0  0  0  0  0  0
  -25.9520  -32.5010   23.8980 C   0  0  0  0  0  3  0  0  0  0  0  0
  -25.6040  -33.9000   24.1990 N   0  0  0  0  0  0  0  0  0  0  0  0
  -25.9360  -34.9530   23.4390 C   0  0  0  0  0  0  0  0  0  0  0  0
  -26.6300  -34.8500   22.4240 O   0  0  0  0  0  0  0  0  0  0  0  0
  -24.9890  -34.0510   24.9840 H   0  0  0  0  0  0  0  0  0  0  0  0
  -24.1850  -36.7170   23.0330 C   0  0  0  0  0  1  0  0  0  0  0  0
  -25.4170  -36.3400   23.8720 C   0  0  0  0  0  3  0  0  0  0  0  0
  -27.5130  -37.2790   24.7420 C   0  0  0  0  0  1  0  0  0  0  0  0
  -26.4340  -37.4090   23.7670 N   0  0  0  0  0  0  0  0  0  0  0  0
  -26.0080  -38.3250   23.8850 H   0  0  0  0  0  0  0  0  0  0  0  0
  -26.4230  -31.7620   25.2110 C   0  0  1  0  0  0  0  0  0  0  0  0
  -25.2890  -31.5290   26.2360 C   0  0  0  0  0  1  0  0  0  0  0  0
  -27.0410  -30.3850   24.8760 C   0  0  0  0  0  1  0  0  0  0  0  0
  -27.5340  -32.5850   25.9050 C   0  0  0  0  0  1  0  0  0  0  0  0
  1  3  1  0
  2  5  1  0
  2  1  2  0
  3  6  2  0
  3 17  1  0
  4 49  1  0
  4  6  1  0
  5  4  2  0
  6  8  1  0
  7  5  1  0
  9 15  1  0
  9 17  1  0
 10 15  1  0
 11 12  1  0
 11 10  1  0
 13 12  1  0
 13 22  1  0
 13 14  1  0
 15 14  1  0
 16  9  2  0
 17 18  1  0
 19 20  2  0
 20 39  1  0
 21 20  1  0
 21 24  1  0
 22 23  1  0
 22 19  1  0
 23 21  2  0
 24 25  1  0
 25 26  2  0
 27 30  1  0
 27 26  1  0
 28 27  2  0
 29 28  1  0
 29 24  2  0
 30 31  1  0
 31 32  1  0
 32 33  2  0
 34 33  1  0
 34 38  1  0
 35 34  2  0
 36 31  2  0
 36 35  1  0
 37 36  1  0
 39 40  1  0
 40 43  1  0
 40 42  1  0
 41 39  2  0
 44 19  1  0
 44 45  1  0
 46 44  1  0
 47 50  2  0
 49 48  1  0
 49 47  1  0
 51 47  1  0
 51 52  1  0
 53 64  2  0
 54 52  1  0
 54 59  1  0
 55 63  1  0
 55 65  1  0
 56 62  1  0
 56 58  1  0
 57 63  1  0
 58 59  2  0
 58 57  1  0
 60 54  2  0
 61 60  1  0
 61 56  2  0
 62 55  1  0
 63 53  1  0
 65 67  2  0
 66 65  1  0
 68 66  1  0
 69 78  2  0
 69 74  1  0
 70 66  1  0
 70 74  1  0
 71 70  1  0
 72 73  1  0
 72 71  1  0
 73 69  1  0
 74 75  2  0
 75 76  1  0
 77 76  2  0
 78 77  1  0
 79 53  1  0
 79 80  1  0
 79 89  1  0
 80 83  1  0
 81 85  1  0
 81 80  1  0
 82 81  2  0
 85 84  1  0
 87 85  1  0
 87 88  1  0
 87 86  1  0
 89 92  1  1
 89 90  1  0
 91 89  1  0
M  ISO  4   9 100  17 100  51 101  52 101
M  END
>  <TORSDO>  (46) 
F 18

>  <SCORE>  (46) 
-15.251

>  <name>  (46) 
46

>  <ligand_id>  (46) 
46

>  <original_smiles>  (46) 
[H]c1c([H])c([H])c2c(c1[H])C([H])([H])C([H])([H])C([H])([H])C2([H])N([H])C(=O)C1([H])N(C(=O)C([H])(N([H])C(=O)C([H])(N([H])C([H])([H])[H])C([H])([H])[H])C(C([H])([H])[H])(C([H])([H])[H])C([H])([H])[H])C([H])([H])c2c([H])c(OC([H])([H])C(=O)N(c3c(Cl)c([H])c([H])c(N([H])C(=O)N4C([H])([H])C([H])([H])C([H])([H])C([H])(n5nc(-c6c([H])c([H])c(Oc7c([H])c([H])c(F)c([H])c7F)c([H])c6[H])c(C(=O)N([H])[H])c5N([H])[H])C4([H])[H])c3Cl)C([H])([H])[H])c([H])c([H])c2C1([H])[H]

>  <smiles>  (46) 
[H]c1c([H])c([H])c2c(c1[H])C([H])([H])C([H])([H])C([H])([H])C2([H])N([H])C(=O)C1([H])N(C(=O)C([H])(N([H])C(=O)C([H])(N([H])C([H])([H])[H])C([H])([H])[H])C(C([H])([H])[H])(C([H])([H])[H])C([H])([H])[H])C([H])([H])c2c([H])c(OC([H])([H])C(=O)N(c3c(Cl)c([H])c([H])c(N([H])C(=O)N4C([H])([H])C([H])([H])C([H])([H])C([H])(n5nc(-c6c([H])c([H])c(Oc7c([H])c([H])c(F)c([H])c7F)c([H])c6[H])c(C(=O)N([H])[H])c5N([H])[H])C4([H])[H])c3Cl)C([H])([H])[H])c([H])c([H])c2C1([H])[H]

$$$$
47:0:0
     RDKit          3D

 94102  0  0  1  0  0  0  0  0999 V2000
  -31.2890  -17.6320   19.1170 C   0  0  0  0  0  3  0  0  0  0  0  0
  -29.6980  -19.8070   20.1240 C   0  0  0  0  0  0  0  0  0  0  0  0
  -30.2240  -17.2910   19.9860 C   0  0  0  0  0  0  0  0  0  0  0  0
  -31.5730  -18.9710   18.7780 C   0  0  0  0  0  0  0  0  0  0  0  0
  -30.7990  -20.0380   19.2720 C   0  0  0  0  0  0  0  0  0  0  0  0
  -29.4300  -18.4120   20.4720 C   0  0  0  0  0  0  0  0  0  0  0  0
  -32.6250  -19.2350   17.9660 F   0  0  0  0  0  0  0  0  0  0  0  0
  -31.1510  -21.3030   18.9340 F   0  0  0  0  0  0  0  0  0  0  0  0
  -28.1150  -18.0480   21.5340 Cl  0  0  0  0  0  0  0  0  0  0  0  0
  -30.6590  -14.7080   20.0030 C   0  0  0  0  0  0  0  0  0  0  0  0
  -30.3500  -12.4780   18.9370 C   0  0  0  0  0  2  0  0  0  0  0  0
  -29.3600  -12.6160   17.7590 C   0  0  0  0  0  2  0  0  0  0  0  0
  -27.9100  -12.4490   18.2510 C   0  0  0  0  0  2  0  0  0  0  0  0
  -27.6090  -13.2980   19.5150 C   0  0  0  0  0  3  0  0  0  0  0  0
  -28.7160  -13.1620   20.5830 C   0  0  0  0  0  2  0  0  0  0  0  0
  -29.9930  -13.5050   19.9440 N   0  0  0  0  0  0  0  0  0  0  0  0
  -31.8320  -14.7620   19.6290 O   0  0  0  0  0  0  0  0  0  0  0  0
  -29.9450  -15.8600   20.3070 N   0  0  0  0  0  0  0  0  0  0  0  0
  -29.0440  -15.6930   20.7280 H   0  0  0  0  0  0  0  0  0  0  0  0
  -25.2480  -13.8850   20.3290 C   0  0  0  0  0  0  0  0  0  0  0  0
  -24.1970  -13.1100   20.7370 C   0  0  0  0  0  0  0  0  0  0  0  0
  -24.6630  -11.7600   20.6930 C   0  0  0  0  0  0  0  0  0  0  0  0
  -26.2850  -13.0080   20.0570 N   0  0  0  0  0  0  0  0  0  0  0  0
  -25.9420  -11.7250   20.3400 N   0  0  0  0  0  0  0  0  0  0  0  0
  -23.9470  -10.4960   20.9110 C   0  0  0  0  0  0  0  0  0  0  0  0
  -24.4010   -9.5400   21.8470 C   0  0  0  0  0  3  0  0  0  0  0  0
  -23.6820   -8.3420   22.0500 C   0  0  0  0  0  3  0  0  0  0  0  0
  -22.4970   -8.0890   21.3190 C   0  0  0  0  0  0  0  0  0  0  0  0
  -22.0630   -9.0350   20.3730 C   0  0  0  0  0  3  0  0  0  0  0  0
  -22.7810  -10.2240   20.1670 C   0  0  0  0  0  3  0  0  0  0  0  0
  -21.7500   -6.9430   21.4340 O   0  0  0  0  0  0  0  0  0  0  0  0
  -21.7150   -6.2190   22.5990 C   0  0  0  0  0  0  0  0  0  0  0  0
  -21.2890   -6.7900   23.8180 C   0  0  0  0  0  3  0  0  0  0  0  0
  -21.2020   -5.9920   24.9760 C   0  0  0  0  0  3  0  0  0  0  0  0
  -21.5320   -4.6250   24.9170 C   0  0  0  0  0  0  0  0  0  0  0  0
  -21.9500   -4.0530   23.7030 C   0  0  0  0  0  3  0  0  0  0  0  0
  -22.0380   -4.8490   22.5470 C   0  0  0  0  0  0  0  0  0  0  0  0
  -22.4220   -4.2880   21.3750 F   0  0  0  0  0  0  0  0  0  0  0  0
  -21.4410   -3.8570   26.0280 F   0  0  0  0  0  0  0  0  0  0  0  0
  -22.8090  -13.5850   21.0550 C   0  0  0  0  0  0  0  0  0  0  0  0
  -22.1140  -12.8860   21.9450 N   0  0  0  0  0  0  0  0  0  0  0  0
  -22.3530  -14.6100   20.5510 O   0  0  0  0  0  0  0  0  0  0  0  0
  -22.4980  -12.0560   22.3720 H   0  0  0  0  0  0  0  0  0  0  0  0
  -21.1850  -13.1860   22.2040 H   0  0  0  0  0  0  0  0  0  0  0  0
  -25.4030  -15.2560   20.1390 N   0  0  0  0  0  0  0  0  0  0  0  0
  -24.6380  -15.9080   20.2700 H   0  0  0  0  0  0  0  0  0  0  0  0
  -26.2380  -15.6970   19.7750 H   0  0  0  0  0  0  0  0  0  0  0  0
  -28.9280  -21.0680   20.7250 C   0  0  0  0  0  2  0  0  0  0  0  0
  -28.8300  -23.6870   20.4420 C   0  0  0  0  0  0  0  0  0  0  0  0
  -28.7270  -22.3870   19.9740 N   0  0  0  0  0  0  0  0  0  0  0  0
  -29.3830  -23.8960   21.5300 O   0  0  0  0  0  0  0  0  0  0  0  0
  -28.2910  -22.2990   19.0660 H   0  0  0  0  0  0  0  0  0  0  0  0
  -28.2040  -24.9300   19.6350 C   0  0  0  0  0  2  0  0  0  0  0  0
  -28.3580  -26.3740   20.0280 O   0  0  0  0  0  0  0  0  0  0  0  0
  -24.6430  -31.7720   23.1080 C   0  0  0  0  0  0  0  0  0  0  0  0
  -27.2540  -27.2550   19.9630 C   0  0  0  0  0  0  0  0  0  0  0  0
  -23.4410  -30.4150   21.4320 C   0  0  0  0  0  3  0  0  0  0  0  0
  -24.8940  -28.8930   19.9730 C   0  0  0  0  0  0  0  0  0  0  0  0
  -25.9820  -30.7280   21.2620 C   0  0  0  0  0  2  0  0  0  0  0  0
  -26.0630  -29.3620   20.5830 C   0  0  0  0  0  0  0  0  0  0  0  0
  -27.2440  -28.5560   20.5680 C   0  0  0  0  0  3  0  0  0  0  0  0
  -26.0610  -26.8480   19.3260 C   0  0  0  0  0  3  0  0  0  0  0  0
  -24.8970  -27.6430   19.3340 C   0  0  0  0  0  3  0  0  0  0  0  0
  -23.6570  -29.7690   20.0370 C   0  0  0  0  0  2  0  0  0  0  0  0
  -24.7090  -30.9880   21.9920 N   0  0  0  0  0  0  0  0  0  0  0  0
  -23.5580  -32.0380   23.6470 O   0  0  0  0  0  0  0  0  0  0  0  0
  -22.7720  -29.3800   22.3690 C   0  0  0  0  0  0  0  0  0  0  0  0
  -21.4390  -29.2350   22.2610 N   0  0  0  0  0  0  0  0  0  0  0  0
  -23.4510  -28.7120   23.1530 O   0  0  0  0  0  0  0  0  0  0  0  0
  -20.9510  -29.8300   21.6060 H   0  0  0  0  0  0  0  0  0  0  0  0
  -18.0410  -28.1100   22.8000 C   0  0  0  0  0  0  0  0  0  0  0  0
  -20.6130  -28.2860   23.0130 C   0  0  0  0  0  3  0  0  0  0  0  0
  -20.6590  -26.8790   22.3750 C   0  0  0  0  0  2  0  0  0  0  0  0
  -19.5210  -26.6310   21.3790 C   0  0  0  0  0  2  0  0  0  0  0  0
  -18.1610  -26.7860   22.0640 C   0  0  0  0  0  2  0  0  0  0  0  0
  -19.1930  -28.8210   23.2330 C   0  0  0  0  0  0  0  0  0  0  0  0
  -19.0270  -30.0610   23.8850 C   0  0  0  0  0  3  0  0  0  0  0  0
  -17.7430  -30.5910   24.1080 C   0  0  0  0  0  3  0  0  0  0  0  0
  -16.6060  -29.8760   23.6930 C   0  0  0  0  0  3  0  0  0  0  0  0
  -16.7560  -28.6380   23.0440 C   0  0  0  0  0  3  0  0  0  0  0  0
  -25.9240  -32.3880   23.7490 C   0  0  0  0  0  3  0  0  0  0  0  0
  -26.4300  -31.5930   25.0150 C   0  0  1  0  0  0  0  0  0  0  0  0
  -25.3320  -31.3450   26.0750 C   0  0  0  0  0  1  0  0  0  0  0  0
  -27.0080  -30.2190   24.6000 C   0  0  0  0  0  1  0  0  0  0  0  0
  -27.5810  -32.3710   25.6950 C   0  0  0  0  0  1  0  0  0  0  0  0
  -25.6150  -33.7820   24.1070 N   0  0  0  0  0  0  0  0  0  0  0  0
  -25.9570  -34.8510   23.3740 C   0  0  0  0  0  0  0  0  0  0  0  0
  -26.6340  -34.7670   22.3460 O   0  0  0  0  0  0  0  0  0  0  0  0
  -25.0150  -33.9200   24.9050 H   0  0  0  0  0  0  0  0  0  0  0  0
  -24.2390  -36.6590   23.0500 C   0  0  0  0  0  1  0  0  0  0  0  0
  -25.4710  -36.2290   23.8620 C   0  0  0  0  0  3  0  0  0  0  0  0
  -27.6020  -37.0860   24.7300 C   0  0  0  0  0  1  0  0  0  0  0  0
  -26.5060  -37.2830   23.7820 N   0  0  0  0  0  0  0  0  0  0  0  0
  -26.1010  -38.1990   23.9530 H   0  0  0  0  0  0  0  0  0  0  0  0
  1  3  1  0
  2  6  1  0
  2 48  1  0
  3 18  1  0
  3  6  2  0
  4  1  2  0
  4  5  1  0
  5  2  2  0
  6  9  1  0
  7  4  1  0
  8  5  1  0
 10 18  1  0
 11 16  1  0
 12 13  1  0
 12 11  1  0
 14 13  1  0
 14 23  1  0
 14 15  1  0
 16 10  1  0
 16 15  1  0
 17 10  2  0
 18 19  1  0
 20 21  2  0
 21 40  1  0
 22 21  1  0
 22 25  1  0
 23 20  1  0
 23 24  1  0
 24 22  2  0
 25 26  1  0
 26 27  2  0
 28 31  1  0
 28 27  1  0
 29 28  2  0
 30 29  1  0
 30 25  2  0
 31 32  1  0
 32 33  1  0
 33 34  2  0
 35 34  1  0
 35 39  1  0
 36 35  2  0
 37 32  2  0
 37 36  1  0
 38 37  1  0
 40 41  1  0
 41 44  1  0
 41 43  1  0
 42 40  2  0
 45 46  1  0
 45 20  1  0
 47 45  1  0
 49 51  2  0
 50 49  1  0
 50 48  1  0
 52 50  1  0
 53 54  1  0
 53 49  1  0
 55 66  2  0
 56 54  1  0
 56 61  1  0
 57 65  1  0
 57 67  1  0
 58 64  1  0
 58 60  1  0
 59 65  1  0
 60 59  1  0
 61 60  2  0
 62 63  1  0
 62 56  2  0
 63 58  2  0
 64 57  1  0
 65 55  1  0
 67 69  2  0
 68 67  1  0
 70 68  1  0
 71 80  2  0
 71 76  1  0
 72 68  1  0
 72 76  1  0
 73 72  1  0
 74 75  1  0
 74 73  1  0
 75 71  1  0
 76 77  2  0
 77 78  1  0
 79 78  2  0
 80 79  1  0
 81 55  1  0
 81 86  1  0
 81 82  1  0
 82 85  1  1
 82 83  1  0
 84 82  1  0
 86 89  1  0
 87 91  1  0
 87 86  1  0
 88 87  2  0
 91 90  1  0
 93 91  1  0
 93 94  1  0
 93 92  1  0
M  ISO  4  10 100  18 100  53 101  54 101
M  END
>  <TORSDO>  (47) 
F 19

>  <SCORE>  (47) 
-12.654

>  <name>  (47) 
47

>  <ligand_id>  (47) 
47

>  <original_smiles>  (47) 
[H]c1c([H])c([H])c2c(c1[H])C([H])([H])C([H])([H])C([H])([H])C2([H])N([H])C(=O)C1([H])N(C(=O)C([H])(N([H])C(=O)C([H])(N([H])C([H])([H])[H])C([H])([H])[H])C(C([H])([H])[H])(C([H])([H])[H])C([H])([H])[H])C([H])([H])c2c([H])c(OC([H])([H])C(=O)N([H])C([H])([H])c3c(F)c(F)c([H])c(N([H])C(=O)N4C([H])([H])C([H])([H])C([H])([H])C([H])(n5nc(-c6c([H])c([H])c(Oc7c([H])c([H])c(F)c([H])c7F)c([H])c6[H])c(C(=O)N([H])[H])c5N([H])[H])C4([H])[H])c3Cl)c([H])c([H])c2C1([H])[H]

>  <smiles>  (47) 
[H]c1c([H])c([H])c2c(c1[H])C([H])([H])C([H])([H])C([H])([H])C2([H])N([H])C(=O)C1([H])N(C(=O)C([H])(N([H])C(=O)C([H])(N([H])C([H])([H])[H])C([H])([H])[H])C(C([H])([H])[H])(C([H])([H])[H])C([H])([H])[H])C([H])([H])c2c([H])c(OC([H])([H])C(=O)N([H])C([H])([H])c3c(F)c(F)c([H])c(N([H])C(=O)N4C([H])([H])C([H])([H])C([H])([H])C([H])(n5nc(-c6c([H])c([H])c(Oc7c([H])c([H])c(F)c([H])c7F)c([H])c6[H])c(C(=O)N([H])[H])c5N([H])[H])C4([H])[H])c3Cl)c([H])c([H])c2C1([H])[H]

$$$$
48:0:0
     RDKit          3D

 94101  0  0  1  0  0  0  0  0999 V2000
  -29.5940  -20.6870   20.3090 C   0  0  0  0  0  0  0  0  0  0  0  0
  -28.9460  -21.8640   19.7900 N   0  0  0  0  0  0  0  0  0  0  0  0
  -30.5110  -20.8420   21.1170 O   0  0  0  0  0  0  0  0  0  0  0  0
  -29.1190  -23.5060   21.7310 C   0  0  0  0  0  1  0  0  0  0  0  0
  -29.1410  -23.4030   20.1970 C   0  0  0  0  0  3  0  0  0  0  0  0
  -28.2100  -24.7150   19.6480 C   0  0  0  0  0  2  0  0  0  0  0  0
  -28.3970  -26.2330   19.9690 O   0  0  0  0  0  0  0  0  0  0  0  0
  -24.5470  -31.7250   23.0630 C   0  0  0  0  0  0  0  0  0  0  0  0
  -27.3090  -27.1830   19.9210 C   0  0  0  0  0  0  0  0  0  0  0  0
  -23.4090  -30.3360   21.3740 C   0  0  0  0  0  3  0  0  0  0  0  0
  -24.9240  -28.8520   19.9210 C   0  0  0  0  0  0  0  0  0  0  0  0
  -25.9560  -30.6900   21.2440 C   0  0  0  0  0  2  0  0  0  0  0  0
  -26.0830  -29.3200   20.5520 C   0  0  0  0  0  0  0  0  0  0  0  0
  -27.2750  -28.5020   20.5360 C   0  0  0  0  0  3  0  0  0  0  0  0
  -26.1180  -26.8190   19.2550 C   0  0  0  0  0  3  0  0  0  0  0  0
  -24.9540  -27.6150   19.2600 C   0  0  0  0  0  3  0  0  0  0  0  0
  -23.6670  -29.7070   19.9790 C   0  0  0  0  0  2  0  0  0  0  0  0
  -24.6560  -30.9370   21.9500 N   0  0  0  0  0  0  0  0  0  0  0  0
  -23.4460  -31.9580   23.5860 O   0  0  0  0  0  0  0  0  0  0  0  0
  -22.7570  -29.2780   22.3000 C   0  0  0  0  0  0  0  0  0  0  0  0
  -21.4290  -29.0930   22.1810 N   0  0  0  0  0  0  0  0  0  0  0  0
  -23.4470  -28.6280   23.0910 O   0  0  0  0  0  0  0  0  0  0  0  0
  -20.9280  -29.6720   21.5220 H   0  0  0  0  0  0  0  0  0  0  0  0
  -18.0680  -27.8460   22.6900 C   0  0  0  0  0  0  0  0  0  0  0  0
  -20.6300  -28.1130   22.9220 C   0  0  0  0  0  3  0  0  0  0  0  0
  -20.7290  -26.7110   22.2770 C   0  0  0  0  0  2  0  0  0  0  0  0
  -19.6100  -26.4310   21.2690 C   0  0  0  0  0  2  0  0  0  0  0  0
  -18.2390  -26.5330   21.9450 C   0  0  0  0  0  2  0  0  0  0  0  0
  -19.1890  -28.5950   23.1350 C   0  0  0  0  0  0  0  0  0  0  0  0
  -18.9720  -29.8240   23.7930 C   0  0  0  0  0  3  0  0  0  0  0  0
  -17.6660  -30.3040   24.0110 C   0  0  0  0  0  3  0  0  0  0  0  0
  -16.5600  -29.5510   23.5820 C   0  0  0  0  0  3  0  0  0  0  0  0
  -16.7620  -28.3230   22.9270 C   0  0  0  0  0  3  0  0  0  0  0  0
  -25.7960  -32.3850   23.7220 C   0  0  0  0  0  3  0  0  0  0  0  0
  -26.3120  -31.6030   24.9920 C   0  0  1  0  0  0  0  0  0  0  0  0
  -25.2120  -31.3210   26.0400 C   0  0  0  0  0  1  0  0  0  0  0  0
  -26.9330  -30.2450   24.5880 C   0  0  0  0  0  1  0  0  0  0  0  0
  -27.4350  -32.4120   25.6840 C   0  0  0  0  0  1  0  0  0  0  0  0
  -25.4370  -33.7660   24.0810 N   0  0  0  0  0  0  0  0  0  0  0  0
  -25.7530  -34.8500   23.3610 C   0  0  0  0  0  0  0  0  0  0  0  0
  -26.4430  -34.7950   22.3410 O   0  0  0  0  0  0  0  0  0  0  0  0
  -24.8250  -33.8800   24.8750 H   0  0  0  0  0  0  0  0  0  0  0  0
  -23.9790  -36.6050   23.0330 C   0  0  0  0  0  1  0  0  0  0  0  0
  -25.2190  -36.2120   23.8500 C   0  0  0  0  0  3  0  0  0  0  0  0
  -27.3150  -37.1370   24.7350 C   0  0  0  0  0  1  0  0  0  0  0  0
  -26.2220  -37.2970   23.7800 N   0  0  0  0  0  0  0  0  0  0  0  0
  -25.7860  -38.2000   23.9460 H   0  0  0  0  0  0  0  0  0  0  0  0
  -29.2470  -19.0860   19.9730 C   0  0  0  0  0  3  0  0  0  0  0  0
  -30.2390  -17.7630   20.3590 C   0  0  0  0  0  3  0  0  0  0  0  0
  -30.5900  -15.0290   20.2210 C   0  0  0  0  0  0  0  0  0  0  0  0
  -30.4350  -12.6910   19.2640 C   0  0  0  0  0  2  0  0  0  0  0  0
  -29.4870  -12.6700   18.0420 C   0  0  0  0  0  2  0  0  0  0  0  0
  -28.0220  -12.4860   18.4830 C   0  0  0  0  0  2  0  0  0  0  0  0
  -27.6410  -13.3930   19.6820 C   0  0  0  0  0  3  0  0  0  0  0  0
  -28.7110  -13.3720   20.7940 C   0  0  0  0  0  2  0  0  0  0  0  0
  -29.9750  -13.7810   20.1690 N   0  0  0  0  0  0  0  0  0  0  0  0
  -31.7970  -15.0750   19.9580 O   0  0  0  0  0  0  0  0  0  0  0  0
  -29.8330  -16.2270   20.3530 N   0  0  0  0  0  0  0  0  0  0  0  0
  -28.8480  -16.0550   20.4910 H   0  0  0  0  0  0  0  0  0  0  0  0
  -25.2660  -13.9770   20.4330 C   0  0  0  0  0  0  0  0  0  0  0  0
  -24.2020  -13.2050   20.8100 C   0  0  0  0  0  0  0  0  0  0  0  0
  -24.6640  -11.8530   20.7790 C   0  0  0  0  0  0  0  0  0  0  0  0
  -26.3070  -13.0960   20.1900 N   0  0  0  0  0  0  0  0  0  0  0  0
  -25.9540  -11.8130   20.4650 N   0  0  0  0  0  0  0  0  0  0  0  0
  -23.9340  -10.5940   20.9710 C   0  0  0  0  0  0  0  0  0  0  0  0
  -24.3740   -9.6170   21.8910 C   0  0  0  0  0  3  0  0  0  0  0  0
  -23.6420   -8.4240   22.0750 C   0  0  0  0  0  3  0  0  0  0  0  0
  -22.4550   -8.2000   21.3370 C   0  0  0  0  0  0  0  0  0  0  0  0
  -22.0340   -9.1640   20.4040 C   0  0  0  0  0  3  0  0  0  0  0  0
  -22.7680  -10.3480   20.2190 C   0  0  0  0  0  3  0  0  0  0  0  0
  -21.6950   -7.0600   21.4300 O   0  0  0  0  0  0  0  0  0  0  0  0
  -21.6690   -6.3030   22.5740 C   0  0  0  0  0  0  0  0  0  0  0  0
  -21.3030   -6.8500   23.8220 C   0  0  0  0  0  3  0  0  0  0  0  0
  -21.2240   -6.0200   24.9590 C   0  0  0  0  0  3  0  0  0  0  0  0
  -21.5030   -4.6440   24.8470 C   0  0  0  0  0  0  0  0  0  0  0  0
  -21.8650   -4.0970   23.6040 C   0  0  0  0  0  3  0  0  0  0  0  0
  -21.9450   -4.9240   22.4700 C   0  0  0  0  0  0  0  0  0  0  0  0
  -22.2730   -4.3880   21.2700 F   0  0  0  0  0  0  0  0  0  0  0  0
  -21.4210   -3.8450   25.9370 F   0  0  0  0  0  0  0  0  0  0  0  0
  -22.8080  -13.6860   21.0850 C   0  0  0  0  0  0  0  0  0  0  0  0
  -22.0860  -13.0030   21.9650 N   0  0  0  0  0  0  0  0  0  0  0  0
  -22.3700  -14.7040   20.5510 O   0  0  0  0  0  0  0  0  0  0  0  0
  -22.4540  -12.1790   22.4160 H   0  0  0  0  0  0  0  0  0  0  0  0
  -21.1500  -13.3080   22.1920 H   0  0  0  0  0  0  0  0  0  0  0  0
  -25.4270  -15.3470   20.2510 N   0  0  0  0  0  0  0  0  0  0  0  0
  -24.6520  -15.9920   20.3660 H   0  0  0  0  0  0  0  0  0  0  0  0
  -26.2500  -15.7880   19.8600 H   0  0  0  0  0  0  0  0  0  0  0  0
  -28.0450  -21.6880   18.6440 C   0  0  0  0  0  2  0  0  0  0  0  0
  -26.5670  -21.7090   19.0680 C   0  0  0  0  0  2  0  0  0  0  0  0
  -25.6010  -21.6830   17.8660 C   0  0  0  0  0  2  0  0  0  0  0  0
  -24.1980  -21.8870   18.2690 N   0  0  0  0  0  4  0  0  0  0  0  0
  -23.8880  -21.1610   18.8910 H   0  0  0  0  0  0  0  0  0  0  0  0
  -23.6030  -21.8730   17.4580 H   0  0  0  0  0  0  0  0  0  0  0  0
  -24.0790  -22.7740   18.7240 H   0  0  0  0  0  0  0  0  0  0  0  0
  1  3  2  0
  2  5  1  0
  2  1  1  0
  5  4  1  0
  6  7  1  0
  6  5  1  0
  8 19  2  0
  9  7  1  0
  9 14  1  0
 10 18  1  0
 10 20  1  0
 11 17  1  0
 11 13  1  0
 12 18  1  0
 13 12  1  0
 14 13  2  0
 15 16  1  0
 15  9  2  0
 16 11  2  0
 17 10  1  0
 18  8  1  0
 20 22  2  0
 21 20  1  0
 23 21  1  0
 24 33  2  0
 24 29  1  0
 25 21  1  0
 25 29  1  0
 26 25  1  0
 27 28  1  0
 27 26  1  0
 28 24  1  0
 29 30  2  0
 30 31  1  0
 32 31  2  0
 33 32  1  0
 34  8  1  0
 34 39  1  0
 34 35  1  0
 35 38  1  1
 35 36  1  0
 37 35  1  0
 39 42  1  0
 40 44  1  0
 40 39  1  0
 41 40  2  0
 44 43  1  0
 46 44  1  0
 46 47  1  0
 46 45  1  0
 48  1  1  0
 48 49  2  0
 50 58  1  0
 51 56  1  0
 52 53  1  0
 52 51  1  0
 54 53  1  0
 54 63  1  0
 54 55  1  0
 56 50  1  0
 56 55  1  0
 57 50  2  0
 58 49  1  0
 58 59  1  0
 60 61  2  0
 61 80  1  0
 62 61  1  0
 62 65  1  0
 63 60  1  0
 63 64  1  0
 64 62  2  0
 65 66  1  0
 66 67  2  0
 68 71  1  0
 68 67  1  0
 69 68  2  0
 70 69  1  0
 70 65  2  0
 71 72  1  0
 72 73  1  0
 73 74  2  0
 75 74  1  0
 75 79  1  0
 76 75  2  0
 77 72  2  0
 77 76  1  0
 78 77  1  0
 80 81  1  0
 81 84  1  0
 81 83  1  0
 82 80  2  0
 85 86  1  0
 85 60  1  0
 87 85  1  0
 88 89  1  0
 88  2  1  0
 90 91  1  0
 90 89  1  0
 91 94  1  0
 91 92  1  0
 93 91  1  0
M  ISO  4   6 101   7 101  50 100  58 100
M  END
>  <TORSDO>  (48) 
F 24

>  <SCORE>  (48) 
-13.837

>  <name>  (48) 
48

>  <ligand_id>  (48) 
48

>  <original_smiles>  (48) 
[H]c1c([H])c([H])c2c(c1[H])C([H])([H])C([H])([H])C([H])([H])C2([H])N([H])C(=O)C1([H])N(C(=O)C([H])(N([H])C(=O)C([H])(N([H])C([H])([H])[H])C([H])([H])[H])C(C([H])([H])[H])(C([H])([H])[H])C([H])([H])[H])C([H])([H])c2c([H])c(OC([H])([H])C([H])(N(C(=O)C([H])([H])C([H])([H])N([H])C(=O)N3C([H])([H])C([H])([H])C([H])([H])C([H])(n4nc(-c5c([H])c([H])c(Oc6c([H])c([H])c(F)c([H])c6F)c([H])c5[H])c(C(=O)N([H])[H])c4N([H])[H])C3([H])[H])C([H])([H])C([H])([H])C([H])([H])[N+]([H])([H])[H])C([H])([H])[H])c([H])c([H])c2C1([H])[H]

>  <smiles>  (48) 
[H]c1c([H])c([H])c2c(c1[H])C([H])([H])C([H])([H])C([H])([H])C2([H])N([H])C(=O)C1([H])N(C(=O)C([H])(N([H])C(=O)C([H])(N([H])C([H])([H])[H])C([H])([H])[H])C(C([H])([H])[H])(C([H])([H])[H])C([H])([H])[H])C([H])([H])c2c([H])c(OC([H])([H])C([H])(N(C(=O)C([H])([H])C([H])([H])N([H])C(=O)N3C([H])([H])C([H])([H])C([H])([H])C([H])(n4nc(-c5c([H])c([H])c(Oc6c([H])c([H])c(F)c([H])c6F)c([H])c5[H])c(C(=O)N([H])[H])c4N([H])[H])C3([H])[H])C([H])([H])C([H])([H])C([H])([H])[N+]([H])([H])[H])C([H])([H])[H])c([H])c([H])c2C1([H])[H]

$$$$
49:0:0
     RDKit          3D

 92100  0  0  1  0  0  0  0  0999 V2000
  -31.2050  -18.1240   21.1760 C   0  0  0  0  0  3  0  0  0  0  0  0
  -31.5910  -19.4460   21.4830 C   0  0  0  0  0  0  0  0  0  0  0  0
  -29.9710  -17.8110   20.5830 C   0  0  0  0  0  0  0  0  0  0  0  0
  -29.4890  -20.4740   20.5910 C   0  0  0  0  0  0  0  0  0  0  0  0
  -30.7720  -20.5800   21.2190 C   0  0  0  0  0  0  0  0  0  0  0  0
  -29.1310  -19.0310   20.3030 C   0  0  0  0  0  0  0  0  0  0  0  0
  -32.9510  -19.6390   22.1360 C   0  0  0  0  0  1  0  0  0  0  0  0
  -31.4260  -22.1070   21.7190 Cl  0  0  0  0  0  0  0  0  0  0  0  0
  -27.5970  -18.7440   19.5620 Cl  0  0  0  0  0  0  0  0  0  0  0  0
  -30.4740  -15.0990   20.3220 C   0  0  0  0  0  0  0  0  0  0  0  0
  -30.3880  -12.7380   19.3650 C   0  0  0  0  0  2  0  0  0  0  0  0
  -29.4390  -12.6590   18.1490 C   0  0  0  0  0  2  0  0  0  0  0  0
  -27.9870  -12.4180   18.6040 C   0  0  0  0  0  2  0  0  0  0  0  0
  -27.5770  -13.3390   19.7820 C   0  0  0  0  0  3  0  0  0  0  0  0
  -28.6480  -13.3810   20.8910 C   0  0  0  0  0  2  0  0  0  0  0  0
  -29.8920  -13.8300   20.2550 N   0  0  0  0  0  0  0  0  0  0  0  0
  -31.6870  -15.1470   20.0840 O   0  0  0  0  0  0  0  0  0  0  0  0
  -29.6750  -16.2950   20.3910 N   0  0  0  0  0  0  0  0  0  0  0  0
  -28.6900  -16.0910   20.3290 H   0  0  0  0  0  0  0  0  0  0  0  0
  -25.2080  -13.8810   20.5720 C   0  0  0  0  0  0  0  0  0  0  0  0
  -24.1580  -13.0900   20.9480 C   0  0  0  0  0  0  0  0  0  0  0  0
  -24.6380  -11.7450   20.8930 C   0  0  0  0  0  0  0  0  0  0  0  0
  -26.2550  -13.0170   20.3030 N   0  0  0  0  0  0  0  0  0  0  0  0
  -25.9240  -11.7260   20.5640 N   0  0  0  0  0  0  0  0  0  0  0  0
  -23.9270  -10.4730   21.0760 C   0  0  0  0  0  0  0  0  0  0  0  0
  -24.3760   -9.4990   21.9940 C   0  0  0  0  0  3  0  0  0  0  0  0
  -23.6630   -8.2930   22.1650 C   0  0  0  0  0  3  0  0  0  0  0  0
  -22.4860   -8.0520   21.4180 C   0  0  0  0  0  0  0  0  0  0  0  0
  -22.0560   -9.0140   20.4880 C   0  0  0  0  0  3  0  0  0  0  0  0
  -22.7690  -10.2120   20.3140 C   0  0  0  0  0  3  0  0  0  0  0  0
  -21.7420   -6.9000   21.5010 O   0  0  0  0  0  0  0  0  0  0  0  0
  -21.7010   -6.1500   22.6480 C   0  0  0  0  0  0  0  0  0  0  0  0
  -21.2420   -6.6860   23.8710 C   0  0  0  0  0  3  0  0  0  0  0  0
  -21.1510   -5.8610   25.0110 C   0  0  0  0  0  3  0  0  0  0  0  0
  -21.5070   -4.5010   24.9280 C   0  0  0  0  0  0  0  0  0  0  0  0
  -21.9590   -3.9660   23.7090 C   0  0  0  0  0  3  0  0  0  0  0  0
  -22.0530   -4.7880   22.5720 C   0  0  0  0  0  0  0  0  0  0  0  0
  -22.4690   -4.2610   21.3950 F   0  0  0  0  0  0  0  0  0  0  0  0
  -21.4130   -3.7070   26.0190 F   0  0  0  0  0  0  0  0  0  0  0  0
  -22.7600  -13.5500   21.2410 C   0  0  0  0  0  0  0  0  0  0  0  0
  -22.0470  -12.8310   22.1020 N   0  0  0  0  0  0  0  0  0  0  0  0
  -22.3090  -14.5800   20.7430 O   0  0  0  0  0  0  0  0  0  0  0  0
  -22.4260  -11.9970   22.5260 H   0  0  0  0  0  0  0  0  0  0  0  0
  -21.1090  -13.1200   22.3420 H   0  0  0  0  0  0  0  0  0  0  0  0
  -25.3520  -15.2560   20.4080 N   0  0  0  0  0  0  0  0  0  0  0  0
  -24.5750  -15.8940   20.5380 H   0  0  0  0  0  0  0  0  0  0  0  0
  -26.1730  -15.7110   20.0320 H   0  0  0  0  0  0  0  0  0  0  0  0
  -28.6710  -21.7230   20.3030 N   0  0  0  0  0  0  0  0  0  0  0  0
  -27.7710  -21.5220   19.8780 H   0  0  0  0  0  0  0  0  0  0  0  0
  -28.9400  -23.2790   20.5280 C   0  0  0  0  0  3  0  0  0  0  0  0
  -27.9230  -24.6040   20.1330 C   0  0  0  0  0  3  0  0  0  0  0  0
  -28.1880  -26.1500   20.3370 O   0  0  0  0  0  0  0  0  0  0  0  0
  -24.6280  -31.9640   23.2500 C   0  0  0  0  0  0  0  0  0  0  0  0
  -27.1550  -27.1690   20.2560 C   0  0  0  0  0  0  0  0  0  0  0  0
  -23.4200  -30.5690   21.6190 C   0  0  0  0  0  3  0  0  0  0  0  0
  -24.8540  -28.9680   20.2050 C   0  0  0  0  0  0  0  0  0  0  0  0
  -25.9800  -30.7980   21.4590 C   0  0  0  0  0  2  0  0  0  0  0  0
  -26.0390  -29.3990   20.8130 C   0  0  0  0  0  0  0  0  0  0  0  0
  -27.1900  -28.5150   20.8200 C   0  0  0  0  0  3  0  0  0  0  0  0
  -25.9430  -26.8520   19.6050 C   0  0  0  0  0  3  0  0  0  0  0  0
  -24.8210  -27.7100   19.5830 C   0  0  0  0  0  3  0  0  0  0  0  0
  -23.6380  -29.8820   20.2440 C   0  0  0  0  0  2  0  0  0  0  0  0
  -24.6970  -31.1340   22.1640 N   0  0  0  0  0  0  0  0  0  0  0  0
  -23.5430  -32.2640   23.7740 O   0  0  0  0  0  0  0  0  0  0  0  0
  -22.7280  -29.5760   22.5870 C   0  0  0  0  0  0  0  0  0  0  0  0
  -21.3980  -29.4130   22.4570 N   0  0  0  0  0  0  0  0  0  0  0  0
  -23.3890  -28.9540   23.4220 O   0  0  0  0  0  0  0  0  0  0  0  0
  -20.9210  -29.9640   21.7570 H   0  0  0  0  0  0  0  0  0  0  0  0
  -18.0060  -28.2490   22.9690 C   0  0  0  0  0  0  0  0  0  0  0  0
  -20.5670  -28.4900   23.2350 C   0  0  0  0  0  3  0  0  0  0  0  0
  -20.6560  -27.0530   22.6700 C   0  0  0  0  0  2  0  0  0  0  0  0
  -19.5530  -26.7340   21.6570 C   0  0  0  0  0  2  0  0  0  0  0  0
  -18.1720  -26.8940   22.3000 C   0  0  0  0  0  2  0  0  0  0  0  0
  -19.1310  -29.0040   23.3940 C   0  0  0  0  0  0  0  0  0  0  0  0
  -18.9220  -30.2690   23.9840 C   0  0  0  0  0  3  0  0  0  0  0  0
  -17.6210  -30.7790   24.1530 C   0  0  0  0  0  3  0  0  0  0  0  0
  -16.5100  -30.0220   23.7440 C   0  0  0  0  0  3  0  0  0  0  0  0
  -16.7030  -28.7590   23.1570 C   0  0  0  0  0  3  0  0  0  0  0  0
  -25.9100  -32.5970   23.8740 C   0  0  0  0  0  3  0  0  0  0  0  0
  -26.4140  -31.8310   25.1600 C   0  0  1  0  0  0  0  0  0  0  0  0
  -25.3120  -31.6070   26.2230 C   0  0  0  0  0  1  0  0  0  0  0  0
  -26.9920  -30.4470   24.7880 C   0  0  0  0  0  1  0  0  0  0  0  0
  -27.5650  -32.6240   25.8240 C   0  0  0  0  0  1  0  0  0  0  0  0
  -25.6060  -33.9980   24.2020 N   0  0  0  0  0  0  0  0  0  0  0  0
  -25.9340  -35.0510   23.4400 C   0  0  0  0  0  0  0  0  0  0  0  0
  -26.5900  -34.9430   22.4000 O   0  0  0  0  0  0  0  0  0  0  0  0
  -25.0240  -34.1570   25.0100 H   0  0  0  0  0  0  0  0  0  0  0  0
  -24.2120  -36.8590   23.1100 C   0  0  0  0  0  1  0  0  0  0  0  0
  -25.4620  -36.4450   23.9030 C   0  0  0  0  0  3  0  0  0  0  0  0
  -27.6090  -37.3250   24.7100 C   0  0  0  0  0  1  0  0  0  0  0  0
  -26.4990  -37.4920   23.7740 N   0  0  0  0  0  0  0  0  0  0  0  0
  -26.0990  -38.4150   23.9200 H   0  0  0  0  0  0  0  0  0  0  0  0
  1  2  1  0
  2  7  1  0
  3  1  2  0
  4  5  1  0
  5  2  2  0
  5  8  1  0
  6  3  1  0
  6  4  2  0
  9  6  1  0
 10 18  1  0
 11 16  1  0
 12 13  1  0
 12 11  1  0
 14 13  1  0
 14 23  1  0
 14 15  1  0
 16 10  1  0
 16 15  1  0
 17 10  2  0
 18  3  1  0
 19 18  1  0
 20 21  2  0
 21 40  1  0
 22 21  1  0
 22 25  1  0
 23 24  1  0
 23 20  1  0
 24 22  2  0
 25 26  1  0
 26 27  2  0
 28 31  1  0
 28 27  1  0
 29 28  2  0
 30 29  1  0
 30 25  2  0
 31 32  1  0
 32 33  1  0
 33 34  2  0
 35 34  1  0
 35 39  1  0
 36 35  2  0
 37 32  2  0
 37 36  1  0
 38 37  1  0
 40 41  1  0
 41 44  1  0
 41 43  1  0
 42 40  2  0
 45 46  1  0
 45 20  1  0
 47 45  1  0
 48 50  1  0
 48  4  1  0
 49 48  1  0
 51 52  1  0
 51 50  2  0
 53 64  2  0
 54 52  1  0
 54 59  1  0
 55 63  1  0
 55 65  1  0
 56 62  1  0
 56 58  1  0
 57 63  1  0
 58 59  2  0
 58 57  1  0
 60 54  2  0
 61 60  1  0
 61 56  2  0
 62 55  1  0
 63 53  1  0
 65 67  2  0
 66 65  1  0
 68 66  1  0
 69 78  2  0
 69 74  1  0
 70 66  1  0
 70 74  1  0
 71 70  1  0
 72 73  1  0
 72 71  1  0
 73 69  1  0
 74 75  2  0
 75 76  1  0
 77 76  2  0
 78 77  1  0
 79 53  1  0
 79 84  1  0
 79 80  1  0
 80 83  1  1
 80 81  1  0
 82 80  1  0
 84 87  1  0
 85 89  1  0
 85 84  1  0
 86 85  2  0
 89 88  1  0
 91 89  1  0
 91 92  1  0
 91 90  1  0
M  ISO  4  10 100  18 100  51 101  52 101
M  END
>  <TORSDO>  (49) 
F 19

>  <SCORE>  (49) 
-15.404

>  <name>  (49) 
49

>  <ligand_id>  (49) 
49

>  <original_smiles>  (49) 
[H]c1c([H])c([H])c2c(c1[H])C([H])([H])C([H])([H])C([H])([H])C2([H])N([H])C(=O)C1([H])N(C(=O)C([H])(N([H])C(=O)C([H])(N([H])C([H])([H])[H])C([H])([H])[H])C(C([H])([H])[H])(C([H])([H])[H])C([H])([H])[H])C([H])([H])c2c([H])c(OC([H])([H])C([H])([H])N([H])c3c(Cl)c(N([H])C(=O)N4C([H])([H])C([H])([H])C([H])([H])C([H])(n5nc(-c6c([H])c([H])c(Oc7c([H])c([H])c(F)c([H])c7F)c([H])c6[H])c(C(=O)N([H])[H])c5N([H])[H])C4([H])[H])c([H])c(C([H])([H])[H])c3Cl)c([H])c([H])c2C1([H])[H]

>  <smiles>  (49) 
[H]c1c([H])c([H])c2c(c1[H])C([H])([H])C([H])([H])C([H])([H])C2([H])N([H])C(=O)C1([H])N(C(=O)C([H])(N([H])C(=O)C([H])(N([H])C([H])([H])[H])C([H])([H])[H])C(C([H])([H])[H])(C([H])([H])[H])C([H])([H])[H])C([H])([H])c2c([H])c(OC([H])([H])C([H])([H])N([H])c3c(Cl)c(N([H])C(=O)N4C([H])([H])C([H])([H])C([H])([H])C([H])(n5nc(-c6c([H])c([H])c(Oc7c([H])c([H])c(F)c([H])c7F)c([H])c6[H])c(C(=O)N([H])[H])c5N([H])[H])C4([H])[H])c([H])c(C([H])([H])[H])c3Cl)c([H])c([H])c2C1([H])[H]

$$$$
50:0:0
     RDKit          3D

 81 85  0  0  1  0  0  0  0  0999 V2000
  -28.1450  -24.6270   20.2810 O   0  0  0  0  0  1  0  0  0  0  0  0
  -24.7360  -31.7770   23.1240 C   0  0  0  0  0  0  0  0  0  0  0  0
  -27.2360  -26.1230   20.2550 C   0  0  0  0  0  0  0  0  0  0  0  0
  -23.5810  -30.3540   21.4950 C   0  0  0  0  0  3  0  0  0  0  0  0
  -25.0350  -28.5580   20.1520 C   0  0  0  0  0  0  0  0  0  0  0  0
  -26.1810  -30.3010   21.4710 C   0  0  0  0  0  2  0  0  0  0  0  0
  -26.2370  -28.7960   20.8260 C   0  0  0  0  0  0  0  0  0  0  0  0
  -27.2890  -27.6290   20.8250 C   0  0  0  0  0  3  0  0  0  0  0  0
  -25.9950  -26.2610   19.5170 C   0  0  0  0  0  3  0  0  0  0  0  0
  -24.9900  -27.3210   19.4710 C   0  0  0  0  0  3  0  0  0  0  0  0
  -23.8620  -29.5920   20.1560 C   0  0  0  0  0  2  0  0  0  0  0  0
  -24.8650  -30.8590   22.0820 N   0  0  0  0  0  0  0  0  0  0  0  0
  -23.6270  -32.1120   23.5860 O   0  0  0  0  0  0  0  0  0  0  0  0
  -22.7900  -29.4480   22.4840 C   0  0  0  0  0  0  0  0  0  0  0  0
  -21.4490  -29.3480   22.3620 N   0  0  0  0  0  0  0  0  0  0  0  0
  -23.4080  -28.8210   23.3460 O   0  0  0  0  0  0  0  0  0  0  0  0
  -20.9890  -29.9070   21.6570 H   0  0  0  0  0  0  0  0  0  0  0  0
  -18.0270  -28.2010   22.9070 C   0  0  0  0  0  0  0  0  0  0  0  0
  -20.5970  -28.4300   23.1370 C   0  0  0  0  0  3  0  0  0  0  0  0
  -20.6610  -26.9950   22.5610 C   0  0  0  0  0  2  0  0  0  0  0  0
  -19.5470  -26.6990   21.5520 C   0  0  0  0  0  2  0  0  0  0  0  0
  -18.1740  -26.8590   22.2090 C   0  0  0  0  0  2  0  0  0  0  0  0
  -19.1630  -28.9470   23.3260 C   0  0  0  0  0  0  0  0  0  0  0  0
  -18.9630  -30.1970   23.9490 C   0  0  0  0  0  3  0  0  0  0  0  0
  -17.6650  -30.7060   24.1470 C   0  0  0  0  0  3  0  0  0  0  0  0
  -16.5470  -29.9610   23.7360 C   0  0  0  0  0  3  0  0  0  0  0  0
  -16.7280  -28.7080   23.1220 C   0  0  0  0  0  3  0  0  0  0  0  0
  -25.9660  -32.4620   23.7980 C   0  0  0  0  0  3  0  0  0  0  0  0
  -25.6200  -33.8670   24.1320 N   0  0  0  0  0  0  0  0  0  0  0  0
  -25.9430  -34.9490   23.4090 C   0  0  0  0  0  0  0  0  0  0  0  0
  -26.6040  -34.8730   22.3720 O   0  0  0  0  0  0  0  0  0  0  0  0
  -25.0260  -33.9980   24.9380 H   0  0  0  0  0  0  0  0  0  0  0  0
  -24.1910  -36.7520   23.1500 C   0  0  0  0  0  1  0  0  0  0  0  0
  -25.4640  -36.3330   23.9070 C   0  0  0  0  0  3  0  0  0  0  0  0
  -27.6190  -37.2420   24.6710 C   0  0  0  0  0  1  0  0  0  0  0  0
  -26.4810  -37.4010   23.7690 N   0  0  0  0  0  0  0  0  0  0  0  0
  -26.0680  -38.3150   23.9370 H   0  0  0  0  0  0  0  0  0  0  0  0
  -26.4320  -31.7240   25.1160 C   0  0  1  0  0  0  0  0  0  0  0  0
  -25.2990  -31.5160   26.1510 C   0  0  0  0  0  1  0  0  0  0  0  0
  -27.0240  -30.3350   24.8030 C   0  0  0  0  0  1  0  0  0  0  0  0
  -27.5620  -32.5320   25.7970 C   0  0  0  0  0  1  0  0  0  0  0  0
  -28.1710  -22.5220   20.2090 C   0  0  0  0  0 15  0  0  0  0  0  0
  -29.1660  -20.3850   20.1480 C   0  0  0  0  0 15  0  0  0  0  0  0
  -29.9120  -16.6550   20.0720 C   0  0  0  0  0  0  0  0  0  0  0  0
  -30.2800  -13.8990   19.2710 C   0  0  0  0  0  2  0  0  0  0  0  0
  -29.5090  -13.0550   18.1740 C   0  0  0  0  0  2  0  0  0  0  0  0
  -28.1890  -12.4780   18.6910 C   0  0  0  0  0  2  0  0  0  0  0  0
  -27.5490  -13.5030   19.6370 C   0  0  0  0  0  3  0  0  0  0  0  0
  -28.5140  -14.2000   20.6660 C   0  0  0  0  0  2  0  0  0  0  0  0
  -29.4950  -15.1260   19.9430 N   0  0  0  0  0  0  0  0  0  0  0  0
  -31.1630  -16.4330   19.9930 O   0  0  0  0  0  0  0  0  0  0  0  0
  -27.7180  -18.0080   20.1050 C   0  0  0  0  0  1  0  0  0  0  0  0
  -29.1530  -18.2750   20.1130 N   0  0  0  0  0  2  0  0  0  0  0  0
  -25.1970  -13.9010   20.4400 C   0  0  0  0  0  0  0  0  0  0  0  0
  -24.1650  -13.0900   20.8120 C   0  0  0  0  0  0  0  0  0  0  0  0
  -24.6750  -11.7540   20.7730 C   0  0  0  0  0  0  0  0  0  0  0  0
  -26.2710  -13.0720   20.1950 N   0  0  0  0  0  0  0  0  0  0  0  0
  -25.9710  -11.7640   20.4480 N   0  0  0  0  0  0  0  0  0  0  0  0
  -23.9700  -10.4730   20.9700 C   0  0  0  0  0  0  0  0  0  0  0  0
  -24.4070   -9.5230   21.9190 C   0  0  0  0  0  3  0  0  0  0  0  0
  -23.6950   -8.3190   22.1120 C   0  0  0  0  0  3  0  0  0  0  0  0
  -22.5290   -8.0530   21.3550 C   0  0  0  0  0  0  0  0  0  0  0  0
  -22.1080   -8.9920   20.3960 C   0  0  0  0  0  3  0  0  0  0  0  0
  -22.8220  -10.1880   20.2030 C   0  0  0  0  0  3  0  0  0  0  0  0
  -21.7880   -6.9000   21.4560 O   0  0  0  0  0  0  0  0  0  0  0  0
  -21.7270   -6.1800   22.6230 C   0  0  0  0  0  0  0  0  0  0  0  0
  -21.2580   -6.7510   23.8270 C   0  0  0  0  0  3  0  0  0  0  0  0
  -21.1470   -5.9570   24.9870 C   0  0  0  0  0  3  0  0  0  0  0  0
  -21.4930   -4.5930   24.9420 C   0  0  0  0  0  0  0  0  0  0  0  0
  -21.9530   -4.0210   23.7440 C   0  0  0  0  0  3  0  0  0  0  0  0
  -22.0660   -4.8130   22.5870 C   0  0  0  0  0  0  0  0  0  0  0  0
  -22.4910   -4.2510   21.4290 F   0  0  0  0  0  0  0  0  0  0  0  0
  -21.3790   -3.8290   26.0540 F   0  0  0  0  0  0  0  0  0  0  0  0
  -22.7570  -13.5350   21.0800 C   0  0  0  0  0  0  0  0  0  0  0  0
  -22.0510  -12.8350   21.9580 N   0  0  0  0  0  0  0  0  0  0  0  0
  -22.2960  -14.5440   20.5480 O   0  0  0  0  0  0  0  0  0  0  0  0
  -22.4330  -12.0170   22.4080 H   0  0  0  0  0  0  0  0  0  0  0  0
  -21.1080  -13.1200   22.1850 H   0  0  0  0  0  0  0  0  0  0  0  0
  -25.3130  -15.2750   20.2500 N   0  0  0  0  0  0  0  0  0  0  0  0
  -24.5280  -15.9120   20.3500 H   0  0  0  0  0  0  0  0  0  0  0  0
  -26.1470  -15.7220   19.8960 H   0  0  0  0  0  0  0  0  0  0  0  0
  2 13  2  0
  3  1  1  0
  3  8  1  0
  4 12  1  0
  4 14  1  0
  5 11  1  0
  5  7  1  0
  6 12  1  0
  7  6  1  0
  8  7  2  0
  9  3  2  0
 10  9  1  0
 10  5  2  0
 11  4  1  0
 12  2  1  0
 14 16  2  0
 15 14  1  0
 17 15  1  0
 18 27  2  0
 18 23  1  0
 19 15  1  0
 19 23  1  0
 20 19  1  0
 21 22  1  0
 21 20  1  0
 22 18  1  0
 23 24  2  0
 24 25  1  0
 26 25  2  0
 27 26  1  0
 28  2  1  0
 28 29  1  0
 28 38  1  0
 29 32  1  0
 30 34  1  0
 30 29  1  0
 31 30  2  0
 34 33  1  0
 36 34  1  0
 36 37  1  0
 36 35  1  0
 38 41  1  1
 38 39  1  0
 40 38  1  0
 44 53  1  0
 45 50  1  0
 46 47  1  0
 46 45  1  0
 48 47  1  0
 48 57  1  0
 48 49  1  0
 50 44  1  0
 50 49  1  0
 51 44  2  0
 52 53  1  0
 54 55  2  0
 55 74  1  0
 56 55  1  0
 56 59  1  0
 57 54  1  0
 57 58  1  0
 58 56  2  0
 59 60  1  0
 60 61  2  0
 62 65  1  0
 62 61  1  0
 63 62  2  0
 64 63  1  0
 64 59  2  0
 65 66  1  0
 66 67  1  0
 67 68  2  0
 69 68  1  0
 69 73  1  0
 70 69  2  0
 71 66  2  0
 71 70  1  0
 72 71  1  0
 74 75  1  0
 75 78  1  0
 75 77  1  0
 76 74  2  0
 79 80  1  0
 79 54  1  0
 81 79  1  0
M  ISO  4   1 101  42 101  44 100  53 100
M  END
>  <TORSDO>  (50) 
F 17

>  <SCORE>  (50) 
-16.291

>  <name>  (50) 
50

>  <ligand_id>  (50) 
50

>  <original_smiles>  (50) 
[H]c1c([H])c([H])c2c(c1[H])C([H])([H])C([H])([H])C([H])([H])C2([H])N([H])C(=O)C1([H])N(C(=O)C([H])(N([H])C(=O)C([H])(N([H])C([H])([H])[H])C([H])([H])[H])C(C([H])([H])[H])(C([H])([H])[H])C([H])([H])[H])C([H])([H])c2c([H])c(OC([H])([H])C([H])([H])N(C(=O)N3C([H])([H])C([H])([H])C([H])([H])C([H])(n4nc(-c5c([H])c([H])c(Oc6c([H])c([H])c(F)c([H])c6F)c([H])c5[H])c(C(=O)N([H])[H])c4N([H])[H])C3([H])[H])C([H])([H])[H])c([H])c([H])c2C1([H])[H]

>  <smiles>  (50) 
[H]c1c([H])c([H])c2c(c1[H])C([H])([H])C([H])([H])C([H])([H])C2([H])N([H])C(=O)C1([H])N(C(=O)C([H])(N([H])C(=O)C([H])(N([H])C([H])([H])[H])C([H])([H])[H])C(C([H])([H])[H])(C([H])([H])[H])C([H])([H])[H])C([H])([H])c2c([H])c(OC([H])([H])C([H])([H])N(C(=O)N3C([H])([H])C([H])([H])C([H])([H])C([H])(n4nc(-c5c([H])c([H])c(Oc6c([H])c([H])c(F)c([H])c6F)c([H])c5[H])c(C(=O)N([H])[H])c4N([H])[H])C3([H])[H])C([H])([H])[H])c([H])c([H])c2C1([H])[H]

$$$$
51:0:0
     RDKit          3D

 97105  0  0  1  0  0  0  0  0999 V2000
  -31.2560  -20.0860   19.5170 C   0  0  0  0  0  3  0  0  0  0  0  0
  -31.7690  -17.7110   19.7040 C   0  0  0  0  0  3  0  0  0  0  0  0
  -32.2010  -19.0410   19.4820 C   0  0  0  0  0  0  0  0  0  0  0  0
  -29.8820  -19.8680   19.7440 C   0  0  0  0  0  0  0  0  0  0  0  0
  -30.4170  -17.3550   19.9500 C   0  0  0  0  0  0  0  0  0  0  0  0
  -29.4740  -18.4820   19.9620 C   0  0  0  0  0  0  0  0  0  0  0  0
  -30.7360  -14.7250   19.8320 C   0  0  0  0  0  0  0  0  0  0  0  0
  -30.3530  -12.5130   18.7460 C   0  0  0  0  0  2  0  0  0  0  0  0
  -29.3120  -12.6720   17.6180 C   0  0  0  0  0  2  0  0  0  0  0  0
  -27.8890  -12.4970   18.1770 C   0  0  0  0  0  2  0  0  0  0  0  0
  -27.6480  -13.3280   19.4670 C   0  0  0  0  0  3  0  0  0  0  0  0
  -28.8070  -13.1830   20.4780 C   0  0  0  0  0  2  0  0  0  0  0  0
  -30.0440  -13.5360   19.7740 N   0  0  0  0  0  0  0  0  0  0  0  0
  -31.9060  -14.7300   19.4480 O   0  0  0  0  0  0  0  0  0  0  0  0
  -30.0490  -15.9080   20.1190 N   0  0  0  0  0  0  0  0  0  0  0  0
  -29.1000  -15.7550   20.4200 H   0  0  0  0  0  0  0  0  0  0  0  0
  -25.3550  -13.9030   20.4580 C   0  0  0  0  0  0  0  0  0  0  0  0
  -24.3140  -13.1210   20.8800 C   0  0  0  0  0  0  0  0  0  0  0  0
  -24.7440  -11.7680   20.7220 C   0  0  0  0  0  0  0  0  0  0  0  0
  -26.3540  -13.0260   20.0700 N   0  0  0  0  0  0  0  0  0  0  0  0
  -26.0000  -11.7330   20.2920 N   0  0  0  0  0  0  0  0  0  0  0  0
  -24.0130  -10.5070   20.8980 C   0  0  0  0  0  0  0  0  0  0  0  0
  -24.4570   -9.5130   21.7980 C   0  0  0  0  0  3  0  0  0  0  0  0
  -23.7240   -8.3190   21.9650 C   0  0  0  0  0  3  0  0  0  0  0  0
  -22.5320   -8.1090   21.2320 C   0  0  0  0  0  0  0  0  0  0  0  0
  -22.1070   -9.0900   20.3200 C   0  0  0  0  0  3  0  0  0  0  0  0
  -22.8400  -10.2770   20.1520 C   0  0  0  0  0  3  0  0  0  0  0  0
  -21.7680   -6.9690   21.3110 O   0  0  0  0  0  0  0  0  0  0  0  0
  -21.6800   -6.2400   22.4690 C   0  0  0  0  0  0  0  0  0  0  0  0
  -21.1810   -6.8000   23.6650 C   0  0  0  0  0  3  0  0  0  0  0  0
  -21.0430   -5.9970   24.8140 C   0  0  0  0  0  3  0  0  0  0  0  0
  -21.3920   -4.6340   24.7680 C   0  0  0  0  0  0  0  0  0  0  0  0
  -21.8830   -4.0730   23.5760 C   0  0  0  0  0  3  0  0  0  0  0  0
  -22.0230   -4.8740   22.4290 C   0  0  0  0  0  0  0  0  0  0  0  0
  -22.4770   -4.3230   21.2780 F   0  0  0  0  0  0  0  0  0  0  0  0
  -21.2520   -3.8600   25.8710 F   0  0  0  0  0  0  0  0  0  0  0  0
  -22.9580  -13.6000   21.3090 C   0  0  0  0  0  0  0  0  0  0  0  0
  -22.3010  -12.8680   22.2020 N   0  0  0  0  0  0  0  0  0  0  0  0
  -22.4930  -14.6600   20.8890 O   0  0  0  0  0  0  0  0  0  0  0  0
  -22.6920  -12.0090   22.5600 H   0  0  0  0  0  0  0  0  0  0  0  0
  -21.3970  -13.1710   22.5310 H   0  0  0  0  0  0  0  0  0  0  0  0
  -25.5270  -15.2790   20.3460 N   0  0  0  0  0  0  0  0  0  0  0  0
  -24.7660  -15.9230   20.5330 H   0  0  0  0  0  0  0  0  0  0  0  0
  -26.3170  -15.7240   19.8990 H   0  0  0  0  0  0  0  0  0  0  0  0
  -29.2020  -22.3720   20.0080 C   0  0  0  0  0  0  0  0  0  0  0  0
  -28.9790  -21.0470   19.6370 N   0  0  0  0  0  0  0  0  0  0  0  0
  -30.0480  -22.6310   20.8670 O   0  0  0  0  0  0  0  0  0  0  0  0
  -28.1200  -20.8760   19.1320 H   0  0  0  0  0  0  0  0  0  0  0  0
  -28.4100  -23.6200   19.3850 C   0  0  0  0  0  2  0  0  0  0  0  0
  -28.1490  -24.9690   20.2500 C   0  0  0  0  0  2  0  0  0  0  0  0
  -28.2290  -26.3680   19.7120 O   0  0  0  0  0  0  0  0  0  0  0  0
  -24.4930  -31.6270   23.0540 C   0  0  0  0  0  0  0  0  0  0  0  0
  -27.1090  -27.2140   19.7770 C   0  0  0  0  0  0  0  0  0  0  0  0
  -23.2900  -30.3030   21.3510 C   0  0  0  0  0  3  0  0  0  0  0  0
  -24.7420  -28.8240   19.8470 C   0  0  0  0  0  0  0  0  0  0  0  0
  -25.8260  -30.6430   21.1690 C   0  0  0  0  0  2  0  0  0  0  0  0
  -25.9120  -29.2930   20.4590 C   0  0  0  0  0  0  0  0  0  0  0  0
  -27.1040  -28.5020   20.4060 C   0  0  0  0  0  3  0  0  0  0  0  0
  -25.9170  -26.7980   19.1540 C   0  0  0  0  0  3  0  0  0  0  0  0
  -24.7480  -27.5850   19.1840 C   0  0  0  0  0  3  0  0  0  0  0  0
  -23.5020  -29.6950   19.9400 C   0  0  0  0  0  2  0  0  0  0  0  0
  -24.5560  -30.8730   21.9150 N   0  0  0  0  0  0  0  0  0  0  0  0
  -23.4090  -31.8710   23.6060 O   0  0  0  0  0  0  0  0  0  0  0  0
  -22.6350  -29.2390   22.2650 C   0  0  0  0  0  0  0  0  0  0  0  0
  -21.3070  -29.0770   22.1510 N   0  0  0  0  0  0  0  0  0  0  0  0
  -23.3230  -28.5630   23.0340 O   0  0  0  0  0  0  0  0  0  0  0  0
  -20.8110  -29.6760   21.5060 H   0  0  0  0  0  0  0  0  0  0  0  0
  -17.9250  -27.8980   22.6690 C   0  0  0  0  0  0  0  0  0  0  0  0
  -20.4940  -28.1010   22.8800 C   0  0  0  0  0  3  0  0  0  0  0  0
  -20.5560  -26.7120   22.2040 C   0  0  0  0  0  2  0  0  0  0  0  0
  -19.4200  -26.4760   21.2030 C   0  0  0  0  0  2  0  0  0  0  0  0
  -18.0600  -26.5960   21.8960 C   0  0  0  0  0  2  0  0  0  0  0  0
  -19.0680  -28.6120   23.1160 C   0  0  0  0  0  0  0  0  0  0  0  0
  -18.8870  -29.8340   23.8000 C   0  0  0  0  0  3  0  0  0  0  0  0
  -17.5960  -30.3420   24.0390 C   0  0  0  0  0  3  0  0  0  0  0  0
  -16.4680  -29.6230   23.6080 C   0  0  0  0  0  3  0  0  0  0  0  0
  -16.6330  -28.4020   22.9280 C   0  0  0  0  0  3  0  0  0  0  0  0
  -25.7730  -32.2360   23.7020 C   0  0  0  0  0  3  0  0  0  0  0  0
  -25.4620  -33.6200   24.0890 N   0  0  0  0  0  0  0  0  0  0  0  0
  -25.7880  -34.7030   23.3720 C   0  0  0  0  0  0  0  0  0  0  0  0
  -26.4530  -34.6440   22.3330 O   0  0  0  0  0  0  0  0  0  0  0  0
  -24.8700  -33.7380   24.8980 H   0  0  0  0  0  0  0  0  0  0  0  0
  -24.0570  -36.5090   23.0970 C   0  0  0  0  0  1  0  0  0  0  0  0
  -25.3010  -36.0720   23.8880 C   0  0  0  0  0  3  0  0  0  0  0  0
  -27.4260  -36.9330   24.7620 C   0  0  0  0  0  1  0  0  0  0  0  0
  -26.3320  -37.1290   23.8180 N   0  0  0  0  0  0  0  0  0  0  0  0
  -25.9230  -38.0430   23.9920 H   0  0  0  0  0  0  0  0  0  0  0  0
  -26.2880  -31.4160   24.9490 C   0  0  1  0  0  0  0  0  0  0  0  0
  -25.1950  -31.1420   26.0080 C   0  0  0  0  0  1  0  0  0  0  0  0
  -26.8660  -30.0530   24.5040 C   0  0  0  0  0  1  0  0  0  0  0  0
  -27.4410  -32.1810   25.6400 C   0  0  0  0  0  1  0  0  0  0  0  0
  -34.2180  -20.3350   20.2640 C   0  0  0  0  0  1  0  0  0  0  0  0
  -33.7590  -20.0950   17.8010 C   0  0  0  0  0  1  0  0  0  0  0  0
  -34.5970  -18.1580   19.1160 C   0  0  0  0  0  1  0  0  0  0  0  0
  -33.6720  -19.3930   19.1720 C   0  0  2  0  0  0  0  0  0  0  0  0
  -27.8070  -17.3060   21.1540 C   0  0  0  0  0  1  0  0  0  0  0  0
  -28.1310  -18.2720   20.1600 O   0  0  0  0  0  0  0  0  0  0  0  0
  1  4  1  0
  2  5  2  0
  3  1  2  0
  3  2  1  0
  4  6  2  0
  5  6  1  0
  5 15  1  0
  6 97  1  0
  7 15  1  0
  8 13  1  0
  9 10  1  0
  9  8  1  0
 11 10  1  0
 11 20  1  0
 11 12  1  0
 13  7  1  0
 13 12  1  0
 14  7  2  0
 15 16  1  0
 17 18  2  0
 18 37  1  0
 19 18  1  0
 19 22  1  0
 20 21  1  0
 20 17  1  0
 21 19  2  0
 22 23  1  0
 23 24  2  0
 25 28  1  0
 25 24  1  0
 26 25  2  0
 27 26  1  0
 27 22  2  0
 28 29  1  0
 29 30  1  0
 30 31  2  0
 32 31  1  0
 32 36  1  0
 33 32  2  0
 34 29  2  0
 34 33  1  0
 35 34  1  0
 37 38  1  0
 38 41  1  0
 38 40  1  0
 39 37  2  0
 42 17  1  0
 42 43  1  0
 44 42  1  0
 45 47  2  0
 46  4  1  0
 46 45  1  0
 48 46  1  0
 49 45  1  0
 49 50  1  0
 51 53  1  0
 51 50  1  0
 52 63  2  0
 53 58  1  0
 54 62  1  0
 54 64  1  0
 55 61  1  0
 55 57  1  0
 56 62  1  0
 57 56  1  0
 58 57  2  0
 59 60  1  0
 59 53  2  0
 60 55  2  0
 61 54  1  0
 62 52  1  0
 64 66  2  0
 65 64  1  0
 67 65  1  0
 68 77  2  0
 68 73  1  0
 69 65  1  0
 69 73  1  0
 70 69  1  0
 71 72  1  0
 71 70  1  0
 72 68  1  0
 73 74  2  0
 74 75  1  0
 76 75  2  0
 77 76  1  0
 78 52  1  0
 78 79  1  0
 78 88  1  0
 79 82  1  0
 80 84  1  0
 80 79  1  0
 81 80  2  0
 84 83  1  0
 86 84  1  0
 86 87  1  0
 86 85  1  0
 88 91  1  1
 88 89  1  0
 90 88  1  0
 95 93  1  6
 94 95  1  0
 95  3  1  0
 95 92  1  0
 97 96  1  0
M  ISO  4   7 100  15 100  50 101  51 101
M  END
>  <TORSDO>  (51) 
F 21

>  <SCORE>  (51) 
-12.098

>  <name>  (51) 
51

>  <ligand_id>  (51) 
51

>  <original_smiles>  (51) 
[H]c1c([H])c([H])c2c(c1[H])C([H])([H])C([H])([H])C([H])([H])C2([H])N([H])C(=O)C1([H])N(C(=O)C([H])(N([H])C(=O)C([H])(N([H])C([H])([H])[H])C([H])([H])[H])C(C([H])([H])[H])(C([H])([H])[H])C([H])([H])[H])C([H])([H])c2c([H])c(OC([H])([H])C([H])([H])C(=O)N([H])c3c([H])c(C(C([H])([H])[H])(C([H])([H])[H])C([H])([H])[H])c([H])c(N([H])C(=O)N4C([H])([H])C([H])([H])C([H])([H])C([H])(n5nc(-c6c([H])c([H])c(Oc7c([H])c([H])c(F)c([H])c7F)c([H])c6[H])c(C(=O)N([H])[H])c5N([H])[H])C4([H])[H])c3OC([H])([H])[H])c([H])c([H])c2C1([H])[H]

>  <smiles>  (51) 
[H]c1c([H])c([H])c2c(c1[H])C([H])([H])C([H])([H])C([H])([H])C2([H])N([H])C(=O)C1([H])N(C(=O)C([H])(N([H])C(=O)C([H])(N([H])C([H])([H])[H])C([H])([H])[H])C(C([H])([H])[H])(C([H])([H])[H])C([H])([H])[H])C([H])([H])c2c([H])c(OC([H])([H])C([H])([H])C(=O)N([H])c3c([H])c(C(C([H])([H])[H])(C([H])([H])[H])C([H])([H])[H])c([H])c(N([H])C(=O)N4C([H])([H])C([H])([H])C([H])([H])C([H])(n5nc(-c6c([H])c([H])c(Oc7c([H])c([H])c(F)c([H])c7F)c([H])c6[H])c(C(=O)N([H])[H])c5N([H])[H])C4([H])[H])c3OC([H])([H])[H])c([H])c([H])c2C1([H])[H]

$$$$
52:0:0
     RDKit          3D

 94102  0  0  1  0  0  0  0  0999 V2000
  -29.7680  -18.4800   20.6850 C   0  0  0  0  0  0  0  0  0  0  0  0
  -30.0820  -17.3540   19.9270 C   0  0  0  0  0  0  0  0  0  0  0  0
  -29.7410  -19.8550   20.0730 C   0  0  0  0  0  0  0  0  0  0  0  0
  -30.3180  -17.5780   18.4900 C   0  0  0  0  0  0  0  0  0  0  0  0
  -29.4290  -18.3860   22.1630 C   0  0  0  0  0  1  0  0  0  0  0  0
  -30.7460  -19.1820   16.7070 C   0  0  0  0  0  1  0  0  0  0  0  0
  -30.0760  -20.0380   18.8330 N   0  0  0  0  0  0  0  0  0  0  0  0
  -30.4050  -18.8930   18.1040 N   0  0  0  0  0  0  0  0  0  0  0  0
  -29.3320  -21.0070   20.8440 N   0  0  0  0  0  4  0  0  0  0  0  0
  -30.3740  -16.6690   17.6570 O   0  0  0  0  0  0  0  0  0  0  0  0
  -28.9300  -20.7700   21.7460 H   0  0  0  0  0  0  0  0  0  0  0  0
  -30.7720  -14.8560   20.0300 C   0  0  0  0  0  0  0  0  0  0  0  0
  -30.5070  -12.6270   18.9450 C   0  0  0  0  0  2  0  0  0  0  0  0
  -29.5010  -12.7780   17.7790 C   0  0  0  0  0  2  0  0  0  0  0  0
  -28.0550  -12.6000   18.2800 C   0  0  0  0  0  2  0  0  0  0  0  0
  -27.7640  -13.4180   19.5680 C   0  0  0  0  0  3  0  0  0  0  0  0
  -28.8830  -13.2510   20.6200 C   0  0  0  0  0  2  0  0  0  0  0  0
  -30.1500  -13.6280   19.9770 N   0  0  0  0  0  0  0  0  0  0  0  0
  -31.9250  -14.9790   19.6000 O   0  0  0  0  0  0  0  0  0  0  0  0
  -30.0160  -15.9620   20.3980 N   0  0  0  0  0  0  0  0  0  0  0  0
  -29.1760  -15.7440   20.9080 H   0  0  0  0  0  0  0  0  0  0  0  0
  -25.4160  -13.9950   20.4270 C   0  0  0  0  0  0  0  0  0  0  0  0
  -24.3620  -13.2160   20.8230 C   0  0  0  0  0  0  0  0  0  0  0  0
  -24.8150  -11.8640   20.7290 C   0  0  0  0  0  0  0  0  0  0  0  0
  -26.4420  -13.1180   20.1140 N   0  0  0  0  0  0  0  0  0  0  0  0
  -26.0900  -11.8300   20.3560 N   0  0  0  0  0  0  0  0  0  0  0  0
  -24.0930  -10.5990   20.9190 C   0  0  0  0  0  0  0  0  0  0  0  0
  -24.5430   -9.6240   21.8350 C   0  0  0  0  0  3  0  0  0  0  0  0
  -23.8210   -8.4230   22.0150 C   0  0  0  0  0  3  0  0  0  0  0  0
  -22.6350   -8.1910   21.2800 C   0  0  0  0  0  0  0  0  0  0  0  0
  -22.2040   -9.1550   20.3510 C   0  0  0  0  0  3  0  0  0  0  0  0
  -22.9260  -10.3480   20.1710 C   0  0  0  0  0  3  0  0  0  0  0  0
  -21.8840   -7.0440   21.3690 O   0  0  0  0  0  0  0  0  0  0  0  0
  -21.8180   -6.3140   22.5290 C   0  0  0  0  0  0  0  0  0  0  0  0
  -21.3330   -6.8720   23.7330 C   0  0  0  0  0  3  0  0  0  0  0  0
  -21.2170   -6.0660   24.8850 C   0  0  0  0  0  3  0  0  0  0  0  0
  -21.5780   -4.7080   24.8340 C   0  0  0  0  0  0  0  0  0  0  0  0
  -22.0550   -4.1490   23.6350 C   0  0  0  0  0  3  0  0  0  0  0  0
  -22.1740   -4.9520   22.4860 C   0  0  0  0  0  0  0  0  0  0  0  0
  -22.6160   -4.4040   21.3290 F   0  0  0  0  0  0  0  0  0  0  0  0
  -21.4590   -3.9330   25.9380 F   0  0  0  0  0  0  0  0  0  0  0  0
  -22.9830  -13.6910   21.1760 C   0  0  0  0  0  0  0  0  0  0  0  0
  -22.2910  -12.9770   22.0570 N   0  0  0  0  0  0  0  0  0  0  0  0
  -22.5270  -14.7320   20.7030 O   0  0  0  0  0  0  0  0  0  0  0  0
  -22.6720  -12.1340   22.4590 H   0  0  0  0  0  0  0  0  0  0  0  0
  -21.3680  -13.2830   22.3330 H   0  0  0  0  0  0  0  0  0  0  0  0
  -25.5890  -15.3700   20.2890 N   0  0  0  0  0  0  0  0  0  0  0  0
  -24.8570  -16.0430   20.4850 H   0  0  0  0  0  0  0  0  0  0  0  0
  -26.4360  -15.8010   19.9430 H   0  0  0  0  0  0  0  0  0  0  0  0
  -31.1380  -22.7100   20.3430 C   0  0  0  0  0  1  0  0  0  0  0  0
  -29.6970  -22.4990   20.8300 C   0  0  0  0  0  0  0  0  0  0  0  0
  -28.7330  -23.6840   20.2440 C   0  0  0  0  0  2  0  0  0  0  0  0
  -28.6970  -25.1390   21.0020 C   0  0  0  0  0  2  0  0  0  0  0  0
  -28.6520  -26.5070   20.3670 O   0  0  0  0  0  0  0  0  0  0  0  0
  -24.7070  -31.9210   23.2850 C   0  0  0  0  0  0  0  0  0  0  0  0
  -27.5050  -27.3330   20.3910 C   0  0  0  0  0  0  0  0  0  0  0  0
  -23.5870  -30.4810   21.6210 C   0  0  0  0  0  3  0  0  0  0  0  0
  -25.1170  -28.9310   20.2650 C   0  0  0  0  0  0  0  0  0  0  0  0
  -26.1290  -30.8380   21.5180 C   0  0  0  0  0  2  0  0  0  0  0  0
  -26.2570  -29.4450   20.8940 C   0  0  0  0  0  0  0  0  0  0  0  0
  -27.4580  -28.6640   20.9350 C   0  0  0  0  0  3  0  0  0  0  0  0
  -26.3360  -26.8740   19.7510 C   0  0  0  0  0  3  0  0  0  0  0  0
  -25.1610  -27.6540   19.6810 C   0  0  0  0  0  3  0  0  0  0  0  0
  -23.8650  -29.7930   20.2570 C   0  0  0  0  0  2  0  0  0  0  0  0
  -24.8250  -31.1000   22.1990 N   0  0  0  0  0  0  0  0  0  0  0  0
  -23.6010  -32.1790   23.7820 O   0  0  0  0  0  0  0  0  0  0  0  0
  -22.9090  -29.4660   22.5720 C   0  0  0  0  0  0  0  0  0  0  0  0
  -21.5840  -29.2890   22.4300 N   0  0  0  0  0  0  0  0  0  0  0  0
  -23.5760  -28.8360   23.3980 O   0  0  0  0  0  0  0  0  0  0  0  0
  -21.1000  -29.8470   21.7380 H   0  0  0  0  0  0  0  0  0  0  0  0
  -18.1930  -28.1220   22.9220 C   0  0  0  0  0  0  0  0  0  0  0  0
  -20.7570  -28.3470   23.1880 C   0  0  0  0  0  3  0  0  0  0  0  0
  -20.8410  -26.9230   22.5860 C   0  0  0  0  0  2  0  0  0  0  0  0
  -19.7320  -26.6330   21.5720 C   0  0  0  0  0  2  0  0  0  0  0  0
  -18.3520  -26.7840   22.2210 C   0  0  0  0  0  2  0  0  0  0  0  0
  -19.3230  -28.8640   23.3620 C   0  0  0  0  0  0  0  0  0  0  0  0
  -19.1180  -30.1190   23.9770 C   0  0  0  0  0  3  0  0  0  0  0  0
  -17.8190  -30.6310   24.1530 C   0  0  0  0  0  3  0  0  0  0  0  0
  -16.7050  -29.8870   23.7250 C   0  0  0  0  0  3  0  0  0  0  0  0
  -16.8950  -28.6330   23.1180 C   0  0  0  0  0  3  0  0  0  0  0  0
  -25.9540  -32.5860   23.9440 C   0  0  0  0  0  3  0  0  0  0  0  0
  -26.4230  -31.8550   25.2630 C   0  0  1  0  0  0  0  0  0  0  0  0
  -25.2860  -31.6260   26.2850 C   0  0  0  0  0  1  0  0  0  0  0  0
  -27.0430  -30.4770   24.9320 C   0  0  0  0  0  1  0  0  0  0  0  0
  -27.5300  -32.6840   25.9580 C   0  0  0  0  0  1  0  0  0  0  0  0
  -25.6140  -33.9890   24.2280 N   0  0  0  0  0  0  0  0  0  0  0  0
  -25.9520  -35.0260   23.4520 C   0  0  0  0  0  0  0  0  0  0  0  0
  -26.6480  -34.9050   22.4400 O   0  0  0  0  0  0  0  0  0  0  0  0
  -25.0000  -34.1550   25.0130 H   0  0  0  0  0  0  0  0  0  0  0  0
  -24.2030  -36.7780   23.0100 C   0  0  0  0  0  1  0  0  0  0  0  0
  -25.4340  -36.4200   23.8580 C   0  0  0  0  0  3  0  0  0  0  0  0
  -27.5310  -37.3650   24.7150 C   0  0  0  0  0  1  0  0  0  0  0  0
  -26.4530  -37.4850   23.7360 N   0  0  0  0  0  0  0  0  0  0  0  0
  -26.0300  -38.4040   23.8410 H   0  0  0  0  0  0  0  0  0  0  0  0
  1  5  1  0
  2 20  1  0
  2  1  2  0
  3  1  1  0
  3  9  1  0
  4  2  1  0
  6  8  1  0
  7  3  2  0
  8  4  1  0
  8  7  1  0
  9 11  1  0
 10  4  2  0
 12 20  1  0
 13 18  1  0
 14 15  1  0
 14 13  1  0
 16 15  1  0
 16 25  1  0
 16 17  1  0
 18 12  1  0
 18 17  1  0
 19 12  2  0
 20 21  1  0
 22 23  2  0
 23 42  1  0
 24 23  1  0
 24 27  1  0
 25 26  1  0
 25 22  1  0
 26 24  2  0
 27 28  1  0
 28 29  2  0
 30 33  1  0
 30 29  1  0
 31 30  2  0
 32 31  1  0
 32 27  2  0
 33 34  1  0
 34 35  1  0
 35 36  2  0
 37 36  1  0
 37 41  1  0
 38 37  2  0
 39 34  2  0
 39 38  1  0
 40 39  1  0
 42 43  1  0
 43 46  1  0
 43 45  1  0
 44 42  2  0
 47 22  1  0
 47 48  1  0
 49 47  1  0
 50 51  1  0
 51  9  2  3
 52 51  1  0
 52 53  1  0
 54 56  1  0
 54 53  1  0
 55 66  2  0
 56 61  1  0
 57 65  1  0
 57 67  1  0
 58 60  1  0
 59 65  1  0
 60 61  2  0
 60 59  1  0
 62 56  2  0
 63 62  1  0
 63 58  2  0
 64 58  1  0
 64 57  1  0
 65 55  1  0
 67 69  2  0
 68 67  1  0
 70 68  1  0
 71 80  2  0
 71 76  1  0
 72 68  1  0
 72 76  1  0
 73 72  1  0
 74 75  1  0
 74 73  1  0
 75 71  1  0
 76 77  2  0
 77 78  1  0
 79 78  2  0
 80 79  1  0
 81 55  1  0
 81 86  1  0
 81 82  1  0
 82 85  1  1
 82 83  1  0
 84 82  1  0
 86 89  1  0
 87 91  1  0
 87 86  1  0
 88 87  2  0
 91 90  1  0
 93 94  1  0
 93 91  1  0
 93 92  1  0
M  ISO  4  12 100  20 100  53 101  54 101
M  END
>  <TORSDO>  (52) 
F 19

>  <SCORE>  (52) 
-12.480

>  <name>  (52) 
52

>  <ligand_id>  (52) 
52

>  <original_smiles>  (52) 
[H]c1c([H])c([H])c2c(c1[H])C([H])([H])C([H])([H])C([H])([H])C2([H])N([H])C(=O)C1([H])N(C(=O)C([H])(N([H])C(=O)C([H])(N([H])C([H])([H])[H])C([H])([H])[H])C(C([H])([H])[H])(C([H])([H])[H])C([H])([H])[H])C([H])([H])c2c([H])c(OC([H])([H])C([H])([H])C([H])(N([H])c3nn(C([H])([H])[H])c(=O)c(N([H])C(=O)N4C([H])([H])C([H])([H])C([H])([H])C([H])(n5nc(-c6c([H])c([H])c(Oc7c([H])c([H])c(F)c([H])c7F)c([H])c6[H])c(C(=O)N([H])[H])c5N([H])[H])C4([H])[H])c3C([H])([H])[H])C([H])([H])[H])c([H])c([H])c2C1([H])[H]

>  <smiles>  (52) 
[H]c1c([H])c([H])c2c(c1[H])C([H])([H])C([H])([H])C([H])([H])C2([H])N([H])C(=O)C1([H])N(C(=O)C([H])(N([H])C(=O)C([H])(N([H])C([H])([H])[H])C([H])([H])[H])C(C([H])([H])[H])(C([H])([H])[H])C([H])([H])[H])C([H])([H])c2c([H])c(OC([H])([H])C([H])([H])C([H])(N([H])c3nn(C([H])([H])[H])c(=O)c(N([H])C(=O)N4C([H])([H])C([H])([H])C([H])([H])C([H])(n5nc(-c6c([H])c([H])c(Oc7c([H])c([H])c(F)c([H])c7F)c([H])c6[H])c(C(=O)N([H])[H])c5N([H])[H])C4([H])[H])c3C([H])([H])[H])C([H])([H])[H])c([H])c([H])c2C1([H])[H]

$$$$
53:0:0
     RDKit          3D

 89 97  0  0  1  0  0  0  0  0999 V2000
  -28.7460  -22.0940   19.9720 C   0  0  0  0  0  0  0  0  0  0  0  0
  -30.0980  -21.1620   21.7930 C   0  0  0  0  0  1  0  0  0  0  0  0
  -29.3490  -20.9550   20.5510 N   0  0  0  0  0  0  0  0  0  0  0  0
  -27.9990  -21.9460   19.0020 O   0  0  0  0  0  0  0  0  0  0  0  0
  -30.7430  -14.9540   19.9850 C   0  0  0  0  0  0  0  0  0  0  0  0
  -30.4160  -12.6730   18.9870 C   0  0  0  0  0  2  0  0  0  0  0  0
  -29.4170  -12.6840   17.8130 C   0  0  0  0  0  2  0  0  0  0  0  0
  -27.9840  -12.4840   18.3400 C   0  0  0  0  0  2  0  0  0  0  0  0
  -27.6660  -13.3820   19.5670 C   0  0  0  0  0  3  0  0  0  0  0  0
  -28.7970  -13.3640   20.6170 C   0  0  0  0  0  2  0  0  0  0  0  0
  -30.0190  -13.7710   19.9150 N   0  0  0  0  0  0  0  0  0  0  0  0
  -31.9400  -14.8670   19.6930 O   0  0  0  0  0  0  0  0  0  0  0  0
  -28.7160  -18.3290   20.9090 C   0  0  0  0  0  2  0  0  0  0  0  0
  -30.8030  -18.8700   19.8110 C   0  0  0  0  0  2  0  0  0  0  0  0
  -28.8380  -16.7950   20.4190 C   0  0  0  0  0  2  0  0  0  0  0  0
  -30.8750  -17.3860   19.2520 C   0  0  0  0  0  2  0  0  0  0  0  0
  -29.3810  -19.4740   20.0370 C   0  0  0  0  0  3  0  0  0  0  0  0
  -30.1720  -16.2630   19.9790 N   0  0  0  0  0  0  0  0  0  0  0  0
  -25.3400  -13.9440   20.4720 C   0  0  0  0  0  0  0  0  0  0  0  0
  -24.2990  -13.1600   20.8820 C   0  0  0  0  0  0  0  0  0  0  0  0
  -24.7580  -11.8100   20.7830 C   0  0  0  0  0  0  0  0  0  0  0  0
  -26.3640  -13.0730   20.1430 N   0  0  0  0  0  0  0  0  0  0  0  0
  -26.0280  -11.7820   20.3980 N   0  0  0  0  0  0  0  0  0  0  0  0
  -24.0400  -10.5430   20.9780 C   0  0  0  0  0  0  0  0  0  0  0  0
  -24.4970   -9.5680   21.8910 C   0  0  0  0  0  3  0  0  0  0  0  0
  -23.7770   -8.3680   22.0770 C   0  0  0  0  0  3  0  0  0  0  0  0
  -22.5850   -8.1360   21.3490 C   0  0  0  0  0  0  0  0  0  0  0  0
  -22.1470   -9.1000   20.4250 C   0  0  0  0  0  3  0  0  0  0  0  0
  -22.8680  -10.2920   20.2370 C   0  0  0  0  0  3  0  0  0  0  0  0
  -21.8340   -6.9900   21.4460 O   0  0  0  0  0  0  0  0  0  0  0  0
  -21.7770   -6.2620   22.6090 C   0  0  0  0  0  0  0  0  0  0  0  0
  -21.2940   -6.8180   23.8130 C   0  0  0  0  0  3  0  0  0  0  0  0
  -21.1880   -6.0150   24.9660 C   0  0  0  0  0  3  0  0  0  0  0  0
  -21.5530   -4.6560   24.9150 C   0  0  0  0  0  0  0  0  0  0  0  0
  -22.0270   -4.1000   23.7150 C   0  0  0  0  0  3  0  0  0  0  0  0
  -22.1360   -4.9000   22.5630 C   0  0  0  0  0  0  0  0  0  0  0  0
  -22.5740   -4.3530   21.4040 F   0  0  0  0  0  0  0  0  0  0  0  0
  -21.4450   -3.8820   26.0200 F   0  0  0  0  0  0  0  0  0  0  0  0
  -22.9210  -13.6290   21.2490 C   0  0  0  0  0  0  0  0  0  0  0  0
  -22.2500  -12.9190   22.1480 N   0  0  0  0  0  0  0  0  0  0  0  0
  -22.4520  -14.6640   20.7750 O   0  0  0  0  0  0  0  0  0  0  0  0
  -22.6440  -12.0820   22.5520 H   0  0  0  0  0  0  0  0  0  0  0  0
  -21.3290  -13.2160   22.4340 H   0  0  0  0  0  0  0  0  0  0  0  0
  -25.4950  -15.3200   20.3230 N   0  0  0  0  0  0  0  0  0  0  0  0
  -24.7440  -15.9720   20.5170 H   0  0  0  0  0  0  0  0  0  0  0  0
  -26.3280  -15.7700   19.9690 H   0  0  0  0  0  0  0  0  0  0  0  0
  -29.0080  -23.6360   20.4510 C   0  0  0  0  0  3  0  0  0  0  0  0
  -28.0160  -24.8810   20.0320 C   0  0  0  0  0  3  0  0  0  0  0  0
  -28.2830  -26.3660   20.2890 O   0  0  0  0  0  0  0  0  0  0  0  0
  -24.6330  -31.9180   23.2990 C   0  0  0  0  0  0  0  0  0  0  0  0
  -27.2180  -27.3090   20.2070 C   0  0  0  0  0  0  0  0  0  0  0  0
  -23.4330  -30.5460   21.6390 C   0  0  0  0  0  3  0  0  0  0  0  0
  -24.8830  -29.0070   20.1900 C   0  0  0  0  0  0  0  0  0  0  0  0
  -25.9810  -30.8360   21.4730 C   0  0  0  0  0  2  0  0  0  0  0  0
  -26.0570  -29.4600   20.8050 C   0  0  0  0  0  0  0  0  0  0  0  0
  -27.2260  -28.6230   20.8030 C   0  0  0  0  0  3  0  0  0  0  0  0
  -26.0230  -26.9470   19.5440 C   0  0  0  0  0  3  0  0  0  0  0  0
  -24.8740  -27.7610   19.5480 C   0  0  0  0  0  3  0  0  0  0  0  0
  -23.6510  -29.8920   20.2490 C   0  0  0  0  0  2  0  0  0  0  0  0
  -24.7020  -31.1180   22.1930 N   0  0  0  0  0  0  0  0  0  0  0  0
  -23.5460  -32.1920   23.8300 O   0  0  0  0  0  0  0  0  0  0  0  0
  -22.7600  -29.5190   22.5820 C   0  0  0  0  0  0  0  0  0  0  0  0
  -21.4350  -29.3410   22.4450 N   0  0  0  0  0  0  0  0  0  0  0  0
  -23.4310  -28.8860   23.4010 O   0  0  0  0  0  0  0  0  0  0  0  0
  -20.9520  -29.9040   21.7580 H   0  0  0  0  0  0  0  0  0  0  0  0
  -18.0510  -28.1420   22.9230 C   0  0  0  0  0  0  0  0  0  0  0  0
  -20.6110  -28.3940   23.2020 C   0  0  0  0  0  3  0  0  0  0  0  0
  -20.7110  -26.9710   22.6070 C   0  0  0  0  0  2  0  0  0  0  0  0
  -19.6100  -26.6650   21.5860 C   0  0  0  0  0  2  0  0  0  0  0  0
  -18.2270  -26.8020   22.2280 C   0  0  0  0  0  2  0  0  0  0  0  0
  -19.1700  -28.8960   23.3660 C   0  0  0  0  0  0  0  0  0  0  0  0
  -18.9510  -30.1500   23.9770 C   0  0  0  0  0  3  0  0  0  0  0  0
  -17.6450  -30.6490   24.1480 C   0  0  0  0  0  3  0  0  0  0  0  0
  -16.5410  -29.8920   23.7200 C   0  0  0  0  0  3  0  0  0  0  0  0
  -16.7450  -28.6400   23.1130 C   0  0  0  0  0  3  0  0  0  0  0  0
  -25.9110  -32.5430   23.9340 C   0  0  0  0  0  3  0  0  0  0  0  0
  -25.6100  -33.9480   24.2540 N   0  0  0  0  0  0  0  0  0  0  0  0
  -25.9280  -34.9920   23.4750 C   0  0  0  0  0  0  0  0  0  0  0  0
  -26.5740  -34.8730   22.4310 O   0  0  0  0  0  0  0  0  0  0  0  0
  -25.0330  -34.1130   25.0650 H   0  0  0  0  0  0  0  0  0  0  0  0
  -24.1940  -36.7840   23.1440 C   0  0  0  0  0  1  0  0  0  0  0  0
  -25.4550  -36.3890   23.9270 C   0  0  0  0  0  3  0  0  0  0  0  0
  -27.6090  -37.2850   24.6950 C   0  0  0  0  0  1  0  0  0  0  0  0
  -26.4880  -37.4370   23.7720 N   0  0  0  0  0  0  0  0  0  0  0  0
  -26.0880  -38.3620   23.9070 H   0  0  0  0  0  0  0  0  0  0  0  0
  -26.3970  -31.7760   25.2240 C   0  0  1  0  0  0  0  0  0  0  0  0
  -25.2850  -31.5570   26.2750 C   0  0  0  0  0  1  0  0  0  0  0  0
  -26.9740  -30.3900   24.8530 C   0  0  0  0  0  1  0  0  0  0  0  0
  -27.5430  -32.5660   25.9000 C   0  0  0  0  0  1  0  0  0  0  0  0
  1 47  1  0
  1  3  1  0
  3  2  1  0
  4  1  2  0
  6 11  1  0
  7  8  1  0
  7  6  1  0
  9  8  1  0
  9 22  1  0
  9 10  1  0
 11  5  1  0
 11 10  1  0
 12  5  2  0
 14 17  1  0
 15 13  1  0
 16 14  1  0
 16 18  1  0
 17  3  1  0
 17 13  1  0
 18  5  1  0
 18 15  1  0
 19 20  2  0
 20 39  1  0
 21 20  1  0
 21 24  1  0
 22 23  1  0
 22 19  1  0
 23 21  2  0
 24 25  1  0
 25 26  2  0
 27 30  1  0
 27 26  1  0
 28 27  2  0
 29 28  1  0
 29 24  2  0
 30 31  1  0
 31 32  1  0
 32 33  2  0
 34 33  1  0
 34 38  1  0
 35 34  2  0
 36 31  2  0
 36 35  1  0
 37 36  1  0
 39 40  1  0
 40 43  1  0
 40 42  1  0
 41 39  2  0
 44 19  1  0
 44 45  1  0
 46 44  1  0
 48 49  1  0
 48 47  2  0
 50 61  2  0
 51 49  1  0
 51 56  1  0
 52 60  1  0
 52 62  1  0
 53 59  1  0
 53 55  1  0
 54 60  1  0
 55 54  1  0
 56 55  2  0
 57 58  1  0
 57 51  2  0
 58 53  2  0
 59 52  1  0
 60 50  1  0
 62 64  2  0
 63 62  1  0
 65 63  1  0
 66 75  2  0
 66 71  1  0
 67 63  1  0
 67 71  1  0
 68 67  1  0
 69 70  1  0
 69 68  1  0
 70 66  1  0
 71 72  2  0
 72 73  1  0
 74 73  2  0
 75 74  1  0
 76 50  1  0
 76 77  1  0
 76 86  1  0
 77 80  1  0
 78 82  1  0
 78 77  1  0
 79 78  2  0
 82 81  1  0
 84 85  1  0
 84 82  1  0
 84 83  1  0
 86 89  1  1
 86 87  1  0
 88 86  1  0
M  ISO  4   5 100  18 100  48 101  49 101
M  END
>  <TORSDO>  (53) 
F 18

>  <SCORE>  (53) 
-14.456

>  <name>  (53) 
53

>  <ligand_id>  (53) 
53

>  <original_smiles>  (53) 
[H]c1c([H])c([H])c2c(c1[H])C([H])([H])C([H])([H])C([H])([H])C2([H])N([H])C(=O)C1([H])N(C(=O)C([H])(N([H])C(=O)C([H])(N([H])C([H])([H])[H])C([H])([H])[H])C(C([H])([H])[H])(C([H])([H])[H])C([H])([H])[H])C([H])([H])c2c([H])c(OC([H])([H])C([H])([H])C(=O)N(C([H])([H])[H])C3([H])C([H])([H])C([H])([H])N(C(=O)N4C([H])([H])C([H])([H])C([H])([H])C([H])(n5nc(-c6c([H])c([H])c(Oc7c([H])c([H])c(F)c([H])c7F)c([H])c6[H])c(C(=O)N([H])[H])c5N([H])[H])C4([H])[H])C([H])([H])C3([H])[H])c([H])c([H])c2C1([H])[H]

>  <smiles>  (53) 
[H]c1c([H])c([H])c2c(c1[H])C([H])([H])C([H])([H])C([H])([H])C2([H])N([H])C(=O)C1([H])N(C(=O)C([H])(N([H])C(=O)C([H])(N([H])C([H])([H])[H])C([H])([H])[H])C(C([H])([H])[H])(C([H])([H])[H])C([H])([H])[H])C([H])([H])c2c([H])c(OC([H])([H])C([H])([H])C(=O)N(C([H])([H])[H])C3([H])C([H])([H])C([H])([H])N(C(=O)N4C([H])([H])C([H])([H])C([H])([H])C([H])(n5nc(-c6c([H])c([H])c(Oc7c([H])c([H])c(F)c([H])c7F)c([H])c6[H])c(C(=O)N([H])[H])c5N([H])[H])C4([H])[H])C([H])([H])C3([H])[H])c([H])c([H])c2C1([H])[H]

$$$$
54:0:0
     RDKit          3D

 93100  0  0  1  0  0  0  0  0999 V2000
  -30.0060  -18.3210   20.0840 C   0  0  0  0  0  3  0  0  0  0  0  0
  -27.2290  -18.0790   20.0700 C   0  0  0  0  0  3  0  0  0  0  0  0
  -29.4290  -16.9840   20.2950 C   0  0  0  0  0  0  0  0  0  0  0  0
  -27.7960  -19.3230   19.7650 C   0  0  0  0  0  0  0  0  0  0  0  0
  -29.1930  -19.5430   19.8950 C   0  0  0  0  0  0  0  0  0  0  0  0
  -28.0150  -16.9620   20.3890 C   0  0  0  0  0  3  0  0  0  0  0  0
  -27.1690  -15.5450   20.9120 Cl  0  0  0  0  0 15  0  0  0  0  0  0
  -30.6760  -14.5940   19.8920 C   0  0  0  0  0  0  0  0  0  0  0  0
  -30.5210  -12.2250   19.0430 C   0  0  0  0  0  2  0  0  0  0  0  0
  -29.5390  -12.1830   17.8460 C   0  0  0  0  0  2  0  0  0  0  0  0
  -28.0740  -12.0620   18.3170 C   0  0  0  0  0  2  0  0  0  0  0  0
  -27.7420  -13.0470   19.4690 C   0  0  0  0  0  3  0  0  0  0  0  0
  -28.8260  -12.9760   20.5680 C   0  0  0  0  0  2  0  0  0  0  0  0
  -30.1140  -13.3290   19.9470 N   0  0  0  0  0  0  0  0  0  0  0  0
  -31.7640  -14.7590   19.3320 O   0  0  0  0  0  0  0  0  0  0  0  0
  -29.9870  -15.6110   20.5350 N   0  0  0  0  0  0  0  0  0  0  0  0
  -29.3720  -15.1500   21.1920 H   0  0  0  0  0  0  0  0  0  0  0  0
  -25.3920  -13.7590   20.2300 C   0  0  0  0  0  0  0  0  0  0  0  0
  -24.3100  -13.0420   20.6620 C   0  0  0  0  0  0  0  0  0  0  0  0
  -24.7140  -11.6720   20.6450 C   0  0  0  0  0  0  0  0  0  0  0  0
  -26.3960  -12.8320   19.9970 N   0  0  0  0  0  0  0  0  0  0  0  0
  -25.9910  -11.5710   20.2990 N   0  0  0  0  0  0  0  0  0  0  0  0
  -23.9380  -10.4470   20.8830 C   0  0  0  0  0  0  0  0  0  0  0  0
  -24.3660   -9.4680   21.8070 C   0  0  0  0  0  3  0  0  0  0  0  0
  -23.5930   -8.3090   22.0320 C   0  0  0  0  0  3  0  0  0  0  0  0
  -22.3780   -8.1200   21.3330 C   0  0  0  0  0  0  0  0  0  0  0  0
  -21.9670   -9.0870   20.3970 C   0  0  0  0  0  3  0  0  0  0  0  0
  -22.7400  -10.2370   20.1710 C   0  0  0  0  0  3  0  0  0  0  0  0
  -21.5750   -7.0140   21.4680 O   0  0  0  0  0  0  0  0  0  0  0  0
  -21.5580   -6.2740   22.6230 C   0  0  0  0  0  0  0  0  0  0  0  0
  -21.2230   -6.8460   23.8690 C   0  0  0  0  0  3  0  0  0  0  0  0
  -21.1510   -6.0340   25.0190 C   0  0  0  0  0  3  0  0  0  0  0  0
  -21.4020   -4.6530   24.9240 C   0  0  0  0  0  0  0  0  0  0  0  0
  -21.7310   -4.0810   23.6830 C   0  0  0  0  0  3  0  0  0  0  0  0
  -21.8050   -4.8880   22.5350 C   0  0  0  0  0  0  0  0  0  0  0  0
  -22.1010   -4.3280   21.3370 F   0  0  0  0  0  0  0  0  0  0  0  0
  -21.3250   -3.8720   26.0270 F   0  0  0  0  0  0  0  0  0  0  0  0
  -22.9460  -13.5870   20.9730 C   0  0  0  0  0  0  0  0  0  0  0  0
  -22.2280  -12.9520   21.8930 N   0  0  0  0  0  0  0  0  0  0  0  0
  -22.5270  -14.6100   20.4360 O   0  0  0  0  0  0  0  0  0  0  0  0
  -22.5800  -12.1240   22.3510 H   0  0  0  0  0  0  0  0  0  0  0  0
  -21.3150  -13.3010   22.1460 H   0  0  0  0  0  0  0  0  0  0  0  0
  -25.5920  -15.1130   19.9890 N   0  0  0  0  0  0  0  0  0  0  0  0
  -24.8560  -15.7970   20.1110 H   0  0  0  0  0  0  0  0  0  0  0  0
  -26.4490  -15.5090   19.6260 H   0  0  0  0  0  0  0  0  0  0  0  0
  -26.9330  -20.3040   19.2760 N   0  0  0  0  0  0  0  0  0  0  0  0
  -26.0480  -20.0080   18.8780 H   0  0  0  0  0  0  0  0  0  0  0  0
  -27.3610  -21.0580   18.7490 H   0  0  0  0  0  0  0  0  0  0  0  0
  -29.7030  -20.8810   19.7310 O   0  0  0  0  0  0  0  0  0  0  0  0
  -29.1380  -22.1120   20.4210 C   0  0  0  0  0  2  0  0  0  0  0  0
  -29.0470  -23.5860   19.7140 C   0  0  0  0  0  3  0  0  0  0  0  0
  -28.2940  -24.8360   20.4540 C   0  0  0  0  0  3  0  0  0  0  0  0
  -28.4400  -26.2910   20.0660 O   0  0  0  0  0  0  0  0  0  0  0  0
  -24.5830  -31.6790   23.1210 C   0  0  0  0  0  0  0  0  0  0  0  0
  -27.3150  -27.1520   20.0670 C   0  0  0  0  0  0  0  0  0  0  0  0
  -23.4330  -30.2910   21.4330 C   0  0  0  0  0  3  0  0  0  0  0  0
  -24.9350  -28.7680   20.0210 C   0  0  0  0  0  0  0  0  0  0  0  0
  -25.9750  -30.6310   21.3130 C   0  0  0  0  0  2  0  0  0  0  0  0
  -26.0890  -29.2570   20.6480 C   0  0  0  0  0  0  0  0  0  0  0  0
  -27.2840  -28.4650   20.6530 C   0  0  0  0  0  3  0  0  0  0  0  0
  -26.1380  -26.7250   19.4200 C   0  0  0  0  0  3  0  0  0  0  0  0
  -24.9650  -27.5100   19.3960 C   0  0  0  0  0  3  0  0  0  0  0  0
  -23.6890  -29.6330   20.0510 C   0  0  0  0  0  2  0  0  0  0  0  0
  -24.6810  -30.8850   22.0130 N   0  0  0  0  0  0  0  0  0  0  0  0
  -23.4840  -31.9350   23.6360 O   0  0  0  0  0  0  0  0  0  0  0  0
  -22.7580  -29.2570   22.3660 C   0  0  0  0  0  0  0  0  0  0  0  0
  -21.4320  -29.0900   22.2300 N   0  0  0  0  0  0  0  0  0  0  0  0
  -23.4280  -28.6070   23.1740 O   0  0  0  0  0  0  0  0  0  0  0  0
  -20.9490  -29.6660   21.5530 H   0  0  0  0  0  0  0  0  0  0  0  0
  -18.0420  -27.9090   22.7010 C   0  0  0  0  0  0  0  0  0  0  0  0
  -20.6050  -28.1350   22.9710 C   0  0  0  0  0  3  0  0  0  0  0  0
  -20.6900  -26.7220   22.3480 C   0  0  0  0  0  2  0  0  0  0  0  0
  -19.5830  -26.4450   21.3270 C   0  0  0  0  0  2  0  0  0  0  0  0
  -18.2040  -26.5810   21.9800 C   0  0  0  0  0  2  0  0  0  0  0  0
  -19.1700  -28.6450   23.1530 C   0  0  0  0  0  0  0  0  0  0  0  0
  -18.9650  -29.8890   23.7890 C   0  0  0  0  0  3  0  0  0  0  0  0
  -17.6650  -30.3960   23.9760 C   0  0  0  0  0  3  0  0  0  0  0  0
  -16.5530  -29.6560   23.5410 C   0  0  0  0  0  3  0  0  0  0  0  0
  -16.7420  -28.4140   22.9090 C   0  0  0  0  0  3  0  0  0  0  0  0
  -25.8420  -32.3180   23.7830 C   0  0  0  0  0  3  0  0  0  0  0  0
  -25.5090  -33.7070   24.1260 N   0  0  0  0  0  0  0  0  0  0  0  0
  -25.8400  -34.7770   23.3900 C   0  0  0  0  0  0  0  0  0  0  0  0
  -26.5280  -34.6970   22.3690 O   0  0  0  0  0  0  0  0  0  0  0  0
  -24.9000  -33.8420   24.9200 H   0  0  0  0  0  0  0  0  0  0  0  0
  -24.0930  -36.5540   23.0410 C   0  0  0  0  0  1  0  0  0  0  0  0
  -25.3300  -36.1530   23.8610 C   0  0  0  0  0  3  0  0  0  0  0  0
  -27.4400  -37.0560   24.7320 C   0  0  0  0  0  1  0  0  0  0  0  0
  -26.3500  -37.2200   23.7750 N   0  0  0  0  0  0  0  0  0  0  0  0
  -25.9300  -38.1340   23.9260 H   0  0  0  0  0  0  0  0  0  0  0  0
  -26.3370  -31.5360   25.0610 C   0  0  1  0  0  0  0  0  0  0  0  0
  -25.2230  -31.2760   26.1020 C   0  0  0  0  0  1  0  0  0  0  0  0
  -26.9400  -30.1670   24.6670 C   0  0  0  0  0  1  0  0  0  0  0  0
  -27.4660  -32.3310   25.7580 C   0  0  0  0  0  1  0  0  0  0  0  0
  1  3  1  0
  2  6  1  0
  3  6  2  0
  3 16  1  0
  4  5  1  0
  4  2  2  0
  5  1  2  0
  8 14  1  0
  8 16  1  0
  9 14  1  0
 10 11  1  0
 10  9  1  0
 12 11  1  0
 12 21  1  0
 12 13  1  0
 14 13  1  0
 15  8  2  0
 16 17  1  0
 18 19  2  0
 19 38  1  0
 20 19  1  0
 20 23  1  0
 21 18  1  0
 21 22  1  0
 22 20  2  0
 23 24  1  0
 24 25  2  0
 26 29  1  0
 26 25  1  0
 27 26  2  0
 28 27  1  0
 28 23  2  0
 29 30  1  0
 30 31  1  0
 31 32  2  0
 33 32  1  0
 33 37  1  0
 34 33  2  0
 35 30  2  0
 35 34  1  0
 36 35  1  0
 38 39  1  0
 39 42  1  0
 39 41  1  0
 40 38  2  0
 43 44  1  0
 43 18  1  0
 45 43  1  0
 46  4  1  0
 47 46  1  0
 48 46  1  0
 49  5  1  0
 49 50  1  0
 51 50  1  0
 51 52  2  0
 53 55  1  0
 53 52  1  0
 54 65  2  0
 55 60  1  0
 56 64  1  0
 56 66  1  0
 57 63  1  0
 57 59  1  0
 58 64  1  0
 59 60  2  0
 59 58  1  0
 61 55  2  0
 62 61  1  0
 62 57  2  0
 63 56  1  0
 64 54  1  0
 66 68  2  0
 67 66  1  0
 69 67  1  0
 70 79  2  0
 70 75  1  0
 71 67  1  0
 71 75  1  0
 72 71  1  0
 73 74  1  0
 73 72  1  0
 74 70  1  0
 75 76  2  0
 76 77  1  0
 78 77  2  0
 79 78  1  0
 80 54  1  0
 80 81  1  0
 80 90  1  0
 81 84  1  0
 82 86  1  0
 82 81  1  0
 83 82  2  0
 86 85  1  0
 88 86  1  0
 88 89  1  0
 88 87  1  0
 90 93  1  1
 90 91  1  0
 92 90  1  0
M  ISO  4   8 100  16 100  52 101  53 101
M  END
>  <TORSDO>  (54) 
F 21

>  <SCORE>  (54) 
-13.226

>  <name>  (54) 
54

>  <ligand_id>  (54) 
54

>  <original_smiles>  (54) 
[H]c1c([H])c([H])c2c(c1[H])C([H])([H])C([H])([H])C([H])([H])C2([H])N([H])C(=O)C1([H])N(C(=O)C([H])(N([H])C(=O)C([H])(N([H])C([H])([H])[H])C([H])([H])[H])C(C([H])([H])[H])(C([H])([H])[H])C([H])([H])[H])C([H])([H])c2c([H])c(OC([H])([H])C([H])([H])C([H])([H])Oc3c([H])c(N([H])C(=O)N4C([H])([H])C([H])([H])C([H])([H])C([H])(n5nc(-c6c([H])c([H])c(Oc7c([H])c([H])c(F)c([H])c7F)c([H])c6[H])c(C(=O)N([H])[H])c5N([H])[H])C4([H])[H])c(Cl)c([H])c3N([H])[H])c([H])c([H])c2C1([H])[H]

>  <smiles>  (54) 
[H]c1c([H])c([H])c2c(c1[H])C([H])([H])C([H])([H])C([H])([H])C2([H])N([H])C(=O)C1([H])N(C(=O)C([H])(N([H])C(=O)C([H])(N([H])C([H])([H])[H])C([H])([H])[H])C(C([H])([H])[H])(C([H])([H])[H])C([H])([H])[H])C([H])([H])c2c([H])c(OC([H])([H])C([H])([H])C([H])([H])Oc3c([H])c(N([H])C(=O)N4C([H])([H])C([H])([H])C([H])([H])C([H])(n5nc(-c6c([H])c([H])c(Oc7c([H])c([H])c(F)c([H])c7F)c([H])c6[H])c(C(=O)N([H])[H])c5N([H])[H])C4([H])[H])c(Cl)c([H])c3N([H])[H])c([H])c([H])c2C1([H])[H]

$$$$
55:0:0
     RDKit          3D

 96104  0  0  1  0  0  0  0  0999 V2000
  -30.7210  -17.9920   21.5280 C   0  0  0  0  0  3  0  0  0  0  0  0
  -30.0110  -20.2480   20.8620 C   0  0  0  0  0  3  0  0  0  0  0  0
  -29.0800  -18.2900   19.7650 C   0  0  0  0  0  3  0  0  0  0  0  0
  -30.7600  -19.3920   21.7140 C   0  0  0  0  0  0  0  0  0  0  0  0
  -29.8730  -17.3820   20.5830 C   0  0  0  0  0  0  0  0  0  0  0  0
  -29.1490  -19.7510   19.8540 C   0  0  0  0  0  0  0  0  0  0  0  0
  -30.6250  -14.8790   20.9390 C   0  0  0  0  0  0  0  0  0  0  0  0
  -30.7390  -12.4060   20.5470 C   0  0  0  0  0  2  0  0  0  0  0  0
  -30.0050  -12.0830   19.2270 C   0  0  0  0  0  2  0  0  0  0  0  0
  -28.5010  -11.8650   19.4890 C   0  0  0  0  0  2  0  0  0  0  0  0
  -27.8830  -12.9870   20.3670 C   0  0  0  0  0  3  0  0  0  0  0  0
  -28.7570  -13.2970   21.6010 C   0  0  0  0  0  2  0  0  0  0  0  0
  -30.1020  -13.6170   21.1130 N   0  0  0  0  0  0  0  0  0  0  0  0
  -31.8440  -15.0270   20.8140 O   0  0  0  0  0  0  0  0  0  0  0  0
  -29.7320  -15.9000   20.6240 N   0  0  0  0  0  0  0  0  0  0  0  0
  -28.7860  -15.5710   20.5100 H   0  0  0  0  0  0  0  0  0  0  0  0
  -25.4510  -13.6000   20.8880 C   0  0  0  0  0  0  0  0  0  0  0  0
  -24.3500  -12.8360   21.1600 C   0  0  0  0  0  0  0  0  0  0  0  0
  -24.8030  -11.4810   21.1760 C   0  0  0  0  0  0  0  0  0  0  0  0
  -26.5010  -12.7100   20.7410 N   0  0  0  0  0  0  0  0  0  0  0  0
  -26.1150  -11.4310   20.9820 N   0  0  0  0  0  0  0  0  0  0  0  0
  -24.0500  -10.2270   21.3060 C   0  0  0  0  0  0  0  0  0  0  0  0
  -24.4120   -9.2470   22.2580 C   0  0  0  0  0  3  0  0  0  0  0  0
  -23.6650   -8.0560   22.3790 C   0  0  0  0  0  3  0  0  0  0  0  0
  -22.5400   -7.8380   21.5480 C   0  0  0  0  0  0  0  0  0  0  0  0
  -22.1980   -8.8050   20.5860 C   0  0  0  0  0  3  0  0  0  0  0  0
  -22.9460   -9.9870   20.4640 C   0  0  0  0  0  3  0  0  0  0  0  0
  -21.7680   -6.7030   21.5790 O   0  0  0  0  0  0  0  0  0  0  0  0
  -21.6600   -5.9330   22.7100 C   0  0  0  0  0  0  0  0  0  0  0  0
  -21.1690   -6.4580   23.9240 C   0  0  0  0  0  3  0  0  0  0  0  0
  -21.0080   -5.6150   25.0410 C   0  0  0  0  0  3  0  0  0  0  0  0
  -21.3270   -4.2470   24.9440 C   0  0  0  0  0  0  0  0  0  0  0  0
  -21.8090   -3.7210   23.7320 C   0  0  0  0  0  3  0  0  0  0  0  0
  -21.9720   -4.5620   22.6170 C   0  0  0  0  0  0  0  0  0  0  0  0
  -22.4190   -4.0430   21.4470 F   0  0  0  0  0  0  0  0  0  0  0  0
  -21.1620   -3.4350   26.0150 F   0  0  0  0  0  0  0  0  0  0  0  0
  -22.9380  -13.3260   21.2970 C   0  0  0  0  0  0  0  0  0  0  0  0
  -22.1310  -12.6530   22.1080 N   0  0  0  0  0  0  0  0  0  0  0  0
  -22.5530  -14.3400   20.7140 O   0  0  0  0  0  0  0  0  0  0  0  0
  -22.4550  -11.8400   22.6140 H   0  0  0  0  0  0  0  0  0  0  0  0
  -21.1750  -12.9560   22.2270 H   0  0  0  0  0  0  0  0  0  0  0  0
  -25.6390  -14.9700   20.7290 N   0  0  0  0  0  0  0  0  0  0  0  0
  -24.8660  -15.6290   20.7800 H   0  0  0  0  0  0  0  0  0  0  0  0
  -26.5160  -15.4120   20.4940 H   0  0  0  0  0  0  0  0  0  0  0  0
  -31.6610  -21.0760   23.3590 C   0  0  0  0  0  0  0  0  0  0  0  0
  -32.2310  -21.1210   24.7730 C   0  0  0  0  0  1  0  0  0  0  0  0
  -31.5140  -19.8440   22.8390 N   0  0  0  0  0  0  0  0  0  0  0  0
  -31.3920  -22.1320   22.7800 O   0  0  0  0  0  0  0  0  0  0  0  0
  -31.8580  -19.1120   23.4460 H   0  0  0  0  0  0  0  0  0  0  0  0
  -28.5870  -22.1090   18.9080 C   0  0  0  0  0  0  0  0  0  0  0  0
  -27.1190  -20.2020   18.4260 C   0  0  0  0  0  1  0  0  0  0  0  0
  -28.3110  -20.7390   19.0890 N   0  0  0  0  0  0  0  0  0  0  0  0
  -29.7560  -22.5010   18.9140 O   0  0  0  0  0  0  0  0  0  0  0  0
  -27.4720  -23.2600   18.7140 C   0  0  0  0  0  2  0  0  0  0  0  0
  -27.7550  -24.5940   17.8380 C   0  0  0  0  0  2  0  0  0  0  0  0
  -27.8980  -25.9770   18.4170 O   0  0  0  0  0  0  0  0  0  0  0  0
  -24.9670  -31.0160   22.7110 C   0  0  0  0  0  0  0  0  0  0  0  0
  -26.8400  -26.8890   18.6220 C   0  0  0  0  0  0  0  0  0  0  0  0
  -23.4850  -30.0130   21.0110 C   0  0  0  0  0  3  0  0  0  0  0  0
  -24.6370  -28.6500   19.1720 C   0  0  0  0  0  0  0  0  0  0  0  0
  -26.0110  -30.1830   20.5850 C   0  0  0  0  0  2  0  0  0  0  0  0
  -25.9000  -28.9390   19.7060 C   0  0  0  0  0  0  0  0  0  0  0  0
  -26.9970  -28.0680   19.4230 C   0  0  0  0  0  3  0  0  0  0  0  0
  -25.5530  -26.6610   18.0880 C   0  0  0  0  0  3  0  0  0  0  0  0
  -24.4690  -27.5200   18.3550 C   0  0  0  0  0  3  0  0  0  0  0  0
  -23.4910  -29.5800   19.5200 C   0  0  0  0  0  2  0  0  0  0  0  0
  -24.8480  -30.4130   21.4920 N   0  0  0  0  0  0  0  0  0  0  0  0
  -23.9700  -31.2610   23.4090 O   0  0  0  0  0  0  0  0  0  0  0  0
  -22.8440  -28.8860   21.8580 C   0  0  0  0  0  0  0  0  0  0  0  0
  -21.5010  -28.8240   21.8690 N   0  0  0  0  0  0  0  0  0  0  0  0
  -23.5520  -28.0750   22.4620 O   0  0  0  0  0  0  0  0  0  0  0  0
  -20.9890  -29.5330   21.3630 H   0  0  0  0  0  0  0  0  0  0  0  0
  -18.1100  -27.7710   22.5570 C   0  0  0  0  0  0  0  0  0  0  0  0
  -20.6950  -27.8170   22.5590 C   0  0  0  0  0  3  0  0  0  0  0  0
  -20.6160  -26.5090   21.7400 C   0  0  0  0  0  2  0  0  0  0  0  0
  -19.3890  -26.4420   20.8250 C   0  0  0  0  0  2  0  0  0  0  0  0
  -18.1010  -26.5570   21.6450 C   0  0  0  0  0  2  0  0  0  0  0  0
  -19.3260  -28.3720   22.9750 C   0  0  0  0  0  0  0  0  0  0  0  0
  -19.2760  -29.5200   23.7970 C   0  0  0  0  0  3  0  0  0  0  0  0
  -18.0420  -30.0600   24.2050 C   0  0  0  0  0  3  0  0  0  0  0  0
  -16.8410  -29.4530   23.8020 C   0  0  0  0  0  3  0  0  0  0  0  0
  -16.8760  -28.3120   22.9810 C   0  0  0  0  0  3  0  0  0  0  0  0
  -26.3520  -31.4480   23.2800 C   0  0  0  0  0  3  0  0  0  0  0  0
  -26.9770  -30.3850   24.2660 C   0  0  1  0  0  0  0  0  0  0  0  0
  -26.0180  -29.9430   25.3970 C   0  0  0  0  0  1  0  0  0  0  0  0
  -27.4130  -29.1140   23.4990 C   0  0  0  0  0  1  0  0  0  0  0  0
  -28.2510  -30.9630   24.9240 C   0  0  0  0  0  1  0  0  0  0  0  0
  -26.1690  -32.7350   23.9670 N   0  0  0  0  0  0  0  0  0  0  0  0
  -26.5480  -33.9240   23.4760 C   0  0  0  0  0  0  0  0  0  0  0  0
  -27.1540  -34.0430   22.4090 O   0  0  0  0  0  0  0  0  0  0  0  0
  -25.6280  -32.7170   24.8190 H   0  0  0  0  0  0  0  0  0  0  0  0
  -24.9720  -35.8780   23.6880 C   0  0  0  0  0  1  0  0  0  0  0  0
  -26.1970  -35.1800   24.2990 C   0  0  0  0  0  3  0  0  0  0  0  0
  -28.4250  -35.6580   25.2190 C   0  0  0  0  0  1  0  0  0  0  0  0
  -27.3140  -36.1440   24.4050 N   0  0  0  0  0  0  0  0  0  0  0  0
  -26.9920  -37.0250   24.7980 H   0  0  0  0  0  0  0  0  0  0  0  0
  1  4  1  0
  2  4  2  0
  3  6  2  0
  3  5  1  0
  4 47  1  0
  5 15  1  0
  5  1  2  0
  6  2  1  0
  7 13  1  0
  8 13  1  0
  9 10  1  0
  9  8  1  0
 11 10  1  0
 11 20  1  0
 11 12  1  0
 13 12  1  0
 14  7  2  0
 15  7  1  0
 16 15  1  0
 17 18  2  0
 18 19  1  0
 18 37  1  0
 19 22  1  0
 20 17  1  0
 20 21  1  0
 21 19  2  0
 22 23  1  0
 23 24  2  0
 25 28  1  0
 25 24  1  0
 26 25  2  0
 27 26  1  0
 27 22  2  0
 28 29  1  0
 29 30  1  0
 30 31  2  0
 32 31  1  0
 32 36  1  0
 33 32  2  0
 34 29  2  0
 34 33  1  0
 35 34  1  0
 37 38  1  0
 38 41  1  0
 38 40  1  0
 39 37  2  0
 42 43  1  0
 42 17  1  0
 44 42  1  0
 45 46  1  0
 47 45  1  0
 47 49  1  0
 48 45  2  0
 50 53  2  0
 50 52  1  0
 51 52  1  0
 52  6  1  0
 54 50  1  0
 55 56  1  0
 55 54  1  0
 56 58  1  0
 57 68  2  0
 58 63  1  0
 59 67  1  0
 59 69  1  0
 60 66  1  0
 60 62  1  0
 61 67  1  0
 62 61  1  0
 63 62  2  0
 64 65  1  0
 64 58  2  0
 65 60  2  0
 66 59  1  0
 67 57  1  0
 69 70  1  0
 69 71  2  0
 72 70  1  0
 73 78  2  0
 73 82  1  0
 74 70  1  0
 74 78  1  0
 75 74  1  0
 76 77  1  0
 76 75  1  0
 77 73  1  0
 78 79  1  0
 79 80  2  0
 81 80  1  0
 82 81  2  0
 83 57  1  0
 83 88  1  0
 83 84  1  0
 84 87  1  1
 84 85  1  0
 86 84  1  0
 88 91  1  0
 89 88  1  0
 89 93  1  0
 90 89  2  0
 93 92  1  0
 93 95  1  0
 95 96  1  0
 95 94  1  0
M  ISO  4   7 100  15 100  55 101  56 101
M  END
>  <TORSDO>  (55) 
F 20

>  <SCORE>  (55) 
-11.180

>  <name>  (55) 
55

>  <ligand_id>  (55) 
55

>  <original_smiles>  (55) 
[H]c1c([H])c([H])c2c(c1[H])C([H])([H])C([H])([H])C([H])([H])C2([H])N([H])C(=O)C1([H])N(C(=O)C([H])(N([H])C(=O)C([H])(N([H])C([H])([H])[H])C([H])([H])[H])C(C([H])([H])[H])(C([H])([H])[H])C([H])([H])[H])C([H])([H])c2c([H])c(OC([H])([H])C([H])([H])C(=O)N(c3c([H])c(N([H])C(=O)N4C([H])([H])C([H])([H])C([H])([H])C([H])(n5nc(-c6c([H])c([H])c(Oc7c([H])c([H])c(F)c([H])c7F)c([H])c6[H])c(C(=O)N([H])[H])c5N([H])[H])C4([H])[H])c([H])c(N([H])C(=O)C([H])([H])[H])c3[H])C([H])([H])[H])c([H])c([H])c2C1([H])[H]

>  <smiles>  (55) 
[H]c1c([H])c([H])c2c(c1[H])C([H])([H])C([H])([H])C([H])([H])C2([H])N([H])C(=O)C1([H])N(C(=O)C([H])(N([H])C(=O)C([H])(N([H])C([H])([H])[H])C([H])([H])[H])C(C([H])([H])[H])(C([H])([H])[H])C([H])([H])[H])C([H])([H])c2c([H])c(OC([H])([H])C([H])([H])C(=O)N(c3c([H])c(N([H])C(=O)N4C([H])([H])C([H])([H])C([H])([H])C([H])(n5nc(-c6c([H])c([H])c(Oc7c([H])c([H])c(F)c([H])c7F)c([H])c6[H])c(C(=O)N([H])[H])c5N([H])[H])C4([H])[H])c([H])c(N([H])C(=O)C([H])([H])[H])c3[H])C([H])([H])[H])c([H])c([H])c2C1([H])[H]

$$$$
56:0:0
     RDKit          3D

 91 99  0  0  1  0  0  0  0  0999 V2000
  -31.8600  -19.4610   20.8550 C   0  0  0  0  0  3  0  0  0  0  0  0
  -31.4140  -18.1310   20.7500 C   0  0  0  0  0  3  0  0  0  0  0  0
  -31.0320  -20.5990   20.6970 C   0  0  0  0  0  0  0  0  0  0  0  0
  -29.2050  -19.0300   20.3090 C   0  0  0  0  0  0  0  0  0  0  0  0
  -30.0750  -17.8020   20.4720 C   0  0  0  0  0  0  0  0  0  0  0  0
  -29.6350  -20.4790   20.4110 C   0  0  0  0  0  0  0  0  0  0  0  0
  -31.7500  -21.9310   20.8540 C   0  0  0  0  0  1  0  0  0  0  0  0
  -27.7400  -18.7810   20.0080 C   0  0  0  0  0  1  0  0  0  0  0  0
  -30.4920  -15.0620   20.3120 C   0  0  0  0  0  0  0  0  0  0  0  0
  -30.3660  -12.6950   19.3720 C   0  0  0  0  0  2  0  0  0  0  0  0
  -29.4210  -12.6180   18.1500 C   0  0  0  0  0  2  0  0  0  0  0  0
  -27.9680  -12.3870   18.6060 C   0  0  0  0  0  2  0  0  0  0  0  0
  -27.5630  -13.3160   19.7780 C   0  0  0  0  0  3  0  0  0  0  0  0
  -28.6310  -13.3690   20.8900 C   0  0  0  0  0  2  0  0  0  0  0  0
  -29.8840  -13.8010   20.2550 N   0  0  0  0  0  0  0  0  0  0  0  0
  -31.7000  -15.0780   20.0500 O   0  0  0  0  0  0  0  0  0  0  0  0
  -29.7290  -16.2820   20.4240 N   0  0  0  0  0  0  0  0  0  0  0  0
  -28.7410  -16.0910   20.4910 H   0  0  0  0  0  0  0  0  0  0  0  0
  -25.1930  -13.8740   20.5590 C   0  0  0  0  0  0  0  0  0  0  0  0
  -24.1380  -13.0910   20.9350 C   0  0  0  0  0  0  0  0  0  0  0  0
  -24.6080  -11.7420   20.8860 C   0  0  0  0  0  0  0  0  0  0  0  0
  -26.2360  -13.0030   20.2960 N   0  0  0  0  0  0  0  0  0  0  0  0
  -25.8960  -11.7150   20.5610 N   0  0  0  0  0  0  0  0  0  0  0  0
  -23.8880  -10.4750   21.0720 C   0  0  0  0  0  0  0  0  0  0  0  0
  -24.3300   -9.5000   21.9930 C   0  0  0  0  0  3  0  0  0  0  0  0
  -23.6080   -8.3000   22.1670 C   0  0  0  0  0  3  0  0  0  0  0  0
  -22.4280   -8.0660   21.4210 C   0  0  0  0  0  0  0  0  0  0  0  0
  -22.0040   -9.0300   20.4900 C   0  0  0  0  0  3  0  0  0  0  0  0
  -22.7280  -10.2210   20.3130 C   0  0  0  0  0  3  0  0  0  0  0  0
  -21.6760   -6.9190   21.5070 O   0  0  0  0  0  0  0  0  0  0  0  0
  -21.6370   -6.1680   22.6540 C   0  0  0  0  0  0  0  0  0  0  0  0
  -21.2010   -6.7080   23.8840 C   0  0  0  0  0  3  0  0  0  0  0  0
  -21.1110   -5.8820   25.0220 C   0  0  0  0  0  3  0  0  0  0  0  0
  -21.4450   -4.5180   24.9320 C   0  0  0  0  0  0  0  0  0  0  0  0
  -21.8750   -3.9780   23.7070 C   0  0  0  0  0  3  0  0  0  0  0  0
  -21.9670   -4.8000   22.5710 C   0  0  0  0  0  0  0  0  0  0  0  0
  -22.3600   -4.2690   21.3880 F   0  0  0  0  0  0  0  0  0  0  0  0
  -21.3520   -3.7230   26.0230 F   0  0  0  0  0  0  0  0  0  0  0  0
  -22.7420  -13.5600   21.2230 C   0  0  0  0  0  0  0  0  0  0  0  0
  -22.0260  -12.8570   22.0930 N   0  0  0  0  0  0  0  0  0  0  0  0
  -22.2950  -14.5870   20.7130 O   0  0  0  0  0  0  0  0  0  0  0  0
  -22.4010  -12.0260   22.5280 H   0  0  0  0  0  0  0  0  0  0  0  0
  -21.0890  -13.1540   22.3290 H   0  0  0  0  0  0  0  0  0  0  0  0
  -25.3470  -15.2460   20.3910 N   0  0  0  0  0  0  0  0  0  0  0  0
  -24.5710  -15.8890   20.5070 H   0  0  0  0  0  0  0  0  0  0  0  0
  -26.1710  -15.6890   20.0100 H   0  0  0  0  0  0  0  0  0  0  0  0
  -28.7810  -21.7190   20.2440 N   0  0  0  0  0  0  0  0  0  0  0  0
  -27.8080  -21.5200   20.0250 H   0  0  0  0  0  0  0  0  0  0  0  0
  -29.0630  -23.2810   20.3900 C   0  0  0  0  0  3  0  0  0  0  0  0
  -27.9840  -24.5810   20.1140 C   0  0  0  0  0  3  0  0  0  0  0  0
  -28.2410  -26.1300   20.2910 O   0  0  0  0  0  0  0  0  0  0  0  0
  -24.6440  -31.8990   23.2470 C   0  0  0  0  0  0  0  0  0  0  0  0
  -27.1980  -27.1400   20.2220 C   0  0  0  0  0  0  0  0  0  0  0  0
  -23.4430  -30.5150   21.6000 C   0  0  0  0  0  3  0  0  0  0  0  0
  -24.8870  -28.9280   20.1780 C   0  0  0  0  0  0  0  0  0  0  0  0
  -26.0020  -30.7540   21.4490 C   0  0  0  0  0  2  0  0  0  0  0  0
  -26.0680  -29.3590   20.7940 C   0  0  0  0  0  0  0  0  0  0  0  0
  -27.2250  -28.4820   20.7940 C   0  0  0  0  0  3  0  0  0  0  0  0
  -25.9890  -26.8200   19.5670 C   0  0  0  0  0  3  0  0  0  0  0  0
  -24.8620  -27.6740   19.5500 C   0  0  0  0  0  3  0  0  0  0  0  0
  -23.6670  -29.8370   20.2220 C   0  0  0  0  0  2  0  0  0  0  0  0
  -24.7170  -31.0780   22.1530 N   0  0  0  0  0  0  0  0  0  0  0  0
  -23.5570  -32.1910   23.7690 O   0  0  0  0  0  0  0  0  0  0  0  0
  -22.7500  -29.5130   22.5580 C   0  0  0  0  0  0  0  0  0  0  0  0
  -21.4210  -29.3530   22.4260 N   0  0  0  0  0  0  0  0  0  0  0  0
  -23.4120  -28.8810   23.3860 O   0  0  0  0  0  0  0  0  0  0  0  0
  -20.9420  -29.9130   21.7340 H   0  0  0  0  0  0  0  0  0  0  0  0
  -18.0280  -28.1780   22.9160 C   0  0  0  0  0  0  0  0  0  0  0  0
  -20.5880  -28.4210   23.1920 C   0  0  0  0  0  3  0  0  0  0  0  0
  -20.6810  -26.9890   22.6150 C   0  0  0  0  0  2  0  0  0  0  0  0
  -19.5810  -26.6770   21.5960 C   0  0  0  0  0  2  0  0  0  0  0  0
  -18.1980  -26.8290   22.2350 C   0  0  0  0  0  2  0  0  0  0  0  0
  -19.1510  -28.9320   23.3510 C   0  0  0  0  0  0  0  0  0  0  0  0
  -18.9370  -30.1930   23.9490 C   0  0  0  0  0  3  0  0  0  0  0  0
  -17.6350  -30.7010   24.1150 C   0  0  0  0  0  3  0  0  0  0  0  0
  -16.5270  -29.9440   23.6950 C   0  0  0  0  0  3  0  0  0  0  0  0
  -16.7240  -28.6850   23.1010 C   0  0  0  0  0  3  0  0  0  0  0  0
  -25.9220  -32.5260   23.8830 C   0  0  0  0  0  3  0  0  0  0  0  0
  -26.4190  -31.7530   25.1650 C   0  0  1  0  0  0  0  0  0  0  0  0
  -25.3140  -31.5240   26.2240 C   0  0  0  0  0  1  0  0  0  0  0  0
  -26.9960  -30.3700   24.7850 C   0  0  0  0  0  1  0  0  0  0  0  0
  -27.5700  -32.5390   25.8370 C   0  0  0  0  0  1  0  0  0  0  0  0
  -25.6160  -33.9270   24.2170 N   0  0  0  0  0  0  0  0  0  0  0  0
  -25.9330  -34.9830   23.4560 C   0  0  0  0  0  0  0  0  0  0  0  0
  -26.5790  -34.8800   22.4110 O   0  0  0  0  0  0  0  0  0  0  0  0
  -25.0380  -34.0800   25.0310 H   0  0  0  0  0  0  0  0  0  0  0  0
  -24.1870  -36.7730   23.1660 C   0  0  0  0  0  1  0  0  0  0  0  0
  -25.4600  -36.3730   23.9290 C   0  0  0  0  0  3  0  0  0  0  0  0
  -27.6190  -37.2720   24.6780 C   0  0  0  0  0  1  0  0  0  0  0  0
  -26.4840  -37.4290   23.7720 N   0  0  0  0  0  0  0  0  0  0  0  0
  -26.0800  -38.3490   23.9270 H   0  0  0  0  0  0  0  0  0  0  0  0
  2  1  1  0
  3  7  1  0
  3  1  2  0
  4  6  2  0
  4  5  1  0
  5  2  2  0
  6  3  1  0
  8  4  1  0
  9 17  1  0
 10 15  1  0
 11 12  1  0
 11 10  1  0
 13 12  1  0
 13 22  1  0
 13 14  1  0
 15  9  1  0
 15 14  1  0
 16  9  2  0
 17  5  1  0
 17 18  1  0
 19 20  2  0
 20 39  1  0
 21 20  1  0
 21 24  1  0
 22 19  1  0
 22 23  1  0
 23 21  2  0
 24 25  1  0
 25 26  2  0
 27 30  1  0
 27 26  1  0
 28 27  2  0
 29 28  1  0
 29 24  2  0
 30 31  1  0
 31 32  1  0
 32 33  2  0
 34 33  1  0
 34 38  1  0
 35 34  2  0
 36 31  2  0
 36 35  1  0
 37 36  1  0
 39 40  1  0
 40 43  1  0
 40 42  1  0
 41 39  2  0
 44 45  1  0
 44 19  1  0
 46 44  1  0
 47 49  1  0
 47  6  1  0
 48 47  1  0
 50 51  1  0
 50 49  2  0
 52 63  2  0
 53 51  1  0
 53 58  1  0
 54 62  1  0
 54 64  1  0
 55 61  1  0
 55 57  1  0
 56 62  1  0
 57 56  1  0
 58 57  2  0
 59 53  2  0
 60 59  1  0
 60 55  2  0
 61 54  1  0
 62 52  1  0
 64 66  2  0
 65 64  1  0
 67 65  1  0
 68 77  2  0
 68 73  1  0
 69 65  1  0
 69 73  1  0
 70 69  1  0
 71 72  1  0
 71 70  1  0
 72 68  1  0
 73 74  2  0
 74 75  1  0
 76 75  2  0
 77 76  1  0
 78 52  1  0
 78 83  1  0
 78 79  1  0
 79 82  1  1
 79 80  1  0
 81 79  1  0
 83 86  1  0
 84 88  1  0
 84 83  1  0
 85 84  2  0
 88 87  1  0
 90 91  1  0
 90 88  1  0
 90 89  1  0
M  ISO  4   9 100  17 100  50 101  51 101
M  END
>  <TORSDO>  (56) 
F 19

>  <SCORE>  (56) 
-15.314

>  <name>  (56) 
56

>  <ligand_id>  (56) 
56

>  <original_smiles>  (56) 
[H]c1c([H])c([H])c2c(c1[H])C([H])([H])C([H])([H])C([H])([H])C2([H])N([H])C(=O)C1([H])N(C(=O)C([H])(N([H])C(=O)C([H])(N([H])C([H])([H])[H])C([H])([H])[H])C(C([H])([H])[H])(C([H])([H])[H])C([H])([H])[H])C([H])([H])c2c([H])c(OC([H])([H])C([H])([H])N([H])c3c(C([H])([H])[H])c([H])c([H])c(N([H])C(=O)N4C([H])([H])C([H])([H])C([H])([H])C([H])(n5nc(-c6c([H])c([H])c(Oc7c([H])c([H])c(F)c([H])c7F)c([H])c6[H])c(C(=O)N([H])[H])c5N([H])[H])C4([H])[H])c3C([H])([H])[H])c([H])c([H])c2C1([H])[H]

>  <smiles>  (56) 
[H]c1c([H])c([H])c2c(c1[H])C([H])([H])C([H])([H])C([H])([H])C2([H])N([H])C(=O)C1([H])N(C(=O)C([H])(N([H])C(=O)C([H])(N([H])C([H])([H])[H])C([H])([H])[H])C(C([H])([H])[H])(C([H])([H])[H])C([H])([H])[H])C([H])([H])c2c([H])c(OC([H])([H])C([H])([H])N([H])c3c(C([H])([H])[H])c([H])c([H])c(N([H])C(=O)N4C([H])([H])C([H])([H])C([H])([H])C([H])(n5nc(-c6c([H])c([H])c(Oc7c([H])c([H])c(F)c([H])c7F)c([H])c6[H])c(C(=O)N([H])[H])c5N([H])[H])C4([H])[H])c3C([H])([H])[H])c([H])c([H])c2C1([H])[H]

$$$$
57:0:0
     RDKit          3D

 83 90  0  0  1  0  0  0  0  0999 V2000
  -27.9490  -23.9120   20.2000 C   0  0  0  0  0  3  0  0  0  0  0  0
  -28.1500  -25.6420   20.2980 O   0  0  0  0  0  0  0  0  0  0  0  0
  -24.6720  -31.8880   23.2420 C   0  0  0  0  0  0  0  0  0  0  0  0
  -27.1710  -26.8340   20.2470 C   0  0  0  0  0  0  0  0  0  0  0  0
  -23.4710  -30.4970   21.6080 C   0  0  0  0  0  3  0  0  0  0  0  0
  -24.9060  -28.8480   20.1930 C   0  0  0  0  0  0  0  0  0  0  0  0
  -26.0490  -30.6390   21.4750 C   0  0  0  0  0  2  0  0  0  0  0  0
  -26.1040  -29.2100   20.8200 C   0  0  0  0  0  0  0  0  0  0  0  0
  -27.2230  -28.2300   20.8150 C   0  0  0  0  0  3  0  0  0  0  0  0
  -25.9390  -26.6690   19.5680 C   0  0  0  0  0  3  0  0  0  0  0  0
  -24.8600  -27.6020   19.5430 C   0  0  0  0  0  3  0  0  0  0  0  0
  -23.7020  -29.8000   20.2370 C   0  0  0  0  0  2  0  0  0  0  0  0
  -24.7550  -31.0400   22.1610 N   0  0  0  0  0  0  0  0  0  0  0  0
  -23.5830  -32.1920   23.7560 O   0  0  0  0  0  0  0  0  0  0  0  0
  -22.7560  -29.5220   22.5800 C   0  0  0  0  0  0  0  0  0  0  0  0
  -21.4230  -29.3690   22.4550 N   0  0  0  0  0  0  0  0  0  0  0  0
  -23.4110  -28.8980   23.4200 O   0  0  0  0  0  0  0  0  0  0  0  0
  -20.9460  -29.9220   21.7570 H   0  0  0  0  0  0  0  0  0  0  0  0
  -18.0330  -28.1690   22.9680 C   0  0  0  0  0  0  0  0  0  0  0  0
  -20.5930  -28.4390   23.2300 C   0  0  0  0  0  3  0  0  0  0  0  0
  -20.6940  -27.0020   22.6640 C   0  0  0  0  0  2  0  0  0  0  0  0
  -19.5940  -26.6750   21.6500 C   0  0  0  0  0  2  0  0  0  0  0  0
  -18.2110  -26.8200   22.2910 C   0  0  0  0  0  2  0  0  0  0  0  0
  -19.1500  -28.9350   23.3940 C   0  0  0  0  0  0  0  0  0  0  0  0
  -18.9270  -30.1950   23.9910 C   0  0  0  0  0  3  0  0  0  0  0  0
  -17.6200  -30.6890   24.1620 C   0  0  0  0  0  3  0  0  0  0  0  0
  -16.5170  -29.9210   23.7490 C   0  0  0  0  0  3  0  0  0  0  0  0
  -16.7250  -28.6620   23.1580 C   0  0  0  0  0  3  0  0  0  0  0  0
  -25.9420  -32.5310   23.8780 C   0  0  0  0  0  3  0  0  0  0  0  0
  -26.4400  -31.7670   25.1680 C   0  0  1  0  0  0  0  0  0  0  0  0
  -25.3350  -31.5460   26.2290 C   0  0  0  0  0  1  0  0  0  0  0  0
  -27.0170  -30.3800   24.8050 C   0  0  0  0  0  1  0  0  0  0  0  0
  -27.5910  -32.5580   25.8350 C   0  0  0  0  0  1  0  0  0  0  0  0
  -25.6270  -33.9320   24.2180 N   0  0  0  0  0  0  0  0  0  0  0  0
  -25.9330  -34.9970   23.4640 C   0  0  0  0  0  0  0  0  0  0  0  0
  -26.5690  -34.9020   22.4100 O   0  0  0  0  0  0  0  0  0  0  0  0
  -25.0570  -34.0770   25.0370 H   0  0  0  0  0  0  0  0  0  0  0  0
  -24.1800  -36.7890   23.2110 C   0  0  0  0  0  1  0  0  0  0  0  0
  -25.4650  -36.3850   23.9520 C   0  0  0  0  0  3  0  0  0  0  0  0
  -27.6320  -37.2910   24.6730 C   0  0  0  0  0  1  0  0  0  0  0  0
  -26.4840  -37.4450   23.7830 N   0  0  0  0  0  0  0  0  0  0  0  0
  -26.0790  -38.3630   23.9460 H   0  0  0  0  0  0  0  0  0  0  0  0
  -28.9470  -22.2690   20.2790 C   0  0  0  0  0  3  0  0  0  0  0  0
  -28.7110  -20.3580   20.2370 C   0  0  0  0  0  3  0  0  0  0  0  0
  -29.7530  -18.7430   20.2450 C   0  0  0  0  0  3  0  0  0  0  0  0
  -30.2820  -15.6460   20.1480 C   0  0  0  0  0  0  0  0  0  0  0  0
  -30.3500  -13.1330   19.2860 C   0  0  0  0  0  2  0  0  0  0  0  0
  -29.4300  -12.7740   18.0850 C   0  0  0  0  0  2  0  0  0  0  0  0
  -28.0130  -12.4240   18.5630 C   0  0  0  0  0  2  0  0  0  0  0  0
  -27.5300  -13.4030   19.6600 C   0  0  0  0  0  3  0  0  0  0  0  0
  -28.5860  -13.6800   20.7550 C   0  0  0  0  0  2  0  0  0  0  0  0
  -29.7510  -14.2930   20.0790 N   0  0  0  0  0  0  0  0  0  0  0  0
  -31.5110  -15.5990   19.9480 O   0  0  0  0  0  0  0  0  0  0  0  0
  -29.5270  -16.9940   20.2480 N   0  0  0  0  0  0  0  0  0  0  0  0
  -28.5450  -16.7820   20.3500 H   0  0  0  0  0  0  0  0  0  0  0  0
  -25.1770  -13.9060   20.4730 C   0  0  0  0  0  0  0  0  0  0  0  0
  -24.1340  -13.1120   20.8550 C   0  0  0  0  0  0  0  0  0  0  0  0
  -24.6200  -11.7680   20.8040 C   0  0  0  0  0  0  0  0  0  0  0  0
  -26.2270  -13.0500   20.2020 N   0  0  0  0  0  0  0  0  0  0  0  0
  -25.9070  -11.7560   20.4690 N   0  0  0  0  0  0  0  0  0  0  0  0
  -23.9110  -10.4960   20.9970 C   0  0  0  0  0  0  0  0  0  0  0  0
  -24.3510   -9.5380   21.9370 C   0  0  0  0  0  3  0  0  0  0  0  0
  -23.6360   -8.3340   22.1190 C   0  0  0  0  0  3  0  0  0  0  0  0
  -22.4690   -8.0770   21.3610 C   0  0  0  0  0  0  0  0  0  0  0  0
  -22.0480   -9.0240   20.4100 C   0  0  0  0  0  3  0  0  0  0  0  0
  -22.7630  -10.2200   20.2260 C   0  0  0  0  0  3  0  0  0  0  0  0
  -21.7270   -6.9240   21.4530 O   0  0  0  0  0  0  0  0  0  0  0  0
  -21.6590   -6.2030   22.6170 C   0  0  0  0  0  0  0  0  0  0  0  0
  -21.1670   -6.7650   23.8150 C   0  0  0  0  0  3  0  0  0  0  0  0
  -21.0490   -5.9670   24.9700 C   0  0  0  0  0  3  0  0  0  0  0  0
  -21.4130   -4.6090   24.9290 C   0  0  0  0  0  0  0  0  0  0  0  0
  -21.8990   -4.0450   23.7360 C   0  0  0  0  0  3  0  0  0  0  0  0
  -22.0180   -4.8400   22.5820 C   0  0  0  0  0  0  0  0  0  0  0  0
  -22.4660   -4.2870   21.4300 F   0  0  0  0  0  0  0  0  0  0  0  0
  -21.2940   -3.8400   26.0380 F   0  0  0  0  0  0  0  0  0  0  0  0
  -22.7360  -13.5700   21.1460 C   0  0  0  0  0  0  0  0  0  0  0  0
  -22.0320  -12.8660   22.0240 N   0  0  0  0  0  0  0  0  0  0  0  0
  -22.2780  -14.5880   20.6300 O   0  0  0  0  0  0  0  0  0  0  0  0
  -22.4170  -12.0420   22.4630 H   0  0  0  0  0  0  0  0  0  0  0  0
  -21.0930  -13.1550   22.2630 H   0  0  0  0  0  0  0  0  0  0  0  0
  -25.3150  -15.2810   20.3020 N   0  0  0  0  0  0  0  0  0  0  0  0
  -24.5370  -15.9190   20.4270 H   0  0  0  0  0  0  0  0  0  0  0  0
  -26.1390  -15.7310   19.9280 H   0  0  0  0  0  0  0  0  0  0  0  0
  1 43  2  0
  1  2  1  0
  3 14  2  0
  4  2  1  0
  4  9  1  0
  5 13  1  0
  5 15  1  0
  6 12  1  0
  6  8  1  0
  7 13  1  0
  8  7  1  0
  9  8  2  0
 10  4  2  0
 11 10  1  0
 11  6  2  0
 12  5  1  0
 13  3  1  0
 15 17  2  0
 16 15  1  0
 18 16  1  0
 19 28  2  0
 19 24  1  0
 20 16  1  0
 20 24  1  0
 21 20  1  0
 22 23  1  0
 22 21  1  0
 23 19  1  0
 24 25  2  0
 25 26  1  0
 27 26  2  0
 28 27  1  0
 29  3  1  0
 29 34  1  0
 29 30  1  0
 30 33  1  1
 30 31  1  0
 32 30  1  0
 34 37  1  0
 35 39  1  0
 35 34  1  0
 36 35  2  0
 39 38  1  0
 41 42  1  0
 41 39  1  0
 41 40  1  0
 44 45  2  0
 44 43  1  0
 45 54  1  0
 46 54  1  0
 47 52  1  0
 48 49  1  0
 48 47  1  0
 50 49  1  0
 50 59  1  0
 50 51  1  0
 52 46  1  0
 52 51  1  0
 53 46  2  0
 54 55  1  0
 56 57  2  0
 57 76  1  0
 58 57  1  0
 58 61  1  0
 59 60  1  0
 59 56  1  0
 60 58  2  0
 61 62  1  0
 62 63  2  0
 64 67  1  0
 64 63  1  0
 65 64  2  0
 66 65  1  0
 66 61  2  0
 67 68  1  0
 68 69  1  0
 69 70  2  0
 71 70  1  0
 71 75  1  0
 72 71  2  0
 73 68  2  0
 73 72  1  0
 74 73  1  0
 76 77  1  0
 77 80  1  0
 77 79  1  0
 78 76  2  0
 81 82  1  0
 81 56  1  0
 83 81  1  0
M  ISO  4   1 101   2 101  46 100  54 100
M  END
>  <TORSDO>  (57) 
F 19

>  <SCORE>  (57) 
-16.287

>  <name>  (57) 
57

>  <ligand_id>  (57) 
57

>  <original_smiles>  (57) 
[H]c1c([H])c([H])c2c(c1[H])C([H])([H])C([H])([H])C([H])([H])C2([H])N([H])C(=O)C1([H])N(C(=O)C([H])(N([H])C(=O)C([H])(N([H])C([H])([H])[H])C([H])([H])[H])C(C([H])([H])[H])(C([H])([H])[H])C([H])([H])[H])C([H])([H])c2c([H])c(OC([H])([H])C([H])([H])C([H])([H])C([H])([H])N([H])C(=O)N3C([H])([H])C([H])([H])C([H])([H])C([H])(n4nc(-c5c([H])c([H])c(Oc6c([H])c([H])c(F)c([H])c6F)c([H])c5[H])c(C(=O)N([H])[H])c4N([H])[H])C3([H])[H])c([H])c([H])c2C1([H])[H]

>  <smiles>  (57) 
[H]c1c([H])c([H])c2c(c1[H])C([H])([H])C([H])([H])C([H])([H])C2([H])N([H])C(=O)C1([H])N(C(=O)C([H])(N([H])C(=O)C([H])(N([H])C([H])([H])[H])C([H])([H])[H])C(C([H])([H])[H])(C([H])([H])[H])C([H])([H])[H])C([H])([H])c2c([H])c(OC([H])([H])C([H])([H])C([H])([H])C([H])([H])N([H])C(=O)N3C([H])([H])C([H])([H])C([H])([H])C([H])(n4nc(-c5c([H])c([H])c(Oc6c([H])c([H])c(F)c([H])c6F)c([H])c5[H])c(C(=O)N([H])[H])c4N([H])[H])C3([H])[H])c([H])c([H])c2C1([H])[H]

$$$$
58:0:0
     RDKit          3D

 93101  0  0  1  0  0  0  0  0999 V2000
  -30.9510  -20.6280   20.6010 C   0  0  0  0  0  3  0  0  0  0  0  0
  -31.3340  -18.1780   20.7540 C   0  0  0  0  0  3  0  0  0  0  0  0
  -31.7610  -19.5150   20.9300 C   0  0  0  0  0  0  0  0  0  0  0  0
  -29.6440  -20.5130   20.0730 C   0  0  0  0  0  0  0  0  0  0  0  0
  -30.0650  -17.8420   20.2420 C   0  0  0  0  0  0  0  0  0  0  0  0
  -29.2330  -19.0640   19.9140 C   0  0  0  0  0  0  0  0  0  0  0  0
  -33.1510  -19.7570   21.4880 C   0  0  0  0  0  1  0  0  0  0  0  0
  -30.4860  -15.1010   19.9500 C   0  0  0  0  0  0  0  0  0  0  0  0
  -30.3130  -12.7630   18.9350 C   0  0  0  0  0  2  0  0  0  0  0  0
  -29.2990  -12.7220   17.7680 C   0  0  0  0  0  2  0  0  0  0  0  0
  -27.8750  -12.4760   18.2950 C   0  0  0  0  0  2  0  0  0  0  0  0
  -27.5390  -13.3640   19.5200 C   0  0  0  0  0  3  0  0  0  0  0  0
  -28.6680  -13.3760   20.5720 C   0  0  0  0  0  2  0  0  0  0  0  0
  -29.8800  -13.8380   19.8820 N   0  0  0  0  0  0  0  0  0  0  0  0
  -31.6800  -15.1270   19.6290 O   0  0  0  0  0  0  0  0  0  0  0  0
  -29.7260  -16.3170   20.1440 N   0  0  0  0  0  0  0  0  0  0  0  0
  -28.7400  -16.1280   20.2330 H   0  0  0  0  0  0  0  0  0  0  0  0
  -25.2190  -13.9010   20.4430 C   0  0  0  0  0  0  0  0  0  0  0  0
  -24.1850  -13.1090   20.8580 C   0  0  0  0  0  0  0  0  0  0  0  0
  -24.6500  -11.7620   20.7500 C   0  0  0  0  0  0  0  0  0  0  0  0
  -26.2440  -13.0360   20.1020 N   0  0  0  0  0  0  0  0  0  0  0  0
  -25.9180  -11.7420   20.3540 N   0  0  0  0  0  0  0  0  0  0  0  0
  -23.9390  -10.4900   20.9440 C   0  0  0  0  0  0  0  0  0  0  0  0
  -24.3890   -9.5250   21.8690 C   0  0  0  0  0  3  0  0  0  0  0  0
  -23.6750   -8.3210   22.0520 C   0  0  0  0  0  3  0  0  0  0  0  0
  -22.4970   -8.0730   21.3080 C   0  0  0  0  0  0  0  0  0  0  0  0
  -22.0660   -9.0290   20.3700 C   0  0  0  0  0  3  0  0  0  0  0  0
  -22.7810  -10.2240   20.1860 C   0  0  0  0  0  3  0  0  0  0  0  0
  -21.7530   -6.9210   21.3990 O   0  0  0  0  0  0  0  0  0  0  0  0
  -21.6550   -6.2200   22.5740 C   0  0  0  0  0  0  0  0  0  0  0  0
  -21.1460   -6.8090   23.7520 C   0  0  0  0  0  3  0  0  0  0  0  0
  -20.9970   -6.0320   24.9200 C   0  0  0  0  0  3  0  0  0  0  0  0
  -21.3490   -4.6690   24.9080 C   0  0  0  0  0  0  0  0  0  0  0  0
  -21.8520   -4.0810   23.7350 C   0  0  0  0  0  3  0  0  0  0  0  0
  -22.0030   -4.8550   22.5710 C   0  0  0  0  0  0  0  0  0  0  0  0
  -22.4680   -4.2770   21.4360 F   0  0  0  0  0  0  0  0  0  0  0  0
  -21.1990   -3.9200   26.0260 F   0  0  0  0  0  0  0  0  0  0  0  0
  -22.8070  -13.5720   21.2320 C   0  0  0  0  0  0  0  0  0  0  0  0
  -22.1450  -12.8560   22.1340 N   0  0  0  0  0  0  0  0  0  0  0  0
  -22.3300  -14.6020   20.7600 O   0  0  0  0  0  0  0  0  0  0  0  0
  -22.5460  -12.0220   22.5350 H   0  0  0  0  0  0  0  0  0  0  0  0
  -21.2240  -13.1480   22.4290 H   0  0  0  0  0  0  0  0  0  0  0  0
  -25.3640  -15.2780   20.2970 N   0  0  0  0  0  0  0  0  0  0  0  0
  -24.5850  -15.9090   20.4470 H   0  0  0  0  0  0  0  0  0  0  0  0
  -26.1480  -15.7220   19.8380 H   0  0  0  0  0  0  0  0  0  0  0  0
  -29.0970  -23.2600   19.9640 C   0  0  0  0  0  0  0  0  0  0  0  0
  -28.8770  -21.8410   19.7300 N   0  0  0  0  0  0  0  0  0  0  0  0
  -30.0730  -23.5980   20.6380 O   0  0  0  0  0  0  0  0  0  0  0  0
  -28.0310  -21.6770   19.2000 H   0  0  0  0  0  0  0  0  0  0  0  0
  -28.1540  -24.5560   19.4320 C   0  0  0  0  0  2  0  0  0  0  0  0
  -28.4090  -26.0900   19.7790 O   0  0  0  0  0  0  0  0  0  0  0  0
  -24.5960  -31.6030   23.0040 C   0  0  0  0  0  0  0  0  0  0  0  0
  -27.3490  -27.0950   19.7490 C   0  0  0  0  0  0  0  0  0  0  0  0
  -23.4630  -30.2650   21.2750 C   0  0  0  0  0  3  0  0  0  0  0  0
  -24.9760  -28.8140   19.7810 C   0  0  0  0  0  0  0  0  0  0  0  0
  -26.0140  -30.6040   21.1610 C   0  0  0  0  0  2  0  0  0  0  0  0
  -26.1390  -29.2490   20.4300 C   0  0  0  0  0  0  0  0  0  0  0  0
  -27.3250  -28.4080   20.3950 C   0  0  0  0  0  3  0  0  0  0  0  0
  -26.1550  -26.7830   19.0620 C   0  0  0  0  0  3  0  0  0  0  0  0
  -25.0010  -27.5990   19.0810 C   0  0  0  0  0  3  0  0  0  0  0  0
  -23.7230  -29.6730   19.8640 C   0  0  0  0  0  2  0  0  0  0  0  0
  -24.7110  -30.8430   21.8700 N   0  0  0  0  0  0  0  0  0  0  0  0
  -23.4950  -31.8240   23.5310 O   0  0  0  0  0  0  0  0  0  0  0  0
  -22.8030  -29.1860   22.1720 C   0  0  0  0  0  0  0  0  0  0  0  0
  -21.4730  -29.0150   22.0570 N   0  0  0  0  0  0  0  0  0  0  0  0
  -23.4910  -28.5070   22.9400 O   0  0  0  0  0  0  0  0  0  0  0  0
  -20.9710  -29.6190   21.4200 H   0  0  0  0  0  0  0  0  0  0  0  0
  -18.0980  -27.8090   22.5940 C   0  0  0  0  0  0  0  0  0  0  0  0
  -20.6700  -28.0170   22.7710 C   0  0  0  0  0  3  0  0  0  0  0  0
  -20.7260  -26.6460   22.0570 C   0  0  0  0  0  2  0  0  0  0  0  0
  -19.5760  -26.4330   21.0670 C   0  0  0  0  0  2  0  0  0  0  0  0
  -18.2250  -26.5300   21.7820 C   0  0  0  0  0  2  0  0  0  0  0  0
  -19.2450  -28.5140   23.0450 C   0  0  0  0  0  0  0  0  0  0  0  0
  -19.0710  -29.7120   23.7700 C   0  0  0  0  0  3  0  0  0  0  0  0
  -17.7820  -30.2060   24.0460 C   0  0  0  0  0  3  0  0  0  0  0  0
  -16.6500  -29.4950   23.6120 C   0  0  0  0  0  3  0  0  0  0  0  0
  -16.8090  -28.2990   22.8910 C   0  0  0  0  0  3  0  0  0  0  0  0
  -25.8430  -32.2470   23.6810 C   0  0  0  0  0  3  0  0  0  0  0  0
  -26.3320  -31.4570   24.9580 C   0  0  1  0  0  0  0  0  0  0  0  0
  -25.2100  -31.1820   25.9860 C   0  0  0  0  0  1  0  0  0  0  0  0
  -26.9460  -30.0960   24.5590 C   0  0  0  0  0  1  0  0  0  0  0  0
  -27.4500  -32.2530   25.6720 C   0  0  0  0  0  1  0  0  0  0  0  0
  -25.4940  -33.6310   24.0420 N   0  0  0  0  0  0  0  0  0  0  0  0
  -25.8030  -34.7140   23.3160 C   0  0  0  0  0  0  0  0  0  0  0  0
  -26.4730  -34.6540   22.2820 O   0  0  0  0  0  0  0  0  0  0  0  0
  -24.8960  -33.7500   24.8470 H   0  0  0  0  0  0  0  0  0  0  0  0
  -24.0170  -36.4680   23.0340 C   0  0  0  0  0  1  0  0  0  0  0  0
  -25.2850  -36.0800   23.8130 C   0  0  0  0  0  3  0  0  0  0  0  0
  -27.4020  -37.0150   24.6320 C   0  0  0  0  0  1  0  0  0  0  0  0
  -26.2840  -37.1650   23.7050 N   0  0  0  0  0  0  0  0  0  0  0  0
  -25.8510  -38.0700   23.8720 H   0  0  0  0  0  0  0  0  0  0  0  0
  -26.9970  -18.6520   20.4080 C   0  0  0  0  0  1  0  0  0  0  0  0
  -27.9850  -18.8280   19.4040 O   0  0  0  0  0  0  0  0  0  0  0  0
  1  3  1  0
  2  3  2  0
  3  7  1  0
  4  1  2  0
  5  2  1  0
  6  4  1  0
  6  5  2  0
  8 16  1  0
  9 14  1  0
 10 11  1  0
 10  9  1  0
 12 11  1  0
 12 21  1  0
 12 13  1  0
 14  8  1  0
 14 13  1  0
 15  8  2  0
 16 17  1  0
 16  5  1  0
 18 19  2  0
 19 38  1  0
 20 19  1  0
 20 23  1  0
 21 22  1  0
 21 18  1  0
 22 20  2  0
 23 24  1  0
 24 25  2  0
 26 29  1  0
 26 25  1  0
 27 26  2  0
 28 27  1  0
 28 23  2  0
 29 30  1  0
 30 31  1  0
 31 32  2  0
 33 32  1  0
 33 37  1  0
 34 33  2  0
 35 30  2  0
 35 34  1  0
 36 35  1  0
 38 39  1  0
 39 42  1  0
 39 41  1  0
 40 38  2  0
 43 18  1  0
 43 44  1  0
 45 43  1  0
 46 48  2  0
 47 46  1  0
 47  4  1  0
 49 47  1  0
 50 51  1  0
 50 46  1  0
 52 63  2  0
 53 51  1  0
 53 58  1  0
 54 62  1  0
 54 64  1  0
 55 61  1  0
 55 57  1  0
 56 62  1  0
 57 56  1  0
 58 57  2  0
 59 60  1  0
 59 53  2  0
 60 55  2  0
 61 54  1  0
 62 52  1  0
 64 66  2  0
 65 64  1  0
 67 65  1  0
 68 77  2  0
 68 73  1  0
 69 65  1  0
 69 73  1  0
 70 69  1  0
 71 72  1  0
 71 70  1  0
 72 68  1  0
 73 74  2  0
 74 75  1  0
 76 75  2  0
 77 76  1  0
 78 52  1  0
 78 83  1  0
 78 79  1  0
 79 82  1  1
 79 80  1  0
 81 79  1  0
 83 86  1  0
 84 88  1  0
 84 83  1  0
 85 84  2  0
 88 87  1  0
 90 88  1  0
 90 91  1  0
 90 89  1  0
 93  6  1  0
 93 92  1  0
M  ISO  4   8 100  16 100  50 101  51 101
M  END
>  <TORSDO>  (58) 
F 19

>  <SCORE>  (58) 
-13.542

>  <name>  (58) 
58

>  <ligand_id>  (58) 
58

>  <original_smiles>  (58) 
[H]c1c([H])c([H])c2c(c1[H])C([H])([H])C([H])([H])C([H])([H])C2([H])N([H])C(=O)C1([H])N(C(=O)C([H])(N([H])C(=O)C([H])(N([H])C([H])([H])[H])C([H])([H])[H])C(C([H])([H])[H])(C([H])([H])[H])C([H])([H])[H])C([H])([H])c2c([H])c(OC([H])([H])C(=O)N([H])c3c([H])c(C([H])([H])[H])c([H])c(N([H])C(=O)N4C([H])([H])C([H])([H])C([H])([H])C([H])(n5nc(-c6c([H])c([H])c(Oc7c([H])c([H])c(F)c([H])c7F)c([H])c6[H])c(C(=O)N([H])[H])c5N([H])[H])C4([H])[H])c3OC([H])([H])[H])c([H])c([H])c2C1([H])[H]

>  <smiles>  (58) 
[H]c1c([H])c([H])c2c(c1[H])C([H])([H])C([H])([H])C([H])([H])C2([H])N([H])C(=O)C1([H])N(C(=O)C([H])(N([H])C(=O)C([H])(N([H])C([H])([H])[H])C([H])([H])[H])C(C([H])([H])[H])(C([H])([H])[H])C([H])([H])[H])C([H])([H])c2c([H])c(OC([H])([H])C(=O)N([H])c3c([H])c(C([H])([H])[H])c([H])c(N([H])C(=O)N4C([H])([H])C([H])([H])C([H])([H])C([H])(n5nc(-c6c([H])c([H])c(Oc7c([H])c([H])c(F)c([H])c7F)c([H])c6[H])c(C(=O)N([H])[H])c5N([H])[H])C4([H])[H])c3OC([H])([H])[H])c([H])c([H])c2C1([H])[H]

$$$$
59:0:0
     RDKit          3D

103112  0  0  1  0  0  0  0  0999 V2000
  -29.3640  -21.7700   20.7530 C   0  0  0  0  0  0  0  0  0  0  0  0
  -29.1140  -20.4400   20.8300 N   0  0  0  0  0  0  0  0  0  0  0  0
  -30.1180  -22.2130   19.8810 O   0  0  0  0  0  0  0  0  0  0  0  0
  -28.4540  -20.1200   21.5250 H   0  0  0  0  0  0  0  0  0  0  0  0
  -29.6630  -19.4900   18.6290 C   0  0  0  0  0  3  0  0  0  0  0  0
  -30.4480  -18.6720   17.7790 C   0  0  0  0  0  0  0  0  0  0  0  0
  -30.6500  -18.4620   20.6220 C   0  0  0  0  0  0  0  0  0  0  0  0
  -29.7960  -19.4470   20.0360 C   0  0  0  0  0  0  0  0  0  0  0  0
  -31.3310  -17.4910   19.8080 C   0  0  0  0  0  0  0  0  0  0  0  0
  -31.2640  -17.6640   18.3920 C   0  0  0  0  0  0  0  0  0  0  0  0
  -30.9150  -18.4900   22.1240 C   0  0  0  0  0  1  0  0  0  0  0  0
  -32.0380  -16.8880   17.6040 F   0  0  0  0  0  0  0  0  0  0  0  0
  -32.5900  -15.2460   19.9840 C   0  0  0  0  0  0  0  0  0  0  0  0
  -32.0150  -12.9870   19.0720 C   0  0  0  0  0  2  0  0  0  0  0  0
  -31.1130  -13.1040   17.8300 C   0  0  0  0  0  2  0  0  0  0  0  0
  -29.6350  -13.1850   18.2410 C   0  0  0  0  0  2  0  0  0  0  0  0
  -29.3760  -14.1780   19.4000 C   0  0  0  0  0  3  0  0  0  0  0  0
  -30.4230  -14.0820   20.5340 C   0  0  0  0  0  2  0  0  0  0  0  0
  -31.7540  -14.1630   19.9300 N   0  0  0  0  0  0  0  0  0  0  0  0
  -33.7490  -15.1720   19.5680 O   0  0  0  0  0  0  0  0  0  0  0  0
  -32.1360  -16.4490   20.4500 N   0  0  0  0  0  0  0  0  0  0  0  0
  -32.8660  -16.8700   21.0070 H   0  0  0  0  0  0  0  0  0  0  0  0
  -27.1050  -15.0920   20.1490 C   0  0  0  0  0  0  0  0  0  0  0  0
  -25.9270  -14.4810   20.5000 C   0  0  0  0  0  0  0  0  0  0  0  0
  -26.1880  -13.0790   20.4480 C   0  0  0  0  0  0  0  0  0  0  0  0
  -28.0110  -14.0730   19.9100 N   0  0  0  0  0  0  0  0  0  0  0  0
  -27.4600  -12.8530   20.1440 N   0  0  0  0  0  0  0  0  0  0  0  0
  -25.2820  -11.9360   20.6100 C   0  0  0  0  0  0  0  0  0  0  0  0
  -25.5760  -10.8740   21.4910 C   0  0  0  0  0  3  0  0  0  0  0  0
  -24.6830   -9.7880   21.6300 C   0  0  0  0  0  3  0  0  0  0  0  0
  -23.4800   -9.7610   20.8870 C   0  0  0  0  0  0  0  0  0  0  0  0
  -23.2020  -10.8080   19.9920 C   0  0  0  0  0  3  0  0  0  0  0  0
  -24.0960  -11.8840   19.8510 C   0  0  0  0  0  3  0  0  0  0  0  0
  -22.5670   -8.7300   20.9360 O   0  0  0  0  0  0  0  0  0  0  0  0
  -22.3750   -7.9930   22.0780 C   0  0  0  0  0  0  0  0  0  0  0  0
  -22.0390   -8.5970   23.3090 C   0  0  0  0  0  3  0  0  0  0  0  0
  -21.7780   -7.7990   24.4430 C   0  0  0  0  0  3  0  0  0  0  0  0
  -21.8480   -6.3960   24.3450 C   0  0  0  0  0  0  0  0  0  0  0  0
  -22.1690   -5.7900   23.1180 C   0  0  0  0  0  3  0  0  0  0  0  0
  -22.4300   -6.5870   21.9890 C   0  0  0  0  0  0  0  0  0  0  0  0
  -22.7210   -6.0020   20.8060 F   0  0  0  0  0  0  0  0  0  0  0  0
  -21.5930   -5.6210   25.4240 F   0  0  0  0  0  0  0  0  0  0  0  0
  -24.6250  -15.1590   20.7670 C   0  0  0  0  0  0  0  0  0  0  0  0
  -23.7960  -14.5780   21.6300 N   0  0  0  0  0  0  0  0  0  0  0  0
  -24.3430  -16.2370   20.2530 O   0  0  0  0  0  0  0  0  0  0  0  0
  -24.0350  -13.7190   22.0960 H   0  0  0  0  0  0  0  0  0  0  0  0
  -22.9110  -15.0250   21.8240 H   0  0  0  0  0  0  0  0  0  0  0  0
  -27.4530  -16.4230   19.9770 N   0  0  0  0  0  0  0  0  0  0  0  0
  -26.7140  -17.0870   19.7740 H   0  0  0  0  0  0  0  0  0  0  0  0
  -28.3350  -16.6870   19.5570 H   0  0  0  0  0  0  0  0  0  0  0  0
  -30.0440  -17.7380   15.3790 C   0  0  0  0  0  1  0  0  0  0  0  0
  -31.9200  -19.3470   15.8240 C   0  0  0  0  0  1  0  0  0  0  0  0
  -29.5830  -20.1370   15.7710 C   0  0  0  0  0  1  0  0  0  0  0  0
  -30.4840  -18.9510   16.2330 C   0  0  2  0  0  0  0  0  0  0  0  0
  -29.6730  -25.1110   21.1350 C   0  0  0  0  0  0  0  0  0  0  0  0
  -29.9770  -22.5690   23.7870 C   0  0  0  0  0  2  0  0  0  0  0  0
  -28.6150  -22.2490   23.1880 C   0  0  0  0  0  2  0  0  0  0  0  0
  -30.2750  -23.9340   23.1860 C   0  0  0  0  0  2  0  0  0  0  0  0
  -28.6940  -22.7880   21.7410 C   0  0  0  0  0  3  0  0  0  0  0  0
  -29.5360  -24.0050   21.9200 N   0  0  0  0  0  0  0  0  0  0  0  0
  -30.6960  -25.7980   21.1920 O   0  0  0  0  0  0  0  0  0  0  0  0
  -28.5320  -25.6190   20.2360 C   0  0  0  0  0  2  0  0  0  0  0  0
  -28.6840  -27.0600   20.0320 O   0  0  0  0  0  0  0  0  0  0  0  0
  -24.8490  -31.9990   23.4890 C   0  0  0  0  0  0  0  0  0  0  0  0
  -27.5340  -27.8260   20.0570 C   0  0  0  0  0  0  0  0  0  0  0  0
  -23.6540  -30.6820   21.7740 C   0  0  0  0  0  3  0  0  0  0  0  0
  -25.1200  -29.3000   20.2040 C   0  0  0  0  0  0  0  0  0  0  0  0
  -26.1720  -31.1160   21.5640 C   0  0  0  0  0  2  0  0  0  0  0  0
  -26.2770  -29.8000   20.8170 C   0  0  0  0  0  0  0  0  0  0  0  0
  -27.4910  -29.0690   20.7420 C   0  0  0  0  0  3  0  0  0  0  0  0
  -26.3700  -27.3800   19.3950 C   0  0  0  0  0  3  0  0  0  0  0  0
  -25.1650  -28.0930   19.4830 C   0  0  0  0  0  3  0  0  0  0  0  0
  -23.8560  -30.1140   20.3390 C   0  0  0  0  0  2  0  0  0  0  0  0
  -24.9100  -31.2790   22.3310 N   0  0  0  0  0  0  0  0  0  0  0  0
  -23.7690  -32.2020   24.0640 O   0  0  0  0  0  0  0  0  0  0  0  0
  -23.0530  -29.5750   22.6700 C   0  0  0  0  0  0  0  0  0  0  0  0
  -21.7590  -29.2740   22.4690 N   0  0  0  0  0  0  0  0  0  0  0  0
  -23.7500  -28.9900   23.5030 O   0  0  0  0  0  0  0  0  0  0  0  0
  -21.2560  -29.7990   21.7650 H   0  0  0  0  0  0  0  0  0  0  0  0
  -18.5290  -27.6610   22.6700 C   0  0  0  0  0  0  0  0  0  0  0  0
  -20.9970  -28.2400   23.1720 C   0  0  0  0  0  3  0  0  0  0  0  0
  -21.3310  -26.8320   22.6240 C   0  0  0  0  0  2  0  0  0  0  0  0
  -20.3790  -26.3770   21.5150 C   0  0  0  0  0  2  0  0  0  0  0  0
  -18.9380  -26.3440   22.0300 C   0  0  0  0  0  2  0  0  0  0  0  0
  -19.4980  -28.5570   23.1950 C   0  0  0  0  0  0  0  0  0  0  0  0
  -19.0690  -29.7790   23.7510 C   0  0  0  0  0  3  0  0  0  0  0  0
  -17.7000  -30.1080   23.7970 C   0  0  0  0  0  3  0  0  0  0  0  0
  -16.7440  -29.2130   23.2840 C   0  0  0  0  0  3  0  0  0  0  0  0
  -17.1590  -27.9930   22.7240 C   0  0  0  0  0  3  0  0  0  0  0  0
  -26.1270  -32.6250   24.1240 C   0  0  0  0  0  3  0  0  0  0  0  0
  -26.6430  -31.8320   25.3870 C   0  0  1  0  0  0  0  0  0  0  0  0
  -25.5340  -31.5090   26.4130 C   0  0  0  0  0  1  0  0  0  0  0  0
  -27.2990  -30.4930   24.9710 C   0  0  0  0  0  1  0  0  0  0  0  0
  -27.7500  -32.6440   26.0980 C   0  0  0  0  0  1  0  0  0  0  0  0
  -25.8010  -34.0150   24.4800 N   0  0  0  0  0  0  0  0  0  0  0  0
  -26.1790  -35.0930   23.7780 C   0  0  0  0  0  0  0  0  0  0  0  0
  -26.9090  -35.0180   22.7870 O   0  0  0  0  0  0  0  0  0  0  0  0
  -25.1520  -34.1410   25.2420 H   0  0  0  0  0  0  0  0  0  0  0  0
  -24.5050  -36.9290   23.3530 C   0  0  0  0  0  1  0  0  0  0  0  0
  -25.6680  -36.4710   24.2470 C   0  0  0  0  0  3  0  0  0  0  0  0
  -27.7470  -37.2920   25.2650 C   0  0  0  0  0  1  0  0  0  0  0  0
  -26.7180  -37.5120   24.2540 N   0  0  0  0  0  0  0  0  0  0  0  0
  -26.3140  -38.4320   24.3990 H   0  0  0  0  0  0  0  0  0  0  0  0
  1  2  1  0
  2  4  1  0
  3  1  2  0
  5  8  1  0
  6 10  1  0
  6  5  2  0
  7 11  1  0
  8  7  2  0
  8  2  1  0
  9 21  1  0
  9  7  1  0
 10  9  2  0
 12 10  1  0
 13 21  1  0
 14 19  1  0
 15 16  1  0
 15 14  1  0
 17 16  1  0
 17 26  1  0
 17 18  1  0
 19 13  1  0
 19 18  1  0
 20 13  2  0
 21 22  1  0
 23 24  2  0
 24 43  1  0
 25 24  1  0
 25 28  1  0
 26 27  1  0
 26 23  1  0
 27 25  2  0
 28 29  1  0
 29 30  2  0
 31 34  1  0
 31 30  1  0
 32 31  2  0
 33 32  1  0
 33 28  2  0
 34 35  1  0
 35 36  1  0
 36 37  2  0
 38 37  1  0
 38 42  1  0
 39 38  2  0
 40 35  2  0
 40 39  1  0
 41 40  1  0
 43 44  1  0
 44 47  1  0
 44 46  1  0
 45 43  2  0
 48 23  1  0
 49 48  1  0
 50 48  1  0
 54 51  1  6
 52 54  1  0
 53 54  1  0
 54  6  1  0
 55 61  2  0
 55 60  1  0
 57 56  1  0
 58 56  1  0
 59  1  1  0
 59 60  1  0
 59 57  1  0
 60 58  1  0
 62 55  1  0
 63 65  1  0
 63 62  1  0
 64 75  2  0
 65 70  1  0
 66 74  1  0
 66 76  1  0
 67 73  1  0
 67 69  1  0
 68 74  1  0
 69 68  1  0
 70 69  2  0
 71 72  1  0
 71 65  2  0
 72 67  2  0
 73 66  1  0
 74 64  1  0
 76 78  2  0
 77 76  1  0
 79 77  1  0
 80 89  2  0
 80 85  1  0
 81 77  1  0
 81 85  1  0
 82 81  1  0
 83 84  1  0
 83 82  1  0
 84 80  1  0
 85 86  2  0
 86 87  1  0
 88 87  2  0
 89 88  1  0
 90 64  1  0
 90 95  1  0
 90 91  1  0
 91 94  1  1
 91 92  1  0
 93 91  1  0
 95 98  1  0
 96100  1  0
 96 95  1  0
 97 96  2  0
100 99  1  0
100102  1  0
102103  1  0
102101  1  0
M  ISO  4  13 100  21 100  62 101  63 101
M  END
>  <TORSDO>  (59) 
F 20

>  <SCORE>  (59) 
-9.445

>  <name>  (59) 
59

>  <ligand_id>  (59) 
59

>  <original_smiles>  (59) 
[H]c1c([H])c([H])c2c(c1[H])C([H])([H])C([H])([H])C([H])([H])C2([H])N([H])C(=O)C1([H])N(C(=O)C([H])(N([H])C(=O)C([H])(N([H])C([H])([H])[H])C([H])([H])[H])C(C([H])([H])[H])(C([H])([H])[H])C([H])([H])[H])C([H])([H])c2c([H])c(OC([H])([H])C(=O)N3C([H])([H])C([H])([H])C([H])([H])C3([H])C(=O)N([H])c3c([H])c(C(C([H])([H])[H])(C([H])([H])[H])C([H])([H])[H])c(F)c(N([H])C(=O)N4C([H])([H])C([H])([H])C([H])([H])C([H])(n5nc(-c6c([H])c([H])c(Oc7c([H])c([H])c(F)c([H])c7F)c([H])c6[H])c(C(=O)N([H])[H])c5N([H])[H])C4([H])[H])c3C([H])([H])[H])c([H])c([H])c2C1([H])[H]

>  <smiles>  (59) 
[H]c1c([H])c([H])c2c(c1[H])C([H])([H])C([H])([H])C([H])([H])C2([H])N([H])C(=O)C1([H])N(C(=O)C([H])(N([H])C(=O)C([H])(N([H])C([H])([H])[H])C([H])([H])[H])C(C([H])([H])[H])(C([H])([H])[H])C([H])([H])[H])C([H])([H])c2c([H])c(OC([H])([H])C(=O)N3C([H])([H])C([H])([H])C([H])([H])C3([H])C(=O)N([H])c3c([H])c(C(C([H])([H])[H])(C([H])([H])[H])C([H])([H])[H])c(F)c(N([H])C(=O)N4C([H])([H])C([H])([H])C([H])([H])C([H])(n5nc(-c6c([H])c([H])c(Oc7c([H])c([H])c(F)c([H])c7F)c([H])c6[H])c(C(=O)N([H])[H])c5N([H])[H])C4([H])[H])c3C([H])([H])[H])c([H])c([H])c2C1([H])[H]

$$$$
60:0:0
     RDKit          3D

 93101  0  0  1  0  0  0  0  0999 V2000
  -30.8080  -20.6500   20.9960 C   0  0  0  0  0  3  0  0  0  0  0  0
  -29.4970  -20.5150   20.4870 C   0  0  0  0  0  0  0  0  0  0  0  0
  -29.9970  -17.8460   20.5470 C   0  0  0  0  0  0  0  0  0  0  0  0
  -31.6430  -19.5500   21.2870 C   0  0  0  0  0  0  0  0  0  0  0  0
  -31.2570  -18.2060   21.0870 C   0  0  0  0  0  0  0  0  0  0  0  0
  -29.1300  -19.0600   20.2760 C   0  0  0  0  0  0  0  0  0  0  0  0
  -32.8720  -19.8000   21.8020 F   0  0  0  0  0  0  0  0  0  0  0  0
  -32.1330  -17.2520   21.4800 F   0  0  0  0  0  0  0  0  0  0  0  0
  -27.5480  -18.7470   19.6610 Cl  0  0  0  0  0  0  0  0  0  0  0  0
  -30.4480  -15.0960   20.2800 C   0  0  0  0  0  0  0  0  0  0  0  0
  -30.3390  -12.7210   19.3340 C   0  0  0  0  0  2  0  0  0  0  0  0
  -29.3940  -12.6280   18.1130 C   0  0  0  0  0  2  0  0  0  0  0  0
  -27.9440  -12.3880   18.5680 C   0  0  0  0  0  2  0  0  0  0  0  0
  -27.5330  -13.3160   19.7390 C   0  0  0  0  0  3  0  0  0  0  0  0
  -28.6020  -13.3770   20.8510 C   0  0  0  0  0  2  0  0  0  0  0  0
  -29.8470  -13.8280   20.2150 N   0  0  0  0  0  0  0  0  0  0  0  0
  -31.6500  -15.1130   19.9980 O   0  0  0  0  0  0  0  0  0  0  0  0
  -29.6770  -16.3150   20.3990 N   0  0  0  0  0  0  0  0  0  0  0  0
  -28.6880  -16.1270   20.4010 H   0  0  0  0  0  0  0  0  0  0  0  0
  -25.1600  -13.8630   20.5160 C   0  0  0  0  0  0  0  0  0  0  0  0
  -24.1100  -13.0760   20.8940 C   0  0  0  0  0  0  0  0  0  0  0  0
  -24.5870  -11.7300   20.8550 C   0  0  0  0  0  0  0  0  0  0  0  0
  -26.2090  -12.9970   20.2580 N   0  0  0  0  0  0  0  0  0  0  0  0
  -25.8750  -11.7080   20.5310 N   0  0  0  0  0  0  0  0  0  0  0  0
  -23.8740  -10.4590   21.0470 C   0  0  0  0  0  0  0  0  0  0  0  0
  -24.3250   -9.4910   21.9700 C   0  0  0  0  0  3  0  0  0  0  0  0
  -23.6090   -8.2870   22.1520 C   0  0  0  0  0  3  0  0  0  0  0  0
  -22.4270   -8.0450   21.4110 C   0  0  0  0  0  0  0  0  0  0  0  0
  -21.9950   -9.0040   20.4780 C   0  0  0  0  0  3  0  0  0  0  0  0
  -22.7120  -10.1980   20.2940 C   0  0  0  0  0  3  0  0  0  0  0  0
  -21.6810   -6.8950   21.5040 O   0  0  0  0  0  0  0  0  0  0  0  0
  -21.6570   -6.1430   22.6510 C   0  0  0  0  0  0  0  0  0  0  0  0
  -21.2480   -6.6850   23.8880 C   0  0  0  0  0  3  0  0  0  0  0  0
  -21.1710   -5.8590   25.0280 C   0  0  0  0  0  3  0  0  0  0  0  0
  -21.4930   -4.4930   24.9310 C   0  0  0  0  0  0  0  0  0  0  0  0
  -21.8960   -3.9500   23.6970 C   0  0  0  0  0  3  0  0  0  0  0  0
  -21.9740   -4.7730   22.5610 C   0  0  0  0  0  0  0  0  0  0  0  0
  -22.3430   -4.2400   21.3710 F   0  0  0  0  0  0  0  0  0  0  0  0
  -21.4130   -3.6970   26.0230 F   0  0  0  0  0  0  0  0  0  0  0  0
  -22.7100  -13.5390   21.1780 C   0  0  0  0  0  0  0  0  0  0  0  0
  -21.9980  -12.8370   22.0520 N   0  0  0  0  0  0  0  0  0  0  0  0
  -22.2580  -14.5590   20.6610 O   0  0  0  0  0  0  0  0  0  0  0  0
  -22.3770  -12.0120   22.4920 H   0  0  0  0  0  0  0  0  0  0  0  0
  -21.0590  -13.1290   22.2850 H   0  0  0  0  0  0  0  0  0  0  0  0
  -25.3050  -15.2350   20.3390 N   0  0  0  0  0  0  0  0  0  0  0  0
  -24.5250  -15.8730   20.4550 H   0  0  0  0  0  0  0  0  0  0  0  0
  -26.1260  -15.6860   19.9590 H   0  0  0  0  0  0  0  0  0  0  0  0
  -28.9170  -23.2580   20.4190 C   0  0  0  0  0  0  0  0  0  0  0  0
  -28.6750  -21.8350   20.2440 N   0  0  0  0  0  0  0  0  0  0  0  0
  -30.0130  -23.6190   20.8520 O   0  0  0  0  0  0  0  0  0  0  0  0
  -27.7480  -21.6570   19.8820 H   0  0  0  0  0  0  0  0  0  0  0  0
  -27.8600  -24.5330   20.0900 C   0  0  0  0  0  2  0  0  0  0  0  0
  -28.1830  -26.0760   20.3080 O   0  0  0  0  0  0  0  0  0  0  0  0
  -24.6450  -31.9200   23.2450 C   0  0  0  0  0  0  0  0  0  0  0  0
  -27.1620  -27.1170   20.2320 C   0  0  0  0  0  0  0  0  0  0  0  0
  -23.4310  -30.5310   21.6140 C   0  0  0  0  0  3  0  0  0  0  0  0
  -24.8620  -28.9300   20.1910 C   0  0  0  0  0  0  0  0  0  0  0  0
  -25.9920  -30.7540   21.4490 C   0  0  0  0  0  2  0  0  0  0  0  0
  -26.0500  -29.3530   20.8000 C   0  0  0  0  0  0  0  0  0  0  0  0
  -27.1990  -28.4650   20.8010 C   0  0  0  0  0  3  0  0  0  0  0  0
  -25.9470  -26.8150   19.5790 C   0  0  0  0  0  3  0  0  0  0  0  0
  -24.8280  -27.6760   19.5620 C   0  0  0  0  0  3  0  0  0  0  0  0
  -23.6450  -29.8460   20.2370 C   0  0  0  0  0  2  0  0  0  0  0  0
  -24.7100  -31.0920   22.1570 N   0  0  0  0  0  0  0  0  0  0  0  0
  -23.5620  -32.2180   23.7720 O   0  0  0  0  0  0  0  0  0  0  0  0
  -22.7400  -29.5360   22.5820 C   0  0  0  0  0  0  0  0  0  0  0  0
  -21.4100  -29.3790   22.4590 N   0  0  0  0  0  0  0  0  0  0  0  0
  -23.4050  -28.9070   23.4090 O   0  0  0  0  0  0  0  0  0  0  0  0
  -20.9280  -29.9370   21.7670 H   0  0  0  0  0  0  0  0  0  0  0  0
  -18.0180  -28.2050   22.9700 C   0  0  0  0  0  0  0  0  0  0  0  0
  -20.5800  -28.4520   23.2360 C   0  0  0  0  0  3  0  0  0  0  0  0
  -20.6700  -27.0160   22.6700 C   0  0  0  0  0  2  0  0  0  0  0  0
  -19.5660  -26.6950   21.6580 C   0  0  0  0  0  2  0  0  0  0  0  0
  -18.1860  -26.8520   22.3000 C   0  0  0  0  0  2  0  0  0  0  0  0
  -19.1420  -28.9640   23.3950 C   0  0  0  0  0  0  0  0  0  0  0  0
  -18.9290  -30.2290   23.9840 C   0  0  0  0  0  3  0  0  0  0  0  0
  -17.6280  -30.7380   24.1510 C   0  0  0  0  0  3  0  0  0  0  0  0
  -16.5190  -29.9770   23.7410 C   0  0  0  0  0  3  0  0  0  0  0  0
  -16.7150  -28.7130   23.1570 C   0  0  0  0  0  3  0  0  0  0  0  0
  -25.9280  -32.5490   23.8690 C   0  0  0  0  0  3  0  0  0  0  0  0
  -25.6230  -33.9490   24.2090 N   0  0  0  0  0  0  0  0  0  0  0  0
  -25.9370  -35.0070   23.4490 C   0  0  0  0  0  0  0  0  0  0  0  0
  -26.5780  -34.9070   22.4000 O   0  0  0  0  0  0  0  0  0  0  0  0
  -25.0510  -34.0990   25.0260 H   0  0  0  0  0  0  0  0  0  0  0  0
  -24.1900  -36.7980   23.1720 C   0  0  0  0  0  1  0  0  0  0  0  0
  -25.4670  -36.3950   23.9270 C   0  0  0  0  0  3  0  0  0  0  0  0
  -27.6320  -37.2910   24.6640 C   0  0  0  0  0  1  0  0  0  0  0  0
  -26.4900  -37.4520   23.7670 N   0  0  0  0  0  0  0  0  0  0  0  0
  -26.0870  -38.3710   23.9290 H   0  0  0  0  0  0  0  0  0  0  0  0
  -26.4380  -31.7740   25.1470 C   0  0  1  0  0  0  0  0  0  0  0  0
  -25.3440  -31.5480   26.2160 C   0  0  0  0  0  1  0  0  0  0  0  0
  -27.0110  -30.3910   24.7610 C   0  0  0  0  0  1  0  0  0  0  0  0
  -27.5960  -32.5610   25.8070 C   0  0  0  0  0  1  0  0  0  0  0  0
  1  4  1  0
  2  1  2  0
  3  5  1  0
  4  7  1  0
  5  4  2  0
  5  8  1  0
  6  2  1  0
  6  3  2  0
  9  6  1  0
 10 18  1  0
 11 16  1  0
 12 13  1  0
 12 11  1  0
 14 13  1  0
 14 23  1  0
 14 15  1  0
 16 10  1  0
 16 15  1  0
 17 10  2  0
 18 19  1  0
 18  3  1  0
 20 21  2  0
 21 40  1  0
 22 21  1  0
 22 25  1  0
 23 20  1  0
 23 24  1  0
 24 22  2  0
 25 26  1  0
 26 27  2  0
 28 31  1  0
 28 27  1  0
 29 28  2  0
 30 29  1  0
 30 25  2  0
 31 32  1  0
 32 33  1  0
 33 34  2  0
 35 34  1  0
 35 39  1  0
 36 35  2  0
 37 32  2  0
 37 36  1  0
 38 37  1  0
 40 41  1  0
 41 44  1  0
 41 43  1  0
 42 40  2  0
 45 46  1  0
 45 20  1  0
 47 45  1  0
 48 50  2  0
 49 48  1  0
 49  2  1  0
 51 49  1  0
 52 53  1  0
 52 48  1  0
 54 65  2  0
 55 53  1  0
 55 60  1  0
 56 64  1  0
 56 66  1  0
 57 63  1  0
 57 59  1  0
 58 64  1  0
 59 60  2  0
 59 58  1  0
 61 55  2  0
 62 61  1  0
 62 57  2  0
 63 56  1  0
 64 54  1  0
 66 68  2  0
 67 66  1  0
 69 67  1  0
 70 79  2  0
 70 75  1  0
 71 67  1  0
 71 75  1  0
 72 71  1  0
 73 74  1  0
 73 72  1  0
 74 70  1  0
 75 76  2  0
 76 77  1  0
 78 77  2  0
 79 78  1  0
 80 54  1  0
 80 81  1  0
 80 90  1  0
 81 84  1  0
 82 86  1  0
 82 81  1  0
 83 82  2  0
 86 85  1  0
 88 86  1  0
 88 89  1  0
 88 87  1  0
 90 93  1  1
 90 91  1  0
 92 90  1  0
M  ISO  4  10 100  18 100  52 101  53 101
M  END
>  <TORSDO>  (60) 
F 18

>  <SCORE>  (60) 
-14.958

>  <name>  (60) 
60

>  <ligand_id>  (60) 
60

>  <original_smiles>  (60) 
[H]c1c([H])c([H])c2c(c1[H])C([H])([H])C([H])([H])C([H])([H])C2([H])N([H])C(=O)C1([H])N(C(=O)C([H])(N([H])C(=O)C([H])(N([H])C([H])([H])[H])C([H])([H])[H])C(C([H])([H])[H])(C([H])([H])[H])C([H])([H])[H])C([H])([H])c2c([H])c(OC([H])([H])C(=O)N([H])c3c([H])c(F)c(F)c(N([H])C(=O)N4C([H])([H])C([H])([H])C([H])([H])C([H])(n5nc(-c6c([H])c([H])c(Oc7c([H])c([H])c(F)c([H])c7F)c([H])c6[H])c(C(=O)N([H])[H])c5N([H])[H])C4([H])[H])c3Cl)c([H])c([H])c2C1([H])[H]

>  <smiles>  (60) 
[H]c1c([H])c([H])c2c(c1[H])C([H])([H])C([H])([H])C([H])([H])C2([H])N([H])C(=O)C1([H])N(C(=O)C([H])(N([H])C(=O)C([H])(N([H])C([H])([H])[H])C([H])([H])[H])C(C([H])([H])[H])(C([H])([H])[H])C([H])([H])[H])C([H])([H])c2c([H])c(OC([H])([H])C(=O)N([H])c3c([H])c(F)c(F)c(N([H])C(=O)N4C([H])([H])C([H])([H])C([H])([H])C([H])(n5nc(-c6c([H])c([H])c(Oc7c([H])c([H])c(F)c([H])c7F)c([H])c6[H])c(C(=O)N([H])[H])c5N([H])[H])C4([H])[H])c3Cl)c([H])c([H])c2C1([H])[H]

$$$$
61:0:0
     RDKit          3D

 92100  0  0  1  0  0  0  0  0999 V2000
  -29.5140  -18.4820   19.3280 C   0  0  0  0  0  3  0  0  0  0  0  0
  -29.5390  -19.7760   20.0060 C   0  0  0  0  0  0  0  0  0  0  0  0
  -29.9110  -17.5140   20.2630 C   0  0  0  0  0  0  0  0  0  0  0  0
  -29.9390  -19.5930   21.2480 N   0  0  0  0  0  0  0  0  0  0  0  0
  -30.1950  -18.2490   21.4290 N   0  0  0  0  0  0  0  0  0  0  0  0
  -29.1880  -21.0890   19.4780 N   0  0  0  0  0  0  0  0  0  0  0  0
  -28.9860  -21.1230   18.4820 H   0  0  0  0  0  0  0  0  0  0  0  0
  -30.6310  -15.0270   19.9300 C   0  0  0  0  0  0  0  0  0  0  0  0
  -30.4770  -12.7080   18.9750 C   0  0  0  0  0  2  0  0  0  0  0  0
  -29.4710  -12.7080   17.8010 C   0  0  0  0  0  2  0  0  0  0  0  0
  -28.0310  -12.5060   18.3110 C   0  0  0  0  0  2  0  0  0  0  0  0
  -27.6910  -13.4230   19.5170 C   0  0  0  0  0  3  0  0  0  0  0  0
  -28.8060  -13.3820   20.5850 C   0  0  0  0  0  2  0  0  0  0  0  0
  -30.0620  -13.7680   19.9240 N   0  0  0  0  0  0  0  0  0  0  0  0
  -31.7930  -15.1700   19.5320 O   0  0  0  0  0  0  0  0  0  0  0  0
  -29.7820  -16.1060   20.1830 N   0  0  0  0  0  0  0  0  0  0  0  0
  -28.8650  -15.7820   20.4470 H   0  0  0  0  0  0  0  0  0  0  0  0
  -25.3610  -14.0010   20.4220 C   0  0  0  0  0  0  0  0  0  0  0  0
  -24.3190  -13.2220   20.8420 C   0  0  0  0  0  0  0  0  0  0  0  0
  -24.7700  -11.8700   20.7390 C   0  0  0  0  0  0  0  0  0  0  0  0
  -26.3810  -13.1250   20.0850 N   0  0  0  0  0  0  0  0  0  0  0  0
  -26.0360  -11.8350   20.3380 N   0  0  0  0  0  0  0  0  0  0  0  0
  -24.0500  -10.6070   20.9380 C   0  0  0  0  0  0  0  0  0  0  0  0
  -24.5110   -9.6240   21.8430 C   0  0  0  0  0  3  0  0  0  0  0  0
  -23.7880   -8.4260   22.0280 C   0  0  0  0  0  3  0  0  0  0  0  0
  -22.5900   -8.2010   21.3090 C   0  0  0  0  0  0  0  0  0  0  0  0
  -22.1470   -9.1720   20.3920 C   0  0  0  0  0  3  0  0  0  0  0  0
  -22.8710  -10.3610   20.2050 C   0  0  0  0  0  3  0  0  0  0  0  0
  -21.8350   -7.0580   21.4070 O   0  0  0  0  0  0  0  0  0  0  0  0
  -21.7680   -6.3370   22.5720 C   0  0  0  0  0  0  0  0  0  0  0  0
  -21.2890   -6.9040   23.7730 C   0  0  0  0  0  3  0  0  0  0  0  0
  -21.1730   -6.1080   24.9300 C   0  0  0  0  0  3  0  0  0  0  0  0
  -21.5250   -4.7450   24.8870 C   0  0  0  0  0  0  0  0  0  0  0  0
  -21.9950   -4.1780   23.6900 C   0  0  0  0  0  3  0  0  0  0  0  0
  -22.1140   -4.9710   22.5350 C   0  0  0  0  0  0  0  0  0  0  0  0
  -22.5500   -4.4120   21.3800 F   0  0  0  0  0  0  0  0  0  0  0  0
  -21.4040   -3.9780   25.9960 F   0  0  0  0  0  0  0  0  0  0  0  0
  -22.9460  -13.6970   21.2230 C   0  0  0  0  0  0  0  0  0  0  0  0
  -22.2750  -12.9910   22.1240 N   0  0  0  0  0  0  0  0  0  0  0  0
  -22.4780  -14.7350   20.7520 O   0  0  0  0  0  0  0  0  0  0  0  0
  -22.6640  -12.1510   22.5270 H   0  0  0  0  0  0  0  0  0  0  0  0
  -21.3580  -13.2960   22.4190 H   0  0  0  0  0  0  0  0  0  0  0  0
  -25.5190  -15.3770   20.2700 N   0  0  0  0  0  0  0  0  0  0  0  0
  -24.7450  -16.0140   20.4240 H   0  0  0  0  0  0  0  0  0  0  0  0
  -26.3130  -15.8210   19.8300 H   0  0  0  0  0  0  0  0  0  0  0  0
  -31.2530  -18.9750   23.5790 C   0  0  0  0  0  1  0  0  0  0  0  0
  -31.3990  -16.5700   22.9010 C   0  0  0  0  0  1  0  0  0  0  0  0
  -30.5380  -17.8390   22.8040 C   0  0  0  0  0  3  0  0  0  0  0  0
  -28.7880  -22.3320   20.2750 C   0  0  0  0  0  2  0  0  0  0  0  0
  -28.7190  -23.8090   19.5600 C   0  0  0  0  0  3  0  0  0  0  0  0
  -28.0870  -25.1110   20.3290 C   0  0  0  0  0  3  0  0  0  0  0  0
  -28.2390  -26.5490   19.8670 O   0  0  0  0  0  0  0  0  0  0  0  0
  -24.5580  -31.8750   23.2190 C   0  0  0  0  0  0  0  0  0  0  0  0
  -27.1360  -27.4400   19.9160 C   0  0  0  0  0  0  0  0  0  0  0  0
  -23.3400  -30.5770   21.5040 C   0  0  0  0  0  3  0  0  0  0  0  0
  -24.7860  -29.1010   19.9790 C   0  0  0  0  0  0  0  0  0  0  0  0
  -25.8840  -30.8870   21.3300 C   0  0  0  0  0  2  0  0  0  0  0  0
  -25.9590  -29.5400   20.6070 C   0  0  0  0  0  0  0  0  0  0  0  0
  -27.1390  -28.7270   20.5580 C   0  0  0  0  0  3  0  0  0  0  0  0
  -25.9390  -27.0680   19.2680 C   0  0  0  0  0  3  0  0  0  0  0  0
  -24.7830  -27.8770   19.2910 C   0  0  0  0  0  3  0  0  0  0  0  0
  -23.5520  -29.9820   20.0840 C   0  0  0  0  0  2  0  0  0  0  0  0
  -24.6130  -31.1310   22.0750 N   0  0  0  0  0  0  0  0  0  0  0  0
  -23.4790  -32.1270   23.7760 O   0  0  0  0  0  0  0  0  0  0  0  0
  -22.6770  -29.5110   22.4110 C   0  0  0  0  0  0  0  0  0  0  0  0
  -21.3460  -29.3560   22.3000 N   0  0  0  0  0  0  0  0  0  0  0  0
  -23.3590  -28.8280   23.1800 O   0  0  0  0  0  0  0  0  0  0  0  0
  -20.8530  -29.9610   21.6570 H   0  0  0  0  0  0  0  0  0  0  0  0
  -17.9600  -28.1810   22.8010 C   0  0  0  0  0  0  0  0  0  0  0  0
  -20.5300  -28.3800   23.0240 C   0  0  0  0  0  3  0  0  0  0  0  0
  -20.5900  -26.9920   22.3440 C   0  0  0  0  0  2  0  0  0  0  0  0
  -19.4590  -26.7610   21.3380 C   0  0  0  0  0  2  0  0  0  0  0  0
  -18.0960  -26.8810   22.0250 C   0  0  0  0  0  2  0  0  0  0  0  0
  -19.1020  -28.8930   23.2560 C   0  0  0  0  0  0  0  0  0  0  0  0
  -18.9170  -30.1130   23.9440 C   0  0  0  0  0  3  0  0  0  0  0  0
  -17.6240  -30.6200   24.1770 C   0  0  0  0  0  3  0  0  0  0  0  0
  -16.4990  -29.9040   23.7360 C   0  0  0  0  0  3  0  0  0  0  0  0
  -16.6680  -28.6850   23.0560 C   0  0  0  0  0  3  0  0  0  0  0  0
  -25.8470  -32.4680   23.8690 C   0  0  0  0  0  3  0  0  0  0  0  0
  -26.3600  -31.6320   25.1050 C   0  0  1  0  0  0  0  0  0  0  0  0
  -25.2670  -31.3510   26.1620 C   0  0  0  0  0  1  0  0  0  0  0  0
  -26.9320  -30.2690   24.6470 C   0  0  0  0  0  1  0  0  0  0  0  0
  -27.5180  -32.3810   25.8050 C   0  0  0  0  0  1  0  0  0  0  0  0
  -25.5480  -33.8500   24.2710 N   0  0  0  0  0  0  0  0  0  0  0  0
  -25.8940  -34.9400   23.5740 C   0  0  0  0  0  0  0  0  0  0  0  0
  -26.5700  -34.8860   22.5420 O   0  0  0  0  0  0  0  0  0  0  0  0
  -24.9540  -33.9640   25.0790 H   0  0  0  0  0  0  0  0  0  0  0  0
  -24.1990  -36.7800   23.2920 C   0  0  0  0  0  1  0  0  0  0  0  0
  -25.4160  -36.3050   24.1050 C   0  0  0  0  0  3  0  0  0  0  0  0
  -27.5390  -37.1140   25.0420 C   0  0  0  0  0  1  0  0  0  0  0  0
  -26.4660  -37.3460   24.0780 N   0  0  0  0  0  0  0  0  0  0  0  0
  -26.0680  -38.2630   24.2590 H   0  0  0  0  0  0  0  0  0  0  0  0
  1  2  1  0
  1  3  2  0
  2  4  2  0
  3  5  1  0
  4  5  1  0
  5 48  1  0
  6  2  1  0
  6 49  1  0
  7  6  1  0
  8 16  1  0
  9 14  1  0
 10 11  1  0
 10  9  1  0
 12 11  1  0
 12 21  1  0
 12 13  1  0
 14  8  1  0
 14 13  1  0
 15  8  2  0
 16  3  1  0
 16 17  1  0
 18 19  2  0
 19 38  1  0
 20 19  1  0
 20 23  1  0
 21 22  1  0
 21 18  1  0
 22 20  2  0
 23 24  1  0
 24 25  2  0
 26 29  1  0
 26 25  1  0
 27 26  2  0
 28 27  1  0
 28 23  2  0
 29 30  1  0
 30 31  1  0
 31 32  2  0
 33 32  1  0
 33 37  1  0
 34 33  2  0
 35 30  2  0
 35 34  1  0
 36 35  1  0
 38 39  1  0
 39 42  1  0
 39 41  1  0
 40 38  2  0
 43 18  1  0
 43 44  1  0
 45 43  1  0
 48 47  1  0
 48 46  1  0
 50 49  1  0
 50 51  2  0
 52 54  1  0
 52 51  1  0
 53 64  2  0
 54 59  1  0
 55 63  1  0
 55 65  1  0
 56 62  1  0
 56 58  1  0
 57 63  1  0
 58 57  1  0
 59 58  2  0
 60 61  1  0
 60 54  2  0
 61 56  2  0
 62 55  1  0
 63 53  1  0
 65 67  2  0
 66 65  1  0
 68 66  1  0
 69 78  2  0
 69 74  1  0
 70 66  1  0
 70 74  1  0
 71 70  1  0
 72 73  1  0
 72 71  1  0
 73 69  1  0
 74 75  2  0
 75 76  1  0
 77 76  2  0
 78 77  1  0
 79 53  1  0
 79 84  1  0
 79 80  1  0
 80 83  1  1
 80 81  1  0
 82 80  1  0
 84 87  1  0
 85 89  1  0
 85 84  1  0
 86 85  2  0
 89 88  1  0
 91 89  1  0
 91 92  1  0
 91 90  1  0
M  ISO  4   8 100  16 100  51 101  52 101
M  END
>  <TORSDO>  (61) 
F 20

>  <SCORE>  (61) 
-12.145

>  <name>  (61) 
61

>  <ligand_id>  (61) 
61

>  <original_smiles>  (61) 
[H]c1c([H])c([H])c2c(c1[H])C([H])([H])C([H])([H])C([H])([H])C2([H])N([H])C(=O)C1([H])N(C(=O)C([H])(N([H])C(=O)C([H])(N([H])C([H])([H])[H])C([H])([H])[H])C(C([H])([H])[H])(C([H])([H])[H])C([H])([H])[H])C([H])([H])c2c([H])c(OC([H])([H])C([H])([H])C([H])([H])N([H])c3nn(C([H])(C([H])([H])[H])C([H])([H])[H])c(N([H])C(=O)N4C([H])([H])C([H])([H])C([H])([H])C([H])(n5nc(-c6c([H])c([H])c(Oc7c([H])c([H])c(F)c([H])c7F)c([H])c6[H])c(C(=O)N([H])[H])c5N([H])[H])C4([H])[H])c3[H])c([H])c([H])c2C1([H])[H]

>  <smiles>  (61) 
[H]c1c([H])c([H])c2c(c1[H])C([H])([H])C([H])([H])C([H])([H])C2([H])N([H])C(=O)C1([H])N(C(=O)C([H])(N([H])C(=O)C([H])(N([H])C([H])([H])[H])C([H])([H])[H])C(C([H])([H])[H])(C([H])([H])[H])C([H])([H])[H])C([H])([H])c2c([H])c(OC([H])([H])C([H])([H])C([H])([H])N([H])c3nn(C([H])(C([H])([H])[H])C([H])([H])[H])c(N([H])C(=O)N4C([H])([H])C([H])([H])C([H])([H])C([H])(n5nc(-c6c([H])c([H])c(Oc7c([H])c([H])c(F)c([H])c7F)c([H])c6[H])c(C(=O)N([H])[H])c5N([H])[H])C4([H])[H])c3[H])c([H])c([H])c2C1([H])[H]

$$$$
62:0:0
     RDKit          3D

 93101  0  0  1  0  0  0  0  0999 V2000
  -30.7630  -18.6180   20.7640 C   0  0  0  0  0  3  0  0  0  0  0  0
  -30.5540  -20.0680   20.8520 C   0  0  0  0  0  0  0  0  0  0  0  0
  -28.4000  -19.8310   19.8690 C   0  0  0  0  0  0  0  0  0  0  0  0
  -29.7990  -17.6910   20.2350 C   0  0  0  0  0  0  0  0  0  0  0  0
  -29.3400  -20.7570   20.4550 C   0  0  0  0  0  0  0  0  0  0  0  0
  -28.6560  -18.4030   19.7240 C   0  0  0  0  0  0  0  0  0  0  0  0
  -31.6880  -20.9000   21.4380 C   0  0  0  0  0  1  0  0  0  0  0  0
  -27.0100  -20.3260   19.4640 C   0  0  0  0  0  1  0  0  0  0  0  0
  -27.5070  -17.4540   18.8480 Cl  0  0  0  0  0  0  0  0  0  0  0  0
  -30.6100  -15.0130   20.1370 C   0  0  0  0  0  0  0  0  0  0  0  0
  -30.4590  -12.6770   19.1680 C   0  0  0  0  0  2  0  0  0  0  0  0
  -29.4890  -12.6400   17.9640 C   0  0  0  0  0  2  0  0  0  0  0  0
  -28.0390  -12.4230   18.4350 C   0  0  0  0  0  2  0  0  0  0  0  0
  -27.6620  -13.3490   19.6180 C   0  0  0  0  0  3  0  0  0  0  0  0
  -28.7450  -13.3500   20.7210 C   0  0  0  0  0  2  0  0  0  0  0  0
  -30.0100  -13.7560   20.0880 N   0  0  0  0  0  0  0  0  0  0  0  0
  -31.8100  -15.0950   19.8630 O   0  0  0  0  0  0  0  0  0  0  0  0
  -29.7690  -16.1520   20.2400 N   0  0  0  0  0  0  0  0  0  0  0  0
  -28.8120  -15.8360   20.2710 H   0  0  0  0  0  0  0  0  0  0  0  0
  -25.2940  -13.9430   20.4070 C   0  0  0  0  0  0  0  0  0  0  0  0
  -24.2360  -13.1760   20.7960 C   0  0  0  0  0  0  0  0  0  0  0  0
  -24.6930  -11.8240   20.7530 C   0  0  0  0  0  0  0  0  0  0  0  0
  -26.3290  -13.0610   20.1410 N   0  0  0  0  0  0  0  0  0  0  0  0
  -25.9780  -11.7790   20.4250 N   0  0  0  0  0  0  0  0  0  0  0  0
  -23.9620  -10.5690   20.9570 C   0  0  0  0  0  0  0  0  0  0  0  0
  -24.4030   -9.6050   21.8920 C   0  0  0  0  0  3  0  0  0  0  0  0
  -23.6740   -8.4130   22.0850 C   0  0  0  0  0  3  0  0  0  0  0  0
  -22.4920   -8.1760   21.3470 C   0  0  0  0  0  0  0  0  0  0  0  0
  -22.0710   -9.1280   20.4000 C   0  0  0  0  0  3  0  0  0  0  0  0
  -22.7990  -10.3130   20.2040 C   0  0  0  0  0  3  0  0  0  0  0  0
  -21.7340   -7.0330   21.4500 O   0  0  0  0  0  0  0  0  0  0  0  0
  -21.6970   -6.2940   22.6050 C   0  0  0  0  0  0  0  0  0  0  0  0
  -21.2750   -6.8500   23.8320 C   0  0  0  0  0  3  0  0  0  0  0  0
  -21.1830   -6.0370   24.9800 C   0  0  0  0  0  3  0  0  0  0  0  0
  -21.5060   -4.6690   24.9010 C   0  0  0  0  0  0  0  0  0  0  0  0
  -21.9220   -4.1120   23.6790 C   0  0  0  0  0  3  0  0  0  0  0  0
  -22.0150   -4.9230   22.5340 C   0  0  0  0  0  0  0  0  0  0  0  0
  -22.3950   -4.3750   21.3540 F   0  0  0  0  0  0  0  0  0  0  0  0
  -21.4120   -3.8860   26.0010 F   0  0  0  0  0  0  0  0  0  0  0  0
  -22.8460  -13.6620   21.0840 C   0  0  0  0  0  0  0  0  0  0  0  0
  -22.1260  -12.9720   21.9560 N   0  0  0  0  0  0  0  0  0  0  0  0
  -22.4060  -14.6900   20.5670 O   0  0  0  0  0  0  0  0  0  0  0  0
  -22.5050  -12.1490   22.4000 H   0  0  0  0  0  0  0  0  0  0  0  0
  -21.1890  -13.2730   22.1810 H   0  0  0  0  0  0  0  0  0  0  0  0
  -25.4440  -15.3130   20.2360 N   0  0  0  0  0  0  0  0  0  0  0  0
  -24.6610  -15.9420   20.3690 H   0  0  0  0  0  0  0  0  0  0  0  0
  -26.2390  -15.7710   19.8070 H   0  0  0  0  0  0  0  0  0  0  0  0
  -28.9120  -23.4320   20.0960 C   0  0  0  0  0  0  0  0  0  0  0  0
  -28.6930  -22.3590   22.2810 C   0  0  0  0  0  1  0  0  0  0  0  0
  -28.9840  -22.2120   20.8450 N   0  0  0  0  0  0  0  0  0  0  0  0
  -29.4720  -23.4970   18.9940 O   0  0  0  0  0  0  0  0  0  0  0  0
  -28.0800  -24.7910   20.5850 C   0  0  0  0  0  2  0  0  0  0  0  0
  -28.3610  -26.2340   20.0790 O   0  0  0  0  0  0  0  0  0  0  0  0
  -24.6250  -31.8180   23.0810 C   0  0  0  0  0  0  0  0  0  0  0  0
  -27.2920  -27.1970   20.0340 C   0  0  0  0  0  0  0  0  0  0  0  0
  -23.4560  -30.4330   21.4080 C   0  0  0  0  0  3  0  0  0  0  0  0
  -24.9400  -28.8970   19.9820 C   0  0  0  0  0  0  0  0  0  0  0  0
  -26.0060  -30.7430   21.2640 C   0  0  0  0  0  2  0  0  0  0  0  0
  -26.1050  -29.3600   20.6040 C   0  0  0  0  0  0  0  0  0  0  0  0
  -27.2880  -28.5310   20.6020 C   0  0  0  0  0  3  0  0  0  0  0  0
  -26.0990  -26.8310   19.3670 C   0  0  0  0  0  3  0  0  0  0  0  0
  -24.9490  -27.6460   19.3450 C   0  0  0  0  0  3  0  0  0  0  0  0
  -23.6980  -29.7740   20.0290 C   0  0  0  0  0  2  0  0  0  0  0  0
  -24.7150  -31.0170   21.9770 N   0  0  0  0  0  0  0  0  0  0  0  0
  -23.5320  -32.0830   23.6050 O   0  0  0  0  0  0  0  0  0  0  0  0
  -22.7770  -29.4070   22.3500 C   0  0  0  0  0  0  0  0  0  0  0  0
  -21.4450  -29.2500   22.2290 N   0  0  0  0  0  0  0  0  0  0  0  0
  -23.4480  -28.7520   23.1530 O   0  0  0  0  0  0  0  0  0  0  0  0
  -20.9600  -29.8260   21.5540 H   0  0  0  0  0  0  0  0  0  0  0  0
  -18.0530  -28.0950   22.7490 C   0  0  0  0  0  0  0  0  0  0  0  0
  -20.6200  -28.3030   22.9820 C   0  0  0  0  0  3  0  0  0  0  0  0
  -20.6850  -26.8900   22.3540 C   0  0  0  0  0  2  0  0  0  0  0  0
  -19.5620  -26.6240   21.3470 C   0  0  0  0  0  2  0  0  0  0  0  0
  -18.1950  -26.7680   22.0200 C   0  0  0  0  0  2  0  0  0  0  0  0
  -19.1910  -28.8210   23.1870 C   0  0  0  0  0  0  0  0  0  0  0  0
  -19.0070  -30.0630   23.8330 C   0  0  0  0  0  3  0  0  0  0  0  0
  -17.7170  -30.5820   24.0390 C   0  0  0  0  0  3  0  0  0  0  0  0
  -16.5910  -29.8510   23.6190 C   0  0  0  0  0  3  0  0  0  0  0  0
  -16.7600  -28.6080   22.9820 C   0  0  0  0  0  3  0  0  0  0  0  0
  -25.8920  -32.4560   23.7310 C   0  0  0  0  0  3  0  0  0  0  0  0
  -25.5570  -33.8410   24.1010 N   0  0  0  0  0  0  0  0  0  0  0  0
  -25.8660  -34.9200   23.3720 C   0  0  0  0  0  0  0  0  0  0  0  0
  -26.5310  -34.8540   22.3340 O   0  0  0  0  0  0  0  0  0  0  0  0
  -24.9680  -33.9650   24.9120 H   0  0  0  0  0  0  0  0  0  0  0  0
  -24.1060  -36.6990   23.0700 C   0  0  0  0  0  1  0  0  0  0  0  0
  -25.3540  -36.2880   23.8690 C   0  0  0  0  0  3  0  0  0  0  0  0
  -27.4730  -37.1890   24.7280 C   0  0  0  0  0  1  0  0  0  0  0  0
  -26.3710  -37.3590   23.7860 N   0  0  0  0  0  0  0  0  0  0  0  0
  -25.9480  -38.2690   23.9500 H   0  0  0  0  0  0  0  0  0  0  0  0
  -26.4080  -31.6580   24.9920 C   0  0  1  0  0  0  0  0  0  0  0  0
  -25.3130  -31.3860   26.0490 C   0  0  0  0  0  1  0  0  0  0  0  0
  -27.0080  -30.2910   24.5740 C   0  0  0  0  0  1  0  0  0  0  0  0
  -27.5380  -32.4520   25.6880 C   0  0  0  0  0  1  0  0  0  0  0  0
  1  2  1  0
  2  7  1  0
  3  5  1  0
  4 18  1  0
  4  1  2  0
  5 50  1  0
  5  2  2  0
  6  3  2  0
  6  4  1  0
  8  3  1  0
  9  6  1  0
 10 18  1  0
 11 16  1  0
 12 13  1  0
 12 11  1  0
 14 13  1  0
 14 23  1  0
 14 15  1  0
 16 10  1  0
 16 15  1  0
 17 10  2  0
 18 19  1  0
 20 21  2  0
 21 40  1  0
 22 21  1  0
 22 25  1  0
 23 20  1  0
 23 24  1  0
 24 22  2  0
 25 26  1  0
 26 27  2  0
 28 31  1  0
 28 27  1  0
 29 28  2  0
 30 29  1  0
 30 25  2  0
 31 32  1  0
 32 33  1  0
 33 34  2  0
 35 34  1  0
 35 39  1  0
 36 35  2  0
 37 32  2  0
 37 36  1  0
 38 37  1  0
 40 41  1  0
 41 44  1  0
 41 43  1  0
 42 40  2  0
 45 46  1  0
 45 20  1  0
 47 45  1  0
 48 52  1  0
 48 50  1  0
 50 49  1  0
 51 48  2  0
 53 52  1  0
 54 65  2  0
 55 53  1  0
 55 60  1  0
 56 64  1  0
 56 66  1  0
 57 63  1  0
 57 59  1  0
 58 64  1  0
 59 58  1  0
 60 59  2  0
 61 55  2  0
 62 61  1  0
 62 57  2  0
 63 56  1  0
 64 54  1  0
 66 68  2  0
 67 66  1  0
 69 67  1  0
 70 79  2  0
 70 75  1  0
 71 67  1  0
 71 75  1  0
 72 71  1  0
 73 74  1  0
 73 72  1  0
 74 70  1  0
 75 76  2  0
 76 77  1  0
 78 77  2  0
 79 78  1  0
 80 54  1  0
 80 81  1  0
 80 90  1  0
 81 84  1  0
 82 86  1  0
 82 81  1  0
 83 82  2  0
 86 85  1  0
 88 86  1  0
 88 89  1  0
 88 87  1  0
 90 93  1  1
 90 91  1  0
 92 90  1  0
M  ISO  4  10 100  18 100  52 101  53 101
M  END
>  <TORSDO>  (62) 
F 18

>  <SCORE>  (62) 
-14.732

>  <name>  (62) 
62

>  <ligand_id>  (62) 
62

>  <original_smiles>  (62) 
[H]c1c([H])c([H])c2c(c1[H])C([H])([H])C([H])([H])C([H])([H])C2([H])N([H])C(=O)C1([H])N(C(=O)C([H])(N([H])C(=O)C([H])(N([H])C([H])([H])[H])C([H])([H])[H])C(C([H])([H])[H])(C([H])([H])[H])C([H])([H])[H])C([H])([H])c2c([H])c(OC([H])([H])C(=O)N(c3c(C([H])([H])[H])c([H])c(N([H])C(=O)N4C([H])([H])C([H])([H])C([H])([H])C([H])(n5nc(-c6c([H])c([H])c(Oc7c([H])c([H])c(F)c([H])c7F)c([H])c6[H])c(C(=O)N([H])[H])c5N([H])[H])C4([H])[H])c(Cl)c3C([H])([H])[H])C([H])([H])[H])c([H])c([H])c2C1([H])[H]

>  <smiles>  (62) 
[H]c1c([H])c([H])c2c(c1[H])C([H])([H])C([H])([H])C([H])([H])C2([H])N([H])C(=O)C1([H])N(C(=O)C([H])(N([H])C(=O)C([H])(N([H])C([H])([H])[H])C([H])([H])[H])C(C([H])([H])[H])(C([H])([H])[H])C([H])([H])[H])C([H])([H])c2c([H])c(OC([H])([H])C(=O)N(c3c(C([H])([H])[H])c([H])c(N([H])C(=O)N4C([H])([H])C([H])([H])C([H])([H])C([H])(n5nc(-c6c([H])c([H])c(Oc7c([H])c([H])c(F)c([H])c7F)c([H])c6[H])c(C(=O)N([H])[H])c5N([H])[H])C4([H])[H])c(Cl)c3C([H])([H])[H])C([H])([H])[H])c([H])c([H])c2C1([H])[H]

$$$$
63:0:0
     RDKit          3D

 92 99  0  0  1  0  0  0  0  0999 V2000
  -28.8660  -21.9090   18.1810 C   0  0  0  0  0  0  0  0  0  0  0  0
  -29.4830  -23.0890   18.2310 N   0  0  0  0  0  0  0  0  0  0  0  0
  -27.6790  -21.7690   18.4840 O   0  0  0  0  0  0  0  0  0  0  0  0
  -30.4580  -23.1270   17.9630 H   0  0  0  0  0  0  0  0  0  0  0  0
  -29.6910  -20.7240   17.6830 C   0  0  0  0  0  2  0  0  0  0  0  0
  -29.4690  -19.4330   18.4870 C   0  0  0  0  0  2  0  0  0  0  0  0
  -30.5800  -19.1690   19.5260 C   0  0  0  0  0  2  0  0  0  0  0  0
  -30.3430  -16.7440   19.9080 C   0  0  0  0  0  0  0  0  0  0  0  0
  -30.0470  -18.3460   21.7940 C   0  0  0  0  0  1  0  0  0  0  0  0
  -30.3060  -18.0130   20.3910 N   0  0  0  0  0  0  0  0  0  0  0  0
  -30.3520  -16.5330   18.6890 O   0  0  0  0  0  0  0  0  0  0  0  0
  -30.3890  -15.5650   20.9080 C   0  0  0  0  0  2  0  0  0  0  0  0
  -31.0240  -14.3390   20.2060 C   0  0  0  0  0  0  0  0  0  0  0  0
  -30.6090  -12.2750   18.9260 C   0  0  0  0  0  2  0  0  0  0  0  0
  -29.6360  -12.5750   17.7680 C   0  0  0  0  0  2  0  0  0  0  0  0
  -28.1700  -12.4790   18.2350 C   0  0  0  0  0  2  0  0  0  0  0  0
  -27.9050  -13.2670   19.5470 C   0  0  0  0  0  3  0  0  0  0  0  0
  -28.9780  -12.9240   20.6030 C   0  0  0  0  0  2  0  0  0  0  0  0
  -30.2970  -13.2070   20.0180 N   0  0  0  0  0  0  0  0  0  0  0  0
  -32.1660  -14.4550   19.7420 O   0  0  0  0  0  0  0  0  0  0  0  0
  -25.5320  -13.9340   20.2880 C   0  0  0  0  0  0  0  0  0  0  0  0
  -24.4540  -13.1870   20.6830 C   0  0  0  0  0  0  0  0  0  0  0  0
  -24.8890  -11.8260   20.6590 C   0  0  0  0  0  0  0  0  0  0  0  0
  -26.5550  -13.0290   20.0500 N   0  0  0  0  0  0  0  0  0  0  0  0
  -26.1720  -11.7570   20.3260 N   0  0  0  0  0  0  0  0  0  0  0  0
  -24.1430  -10.5810   20.8730 C   0  0  0  0  0  0  0  0  0  0  0  0
  -24.5540   -9.6320   21.8350 C   0  0  0  0  0  3  0  0  0  0  0  0
  -23.8110   -8.4500   22.0380 C   0  0  0  0  0  3  0  0  0  0  0  0
  -22.6420   -8.2070   21.2780 C   0  0  0  0  0  0  0  0  0  0  0  0
  -22.2490   -9.1450   20.3080 C   0  0  0  0  0  3  0  0  0  0  0  0
  -22.9920  -10.3190   20.1030 C   0  0  0  0  0  3  0  0  0  0  0  0
  -21.8730   -7.0730   21.3860 O   0  0  0  0  0  0  0  0  0  0  0  0
  -21.7730   -6.3830   22.5660 C   0  0  0  0  0  0  0  0  0  0  0  0
  -21.3120   -6.9950   23.7520 C   0  0  0  0  0  3  0  0  0  0  0  0
  -21.1530   -6.2290   24.9240 C   0  0  0  0  0  3  0  0  0  0  0  0
  -21.4520   -4.8540   24.9130 C   0  0  0  0  0  0  0  0  0  0  0  0
  -21.9060   -4.2420   23.7320 C   0  0  0  0  0  3  0  0  0  0  0  0
  -22.0630   -5.0040   22.5610 C   0  0  0  0  0  0  0  0  0  0  0  0
  -22.4790   -4.4030   21.4200 F   0  0  0  0  0  0  0  0  0  0  0  0
  -21.2960   -4.1160   26.0380 F   0  0  0  0  0  0  0  0  0  0  0  0
  -23.0720  -13.6950   20.9790 C   0  0  0  0  0  0  0  0  0  0  0  0
  -22.3540  -13.0210   21.8710 N   0  0  0  0  0  0  0  0  0  0  0  0
  -22.6400  -14.7190   20.4550 O   0  0  0  0  0  0  0  0  0  0  0  0
  -22.7220  -12.1920   22.3140 H   0  0  0  0  0  0  0  0  0  0  0  0
  -21.4280  -13.3430   22.1130 H   0  0  0  0  0  0  0  0  0  0  0  0
  -25.7240  -15.2990   20.0960 N   0  0  0  0  0  0  0  0  0  0  0  0
  -24.9820  -15.9770   20.2330 H   0  0  0  0  0  0  0  0  0  0  0  0
  -26.5800  -15.7170   19.7560 H   0  0  0  0  0  0  0  0  0  0  0  0
  -28.8250  -24.3380   18.5790 C   0  0  0  0  0  2  0  0  0  0  0  0
  -29.8530  -25.4570   18.7850 C   0  0  0  0  0  2  0  0  0  0  0  0
  -29.1760  -26.8120   19.0060 C   0  0  0  0  0  2  0  0  0  0  0  0
  -28.4180  -26.7330   20.2050 O   0  0  0  0  0  0  0  0  0  0  0  0
  -24.5470  -31.8450   23.2170 C   0  0  0  0  0  0  0  0  0  0  0  0
  -27.2480  -27.4380   20.1860 C   0  0  0  0  0  0  0  0  0  0  0  0
  -23.3600  -30.4380   21.5590 C   0  0  0  0  0  3  0  0  0  0  0  0
  -24.8360  -28.8910   20.1660 C   0  0  0  0  0  0  0  0  0  0  0  0
  -25.8800  -30.8080   21.3890 C   0  0  0  0  0  2  0  0  0  0  0  0
  -25.9790  -29.4330   20.7690 C   0  0  0  0  0  0  0  0  0  0  0  0
  -27.1850  -28.7070   20.7900 C   0  0  0  0  0  3  0  0  0  0  0  0
  -26.0940  -26.8880   19.5890 C   0  0  0  0  0  3  0  0  0  0  0  0
  -24.8850  -27.6130   19.5780 C   0  0  0  0  0  3  0  0  0  0  0  0
  -23.5880  -29.7430   20.1870 C   0  0  0  0  0  2  0  0  0  0  0  0
  -24.6120  -31.0450   22.1140 N   0  0  0  0  0  0  0  0  0  0  0  0
  -23.4610  -32.1210   23.7430 O   0  0  0  0  0  0  0  0  0  0  0  0
  -22.6940  -29.4250   22.5170 C   0  0  0  0  0  0  0  0  0  0  0  0
  -21.3690  -29.2560   22.3800 N   0  0  0  0  0  0  0  0  0  0  0  0
  -23.3650  -28.7930   23.3370 O   0  0  0  0  0  0  0  0  0  0  0  0
  -20.8900  -29.8180   21.6890 H   0  0  0  0  0  0  0  0  0  0  0  0
  -17.9810  -28.1020   22.8570 C   0  0  0  0  0  0  0  0  0  0  0  0
  -20.5400  -28.3260   23.1430 C   0  0  0  0  0  3  0  0  0  0  0  0
  -20.6280  -26.8960   22.5630 C   0  0  0  0  0  2  0  0  0  0  0  0
  -19.5280  -26.5910   21.5410 C   0  0  0  0  0  2  0  0  0  0  0  0
  -18.1440  -26.7530   22.1780 C   0  0  0  0  0  2  0  0  0  0  0  0
  -19.1070  -28.8480   23.2970 C   0  0  0  0  0  0  0  0  0  0  0  0
  -18.9040  -30.1130   23.8900 C   0  0  0  0  0  3  0  0  0  0  0  0
  -17.6060  -30.6320   24.0500 C   0  0  0  0  0  3  0  0  0  0  0  0
  -16.4920  -29.8820   23.6290 C   0  0  0  0  0  3  0  0  0  0  0  0
  -16.6810  -28.6200   23.0370 C   0  0  0  0  0  3  0  0  0  0  0  0
  -25.8290  -32.4730   23.8510 C   0  0  0  0  0  3  0  0  0  0  0  0
  -25.5240  -33.8720   24.1770 N   0  0  0  0  0  0  0  0  0  0  0  0
  -25.8670  -34.9210   23.4170 C   0  0  0  0  0  0  0  0  0  0  0  0
  -26.5500  -34.8120   22.3950 O   0  0  0  0  0  0  0  0  0  0  0  0
  -24.9240  -34.0310   24.9730 H   0  0  0  0  0  0  0  0  0  0  0  0
  -24.1540  -36.7180   23.0310 C   0  0  0  0  0  1  0  0  0  0  0  0
  -25.3780  -36.3120   23.8650 C   0  0  0  0  0  3  0  0  0  0  0  0
  -27.5040  -37.1890   24.7260 C   0  0  0  0  0  1  0  0  0  0  0  0
  -26.4160  -37.3600   23.7670 N   0  0  0  0  0  0  0  0  0  0  0  0
  -26.0120  -38.2830   23.9080 H   0  0  0  0  0  0  0  0  0  0  0  0
  -26.3360  -31.6980   25.1300 C   0  0  1  0  0  0  0  0  0  0  0  0
  -25.2370  -31.4600   26.1890 C   0  0  0  0  0  1  0  0  0  0  0  0
  -26.9200  -30.3210   24.7350 C   0  0  0  0  0  1  0  0  0  0  0  0
  -27.4830  -32.4880   25.8020 C   0  0  0  0  0  1  0  0  0  0  0  0
  1  2  1  0
  1  3  2  0
  2 49  1  0
  4  2  1  0
  5  1  1  0
  5  6  1  0
  6  7  1  0
  7 10  1  0
  8 10  1  0
  8 12  1  0
 10  9  1  0
 11  8  2  0
 13 12  1  0
 14 19  1  0
 15 16  1  0
 15 14  1  0
 17 16  1  0
 17 24  1  0
 17 18  1  0
 19 13  1  0
 19 18  1  0
 20 13  2  0
 21 22  2  0
 22 41  1  0
 23 22  1  0
 23 26  1  0
 24 21  1  0
 24 25  1  0
 25 23  2  0
 26 27  1  0
 27 28  2  0
 29 32  1  0
 29 28  1  0
 30 29  2  0
 31 30  1  0
 31 26  2  0
 32 33  1  0
 33 34  1  0
 34 35  2  0
 36 35  1  0
 36 40  1  0
 37 36  2  0
 38 33  2  0
 38 37  1  0
 39 38  1  0
 41 42  1  0
 42 45  1  0
 42 44  1  0
 43 41  2  0
 46 47  1  0
 46 21  1  0
 48 46  1  0
 49 50  1  0
 50 51  1  0
 51 52  1  0
 53 64  2  0
 54 52  1  0
 54 59  1  0
 55 63  1  0
 55 65  1  0
 56 62  1  0
 56 58  1  0
 57 63  1  0
 58 59  2  0
 58 57  1  0
 60 54  2  0
 61 60  1  0
 61 56  2  0
 62 55  1  0
 63 53  1  0
 65 67  2  0
 66 65  1  0
 68 66  1  0
 69 78  2  0
 69 74  1  0
 70 66  1  0
 70 74  1  0
 71 70  1  0
 72 73  1  0
 72 71  1  0
 73 69  1  0
 74 75  2  0
 75 76  1  0
 77 76  2  0
 78 77  1  0
 79 53  1  0
 79 80  1  0
 79 89  1  0
 80 83  1  0
 81 85  1  0
 81 80  1  0
 82 81  2  0
 85 84  1  0
 87 85  1  0
 87 88  1  0
 87 86  1  0
 89 92  1  1
 89 90  1  0
 91 89  1  0
M  ISO  4  12 100  13 100  51 101  52 101
M  END
>  <TORSDO>  (63) 
F 24

>  <SCORE>  (63) 
-12.066

>  <name>  (63) 
63

>  <ligand_id>  (63) 
63

>  <original_smiles>  (63) 
[H]c1c([H])c([H])c2c(c1[H])C([H])([H])C([H])([H])C([H])([H])C2([H])N([H])C(=O)C1([H])N(C(=O)C([H])(N([H])C(=O)C([H])(N([H])C([H])([H])[H])C([H])([H])[H])C(C([H])([H])[H])(C([H])([H])[H])C([H])([H])[H])C([H])([H])c2c([H])c(OC([H])([H])C([H])([H])C([H])([H])N([H])C(=O)C([H])([H])C([H])([H])C([H])([H])N(C(=O)C([H])([H])C(=O)N3C([H])([H])C([H])([H])C([H])([H])C([H])(n4nc(-c5c([H])c([H])c(Oc6c([H])c([H])c(F)c([H])c6F)c([H])c5[H])c(C(=O)N([H])[H])c4N([H])[H])C3([H])[H])C([H])([H])[H])c([H])c([H])c2C1([H])[H]

>  <smiles>  (63) 
[H]c1c([H])c([H])c2c(c1[H])C([H])([H])C([H])([H])C([H])([H])C2([H])N([H])C(=O)C1([H])N(C(=O)C([H])(N([H])C(=O)C([H])(N([H])C([H])([H])[H])C([H])([H])[H])C(C([H])([H])[H])(C([H])([H])[H])C([H])([H])[H])C([H])([H])c2c([H])c(OC([H])([H])C([H])([H])C([H])([H])N([H])C(=O)C([H])([H])C([H])([H])C([H])([H])N(C(=O)C([H])([H])C(=O)N3C([H])([H])C([H])([H])C([H])([H])C([H])(n4nc(-c5c([H])c([H])c(Oc6c([H])c([H])c(F)c([H])c6F)c([H])c5[H])c(C(=O)N([H])[H])c4N([H])[H])C3([H])[H])C([H])([H])[H])c([H])c([H])c2C1([H])[H]

$$$$
64:0:0
     RDKit          3D

 92100  0  0  1  0  0  0  0  0999 V2000
  -32.1620  -19.1820   20.0250 C   0  0  0  0  0  3  0  0  0  0  0  0
  -30.5540  -20.1250   21.5990 C   0  0  0  0  0  3  0  0  0  0  0  0
  -31.8940  -19.8750   21.2250 C   0  0  0  0  0  0  0  0  0  0  0  0
  -31.1290  -18.4680   19.3830 C   0  0  0  0  0  0  0  0  0  0  0  0
  -29.5350  -19.7880   20.6810 C   0  0  0  0  0  0  0  0  0  0  0  0
  -29.8880  -18.3650   20.0530 C   0  0  0  0  0  0  0  0  0  0  0  0
  -33.0330  -20.4880   22.0130 C   0  0  0  0  0  1  0  0  0  0  0  0
  -31.4450  -17.6790   18.1240 C   0  0  0  0  0  1  0  0  0  0  0  0
  -30.3820  -15.4440   20.3330 C   0  0  0  0  0  0  0  0  0  0  0  0
  -30.3860  -12.9510   19.5290 C   0  0  0  0  0  2  0  0  0  0  0  0
  -29.4950  -12.6690   18.2920 C   0  0  0  0  0  2  0  0  0  0  0  0
  -28.0470  -12.3790   18.7210 C   0  0  0  0  0  2  0  0  0  0  0  0
  -27.5630  -13.3700   19.8070 C   0  0  0  0  0  3  0  0  0  0  0  0
  -28.5910  -13.5950   20.9390 C   0  0  0  0  0  2  0  0  0  0  0  0
  -29.8130  -14.1240   20.3070 N   0  0  0  0  0  0  0  0  0  0  0  0
  -31.6070  -15.3800   20.1400 O   0  0  0  0  0  0  0  0  0  0  0  0
  -29.6520  -16.7690   20.4320 N   0  0  0  0  0  0  0  0  0  0  0  0
  -28.7090  -16.6070   20.7550 H   0  0  0  0  0  0  0  0  0  0  0  0
  -25.1890  -13.9190   20.5410 C   0  0  0  0  0  0  0  0  0  0  0  0
  -24.1250  -13.1420   20.9000 C   0  0  0  0  0  0  0  0  0  0  0  0
  -24.5930  -11.7930   20.8770 C   0  0  0  0  0  0  0  0  0  0  0  0
  -26.2340  -13.0450   20.3090 N   0  0  0  0  0  0  0  0  0  0  0  0
  -25.8880  -11.7590   20.5800 N   0  0  0  0  0  0  0  0  0  0  0  0
  -23.8620  -10.5310   21.0610 C   0  0  0  0  0  0  0  0  0  0  0  0
  -24.2840   -9.5600   21.9960 C   0  0  0  0  0  3  0  0  0  0  0  0
  -23.5500   -8.3670   22.1700 C   0  0  0  0  0  3  0  0  0  0  0  0
  -22.3800   -8.1360   21.4080 C   0  0  0  0  0  0  0  0  0  0  0  0
  -21.9770   -9.0940   20.4610 C   0  0  0  0  0  3  0  0  0  0  0  0
  -22.7120  -10.2790   20.2860 C   0  0  0  0  0  3  0  0  0  0  0  0
  -21.6190   -6.9940   21.4910 O   0  0  0  0  0  0  0  0  0  0  0  0
  -21.5620   -6.2470   22.6400 C   0  0  0  0  0  0  0  0  0  0  0  0
  -21.1280   -6.7980   23.8660 C   0  0  0  0  0  3  0  0  0  0  0  0
  -21.0190   -5.9770   25.0060 C   0  0  0  0  0  3  0  0  0  0  0  0
  -21.3360   -4.6080   24.9220 C   0  0  0  0  0  0  0  0  0  0  0  0
  -21.7650   -4.0570   23.7020 C   0  0  0  0  0  3  0  0  0  0  0  0
  -21.8740   -4.8740   22.5630 C   0  0  0  0  0  0  0  0  0  0  0  0
  -22.2670   -4.3340   21.3840 F   0  0  0  0  0  0  0  0  0  0  0  0
  -21.2240   -3.8180   26.0160 F   0  0  0  0  0  0  0  0  0  0  0  0
  -22.7240  -13.6200   21.1470 C   0  0  0  0  0  0  0  0  0  0  0  0
  -21.9810  -12.9300   22.0040 N   0  0  0  0  0  0  0  0  0  0  0  0
  -22.2970  -14.6450   20.6140 O   0  0  0  0  0  0  0  0  0  0  0  0
  -22.3400  -12.1030   22.4560 H   0  0  0  0  0  0  0  0  0  0  0  0
  -21.0420  -13.2350   22.2130 H   0  0  0  0  0  0  0  0  0  0  0  0
  -25.3510  -15.2900   20.3610 N   0  0  0  0  0  0  0  0  0  0  0  0
  -24.5780  -15.9400   20.4620 H   0  0  0  0  0  0  0  0  0  0  0  0
  -26.1910  -15.7280   20.0100 H   0  0  0  0  0  0  0  0  0  0  0  0
  -28.8940  -22.6890   20.5470 C   0  0  0  0  0  0  0  0  0  0  0  0
  -28.8340  -21.2100   20.1940 N   0  0  0  0  0  0  0  0  0  0  0  0
  -29.7530  -22.9990   21.3750 O   0  0  0  0  0  0  0  0  0  0  0  0
  -28.1610  -21.0610   19.4550 H   0  0  0  0  0  0  0  0  0  0  0  0
  -27.9730  -24.1330   20.0220 C   0  0  0  0  0  2  0  0  0  0  0  0
  -28.1920  -25.7730   20.3510 O   0  0  0  0  0  0  0  0  0  0  0  0
  -24.6520  -31.8660   23.2490 C   0  0  0  0  0  0  0  0  0  0  0  0
  -27.2040  -26.9160   20.2590 C   0  0  0  0  0  0  0  0  0  0  0  0
  -23.4620  -30.4630   21.6130 C   0  0  0  0  0  3  0  0  0  0  0  0
  -24.9130  -28.8420   20.1980 C   0  0  0  0  0  0  0  0  0  0  0  0
  -26.0320  -30.6540   21.4770 C   0  0  0  0  0  2  0  0  0  0  0  0
  -26.1020  -29.2340   20.8260 C   0  0  0  0  0  0  0  0  0  0  0  0
  -27.2370  -28.2930   20.8300 C   0  0  0  0  0  3  0  0  0  0  0  0
  -25.9850  -26.6960   19.5750 C   0  0  0  0  0  3  0  0  0  0  0  0
  -24.8850  -27.5950   19.5510 C   0  0  0  0  0  3  0  0  0  0  0  0
  -23.6970  -29.7720   20.2420 C   0  0  0  0  0  2  0  0  0  0  0  0
  -24.7370  -31.0240   22.1660 N   0  0  0  0  0  0  0  0  0  0  0  0
  -23.5610  -32.1600   23.7640 O   0  0  0  0  0  0  0  0  0  0  0  0
  -22.7610  -29.4760   22.5840 C   0  0  0  0  0  0  0  0  0  0  0  0
  -21.4300  -29.3130   22.4590 N   0  0  0  0  0  0  0  0  0  0  0  0
  -23.4230  -28.8570   23.4200 O   0  0  0  0  0  0  0  0  0  0  0  0
  -20.9480  -29.8640   21.7610 H   0  0  0  0  0  0  0  0  0  0  0  0
  -18.0470  -28.0980   22.9690 C   0  0  0  0  0  0  0  0  0  0  0  0
  -20.6060  -28.3780   23.2330 C   0  0  0  0  0  3  0  0  0  0  0  0
  -20.7130  -26.9420   22.6670 C   0  0  0  0  0  2  0  0  0  0  0  0
  -19.6140  -26.6110   21.6530 C   0  0  0  0  0  2  0  0  0  0  0  0
  -18.2310  -26.7490   22.2950 C   0  0  0  0  0  2  0  0  0  0  0  0
  -19.1620  -28.8700   23.3950 C   0  0  0  0  0  0  0  0  0  0  0  0
  -18.9330  -30.1290   23.9900 C   0  0  0  0  0  3  0  0  0  0  0  0
  -17.6250  -30.6200   24.1590 C   0  0  0  0  0  3  0  0  0  0  0  0
  -16.5250  -29.8470   23.7460 C   0  0  0  0  0  3  0  0  0  0  0  0
  -16.7380  -28.5880   23.1580 C   0  0  0  0  0  3  0  0  0  0  0  0
  -25.9200  -32.5140   23.8820 C   0  0  0  0  0  3  0  0  0  0  0  0
  -25.6020  -33.9170   24.2060 N   0  0  0  0  0  0  0  0  0  0  0  0
  -25.9260  -34.9740   23.4480 C   0  0  0  0  0  0  0  0  0  0  0  0
  -26.5840  -34.8700   22.4100 O   0  0  0  0  0  0  0  0  0  0  0  0
  -25.0140  -34.0690   25.0110 H   0  0  0  0  0  0  0  0  0  0  0  0
  -24.1860  -36.7680   23.1320 C   0  0  0  0  0  1  0  0  0  0  0  0
  -25.4470  -36.3650   23.9130 C   0  0  0  0  0  3  0  0  0  0  0  0
  -27.5950  -37.2670   24.6920 C   0  0  0  0  0  1  0  0  0  0  0  0
  -26.4740  -37.4210   23.7700 N   0  0  0  0  0  0  0  0  0  0  0  0
  -26.0670  -38.3410   23.9170 H   0  0  0  0  0  0  0  0  0  0  0  0
  -26.4170  -31.7610   25.1790 C   0  0  1  0  0  0  0  0  0  0  0  0
  -25.3110  -31.5450   26.2380 C   0  0  0  0  0  1  0  0  0  0  0  0
  -27.0000  -30.3740   24.8240 C   0  0  0  0  0  1  0  0  0  0  0  0
  -27.5640  -32.5600   25.8410 C   0  0  0  0  0  1  0  0  0  0  0  0
  1  3  1  0
  3  2  2  0
  3  7  1  0
  4  1  2  0
  4  6  1  0
  5  2  1  0
  6 17  1  0
  6  5  2  3
  8  4  1  0
  9 17  1  0
 10 15  1  0
 11 12  1  0
 11 10  1  0
 13 12  1  0
 13 22  1  0
 13 14  1  0
 15  9  1  0
 15 14  1  0
 16  9  2  0
 17 18  1  0
 19 20  2  0
 20 39  1  0
 21 20  1  0
 21 24  1  0
 22 19  1  0
 22 23  1  0
 23 21  2  0
 24 25  1  0
 25 26  2  0
 27 30  1  0
 27 26  1  0
 28 27  2  0
 29 28  1  0
 29 24  2  0
 30 31  1  0
 31 32  1  0
 32 33  2  0
 34 33  1  0
 34 38  1  0
 35 34  2  0
 36 31  2  0
 36 35  1  0
 37 36  1  0
 39 40  1  0
 40 43  1  0
 40 42  1  0
 41 39  2  0
 44 45  1  0
 44 19  1  0
 46 44  1  0
 47 49  2  0
 48 47  1  0
 48  5  1  0
 50 48  1  0
 51 52  1  0
 51 47  1  0
 53 64  2  0
 54 52  1  0
 54 59  1  0
 55 63  1  0
 55 65  1  0
 56 62  1  0
 56 58  1  0
 57 63  1  0
 58 59  2  0
 58 57  1  0
 60 54  2  0
 61 60  1  0
 61 56  2  0
 62 55  1  0
 63 53  1  0
 65 67  2  0
 66 65  1  0
 68 66  1  0
 69 78  2  0
 69 74  1  0
 70 66  1  0
 70 74  1  0
 71 70  1  0
 72 73  1  0
 72 71  1  0
 73 69  1  0
 74 75  2  0
 75 76  1  0
 77 76  2  0
 78 77  1  0
 79 53  1  0
 79 80  1  0
 79 89  1  0
 80 83  1  0
 81 85  1  0
 81 80  1  0
 82 81  2  0
 85 84  1  0
 87 85  1  0
 87 88  1  0
 87 86  1  0
 89 92  1  1
 89 90  1  0
 91 89  1  0
M  ISO  4   9 100  17 100  51 101  52 101
M  END
>  <TORSDO>  (64) 
F 18

>  <SCORE>  (64) 
-15.938

>  <name>  (64) 
64

>  <ligand_id>  (64) 
64

>  <original_smiles>  (64) 
[H]c1c([H])c([H])c2c(c1[H])C([H])([H])C([H])([H])C([H])([H])C2([H])N([H])C(=O)C1([H])N(C(=O)C([H])(N([H])C(=O)C([H])(N([H])C([H])([H])[H])C([H])([H])[H])C(C([H])([H])[H])(C([H])([H])[H])C([H])([H])[H])C([H])([H])c2c([H])c(OC([H])([H])C(=O)N([H])c3c([H])c(C([H])([H])[H])c([H])c(C([H])([H])[H])c3N([H])C(=O)N3C([H])([H])C([H])([H])C([H])([H])C([H])(n4nc(-c5c([H])c([H])c(Oc6c([H])c([H])c(F)c([H])c6F)c([H])c5[H])c(C(=O)N([H])[H])c4N([H])[H])C3([H])[H])c([H])c([H])c2C1([H])[H]

>  <smiles>  (64) 
[H]c1c([H])c([H])c2c(c1[H])C([H])([H])C([H])([H])C([H])([H])C2([H])N([H])C(=O)C1([H])N(C(=O)C([H])(N([H])C(=O)C([H])(N([H])C([H])([H])[H])C([H])([H])[H])C(C([H])([H])[H])(C([H])([H])[H])C([H])([H])[H])C([H])([H])c2c([H])c(OC([H])([H])C(=O)N([H])c3c([H])c(C([H])([H])[H])c([H])c(C([H])([H])[H])c3N([H])C(=O)N3C([H])([H])C([H])([H])C([H])([H])C([H])(n4nc(-c5c([H])c([H])c(Oc6c([H])c([H])c(F)c([H])c6F)c([H])c5[H])c(C(=O)N([H])[H])c4N([H])[H])C3([H])[H])c([H])c([H])c2C1([H])[H]

$$$$
65:0:0
     RDKit          3D

 91 99  0  0  1  0  0  0  0  0999 V2000
  -30.6730  -18.5160   20.0330 C   0  0  0  0  0  3  0  0  0  0  0  0
  -28.3650  -18.0710   19.8600 C   0  0  0  0  0  3  0  0  0  0  0  0
  -29.6590  -17.4920   20.0370 C   0  0  0  0  0  0  0  0  0  0  0  0
  -29.0850  -20.5090   19.6620 C   0  0  0  0  0  0  0  0  0  0  0  0
  -30.4040  -19.9490   19.8600 C   0  0  0  0  0  0  0  0  0  0  0  0
  -28.0910  -19.4750   19.6780 C   0  0  0  0  0  0  0  0  0  0  0  0
  -31.4610  -20.7970   19.8700 F   0  0  0  0  0  0  0  0  0  0  0  0
  -26.4320  -19.9250   19.4620 Cl  0  0  0  0  0  0  0  0  0  0  0  0
  -30.5960  -14.8780   19.9370 C   0  0  0  0  0  0  0  0  0  0  0  0
  -30.4490  -12.5060   19.0660 C   0  0  0  0  0  2  0  0  0  0  0  0
  -29.4630  -12.4590   17.8720 C   0  0  0  0  0  2  0  0  0  0  0  0
  -28.0100  -12.2960   18.3610 C   0  0  0  0  0  2  0  0  0  0  0  0
  -27.6690  -13.2620   19.5250 C   0  0  0  0  0  3  0  0  0  0  0  0
  -28.7600  -13.2420   20.6170 C   0  0  0  0  0  2  0  0  0  0  0  0
  -30.0280  -13.6100   19.9690 N   0  0  0  0  0  0  0  0  0  0  0  0
  -31.7640  -14.9930   19.5490 O   0  0  0  0  0  0  0  0  0  0  0  0
  -29.7450  -15.9720   20.2010 N   0  0  0  0  0  0  0  0  0  0  0  0
  -28.8730  -15.5950   20.5400 H   0  0  0  0  0  0  0  0  0  0  0  0
  -25.3550  -13.9360   20.4010 C   0  0  0  0  0  0  0  0  0  0  0  0
  -24.2710  -13.2000   20.7940 C   0  0  0  0  0  0  0  0  0  0  0  0
  -24.6610  -11.8300   20.6810 C   0  0  0  0  0  0  0  0  0  0  0  0
  -26.3380  -13.0170   20.0710 N   0  0  0  0  0  0  0  0  0  0  0  0
  -25.9310  -11.7420   20.3030 N   0  0  0  0  0  0  0  0  0  0  0  0
  -23.8790  -10.5980   20.8510 C   0  0  0  0  0  0  0  0  0  0  0  0
  -24.3130   -9.5620   21.7080 C   0  0  0  0  0  3  0  0  0  0  0  0
  -23.5350   -8.3950   21.8690 C   0  0  0  0  0  3  0  0  0  0  0  0
  -22.3080   -8.2580   21.1770 C   0  0  0  0  0  0  0  0  0  0  0  0
  -21.8940   -9.2820   20.3080 C   0  0  0  0  0  3  0  0  0  0  0  0
  -22.6710  -10.4400   20.1430 C   0  0  0  0  0  3  0  0  0  0  0  0
  -21.5000   -7.1500   21.2530 O   0  0  0  0  0  0  0  0  0  0  0  0
  -21.4820   -6.3460   22.3650 C   0  0  0  0  0  0  0  0  0  0  0  0
  -21.1480   -6.8490   23.6420 C   0  0  0  0  0  3  0  0  0  0  0  0
  -21.0750   -5.9750   24.7450 C   0  0  0  0  0  3  0  0  0  0  0  0
  -21.3260   -4.6000   24.5730 C   0  0  0  0  0  0  0  0  0  0  0  0
  -21.6520   -4.0970   23.3020 C   0  0  0  0  0  3  0  0  0  0  0  0
  -21.7270   -4.9680   22.2000 C   0  0  0  0  0  0  0  0  0  0  0  0
  -22.0220   -4.4760   20.9730 F   0  0  0  0  0  0  0  0  0  0  0  0
  -21.2480   -3.7590   25.6310 F   0  0  0  0  0  0  0  0  0  0  0  0
  -22.9150  -13.7340   21.1560 C   0  0  0  0  0  0  0  0  0  0  0  0
  -22.1990  -13.0440   22.0370 N   0  0  0  0  0  0  0  0  0  0  0  0
  -22.5020  -14.7950   20.6910 O   0  0  0  0  0  0  0  0  0  0  0  0
  -22.5490  -12.1850   22.4350 H   0  0  0  0  0  0  0  0  0  0  0  0
  -21.2910  -13.3830   22.3220 H   0  0  0  0  0  0  0  0  0  0  0  0
  -25.5790  -15.3020   20.2700 N   0  0  0  0  0  0  0  0  0  0  0  0
  -24.8340  -15.9740   20.4160 H   0  0  0  0  0  0  0  0  0  0  0  0
  -26.3810  -15.7000   19.8000 H   0  0  0  0  0  0  0  0  0  0  0  0
  -28.6380  -21.9100   19.4230 N   0  0  0  0  0  0  0  0  0  0  0  0
  -27.6320  -21.9230   19.2740 H   0  0  0  0  0  0  0  0  0  0  0  0
  -29.2030  -23.3500   19.5230 C   0  0  0  0  0  3  0  0  0  0  0  0
  -28.1880  -24.6670   19.2760 C   0  0  0  0  0  3  0  0  0  0  0  0
  -28.4410  -26.1730   19.5400 O   0  0  0  0  0  0  0  0  0  0  0  0
  -24.6730  -31.4410   23.0360 C   0  0  0  0  0  0  0  0  0  0  0  0
  -27.3490  -27.1110   19.5740 C   0  0  0  0  0  0  0  0  0  0  0  0
  -23.4920  -30.1620   21.2920 C   0  0  0  0  0  3  0  0  0  0  0  0
  -24.9670  -28.7670   19.7200 C   0  0  0  0  0  0  0  0  0  0  0  0
  -26.0360  -30.5200   21.1260 C   0  0  0  0  0  2  0  0  0  0  0  0
  -26.1410  -29.1990   20.3510 C   0  0  0  0  0  0  0  0  0  0  0  0
  -27.3330  -28.3900   20.2600 C   0  0  0  0  0  3  0  0  0  0  0  0
  -26.1410  -26.7780   18.9190 C   0  0  0  0  0  3  0  0  0  0  0  0
  -24.9780  -27.5710   18.9910 C   0  0  0  0  0  3  0  0  0  0  0  0
  -23.7160  -29.6180   19.8570 C   0  0  0  0  0  2  0  0  0  0  0  0
  -24.7530  -30.7250   21.8740 N   0  0  0  0  0  0  0  0  0  0  0  0
  -23.5850  -31.6460   23.5980 O   0  0  0  0  0  0  0  0  0  0  0  0
  -22.8560  -29.0520   22.1650 C   0  0  0  0  0  0  0  0  0  0  0  0
  -21.5300  -28.8640   22.0470 N   0  0  0  0  0  0  0  0  0  0  0  0
  -23.5580  -28.3670   22.9140 O   0  0  0  0  0  0  0  0  0  0  0  0
  -21.0200  -29.4730   21.4230 H   0  0  0  0  0  0  0  0  0  0  0  0
  -18.1780  -27.5810   22.5280 C   0  0  0  0  0  0  0  0  0  0  0  0
  -20.7420  -27.8430   22.7430 C   0  0  0  0  0  3  0  0  0  0  0  0
  -20.8360  -26.4780   22.0200 C   0  0  0  0  0  2  0  0  0  0  0  0
  -19.7040  -26.2490   21.0120 C   0  0  0  0  0  2  0  0  0  0  0  0
  -18.3420  -26.3110   21.7100 C   0  0  0  0  0  2  0  0  0  0  0  0
  -19.3020  -28.3080   22.9990 C   0  0  0  0  0  0  0  0  0  0  0  0
  -19.0890  -29.5000   23.7260 C   0  0  0  0  0  3  0  0  0  0  0  0
  -17.7850  -29.9630   23.9870 C   0  0  0  0  0  3  0  0  0  0  0  0
  -16.6760  -29.2300   23.5300 C   0  0  0  0  0  3  0  0  0  0  0  0
  -16.8730  -28.0420   22.8060 C   0  0  0  0  0  3  0  0  0  0  0  0
  -25.9400  -32.0550   23.7040 C   0  0  0  0  0  3  0  0  0  0  0  0
  -26.4630  -31.2140   24.9330 C   0  0  1  0  0  0  0  0  0  0  0  0
  -25.3730  -30.9040   25.9840 C   0  0  0  0  0  1  0  0  0  0  0  0
  -27.0590  -29.8670   24.4640 C   0  0  0  0  0  1  0  0  0  0  0  0
  -27.6050  -31.9800   25.6420 C   0  0  0  0  0  1  0  0  0  0  0  0
  -25.6050  -33.4240   24.1270 N   0  0  0  0  0  0  0  0  0  0  0  0
  -25.9020  -34.5330   23.4360 C   0  0  0  0  0  0  0  0  0  0  0  0
  -26.5570  -34.5120   22.3910 O   0  0  0  0  0  0  0  0  0  0  0  0
  -25.0230  -33.5110   24.9470 H   0  0  0  0  0  0  0  0  0  0  0  0
  -24.1210  -36.3020   23.2430 C   0  0  0  0  0  1  0  0  0  0  0  0
  -25.3950  -35.8790   23.9940 C   0  0  0  0  0  3  0  0  0  0  0  0
  -27.5280  -36.7690   24.8230 C   0  0  0  0  0  1  0  0  0  0  0  0
  -26.3980  -36.9630   23.9180 N   0  0  0  0  0  0  0  0  0  0  0  0
  -25.9730  -37.8620   24.1290 H   0  0  0  0  0  0  0  0  0  0  0  0
  1  3  1  0
  2  3  2  0
  3 17  1  0
  4  6  2  0
  4  5  1  0
  5  7  1  0
  5  1  2  0
  6  2  1  0
  8  6  1  0
  9 15  1  0
  9 17  1  0
 10 15  1  0
 11 12  1  0
 11 10  1  0
 13 12  1  0
 13 22  1  0
 13 14  1  0
 15 14  1  0
 16  9  2  0
 17 18  1  0
 19 20  2  0
 20 39  1  0
 21 20  1  0
 21 24  1  0
 22 23  1  0
 22 19  1  0
 23 21  2  0
 24 25  1  0
 25 26  2  0
 27 30  1  0
 27 26  1  0
 28 27  2  0
 29 28  1  0
 29 24  2  0
 30 31  1  0
 31 32  1  0
 32 33  2  0
 34 33  1  0
 34 38  1  0
 35 34  2  0
 36 31  2  0
 36 35  1  0
 37 36  1  0
 39 40  1  0
 40 43  1  0
 40 42  1  0
 41 39  2  0
 44 19  1  0
 44 45  1  0
 46 44  1  0
 47 49  1  0
 47  4  1  0
 48 47  1  0
 50 49  2  0
 50 51  1  0
 51 53  1  0
 52 63  2  0
 53 58  1  0
 54 62  1  0
 54 64  1  0
 55 61  1  0
 55 57  1  0
 56 62  1  0
 57 56  1  0
 58 57  2  0
 59 60  1  0
 59 53  2  0
 60 55  2  0
 61 54  1  0
 62 52  1  0
 64 66  2  0
 65 64  1  0
 67 65  1  0
 68 77  2  0
 68 73  1  0
 69 65  1  0
 69 73  1  0
 70 69  1  0
 71 72  1  0
 71 70  1  0
 72 68  1  0
 73 74  2  0
 74 75  1  0
 76 75  2  0
 77 76  1  0
 78 52  1  0
 78 83  1  0
 78 79  1  0
 79 82  1  1
 79 80  1  0
 81 79  1  0
 83 86  1  0
 84 88  1  0
 84 83  1  0
 85 84  2  0
 88 87  1  0
 90 88  1  0
 90 91  1  0
 90 89  1  0
M  ISO  4   9 100  17 100  50 101  51 101
M  END
>  <TORSDO>  (65) 
F 19

>  <SCORE>  (65) 
-12.632

>  <name>  (65) 
65

>  <ligand_id>  (65) 
65

>  <original_smiles>  (65) 
[H]c1c([H])c([H])c2c(c1[H])C([H])([H])C([H])([H])C([H])([H])C2([H])N([H])C(=O)C1([H])N(C(=O)C([H])(N([H])C(=O)C([H])(N([H])C([H])([H])[H])C([H])([H])[H])C(C([H])([H])[H])(C([H])([H])[H])C([H])([H])[H])C([H])([H])c2c([H])c(OC([H])([H])C([H])([H])N([H])c3c(F)c([H])c(N([H])C(=O)N4C([H])([H])C([H])([H])C([H])([H])C([H])(n5nc(-c6c([H])c([H])c(Oc7c([H])c([H])c(F)c([H])c7F)c([H])c6[H])c(C(=O)N([H])[H])c5N([H])[H])C4([H])[H])c([H])c3Cl)c([H])c([H])c2C1([H])[H]

>  <smiles>  (65) 
[H]c1c([H])c([H])c2c(c1[H])C([H])([H])C([H])([H])C([H])([H])C2([H])N([H])C(=O)C1([H])N(C(=O)C([H])(N([H])C(=O)C([H])(N([H])C([H])([H])[H])C([H])([H])[H])C(C([H])([H])[H])(C([H])([H])[H])C([H])([H])[H])C([H])([H])c2c([H])c(OC([H])([H])C([H])([H])N([H])c3c(F)c([H])c(N([H])C(=O)N4C([H])([H])C([H])([H])C([H])([H])C([H])(n5nc(-c6c([H])c([H])c(Oc7c([H])c([H])c(F)c([H])c7F)c([H])c6[H])c(C(=O)N([H])[H])c5N([H])[H])C4([H])[H])c([H])c3Cl)c([H])c([H])c2C1([H])[H]

$$$$
66:0:0
     RDKit          3D

 93101  0  0  1  0  0  0  0  0999 V2000
  -28.7790  -22.6820   19.0930 C   0  0  0  0  0  0  0  0  0  0  0  0
  -28.1580  -20.8630   17.6490 C   0  0  0  0  0  1  0  0  0  0  0  0
  -28.7560  -21.2810   18.9320 N   0  0  0  0  0  0  0  0  0  0  0  0
  -28.6550  -23.3900   18.0850 O   0  0  0  0  0  0  0  0  0  0  0  0
  -30.6750  -17.9940   19.3690 C   0  0  0  0  0  3  0  0  0  0  0  0
  -28.4270  -19.2780   20.4150 C   0  0  0  0  0  3  0  0  0  0  0  0
  -30.4560  -19.4020   19.1500 C   0  0  0  0  0  0  0  0  0  0  0  0
  -28.6430  -17.8780   20.6390 C   0  0  0  0  0  0  0  0  0  0  0  0
  -29.7530  -17.1680   20.0750 C   0  0  0  0  0  0  0  0  0  0  0  0
  -29.2930  -20.0890   19.6330 C   0  0  0  0  0  0  0  0  0  0  0  0
  -31.4550  -20.1450   18.2800 C   0  0  0  0  0  1  0  0  0  0  0  0
  -27.6060  -17.1420   21.4750 C   0  0  0  0  0  1  0  0  0  0  0  0
  -30.5320  -14.6700   19.6000 C   0  0  0  0  0  0  0  0  0  0  0  0
  -30.1910  -12.4710   18.4560 C   0  0  0  0  0  2  0  0  0  0  0  0
  -29.1110  -12.6470   17.3640 C   0  0  0  0  0  2  0  0  0  0  0  0
  -27.6960  -12.4790   17.9500 C   0  0  0  0  0  2  0  0  0  0  0  0
  -27.4940  -13.2850   19.2610 C   0  0  0  0  0  3  0  0  0  0  0  0
  -28.6710  -13.0640   20.2380 C   0  0  0  0  0  2  0  0  0  0  0  0
  -29.9090  -13.4420   19.5380 N   0  0  0  0  0  0  0  0  0  0  0  0
  -31.6260  -14.8440   19.0550 O   0  0  0  0  0  0  0  0  0  0  0  0
  -29.8220  -15.6890   20.2060 N   0  0  0  0  0  0  0  0  0  0  0  0
  -29.0510  -15.3120   20.7330 H   0  0  0  0  0  0  0  0  0  0  0  0
  -25.2010  -13.8760   20.2550 C   0  0  0  0  0  0  0  0  0  0  0  0
  -24.1740  -13.1000   20.7200 C   0  0  0  0  0  0  0  0  0  0  0  0
  -24.6170  -11.7460   20.6020 C   0  0  0  0  0  0  0  0  0  0  0  0
  -26.2040  -12.9960   19.8830 N   0  0  0  0  0  0  0  0  0  0  0  0
  -25.8660  -11.7090   20.1520 N   0  0  0  0  0  0  0  0  0  0  0  0
  -23.9050  -10.4840   20.8390 C   0  0  0  0  0  0  0  0  0  0  0  0
  -24.3880   -9.5230   21.7540 C   0  0  0  0  0  3  0  0  0  0  0  0
  -23.6750   -8.3250   21.9770 C   0  0  0  0  0  3  0  0  0  0  0  0
  -22.4640   -8.0810   21.2870 C   0  0  0  0  0  0  0  0  0  0  0  0
  -22.0000   -9.0300   20.3580 C   0  0  0  0  0  3  0  0  0  0  0  0
  -22.7140  -10.2190   20.1330 C   0  0  0  0  0  3  0  0  0  0  0  0
  -21.7190   -6.9340   21.4190 O   0  0  0  0  0  0  0  0  0  0  0  0
  -21.6830   -6.2310   22.5960 C   0  0  0  0  0  0  0  0  0  0  0  0
  -21.2660   -6.8250   23.8070 C   0  0  0  0  0  3  0  0  0  0  0  0
  -21.1790   -6.0480   24.9790 C   0  0  0  0  0  3  0  0  0  0  0  0
  -21.4980   -4.6770   24.9420 C   0  0  0  0  0  0  0  0  0  0  0  0
  -21.9070   -4.0830   23.7350 C   0  0  0  0  0  3  0  0  0  0  0  0
  -21.9960   -4.8560   22.5650 C   0  0  0  0  0  0  0  0  0  0  0  0
  -22.3690   -4.2730   21.4000 F   0  0  0  0  0  0  0  0  0  0  0  0
  -21.4070   -3.9280   26.0650 F   0  0  0  0  0  0  0  0  0  0  0  0
  -22.8200  -13.5770   21.1560 C   0  0  0  0  0  0  0  0  0  0  0  0
  -22.2010  -12.8800   22.1010 N   0  0  0  0  0  0  0  0  0  0  0  0
  -22.3240  -14.6030   20.6910 O   0  0  0  0  0  0  0  0  0  0  0  0
  -22.6200  -12.0510   22.4940 H   0  0  0  0  0  0  0  0  0  0  0  0
  -21.2950  -13.1790   22.4340 H   0  0  0  0  0  0  0  0  0  0  0  0
  -25.3570  -15.2490   20.0970 N   0  0  0  0  0  0  0  0  0  0  0  0
  -24.6220  -15.9050   20.3380 H   0  0  0  0  0  0  0  0  0  0  0  0
  -26.1530  -15.6910   19.6600 H   0  0  0  0  0  0  0  0  0  0  0  0
  -28.9340  -23.5580   20.3940 C   0  0  0  0  0  2  0  0  0  0  0  0
  -27.9550  -24.8510   20.5570 C   0  0  0  0  0  2  0  0  0  0  0  0
  -28.2380  -26.2830   20.1750 O   0  0  0  0  0  0  0  0  0  0  0  0
  -24.3890  -31.7360   23.0700 C   0  0  0  0  0  0  0  0  0  0  0  0
  -27.1320  -27.1650   20.1100 C   0  0  0  0  0  0  0  0  0  0  0  0
  -23.2400  -30.2980   21.4260 C   0  0  0  0  0  3  0  0  0  0  0  0
  -24.7450  -28.7620   20.0370 C   0  0  0  0  0  0  0  0  0  0  0  0
  -25.7790  -30.6550   21.2850 C   0  0  0  0  0  2  0  0  0  0  0  0
  -25.8970  -29.2690   20.6520 C   0  0  0  0  0  0  0  0  0  0  0  0
  -27.0950  -28.4820   20.6790 C   0  0  0  0  0  3  0  0  0  0  0  0
  -25.9610  -26.7330   19.4490 C   0  0  0  0  0  3  0  0  0  0  0  0
  -24.7820  -27.5010   19.4240 C   0  0  0  0  0  3  0  0  0  0  0  0
  -23.4920  -29.6170   20.0560 C   0  0  0  0  0  2  0  0  0  0  0  0
  -24.4860  -30.9160   21.9820 N   0  0  0  0  0  0  0  0  0  0  0  0
  -23.2920  -31.9980   23.5840 O   0  0  0  0  0  0  0  0  0  0  0  0
  -22.5820  -29.2780   22.3870 C   0  0  0  0  0  0  0  0  0  0  0  0
  -21.2540  -29.1040   22.2720 N   0  0  0  0  0  0  0  0  0  0  0  0
  -23.2660  -28.6460   23.1960 O   0  0  0  0  0  0  0  0  0  0  0  0
  -20.7600  -29.6640   21.5910 H   0  0  0  0  0  0  0  0  0  0  0  0
  -17.8700  -27.9570   22.8440 C   0  0  0  0  0  0  0  0  0  0  0  0
  -20.4400  -28.1670   23.0480 C   0  0  0  0  0  3  0  0  0  0  0  0
  -20.5000  -26.7460   22.4410 C   0  0  0  0  0  2  0  0  0  0  0  0
  -19.3660  -26.4650   21.4500 C   0  0  0  0  0  2  0  0  0  0  0  0
  -18.0050  -26.6190   22.1350 C   0  0  0  0  0  2  0  0  0  0  0  0
  -19.0140  -28.6900   23.2590 C   0  0  0  0  0  0  0  0  0  0  0  0
  -18.8330  -29.9430   23.8850 C   0  0  0  0  0  3  0  0  0  0  0  0
  -17.5420  -30.4610   24.1000 C   0  0  0  0  0  3  0  0  0  0  0  0
  -16.4140  -29.7250   23.6990 C   0  0  0  0  0  3  0  0  0  0  0  0
  -16.5800  -28.4740   23.0760 C   0  0  0  0  0  3  0  0  0  0  0  0
  -25.6480  -32.4020   23.7040 C   0  0  0  0  0  3  0  0  0  0  0  0
  -26.1810  -31.6310   24.9750 C   0  0  1  0  0  0  0  0  0  0  0  0
  -25.0910  -31.3530   26.0350 C   0  0  0  0  0  1  0  0  0  0  0  0
  -26.8040  -30.2730   24.5740 C   0  0  0  0  0  1  0  0  0  0  0  0
  -27.3070  -32.4500   25.6490 C   0  0  0  0  0  1  0  0  0  0  0  0
  -25.2950  -33.7860   24.0510 N   0  0  0  0  0  0  0  0  0  0  0  0
  -25.5920  -34.8580   23.3050 C   0  0  0  0  0  0  0  0  0  0  0  0
  -26.2630  -34.7880   22.2720 O   0  0  0  0  0  0  0  0  0  0  0  0
  -24.6940  -33.9110   24.8530 H   0  0  0  0  0  0  0  0  0  0  0  0
  -23.8110  -36.6030   22.9690 C   0  0  0  0  0  1  0  0  0  0  0  0
  -25.0620  -36.2250   23.7790 C   0  0  0  0  0  3  0  0  0  0  0  0
  -27.1650  -37.1650   24.6290 C   0  0  0  0  0  1  0  0  0  0  0  0
  -26.0610  -37.3100   23.6830 N   0  0  0  0  0  0  0  0  0  0  0  0
  -25.6270  -38.2170   23.8400 H   0  0  0  0  0  0  0  0  0  0  0  0
  1 51  1  0
  2  3  1  0
  3  1  1  0
  3 10  1  0
  4  1  2  0
  5  9  1  0
  6  8  1  0
  7  5  2  0
  7 10  1  0
  8 12  1  0
  9 21  1  0
  9  8  2  0
 10  6  2  0
 11  7  1  0
 13 21  1  0
 14 19  1  0
 15 16  1  0
 15 14  1  0
 17 16  1  0
 17 26  1  0
 17 18  1  0
 19 13  1  0
 19 18  1  0
 20 13  2  0
 21 22  1  0
 23 24  2  0
 24 43  1  0
 25 24  1  0
 25 28  1  0
 26 27  1  0
 26 23  1  0
 27 25  2  0
 28 29  1  0
 29 30  2  0
 31 34  1  0
 31 30  1  0
 32 31  2  0
 33 32  1  0
 33 28  2  0
 34 35  1  0
 35 36  1  0
 36 37  2  0
 38 37  1  0
 38 42  1  0
 39 38  2  0
 40 35  2  0
 40 39  1  0
 41 40  1  0
 43 44  1  0
 44 47  1  0
 44 46  1  0
 45 43  2  0
 48 23  1  0
 48 49  1  0
 50 48  1  0
 51 52  1  0
 53 52  1  0
 54 65  2  0
 55 53  1  0
 55 60  1  0
 56 64  1  0
 56 66  1  0
 57 63  1  0
 57 59  1  0
 58 64  1  0
 59 60  2  0
 59 58  1  0
 61 55  2  0
 62 61  1  0
 62 57  2  0
 63 56  1  0
 64 54  1  0
 66 68  2  0
 67 66  1  0
 69 67  1  0
 70 79  2  0
 70 75  1  0
 71 67  1  0
 71 75  1  0
 72 71  1  0
 73 74  1  0
 73 72  1  0
 74 70  1  0
 75 76  2  0
 76 77  1  0
 78 77  2  0
 79 78  1  0
 80 54  1  0
 80 85  1  0
 80 81  1  0
 81 84  1  1
 81 82  1  0
 83 81  1  0
 85 88  1  0
 86 90  1  0
 86 85  1  0
 87 86  2  0
 90 89  1  0
 92 90  1  0
 92 93  1  0
 92 91  1  0
M  ISO  4  13 100  21 100  52 101  53 101
M  END
>  <TORSDO>  (66) 
F 19

>  <SCORE>  (66) 
-11.396

>  <name>  (66) 
66

>  <ligand_id>  (66) 
66

>  <original_smiles>  (66) 
[H]c1c([H])c([H])c2c(c1[H])C([H])([H])C([H])([H])C([H])([H])C2([H])N([H])C(=O)C1([H])N(C(=O)C([H])(N([H])C(=O)C([H])(N([H])C([H])([H])[H])C([H])([H])[H])C(C([H])([H])[H])(C([H])([H])[H])C([H])([H])[H])C([H])([H])c2c([H])c(OC([H])([H])C([H])([H])C(=O)N(c3c([H])c(C([H])([H])[H])c(N([H])C(=O)N4C([H])([H])C([H])([H])C([H])([H])C([H])(n5nc(-c6c([H])c([H])c(Oc7c([H])c([H])c(F)c([H])c7F)c([H])c6[H])c(C(=O)N([H])[H])c5N([H])[H])C4([H])[H])c([H])c3C([H])([H])[H])C([H])([H])[H])c([H])c([H])c2C1([H])[H]

>  <smiles>  (66) 
[H]c1c([H])c([H])c2c(c1[H])C([H])([H])C([H])([H])C([H])([H])C2([H])N([H])C(=O)C1([H])N(C(=O)C([H])(N([H])C(=O)C([H])(N([H])C([H])([H])[H])C([H])([H])[H])C(C([H])([H])[H])(C([H])([H])[H])C([H])([H])[H])C([H])([H])c2c([H])c(OC([H])([H])C([H])([H])C(=O)N(c3c([H])c(C([H])([H])[H])c(N([H])C(=O)N4C([H])([H])C([H])([H])C([H])([H])C([H])(n5nc(-c6c([H])c([H])c(Oc7c([H])c([H])c(F)c([H])c7F)c([H])c6[H])c(C(=O)N([H])[H])c5N([H])[H])C4([H])[H])c([H])c3C([H])([H])[H])C([H])([H])[H])c([H])c([H])c2C1([H])[H]

$$$$
67:0:0
     RDKit          3D

 91 99  0  0  1  0  0  0  0  0999 V2000
  -30.1560  -21.5010   19.9870 N   0  0  0  0  0  0  0  0  0  0  0  0
  -31.0440  -21.8630   19.6490 H   0  0  0  0  0  0  0  0  0  0  0  0
  -31.2560  -19.2910   20.0020 C   0  0  0  0  0  3  0  0  0  0  0  0
  -31.2530  -17.8700   20.1270 C   0  0  0  0  0  3  0  0  0  0  0  0
  -28.8840  -19.3520   20.3510 C   0  0  0  0  0  3  0  0  0  0  0  0
  -28.8720  -17.9300   20.5050 C   0  0  0  0  0  0  0  0  0  0  0  0
  -30.0760  -20.0740   20.1010 C   0  0  0  0  0  0  0  0  0  0  0  0
  -30.0590  -17.1430   20.3800 C   0  0  0  0  0  0  0  0  0  0  0  0
  -27.5400  -17.2690   20.8130 C   0  0  0  0  0  1  0  0  0  0  0  0
  -30.7230  -14.6580   19.9560 C   0  0  0  0  0  0  0  0  0  0  0  0
  -30.4290  -12.4590   18.8320 C   0  0  0  0  0  2  0  0  0  0  0  0
  -29.3960  -12.6280   17.6950 C   0  0  0  0  0  2  0  0  0  0  0  0
  -27.9600  -12.4510   18.2250 C   0  0  0  0  0  2  0  0  0  0  0  0
  -27.6940  -13.2700   19.5160 C   0  0  0  0  0  3  0  0  0  0  0  0
  -28.8320  -13.0760   20.5440 C   0  0  0  0  0  2  0  0  0  0  0  0
  -30.0980  -13.4390   19.8870 N   0  0  0  0  0  0  0  0  0  0  0  0
  -31.8400  -14.8300   19.4600 O   0  0  0  0  0  0  0  0  0  0  0  0
  -29.9770  -15.6820   20.4770 N   0  0  0  0  0  0  0  0  0  0  0  0
  -29.1330  -15.3490   20.9160 H   0  0  0  0  0  0  0  0  0  0  0  0
  -25.3470  -13.8340   20.3980 C   0  0  0  0  0  0  0  0  0  0  0  0
  -24.3170  -13.0470   20.8360 C   0  0  0  0  0  0  0  0  0  0  0  0
  -24.7880  -11.7020   20.7560 C   0  0  0  0  0  0  0  0  0  0  0  0
  -26.3830  -12.9690   20.0870 N   0  0  0  0  0  0  0  0  0  0  0  0
  -26.0560  -11.6800   20.3590 N   0  0  0  0  0  0  0  0  0  0  0  0
  -24.0880  -10.4310   20.9770 C   0  0  0  0  0  0  0  0  0  0  0  0
  -24.5180   -9.5110   21.9580 C   0  0  0  0  0  3  0  0  0  0  0  0
  -23.8150   -8.3040   22.1650 C   0  0  0  0  0  3  0  0  0  0  0  0
  -22.6690   -8.0090   21.3900 C   0  0  0  0  0  0  0  0  0  0  0  0
  -22.2590   -8.9170   20.3980 C   0  0  0  0  0  3  0  0  0  0  0  0
  -22.9620  -10.1150   20.1890 C   0  0  0  0  0  3  0  0  0  0  0  0
  -21.9390   -6.8500   21.5030 O   0  0  0  0  0  0  0  0  0  0  0  0
  -21.7780   -6.2170   22.7100 C   0  0  0  0  0  0  0  0  0  0  0  0
  -21.1840   -6.8630   23.8150 C   0  0  0  0  0  3  0  0  0  0  0  0
  -20.9730   -6.1540   25.0160 C   0  0  0  0  0  3  0  0  0  0  0  0
  -21.3450   -4.7990   25.1080 C   0  0  0  0  0  0  0  0  0  0  0  0
  -21.9330   -4.1540   24.0060 C   0  0  0  0  0  3  0  0  0  0  0  0
  -22.1450   -4.8600   22.8090 C   0  0  0  0  0  0  0  0  0  0  0  0
  -22.6910   -4.2270   21.7430 F   0  0  0  0  0  0  0  0  0  0  0  0
  -21.1370   -4.1150   26.2570 F   0  0  0  0  0  0  0  0  0  0  0  0
  -22.9380  -13.5090   21.2110 C   0  0  0  0  0  0  0  0  0  0  0  0
  -22.2900  -12.8120   22.1390 N   0  0  0  0  0  0  0  0  0  0  0  0
  -22.4460  -14.5220   20.7170 O   0  0  0  0  0  0  0  0  0  0  0  0
  -22.7020  -11.9940   22.5600 H   0  0  0  0  0  0  0  0  0  0  0  0
  -21.3680  -13.1040   22.4330 H   0  0  0  0  0  0  0  0  0  0  0  0
  -25.4770  -15.2060   20.2120 N   0  0  0  0  0  0  0  0  0  0  0  0
  -24.6960  -15.8380   20.3500 H   0  0  0  0  0  0  0  0  0  0  0  0
  -26.2650  -15.6440   19.7540 H   0  0  0  0  0  0  0  0  0  0  0  0
  -29.0080  -22.4500   19.8800 C   0  0  0  0  0  2  0  0  0  0  0  0
  -29.3790  -24.0030   19.8930 C   0  0  0  0  0  3  0  0  0  0  0  0
  -28.2000  -25.0230   19.5980 C   0  0  0  0  0  3  0  0  0  0  0  0
  -28.3960  -26.4780   19.7800 O   0  0  0  0  0  0  0  0  0  0  0  0
  -24.5590  -31.6350   23.0590 C   0  0  0  0  0  0  0  0  0  0  0  0
  -27.2490  -27.2890   19.7800 C   0  0  0  0  0  0  0  0  0  0  0  0
  -23.3700  -30.2800   21.3720 C   0  0  0  0  0  3  0  0  0  0  0  0
  -24.8410  -28.8330   19.8660 C   0  0  0  0  0  0  0  0  0  0  0  0
  -25.8980  -30.6720   21.1750 C   0  0  0  0  0  2  0  0  0  0  0  0
  -26.0040  -29.3270   20.4690 C   0  0  0  0  0  0  0  0  0  0  0  0
  -27.2110  -28.5690   20.4160 C   0  0  0  0  0  3  0  0  0  0  0  0
  -26.0550  -26.8470   19.1600 C   0  0  0  0  0  3  0  0  0  0  0  0
  -24.8670  -27.5980   19.2040 C   0  0  0  0  0  3  0  0  0  0  0  0
  -23.5840  -29.6720   19.9620 C   0  0  0  0  0  2  0  0  0  0  0  0
  -24.6280  -30.8770   21.9260 N   0  0  0  0  0  0  0  0  0  0  0  0
  -23.4750  -31.8640   23.6150 O   0  0  0  0  0  0  0  0  0  0  0  0
  -22.7430  -29.2060   22.2920 C   0  0  0  0  0  0  0  0  0  0  0  0
  -21.4200  -29.0040   22.1700 N   0  0  0  0  0  0  0  0  0  0  0  0
  -23.4440  -28.5610   23.0760 O   0  0  0  0  0  0  0  0  0  0  0  0
  -20.9120  -29.5790   21.5120 H   0  0  0  0  0  0  0  0  0  0  0  0
  -18.0660  -27.7520   22.6920 C   0  0  0  0  0  0  0  0  0  0  0  0
  -20.6290  -28.0170   22.9060 C   0  0  0  0  0  3  0  0  0  0  0  0
  -20.7250  -26.6210   22.2470 C   0  0  0  0  0  2  0  0  0  0  0  0
  -19.5970  -26.3480   21.2460 C   0  0  0  0  0  2  0  0  0  0  0  0
  -18.2330  -26.4440   21.9350 C   0  0  0  0  0  2  0  0  0  0  0  0
  -19.1920  -28.4970   23.1340 C   0  0  0  0  0  0  0  0  0  0  0  0
  -18.9810  -29.7220   23.8040 C   0  0  0  0  0  3  0  0  0  0  0  0
  -17.6780  -30.2030   24.0340 C   0  0  0  0  0  3  0  0  0  0  0  0
  -16.5670  -29.4540   23.6070 C   0  0  0  0  0  3  0  0  0  0  0  0
  -16.7630  -28.2300   22.9420 C   0  0  0  0  0  3  0  0  0  0  0  0
  -25.8340  -32.2700   23.6950 C   0  0  0  0  0  3  0  0  0  0  0  0
  -26.3580  -31.4780   24.9560 C   0  0  1  0  0  0  0  0  0  0  0  0
  -25.2650  -31.2000   26.0150 C   0  0  0  0  0  1  0  0  0  0  0  0
  -26.9620  -30.1180   24.5340 C   0  0  0  0  0  1  0  0  0  0  0  0
  -27.4950  -32.2740   25.6380 C   0  0  0  0  0  1  0  0  0  0  0  0
  -25.5070  -33.6570   24.0540 N   0  0  0  0  0  0  0  0  0  0  0  0
  -25.7950  -34.7270   23.3020 C   0  0  0  0  0  0  0  0  0  0  0  0
  -26.4360  -34.6510   22.2490 O   0  0  0  0  0  0  0  0  0  0  0  0
  -24.9330  -33.7870   24.8750 H   0  0  0  0  0  0  0  0  0  0  0  0
  -24.0100  -36.4800   23.0400 C   0  0  0  0  0  1  0  0  0  0  0  0
  -25.2950  -36.0980   23.7940 C   0  0  0  0  0  3  0  0  0  0  0  0
  -27.4350  -37.0340   24.5500 C   0  0  0  0  0  1  0  0  0  0  0  0
  -26.2960  -37.1770   23.6470 N   0  0  0  0  0  0  0  0  0  0  0  0
  -25.8730  -38.0870   23.8130 H   0  0  0  0  0  0  0  0  0  0  0  0
  1  7  1  0
  2  1  1  0
  3  7  2  0
  3  4  1  0
  4  8  2  0
  5  6  2  0
  6  9  1  0
  7  5  1  0
  8 18  1  0
  8  6  1  0
 10 18  1  0
 11 16  1  0
 12 13  1  0
 12 11  1  0
 14 13  1  0
 14 23  1  0
 14 15  1  0
 16 10  1  0
 16 15  1  0
 17 10  2  0
 18 19  1  0
 20 21  2  0
 21 40  1  0
 22 21  1  0
 22 25  1  0
 23 24  1  0
 23 20  1  0
 24 22  2  0
 25 26  1  0
 26 27  2  0
 28 31  1  0
 28 27  1  0
 29 28  2  0
 30 29  1  0
 30 25  2  0
 31 32  1  0
 32 37  2  0
 32 33  1  0
 33 34  2  0
 34 35  1  0
 35 39  1  0
 36 35  2  0
 37 36  1  0
 38 37  1  0
 40 41  1  0
 41 44  1  0
 41 43  1  0
 42 40  2  0
 45 46  1  0
 45 20  1  0
 47 45  1  0
 48 49  1  0
 48  1  1  0
 50 51  1  0
 50 49  2  0
 51 53  1  0
 52 63  2  0
 53 58  1  0
 54 62  1  0
 54 64  1  0
 55 61  1  0
 55 57  1  0
 56 62  1  0
 57 56  1  0
 58 57  2  0
 59 60  1  0
 59 53  2  0
 60 55  2  0
 61 54  1  0
 62 52  1  0
 64 66  2  0
 65 64  1  0
 67 65  1  0
 68 77  2  0
 68 73  1  0
 69 65  1  0
 69 73  1  0
 70 69  1  0
 71 72  1  0
 71 70  1  0
 72 68  1  0
 73 74  2  0
 74 75  1  0
 76 75  2  0
 77 76  1  0
 78 52  1  0
 78 83  1  0
 78 79  1  0
 79 82  1  1
 79 80  1  0
 81 79  1  0
 83 86  1  0
 84 88  1  0
 84 83  1  0
 85 84  2  0
 88 87  1  0
 90 88  1  0
 90 91  1  0
 90 89  1  0
M  ISO  4  10 100  18 100  50 101  51 101
M  END
>  <TORSDO>  (67) 
F 20

>  <SCORE>  (67) 
-12.629

>  <name>  (67) 
67

>  <ligand_id>  (67) 
67

>  <original_smiles>  (67) 
[H]c1c([H])c([H])c2c(c1[H])C([H])([H])C([H])([H])C([H])([H])C2([H])N([H])C(=O)C1([H])N(C(=O)C([H])(N([H])C(=O)C([H])(N([H])C([H])([H])[H])C([H])([H])[H])C(C([H])([H])[H])(C([H])([H])[H])C([H])([H])[H])C([H])([H])c2c([H])c(OC([H])([H])C([H])([H])C([H])([H])N([H])c3c([H])c([H])c(N([H])C(=O)N4C([H])([H])C([H])([H])C([H])([H])C([H])(n5nc(-c6c([H])c([H])c(Oc7c([H])c([H])c(F)c([H])c7F)c([H])c6[H])c(C(=O)N([H])[H])c5N([H])[H])C4([H])[H])c(C([H])([H])[H])c3[H])c([H])c([H])c2C1([H])[H]

>  <smiles>  (67) 
[H]c1c([H])c([H])c2c(c1[H])C([H])([H])C([H])([H])C([H])([H])C2([H])N([H])C(=O)C1([H])N(C(=O)C([H])(N([H])C(=O)C([H])(N([H])C([H])([H])[H])C([H])([H])[H])C(C([H])([H])[H])(C([H])([H])[H])C([H])([H])[H])C([H])([H])c2c([H])c(OC([H])([H])C([H])([H])C([H])([H])N([H])c3c([H])c([H])c(N([H])C(=O)N4C([H])([H])C([H])([H])C([H])([H])C([H])(n5nc(-c6c([H])c([H])c(Oc7c([H])c([H])c(F)c([H])c7F)c([H])c6[H])c(C(=O)N([H])[H])c5N([H])[H])C4([H])[H])c(C([H])([H])[H])c3[H])c([H])c([H])c2C1([H])[H]

$$$$
68:0:0
     RDKit          3D

 92100  0  0  1  0  0  0  0  0999 V2000
  -30.2320  -18.7820   21.3990 C   0  0  0  0  0  3  0  0  0  0  0  0
  -28.9170  -19.6610   19.1730 C   0  0  0  0  0  3  0  0  0  0  0  0
  -29.9230  -17.7060   20.4800 C   0  0  0  0  0  0  0  0  0  0  0  0
  -29.2020  -20.7270   20.1070 C   0  0  0  0  0  0  0  0  0  0  0  0
  -29.9060  -20.1940   21.2380 C   0  0  0  0  0  0  0  0  0  0  0  0
  -29.2510  -18.2470   19.3310 C   0  0  0  0  0  0  0  0  0  0  0  0
  -30.2530  -21.0350   22.2400 F   0  0  0  0  0  0  0  0  0  0  0  0
  -28.7310  -17.1520   18.1000 Cl  0  0  0  0  0  0  0  0  0  0  0  0
  -30.6840  -15.0970   20.1270 C   0  0  0  0  0  0  0  0  0  0  0  0
  -30.4730  -12.7830   19.0880 C   0  0  0  0  0  2  0  0  0  0  0  0
  -29.4870  -12.7870   17.8960 C   0  0  0  0  0  2  0  0  0  0  0  0
  -28.0450  -12.5610   18.3840 C   0  0  0  0  0  2  0  0  0  0  0  0
  -27.6980  -13.4490   19.6050 C   0  0  0  0  0  3  0  0  0  0  0  0
  -28.7980  -13.4180   20.6850 C   0  0  0  0  0  2  0  0  0  0  0  0
  -30.0580  -13.8460   20.0540 N   0  0  0  0  0  0  0  0  0  0  0  0
  -31.7920  -15.1970   19.5890 O   0  0  0  0  0  0  0  0  0  0  0  0
  -30.2540  -15.9930   22.2810 C   0  0  0  0  0  1  0  0  0  0  0  0
  -30.1200  -16.2060   20.8300 N   0  0  0  0  0  0  0  0  0  0  0  0
  -25.3570  -14.0110   20.4730 C   0  0  0  0  0  0  0  0  0  0  0  0
  -24.3080  -13.2270   20.8710 C   0  0  0  0  0  0  0  0  0  0  0  0
  -24.7680  -11.8760   20.7810 C   0  0  0  0  0  0  0  0  0  0  0  0
  -26.3840  -13.1380   20.1560 N   0  0  0  0  0  0  0  0  0  0  0  0
  -26.0420  -11.8470   20.4070 N   0  0  0  0  0  0  0  0  0  0  0  0
  -24.0480  -10.6100   20.9710 C   0  0  0  0  0  0  0  0  0  0  0  0
  -24.4850   -9.6410   21.9000 C   0  0  0  0  0  3  0  0  0  0  0  0
  -23.7630   -8.4410   22.0780 C   0  0  0  0  0  3  0  0  0  0  0  0
  -22.5890   -8.2020   21.3250 C   0  0  0  0  0  0  0  0  0  0  0  0
  -22.1710   -9.1590   20.3850 C   0  0  0  0  0  3  0  0  0  0  0  0
  -22.8930  -10.3500   20.2060 C   0  0  0  0  0  3  0  0  0  0  0  0
  -21.8380   -7.0540   21.4130 O   0  0  0  0  0  0  0  0  0  0  0  0
  -21.7420   -6.3440   22.5830 C   0  0  0  0  0  0  0  0  0  0  0  0
  -21.2330   -6.9220   23.7670 C   0  0  0  0  0  3  0  0  0  0  0  0
  -21.0870   -6.1360   24.9260 C   0  0  0  0  0  3  0  0  0  0  0  0
  -21.4380   -4.7740   24.9040 C   0  0  0  0  0  0  0  0  0  0  0  0
  -21.9400   -4.1950   23.7250 C   0  0  0  0  0  3  0  0  0  0  0  0
  -22.0880   -4.9780   22.5670 C   0  0  0  0  0  0  0  0  0  0  0  0
  -22.5520   -4.4100   21.4270 F   0  0  0  0  0  0  0  0  0  0  0  0
  -21.2920   -4.0170   26.0170 F   0  0  0  0  0  0  0  0  0  0  0  0
  -22.9280  -13.6980   21.2230 C   0  0  0  0  0  0  0  0  0  0  0  0
  -22.2420  -12.9820   22.1070 N   0  0  0  0  0  0  0  0  0  0  0  0
  -22.4680  -14.7360   20.7490 O   0  0  0  0  0  0  0  0  0  0  0  0
  -22.6300  -12.1420   22.5100 H   0  0  0  0  0  0  0  0  0  0  0  0
  -21.3170  -13.2770   22.3850 H   0  0  0  0  0  0  0  0  0  0  0  0
  -25.5170  -15.3850   20.3270 N   0  0  0  0  0  0  0  0  0  0  0  0
  -24.7600  -16.0400   20.4950 H   0  0  0  0  0  0  0  0  0  0  0  0
  -26.3540  -15.8300   19.9720 H   0  0  0  0  0  0  0  0  0  0  0  0
  -28.9110  -23.4850   20.3810 C   0  0  0  0  0  0  0  0  0  0  0  0
  -28.7030  -22.1700   19.8750 N   0  0  0  0  0  0  0  0  0  0  0  0
  -29.7940  -23.6940   21.2150 O   0  0  0  0  0  0  0  0  0  0  0  0
  -28.0120  -22.2080   19.1400 H   0  0  0  0  0  0  0  0  0  0  0  0
  -28.0070  -24.7890   19.8850 C   0  0  0  0  0  2  0  0  0  0  0  0
  -28.2620  -26.2740   20.3010 O   0  0  0  0  0  0  0  0  0  0  0  0
  -24.6200  -31.9690   23.2680 C   0  0  0  0  0  0  0  0  0  0  0  0
  -27.2130  -27.2670   20.2190 C   0  0  0  0  0  0  0  0  0  0  0  0
  -23.4230  -30.5670   21.6320 C   0  0  0  0  0  3  0  0  0  0  0  0
  -24.8760  -29.0060   20.1980 C   0  0  0  0  0  0  0  0  0  0  0  0
  -25.9750  -30.8440   21.4630 C   0  0  0  0  0  2  0  0  0  0  0  0
  -26.0540  -29.4530   20.8080 C   0  0  0  0  0  0  0  0  0  0  0  0
  -27.2220  -28.5980   20.8060 C   0  0  0  0  0  3  0  0  0  0  0  0
  -26.0090  -26.9330   19.5570 C   0  0  0  0  0  3  0  0  0  0  0  0
  -24.8670  -27.7590   19.5570 C   0  0  0  0  0  3  0  0  0  0  0  0
  -23.6430  -29.8940   20.2520 C   0  0  0  0  0  2  0  0  0  0  0  0
  -24.6930  -31.1480   22.1760 N   0  0  0  0  0  0  0  0  0  0  0  0
  -23.5330  -32.2470   23.7990 O   0  0  0  0  0  0  0  0  0  0  0  0
  -22.7520  -29.5550   22.5960 C   0  0  0  0  0  0  0  0  0  0  0  0
  -21.4270  -29.3660   22.4640 N   0  0  0  0  0  0  0  0  0  0  0  0
  -23.4270  -28.9430   23.4270 O   0  0  0  0  0  0  0  0  0  0  0  0
  -20.9380  -29.9120   21.7690 H   0  0  0  0  0  0  0  0  0  0  0  0
  -18.0590  -28.1280   22.9590 C   0  0  0  0  0  0  0  0  0  0  0  0
  -20.6140  -28.4240   23.2360 C   0  0  0  0  0  3  0  0  0  0  0  0
  -20.7360  -26.9900   22.6720 C   0  0  0  0  0  2  0  0  0  0  0  0
  -19.6420  -26.6470   21.6540 C   0  0  0  0  0  2  0  0  0  0  0  0
  -18.2570  -26.7780   22.2910 C   0  0  0  0  0  2  0  0  0  0  0  0
  -19.1650  -28.9080   23.3900 C   0  0  0  0  0  0  0  0  0  0  0  0
  -18.9260  -30.1680   23.9760 C   0  0  0  0  0  3  0  0  0  0  0  0
  -17.6130  -30.6510   24.1360 C   0  0  0  0  0  3  0  0  0  0  0  0
  -16.5220  -29.8690   23.7210 C   0  0  0  0  0  3  0  0  0  0  0  0
  -16.7450  -28.6090   23.1390 C   0  0  0  0  0  3  0  0  0  0  0  0
  -25.8960  -32.6130   23.8910 C   0  0  0  0  0  3  0  0  0  0  0  0
  -25.5770  -34.0090   24.2230 N   0  0  0  0  0  0  0  0  0  0  0  0
  -25.8730  -35.0660   23.4540 C   0  0  0  0  0  0  0  0  0  0  0  0
  -26.5120  -34.9670   22.4030 O   0  0  0  0  0  0  0  0  0  0  0  0
  -25.0070  -34.1590   25.0430 H   0  0  0  0  0  0  0  0  0  0  0  0
  -24.1030  -36.8320   23.1710 C   0  0  0  0  0  1  0  0  0  0  0  0
  -25.3880  -36.4510   23.9250 C   0  0  0  0  0  3  0  0  0  0  0  0
  -27.5380  -37.3830   24.6550 C   0  0  0  0  0  1  0  0  0  0  0  0
  -26.3970  -37.5190   23.7540 N   0  0  0  0  0  0  0  0  0  0  0  0
  -25.9820  -38.4340   23.9040 H   0  0  0  0  0  0  0  0  0  0  0  0
  -26.4120  -31.8490   25.1720 C   0  0  1  0  0  0  0  0  0  0  0  0
  -25.3150  -31.5940   26.2320 C   0  0  0  0  0  1  0  0  0  0  0  0
  -27.0200  -30.4800   24.7890 C   0  0  0  0  0  1  0  0  0  0  0  0
  -27.5450  -32.6610   25.8450 C   0  0  0  0  0  1  0  0  0  0  0  0
  2  6  2  0
  2  4  1  0
  3 18  1  0
  3  1  2  0
  4  5  2  0
  5  1  1  0
  5  7  1  0
  6  3  1  0
  8  6  1  0
  9 18  1  0
 10 15  1  0
 11 12  1  0
 11 10  1  0
 13 12  1  0
 13 22  1  0
 13 14  1  0
 15  9  1  0
 15 14  1  0
 16  9  2  0
 18 17  1  0
 19 20  2  0
 20 39  1  0
 21 20  1  0
 21 24  1  0
 22 23  1  0
 22 19  1  0
 23 21  2  0
 24 25  1  0
 25 26  2  0
 27 30  1  0
 27 26  1  0
 28 27  2  0
 29 28  1  0
 29 24  2  0
 30 31  1  0
 31 32  1  0
 32 33  2  0
 34 33  1  0
 34 38  1  0
 35 34  2  0
 36 31  2  0
 36 35  1  0
 37 36  1  0
 39 40  1  0
 40 43  1  0
 40 42  1  0
 41 39  2  0
 44 19  1  0
 44 45  1  0
 46 44  1  0
 47 49  2  0
 48  4  1  0
 48 47  1  0
 50 48  1  0
 51 52  1  0
 51 47  1  0
 53 64  2  0
 54 52  1  0
 54 59  1  0
 55 63  1  0
 55 65  1  0
 56 62  1  0
 56 58  1  0
 57 63  1  0
 58 57  1  0
 59 58  2  0
 60 54  2  0
 61 60  1  0
 61 56  2  0
 62 55  1  0
 63 53  1  0
 65 67  2  0
 66 65  1  0
 68 66  1  0
 69 78  2  0
 69 74  1  0
 70 66  1  0
 70 74  1  0
 71 70  1  0
 72 73  1  0
 72 71  1  0
 73 69  1  0
 74 75  2  0
 75 76  1  0
 77 76  2  0
 78 77  1  0
 79 53  1  0
 79 80  1  0
 79 89  1  0
 80 83  1  0
 81 85  1  0
 81 80  1  0
 82 81  2  0
 85 84  1  0
 87 88  1  0
 87 85  1  0
 87 86  1  0
 89 92  1  1
 89 90  1  0
 91 89  1  0
M  ISO  4   9 100  18 100  51 101  52 101
M  END
>  <TORSDO>  (68) 
F 18

>  <SCORE>  (68) 
-14.095

>  <name>  (68) 
68

>  <ligand_id>  (68) 
68

>  <original_smiles>  (68) 
[H]c1c([H])c([H])c2c(c1[H])C([H])([H])C([H])([H])C([H])([H])C2([H])N([H])C(=O)C1([H])N(C(=O)C([H])(N([H])C(=O)C([H])(N([H])C([H])([H])[H])C([H])([H])[H])C(C([H])([H])[H])(C([H])([H])[H])C([H])([H])[H])C([H])([H])c2c([H])c(OC([H])([H])C(=O)N([H])c3c([H])c(Cl)c(N(C(=O)N4C([H])([H])C([H])([H])C([H])([H])C([H])(n5nc(-c6c([H])c([H])c(Oc7c([H])c([H])c(F)c([H])c7F)c([H])c6[H])c(C(=O)N([H])[H])c5N([H])[H])C4([H])[H])C([H])([H])[H])c([H])c3F)c([H])c([H])c2C1([H])[H]

>  <smiles>  (68) 
[H]c1c([H])c([H])c2c(c1[H])C([H])([H])C([H])([H])C([H])([H])C2([H])N([H])C(=O)C1([H])N(C(=O)C([H])(N([H])C(=O)C([H])(N([H])C([H])([H])[H])C([H])([H])[H])C(C([H])([H])[H])(C([H])([H])[H])C([H])([H])[H])C([H])([H])c2c([H])c(OC([H])([H])C(=O)N([H])c3c([H])c(Cl)c(N(C(=O)N4C([H])([H])C([H])([H])C([H])([H])C([H])(n5nc(-c6c([H])c([H])c(Oc7c([H])c([H])c(F)c([H])c7F)c([H])c6[H])c(C(=O)N([H])[H])c5N([H])[H])C4([H])[H])C([H])([H])[H])c([H])c3F)c([H])c([H])c2C1([H])[H]

$$$$
69:0:0
     RDKit          3D

 94102  0  0  1  0  0  0  0  0999 V2000
  -31.4100  -18.8440   22.3380 C   0  0  0  0  0  3  0  0  0  0  0  0
  -29.6750  -20.4890   21.9890 C   0  0  0  0  0  3  0  0  0  0  0  0
  -30.5800  -19.8480   22.8640 C   0  0  0  0  0  0  0  0  0  0  0  0
  -31.2440  -18.4380   20.9930 C   0  0  0  0  0  0  0  0  0  0  0  0
  -29.3310  -20.0430   20.6550 C   0  0  0  0  0  0  0  0  0  0  0  0
  -29.9500  -18.5750   20.3600 C   0  0  0  0  0  0  0  0  0  0  0  0
  -30.7980  -20.3600   24.2980 C   0  0  0  0  0  1  0  0  0  0  0  0
  -30.1760  -15.7210   19.5480 C   0  0  0  0  0  0  0  0  0  0  0  0
  -30.1100  -13.2220   18.6850 C   0  0  0  0  0  2  0  0  0  0  0  0
  -29.1150  -12.9220   17.5350 C   0  0  0  0  0  2  0  0  0  0  0  0
  -27.7070  -12.6340   18.0780 C   0  0  0  0  0  2  0  0  0  0  0  0
  -27.3330  -13.5580   19.2700 C   0  0  0  0  0  3  0  0  0  0  0  0
  -28.4770  -13.8270   20.2740 C   0  0  0  0  0  2  0  0  0  0  0  0
  -29.6050  -14.3950   19.5260 N   0  0  0  0  0  0  0  0  0  0  0  0
  -31.3030  -15.6370   19.0560 O   0  0  0  0  0  0  0  0  0  0  0  0
  -29.5190  -17.0710   19.8290 N   0  0  0  0  0  0  0  0  0  0  0  0
  -28.5130  -16.9990   19.8140 H   0  0  0  0  0  0  0  0  0  0  0  0
  -25.1310  -13.9930   20.4710 C   0  0  0  0  0  0  0  0  0  0  0  0
  -24.1440  -13.1760   20.9380 C   0  0  0  0  0  0  0  0  0  0  0  0
  -24.5860  -11.8370   20.6910 C   0  0  0  0  0  0  0  0  0  0  0  0
  -26.1050  -13.1590   19.9540 N   0  0  0  0  0  0  0  0  0  0  0  0
  -25.8040  -11.8460   20.1560 N   0  0  0  0  0  0  0  0  0  0  0  0
  -23.8830  -10.5590   20.8830 C   0  0  0  0  0  0  0  0  0  0  0  0
  -24.3660   -9.5740   21.7710 C   0  0  0  0  0  3  0  0  0  0  0  0
  -23.6560   -8.3660   21.9540 C   0  0  0  0  0  3  0  0  0  0  0  0
  -22.4530   -8.1360   21.2470 C   0  0  0  0  0  0  0  0  0  0  0  0
  -21.9900   -9.1100   20.3430 C   0  0  0  0  0  3  0  0  0  0  0  0
  -22.7030  -10.3050   20.1570 C   0  0  0  0  0  3  0  0  0  0  0  0
  -21.7180   -6.9760   21.3310 O   0  0  0  0  0  0  0  0  0  0  0  0
  -21.6160   -6.2720   22.5050 C   0  0  0  0  0  0  0  0  0  0  0  0
  -21.0790   -6.8490   23.6760 C   0  0  0  0  0  3  0  0  0  0  0  0
  -20.9260   -6.0670   24.8410 C   0  0  0  0  0  3  0  0  0  0  0  0
  -21.3060   -4.7130   24.8330 C   0  0  0  0  0  0  0  0  0  0  0  0
  -21.8380   -4.1350   23.6660 C   0  0  0  0  0  3  0  0  0  0  0  0
  -21.9900   -4.9120   22.5050 C   0  0  0  0  0  0  0  0  0  0  0  0
  -22.4840   -4.3470   21.3760 F   0  0  0  0  0  0  0  0  0  0  0  0
  -21.1580   -3.9610   25.9470 F   0  0  0  0  0  0  0  0  0  0  0  0
  -22.8150  -13.6130   21.4820 C   0  0  0  0  0  0  0  0  0  0  0  0
  -22.2340  -12.8450   22.3940 N   0  0  0  0  0  0  0  0  0  0  0  0
  -22.2980  -14.6750   21.1280 O   0  0  0  0  0  0  0  0  0  0  0  0
  -22.6690  -11.9950   22.7170 H   0  0  0  0  0  0  0  0  0  0  0  0
  -21.3380  -13.1160   22.7700 H   0  0  0  0  0  0  0  0  0  0  0  0
  -25.2680  -15.3770   20.4120 N   0  0  0  0  0  0  0  0  0  0  0  0
  -24.5230  -15.9910   20.7250 H   0  0  0  0  0  0  0  0  0  0  0  0
  -26.0260  -15.8600   19.9520 H   0  0  0  0  0  0  0  0  0  0  0  0
  -33.6840  -19.1100   20.7680 C   0  0  0  0  0  1  0  0  0  0  0  0
  -32.4000  -18.7640   18.7310 C   0  0  0  0  0  1  0  0  0  0  0  0
  -33.1490  -16.7770   20.2600 C   0  0  0  0  0  1  0  0  0  0  0  0
  -32.5590  -18.2210   20.1800 C   0  0  2  0  0  0  0  0  0  0  0  0
  -28.5000  -21.2140   19.9960 N   0  0  0  0  0  0  0  0  0  0  0  0
  -27.7750  -20.8920   19.3480 H   0  0  0  0  0  0  0  0  0  0  0  0
  -28.5280  -22.9020   20.1450 C   0  0  0  0  0  3  0  0  0  0  0  0
  -27.6090  -24.3420   19.4140 C   0  0  0  0  0  3  0  0  0  0  0  0
  -27.7290  -26.0250   19.4890 O   0  0  0  0  0  0  0  0  0  0  0  0
  -24.5270  -31.8390   23.1080 C   0  0  0  0  0  0  0  0  0  0  0  0
  -26.7010  -27.1360   19.5420 C   0  0  0  0  0  0  0  0  0  0  0  0
  -23.1380  -30.5320   21.5510 C   0  0  0  0  0  3  0  0  0  0  0  0
  -24.3990  -29.0260   19.8530 C   0  0  0  0  0  0  0  0  0  0  0  0
  -25.6660  -30.7750   21.0920 C   0  0  0  0  0  2  0  0  0  0  0  0
  -25.6540  -29.4070   20.3440 C   0  0  0  0  0  0  0  0  0  0  0  0
  -26.7890  -28.4920   20.1450 C   0  0  0  0  0  3  0  0  0  0  0  0
  -25.4090  -26.9260   18.9970 C   0  0  0  0  0  3  0  0  0  0  0  0
  -24.3050  -27.8170   19.1430 C   0  0  0  0  0  3  0  0  0  0  0  0
  -23.1920  -29.9340   20.1150 C   0  0  0  0  0  2  0  0  0  0  0  0
  -24.4730  -31.0710   21.9700 N   0  0  0  0  0  0  0  0  0  0  0  0
  -23.5110  -32.0870   23.7810 O   0  0  0  0  0  0  0  0  0  0  0  0
  -22.5760  -29.4740   22.5400 C   0  0  0  0  0  0  0  0  0  0  0  0
  -21.2940  -29.0880   22.3850 N   0  0  0  0  0  0  0  0  0  0  0  0
  -23.2980  -29.0050   23.4210 O   0  0  0  0  0  0  0  0  0  0  0  0
  -20.7510  -29.5310   21.6590 H   0  0  0  0  0  0  0  0  0  0  0  0
  -18.2460  -27.1290   22.6470 C   0  0  0  0  0  0  0  0  0  0  0  0
  -20.6070  -28.0520   23.1670 C   0  0  0  0  0  3  0  0  0  0  0  0
  -21.1230  -26.6390   22.8060 C   0  0  0  0  0  2  0  0  0  0  0  0
  -20.2860  -25.9540   21.7200 C   0  0  0  0  0  2  0  0  0  0  0  0
  -18.8320  -25.8100   22.1720 C   0  0  0  0  0  2  0  0  0  0  0  0
  -19.0790  -28.1880   23.0980 C   0  0  0  0  0  0  0  0  0  0  0  0
  -18.4810  -29.4050   23.4980 C   0  0  0  0  0  3  0  0  0  0  0  0
  -17.0840  -29.5730   23.4460 C   0  0  0  0  0  3  0  0  0  0  0  0
  -16.2650  -28.5170   23.0100 C   0  0  0  0  0  3  0  0  0  0  0  0
  -16.8460  -27.2970   22.6180 C   0  0  0  0  0  3  0  0  0  0  0  0
  -25.8660  -32.4590   23.6160 C   0  0  0  0  0  3  0  0  0  0  0  0
  -26.5290  -31.6260   24.7830 C   0  0  1  0  0  0  0  0  0  0  0  0
  -25.5540  -31.2800   25.9330 C   0  0  0  0  0  1  0  0  0  0  0  0
  -27.1160  -30.2980   24.2560 C   0  0  0  0  0  1  0  0  0  0  0  0
  -27.7150  -32.4200   25.3790 C   0  0  0  0  0  1  0  0  0  0  0  0
  -25.5840  -33.8320   24.0700 N   0  0  0  0  0  0  0  0  0  0  0  0
  -25.8390  -34.9470   23.3690 C   0  0  0  0  0  0  0  0  0  0  0  0
  -26.3900  -34.9220   22.2650 O   0  0  0  0  0  0  0  0  0  0  0  0
  -25.0660  -33.9170   24.9310 H   0  0  0  0  0  0  0  0  0  0  0  0
  -24.0960  -36.7650   23.3530 C   0  0  0  0  0  1  0  0  0  0  0  0
  -25.4180  -36.2980   23.9820 C   0  0  0  0  0  3  0  0  0  0  0  0
  -27.6370  -37.1350   24.6310 C   0  0  0  0  0  1  0  0  0  0  0  0
  -26.4390  -37.3600   23.8270 N   0  0  0  0  0  0  0  0  0  0  0  0
  -26.0560  -38.2710   24.0680 H   0  0  0  0  0  0  0  0  0  0  0  0
  1  3  1  0
  2  3  2  0
  3  7  1  0
  4  1  2  0
  5  2  1  0
  6  5  2  0
  6  4  1  0
  8 16  1  0
  9 14  1  0
 10 11  1  0
 10  9  1  0
 12 11  1  0
 12 21  1  0
 12 13  1  0
 14  8  1  0
 14 13  1  0
 15  8  2  0
 16  6  1  0
 17 16  1  0
 18 19  2  0
 19 38  1  0
 20 23  1  0
 20 19  1  0
 21 22  1  0
 21 18  1  0
 22 20  2  0
 23 24  1  0
 24 25  2  0
 26 29  1  0
 26 25  1  0
 27 26  2  0
 28 27  1  0
 28 23  2  0
 29 30  1  0
 30 31  1  0
 31 32  2  0
 33 32  1  0
 33 37  1  0
 34 33  2  0
 35 30  2  0
 35 34  1  0
 36 35  1  0
 38 39  1  0
 39 41  1  0
 39 42  1  0
 40 38  2  0
 43 18  1  0
 43 44  1  0
 45 43  1  0
 49 47  1  6
 49 48  1  0
 49 46  1  0
 49  4  1  0
 50 52  1  0
 50  5  1  0
 51 50  1  0
 53 54  1  0
 53 52  2  0
 54 56  1  0
 55 66  2  0
 56 61  1  0
 57 65  1  0
 57 67  1  0
 58 64  1  0
 58 60  1  0
 59 65  1  0
 60 59  1  0
 61 60  2  0
 62 63  1  0
 62 56  2  0
 63 58  2  0
 64 57  1  0
 65 55  1  0
 67 69  2  0
 68 67  1  0
 70 68  1  0
 71 76  1  0
 72 68  1  0
 73 72  1  0
 74 75  1  0
 74 73  1  0
 75 71  1  0
 76 72  1  0
 76 77  2  0
 78 77  1  0
 79 78  2  0
 80 71  2  0
 80 79  1  0
 81 55  1  0
 81 86  1  0
 81 82  1  0
 82 85  1  1
 82 83  1  0
 84 82  1  0
 86 89  1  0
 87 91  1  0
 87 86  1  0
 88 87  2  0
 91 90  1  0
 93 91  1  0
 93 94  1  0
 93 92  1  0
M  ISO  4   8 100  16 100  53 101  54 101
M  END
>  <TORSDO>  (69) 
F 20

>  <SCORE>  (69) 
-13.233

>  <name>  (69) 
69

>  <ligand_id>  (69) 
69

>  <original_smiles>  (69) 
[H]c1c([H])c([H])c2c(c1[H])C([H])([H])C([H])([H])C([H])([H])C2([H])N([H])C(=O)C1([H])N(C(=O)C([H])(N([H])C(=O)C([H])(N([H])C([H])([H])[H])C([H])([H])[H])C(C([H])([H])[H])(C([H])([H])[H])C([H])([H])[H])C([H])([H])c2c([H])c(OC([H])([H])C([H])([H])N([H])c3c([H])c(C([H])([H])[H])c([H])c(C(C([H])([H])[H])(C([H])([H])[H])C([H])([H])[H])c3N([H])C(=O)N3C([H])([H])C([H])([H])C([H])([H])C([H])(n4nc(-c5c([H])c([H])c(Oc6c([H])c([H])c(F)c([H])c6F)c([H])c5[H])c(C(=O)N([H])[H])c4N([H])[H])C3([H])[H])c([H])c([H])c2C1([H])[H]

>  <smiles>  (69) 
[H]c1c([H])c([H])c2c(c1[H])C([H])([H])C([H])([H])C([H])([H])C2([H])N([H])C(=O)C1([H])N(C(=O)C([H])(N([H])C(=O)C([H])(N([H])C([H])([H])[H])C([H])([H])[H])C(C([H])([H])[H])(C([H])([H])[H])C([H])([H])[H])C([H])([H])c2c([H])c(OC([H])([H])C([H])([H])N([H])c3c([H])c(C([H])([H])[H])c([H])c(C(C([H])([H])[H])(C([H])([H])[H])C([H])([H])[H])c3N([H])C(=O)N3C([H])([H])C([H])([H])C([H])([H])C([H])(n4nc(-c5c([H])c([H])c(Oc6c([H])c([H])c(F)c([H])c6F)c([H])c5[H])c(C(=O)N([H])[H])c4N([H])[H])C3([H])[H])c([H])c([H])c2C1([H])[H]

$$$$
70:0:0
     RDKit          3D

 93101  0  0  1  0  0  0  0  0999 V2000
  -28.9500  -22.3640   20.7440 C   0  0  0  0  0  0  0  0  0  0  0  0
  -29.1410  -21.1250   20.1380 N   0  0  0  0  0  0  0  0  0  0  0  0
  -28.8830  -22.4440   21.9730 O   0  0  0  0  0  0  0  0  0  0  0  0
  -28.9600  -21.1040   19.1420 H   0  0  0  0  0  0  0  0  0  0  0  0
  -30.4490  -19.8760   21.8640 C   0  0  0  0  0  3  0  0  0  0  0  0
  -30.9730  -18.7080   22.4430 C   0  0  0  0  0  3  0  0  0  0  0  0
  -29.6350  -19.8340   20.7080 C   0  0  0  0  0  0  0  0  0  0  0  0
  -29.9760  -17.2750   20.7140 C   0  0  0  0  0  0  0  0  0  0  0  0
  -30.7370  -17.4320   21.9040 C   0  0  0  0  0  0  0  0  0  0  0  0
  -29.4180  -18.5040   20.1420 C   0  0  0  0  0  0  0  0  0  0  0  0
  -31.3420  -16.0850   22.8120 Cl  0  0  0  0  0  0  0  0  0  0  0  0
  -28.4350  -18.3670   18.7260 Cl  0  0  0  0  0  0  0  0  0  0  0  0
  -30.4760  -14.7940   20.0090 C   0  0  0  0  0  0  0  0  0  0  0  0
  -30.2340  -12.5460   18.9380 C   0  0  0  0  0  2  0  0  0  0  0  0
  -29.2230  -12.6390   17.7740 C   0  0  0  0  0  2  0  0  0  0  0  0
  -27.7790  -12.4570   18.2860 C   0  0  0  0  0  2  0  0  0  0  0  0
  -27.4710  -13.3110   19.5460 C   0  0  0  0  0  3  0  0  0  0  0  0
  -28.5950  -13.2020   20.5950 C   0  0  0  0  0  2  0  0  0  0  0  0
  -29.8490  -13.5720   19.9270 N   0  0  0  0  0  0  0  0  0  0  0  0
  -31.6490  -14.9150   19.6450 O   0  0  0  0  0  0  0  0  0  0  0  0
  -29.6730  -15.9050   20.2230 N   0  0  0  0  0  0  0  0  0  0  0  0
  -28.6900  -15.7230   20.1110 H   0  0  0  0  0  0  0  0  0  0  0  0
  -25.1350  -13.8790   20.4480 C   0  0  0  0  0  0  0  0  0  0  0  0
  -24.0980  -13.0940   20.8690 C   0  0  0  0  0  0  0  0  0  0  0  0
  -24.5610  -11.7450   20.7790 C   0  0  0  0  0  0  0  0  0  0  0  0
  -26.1620  -13.0080   20.1160 N   0  0  0  0  0  0  0  0  0  0  0  0
  -25.8270  -11.7180   20.3810 N   0  0  0  0  0  0  0  0  0  0  0  0
  -23.8520  -10.4770   20.9900 C   0  0  0  0  0  0  0  0  0  0  0  0
  -24.3260   -9.5100   21.9050 C   0  0  0  0  0  3  0  0  0  0  0  0
  -23.6170   -8.3050   22.1020 C   0  0  0  0  0  3  0  0  0  0  0  0
  -22.4230   -8.0590   21.3840 C   0  0  0  0  0  0  0  0  0  0  0  0
  -21.9690   -9.0150   20.4580 C   0  0  0  0  0  3  0  0  0  0  0  0
  -22.6770  -10.2120   20.2590 C   0  0  0  0  0  3  0  0  0  0  0  0
  -21.6840   -6.9040   21.4890 O   0  0  0  0  0  0  0  0  0  0  0  0
  -21.6600   -6.1690   22.6460 C   0  0  0  0  0  0  0  0  0  0  0  0
  -21.2480   -6.7280   23.8760 C   0  0  0  0  0  3  0  0  0  0  0  0
  -21.1690   -5.9190   25.0270 C   0  0  0  0  0  3  0  0  0  0  0  0
  -21.4930   -4.5510   24.9500 C   0  0  0  0  0  0  0  0  0  0  0  0
  -21.8980   -3.9910   23.7260 C   0  0  0  0  0  3  0  0  0  0  0  0
  -21.9770   -4.7980   22.5770 C   0  0  0  0  0  0  0  0  0  0  0  0
  -22.3470   -4.2480   21.3950 F   0  0  0  0  0  0  0  0  0  0  0  0
  -21.4110   -3.7710   26.0530 F   0  0  0  0  0  0  0  0  0  0  0  0
  -22.7190  -13.5620   21.2370 C   0  0  0  0  0  0  0  0  0  0  0  0
  -22.0440  -12.8480   22.1300 N   0  0  0  0  0  0  0  0  0  0  0  0
  -22.2520  -14.6010   20.7690 O   0  0  0  0  0  0  0  0  0  0  0  0
  -22.4340  -12.0130   22.5390 H   0  0  0  0  0  0  0  0  0  0  0  0
  -21.1230  -13.1510   22.4150 H   0  0  0  0  0  0  0  0  0  0  0  0
  -25.2810  -15.2550   20.3000 N   0  0  0  0  0  0  0  0  0  0  0  0
  -24.5200  -15.8920   20.5000 H   0  0  0  0  0  0  0  0  0  0  0  0
  -26.0900  -15.7170   19.9110 H   0  0  0  0  0  0  0  0  0  0  0  0
  -28.7860  -23.7410   19.9370 C   0  0  0  0  0  2  0  0  0  0  0  0
  -28.1450  -25.0380   20.6820 C   0  0  0  0  0  2  0  0  0  0  0  0
  -28.3370  -26.4590   20.2190 O   0  0  0  0  0  0  0  0  0  0  0  0
  -24.6180  -31.9240   23.2540 C   0  0  0  0  0  0  0  0  0  0  0  0
  -27.2280  -27.3310   20.2180 C   0  0  0  0  0  0  0  0  0  0  0  0
  -23.4120  -30.5110   21.6260 C   0  0  0  0  0  3  0  0  0  0  0  0
  -24.8640  -28.9530   20.2050 C   0  0  0  0  0  0  0  0  0  0  0  0
  -25.9500  -30.8350   21.4300 C   0  0  0  0  0  2  0  0  0  0  0  0
  -26.0340  -29.4480   20.7940 C   0  0  0  0  0  0  0  0  0  0  0  0
  -27.2220  -28.6490   20.7860 C   0  0  0  0  0  3  0  0  0  0  0  0
  -26.0330  -26.8970   19.6050 C   0  0  0  0  0  3  0  0  0  0  0  0
  -24.8670  -27.6860   19.6020 C   0  0  0  0  0  3  0  0  0  0  0  0
  -23.6230  -29.8240   20.2510 C   0  0  0  0  0  2  0  0  0  0  0  0
  -24.6790  -31.1100   22.1600 N   0  0  0  0  0  0  0  0  0  0  0  0
  -23.5370  -32.1990   23.7940 O   0  0  0  0  0  0  0  0  0  0  0  0
  -22.7590  -29.4990   22.5990 C   0  0  0  0  0  0  0  0  0  0  0  0
  -21.4320  -29.3120   22.4780 N   0  0  0  0  0  0  0  0  0  0  0  0
  -23.4430  -28.8880   23.4240 O   0  0  0  0  0  0  0  0  0  0  0  0
  -20.9370  -29.8630   21.7900 H   0  0  0  0  0  0  0  0  0  0  0  0
  -18.0710  -28.0690   22.9710 C   0  0  0  0  0  0  0  0  0  0  0  0
  -20.6220  -28.3740   23.2570 C   0  0  0  0  0  3  0  0  0  0  0  0
  -20.7510  -26.9350   22.7040 C   0  0  0  0  0  2  0  0  0  0  0  0
  -19.6640  -26.5820   21.6840 C   0  0  0  0  0  2  0  0  0  0  0  0
  -18.2750  -26.7140   22.3150 C   0  0  0  0  0  2  0  0  0  0  0  0
  -19.1730  -28.8550   23.3980 C   0  0  0  0  0  0  0  0  0  0  0  0
  -18.9290  -30.1220   23.9720 C   0  0  0  0  0  3  0  0  0  0  0  0
  -17.6120  -30.6040   24.1220 C   0  0  0  0  0  3  0  0  0  0  0  0
  -16.5250  -29.8160   23.7090 C   0  0  0  0  0  3  0  0  0  0  0  0
  -16.7550  -28.5500   23.1390 C   0  0  0  0  0  3  0  0  0  0  0  0
  -25.9020  -32.5650   23.8660 C   0  0  0  0  0  3  0  0  0  0  0  0
  -26.4310  -31.8000   25.1420 C   0  0  1  0  0  0  0  0  0  0  0  0
  -25.3440  -31.5610   26.2160 C   0  0  0  0  0  1  0  0  0  0  0  0
  -27.0160  -30.4230   24.7510 C   0  0  0  0  0  1  0  0  0  0  0  0
  -27.5810  -32.6010   25.7960 C   0  0  0  0  0  1  0  0  0  0  0  0
  -25.5870  -33.9620   24.1990 N   0  0  0  0  0  0  0  0  0  0  0  0
  -25.9080  -35.0180   23.4390 C   0  0  0  0  0  0  0  0  0  0  0  0
  -26.5710  -34.9180   22.4030 O   0  0  0  0  0  0  0  0  0  0  0  0
  -24.9980  -34.1140   25.0040 H   0  0  0  0  0  0  0  0  0  0  0  0
  -24.1700  -36.8040   23.0970 C   0  0  0  0  0  1  0  0  0  0  0  0
  -25.4180  -36.4050   23.9000 C   0  0  0  0  0  3  0  0  0  0  0  0
  -27.5520  -37.2990   24.7200 C   0  0  0  0  0  1  0  0  0  0  0  0
  -26.4450  -37.4620   23.7820 N   0  0  0  0  0  0  0  0  0  0  0  0
  -26.0350  -38.3800   23.9310 H   0  0  0  0  0  0  0  0  0  0  0  0
  1  3  2  0
  2  7  1  0
  2  1  1  0
  4  2  1  0
  5  6  1  0
  7  5  2  0
  8  9  1  0
  9  6  2  0
  9 11  1  0
 10  7  1  0
 10  8  2  0
 12 10  1  0
 13 21  1  0
 14 19  1  0
 15 16  1  0
 15 14  1  0
 17 16  1  0
 17 26  1  0
 17 18  1  0
 19 13  1  0
 19 18  1  0
 20 13  2  0
 21  8  1  0
 22 21  1  0
 23 24  2  0
 24 43  1  0
 25 24  1  0
 25 28  1  0
 26 27  1  0
 26 23  1  0
 27 25  2  0
 28 29  1  0
 29 30  2  0
 31 34  1  0
 31 30  1  0
 32 31  2  0
 33 32  1  0
 33 28  2  0
 34 35  1  0
 35 36  1  0
 36 37  2  0
 38 37  1  0
 38 42  1  0
 39 38  2  0
 40 35  2  0
 40 39  1  0
 41 40  1  0
 43 44  1  0
 44 47  1  0
 44 46  1  0
 45 43  2  0
 48 23  1  0
 48 49  1  0
 50 48  1  0
 51 52  1  0
 51  1  1  0
 53 52  1  0
 54 65  2  0
 55 53  1  0
 55 60  1  0
 56 64  1  0
 56 66  1  0
 57 63  1  0
 57 59  1  0
 58 64  1  0
 59 58  1  0
 60 59  2  0
 61 55  2  0
 62 61  1  0
 62 57  2  0
 63 56  1  0
 64 54  1  0
 66 68  2  0
 67 66  1  0
 69 67  1  0
 70 79  2  0
 70 75  1  0
 71 67  1  0
 71 75  1  0
 72 71  1  0
 73 74  1  0
 73 72  1  0
 74 70  1  0
 75 76  2  0
 76 77  1  0
 78 77  2  0
 79 78  1  0
 80 54  1  0
 80 85  1  0
 80 81  1  0
 81 84  1  1
 81 82  1  0
 83 81  1  0
 85 88  1  0
 86 90  1  0
 86 85  1  0
 87 86  2  0
 90 89  1  0
 92 90  1  0
 92 93  1  0
 92 91  1  0
M  ISO  4  13 100  21 100  52 101  53 101
M  END
>  <TORSDO>  (70) 
F 19

>  <SCORE>  (70) 
-13.560

>  <name>  (70) 
70

>  <ligand_id>  (70) 
70

>  <original_smiles>  (70) 
[H]c1c([H])c([H])c2c(c1[H])C([H])([H])C([H])([H])C([H])([H])C2([H])N([H])C(=O)C1([H])N(C(=O)C([H])(N([H])C(=O)C([H])(N([H])C([H])([H])[H])C([H])([H])[H])C(C([H])([H])[H])(C([H])([H])[H])C([H])([H])[H])C([H])([H])c2c([H])c(OC([H])([H])C([H])([H])C(=O)N([H])c3c([H])c([H])c(Cl)c(N([H])C(=O)N4C([H])([H])C([H])([H])C([H])([H])C([H])(n5nc(-c6c([H])c([H])c(Oc7c([H])c([H])c(F)c([H])c7F)c([H])c6[H])c(C(=O)N([H])[H])c5N([H])[H])C4([H])[H])c3Cl)c([H])c([H])c2C1([H])[H]

>  <smiles>  (70) 
[H]c1c([H])c([H])c2c(c1[H])C([H])([H])C([H])([H])C([H])([H])C2([H])N([H])C(=O)C1([H])N(C(=O)C([H])(N([H])C(=O)C([H])(N([H])C([H])([H])[H])C([H])([H])[H])C(C([H])([H])[H])(C([H])([H])[H])C([H])([H])[H])C([H])([H])c2c([H])c(OC([H])([H])C([H])([H])C(=O)N([H])c3c([H])c([H])c(Cl)c(N([H])C(=O)N4C([H])([H])C([H])([H])C([H])([H])C([H])(n5nc(-c6c([H])c([H])c(Oc7c([H])c([H])c(F)c([H])c7F)c([H])c6[H])c(C(=O)N([H])[H])c5N([H])[H])C4([H])[H])c3Cl)c([H])c([H])c2C1([H])[H]

$$$$
71:0:0
     RDKit          3D

 96104  0  0  1  0  0  0  0  0999 V2000
  -29.1400  -18.2330   19.4250 C   0  0  0  0  0  3  0  0  0  0  0  0
  -30.7880  -18.7360   21.0030 C   0  0  0  0  0  3  0  0  0  0  0  0
  -28.8870  -19.6620   19.2560 C   0  0  0  0  0  0  0  0  0  0  0  0
  -30.1160  -17.6660   20.3010 C   0  0  0  0  0  0  0  0  0  0  0  0
  -30.5480  -20.1760   20.8670 C   0  0  0  0  0  0  0  0  0  0  0  0
  -29.6070  -20.7380   19.9270 C   0  0  0  0  0  0  0  0  0  0  0  0
  -27.7120  -19.9900   18.3450 C   0  0  0  0  0  1  0  0  0  0  0  0
  -30.8510  -15.0520   19.9490 C   0  0  0  0  0  0  0  0  0  0  0  0
  -30.6280  -12.7270   18.9280 C   0  0  0  0  0  2  0  0  0  0  0  0
  -29.6030  -12.6940   17.7680 C   0  0  0  0  0  2  0  0  0  0  0  0
  -28.1750  -12.4750   18.3010 C   0  0  0  0  0  2  0  0  0  0  0  0
  -27.8610  -13.3890   19.5110 C   0  0  0  0  0  3  0  0  0  0  0  0
  -28.9870  -13.3570   20.5570 C   0  0  0  0  0  2  0  0  0  0  0  0
  -30.2330  -13.7930   19.9000 N   0  0  0  0  0  0  0  0  0  0  0  0
  -31.9340  -15.1600   19.3600 O   0  0  0  0  0  0  0  0  0  0  0  0
  -30.2790  -15.9360   22.1070 C   0  0  0  0  0  1  0  0  0  0  0  0
  -30.2850  -16.1650   20.6480 N   0  0  0  0  0  0  0  0  0  0  0  0
  -25.5690  -13.9770   20.4990 C   0  0  0  0  0  0  0  0  0  0  0  0
  -24.5230  -13.2020   20.9200 C   0  0  0  0  0  0  0  0  0  0  0  0
  -24.9480  -11.8480   20.7680 C   0  0  0  0  0  0  0  0  0  0  0  0
  -26.5620  -13.0920   20.1090 N   0  0  0  0  0  0  0  0  0  0  0  0
  -26.2030  -11.8020   20.3380 N   0  0  0  0  0  0  0  0  0  0  0  0
  -24.2110  -10.5910   20.9540 C   0  0  0  0  0  0  0  0  0  0  0  0
  -24.6440   -9.6080   21.8700 C   0  0  0  0  0  3  0  0  0  0  0  0
  -23.9060   -8.4180   22.0430 C   0  0  0  0  0  3  0  0  0  0  0  0
  -22.7220   -8.2020   21.2970 C   0  0  0  0  0  0  0  0  0  0  0  0
  -22.3100   -9.1720   20.3680 C   0  0  0  0  0  3  0  0  0  0  0  0
  -23.0480  -10.3550   20.1940 C   0  0  0  0  0  3  0  0  0  0  0  0
  -21.9550   -7.0650   21.3810 O   0  0  0  0  0  0  0  0  0  0  0  0
  -21.8080   -6.3800   22.5610 C   0  0  0  0  0  0  0  0  0  0  0  0
  -21.2760   -6.9920   23.7170 C   0  0  0  0  0  3  0  0  0  0  0  0
  -21.0760   -6.2320   24.8870 C   0  0  0  0  0  3  0  0  0  0  0  0
  -21.4000   -4.8620   24.9010 C   0  0  0  0  0  0  0  0  0  0  0  0
  -21.9260   -4.2500   23.7500 C   0  0  0  0  0  3  0  0  0  0  0  0
  -22.1250   -5.0060   22.5810 C   0  0  0  0  0  0  0  0  0  0  0  0
  -22.6110   -4.4070   21.4680 F   0  0  0  0  0  0  0  0  0  0  0  0
  -21.2020   -4.1290   26.0220 F   0  0  0  0  0  0  0  0  0  0  0  0
  -23.1680  -13.6910   21.3430 C   0  0  0  0  0  0  0  0  0  0  0  0
  -22.5120  -12.9710   22.2470 N   0  0  0  0  0  0  0  0  0  0  0  0
  -22.7040  -14.7440   20.9090 O   0  0  0  0  0  0  0  0  0  0  0  0
  -22.9010  -12.1190   22.6240 H   0  0  0  0  0  0  0  0  0  0  0  0
  -21.6040  -13.2770   22.5680 H   0  0  0  0  0  0  0  0  0  0  0  0
  -25.7540  -15.3520   20.3910 N   0  0  0  0  0  0  0  0  0  0  0  0
  -25.0340  -16.0240   20.6380 H   0  0  0  0  0  0  0  0  0  0  0  0
  -26.5970  -15.7880   20.0410 H   0  0  0  0  0  0  0  0  0  0  0  0
  -29.1330  -23.4480   20.2780 C   0  0  0  0  0  0  0  0  0  0  0  0
  -29.7400  -22.5300   18.1460 C   0  0  0  0  0  1  0  0  0  0  0  0
  -29.4280  -22.2440   19.5530 N   0  0  0  0  0  0  0  0  0  0  0  0
  -29.2860  -23.4800   21.5010 O   0  0  0  0  0  0  0  0  0  0  0  0
  -28.5280  -24.8400   19.5800 C   0  0  0  0  0  2  0  0  0  0  0  0
  -28.5160  -26.2610   20.2300 O   0  0  0  0  0  0  0  0  0  0  0  0
  -24.5570  -31.7200   23.1660 C   0  0  0  0  0  0  0  0  0  0  0  0
  -27.4300  -27.2090   20.0950 C   0  0  0  0  0  0  0  0  0  0  0  0
  -23.4720  -30.3340   21.4390 C   0  0  0  0  0  3  0  0  0  0  0  0
  -25.0350  -28.8700   20.0190 C   0  0  0  0  0  0  0  0  0  0  0  0
  -26.0170  -30.7020   21.3820 C   0  0  0  0  0  2  0  0  0  0  0  0
  -26.1700  -29.3350   20.6930 C   0  0  0  0  0  0  0  0  0  0  0  0
  -27.3620  -28.5190   20.7220 C   0  0  0  0  0  3  0  0  0  0  0  0
  -26.2700  -26.8600   19.3640 C   0  0  0  0  0  3  0  0  0  0  0  0
  -25.1010  -27.6470   19.3370 C   0  0  0  0  0  3  0  0  0  0  0  0
  -23.7690  -29.7120   20.0490 C   0  0  0  0  0  2  0  0  0  0  0  0
  -24.7000  -30.9400   22.0520 N   0  0  0  0  0  0  0  0  0  0  0  0
  -23.4440  -31.9440   23.6650 O   0  0  0  0  0  0  0  0  0  0  0  0
  -22.7990  -29.2710   22.3450 C   0  0  0  0  0  0  0  0  0  0  0  0
  -21.4740  -29.0910   22.2030 N   0  0  0  0  0  0  0  0  0  0  0  0
  -23.4750  -28.6100   23.1370 O   0  0  0  0  0  0  0  0  0  0  0  0
  -20.9800  -29.6830   21.5490 H   0  0  0  0  0  0  0  0  0  0  0  0
  -18.1020  -27.8480   22.6580 C   0  0  0  0  0  0  0  0  0  0  0  0
  -20.6610  -28.1070   22.9230 C   0  0  0  0  0  3  0  0  0  0  0  0
  -20.7640  -26.7090   22.2700 C   0  0  0  0  0  2  0  0  0  0  0  0
  -19.6600  -26.4390   21.2430 C   0  0  0  0  0  2  0  0  0  0  0  0
  -18.2810  -26.5420   21.9030 C   0  0  0  0  0  2  0  0  0  0  0  0
  -19.2200  -28.5900   23.1240 C   0  0  0  0  0  0  0  0  0  0  0  0
  -18.9990  -29.8120   23.7950 C   0  0  0  0  0  3  0  0  0  0  0  0
  -17.6940  -30.2970   23.9980 C   0  0  0  0  0  3  0  0  0  0  0  0
  -16.5900  -29.5530   23.5470 C   0  0  0  0  0  3  0  0  0  0  0  0
  -16.7950  -28.3290   22.8850 C   0  0  0  0  0  3  0  0  0  0  0  0
  -25.7870  -32.3880   23.8550 C   0  0  0  0  0  3  0  0  0  0  0  0
  -26.2450  -31.6390   25.1680 C   0  0  1  0  0  0  0  0  0  0  0  0
  -25.1010  -31.4010   26.1800 C   0  0  0  0  0  1  0  0  0  0  0  0
  -26.8640  -30.2630   24.8310 C   0  0  0  0  0  1  0  0  0  0  0  0
  -27.3480  -32.4560   25.8820 C   0  0  0  0  0  1  0  0  0  0  0  0
  -25.4270  -33.7820   24.1610 N   0  0  0  0  0  0  0  0  0  0  0  0
  -25.7600  -34.8400   23.4090 C   0  0  0  0  0  0  0  0  0  0  0  0
  -26.4680  -34.7480   22.4030 O   0  0  0  0  0  0  0  0  0  0  0  0
  -24.8010  -33.9240   24.9390 H   0  0  0  0  0  0  0  0  0  0  0  0
  -23.9940  -36.5880   23.0000 C   0  0  0  0  0  1  0  0  0  0  0  0
  -25.2250  -36.2200   23.8430 C   0  0  0  0  0  3  0  0  0  0  0  0
  -27.3100  -37.1730   24.7220 C   0  0  0  0  0  1  0  0  0  0  0  0
  -26.2300  -37.3000   23.7470 N   0  0  0  0  0  0  0  0  0  0  0  0
  -25.7940  -38.2080   23.8780 H   0  0  0  0  0  0  0  0  0  0  0  0
  -31.2730  -21.0670   21.6760 N   0  0  0  0  0  0  0  0  0  0  0  0
  -30.9210  -22.0240   21.5960 H   0  0  0  0  0  0  0  0  0  0  0  0
  -30.6520  -21.5290   24.0160 C   0  0  0  0  0  1  0  0  0  0  0  0
  -33.0030  -20.8550   23.3980 C   0  0  0  0  0  1  0  0  0  0  0  0
  -31.5180  -20.6930   23.0670 C   0  0  0  0  0  3  0  0  0  0  0  0
  1  4  1  0
  3  1  2  0
  3  6  1  0
  4 17  1  0
  4  2  2  0
  5  2  1  0
  5 92  1  0
  6  5  2  0
  7  3  1  0
  8 17  1  0
  9 14  1  0
 10 11  1  0
 10  9  1  0
 12 11  1  0
 12 21  1  0
 12 13  1  0
 14  8  1  0
 14 13  1  0
 15  8  2  0
 17 16  1  0
 18 19  2  0
 19 38  1  0
 20 19  1  0
 20 23  1  0
 21 22  1  0
 21 18  1  0
 22 20  2  0
 23 24  1  0
 24 25  2  0
 26 29  1  0
 26 25  1  0
 27 26  2  0
 28 27  1  0
 28 23  2  0
 29 30  1  0
 30 35  2  0
 30 31  1  0
 31 32  2  0
 32 33  1  0
 33 37  1  0
 34 33  2  0
 35 34  1  0
 36 35  1  0
 38 39  1  0
 39 42  1  0
 39 41  1  0
 40 38  2  0
 43 18  1  0
 43 44  1  0
 45 43  1  0
 46 49  2  0
 47 48  1  0
 48  6  1  0
 48 46  1  0
 50 51  1  0
 50 46  1  0
 52 63  2  0
 53 51  1  0
 53 58  1  0
 54 62  1  0
 54 64  1  0
 55 61  1  0
 55 57  1  0
 56 62  1  0
 57 58  2  0
 57 56  1  0
 59 53  2  0
 60 59  1  0
 60 55  2  0
 61 54  1  0
 62 52  1  0
 64 66  2  0
 65 64  1  0
 67 65  1  0
 68 77  2  0
 68 73  1  0
 69 65  1  0
 69 73  1  0
 70 69  1  0
 71 72  1  0
 71 70  1  0
 72 68  1  0
 73 74  2  0
 74 75  1  0
 76 75  2  0
 77 76  1  0
 78 52  1  0
 78 83  1  0
 78 79  1  0
 79 82  1  1
 79 80  1  0
 81 79  1  0
 83 86  1  0
 84 88  1  0
 84 83  1  0
 85 84  2  0
 88 87  1  0
 90 88  1  0
 90 91  1  0
 90 89  1  0
 92 96  1  0
 93 92  1  0
 96 95  1  0
 96 94  1  0
M  ISO  4   8 100  17 100  50 101  51 101
M  END
>  <TORSDO>  (71) 
F 20

>  <SCORE>  (71) 
-13.950

>  <name>  (71) 
71

>  <ligand_id>  (71) 
71

>  <original_smiles>  (71) 
[H]c1c([H])c([H])c2c(c1[H])C([H])([H])C([H])([H])C([H])([H])C2([H])N([H])C(=O)C1([H])N(C(=O)C([H])(N([H])C(=O)C([H])(N([H])C([H])([H])[H])C([H])([H])[H])C(C([H])([H])[H])(C([H])([H])[H])C([H])([H])[H])C([H])([H])c2c([H])c(OC([H])([H])C(=O)N(c3c(N([H])C([H])(C([H])([H])[H])C([H])([H])[H])c([H])c(N(C(=O)N4C([H])([H])C([H])([H])C([H])([H])C([H])(n5nc(-c6c([H])c([H])c(Oc7c([H])c([H])c(F)c([H])c7F)c([H])c6[H])c(C(=O)N([H])[H])c5N([H])[H])C4([H])[H])C([H])([H])[H])c([H])c3C([H])([H])[H])C([H])([H])[H])c([H])c([H])c2C1([H])[H]

>  <smiles>  (71) 
[H]c1c([H])c([H])c2c(c1[H])C([H])([H])C([H])([H])C([H])([H])C2([H])N([H])C(=O)C1([H])N(C(=O)C([H])(N([H])C(=O)C([H])(N([H])C([H])([H])[H])C([H])([H])[H])C(C([H])([H])[H])(C([H])([H])[H])C([H])([H])[H])C([H])([H])c2c([H])c(OC([H])([H])C(=O)N(c3c(N([H])C([H])(C([H])([H])[H])C([H])([H])[H])c([H])c(N(C(=O)N4C([H])([H])C([H])([H])C([H])([H])C([H])(n5nc(-c6c([H])c([H])c(Oc7c([H])c([H])c(F)c([H])c7F)c([H])c6[H])c(C(=O)N([H])[H])c5N([H])[H])C4([H])[H])C([H])([H])[H])c([H])c3C([H])([H])[H])C([H])([H])[H])c([H])c([H])c2C1([H])[H]

$$$$
72:0:0
     RDKit          3D

 92100  0  0  1  0  0  0  0  0999 V2000
  -30.7040  -18.4170   19.5300 C   0  0  0  0  0  3  0  0  0  0  0  0
  -28.4110  -19.7410   20.4060 C   0  0  0  0  0  3  0  0  0  0  0  0
  -29.7170  -17.5490   20.1000 C   0  0  0  0  0  0  0  0  0  0  0  0
  -29.3760  -20.6110   19.8010 C   0  0  0  0  0  0  0  0  0  0  0  0
  -28.5710  -18.3010   20.5360 C   0  0  0  0  0  0  0  0  0  0  0  0
  -30.5340  -19.8560   19.3810 C   0  0  0  0  0  0  0  0  0  0  0  0
  -27.5530  -17.5990   21.0890 F   0  0  0  0  0  0  0  0  0  0  0  0
  -31.5350  -20.5430   18.7770 F   0  0  0  0  0  0  0  0  0  0  0  0
  -30.4980  -14.9140   19.8200 C   0  0  0  0  0  0  0  0  0  0  0  0
  -30.2880  -12.5990   18.8190 C   0  0  0  0  0  2  0  0  0  0  0  0
  -29.2610  -12.6430   17.6640 C   0  0  0  0  0  2  0  0  0  0  0  0
  -27.8270  -12.4500   18.1920 C   0  0  0  0  0  2  0  0  0  0  0  0
  -27.5340  -13.3170   19.4430 C   0  0  0  0  0  3  0  0  0  0  0  0
  -28.6740  -13.2380   20.4830 C   0  0  0  0  0  2  0  0  0  0  0  0
  -29.9120  -13.6500   19.8050 N   0  0  0  0  0  0  0  0  0  0  0  0
  -31.6440  -15.0290   19.3740 O   0  0  0  0  0  0  0  0  0  0  0  0
  -29.7140  -16.0220   20.2140 N   0  0  0  0  0  0  0  0  0  0  0  0
  -28.8680  -15.6990   20.6590 H   0  0  0  0  0  0  0  0  0  0  0  0
  -25.2080  -13.8970   20.3490 C   0  0  0  0  0  0  0  0  0  0  0  0
  -24.1700  -13.1220   20.7870 C   0  0  0  0  0  0  0  0  0  0  0  0
  -24.6240  -11.7690   20.7070 C   0  0  0  0  0  0  0  0  0  0  0  0
  -26.2300  -13.0180   20.0280 N   0  0  0  0  0  0  0  0  0  0  0  0
  -25.8910  -11.7320   20.3060 N   0  0  0  0  0  0  0  0  0  0  0  0
  -23.9070  -10.5080   20.9350 C   0  0  0  0  0  0  0  0  0  0  0  0
  -24.3870   -9.5350   21.8400 C   0  0  0  0  0  3  0  0  0  0  0  0
  -23.6660   -8.3410   22.0560 C   0  0  0  0  0  3  0  0  0  0  0  0
  -22.4520   -8.1100   21.3680 C   0  0  0  0  0  0  0  0  0  0  0  0
  -21.9900   -9.0710   20.4510 C   0  0  0  0  0  3  0  0  0  0  0  0
  -22.7110  -10.2570   20.2330 C   0  0  0  0  0  3  0  0  0  0  0  0
  -21.6990   -6.9690   21.4950 O   0  0  0  0  0  0  0  0  0  0  0  0
  -21.7010   -6.2300   22.6510 C   0  0  0  0  0  0  0  0  0  0  0  0
  -21.3240   -6.7900   23.8910 C   0  0  0  0  0  3  0  0  0  0  0  0
  -21.2710   -5.9780   25.0430 C   0  0  0  0  0  3  0  0  0  0  0  0
  -21.5850   -4.6090   24.9540 C   0  0  0  0  0  0  0  0  0  0  0  0
  -21.9560   -4.0490   23.7190 C   0  0  0  0  0  3  0  0  0  0  0  0
  -22.0100   -4.8570   22.5700 C   0  0  0  0  0  0  0  0  0  0  0  0
  -22.3460   -4.3090   21.3780 F   0  0  0  0  0  0  0  0  0  0  0  0
  -21.5270   -3.8280   26.0590 F   0  0  0  0  0  0  0  0  0  0  0  0
  -22.7970  -13.6020   21.1620 C   0  0  0  0  0  0  0  0  0  0  0  0
  -22.1290  -12.9070   22.0750 N   0  0  0  0  0  0  0  0  0  0  0  0
  -22.3290  -14.6320   20.6790 O   0  0  0  0  0  0  0  0  0  0  0  0
  -22.5230  -12.0750   22.4900 H   0  0  0  0  0  0  0  0  0  0  0  0
  -21.2120  -13.2160   22.3660 H   0  0  0  0  0  0  0  0  0  0  0  0
  -25.3590  -15.2710   20.1780 N   0  0  0  0  0  0  0  0  0  0  0  0
  -24.6020  -15.9180   20.3660 H   0  0  0  0  0  0  0  0  0  0  0  0
  -26.1790  -15.7240   19.7960 H   0  0  0  0  0  0  0  0  0  0  0  0
  -29.2400  -22.0640   19.4870 N   0  0  0  0  0  0  0  0  0  0  0  0
  -29.9410  -22.3180   18.7930 H   0  0  0  0  0  0  0  0  0  0  0  0
  -27.4530  -23.0390   21.0180 C   0  0  0  0  0  1  0  0  0  0  0  0
  -28.7140  -23.3440   20.2050 C   0  0  0  0  0  3  0  0  0  0  0  0
  -28.4610  -24.7720   19.3480 C   0  0  0  0  0  2  0  0  0  0  0  0
  -28.4020  -26.2270   19.8910 O   0  0  0  0  0  0  0  0  0  0  0  0
  -24.6200  -31.7030   22.9990 C   0  0  0  0  0  0  0  0  0  0  0  0
  -27.2960  -27.1490   19.8150 C   0  0  0  0  0  0  0  0  0  0  0  0
  -23.4480  -30.3380   21.3110 C   0  0  0  0  0  3  0  0  0  0  0  0
  -24.9260  -28.8370   19.8390 C   0  0  0  0  0  0  0  0  0  0  0  0
  -25.9960  -30.6560   21.1620 C   0  0  0  0  0  2  0  0  0  0  0  0
  -26.0930  -29.2890   20.4660 C   0  0  0  0  0  0  0  0  0  0  0  0
  -27.2730  -28.4580   20.4410 C   0  0  0  0  0  3  0  0  0  0  0  0
  -26.0970  -26.7940   19.1540 C   0  0  0  0  0  3  0  0  0  0  0  0
  -24.9390  -27.6030   19.1690 C   0  0  0  0  0  3  0  0  0  0  0  0
  -23.6840  -29.7110   19.9120 C   0  0  0  0  0  2  0  0  0  0  0  0
  -24.7080  -30.9190   21.8800 N   0  0  0  0  0  0  0  0  0  0  0  0
  -23.5280  -31.9530   23.5310 O   0  0  0  0  0  0  0  0  0  0  0  0
  -22.7840  -29.2900   22.2390 C   0  0  0  0  0  0  0  0  0  0  0  0
  -21.4530  -29.1270   22.1270 N   0  0  0  0  0  0  0  0  0  0  0  0
  -23.4660  -28.6290   23.0250 O   0  0  0  0  0  0  0  0  0  0  0  0
  -20.9570  -29.7180   21.4750 H   0  0  0  0  0  0  0  0  0  0  0  0
  -18.0720  -27.9370   22.6610 C   0  0  0  0  0  0  0  0  0  0  0  0
  -20.6420  -28.1580   22.8690 C   0  0  0  0  0  3  0  0  0  0  0  0
  -20.7080  -26.7570   22.2180 C   0  0  0  0  0  2  0  0  0  0  0  0
  -19.5760  -26.5000   21.2190 C   0  0  0  0  0  2  0  0  0  0  0  0
  -18.2140  -26.6240   21.9090 C   0  0  0  0  0  2  0  0  0  0  0  0
  -19.2110  -28.6640   23.0980 C   0  0  0  0  0  0  0  0  0  0  0  0
  -19.0220  -29.8930   23.7670 C   0  0  0  0  0  3  0  0  0  0  0  0
  -17.7270  -30.3960   23.9970 C   0  0  0  0  0  3  0  0  0  0  0  0
  -16.6050  -29.6660   23.5720 C   0  0  0  0  0  3  0  0  0  0  0  0
  -16.7780  -28.4360   22.9110 C   0  0  0  0  0  3  0  0  0  0  0  0
  -25.8850  -32.3390   23.6520 C   0  0  0  0  0  3  0  0  0  0  0  0
  -26.4070  -31.5370   24.9070 C   0  0  1  0  0  0  0  0  0  0  0  0
  -25.3160  -31.2540   25.9660 C   0  0  0  0  0  1  0  0  0  0  0  0
  -27.0090  -30.1780   24.4770 C   0  0  0  0  0  1  0  0  0  0  0  0
  -27.5440  -32.3260   25.5950 C   0  0  0  0  0  1  0  0  0  0  0  0
  -25.5460  -33.7200   24.0330 N   0  0  0  0  0  0  0  0  0  0  0  0
  -25.8640  -34.8090   23.3210 C   0  0  0  0  0  0  0  0  0  0  0  0
  -26.5410  -34.7580   22.2900 O   0  0  0  0  0  0  0  0  0  0  0  0
  -24.9430  -33.8320   24.8350 H   0  0  0  0  0  0  0  0  0  0  0  0
  -24.1050  -36.5890   23.0390 C   0  0  0  0  0  1  0  0  0  0  0  0
  -25.3540  -36.1720   23.8320 C   0  0  0  0  0  3  0  0  0  0  0  0
  -27.4720  -37.0630   24.6980 C   0  0  0  0  0  1  0  0  0  0  0  0
  -26.3690  -37.2450   23.7600 N   0  0  0  0  0  0  0  0  0  0  0  0
  -25.9470  -38.1530   23.9380 H   0  0  0  0  0  0  0  0  0  0  0  0
  1  3  1  0
  2  5  1  0
  3 17  1  0
  3  5  2  0
  4  2  2  0
  5  7  1  0
  6  1  2  0
  6  4  1  0
  8  6  1  0
  9 17  1  0
 10 15  1  0
 11 12  1  0
 11 10  1  0
 13 12  1  0
 13 22  1  0
 13 14  1  0
 15  9  1  0
 15 14  1  0
 16  9  2  0
 17 18  1  0
 19 20  2  0
 20 39  1  0
 21 20  1  0
 21 24  1  0
 22 23  1  0
 22 19  1  0
 23 21  2  0
 24 25  1  0
 25 26  2  0
 27 30  1  0
 27 26  1  0
 28 27  2  0
 29 28  1  0
 29 24  2  0
 30 31  1  0
 31 32  1  0
 32 33  2  0
 34 33  1  0
 34 38  1  0
 35 34  2  0
 36 31  2  0
 36 35  1  0
 37 36  1  0
 39 40  1  0
 40 43  1  0
 40 42  1  0
 41 39  2  0
 44 19  1  0
 44 45  1  0
 46 44  1  0
 47  4  1  0
 47 50  1  0
 48 47  1  0
 50 49  1  0
 51 52  1  0
 51 50  1  0
 53 64  2  0
 54 52  1  0
 54 59  1  0
 55 63  1  0
 55 65  1  0
 56 62  1  0
 56 58  1  0
 57 63  1  0
 58 57  1  0
 59 58  2  0
 60 61  1  0
 60 54  2  0
 61 56  2  0
 62 55  1  0
 63 53  1  0
 65 67  2  0
 66 65  1  0
 68 66  1  0
 69 78  2  0
 69 74  1  0
 70 66  1  0
 70 74  1  0
 71 70  1  0
 72 73  1  0
 72 71  1  0
 73 69  1  0
 74 75  2  0
 75 76  1  0
 77 76  2  0
 78 77  1  0
 79 53  1  0
 79 84  1  0
 79 80  1  0
 80 83  1  1
 80 81  1  0
 82 80  1  0
 84 87  1  0
 85 89  1  0
 85 84  1  0
 86 85  2  0
 89 88  1  0
 91 89  1  0
 91 92  1  0
 91 90  1  0
M  ISO  4   9 100  17 100  51 101  52 101
M  END
>  <TORSDO>  (72) 
F 19

>  <SCORE>  (72) 
-13.595

>  <name>  (72) 
72

>  <ligand_id>  (72) 
72

>  <original_smiles>  (72) 
[H]c1c([H])c([H])c2c(c1[H])C([H])([H])C([H])([H])C([H])([H])C2([H])N([H])C(=O)C1([H])N(C(=O)C([H])(N([H])C(=O)C([H])(N([H])C([H])([H])[H])C([H])([H])[H])C(C([H])([H])[H])(C([H])([H])[H])C([H])([H])[H])C([H])([H])c2c([H])c(OC([H])([H])C([H])(N([H])c3c([H])c(F)c(N([H])C(=O)N4C([H])([H])C([H])([H])C([H])([H])C([H])(n5nc(-c6c([H])c([H])c(Oc7c([H])c([H])c(F)c([H])c7F)c([H])c6[H])c(C(=O)N([H])[H])c5N([H])[H])C4([H])[H])c([H])c3F)C([H])([H])[H])c([H])c([H])c2C1([H])[H]

>  <smiles>  (72) 
[H]c1c([H])c([H])c2c(c1[H])C([H])([H])C([H])([H])C([H])([H])C2([H])N([H])C(=O)C1([H])N(C(=O)C([H])(N([H])C(=O)C([H])(N([H])C([H])([H])[H])C([H])([H])[H])C(C([H])([H])[H])(C([H])([H])[H])C([H])([H])[H])C([H])([H])c2c([H])c(OC([H])([H])C([H])(N([H])c3c([H])c(F)c(N([H])C(=O)N4C([H])([H])C([H])([H])C([H])([H])C([H])(n5nc(-c6c([H])c([H])c(Oc7c([H])c([H])c(F)c([H])c7F)c([H])c6[H])c(C(=O)N([H])[H])c5N([H])[H])C4([H])[H])c([H])c3F)C([H])([H])[H])c([H])c([H])c2C1([H])[H]

$$$$
73:0:0
     RDKit          3D

 98106  0  0  1  0  0  0  0  0999 V2000
  -29.2970  -21.3020   21.8700 C   0  0  0  0  0  2  0  0  0  0  0  0
  -28.8800  -22.4970   20.9830 C   0  0  0  0  0  0  0  0  0  0  0  0
  -29.1400  -24.0400   22.9030 C   0  0  0  0  0  1  0  0  0  0  0  0
  -28.6700  -23.7160   21.5480 N   0  0  0  0  0  0  0  0  0  0  0  0
  -28.6920  -22.2880   19.7760 O   0  0  0  0  0  0  0  0  0  0  0  0
  -26.3620  -24.2190   20.7600 C   0  0  0  0  0  1  0  0  0  0  0  0
  -27.8090  -24.7560   20.9260 C   0  0  0  0  0  3  0  0  0  0  0  0
  -28.4120  -25.3820   19.6240 C   0  0  0  0  0  2  0  0  0  0  0  0
  -28.5230  -26.8210   19.6750 O   0  0  0  0  0  0  0  0  0  0  0  0
  -24.7690  -31.7750   23.1210 C   0  0  0  0  0  0  0  0  0  0  0  0
  -27.3620  -27.5640   19.6870 C   0  0  0  0  0  0  0  0  0  0  0  0
  -23.5410  -30.4920   21.4010 C   0  0  0  0  0  3  0  0  0  0  0  0
  -24.9730  -29.0720   19.8440 C   0  0  0  0  0  0  0  0  0  0  0  0
  -26.0650  -30.8620   21.1990 C   0  0  0  0  0  2  0  0  0  0  0  0
  -26.1360  -29.5410   20.4650 C   0  0  0  0  0  0  0  0  0  0  0  0
  -27.3330  -28.7880   20.3980 C   0  0  0  0  0  3  0  0  0  0  0  0
  -26.1900  -27.1440   19.0150 C   0  0  0  0  0  3  0  0  0  0  0  0
  -24.9920  -27.8720   19.1190 C   0  0  0  0  0  3  0  0  0  0  0  0
  -23.7340  -29.9250   19.9710 C   0  0  0  0  0  2  0  0  0  0  0  0
  -24.8100  -31.0610   21.9630 N   0  0  0  0  0  0  0  0  0  0  0  0
  -23.6970  -31.9970   23.6990 O   0  0  0  0  0  0  0  0  0  0  0  0
  -22.9040  -29.4010   22.2880 C   0  0  0  0  0  0  0  0  0  0  0  0
  -21.5780  -29.2270   22.1700 N   0  0  0  0  0  0  0  0  0  0  0  0
  -23.5980  -28.7150   23.0430 O   0  0  0  0  0  0  0  0  0  0  0  0
  -21.0760  -29.8230   21.5270 H   0  0  0  0  0  0  0  0  0  0  0  0
  -18.2150  -28.0090   22.6560 C   0  0  0  0  0  0  0  0  0  0  0  0
  -20.7800  -28.2280   22.8800 C   0  0  0  0  0  3  0  0  0  0  0  0
  -20.8590  -26.8500   22.1890 C   0  0  0  0  0  2  0  0  0  0  0  0
  -19.7350  -26.6170   21.1770 C   0  0  0  0  0  2  0  0  0  0  0  0
  -18.3650  -26.7200   21.8570 C   0  0  0  0  0  2  0  0  0  0  0  0
  -19.3490  -28.7240   23.1210 C   0  0  0  0  0  0  0  0  0  0  0  0
  -19.1600  -29.9340   23.8260 C   0  0  0  0  0  3  0  0  0  0  0  0
  -17.8670  -30.4290   24.0700 C   0  0  0  0  0  3  0  0  0  0  0  0
  -16.7440  -29.7120   23.6140 C   0  0  0  0  0  3  0  0  0  0  0  0
  -16.9180  -28.5040   22.9140 C   0  0  0  0  0  3  0  0  0  0  0  0
  -26.0660  -32.3610   23.7660 C   0  0  0  0  0  3  0  0  0  0  0  0
  -25.7730  -33.7400   24.1750 N   0  0  0  0  0  0  0  0  0  0  0  0
  -26.0890  -34.8300   23.4650 C   0  0  0  0  0  0  0  0  0  0  0  0
  -26.7400  -34.7810   22.4180 O   0  0  0  0  0  0  0  0  0  0  0  0
  -25.2160  -33.8500   25.0090 H   0  0  0  0  0  0  0  0  0  0  0  0
  -24.3660  -36.6420   23.2130 C   0  0  0  0  0  1  0  0  0  0  0  0
  -25.6080  -36.1940   24.0010 C   0  0  0  0  0  3  0  0  0  0  0  0
  -27.7500  -37.0250   24.8680 C   0  0  0  0  0  1  0  0  0  0  0  0
  -26.6480  -37.2450   23.9350 N   0  0  0  0  0  0  0  0  0  0  0  0
  -26.2490  -38.1600   24.1270 H   0  0  0  0  0  0  0  0  0  0  0  0
  -26.5880  -31.5170   24.9890 C   0  0  1  0  0  0  0  0  0  0  0  0
  -25.5000  -31.2180   26.0470 C   0  0  0  0  0  1  0  0  0  0  0  0
  -27.1690  -30.1660   24.5130 C   0  0  0  0  0  1  0  0  0  0  0  0
  -27.7440  -32.2660   25.6910 C   0  0  0  0  0  1  0  0  0  0  0  0
  -29.1400  -20.0790   21.0850 N   0  0  0  0  0  0  0  0  0  0  0  0
  -29.0100  -20.2380   20.0830 H   0  0  0  0  0  0  0  0  0  0  0  0
  -30.2320  -18.5850   22.7300 C   0  0  0  0  0  3  0  0  0  0  0  0
  -29.7130  -18.8580   21.4440 C   0  0  0  0  0  0  0  0  0  0  0  0
  -30.2670  -16.5770   20.7260 C   0  0  0  0  0  0  0  0  0  0  0  0
  -30.7420  -17.3000   23.0140 C   0  0  0  0  0  0  0  0  0  0  0  0
  -29.7430  -17.8530   20.4560 C   0  0  0  0  0  0  0  0  0  0  0  0
  -30.7500  -16.2900   22.0250 C   0  0  0  0  0  0  0  0  0  0  0  0
  -31.2190  -17.0250   24.2510 F   0  0  0  0  0  0  0  0  0  0  0  0
  -29.2470  -18.1250   19.2190 F   0  0  0  0  0  0  0  0  0  0  0  0
  -31.2030  -15.0550   22.3370 F   0  0  0  0  0  0  0  0  0  0  0  0
  -31.0330  -14.5770   19.5050 C   0  0  0  0  0  0  0  0  0  0  0  0
  -30.5870  -12.4050   18.4470 C   0  0  0  0  0  2  0  0  0  0  0  0
  -29.5290  -12.6410   17.3450 C   0  0  0  0  0  2  0  0  0  0  0  0
  -28.1030  -12.5400   17.9180 C   0  0  0  0  0  2  0  0  0  0  0  0
  -27.9170  -13.3870   19.2080 C   0  0  0  0  0  3  0  0  0  0  0  0
  -29.0810  -13.1600   20.2040 C   0  0  0  0  0  2  0  0  0  0  0  0
  -30.3420  -13.4080   19.4890 N   0  0  0  0  0  0  0  0  0  0  0  0
  -32.1490  -14.7240   19.0030 O   0  0  0  0  0  0  0  0  0  0  0  0
  -30.2460  -15.6510   19.6510 N   0  0  0  0  0  0  0  0  0  0  0  0
  -30.1330  -16.1430   18.7700 H   0  0  0  0  0  0  0  0  0  0  0  0
  -25.6560  -14.0750   20.2300 C   0  0  0  0  0  0  0  0  0  0  0  0
  -24.5980  -13.3400   20.6850 C   0  0  0  0  0  0  0  0  0  0  0  0
  -24.9820  -11.9690   20.5540 C   0  0  0  0  0  0  0  0  0  0  0  0
  -26.6160  -13.1560   19.8340 N   0  0  0  0  0  0  0  0  0  0  0  0
  -26.2220  -11.8820   20.0910 N   0  0  0  0  0  0  0  0  0  0  0  0
  -24.2250  -10.7340   20.7820 C   0  0  0  0  0  0  0  0  0  0  0  0
  -24.6790   -9.7560   21.6970 C   0  0  0  0  0  3  0  0  0  0  0  0
  -23.9300   -8.5770   21.9090 C   0  0  0  0  0  3  0  0  0  0  0  0
  -22.7160   -8.3730   21.2070 C   0  0  0  0  0  0  0  0  0  0  0  0
  -22.2800   -9.3420   20.2860 C   0  0  0  0  0  3  0  0  0  0  0  0
  -23.0270  -10.5120   20.0710 C   0  0  0  0  0  3  0  0  0  0  0  0
  -21.9300   -7.2530   21.3360 O   0  0  0  0  0  0  0  0  0  0  0  0
  -21.8270   -6.5720   22.5240 C   0  0  0  0  0  0  0  0  0  0  0  0
  -21.4150   -7.2100   23.7150 C   0  0  0  0  0  3  0  0  0  0  0  0
  -21.2610   -6.4580   24.8970 C   0  0  0  0  0  3  0  0  0  0  0  0
  -21.5030   -5.0730   24.8890 C   0  0  0  0  0  0  0  0  0  0  0  0
  -21.9110   -4.4340   23.7060 C   0  0  0  0  0  3  0  0  0  0  0  0
  -22.0720   -5.1820   22.5260 C   0  0  0  0  0  0  0  0  0  0  0  0
  -22.4420   -4.5620   21.3810 F   0  0  0  0  0  0  0  0  0  0  0  0
  -21.3500   -4.3520   26.0240 F   0  0  0  0  0  0  0  0  0  0  0  0
  -23.2680  -13.8660   21.1360 C   0  0  0  0  0  0  0  0  0  0  0  0
  -22.6420  -13.2130   22.1080 N   0  0  0  0  0  0  0  0  0  0  0  0
  -22.7970  -14.8980   20.6610 O   0  0  0  0  0  0  0  0  0  0  0  0
  -23.0370  -12.3880   22.5310 H   0  0  0  0  0  0  0  0  0  0  0  0
  -21.7520  -13.5540   22.4400 H   0  0  0  0  0  0  0  0  0  0  0  0
  -25.8690  -15.4450   20.1050 N   0  0  0  0  0  0  0  0  0  0  0  0
  -25.1630  -16.1280   20.3600 H   0  0  0  0  0  0  0  0  0  0  0  0
  -26.7180  -15.8670   19.7510 H   0  0  0  0  0  0  0  0  0  0  0  0
  2  4  1  0
  2  1  1  0
  4  3  1  0
  5  2  2  0
  7  6  1  0
  7  4  1  0
  8  9  1  0
  8  7  1  0
  9 11  1  0
 10 21  2  0
 11 16  1  0
 12 20  1  0
 12 22  1  0
 13 19  1  0
 13 15  1  0
 14 20  1  0
 15 14  1  0
 16 15  2  0
 17 18  1  0
 17 11  2  0
 18 13  2  0
 19 12  1  0
 20 10  1  0
 22 24  2  0
 23 22  1  0
 25 23  1  0
 26 35  2  0
 26 31  1  0
 27 23  1  0
 27 31  1  0
 28 27  1  0
 29 30  1  0
 29 28  1  0
 30 26  1  0
 31 32  2  0
 32 33  1  0
 34 33  2  0
 35 34  1  0
 36 10  1  0
 36 37  1  0
 36 46  1  0
 37 40  1  0
 38 42  1  0
 38 37  1  0
 39 38  2  0
 42 41  1  0
 44 42  1  0
 44 45  1  0
 44 43  1  0
 46 49  1  1
 46 47  1  0
 48 46  1  0
 50 53  1  0
 50  1  1  0
 51 50  1  0
 52 55  1  0
 53 52  2  0
 54 57  1  0
 55 58  1  0
 56 54  2  0
 56 53  1  0
 57 60  1  0
 57 55  2  0
 59 56  1  0
 61 69  1  0
 62 67  1  0
 63 64  1  0
 63 62  1  0
 65 64  1  0
 65 74  1  0
 65 66  1  0
 67 61  1  0
 67 66  1  0
 68 61  2  0
 69 54  1  0
 70 69  1  0
 71 72  2  0
 72 91  1  0
 73 72  1  0
 73 76  1  0
 74 75  1  0
 74 71  1  0
 75 73  2  0
 76 77  1  0
 77 78  2  0
 79 82  1  0
 79 78  1  0
 80 79  2  0
 81 80  1  0
 81 76  2  0
 82 83  1  0
 83 88  2  0
 83 84  1  0
 84 85  2  0
 86 85  1  0
 86 90  1  0
 87 86  2  0
 88 87  1  0
 89 88  1  0
 91 92  1  0
 92 95  1  0
 92 94  1  0
 93 91  2  0
 96 71  1  0
 96 97  1  0
 98 96  1  0
M  ISO  4   8 101   9 101  61 100  69 100
M  END
>  <TORSDO>  (73) 
F 21

>  <SCORE>  (73) 
-10.697

>  <name>  (73) 
73

>  <ligand_id>  (73) 
73

>  <original_smiles>  (73) 
[H]c1c([H])c([H])c2c(c1[H])C([H])([H])C([H])([H])C([H])([H])C2([H])N([H])C(=O)C1([H])N(C(=O)C([H])(N([H])C(=O)C([H])(N([H])C([H])([H])[H])C([H])([H])[H])C(C([H])([H])[H])(C([H])([H])[H])C([H])([H])[H])C([H])([H])c2c([H])c(OC([H])([H])C([H])(N(C(=O)C([H])([H])N([H])c3c([H])c(F)c(F)c(N([H])C(=O)N4C([H])([H])C([H])([H])C([H])([H])C([H])(n5nc(-c6c([H])c([H])c(Oc7c([H])c([H])c(F)c([H])c7F)c([H])c6[H])c(C(=O)N([H])[H])c5N([H])[H])C4([H])[H])c3F)C([H])([H])[H])C([H])([H])[H])c([H])c([H])c2C1([H])[H]

>  <smiles>  (73) 
[H]c1c([H])c([H])c2c(c1[H])C([H])([H])C([H])([H])C([H])([H])C2([H])N([H])C(=O)C1([H])N(C(=O)C([H])(N([H])C(=O)C([H])(N([H])C([H])([H])[H])C([H])([H])[H])C(C([H])([H])[H])(C([H])([H])[H])C([H])([H])[H])C([H])([H])c2c([H])c(OC([H])([H])C([H])(N(C(=O)C([H])([H])N([H])c3c([H])c(F)c(F)c(N([H])C(=O)N4C([H])([H])C([H])([H])C([H])([H])C([H])(n5nc(-c6c([H])c([H])c(Oc7c([H])c([H])c(F)c([H])c7F)c([H])c6[H])c(C(=O)N([H])[H])c5N([H])[H])C4([H])[H])c3F)C([H])([H])[H])C([H])([H])[H])c([H])c([H])c2C1([H])[H]

$$$$
74:0:0
     RDKit          3D

 91 99  0  0  1  0  0  0  0  0999 V2000
  -31.3150  -18.2330   20.9390 C   0  0  0  0  0  3  0  0  0  0  0  0
  -30.7670  -20.6600   20.8510 C   0  0  0  0  0  3  0  0  0  0  0  0
  -31.6710  -19.5960   21.1000 C   0  0  0  0  0  0  0  0  0  0  0  0
  -30.0230  -17.8250   20.5380 C   0  0  0  0  0  0  0  0  0  0  0  0
  -29.4360  -20.4570   20.4310 C   0  0  0  0  0  0  0  0  0  0  0  0
  -29.1010  -18.9870   20.2980 C   0  0  0  0  0  0  0  0  0  0  0  0
  -33.0740  -19.9450   21.5610 C   0  0  0  0  0  1  0  0  0  0  0  0
  -27.8410  -18.6540   19.9240 F   0  0  0  0  0  0  0  0  0  0  0  0
  -30.5090  -15.0990   20.3280 C   0  0  0  0  0  0  0  0  0  0  0  0
  -30.4080  -12.7370   19.3680 C   0  0  0  0  0  2  0  0  0  0  0  0
  -29.4680  -12.6750   18.1380 C   0  0  0  0  0  2  0  0  0  0  0  0
  -28.0100  -12.4390   18.5800 C   0  0  0  0  0  2  0  0  0  0  0  0
  -27.5990  -13.3520   19.7650 C   0  0  0  0  0  3  0  0  0  0  0  0
  -28.6620  -13.3870   20.8840 C   0  0  0  0  0  2  0  0  0  0  0  0
  -29.9180  -13.8310   20.2600 N   0  0  0  0  0  0  0  0  0  0  0  0
  -31.7160  -15.1450   20.0600 O   0  0  0  0  0  0  0  0  0  0  0  0
  -29.7230  -16.2970   20.4590 N   0  0  0  0  0  0  0  0  0  0  0  0
  -28.7380  -16.0920   20.5140 H   0  0  0  0  0  0  0  0  0  0  0  0
  -25.2210  -13.9050   20.5260 C   0  0  0  0  0  0  0  0  0  0  0  0
  -24.1660  -13.1210   20.9040 C   0  0  0  0  0  0  0  0  0  0  0  0
  -24.6410  -11.7740   20.8650 C   0  0  0  0  0  0  0  0  0  0  0  0
  -26.2680  -13.0370   20.2730 N   0  0  0  0  0  0  0  0  0  0  0  0
  -25.9300  -11.7500   20.5460 N   0  0  0  0  0  0  0  0  0  0  0  0
  -23.9270  -10.5050   21.0570 C   0  0  0  0  0  0  0  0  0  0  0  0
  -24.3680   -9.5410   21.9910 C   0  0  0  0  0  3  0  0  0  0  0  0
  -23.6480   -8.3390   22.1710 C   0  0  0  0  0  3  0  0  0  0  0  0
  -22.4750   -8.0920   21.4180 C   0  0  0  0  0  0  0  0  0  0  0  0
  -22.0530   -9.0460   20.4750 C   0  0  0  0  0  3  0  0  0  0  0  0
  -22.7740  -10.2390   20.2930 C   0  0  0  0  0  3  0  0  0  0  0  0
  -21.7290   -6.9420   21.5080 O   0  0  0  0  0  0  0  0  0  0  0  0
  -21.6820   -6.2020   22.6610 C   0  0  0  0  0  0  0  0  0  0  0  0
  -21.2150   -6.7460   23.8770 C   0  0  0  0  0  3  0  0  0  0  0  0
  -21.1170   -5.9300   25.0220 C   0  0  0  0  0  3  0  0  0  0  0  0
  -21.4800   -4.5710   24.9520 C   0  0  0  0  0  0  0  0  0  0  0  0
  -21.9430   -4.0270   23.7410 C   0  0  0  0  0  3  0  0  0  0  0  0
  -22.0410   -4.8390   22.5990 C   0  0  0  0  0  0  0  0  0  0  0  0
  -22.4660   -4.3040   21.4280 F   0  0  0  0  0  0  0  0  0  0  0  0
  -21.3810   -3.7860   26.0510 F   0  0  0  0  0  0  0  0  0  0  0  0
  -22.7670  -13.5880   21.1810 C   0  0  0  0  0  0  0  0  0  0  0  0
  -22.0450  -12.8830   22.0460 N   0  0  0  0  0  0  0  0  0  0  0  0
  -22.3210  -14.6120   20.6680 O   0  0  0  0  0  0  0  0  0  0  0  0
  -22.4170  -12.0560   22.4890 H   0  0  0  0  0  0  0  0  0  0  0  0
  -21.1070  -13.1810   22.2750 H   0  0  0  0  0  0  0  0  0  0  0  0
  -25.3680  -15.2790   20.3490 N   0  0  0  0  0  0  0  0  0  0  0  0
  -24.5920  -15.9200   20.4670 H   0  0  0  0  0  0  0  0  0  0  0  0
  -26.1930  -15.7240   19.9690 H   0  0  0  0  0  0  0  0  0  0  0  0
  -27.3260  -21.4250   19.5670 C   0  0  0  0  0  1  0  0  0  0  0  0
  -28.6110  -21.7070   20.2000 N   0  0  0  0  0  0  0  0  0  0  0  0
  -28.9910  -23.2410   20.3900 C   0  0  0  0  0  3  0  0  0  0  0  0
  -27.9580  -24.5990   20.1520 C   0  0  0  0  0  3  0  0  0  0  0  0
  -28.2370  -26.1460   20.3320 O   0  0  0  0  0  0  0  0  0  0  0  0
  -24.6310  -31.9310   23.2620 C   0  0  0  0  0  0  0  0  0  0  0  0
  -27.1960  -27.1610   20.2580 C   0  0  0  0  0  0  0  0  0  0  0  0
  -23.4360  -30.5350   21.6240 C   0  0  0  0  0  3  0  0  0  0  0  0
  -24.8820  -28.9470   20.2070 C   0  0  0  0  0  0  0  0  0  0  0  0
  -25.9960  -30.7770   21.4720 C   0  0  0  0  0  2  0  0  0  0  0  0
  -26.0650  -29.3810   20.8200 C   0  0  0  0  0  0  0  0  0  0  0  0
  -27.2230  -28.5070   20.8220 C   0  0  0  0  0  3  0  0  0  0  0  0
  -25.9830  -26.8360   19.6120 C   0  0  0  0  0  3  0  0  0  0  0  0
  -24.8570  -27.6890   19.5880 C   0  0  0  0  0  3  0  0  0  0  0  0
  -23.6610  -29.8530   20.2480 C   0  0  0  0  0  2  0  0  0  0  0  0
  -24.7080  -31.1040   22.1740 N   0  0  0  0  0  0  0  0  0  0  0  0
  -23.5420  -32.2210   23.7810 O   0  0  0  0  0  0  0  0  0  0  0  0
  -22.7470  -29.5320   22.5840 C   0  0  0  0  0  0  0  0  0  0  0  0
  -21.4200  -29.3640   22.4500 N   0  0  0  0  0  0  0  0  0  0  0  0
  -23.4110  -28.9090   23.4170 O   0  0  0  0  0  0  0  0  0  0  0  0
  -20.9400  -29.9160   21.7530 H   0  0  0  0  0  0  0  0  0  0  0  0
  -18.0300  -28.1740   22.9420 C   0  0  0  0  0  0  0  0  0  0  0  0
  -20.5900  -28.4310   23.2180 C   0  0  0  0  0  3  0  0  0  0  0  0
  -20.6880  -26.9960   22.6480 C   0  0  0  0  0  2  0  0  0  0  0  0
  -19.5900  -26.6750   21.6290 C   0  0  0  0  0  2  0  0  0  0  0  0
  -18.2060  -26.8250   22.2670 C   0  0  0  0  0  2  0  0  0  0  0  0
  -19.1500  -28.9360   23.3740 C   0  0  0  0  0  0  0  0  0  0  0  0
  -18.9310  -30.1990   23.9660 C   0  0  0  0  0  3  0  0  0  0  0  0
  -17.6250  -30.7000   24.1320 C   0  0  0  0  0  3  0  0  0  0  0  0
  -16.5210  -29.9360   23.7150 C   0  0  0  0  0  3  0  0  0  0  0  0
  -16.7250  -28.6750   23.1260 C   0  0  0  0  0  3  0  0  0  0  0  0
  -25.9050  -32.5670   23.8960 C   0  0  0  0  0  3  0  0  0  0  0  0
  -26.4030  -31.8040   25.1860 C   0  0  1  0  0  0  0  0  0  0  0  0
  -25.2950  -31.5760   26.2410 C   0  0  0  0  0  1  0  0  0  0  0  0
  -26.9900  -30.4220   24.8170 C   0  0  0  0  0  1  0  0  0  0  0  0
  -27.5470  -32.6020   25.8570 C   0  0  0  0  0  1  0  0  0  0  0  0
  -25.5940  -33.9680   24.2210 N   0  0  0  0  0  0  0  0  0  0  0  0
  -25.9050  -35.0190   23.4510 C   0  0  0  0  0  0  0  0  0  0  0  0
  -26.5480  -34.9110   22.4040 O   0  0  0  0  0  0  0  0  0  0  0  0
  -25.0170  -34.1240   25.0350 H   0  0  0  0  0  0  0  0  0  0  0  0
  -24.1480  -36.7990   23.1550 C   0  0  0  0  0  1  0  0  0  0  0  0
  -25.4270  -36.4100   23.9140 C   0  0  0  0  0  3  0  0  0  0  0  0
  -27.5850  -37.3270   24.6490 C   0  0  0  0  0  1  0  0  0  0  0  0
  -26.4460  -37.4700   23.7450 N   0  0  0  0  0  0  0  0  0  0  0  0
  -26.0390  -38.3900   23.8920 H   0  0  0  0  0  0  0  0  0  0  0  0
  1  3  1  0
  2  3  2  0
  3  7  1  0
  4  1  2  0
  5  2  1  0
  6  5  2  0
  6  4  1  0
  8  6  1  0
  9 17  1  0
 10 15  1  0
 11 12  1  0
 11 10  1  0
 13 12  1  0
 13 22  1  0
 13 14  1  0
 15  9  1  0
 15 14  1  0
 16  9  2  0
 17 18  1  0
 17  4  1  0
 19 20  2  0
 20 39  1  0
 21 20  1  0
 21 24  1  0
 22 19  1  0
 22 23  1  0
 23 21  2  0
 24 25  1  0
 25 26  2  0
 27 30  1  0
 27 26  1  0
 28 27  2  0
 29 28  1  0
 29 24  2  0
 30 31  1  0
 31 32  1  0
 32 33  2  0
 34 33  1  0
 34 38  1  0
 35 34  2  0
 36 31  2  0
 36 35  1  0
 37 36  1  0
 39 40  1  0
 40 43  1  0
 40 42  1  0
 41 39  2  0
 44 45  1  0
 44 19  1  0
 46 44  1  0
 47 48  1  0
 48 49  1  0
 48  5  1  0
 50 51  1  0
 50 49  2  0
 52 63  2  0
 53 51  1  0
 53 58  1  0
 54 62  1  0
 54 64  1  0
 55 61  1  0
 55 57  1  0
 56 62  1  0
 57 58  2  0
 57 56  1  0
 59 53  2  0
 60 59  1  0
 60 55  2  0
 61 54  1  0
 62 52  1  0
 64 66  2  0
 65 64  1  0
 67 65  1  0
 68 77  2  0
 68 73  1  0
 69 65  1  0
 69 73  1  0
 70 69  1  0
 71 72  1  0
 71 70  1  0
 72 68  1  0
 73 74  2  0
 74 75  1  0
 76 75  2  0
 77 76  1  0
 78 52  1  0
 78 83  1  0
 78 79  1  0
 79 82  1  1
 79 80  1  0
 81 79  1  0
 83 86  1  0
 84 88  1  0
 84 83  1  0
 85 84  2  0
 88 87  1  0
 90 91  1  0
 90 88  1  0
 90 89  1  0
M  ISO  4   9 100  17 100  50 101  51 101
M  END
>  <TORSDO>  (74) 
F 19

>  <SCORE>  (74) 
-15.402

>  <name>  (74) 
74

>  <ligand_id>  (74) 
74

>  <original_smiles>  (74) 
[H]c1c([H])c([H])c2c(c1[H])C([H])([H])C([H])([H])C([H])([H])C2([H])N([H])C(=O)C1([H])N(C(=O)C([H])(N([H])C(=O)C([H])(N([H])C([H])([H])[H])C([H])([H])[H])C(C([H])([H])[H])(C([H])([H])[H])C([H])([H])[H])C([H])([H])c2c([H])c(OC([H])([H])C([H])([H])N(c3c([H])c(C([H])([H])[H])c([H])c(N([H])C(=O)N4C([H])([H])C([H])([H])C([H])([H])C([H])(n5nc(-c6c([H])c([H])c(Oc7c([H])c([H])c(F)c([H])c7F)c([H])c6[H])c(C(=O)N([H])[H])c5N([H])[H])C4([H])[H])c3F)C([H])([H])[H])c([H])c([H])c2C1([H])[H]

>  <smiles>  (74) 
[H]c1c([H])c([H])c2c(c1[H])C([H])([H])C([H])([H])C([H])([H])C2([H])N([H])C(=O)C1([H])N(C(=O)C([H])(N([H])C(=O)C([H])(N([H])C([H])([H])[H])C([H])([H])[H])C(C([H])([H])[H])(C([H])([H])[H])C([H])([H])[H])C([H])([H])c2c([H])c(OC([H])([H])C([H])([H])N(c3c([H])c(C([H])([H])[H])c([H])c(N([H])C(=O)N4C([H])([H])C([H])([H])C([H])([H])C([H])(n5nc(-c6c([H])c([H])c(Oc7c([H])c([H])c(F)c([H])c7F)c([H])c6[H])c(C(=O)N([H])[H])c5N([H])[H])C4([H])[H])c3F)C([H])([H])[H])c([H])c([H])c2C1([H])[H]

$$$$
75:0:0
     RDKit          3D

 91 99  0  0  1  0  0  0  0  0999 V2000
  -28.9230  -23.6930   20.5810 C   0  0  0  0  0  0  0  0  0  0  0  0
  -27.8830  -21.9440   19.1540 C   0  0  0  0  0  1  0  0  0  0  0  0
  -28.7770  -22.3280   20.2490 N   0  0  0  0  0  0  0  0  0  0  0  0
  -29.7290  -24.0260   21.4550 O   0  0  0  0  0  0  0  0  0  0  0  0
  -29.3570  -21.1180   21.0260 C   0  0  0  0  0  2  0  0  0  0  0  0
  -30.2280  -19.2950   19.1780 C   0  0  0  0  0  3  0  0  0  0  0  0
  -30.4320  -17.8650   19.1580 C   0  0  0  0  0  0  0  0  0  0  0  0
  -29.7070  -19.6960   20.3840 C   0  0  0  0  0  0  0  0  0  0  0  0
  -30.0580  -17.3880   20.3950 C   0  0  0  0  0  0  0  0  0  0  0  0
  -30.9300  -17.0790   17.9720 C   0  0  0  0  0  1  0  0  0  0  0  0
  -29.5790  -18.4960   21.1370 O   0  0  0  0  0  0  0  0  0  0  0  0
  -30.7470  -14.9050   20.4710 C   0  0  0  0  0  0  0  0  0  0  0  0
  -30.5930  -12.6110   19.4730 C   0  0  0  0  0  2  0  0  0  0  0  0
  -29.6760  -12.6720   18.2320 C   0  0  0  0  0  2  0  0  0  0  0  0
  -28.2000  -12.4870   18.6350 C   0  0  0  0  0  2  0  0  0  0  0  0
  -27.7990  -13.3670   19.8470 C   0  0  0  0  0  3  0  0  0  0  0  0
  -28.8400  -13.2880   20.9870 C   0  0  0  0  0  2  0  0  0  0  0  0
  -30.1430  -13.6620   20.4210 N   0  0  0  0  0  0  0  0  0  0  0  0
  -31.9280  -15.0060   20.1240 O   0  0  0  0  0  0  0  0  0  0  0  0
  -29.9730  -16.0270   20.7790 N   0  0  0  0  0  0  0  0  0  0  0  0
  -29.1180  -15.7940   21.2620 H   0  0  0  0  0  0  0  0  0  0  0  0
  -25.3950  -13.9390   20.5320 C   0  0  0  0  0  0  0  0  0  0  0  0
  -24.3290  -13.1590   20.8840 C   0  0  0  0  0  0  0  0  0  0  0  0
  -24.8020  -11.8110   20.8660 C   0  0  0  0  0  0  0  0  0  0  0  0
  -26.4490  -13.0670   20.3150 N   0  0  0  0  0  0  0  0  0  0  0  0
  -26.0980  -11.7820   20.5800 N   0  0  0  0  0  0  0  0  0  0  0  0
  -24.0800  -10.5450   21.0470 C   0  0  0  0  0  0  0  0  0  0  0  0
  -24.5010   -9.5820   21.9900 C   0  0  0  0  0  3  0  0  0  0  0  0
  -23.7800   -8.3800   22.1600 C   0  0  0  0  0  3  0  0  0  0  0  0
  -22.6220   -8.1340   21.3850 C   0  0  0  0  0  0  0  0  0  0  0  0
  -22.2200   -9.0840   20.4310 C   0  0  0  0  0  3  0  0  0  0  0  0
  -22.9430  -10.2770   20.2600 C   0  0  0  0  0  3  0  0  0  0  0  0
  -21.8730   -6.9850   21.4630 O   0  0  0  0  0  0  0  0  0  0  0  0
  -21.8010   -6.2480   22.6180 C   0  0  0  0  0  0  0  0  0  0  0  0
  -21.3240   -6.8020   23.8270 C   0  0  0  0  0  3  0  0  0  0  0  0
  -21.2010   -5.9910   24.9730 C   0  0  0  0  0  3  0  0  0  0  0  0
  -21.5460   -4.6280   24.9110 C   0  0  0  0  0  0  0  0  0  0  0  0
  -22.0180   -4.0740   23.7080 C   0  0  0  0  0  3  0  0  0  0  0  0
  -22.1420   -4.8820   22.5650 C   0  0  0  0  0  0  0  0  0  0  0  0
  -22.5760   -4.3370   21.4020 F   0  0  0  0  0  0  0  0  0  0  0  0
  -21.4210   -3.8460   26.0100 F   0  0  0  0  0  0  0  0  0  0  0  0
  -22.9230  -13.6280   21.1270 C   0  0  0  0  0  0  0  0  0  0  0  0
  -22.1850  -12.9330   21.9860 N   0  0  0  0  0  0  0  0  0  0  0  0
  -22.4880  -14.6460   20.5910 O   0  0  0  0  0  0  0  0  0  0  0  0
  -22.5490  -12.1100   22.4430 H   0  0  0  0  0  0  0  0  0  0  0  0
  -21.2420  -13.2300   22.1910 H   0  0  0  0  0  0  0  0  0  0  0  0
  -25.5520  -15.3120   20.3540 N   0  0  0  0  0  0  0  0  0  0  0  0
  -24.7740  -15.9570   20.4450 H   0  0  0  0  0  0  0  0  0  0  0  0
  -26.3970  -15.7570   20.0190 H   0  0  0  0  0  0  0  0  0  0  0  0
  -28.0250  -24.8740   19.9240 C   0  0  0  0  0  2  0  0  0  0  0  0
  -28.2790  -26.3450   20.2430 O   0  0  0  0  0  0  0  0  0  0  0  0
  -24.5860  -31.9010   23.2090 C   0  0  0  0  0  0  0  0  0  0  0  0
  -27.2030  -27.2790   20.1550 C   0  0  0  0  0  0  0  0  0  0  0  0
  -23.3930  -30.5010   21.5680 C   0  0  0  0  0  3  0  0  0  0  0  0
  -24.8520  -28.9550   20.1360 C   0  0  0  0  0  0  0  0  0  0  0  0
  -25.9400  -30.8030   21.3990 C   0  0  0  0  0  2  0  0  0  0  0  0
  -26.0230  -29.4200   20.7460 C   0  0  0  0  0  0  0  0  0  0  0  0
  -27.2000  -28.5950   20.7470 C   0  0  0  0  0  3  0  0  0  0  0  0
  -26.0090  -26.9070   19.4940 C   0  0  0  0  0  3  0  0  0  0  0  0
  -24.8510  -27.7070   19.5000 C   0  0  0  0  0  3  0  0  0  0  0  0
  -23.6160  -29.8330   20.1850 C   0  0  0  0  0  2  0  0  0  0  0  0
  -24.6590  -31.0870   22.1150 N   0  0  0  0  0  0  0  0  0  0  0  0
  -23.4990  -32.1760   23.7390 O   0  0  0  0  0  0  0  0  0  0  0  0
  -22.7280  -29.4810   22.5240 C   0  0  0  0  0  0  0  0  0  0  0  0
  -21.4040  -29.2910   22.3890 N   0  0  0  0  0  0  0  0  0  0  0  0
  -23.4050  -28.8650   23.3530 O   0  0  0  0  0  0  0  0  0  0  0  0
  -20.9160  -29.8410   21.6960 H   0  0  0  0  0  0  0  0  0  0  0  0
  -18.0390  -28.0390   22.8530 C   0  0  0  0  0  0  0  0  0  0  0  0
  -20.5890  -28.3480   23.1570 C   0  0  0  0  0  3  0  0  0  0  0  0
  -20.7240  -26.9110   22.6000 C   0  0  0  0  0  2  0  0  0  0  0  0
  -19.6430  -26.5580   21.5730 C   0  0  0  0  0  2  0  0  0  0  0  0
  -18.2490  -26.6860   22.1940 C   0  0  0  0  0  2  0  0  0  0  0  0
  -19.1370  -28.8260   23.2910 C   0  0  0  0  0  0  0  0  0  0  0  0
  -18.8870  -30.0890   23.8680 C   0  0  0  0  0  3  0  0  0  0  0  0
  -17.5700  -30.5680   24.0110 C   0  0  0  0  0  3  0  0  0  0  0  0
  -16.4860  -29.7790   23.5880 C   0  0  0  0  0  3  0  0  0  0  0  0
  -16.7220  -28.5160   23.0150 C   0  0  0  0  0  3  0  0  0  0  0  0
  -25.8630  -32.5420   23.8350 C   0  0  0  0  0  3  0  0  0  0  0  0
  -26.3730  -31.7790   25.1200 C   0  0  1  0  0  0  0  0  0  0  0  0
  -25.2750  -31.5450   26.1830 C   0  0  0  0  0  1  0  0  0  0  0  0
  -26.9640  -30.4010   24.7430 C   0  0  0  0  0  1  0  0  0  0  0  0
  -27.5170  -32.5810   25.7830 C   0  0  0  0  0  1  0  0  0  0  0  0
  -25.5460  -33.9410   24.1590 N   0  0  0  0  0  0  0  0  0  0  0  0
  -25.8880  -34.9950   23.4060 C   0  0  0  0  0  0  0  0  0  0  0  0
  -26.5720  -34.8910   22.3840 O   0  0  0  0  0  0  0  0  0  0  0  0
  -24.9410  -34.0960   24.9520 H   0  0  0  0  0  0  0  0  0  0  0  0
  -24.1790  -36.7990   23.0160 C   0  0  0  0  0  1  0  0  0  0  0  0
  -25.3960  -36.3840   23.8570 C   0  0  0  0  0  3  0  0  0  0  0  0
  -27.5090  -37.2580   24.7540 C   0  0  0  0  0  1  0  0  0  0  0  0
  -26.4360  -37.4320   23.7770 N   0  0  0  0  0  0  0  0  0  0  0  0
  -26.0290  -38.3540   23.9150 H   0  0  0  0  0  0  0  0  0  0  0  0
  1  4  2  0
  2  3  1  0
  3  1  1  0
  3  5  1  0
  6  8  2  0
  7  6  1  0
  7  9  2  0
  8  5  1  0
  8 11  1  0
  9 20  1  0
  9 11  1  0
 10  7  1  0
 12 20  1  0
 13 18  1  0
 14 15  1  0
 14 13  1  0
 16 15  1  0
 16 25  1  0
 16 17  1  0
 18 12  1  0
 18 17  1  0
 19 12  2  0
 20 21  1  0
 22 23  2  0
 23 42  1  0
 24 23  1  0
 24 27  1  0
 25 22  1  0
 25 26  1  0
 26 24  2  0
 27 28  1  0
 28 29  2  0
 30 33  1  0
 30 29  1  0
 31 30  2  0
 32 31  1  0
 32 27  2  0
 33 34  1  0
 34 35  1  0
 35 36  2  0
 37 36  1  0
 37 41  1  0
 38 37  2  0
 39 34  2  0
 39 38  1  0
 40 39  1  0
 42 43  1  0
 43 46  1  0
 43 45  1  0
 44 42  2  0
 47 48  1  0
 47 22  1  0
 49 47  1  0
 50 51  1  0
 50  1  1  0
 52 63  2  0
 53 51  1  0
 53 58  1  0
 54 62  1  0
 54 64  1  0
 55 61  1  0
 55 57  1  0
 56 62  1  0
 57 58  2  0
 57 56  1  0
 59 60  1  0
 59 53  2  0
 60 55  2  0
 61 54  1  0
 62 52  1  0
 64 66  2  0
 65 64  1  0
 67 65  1  0
 68 77  2  0
 68 73  1  0
 69 65  1  0
 69 73  1  0
 70 69  1  0
 71 72  1  0
 71 70  1  0
 72 68  1  0
 73 74  2  0
 74 75  1  0
 76 75  2  0
 77 76  1  0
 78 52  1  0
 78 83  1  0
 78 79  1  0
 79 82  1  1
 79 80  1  0
 81 79  1  0
 83 86  1  0
 84 88  1  0
 84 83  1  0
 85 84  2  0
 88 87  1  0
 90 88  1  0
 90 91  1  0
 90 89  1  0
M  ISO  4  12 100  20 100  50 101  51 101
M  END
>  <TORSDO>  (75) 
F 19

>  <SCORE>  (75) 
-14.196

>  <name>  (75) 
75

>  <ligand_id>  (75) 
75

>  <original_smiles>  (75) 
[H]c1c([H])c([H])c2c(c1[H])C([H])([H])C([H])([H])C([H])([H])C2([H])N([H])C(=O)C1([H])N(C(=O)C([H])(N([H])C(=O)C([H])(N([H])C([H])([H])[H])C([H])([H])[H])C(C([H])([H])[H])(C([H])([H])[H])C([H])([H])[H])C([H])([H])c2c([H])c(OC([H])([H])C(=O)N(C([H])([H])[H])C([H])([H])c3oc(N([H])C(=O)N4C([H])([H])C([H])([H])C([H])([H])C([H])(n5nc(-c6c([H])c([H])c(Oc7c([H])c([H])c(F)c([H])c7F)c([H])c6[H])c(C(=O)N([H])[H])c5N([H])[H])C4([H])[H])c(C([H])([H])[H])c3[H])c([H])c([H])c2C1([H])[H]

>  <smiles>  (75) 
[H]c1c([H])c([H])c2c(c1[H])C([H])([H])C([H])([H])C([H])([H])C2([H])N([H])C(=O)C1([H])N(C(=O)C([H])(N([H])C(=O)C([H])(N([H])C([H])([H])[H])C([H])([H])[H])C(C([H])([H])[H])(C([H])([H])[H])C([H])([H])[H])C([H])([H])c2c([H])c(OC([H])([H])C(=O)N(C([H])([H])[H])C([H])([H])c3oc(N([H])C(=O)N4C([H])([H])C([H])([H])C([H])([H])C([H])(n5nc(-c6c([H])c([H])c(Oc7c([H])c([H])c(F)c([H])c7F)c([H])c6[H])c(C(=O)N([H])[H])c5N([H])[H])C4([H])[H])c(C([H])([H])[H])c3[H])c([H])c([H])c2C1([H])[H]

$$$$
76:0:0
     RDKit          3D

 95103  0  0  1  0  0  0  0  0999 V2000
  -28.9050  -23.8850   20.9590 C   0  0  0  0  0  0  0  0  0  0  0  0
  -29.2370  -24.3910   22.1540 N   0  0  0  0  0  4  0  0  0  0  0  0
  -29.1790  -22.5060   20.7630 N   0  0  0  0  0  0  0  0  0  0  0  0
  -29.6860  -23.8660   22.8870 H   0  0  0  0  0  0  0  0  0  0  0  0
  -29.0340  -25.3660   22.3280 H   0  0  0  0  0  0  0  0  0  0  0  0
  -29.5410  -22.0300   21.5720 H   0  0  0  0  0  0  0  0  0  0  0  0
  -29.0510  -21.5180   19.5990 C   0  0  0  0  0  2  0  0  0  0  0  0
  -28.8980  -19.4720   18.1910 C   0  0  0  0  0  3  0  0  0  0  0  0
  -29.5110  -17.1370   18.5810 C   0  0  0  0  0  3  0  0  0  0  0  0
  -29.2820  -19.9040   19.4820 C   0  0  0  0  0  0  0  0  0  0  0  0
  -29.9160  -17.4130   19.9030 C   0  0  0  0  0  0  0  0  0  0  0  0
  -28.9990  -18.1430   17.7490 C   0  0  0  0  0  0  0  0  0  0  0  0
  -29.7900  -18.8230   20.3500 C   0  0  0  0  0  0  0  0  0  0  0  0
  -28.4690  -17.7360   16.1610 Cl  0  0  0  0  0  0  0  0  0  0  0  0
  -30.2600  -19.2180   21.9610 Cl  0  0  0  0  0  0  0  0  0  0  0  0
  -30.9920  -15.0450   20.3020 C   0  0  0  0  0  0  0  0  0  0  0  0
  -30.7340  -12.7530   19.3010 C   0  0  0  0  0  2  0  0  0  0  0  0
  -29.8130  -12.8230   18.0640 C   0  0  0  0  0  2  0  0  0  0  0  0
  -28.3460  -12.6490   18.4900 C   0  0  0  0  0  2  0  0  0  0  0  0
  -27.9700  -13.5530   19.6930 C   0  0  0  0  0  3  0  0  0  0  0  0
  -29.0190  -13.5000   20.8230 C   0  0  0  0  0  2  0  0  0  0  0  0
  -30.3170  -13.8370   20.2270 N   0  0  0  0  0  0  0  0  0  0  0  0
  -32.1660  -15.0860   19.9260 O   0  0  0  0  0  0  0  0  0  0  0  0
  -30.3590  -16.2260   20.7050 N   0  0  0  0  0  0  0  0  0  0  0  0
  -30.6830  -16.5020   21.6220 H   0  0  0  0  0  0  0  0  0  0  0  0
  -25.5920  -14.1670   20.4130 C   0  0  0  0  0  0  0  0  0  0  0  0
  -24.5140  -13.4040   20.7710 C   0  0  0  0  0  0  0  0  0  0  0  0
  -24.9590  -12.0470   20.7390 C   0  0  0  0  0  0  0  0  0  0  0  0
  -26.6230  -13.2740   20.1780 N   0  0  0  0  0  0  0  0  0  0  0  0
  -26.2530  -11.9940   20.4400 N   0  0  0  0  0  0  0  0  0  0  0  0
  -24.2130  -10.7940   20.9170 C   0  0  0  0  0  0  0  0  0  0  0  0
  -24.6060   -9.8270   21.8700 C   0  0  0  0  0  3  0  0  0  0  0  0
  -23.8570   -8.6410   22.0350 C   0  0  0  0  0  3  0  0  0  0  0  0
  -22.7030   -8.4150   21.2480 C   0  0  0  0  0  0  0  0  0  0  0  0
  -22.3330   -9.3670   20.2820 C   0  0  0  0  0  3  0  0  0  0  0  0
  -23.0820  -10.5450   20.1150 C   0  0  0  0  0  3  0  0  0  0  0  0
  -21.9290   -7.2820   21.3240 O   0  0  0  0  0  0  0  0  0  0  0  0
  -21.8040   -6.5730   22.4930 C   0  0  0  0  0  0  0  0  0  0  0  0
  -21.3110   -7.1650   23.6770 C   0  0  0  0  0  3  0  0  0  0  0  0
  -21.1310   -6.3820   24.8330 C   0  0  0  0  0  3  0  0  0  0  0  0
  -21.4390   -5.0080   24.8090 C   0  0  0  0  0  0  0  0  0  0  0  0
  -21.9260   -4.4160   23.6300 C   0  0  0  0  0  3  0  0  0  0  0  0
  -22.1060   -5.1970   22.4760 C   0  0  0  0  0  0  0  0  0  0  0  0
  -22.5560   -4.6160   21.3360 F   0  0  0  0  0  0  0  0  0  0  0  0
  -21.2590   -4.2540   25.9180 F   0  0  0  0  0  0  0  0  0  0  0  0
  -23.1230  -13.8980   21.0420 C   0  0  0  0  0  0  0  0  0  0  0  0
  -22.3940  -13.2110   21.9150 N   0  0  0  0  0  0  0  0  0  0  0  0
  -22.6960  -14.9270   20.5190 O   0  0  0  0  0  0  0  0  0  0  0  0
  -22.7600  -12.3750   22.3460 H   0  0  0  0  0  0  0  0  0  0  0  0
  -21.4600  -13.5140   22.1490 H   0  0  0  0  0  0  0  0  0  0  0  0
  -25.7810  -15.5350   20.2450 N   0  0  0  0  0  0  0  0  0  0  0  0
  -25.0400  -16.2160   20.3660 H   0  0  0  0  0  0  0  0  0  0  0  0
  -26.6630  -15.9530   19.9750 H   0  0  0  0  0  0  0  0  0  0  0  0
  -28.2240  -24.9760   20.0210 C   0  0  0  0  0  2  0  0  0  0  0  0
  -28.3470  -26.4660   20.3720 O   0  0  0  0  0  0  0  0  0  0  0  0
  -24.5980  -31.9940   23.2930 C   0  0  0  0  0  0  0  0  0  0  0  0
  -27.2550  -27.3820   20.2650 C   0  0  0  0  0  0  0  0  0  0  0  0
  -23.4170  -30.5860   21.6470 C   0  0  0  0  0  3  0  0  0  0  0  0
  -24.8940  -29.0490   20.2200 C   0  0  0  0  0  0  0  0  0  0  0  0
  -25.9630  -30.9080   21.4840 C   0  0  0  0  0  2  0  0  0  0  0  0
  -26.0580  -29.5240   20.8360 C   0  0  0  0  0  0  0  0  0  0  0  0
  -27.2380  -28.7040   20.8440 C   0  0  0  0  0  3  0  0  0  0  0  0
  -26.0700  -27.0010   19.5940 C   0  0  0  0  0  3  0  0  0  0  0  0
  -24.9110  -27.8020   19.5810 C   0  0  0  0  0  3  0  0  0  0  0  0
  -23.6490  -29.9160   20.2660 C   0  0  0  0  0  2  0  0  0  0  0  0
  -24.6770  -31.1850   22.1950 N   0  0  0  0  0  0  0  0  0  0  0  0
  -23.5090  -32.2580   23.8230 O   0  0  0  0  0  0  0  0  0  0  0  0
  -22.7540  -29.5680   22.6070 C   0  0  0  0  0  0  0  0  0  0  0  0
  -21.4310  -29.3630   22.4650 N   0  0  0  0  0  0  0  0  0  0  0  0
  -23.4300  -28.9660   23.4450 O   0  0  0  0  0  0  0  0  0  0  0  0
  -20.9470  -29.8670   21.7350 H   0  0  0  0  0  0  0  0  0  0  0  0
  -18.0750  -28.0990   22.9600 C   0  0  0  0  0  0  0  0  0  0  0  0
  -20.6260  -28.4270   23.2560 C   0  0  0  0  0  3  0  0  0  0  0  0
  -20.7630  -26.9870   22.7130 C   0  0  0  0  0  2  0  0  0  0  0  0
  -19.6920  -26.6470   21.6700 C   0  0  0  0  0  2  0  0  0  0  0  0
  -18.2990  -26.7490   22.2990 C   0  0  0  0  0  2  0  0  0  0  0  0
  -19.1710  -28.8940   23.3960 C   0  0  0  0  0  0  0  0  0  0  0  0
  -18.9110  -30.1580   23.9700 C   0  0  0  0  0  3  0  0  0  0  0  0
  -17.5920  -30.6270   24.1080 C   0  0  0  0  0  3  0  0  0  0  0  0
  -16.5120  -29.8320   23.6880 C   0  0  0  0  0  3  0  0  0  0  0  0
  -16.7540  -28.5670   23.1220 C   0  0  0  0  0  3  0  0  0  0  0  0
  -25.8690  -32.6450   23.9210 C   0  0  0  0  0  3  0  0  0  0  0  0
  -26.3900  -31.8820   25.2020 C   0  0  1  0  0  0  0  0  0  0  0  0
  -25.2910  -31.6150   26.2560 C   0  0  0  0  0  1  0  0  0  0  0  0
  -27.0120  -30.5200   24.8160 C   0  0  0  0  0  1  0  0  0  0  0  0
  -27.5140  -32.7010   25.8810 C   0  0  0  0  0  1  0  0  0  0  0  0
  -25.5340  -34.0390   24.2520 N   0  0  0  0  0  0  0  0  0  0  0  0
  -25.8500  -35.0980   23.4960 C   0  0  0  0  0  0  0  0  0  0  0  0
  -26.5210  -35.0070   22.4640 O   0  0  0  0  0  0  0  0  0  0  0  0
  -24.9350  -34.1830   25.0520 H   0  0  0  0  0  0  0  0  0  0  0  0
  -24.0870  -36.8640   23.1640 C   0  0  0  0  0  1  0  0  0  0  0  0
  -25.3450  -36.4790   23.9600 C   0  0  0  0  0  3  0  0  0  0  0  0
  -27.4710  -37.4030   24.7670 C   0  0  0  0  0  1  0  0  0  0  0  0
  -26.3570  -37.5510   23.8330 N   0  0  0  0  0  0  0  0  0  0  0  0
  -25.9360  -38.4640   23.9840 H   0  0  0  0  0  0  0  0  0  0  0  0
  1  2  2  0
  2  5  1  0
  2  4  1  0
  3  1  1  0
  3  6  1  0
  7  3  1  0
  8 10  1  0
  9 11  2  0
 10  7  1  0
 10 13  2  0
 11 13  1  0
 11 24  1  0
 12  8  2  0
 12  9  1  0
 13 15  1  0
 14 12  1  0
 16 24  1  0
 17 22  1  0
 18 19  1  0
 18 17  1  0
 20 19  1  0
 20 29  1  0
 20 21  1  0
 22 16  1  0
 22 21  1  0
 23 16  2  0
 24 25  1  0
 26 27  2  0
 27 46  1  0
 28 27  1  0
 28 31  1  0
 29 26  1  0
 29 30  1  0
 30 28  2  0
 31 32  1  0
 32 33  2  0
 34 37  1  0
 34 33  1  0
 35 34  2  0
 36 35  1  0
 36 31  2  0
 37 38  1  0
 38 39  1  0
 39 40  2  0
 41 40  1  0
 41 45  1  0
 42 41  2  0
 43 38  2  0
 43 42  1  0
 44 43  1  0
 46 47  1  0
 47 50  1  0
 47 49  1  0
 48 46  2  0
 51 52  1  0
 51 26  1  0
 53 51  1  0
 54 55  1  0
 54  1  1  0
 56 67  2  0
 57 55  1  0
 57 62  1  0
 58 66  1  0
 58 68  1  0
 59 65  1  0
 59 61  1  0
 60 66  1  0
 61 62  2  0
 61 60  1  0
 63 57  2  0
 64 63  1  0
 64 59  2  0
 65 58  1  0
 66 56  1  0
 68 70  2  0
 69 68  1  0
 71 69  1  0
 72 81  2  0
 72 77  1  0
 73 69  1  0
 73 77  1  0
 74 73  1  0
 75 76  1  0
 75 74  1  0
 76 72  1  0
 77 78  2  0
 78 79  1  0
 80 79  2  0
 81 80  1  0
 82 56  1  0
 82 87  1  0
 82 83  1  0
 83 86  1  1
 83 84  1  0
 85 83  1  0
 87 90  1  0
 88 92  1  0
 88 87  1  0
 89 88  2  0
 92 91  1  0
 94 92  1  0
 94 95  1  0
 94 93  1  0
M  ISO  4  16 100  24 100  54 101  55 101
M  END
>  <TORSDO>  (76) 
F 19

>  <SCORE>  (76) 
-12.647

>  <name>  (76) 
76

>  <ligand_id>  (76) 
76

>  <original_smiles>  (76) 
[H]c1c([H])c([H])c2c(c1[H])C([H])([H])C([H])([H])C([H])([H])C2([H])N([H])C(=O)C1([H])N(C(=O)C([H])(N([H])C(=O)C([H])(N([H])C([H])([H])[H])C([H])([H])[H])C(C([H])([H])[H])(C([H])([H])[H])C([H])([H])[H])C([H])([H])c2c([H])c(OC([H])([H])C(N([H])[H])=[N+]([H])C([H])([H])c3c([H])c(Cl)c([H])c(N([H])C(=O)N4C([H])([H])C([H])([H])C([H])([H])C([H])(n5nc(-c6c([H])c([H])c(Oc7c([H])c([H])c(F)c([H])c7F)c([H])c6[H])c(C(=O)N([H])[H])c5N([H])[H])C4([H])[H])c3Cl)c([H])c([H])c2C1([H])[H]

>  <smiles>  (76) 
[H]c1c([H])c([H])c2c(c1[H])C([H])([H])C([H])([H])C([H])([H])C2([H])N([H])C(=O)C1([H])N(C(=O)C([H])(N([H])C(=O)C([H])(N([H])C([H])([H])[H])C([H])([H])[H])C(C([H])([H])[H])(C([H])([H])[H])C([H])([H])[H])C([H])([H])c2c([H])c(OC([H])([H])C(N([H])[H])=[N+]([H])C([H])([H])c3c([H])c(Cl)c([H])c(N([H])C(=O)N4C([H])([H])C([H])([H])C([H])([H])C([H])(n5nc(-c6c([H])c([H])c(Oc7c([H])c([H])c(F)c([H])c7F)c([H])c6[H])c(C(=O)N([H])[H])c5N([H])[H])C4([H])[H])c3Cl)c([H])c([H])c2C1([H])[H]

$$$$
77:0:0
     RDKit          3D

 93101  0  0  1  0  0  0  0  0999 V2000
  -29.8440  -22.3150   20.0490 C   0  0  0  0  0  0  0  0  0  0  0  0
  -30.3600  -21.1000   19.5620 N   0  0  0  0  0  0  0  0  0  0  0  0
  -29.3660  -22.3990   21.1810 O   0  0  0  0  0  0  0  0  0  0  0  0
  -30.8520  -21.1840   18.6840 H   0  0  0  0  0  0  0  0  0  0  0  0
  -29.7190  -18.3580   22.1100 C   0  0  0  0  0  3  0  0  0  0  0  0
  -29.7140  -19.5650   21.4120 C   0  0  0  0  0  3  0  0  0  0  0  0
  -30.2470  -17.1830   21.5480 C   0  0  0  0  0  0  0  0  0  0  0  0
  -30.7720  -18.4550   19.5220 C   0  0  0  0  0  0  0  0  0  0  0  0
  -30.3130  -19.7150   20.1440 C   0  0  0  0  0  0  0  0  0  0  0  0
  -30.7050  -17.1490   20.2000 C   0  0  0  0  0  0  0  0  0  0  0  0
  -30.2350  -15.9700   22.4560 C   0  0  0  0  0  1  0  0  0  0  0  0
  -31.3200  -18.4990   18.1050 C   0  0  0  0  0  1  0  0  0  0  0  0
  -31.6130  -14.7130   19.4150 C   0  0  0  0  0  0  0  0  0  0  0  0
  -31.3160  -12.4360   18.3720 C   0  0  0  0  0  2  0  0  0  0  0  0
  -30.1920  -12.4830   17.3070 C   0  0  0  0  0  2  0  0  0  0  0  0
  -28.7840  -12.3660   17.9370 C   0  0  0  0  0  2  0  0  0  0  0  0
  -28.6140  -13.2780   19.1780 C   0  0  0  0  0  3  0  0  0  0  0  0
  -29.8110  -13.0970   20.1340 C   0  0  0  0  0  2  0  0  0  0  0  0
  -31.0150  -13.4700   19.3850 N   0  0  0  0  0  0  0  0  0  0  0  0
  -32.7670  -14.8450   18.9880 O   0  0  0  0  0  0  0  0  0  0  0  0
  -30.7310  -15.7760   19.5970 N   0  0  0  0  0  0  0  0  0  0  0  0
  -29.8060  -15.3720   19.6540 H   0  0  0  0  0  0  0  0  0  0  0  0
  -26.4500  -14.0340   20.3450 C   0  0  0  0  0  0  0  0  0  0  0  0
  -25.3720  -13.3340   20.8160 C   0  0  0  0  0  0  0  0  0  0  0  0
  -25.6580  -11.9580   20.5690 C   0  0  0  0  0  0  0  0  0  0  0  0
  -27.3320  -13.0840   19.8540 N   0  0  0  0  0  0  0  0  0  0  0  0
  -26.8720  -11.8230   20.0460 N   0  0  0  0  0  0  0  0  0  0  0  0
  -24.8210  -10.7640   20.7390 C   0  0  0  0  0  0  0  0  0  0  0  0
  -25.1270   -9.7780   21.7020 C   0  0  0  0  0  3  0  0  0  0  0  0
  -24.2970   -8.6460   21.8560 C   0  0  0  0  0  3  0  0  0  0  0  0
  -23.1450   -8.4970   21.0490 C   0  0  0  0  0  0  0  0  0  0  0  0
  -22.8580   -9.4710   20.0750 C   0  0  0  0  0  3  0  0  0  0  0  0
  -23.6870  -10.5920   19.9190 C   0  0  0  0  0  3  0  0  0  0  0  0
  -22.2950   -7.4190   21.1160 O   0  0  0  0  0  0  0  0  0  0  0  0
  -21.9520   -6.8450   22.3120 C   0  0  0  0  0  0  0  0  0  0  0  0
  -21.3530   -7.5900   23.3510 C   0  0  0  0  0  3  0  0  0  0  0  0
  -20.9510   -6.9470   24.5380 C   0  0  0  0  0  3  0  0  0  0  0  0
  -21.1390   -5.5600   24.6860 C   0  0  0  0  0  0  0  0  0  0  0  0
  -21.7260   -4.8150   23.6490 C   0  0  0  0  0  3  0  0  0  0  0  0
  -22.1300   -5.4550   22.4640 C   0  0  0  0  0  0  0  0  0  0  0  0
  -22.6790   -4.7290   21.4610 F   0  0  0  0  0  0  0  0  0  0  0  0
  -20.7450   -4.9390   25.8220 F   0  0  0  0  0  0  0  0  0  0  0  0
  -24.1010  -13.9180   21.3630 C   0  0  0  0  0  0  0  0  0  0  0  0
  -23.4690  -13.2340   22.3110 N   0  0  0  0  0  0  0  0  0  0  0  0
  -23.6870  -15.0140   20.9890 O   0  0  0  0  0  0  0  0  0  0  0  0
  -23.8210  -12.3520   22.6480 H   0  0  0  0  0  0  0  0  0  0  0  0
  -22.6160  -13.6070   22.7040 H   0  0  0  0  0  0  0  0  0  0  0  0
  -26.7260  -15.3940   20.2580 N   0  0  0  0  0  0  0  0  0  0  0  0
  -25.9540  -16.0360   20.3990 H   0  0  0  0  0  0  0  0  0  0  0  0
  -27.4250  -15.7720   19.6330 H   0  0  0  0  0  0  0  0  0  0  0  0
  -29.8810  -23.7130   19.2760 C   0  0  0  0  0  2  0  0  0  0  0  0
  -28.7340  -24.8140   19.6200 C   0  0  0  0  0  2  0  0  0  0  0  0
  -28.9190  -26.2880   19.3750 O   0  0  0  0  0  0  0  0  0  0  0  0
  -25.1080  -31.1990   23.1140 C   0  0  0  0  0  0  0  0  0  0  0  0
  -27.7890  -27.1300   19.4640 C   0  0  0  0  0  0  0  0  0  0  0  0
  -23.9130  -29.9870   21.3270 C   0  0  0  0  0  3  0  0  0  0  0  0
  -25.3830  -28.6770   19.6870 C   0  0  0  0  0  0  0  0  0  0  0  0
  -26.4370  -30.4070   21.1370 C   0  0  0  0  0  2  0  0  0  0  0  0
  -26.5480  -29.1170   20.3270 C   0  0  0  0  0  0  0  0  0  0  0  0
  -27.7530  -28.3570   20.2050 C   0  0  0  0  0  3  0  0  0  0  0  0
  -26.6010  -26.7690   18.7860 C   0  0  0  0  0  3  0  0  0  0  0  0
  -25.4120  -27.5130   18.9060 C   0  0  0  0  0  3  0  0  0  0  0  0
  -24.1220  -29.5060   19.8670 C   0  0  0  0  0  2  0  0  0  0  0  0
  -25.1720  -30.5430   21.9180 N   0  0  0  0  0  0  0  0  0  0  0  0
  -24.0280  -31.3660   23.6990 O   0  0  0  0  0  0  0  0  0  0  0  0
  -23.3000  -28.8310   22.1560 C   0  0  0  0  0  0  0  0  0  0  0  0
  -21.9770  -28.6290   22.0330 N   0  0  0  0  0  0  0  0  0  0  0  0
  -24.0150  -28.1240   22.8690 O   0  0  0  0  0  0  0  0  0  0  0  0
  -21.4530  -29.2540   21.4390 H   0  0  0  0  0  0  0  0  0  0  0  0
  -18.6520  -27.2380   22.3950 C   0  0  0  0  0  0  0  0  0  0  0  0
  -21.2050  -27.5740   22.6900 C   0  0  0  0  0  3  0  0  0  0  0  0
  -21.3610  -26.2220   21.9550 C   0  0  0  0  0  2  0  0  0  0  0  0
  -20.2670  -25.9720   20.9110 C   0  0  0  0  0  2  0  0  0  0  0  0
  -18.8840  -25.9850   21.5670 C   0  0  0  0  0  2  0  0  0  0  0  0
  -19.7420  -27.9900   22.9090 C   0  0  0  0  0  0  0  0  0  0  0  0
  -19.4740  -29.1680   23.6420 C   0  0  0  0  0  3  0  0  0  0  0  0
  -18.1500  -29.5910   23.8640 C   0  0  0  0  0  3  0  0  0  0  0  0
  -17.0760  -28.8340   23.3650 C   0  0  0  0  0  3  0  0  0  0  0  0
  -17.3290  -27.6580   22.6370 C   0  0  0  0  0  3  0  0  0  0  0  0
  -26.3850  -31.7890   23.7920 C   0  0  0  0  0  3  0  0  0  0  0  0
  -26.9790  -30.8530   24.9140 C   0  0  1  0  0  0  0  0  0  0  0  0
  -25.9310  -30.3780   25.9440 C   0  0  0  0  0  1  0  0  0  0  0  0
  -27.6290  -29.6000   24.2850 C   0  0  0  0  0  1  0  0  0  0  0  0
  -28.0950  -31.5980   25.6830 C   0  0  0  0  0  1  0  0  0  0  0  0
  -26.0300  -33.1030   24.3460 N   0  0  0  0  0  0  0  0  0  0  0  0
  -26.3650  -34.2770   23.7950 C   0  0  0  0  0  0  0  0  0  0  0  0
  -27.0770  -34.3680   22.7910 O   0  0  0  0  0  0  0  0  0  0  0  0
  -25.4160  -33.1080   25.1460 H   0  0  0  0  0  0  0  0  0  0  0  0
  -24.6370  -36.0930   23.6580 C   0  0  0  0  0  1  0  0  0  0  0  0
  -25.8260  -35.5530   24.4670 C   0  0  0  0  0  3  0  0  0  0  0  0
  -27.8860  -36.2690   25.5900 C   0  0  0  0  0  1  0  0  0  0  0  0
  -26.8450  -36.6140   24.6250 N   0  0  0  0  0  0  0  0  0  0  0  0
  -26.4140  -37.4850   24.9240 H   0  0  0  0  0  0  0  0  0  0  0  0
  1  3  2  0
  2  1  1  0
  2  9  1  0
  4  2  1  0
  6  5  2  0
  7  5  1  0
  7 11  1  0
  8  9  2  0
  8 10  1  0
  9  6  1  0
 10  7  2  0
 12  8  1  0
 13 21  1  0
 14 19  1  0
 15 16  1  0
 15 14  1  0
 17 16  1  0
 17 26  1  0
 17 18  1  0
 19 13  1  0
 19 18  1  0
 20 13  2  0
 21 22  1  0
 21 10  1  0
 23 24  2  0
 24 43  1  0
 25 28  1  0
 25 24  1  0
 26 27  1  0
 26 23  1  0
 27 25  2  0
 28 29  1  0
 29 30  2  0
 31 34  1  0
 31 30  1  0
 32 31  2  0
 33 32  1  0
 33 28  2  0
 34 35  1  0
 35 40  2  0
 35 36  1  0
 36 37  2  0
 37 38  1  0
 38 42  1  0
 39 38  2  0
 40 39  1  0
 41 40  1  0
 43 44  1  0
 44 46  1  0
 44 47  1  0
 45 43  2  0
 48 23  1  0
 48 49  1  0
 50 48  1  0
 51 52  1  0
 51  1  1  0
 53 55  1  0
 53 52  1  0
 54 65  2  0
 55 60  1  0
 56 64  1  0
 56 66  1  0
 57 63  1  0
 57 59  1  0
 58 64  1  0
 59 58  1  0
 60 59  2  0
 61 62  1  0
 61 55  2  0
 62 57  2  0
 63 56  1  0
 64 54  1  0
 66 68  2  0
 67 66  1  0
 69 67  1  0
 70 79  2  0
 70 75  1  0
 71 67  1  0
 71 75  1  0
 72 71  1  0
 73 74  1  0
 73 72  1  0
 74 70  1  0
 75 76  2  0
 76 77  1  0
 78 77  2  0
 79 78  1  0
 80 54  1  0
 80 85  1  0
 80 81  1  0
 81 84  1  1
 81 82  1  0
 83 81  1  0
 85 88  1  0
 86 85  1  0
 86 90  1  0
 87 86  2  0
 90 89  1  0
 90 92  1  0
 92 93  1  0
 92 91  1  0
M  ISO  4  13 100  21 100  52 101  53 101
M  END
>  <TORSDO>  (77) 
F 19

>  <SCORE>  (77) 
-8.472

>  <name>  (77) 
77

>  <ligand_id>  (77) 
77

>  <original_smiles>  (77) 
[H]c1c([H])c([H])c2c(c1[H])C([H])([H])C([H])([H])C([H])([H])C2([H])N([H])C(=O)C1([H])N(C(=O)C([H])(N([H])C(=O)C([H])(N([H])C([H])([H])[H])C([H])([H])[H])C(C([H])([H])[H])(C([H])([H])[H])C([H])([H])[H])C([H])([H])c2c([H])c(OC([H])([H])C([H])([H])C(=O)N([H])c3c([H])c([H])c(C([H])([H])[H])c(N([H])C(=O)N4C([H])([H])C([H])([H])C([H])([H])C([H])(n5nc(-c6c([H])c([H])c(Oc7c([H])c([H])c(F)c([H])c7F)c([H])c6[H])c(C(=O)N([H])[H])c5N([H])[H])C4([H])[H])c3C([H])([H])[H])c([H])c([H])c2C1([H])[H]

>  <smiles>  (77) 
[H]c1c([H])c([H])c2c(c1[H])C([H])([H])C([H])([H])C([H])([H])C2([H])N([H])C(=O)C1([H])N(C(=O)C([H])(N([H])C(=O)C([H])(N([H])C([H])([H])[H])C([H])([H])[H])C(C([H])([H])[H])(C([H])([H])[H])C([H])([H])[H])C([H])([H])c2c([H])c(OC([H])([H])C([H])([H])C(=O)N([H])c3c([H])c([H])c(C([H])([H])[H])c(N([H])C(=O)N4C([H])([H])C([H])([H])C([H])([H])C([H])(n5nc(-c6c([H])c([H])c(Oc7c([H])c([H])c(F)c([H])c7F)c([H])c6[H])c(C(=O)N([H])[H])c5N([H])[H])C4([H])[H])c3C([H])([H])[H])c([H])c([H])c2C1([H])[H]

$$$$
78:0:0
     RDKit          3D

101109  0  0  1  0  0  0  0  0999 V2000
  -33.6160  -21.0240   21.6720 C   0  0  0  0  0  1  0  0  0  0  0  0
  -32.1740  -20.7690   21.6780 N   0  0  0  0  0  0  0  0  0  0  0  0
  -31.4210  -18.6520   22.5600 C   0  0  0  0  0  3  0  0  0  0  0  0
  -31.1080  -17.6090   19.9830 C   0  0  0  0  0  3  0  0  0  0  0  0
  -30.9570  -17.3290   22.4050 C   0  0  0  0  0  0  0  0  0  0  0  0
  -31.7440  -19.4510   21.4450 C   0  0  0  0  0  0  0  0  0  0  0  0
  -30.8220  -16.7880   21.1040 C   0  0  0  0  0  0  0  0  0  0  0  0
  -31.5790  -18.9320   20.1390 C   0  0  0  0  0  0  0  0  0  0  0  0
  -30.6550  -16.5120   23.6530 C   0  0  0  0  0  1  0  0  0  0  0  0
  -30.8230  -14.5620   20.0270 C   0  0  0  0  0  0  0  0  0  0  0  0
  -30.4210  -12.4340   18.8640 C   0  0  0  0  0  2  0  0  0  0  0  0
  -29.4000  -12.6410   17.7310 C   0  0  0  0  0  2  0  0  0  0  0  0
  -27.9640  -12.4720   18.2640 C   0  0  0  0  0  2  0  0  0  0  0  0
  -27.7020  -13.3000   19.5510 C   0  0  0  0  0  3  0  0  0  0  0  0
  -28.8350  -13.1040   20.5830 C   0  0  0  0  0  2  0  0  0  0  0  0
  -30.1220  -13.4040   19.9280 N   0  0  0  0  0  0  0  0  0  0  0  0
  -31.8190  -14.7940   19.3340 O   0  0  0  0  0  0  0  0  0  0  0  0
  -30.3790  -15.4440   20.9360 N   0  0  0  0  0  0  0  0  0  0  0  0
  -29.6620  -15.1130   21.5650 H   0  0  0  0  0  0  0  0  0  0  0  0
  -25.3700  -13.8530   20.4970 C   0  0  0  0  0  0  0  0  0  0  0  0
  -24.3360  -13.0560   20.9100 C   0  0  0  0  0  0  0  0  0  0  0  0
  -24.7910  -11.7100   20.7530 C   0  0  0  0  0  0  0  0  0  0  0  0
  -26.3910  -12.9930   20.1210 N   0  0  0  0  0  0  0  0  0  0  0  0
  -26.0480  -11.6950   20.3280 N   0  0  0  0  0  0  0  0  0  0  0  0
  -24.0830  -10.4360   20.9270 C   0  0  0  0  0  0  0  0  0  0  0  0
  -24.4760   -9.5010   21.9110 C   0  0  0  0  0  3  0  0  0  0  0  0
  -23.7700   -8.2900   22.0730 C   0  0  0  0  0  3  0  0  0  0  0  0
  -22.6550   -8.0050   21.2480 C   0  0  0  0  0  0  0  0  0  0  0  0
  -22.2820   -8.9280   20.2550 C   0  0  0  0  0  3  0  0  0  0  0  0
  -22.9900  -10.1300   20.0930 C   0  0  0  0  0  3  0  0  0  0  0  0
  -21.9270   -6.8410   21.3130 O   0  0  0  0  0  0  0  0  0  0  0  0
  -21.6550   -6.2290   22.5100 C   0  0  0  0  0  0  0  0  0  0  0  0
  -20.9080   -6.8690   23.5220 C   0  0  0  0  0  3  0  0  0  0  0  0
  -20.5920   -6.1770   24.7080 C   0  0  0  0  0  3  0  0  0  0  0  0
  -21.0130   -4.8440   24.8810 C   0  0  0  0  0  0  0  0  0  0  0  0
  -21.7530   -4.2040   23.8710 C   0  0  0  0  0  3  0  0  0  0  0  0
  -22.0700   -4.8930   22.6880 C   0  0  0  0  0  0  0  0  0  0  0  0
  -22.7650   -4.2640   21.7090 F   0  0  0  0  0  0  0  0  0  0  0  0
  -20.7040   -4.1770   26.0170 F   0  0  0  0  0  0  0  0  0  0  0  0
  -22.9690  -13.5090   21.3350 C   0  0  0  0  0  0  0  0  0  0  0  0
  -22.3160  -12.7590   22.2140 N   0  0  0  0  0  0  0  0  0  0  0  0
  -22.4900  -14.5660   20.9250 O   0  0  0  0  0  0  0  0  0  0  0  0
  -22.7160  -11.9060   22.5750 H   0  0  0  0  0  0  0  0  0  0  0  0
  -21.4030  -13.0470   22.5360 H   0  0  0  0  0  0  0  0  0  0  0  0
  -25.5210  -15.2330   20.3940 N   0  0  0  0  0  0  0  0  0  0  0  0
  -24.7730  -15.8800   20.6190 H   0  0  0  0  0  0  0  0  0  0  0  0
  -26.3470  -15.6930   20.0330 H   0  0  0  0  0  0  0  0  0  0  0  0
  -31.6520  -19.6690   17.7360 C   0  0  0  0  0  0  0  0  0  0  0  0
  -32.4100  -20.6150   16.8140 C   0  0  0  0  0  1  0  0  0  0  0  0
  -31.9530  -19.7610   19.0410 N   0  0  0  0  0  0  0  0  0  0  0  0
  -30.8050  -18.9090   17.2630 O   0  0  0  0  0  0  0  0  0  0  0  0
  -32.5470  -20.5340   19.3040 H   0  0  0  0  0  0  0  0  0  0  0  0
  -31.2360  -21.7730   21.1780 C   0  0  0  0  0  2  0  0  0  0  0  0
  -30.9780  -22.8860   22.2050 C   0  0  0  0  0  2  0  0  0  0  0  0
  -29.5410  -23.4430   22.1980 C   0  0  0  0  0  2  0  0  0  0  0  0
  -29.3990  -25.0770   20.3120 C   0  0  0  0  0  0  0  0  0  0  0  0
  -29.0620  -23.9220   20.9020 N   0  0  0  0  0  0  0  0  0  0  0  0
  -30.3600  -25.7540   20.6850 O   0  0  0  0  0  0  0  0  0  0  0  0
  -28.2700  -23.4340   20.5040 H   0  0  0  0  0  0  0  0  0  0  0  0
  -28.4740  -25.5710   19.1870 C   0  0  0  0  0  2  0  0  0  0  0  0
  -28.3880  -26.9910   19.2780 O   0  0  0  0  0  0  0  0  0  0  0  0
  -24.4450  -31.6030   22.9300 C   0  0  0  0  0  0  0  0  0  0  0  0
  -27.1540  -27.5860   19.3820 C   0  0  0  0  0  0  0  0  0  0  0  0
  -23.2400  -30.3340   21.1790 C   0  0  0  0  0  3  0  0  0  0  0  0
  -24.7030  -28.9760   19.5920 C   0  0  0  0  0  0  0  0  0  0  0  0
  -25.7450  -30.7870   20.9710 C   0  0  0  0  0  2  0  0  0  0  0  0
  -25.8530  -29.4880   20.2030 C   0  0  0  0  0  0  0  0  0  0  0  0
  -27.0770  -28.8000   20.0950 C   0  0  0  0  0  3  0  0  0  0  0  0
  -25.9860  -27.0710   18.7740 C   0  0  0  0  0  3  0  0  0  0  0  0
  -24.7600  -27.7640   18.8770 C   0  0  0  0  0  3  0  0  0  0  0  0
  -23.4360  -29.7890   19.7380 C   0  0  0  0  0  2  0  0  0  0  0  0
  -24.4950  -30.9180   21.7530 N   0  0  0  0  0  0  0  0  0  0  0  0
  -23.3690  -31.7920   23.5150 O   0  0  0  0  0  0  0  0  0  0  0  0
  -22.6350  -29.2110   22.0500 C   0  0  0  0  0  0  0  0  0  0  0  0
  -21.3030  -29.0500   21.9760 N   0  0  0  0  0  0  0  0  0  0  0  0
  -23.3560  -28.4920   22.7470 O   0  0  0  0  0  0  0  0  0  0  0  0
  -20.7830  -29.6860   21.3880 H   0  0  0  0  0  0  0  0  0  0  0  0
  -17.9430  -27.8640   22.5720 C   0  0  0  0  0  0  0  0  0  0  0  0
  -20.5210  -28.0320   22.6750 C   0  0  0  0  0  3  0  0  0  0  0  0
  -20.5360  -26.6910   21.9020 C   0  0  0  0  0  2  0  0  0  0  0  0
  -19.3500  -26.5340   20.9440 C   0  0  0  0  0  2  0  0  0  0  0  0
  -18.0270  -26.6160   21.7080 C   0  0  0  0  0  2  0  0  0  0  0  0
  -19.1130  -28.5370   23.0120 C   0  0  0  0  0  0  0  0  0  0  0  0
  -18.9780  -29.7130   23.7820 C   0  0  0  0  0  3  0  0  0  0  0  0
  -17.7050  -30.2110   24.1170 C   0  0  0  0  0  3  0  0  0  0  0  0
  -16.5500  -29.5310   23.6890 C   0  0  0  0  0  3  0  0  0  0  0  0
  -16.6710  -28.3600   22.9230 C   0  0  0  0  0  3  0  0  0  0  0  0
  -25.7300  -32.2020   23.5860 C   0  0  0  0  0  3  0  0  0  0  0  0
  -25.4230  -33.5860   23.9690 N   0  0  0  0  0  0  0  0  0  0  0  0
  -25.8090  -34.6690   23.2800 C   0  0  0  0  0  0  0  0  0  0  0  0
  -26.5280  -34.6060   22.2790 O   0  0  0  0  0  0  0  0  0  0  0  0
  -24.7870  -33.7100   24.7420 H   0  0  0  0  0  0  0  0  0  0  0  0
  -24.1690  -36.5370   22.8890 C   0  0  0  0  0  1  0  0  0  0  0  0
  -25.3170  -36.0410   23.7810 C   0  0  0  0  0  3  0  0  0  0  0  0
  -27.3770  -36.8110   24.8740 C   0  0  0  0  0  1  0  0  0  0  0  0
  -26.3830  -37.0630   23.8340 N   0  0  0  0  0  0  0  0  0  0  0  0
  -25.9870  -37.9870   23.9880 H   0  0  0  0  0  0  0  0  0  0  0  0
  -26.2390  -31.3770   24.8300 C   0  0  1  0  0  0  0  0  0  0  0  0
  -25.1410  -31.0920   25.8820 C   0  0  0  0  0  1  0  0  0  0  0  0
  -26.8270  -30.0170   24.3830 C   0  0  0  0  0  1  0  0  0  0  0  0
  -27.3860  -32.1420   25.5320 C   0  0  0  0  0  1  0  0  0  0  0  0
  1  2  1  0
  4  8  2  0
  4  7  1  0
  5  3  1  0
  5  9  1  0
  6  2  1  0
  6  3  2  0
  7  5  2  0
  8  6  1  0
 10 18  1  0
 11 16  1  0
 12 13  1  0
 12 11  1  0
 14 13  1  0
 14 23  1  0
 14 15  1  0
 16 10  1  0
 16 15  1  0
 17 10  2  0
 18  7  1  0
 18 19  1  0
 20 21  2  0
 21 40  1  0
 22 21  1  0
 22 25  1  0
 23 24  1  0
 23 20  1  0
 24 22  2  0
 25 26  1  0
 26 27  2  0
 28 31  1  0
 28 27  1  0
 29 28  2  0
 30 29  1  0
 30 25  2  0
 31 32  1  0
 32 37  2  0
 32 33  1  0
 33 34  2  0
 34 35  1  0
 35 39  1  0
 36 35  2  0
 37 36  1  0
 38 37  1  0
 40 41  1  0
 41 44  1  0
 41 43  1  0
 42 40  2  0
 45 20  1  0
 45 46  1  0
 47 45  1  0
 48 50  1  0
 49 48  1  0
 50 52  1  0
 50  8  1  0
 51 48  2  0
 53  2  1  0
 53 54  1  0
 55 54  1  0
 56 58  2  0
 56 57  1  0
 57 55  1  0
 59 57  1  0
 60 61  1  0
 60 56  1  0
 61 63  1  0
 62 73  2  0
 63 68  1  0
 64 72  1  0
 64 74  1  0
 65 71  1  0
 65 67  1  0
 66 72  1  0
 67 66  1  0
 68 67  2  0
 69 70  1  0
 69 63  2  0
 70 65  2  0
 71 64  1  0
 72 62  1  0
 74 76  2  0
 75 74  1  0
 77 75  1  0
 78 87  2  0
 78 83  1  0
 79 75  1  0
 79 83  1  0
 80 79  1  0
 81 82  1  0
 81 80  1  0
 82 78  1  0
 83 84  2  0
 84 85  1  0
 86 85  2  0
 87 86  1  0
 88 62  1  0
 88 89  1  0
 88 98  1  0
 89 92  1  0
 90 94  1  0
 90 89  1  0
 91 90  2  0
 94 93  1  0
 94 96  1  0
 96 97  1  0
 96 95  1  0
 98101  1  1
 98 99  1  0
100 98  1  0
M  ISO  4  10 100  18 100  60 101  61 101
M  END
>  <TORSDO>  (78) 
F 23

>  <SCORE>  (78) 
-9.831

>  <name>  (78) 
78

>  <ligand_id>  (78) 
78

>  <original_smiles>  (78) 
[H]c1c([H])c([H])c2c(c1[H])C([H])([H])C([H])([H])C([H])([H])C2([H])N([H])C(=O)C1([H])N(C(=O)C([H])(N([H])C(=O)C([H])(N([H])C([H])([H])[H])C([H])([H])[H])C(C([H])([H])[H])(C([H])([H])[H])C([H])([H])[H])C([H])([H])c2c([H])c(OC([H])([H])C(=O)N([H])C([H])([H])C([H])([H])C([H])([H])N(c3c([H])c(C([H])([H])[H])c(N([H])C(=O)N4C([H])([H])C([H])([H])C([H])([H])C([H])(n5nc(-c6c([H])c([H])c(Oc7c([H])c([H])c(F)c([H])c7F)c([H])c6[H])c(C(=O)N([H])[H])c5N([H])[H])C4([H])[H])c([H])c3N([H])C(=O)C([H])([H])[H])C([H])([H])[H])c([H])c([H])c2C1([H])[H]

>  <smiles>  (78) 
[H]c1c([H])c([H])c2c(c1[H])C([H])([H])C([H])([H])C([H])([H])C2([H])N([H])C(=O)C1([H])N(C(=O)C([H])(N([H])C(=O)C([H])(N([H])C([H])([H])[H])C([H])([H])[H])C(C([H])([H])[H])(C([H])([H])[H])C([H])([H])[H])C([H])([H])c2c([H])c(OC([H])([H])C(=O)N([H])C([H])([H])C([H])([H])C([H])([H])N(c3c([H])c(C([H])([H])[H])c(N([H])C(=O)N4C([H])([H])C([H])([H])C([H])([H])C([H])(n5nc(-c6c([H])c([H])c(Oc7c([H])c([H])c(F)c([H])c7F)c([H])c6[H])c(C(=O)N([H])[H])c5N([H])[H])C4([H])[H])c([H])c3N([H])C(=O)C([H])([H])[H])C([H])([H])[H])c([H])c([H])c2C1([H])[H]

$$$$
79:0:0
     RDKit          3D

 91 99  0  0  1  0  0  0  0  0999 V2000
  -31.3750  -18.2100   20.5540 C   0  0  0  0  0  3  0  0  0  0  0  0
  -30.8620  -20.6440   20.5210 C   0  0  0  0  0  3  0  0  0  0  0  0
  -31.7810  -19.5670   20.5850 C   0  0  0  0  0  0  0  0  0  0  0  0
  -30.0210  -17.8140   20.4620 C   0  0  0  0  0  0  0  0  0  0  0  0
  -29.4680  -20.4530   20.4230 C   0  0  0  0  0  0  0  0  0  0  0  0
  -29.0850  -18.9920   20.4000 C   0  0  0  0  0  0  0  0  0  0  0  0
  -33.2610  -19.8860   20.6860 C   0  0  0  0  0  1  0  0  0  0  0  0
  -27.7620  -18.7080   20.3120 F   0  0  0  0  0  0  0  0  0  0  0  0
  -30.4780  -15.0750   20.3290 C   0  0  0  0  0  0  0  0  0  0  0  0
  -30.3650  -12.7130   19.3760 C   0  0  0  0  0  2  0  0  0  0  0  0
  -29.4210  -12.6420   18.1530 C   0  0  0  0  0  2  0  0  0  0  0  0
  -27.9670  -12.4070   18.6040 C   0  0  0  0  0  2  0  0  0  0  0  0
  -27.5610  -13.3250   19.7870 C   0  0  0  0  0  3  0  0  0  0  0  0
  -28.6300  -13.3660   20.8990 C   0  0  0  0  0  2  0  0  0  0  0  0
  -29.8810  -13.8100   20.2690 N   0  0  0  0  0  0  0  0  0  0  0  0
  -31.6840  -15.1030   20.0600 O   0  0  0  0  0  0  0  0  0  0  0  0
  -29.7060  -16.2850   20.4640 N   0  0  0  0  0  0  0  0  0  0  0  0
  -28.7220  -16.0910   20.5660 H   0  0  0  0  0  0  0  0  0  0  0  0
  -25.1880  -13.8740   20.5630 C   0  0  0  0  0  0  0  0  0  0  0  0
  -24.1350  -13.0870   20.9370 C   0  0  0  0  0  0  0  0  0  0  0  0
  -24.6100  -11.7400   20.8890 C   0  0  0  0  0  0  0  0  0  0  0  0
  -26.2350  -13.0070   20.3010 N   0  0  0  0  0  0  0  0  0  0  0  0
  -25.8990  -11.7170   20.5650 N   0  0  0  0  0  0  0  0  0  0  0  0
  -23.8940  -10.4700   21.0740 C   0  0  0  0  0  0  0  0  0  0  0  0
  -24.3420   -9.4960   21.9930 C   0  0  0  0  0  3  0  0  0  0  0  0
  -23.6240   -8.2930   22.1670 C   0  0  0  0  0  3  0  0  0  0  0  0
  -22.4440   -8.0560   21.4220 C   0  0  0  0  0  0  0  0  0  0  0  0
  -22.0160   -9.0190   20.4920 C   0  0  0  0  0  3  0  0  0  0  0  0
  -22.7340  -10.2130   20.3160 C   0  0  0  0  0  3  0  0  0  0  0  0
  -21.6960   -6.9060   21.5070 O   0  0  0  0  0  0  0  0  0  0  0  0
  -21.6640   -6.1520   22.6530 C   0  0  0  0  0  0  0  0  0  0  0  0
  -21.2250   -6.6860   23.8840 C   0  0  0  0  0  3  0  0  0  0  0  0
  -21.1400   -5.8570   25.0200 C   0  0  0  0  0  3  0  0  0  0  0  0
  -21.4840   -4.4960   24.9260 C   0  0  0  0  0  0  0  0  0  0  0  0
  -21.9160   -3.9610   23.7000 C   0  0  0  0  0  3  0  0  0  0  0  0
  -22.0020   -4.7860   22.5660 C   0  0  0  0  0  0  0  0  0  0  0  0
  -22.3990   -4.2610   21.3820 F   0  0  0  0  0  0  0  0  0  0  0  0
  -21.3960   -3.6970   26.0170 F   0  0  0  0  0  0  0  0  0  0  0  0
  -22.7360  -13.5500   21.2240 C   0  0  0  0  0  0  0  0  0  0  0  0
  -22.0240  -12.8470   22.0950 N   0  0  0  0  0  0  0  0  0  0  0  0
  -22.2860  -14.5730   20.7100 O   0  0  0  0  0  0  0  0  0  0  0  0
  -22.4020  -12.0190   22.5320 H   0  0  0  0  0  0  0  0  0  0  0  0
  -21.0860  -13.1400   22.3300 H   0  0  0  0  0  0  0  0  0  0  0  0
  -25.3360  -15.2480   20.3950 N   0  0  0  0  0  0  0  0  0  0  0  0
  -24.5590  -15.8880   20.5200 H   0  0  0  0  0  0  0  0  0  0  0  0
  -26.1620  -15.7010   20.0300 H   0  0  0  0  0  0  0  0  0  0  0  0
  -28.6180  -21.6950   20.3520 N   0  0  0  0  0  0  0  0  0  0  0  0
  -27.6190  -21.5100   20.2820 H   0  0  0  0  0  0  0  0  0  0  0  0
  -29.0010  -23.2350   20.4430 C   0  0  0  0  0  3  0  0  0  0  0  0
  -27.9460  -24.5730   20.2110 C   0  0  0  0  0  3  0  0  0  0  0  0
  -28.2270  -26.1250   20.3480 O   0  0  0  0  0  0  0  0  0  0  0  0
  -24.6420  -31.9370   23.2500 C   0  0  0  0  0  0  0  0  0  0  0  0
  -27.1900  -27.1430   20.2700 C   0  0  0  0  0  0  0  0  0  0  0  0
  -23.4420  -30.5430   21.6110 C   0  0  0  0  0  3  0  0  0  0  0  0
  -24.8850  -28.9410   20.2060 C   0  0  0  0  0  0  0  0  0  0  0  0
  -26.0020  -30.7720   21.4670 C   0  0  0  0  0  2  0  0  0  0  0  0
  -26.0670  -29.3710   20.8210 C   0  0  0  0  0  0  0  0  0  0  0  0
  -27.2200  -28.4900   20.8330 C   0  0  0  0  0  3  0  0  0  0  0  0
  -25.9800  -26.8250   19.6140 C   0  0  0  0  0  3  0  0  0  0  0  0
  -24.8570  -27.6830   19.5850 C   0  0  0  0  0  3  0  0  0  0  0  0
  -23.6680  -29.8550   20.2380 C   0  0  0  0  0  2  0  0  0  0  0  0
  -24.7160  -31.1070   22.1640 N   0  0  0  0  0  0  0  0  0  0  0  0
  -23.5540  -32.2360   23.7670 O   0  0  0  0  0  0  0  0  0  0  0  0
  -22.7430  -29.5500   22.5750 C   0  0  0  0  0  0  0  0  0  0  0  0
  -21.4140  -29.3960   22.4430 N   0  0  0  0  0  0  0  0  0  0  0  0
  -23.4020  -28.9220   23.4070 O   0  0  0  0  0  0  0  0  0  0  0  0
  -20.9390  -29.9530   21.7470 H   0  0  0  0  0  0  0  0  0  0  0  0
  -18.0140  -28.2460   22.9470 C   0  0  0  0  0  0  0  0  0  0  0  0
  -20.5770  -28.4720   23.2140 C   0  0  0  0  0  3  0  0  0  0  0  0
  -20.6570  -27.0380   22.6410 C   0  0  0  0  0  2  0  0  0  0  0  0
  -19.5520  -26.7300   21.6270 C   0  0  0  0  0  2  0  0  0  0  0  0
  -18.1720  -26.8950   22.2690 C   0  0  0  0  0  2  0  0  0  0  0  0
  -19.1430  -28.9930   23.3750 C   0  0  0  0  0  0  0  0  0  0  0  0
  -18.9400  -30.2580   23.9700 C   0  0  0  0  0  3  0  0  0  0  0  0
  -17.6420  -30.7750   24.1380 C   0  0  0  0  0  3  0  0  0  0  0  0
  -16.5280  -30.0250   23.7230 C   0  0  0  0  0  3  0  0  0  0  0  0
  -16.7140  -28.7620   23.1340 C   0  0  0  0  0  3  0  0  0  0  0  0
  -25.9190  -32.5660   23.8840 C   0  0  0  0  0  3  0  0  0  0  0  0
  -26.4180  -31.7960   25.1690 C   0  0  1  0  0  0  0  0  0  0  0  0
  -25.3120  -31.5690   26.2270 C   0  0  0  0  0  1  0  0  0  0  0  0
  -26.9950  -30.4120   24.7920 C   0  0  0  0  0  1  0  0  0  0  0  0
  -27.5670  -32.5840   25.8400 C   0  0  0  0  0  1  0  0  0  0  0  0
  -25.6130  -33.9680   24.2170 N   0  0  0  0  0  0  0  0  0  0  0  0
  -25.9310  -35.0220   23.4540 C   0  0  0  0  0  0  0  0  0  0  0  0
  -26.5780  -34.9180   22.4090 O   0  0  0  0  0  0  0  0  0  0  0  0
  -25.0350  -34.1210   25.0300 H   0  0  0  0  0  0  0  0  0  0  0  0
  -24.1880  -36.8130   23.1550 C   0  0  0  0  0  1  0  0  0  0  0  0
  -25.4580  -36.4130   23.9230 C   0  0  0  0  0  3  0  0  0  0  0  0
  -27.6150  -37.3100   24.6800 C   0  0  0  0  0  1  0  0  0  0  0  0
  -26.4830  -37.4670   23.7700 N   0  0  0  0  0  0  0  0  0  0  0  0
  -26.0800  -38.3880   23.9220 H   0  0  0  0  0  0  0  0  0  0  0  0
  1  3  1  0
  2  3  2  0
  3  7  1  0
  4 17  1  0
  4  1  2  0
  5  2  1  0
  6  5  2  0
  6  4  1  0
  8  6  1  0
  9 17  1  0
 10 15  1  0
 11 12  1  0
 11 10  1  0
 13 12  1  0
 13 22  1  0
 13 14  1  0
 15  9  1  0
 15 14  1  0
 16  9  2  0
 17 18  1  0
 19 20  2  0
 20 39  1  0
 21 20  1  0
 21 24  1  0
 22 19  1  0
 22 23  1  0
 23 21  2  0
 24 25  1  0
 25 26  2  0
 27 30  1  0
 27 26  1  0
 28 27  2  0
 29 28  1  0
 29 24  2  0
 30 31  1  0
 31 32  1  0
 32 33  2  0
 34 33  1  0
 34 38  1  0
 35 34  2  0
 36 31  2  0
 36 35  1  0
 37 36  1  0
 39 40  1  0
 40 43  1  0
 40 42  1  0
 41 39  2  0
 44 45  1  0
 44 19  1  0
 46 44  1  0
 47  5  1  0
 47 49  1  0
 48 47  1  0
 50 51  1  0
 50 49  2  0
 52 63  2  0
 53 51  1  0
 53 58  1  0
 54 62  1  0
 54 64  1  0
 55 61  1  0
 55 57  1  0
 56 62  1  0
 57 58  2  0
 57 56  1  0
 59 53  2  0
 60 59  1  0
 60 55  2  0
 61 54  1  0
 62 52  1  0
 64 66  2  0
 65 64  1  0
 67 65  1  0
 68 77  2  0
 68 73  1  0
 69 65  1  0
 69 73  1  0
 70 69  1  0
 71 72  1  0
 71 70  1  0
 72 68  1  0
 73 74  2  0
 74 75  1  0
 76 75  2  0
 77 76  1  0
 78 52  1  0
 78 83  1  0
 78 79  1  0
 79 82  1  1
 79 80  1  0
 81 79  1  0
 83 86  1  0
 84 88  1  0
 84 83  1  0
 85 84  2  0
 88 87  1  0
 90 91  1  0
 90 88  1  0
 90 89  1  0
M  ISO  4   9 100  17 100  50 101  51 101
M  END
>  <TORSDO>  (79) 
F 19

>  <SCORE>  (79) 
-15.301

>  <name>  (79) 
79

>  <ligand_id>  (79) 
79

>  <original_smiles>  (79) 
[H]c1c([H])c([H])c2c(c1[H])C([H])([H])C([H])([H])C([H])([H])C2([H])N([H])C(=O)C1([H])N(C(=O)C([H])(N([H])C(=O)C([H])(N([H])C([H])([H])[H])C([H])([H])[H])C(C([H])([H])[H])(C([H])([H])[H])C([H])([H])[H])C([H])([H])c2c([H])c(OC([H])([H])C([H])([H])N([H])c3c([H])c(C([H])([H])[H])c([H])c(N([H])C(=O)N4C([H])([H])C([H])([H])C([H])([H])C([H])(n5nc(-c6c([H])c([H])c(Oc7c([H])c([H])c(F)c([H])c7F)c([H])c6[H])c(C(=O)N([H])[H])c5N([H])[H])C4([H])[H])c3F)c([H])c([H])c2C1([H])[H]

>  <smiles>  (79) 
[H]c1c([H])c([H])c2c(c1[H])C([H])([H])C([H])([H])C([H])([H])C2([H])N([H])C(=O)C1([H])N(C(=O)C([H])(N([H])C(=O)C([H])(N([H])C([H])([H])[H])C([H])([H])[H])C(C([H])([H])[H])(C([H])([H])[H])C([H])([H])[H])C([H])([H])c2c([H])c(OC([H])([H])C([H])([H])N([H])c3c([H])c(C([H])([H])[H])c([H])c(N([H])C(=O)N4C([H])([H])C([H])([H])C([H])([H])C([H])(n5nc(-c6c([H])c([H])c(Oc7c([H])c([H])c(F)c([H])c7F)c([H])c6[H])c(C(=O)N([H])[H])c5N([H])[H])C4([H])[H])c3F)c([H])c([H])c2C1([H])[H]

$$$$
80:0:0
     RDKit          3D

 94102  0  0  1  0  0  0  0  0999 V2000
  -30.2780  -18.6980   21.5910 C   0  0  0  0  0  3  0  0  0  0  0  0
  -30.1270  -20.1450   21.6650 C   0  0  0  0  0  0  0  0  0  0  0  0
  -29.3410  -20.1720   19.4340 C   0  0  0  0  0  0  0  0  0  0  0  0
  -29.9600  -17.8780   20.4650 C   0  0  0  0  0  0  0  0  0  0  0  0
  -29.6540  -20.9980   20.5850 C   0  0  0  0  0  0  0  0  0  0  0  0
  -29.4450  -18.7050   19.3930 C   0  0  0  0  0  0  0  0  0  0  0  0
  -30.4780  -20.7480   23.0180 C   0  0  0  0  0  1  0  0  0  0  0  0
  -28.9140  -20.8680   18.1500 C   0  0  0  0  0  1  0  0  0  0  0  0
  -30.7130  -15.2170   20.3410 C   0  0  0  0  0  0  0  0  0  0  0  0
  -30.6180  -12.8830   19.3470 C   0  0  0  0  0  2  0  0  0  0  0  0
  -29.6790  -12.8610   18.1170 C   0  0  0  0  0  2  0  0  0  0  0  0
  -28.2130  -12.6480   18.5470 C   0  0  0  0  0  2  0  0  0  0  0  0
  -27.8080  -13.5560   19.7370 C   0  0  0  0  0  3  0  0  0  0  0  0
  -28.8640  -13.5230   20.8630 C   0  0  0  0  0  2  0  0  0  0  0  0
  -30.1390  -13.9490   20.2720 N   0  0  0  0  0  0  0  0  0  0  0  0
  -31.9100  -15.3200   20.0480 O   0  0  0  0  0  0  0  0  0  0  0  0
  -29.8690  -16.3430   20.5350 N   0  0  0  0  0  0  0  0  0  0  0  0
  -28.9210  -16.0360   20.6860 H   0  0  0  0  0  0  0  0  0  0  0  0
  -25.4230  -14.1370   20.4660 C   0  0  0  0  0  0  0  0  0  0  0  0
  -24.3560  -13.3600   20.8310 C   0  0  0  0  0  0  0  0  0  0  0  0
  -24.8210  -12.0090   20.7980 C   0  0  0  0  0  0  0  0  0  0  0  0
  -26.4660  -13.2580   20.2280 N   0  0  0  0  0  0  0  0  0  0  0  0
  -26.1140  -11.9740   20.4940 N   0  0  0  0  0  0  0  0  0  0  0  0
  -24.0940  -10.7470   20.9830 C   0  0  0  0  0  0  0  0  0  0  0  0
  -24.5000   -9.7940   21.9420 C   0  0  0  0  0  3  0  0  0  0  0  0
  -23.7730   -8.5950   22.1130 C   0  0  0  0  0  3  0  0  0  0  0  0
  -22.6250   -8.3430   21.3240 C   0  0  0  0  0  0  0  0  0  0  0  0
  -22.2380   -9.2860   20.3550 C   0  0  0  0  0  3  0  0  0  0  0  0
  -22.9650  -10.4750   20.1830 C   0  0  0  0  0  3  0  0  0  0  0  0
  -21.8710   -7.1970   21.4040 O   0  0  0  0  0  0  0  0  0  0  0  0
  -21.7660   -6.4840   22.5710 C   0  0  0  0  0  0  0  0  0  0  0  0
  -21.2190   -7.0510   23.7440 C   0  0  0  0  0  3  0  0  0  0  0  0
  -21.0640   -6.2640   24.9010 C   0  0  0  0  0  3  0  0  0  0  0  0
  -21.4460   -4.9080   24.8880 C   0  0  0  0  0  0  0  0  0  0  0  0
  -21.9850   -4.3400   23.7190 C   0  0  0  0  0  3  0  0  0  0  0  0
  -22.1410   -5.1260   22.5640 C   0  0  0  0  0  0  0  0  0  0  0  0
  -22.6420   -4.5680   21.4340 F   0  0  0  0  0  0  0  0  0  0  0  0
  -21.2890   -4.1480   25.9960 F   0  0  0  0  0  0  0  0  0  0  0  0
  -22.9580  -13.8380   21.0930 C   0  0  0  0  0  0  0  0  0  0  0  0
  -22.2250  -13.1510   21.9610 N   0  0  0  0  0  0  0  0  0  0  0  0
  -22.5220  -14.8580   20.5610 O   0  0  0  0  0  0  0  0  0  0  0  0
  -22.5880  -12.3280   22.4200 H   0  0  0  0  0  0  0  0  0  0  0  0
  -21.2860  -13.4570   22.1760 H   0  0  0  0  0  0  0  0  0  0  0  0
  -25.5840  -15.5080   20.2930 N   0  0  0  0  0  0  0  0  0  0  0  0
  -24.8060  -16.1510   20.4000 H   0  0  0  0  0  0  0  0  0  0  0  0
  -26.4140  -15.9530   19.9240 H   0  0  0  0  0  0  0  0  0  0  0  0
  -28.6740  -23.5940   20.4250 C   0  0  0  0  0  0  0  0  0  0  0  0
  -30.9490  -23.1330   21.0420 C   0  0  0  0  0  1  0  0  0  0  0  0
  -29.6440  -22.5630   20.6800 N   0  0  0  0  0  0  0  0  0  0  0  0
  -27.7170  -23.3550   19.6840 O   0  0  0  0  0  0  0  0  0  0  0  0
  -28.6460  -25.1090   21.1370 C   0  0  0  0  0  2  0  0  0  0  0  0
  -28.6200  -26.4800   20.4100 O   0  0  0  0  0  0  0  0  0  0  0  0
  -24.7080  -32.0290   23.3840 C   0  0  0  0  0  0  0  0  0  0  0  0
  -27.5050  -27.3890   20.4480 C   0  0  0  0  0  0  0  0  0  0  0  0
  -23.5850  -30.5820   21.7320 C   0  0  0  0  0  3  0  0  0  0  0  0
  -25.1110  -29.0360   20.3580 C   0  0  0  0  0  0  0  0  0  0  0  0
  -26.1290  -30.9360   21.6070 C   0  0  0  0  0  2  0  0  0  0  0  0
  -26.2650  -29.5380   20.9780 C   0  0  0  0  0  0  0  0  0  0  0  0
  -27.4650  -28.7330   20.9980 C   0  0  0  0  0  3  0  0  0  0  0  0
  -26.3190  -26.9740   19.8080 C   0  0  0  0  0  3  0  0  0  0  0  0
  -25.1510  -27.7670   19.7590 C   0  0  0  0  0  3  0  0  0  0  0  0
  -23.8540  -29.8940   20.3660 C   0  0  0  0  0  2  0  0  0  0  0  0
  -24.8260  -31.2050   22.2970 N   0  0  0  0  0  0  0  0  0  0  0  0
  -23.6040  -32.2820   23.8900 O   0  0  0  0  0  0  0  0  0  0  0  0
  -22.9180  -29.5640   22.6910 C   0  0  0  0  0  0  0  0  0  0  0  0
  -21.6000  -29.3390   22.5280 N   0  0  0  0  0  0  0  0  0  0  0  0
  -23.5890  -28.9770   23.5430 O   0  0  0  0  0  0  0  0  0  0  0  0
  -21.1140  -29.8650   21.8160 H   0  0  0  0  0  0  0  0  0  0  0  0
  -18.2550  -28.0170   22.9550 C   0  0  0  0  0  0  0  0  0  0  0  0
  -20.7940  -28.3800   23.2880 C   0  0  0  0  0  3  0  0  0  0  0  0
  -20.9650  -26.9470   22.7330 C   0  0  0  0  0  2  0  0  0  0  0  0
  -19.9040  -26.5710   21.6940 C   0  0  0  0  0  2  0  0  0  0  0  0
  -18.5000  -26.6690   22.2970 C   0  0  0  0  0  2  0  0  0  0  0  0
  -19.3310  -28.8270   23.4050 C   0  0  0  0  0  0  0  0  0  0  0  0
  -19.0480  -30.0850   23.9800 C   0  0  0  0  0  3  0  0  0  0  0  0
  -17.7210  -30.5360   24.1070 C   0  0  0  0  0  3  0  0  0  0  0  0
  -16.6580  -29.7260   23.6720 C   0  0  0  0  0  3  0  0  0  0  0  0
  -16.9270  -28.4680   23.1020 C   0  0  0  0  0  3  0  0  0  0  0  0
  -25.9530  -32.7080   24.0310 C   0  0  0  0  0  3  0  0  0  0  0  0
  -26.4240  -31.9980   25.3600 C   0  0  1  0  0  0  0  0  0  0  0  0
  -25.2810  -31.7570   26.3740 C   0  0  0  0  0  1  0  0  0  0  0  0
  -27.0720  -30.6300   25.0520 C   0  0  0  0  0  1  0  0  0  0  0  0
  -27.5120  -32.8530   26.0540 C   0  0  0  0  0  1  0  0  0  0  0  0
  -25.6130  -34.1150   24.2950 N   0  0  0  0  0  0  0  0  0  0  0  0
  -25.9580  -35.1450   23.5080 C   0  0  0  0  0  0  0  0  0  0  0  0
  -26.6600  -35.0100   22.5030 O   0  0  0  0  0  0  0  0  0  0  0  0
  -24.9920  -34.2930   25.0700 H   0  0  0  0  0  0  0  0  0  0  0  0
  -24.2240  -36.9040   23.0310 C   0  0  0  0  0  1  0  0  0  0  0  0
  -25.4420  -36.5450   23.8970 C   0  0  0  0  0  3  0  0  0  0  0  0
  -27.5330  -37.4920   24.7680 C   0  0  0  0  0  1  0  0  0  0  0  0
  -26.4670  -37.6050   23.7760 N   0  0  0  0  0  0  0  0  0  0  0  0
  -26.0470  -38.5250   23.8650 H   0  0  0  0  0  0  0  0  0  0  0  0
  -29.8510  -17.3400   17.4780 C   0  0  0  0  0  1  0  0  0  0  0  0
  -28.9440  -18.1040   18.2600 O   0  0  0  0  0  0  0  0  0  0  0  0
  1  2  1  0
  2  7  1  0
  3  5  1  0
  4 17  1  0
  4  1  2  0
  5 49  1  0
  5  2  2  0
  6  3  2  0
  6  4  1  0
  8  3  1  0
  9 17  1  0
 10 15  1  0
 11 12  1  0
 11 10  1  0
 13 12  1  0
 13 22  1  0
 13 14  1  0
 15  9  1  0
 15 14  1  0
 16  9  2  0
 17 18  1  0
 19 20  2  0
 20 39  1  0
 21 20  1  0
 21 24  1  0
 22 19  1  0
 22 23  1  0
 23 21  2  0
 24 25  1  0
 25 26  2  0
 27 30  1  0
 27 26  1  0
 28 27  2  0
 29 28  1  0
 29 24  2  0
 30 31  1  0
 31 32  1  0
 32 33  2  0
 34 33  1  0
 34 38  1  0
 35 34  2  0
 36 31  2  0
 36 35  1  0
 37 36  1  0
 39 40  1  0
 40 43  1  0
 40 42  1  0
 41 39  2  0
 44 45  1  0
 44 19  1  0
 46 44  1  0
 47 49  1  0
 47 51  1  0
 49 48  1  0
 50 47  2  0
 52 54  1  0
 52 51  1  0
 53 64  2  0
 54 59  1  0
 55 63  1  0
 55 65  1  0
 56 62  1  0
 56 58  1  0
 57 63  1  0
 58 59  2  0
 58 57  1  0
 60 54  2  0
 61 60  1  0
 61 56  2  0
 62 55  1  0
 63 53  1  0
 65 67  2  0
 66 65  1  0
 68 66  1  0
 69 78  2  0
 69 74  1  0
 70 66  1  0
 70 74  1  0
 71 70  1  0
 72 73  1  0
 72 71  1  0
 73 69  1  0
 74 75  2  0
 75 76  1  0
 77 76  2  0
 78 77  1  0
 79 53  1  0
 79 84  1  0
 79 80  1  0
 80 83  1  1
 80 81  1  0
 82 80  1  0
 84 87  1  0
 85 89  1  0
 85 84  1  0
 86 85  2  0
 89 88  1  0
 91 92  1  0
 91 89  1  0
 91 90  1  0
 93 94  1  0
 94  6  1  0
M  ISO  4   9 100  17 100  51 101  52 101
M  END
>  <TORSDO>  (80) 
F 19

>  <SCORE>  (80) 
-13.418

>  <name>  (80) 
80

>  <ligand_id>  (80) 
80

>  <original_smiles>  (80) 
[H]c1c([H])c([H])c2c(c1[H])C([H])([H])C([H])([H])C([H])([H])C2([H])N([H])C(=O)C1([H])N(C(=O)C([H])(N([H])C(=O)C([H])(N([H])C([H])([H])[H])C([H])([H])[H])C(C([H])([H])[H])(C([H])([H])[H])C([H])([H])[H])C([H])([H])c2c([H])c(OC([H])([H])C(=O)N(c3c(C([H])([H])[H])c([H])c(N([H])C(=O)N4C([H])([H])C([H])([H])C([H])([H])C([H])(n5nc(-c6c([H])c([H])c(Oc7c([H])c([H])c(F)c([H])c7F)c([H])c6[H])c(C(=O)N([H])[H])c5N([H])[H])C4([H])[H])c(OC([H])([H])[H])c3C([H])([H])[H])C([H])([H])[H])c([H])c([H])c2C1([H])[H]

>  <smiles>  (80) 
[H]c1c([H])c([H])c2c(c1[H])C([H])([H])C([H])([H])C([H])([H])C2([H])N([H])C(=O)C1([H])N(C(=O)C([H])(N([H])C(=O)C([H])(N([H])C([H])([H])[H])C([H])([H])[H])C(C([H])([H])[H])(C([H])([H])[H])C([H])([H])[H])C([H])([H])c2c([H])c(OC([H])([H])C(=O)N(c3c(C([H])([H])[H])c([H])c(N([H])C(=O)N4C([H])([H])C([H])([H])C([H])([H])C([H])(n5nc(-c6c([H])c([H])c(Oc7c([H])c([H])c(F)c([H])c7F)c([H])c6[H])c(C(=O)N([H])[H])c5N([H])[H])C4([H])[H])c(OC([H])([H])[H])c3C([H])([H])[H])C([H])([H])[H])c([H])c([H])c2C1([H])[H]

$$$$
81:0:0
     RDKit          3D

 93101  0  0  1  0  0  0  0  0999 V2000
  -29.0880  -22.4890   20.1700 C   0  0  0  0  0  0  0  0  0  0  0  0
  -31.3410  -22.1170   21.0250 C   0  0  0  0  0  1  0  0  0  0  0  0
  -30.0750  -21.5790   20.5090 N   0  0  0  0  0  0  0  0  0  0  0  0
  -28.0080  -22.1140   19.7050 O   0  0  0  0  0  0  0  0  0  0  0  0
  -31.1540  -17.9020   20.0790 C   0  0  0  0  0  3  0  0  0  0  0  0
  -28.8430  -19.3590   20.7170 C   0  0  0  0  0  3  0  0  0  0  0  0
  -30.0010  -17.1640   20.4530 C   0  0  0  0  0  0  0  0  0  0  0  0
  -30.0050  -20.1080   20.3870 C   0  0  0  0  0  0  0  0  0  0  0  0
  -28.8450  -17.9330   20.7490 C   0  0  0  0  0  0  0  0  0  0  0  0
  -31.1550  -19.3290   20.0440 C   0  0  0  0  0  0  0  0  0  0  0  0
  -27.7070  -17.2810   21.0880 F   0  0  0  0  0  0  0  0  0  0  0  0
  -32.3000  -19.9530   19.6750 F   0  0  0  0  0  0  0  0  0  0  0  0
  -30.6600  -14.6720   20.0760 C   0  0  0  0  0  0  0  0  0  0  0  0
  -30.3740  -12.4710   18.9580 C   0  0  0  0  0  2  0  0  0  0  0  0
  -29.3650  -12.6460   17.8010 C   0  0  0  0  0  2  0  0  0  0  0  0
  -27.9160  -12.4870   18.3050 C   0  0  0  0  0  2  0  0  0  0  0  0
  -27.6360  -13.3130   19.5880 C   0  0  0  0  0  3  0  0  0  0  0  0
  -28.7510  -13.1070   20.6380 C   0  0  0  0  0  2  0  0  0  0  0  0
  -30.0330  -13.4550   20.0020 N   0  0  0  0  0  0  0  0  0  0  0  0
  -31.7920  -14.8380   19.6140 O   0  0  0  0  0  0  0  0  0  0  0  0
  -29.8940  -15.7060   20.5400 N   0  0  0  0  0  0  0  0  0  0  0  0
  -29.0210  -15.3990   20.9430 H   0  0  0  0  0  0  0  0  0  0  0  0
  -25.2870  -13.9120   20.4470 C   0  0  0  0  0  0  0  0  0  0  0  0
  -24.2340  -13.1370   20.8500 C   0  0  0  0  0  0  0  0  0  0  0  0
  -24.6810  -11.7830   20.7590 C   0  0  0  0  0  0  0  0  0  0  0  0
  -26.3110  -13.0300   20.1350 N   0  0  0  0  0  0  0  0  0  0  0  0
  -25.9540  -11.7430   20.3820 N   0  0  0  0  0  0  0  0  0  0  0  0
  -23.9550  -10.5220   20.9530 C   0  0  0  0  0  0  0  0  0  0  0  0
  -24.3920   -9.5530   21.8830 C   0  0  0  0  0  3  0  0  0  0  0  0
  -23.6670   -8.3560   22.0650 C   0  0  0  0  0  3  0  0  0  0  0  0
  -22.4880   -8.1200   21.3170 C   0  0  0  0  0  0  0  0  0  0  0  0
  -22.0700   -9.0780   20.3780 C   0  0  0  0  0  3  0  0  0  0  0  0
  -22.7960  -10.2660   20.1930 C   0  0  0  0  0  3  0  0  0  0  0  0
  -21.7340   -6.9760   21.4090 O   0  0  0  0  0  0  0  0  0  0  0  0
  -21.6410   -6.2660   22.5800 C   0  0  0  0  0  0  0  0  0  0  0  0
  -21.1610   -6.8530   23.7710 C   0  0  0  0  0  3  0  0  0  0  0  0
  -21.0170   -6.0690   24.9330 C   0  0  0  0  0  3  0  0  0  0  0  0
  -21.3420   -4.7000   24.9050 C   0  0  0  0  0  0  0  0  0  0  0  0
  -21.8150   -4.1130   23.7180 C   0  0  0  0  0  3  0  0  0  0  0  0
  -21.9610   -4.8940   22.5580 C   0  0  0  0  0  0  0  0  0  0  0  0
  -22.3970   -4.3190   21.4120 F   0  0  0  0  0  0  0  0  0  0  0  0
  -21.1970   -3.9450   26.0190 F   0  0  0  0  0  0  0  0  0  0  0  0
  -22.8580  -13.6170   21.2090 C   0  0  0  0  0  0  0  0  0  0  0  0
  -22.1740  -12.9080   22.1030 N   0  0  0  0  0  0  0  0  0  0  0  0
  -22.3980  -14.6550   20.7360 O   0  0  0  0  0  0  0  0  0  0  0  0
  -22.5600  -12.0680   22.5070 H   0  0  0  0  0  0  0  0  0  0  0  0
  -21.2530  -13.2110   22.3850 H   0  0  0  0  0  0  0  0  0  0  0  0
  -25.4540  -15.2850   20.3010 N   0  0  0  0  0  0  0  0  0  0  0  0
  -24.7070  -15.9420   20.5000 H   0  0  0  0  0  0  0  0  0  0  0  0
  -26.3080  -15.7400   20.0040 H   0  0  0  0  0  0  0  0  0  0  0  0
  -29.3100  -24.0540   20.3580 C   0  0  0  0  0  3  0  0  0  0  0  0
  -28.1610  -25.0520   19.9090 C   0  0  0  0  0  3  0  0  0  0  0  0
  -28.3390  -26.5050   20.1460 O   0  0  0  0  0  0  0  0  0  0  0  0
  -24.5390  -31.8180   23.1950 C   0  0  0  0  0  0  0  0  0  0  0  0
  -27.2030  -27.3290   20.0940 C   0  0  0  0  0  0  0  0  0  0  0  0
  -23.3500  -30.4230   21.5430 C   0  0  0  0  0  3  0  0  0  0  0  0
  -24.8160  -28.9050   20.1010 C   0  0  0  0  0  0  0  0  0  0  0  0
  -25.8840  -30.7740   21.3610 C   0  0  0  0  0  2  0  0  0  0  0  0
  -25.9790  -29.4050   20.7010 C   0  0  0  0  0  0  0  0  0  0  0  0
  -27.1750  -28.6290   20.6880 C   0  0  0  0  0  3  0  0  0  0  0  0
  -26.0150  -26.8830   19.4690 C   0  0  0  0  0  3  0  0  0  0  0  0
  -24.8360  -27.6490   19.4770 C   0  0  0  0  0  3  0  0  0  0  0  0
  -23.5700  -29.7630   20.1570 C   0  0  0  0  0  2  0  0  0  0  0  0
  -24.6100  -31.0220   22.0900 N   0  0  0  0  0  0  0  0  0  0  0  0
  -23.4540  -32.0800   23.7340 O   0  0  0  0  0  0  0  0  0  0  0  0
  -22.6990  -29.3900   22.4930 C   0  0  0  0  0  0  0  0  0  0  0  0
  -21.3770  -29.1950   22.3600 N   0  0  0  0  0  0  0  0  0  0  0  0
  -23.3840  -28.7680   23.3100 O   0  0  0  0  0  0  0  0  0  0  0  0
  -20.8830  -29.7500   21.6740 H   0  0  0  0  0  0  0  0  0  0  0  0
  -18.0130  -27.9560   22.8410 C   0  0  0  0  0  0  0  0  0  0  0  0
  -20.5660  -28.2430   23.1210 C   0  0  0  0  0  3  0  0  0  0  0  0
  -20.6860  -26.8160   22.5350 C   0  0  0  0  0  2  0  0  0  0  0  0
  -19.5910  -26.4890   21.5150 C   0  0  0  0  0  2  0  0  0  0  0  0
  -18.2060  -26.6140   22.1560 C   0  0  0  0  0  2  0  0  0  0  0  0
  -19.1210  -28.7280   23.2790 C   0  0  0  0  0  0  0  0  0  0  0  0
  -18.8860  -29.9840   23.8800 C   0  0  0  0  0  3  0  0  0  0  0  0
  -17.5750  -30.4700   24.0450 C   0  0  0  0  0  3  0  0  0  0  0  0
  -16.4800  -29.6960   23.6220 C   0  0  0  0  0  3  0  0  0  0  0  0
  -16.7000  -28.4400   23.0260 C   0  0  0  0  0  3  0  0  0  0  0  0
  -25.8160  -32.4580   23.8230 C   0  0  0  0  0  3  0  0  0  0  0  0
  -26.3310  -31.6900   25.1030 C   0  0  1  0  0  0  0  0  0  0  0  0
  -25.2330  -31.4430   26.1630 C   0  0  0  0  0  1  0  0  0  0  0  0
  -26.9270  -30.3170   24.7130 C   0  0  0  0  0  1  0  0  0  0  0  0
  -27.4710  -32.4920   25.7720 C   0  0  0  0  0  1  0  0  0  0  0  0
  -25.4970  -33.8540   24.1530 N   0  0  0  0  0  0  0  0  0  0  0  0
  -25.8150  -34.9090   23.3880 C   0  0  0  0  0  0  0  0  0  0  0  0
  -26.4770  -34.8080   22.3510 O   0  0  0  0  0  0  0  0  0  0  0  0
  -24.9080  -34.0060   24.9580 H   0  0  0  0  0  0  0  0  0  0  0  0
  -24.0620  -36.6810   23.0530 C   0  0  0  0  0  1  0  0  0  0  0  0
  -25.3200  -36.2940   23.8460 C   0  0  0  0  0  3  0  0  0  0  0  0
  -27.4540  -37.2100   24.6420 C   0  0  0  0  0  1  0  0  0  0  0  0
  -26.3390  -37.3570   23.7110 N   0  0  0  0  0  0  0  0  0  0  0  0
  -25.9250  -38.2740   23.8550 H   0  0  0  0  0  0  0  0  0  0  0  0
  1 51  1  0
  1  3  1  0
  3  2  1  0
  4  1  2  0
  5  7  1  0
  6  9  1  0
  7 21  1  0
  7  9  2  0
  8  3  1  0
  8  6  2  0
  9 11  1  0
 10  5  2  0
 10  8  1  0
 12 10  1  0
 13 21  1  0
 14 19  1  0
 15 16  1  0
 15 14  1  0
 17 16  1  0
 17 26  1  0
 17 18  1  0
 19 13  1  0
 19 18  1  0
 20 13  2  0
 21 22  1  0
 23 24  2  0
 24 43  1  0
 25 24  1  0
 25 28  1  0
 26 27  1  0
 26 23  1  0
 27 25  2  0
 28 29  1  0
 29 30  2  0
 31 34  1  0
 31 30  1  0
 32 31  2  0
 33 32  1  0
 33 28  2  0
 34 35  1  0
 35 36  1  0
 36 37  2  0
 38 37  1  0
 38 42  1  0
 39 38  2  0
 40 35  2  0
 40 39  1  0
 41 40  1  0
 43 44  1  0
 44 47  1  0
 44 46  1  0
 45 43  2  0
 48 23  1  0
 48 49  1  0
 50 48  1  0
 52 53  1  0
 52 51  2  0
 54 65  2  0
 55 53  1  0
 55 60  1  0
 56 64  1  0
 56 66  1  0
 57 63  1  0
 57 59  1  0
 58 64  1  0
 59 58  1  0
 60 59  2  0
 61 62  1  0
 61 55  2  0
 62 57  2  0
 63 56  1  0
 64 54  1  0
 66 68  2  0
 67 66  1  0
 69 67  1  0
 70 79  2  0
 70 75  1  0
 71 67  1  0
 71 75  1  0
 72 71  1  0
 73 74  1  0
 73 72  1  0
 74 70  1  0
 75 76  2  0
 76 77  1  0
 78 77  2  0
 79 78  1  0
 80 54  1  0
 80 85  1  0
 80 81  1  0
 81 84  1  1
 81 82  1  0
 83 81  1  0
 85 88  1  0
 86 90  1  0
 86 85  1  0
 87 86  2  0
 90 89  1  0
 92 90  1  0
 92 93  1  0
 92 91  1  0
M  ISO  4  13 100  21 100  52 101  53 101
M  END
>  <TORSDO>  (81) 
F 19

>  <SCORE>  (81) 
-14.053

>  <name>  (81) 
81

>  <ligand_id>  (81) 
81

>  <original_smiles>  (81) 
[H]c1c([H])c([H])c2c(c1[H])C([H])([H])C([H])([H])C([H])([H])C2([H])N([H])C(=O)C1([H])N(C(=O)C([H])(N([H])C(=O)C([H])(N([H])C([H])([H])[H])C([H])([H])[H])C(C([H])([H])[H])(C([H])([H])[H])C([H])([H])[H])C([H])([H])c2c([H])c(OC([H])([H])C([H])([H])C(=O)N(c3c([H])c(F)c(N([H])C(=O)N4C([H])([H])C([H])([H])C([H])([H])C([H])(n5nc(-c6c([H])c([H])c(Oc7c([H])c([H])c(F)c([H])c7F)c([H])c6[H])c(C(=O)N([H])[H])c5N([H])[H])C4([H])[H])c([H])c3F)C([H])([H])[H])c([H])c([H])c2C1([H])[H]

>  <smiles>  (81) 
[H]c1c([H])c([H])c2c(c1[H])C([H])([H])C([H])([H])C([H])([H])C2([H])N([H])C(=O)C1([H])N(C(=O)C([H])(N([H])C(=O)C([H])(N([H])C([H])([H])[H])C([H])([H])[H])C(C([H])([H])[H])(C([H])([H])[H])C([H])([H])[H])C([H])([H])c2c([H])c(OC([H])([H])C([H])([H])C(=O)N(c3c([H])c(F)c(N([H])C(=O)N4C([H])([H])C([H])([H])C([H])([H])C([H])(n5nc(-c6c([H])c([H])c(Oc7c([H])c([H])c(F)c([H])c7F)c([H])c6[H])c(C(=O)N([H])[H])c5N([H])[H])C4([H])[H])c([H])c3F)C([H])([H])[H])c([H])c([H])c2C1([H])[H]

$$$$
82:0:0
     RDKit          3D

 94102  0  0  1  0  0  0  0  0999 V2000
  -30.5310  -20.7960   21.5500 C   0  0  0  0  0  3  0  0  0  0  0  0
  -31.3430  -18.9270   22.7840 C   0  0  0  0  0  3  0  0  0  0  0  0
  -31.3080  -20.2950   22.5900 C   0  0  0  0  0  0  0  0  0  0  0  0
  -29.6680  -20.0730   20.6680 C   0  0  0  0  0  0  0  0  0  0  0  0
  -29.9680  -18.4570   20.7190 C   0  0  0  0  0  0  0  0  0  0  0  0
  -30.7070  -18.0690   21.8950 C   0  0  0  0  0  0  0  0  0  0  0  0
  -30.8020  -16.7770   22.2980 F   0  0  0  0  0  0  0  0  0  0  0  0
  -30.4370  -15.6420   20.0050 C   0  0  0  0  0  0  0  0  0  0  0  0
  -30.4460  -13.1560   19.1530 C   0  0  0  0  0  2  0  0  0  0  0  0
  -29.4910  -12.8240   17.9780 C   0  0  0  0  0  2  0  0  0  0  0  0
  -28.0750  -12.5110   18.4920 C   0  0  0  0  0  2  0  0  0  0  0  0
  -27.6300  -13.5020   19.5960 C   0  0  0  0  0  3  0  0  0  0  0  0
  -28.7160  -13.7610   20.6600 C   0  0  0  0  0  2  0  0  0  0  0  0
  -29.8740  -14.3230   19.9370 N   0  0  0  0  0  0  0  0  0  0  0  0
  -31.6640  -15.5980   19.8100 O   0  0  0  0  0  0  0  0  0  0  0  0
  -29.7070  -16.9800   20.0340 N   0  0  0  0  0  0  0  0  0  0  0  0
  -28.7530  -16.8720   19.7250 H   0  0  0  0  0  0  0  0  0  0  0  0
  -25.3060  -14.0170   20.4970 C   0  0  0  0  0  0  0  0  0  0  0  0
  -24.2660  -13.2230   20.8880 C   0  0  0  0  0  0  0  0  0  0  0  0
  -24.7340  -11.8770   20.7860 C   0  0  0  0  0  0  0  0  0  0  0  0
  -26.3370  -13.1570   20.1720 N   0  0  0  0  0  0  0  0  0  0  0  0
  -26.0100  -11.8600   20.4140 N   0  0  0  0  0  0  0  0  0  0  0  0
  -24.0180  -10.6050   20.9630 C   0  0  0  0  0  0  0  0  0  0  0  0
  -24.4690   -9.6200   21.8680 C   0  0  0  0  0  3  0  0  0  0  0  0
  -23.7460   -8.4190   22.0390 C   0  0  0  0  0  3  0  0  0  0  0  0
  -22.5590   -8.1940   21.3030 C   0  0  0  0  0  0  0  0  0  0  0  0
  -22.1250   -9.1690   20.3870 C   0  0  0  0  0  3  0  0  0  0  0  0
  -22.8490  -10.3610   20.2140 C   0  0  0  0  0  3  0  0  0  0  0  0
  -21.8060   -7.0470   21.3830 O   0  0  0  0  0  0  0  0  0  0  0  0
  -21.7520   -6.3000   22.5340 C   0  0  0  0  0  0  0  0  0  0  0  0
  -21.2860   -6.8430   23.7510 C   0  0  0  0  0  3  0  0  0  0  0  0
  -21.1790   -6.0230   24.8920 C   0  0  0  0  0  3  0  0  0  0  0  0
  -21.5300   -4.6610   24.8170 C   0  0  0  0  0  0  0  0  0  0  0  0
  -21.9900   -4.1190   23.6040 C   0  0  0  0  0  3  0  0  0  0  0  0
  -22.0970   -4.9360   22.4650 C   0  0  0  0  0  0  0  0  0  0  0  0
  -22.5200   -4.4020   21.2930 F   0  0  0  0  0  0  0  0  0  0  0  0
  -21.4220   -3.8710   25.9100 F   0  0  0  0  0  0  0  0  0  0  0  0
  -22.8810  -13.6870   21.2330 C   0  0  0  0  0  0  0  0  0  0  0  0
  -22.1950  -12.9640   22.1090 N   0  0  0  0  0  0  0  0  0  0  0  0
  -22.4200  -14.7270   20.7630 O   0  0  0  0  0  0  0  0  0  0  0  0
  -22.5830  -12.1210   22.5090 H   0  0  0  0  0  0  0  0  0  0  0  0
  -21.2690  -13.2570   22.3900 H   0  0  0  0  0  0  0  0  0  0  0  0
  -25.4530  -15.3930   20.3580 N   0  0  0  0  0  0  0  0  0  0  0  0
  -24.6860  -16.0350   20.5260 H   0  0  0  0  0  0  0  0  0  0  0  0
  -26.2800  -15.8500   19.9970 H   0  0  0  0  0  0  0  0  0  0  0  0
  -28.5230  -22.7870   20.4200 C   0  0  0  0  0  0  0  0  0  0  0  0
  -28.8200  -21.3400   19.9940 N   0  0  0  0  0  0  0  0  0  0  0  0
  -28.6810  -23.0160   21.6220 O   0  0  0  0  0  0  0  0  0  0  0  0
  -28.4610  -21.1360   19.0700 H   0  0  0  0  0  0  0  0  0  0  0  0
  -27.8740  -24.2670   19.6470 C   0  0  0  0  0  2  0  0  0  0  0  0
  -27.9810  -25.8960   20.0980 O   0  0  0  0  0  0  0  0  0  0  0  0
  -24.5410  -31.9460   23.1970 C   0  0  0  0  0  0  0  0  0  0  0  0
  -26.9910  -27.0420   20.0350 C   0  0  0  0  0  0  0  0  0  0  0  0
  -23.2960  -30.5650   21.5830 C   0  0  0  0  0  3  0  0  0  0  0  0
  -24.6990  -28.9710   20.0900 C   0  0  0  0  0  0  0  0  0  0  0  0
  -25.8610  -30.7610   21.3620 C   0  0  0  0  0  2  0  0  0  0  0  0
  -25.9090  -29.3530   20.6810 C   0  0  0  0  0  0  0  0  0  0  0  0
  -27.0420  -28.4110   20.6310 C   0  0  0  0  0  3  0  0  0  0  0  0
  -25.7520  -26.8370   19.3870 C   0  0  0  0  0  3  0  0  0  0  0  0
  -24.6490  -27.7370   19.4210 C   0  0  0  0  0  3  0  0  0  0  0  0
  -23.4810  -29.8930   20.1920 C   0  0  0  0  0  2  0  0  0  0  0  0
  -24.5910  -31.1200   22.0990 N   0  0  0  0  0  0  0  0  0  0  0  0
  -23.4680  -32.2330   23.7530 O   0  0  0  0  0  0  0  0  0  0  0  0
  -22.6290  -29.5630   22.5640 C   0  0  0  0  0  0  0  0  0  0  0  0
  -21.3020  -29.3690   22.4530 N   0  0  0  0  0  0  0  0  0  0  0  0
  -23.3150  -28.9580   23.3920 O   0  0  0  0  0  0  0  0  0  0  0  0
  -20.8000  -29.9090   21.7620 H   0  0  0  0  0  0  0  0  0  0  0  0
  -17.9610  -28.0410   22.9620 C   0  0  0  0  0  0  0  0  0  0  0  0
  -20.5080  -28.4160   23.2360 C   0  0  0  0  0  3  0  0  0  0  0  0
  -20.6700  -26.9760   22.6940 C   0  0  0  0  0  2  0  0  0  0  0  0
  -19.5900  -26.5910   21.6770 C   0  0  0  0  0  2  0  0  0  0  0  0
  -18.1990  -26.6890   22.3090 C   0  0  0  0  0  2  0  0  0  0  0  0
  -19.0460  -28.8580   23.3830 C   0  0  0  0  0  0  0  0  0  0  0  0
  -18.7680  -30.1180   23.9560 C   0  0  0  0  0  3  0  0  0  0  0  0
  -17.4420  -30.5620   24.1110 C   0  0  0  0  0  3  0  0  0  0  0  0
  -16.3730  -29.7440   23.7050 C   0  0  0  0  0  3  0  0  0  0  0  0
  -16.6340  -28.4830   23.1380 C   0  0  0  0  0  3  0  0  0  0  0  0
  -25.8300  -32.5840   23.7990 C   0  0  0  0  0  3  0  0  0  0  0  0
  -26.3580  -31.8260   25.0800 C   0  0  1  0  0  0  0  0  0  0  0  0
  -25.2790  -31.6120   26.1680 C   0  0  0  0  0  1  0  0  0  0  0  0
  -26.9270  -30.4370   24.7080 C   0  0  0  0  0  1  0  0  0  0  0  0
  -27.5230  -32.6230   25.7170 C   0  0  0  0  0  1  0  0  0  0  0  0
  -25.5280  -33.9860   24.1380 N   0  0  0  0  0  0  0  0  0  0  0  0
  -25.8710  -35.0500   23.4000 C   0  0  0  0  0  0  0  0  0  0  0  0
  -26.5410  -34.9550   22.3680 O   0  0  0  0  0  0  0  0  0  0  0  0
  -24.9280  -34.1360   24.9370 H   0  0  0  0  0  0  0  0  0  0  0  0
  -24.1710  -36.8820   23.0780 C   0  0  0  0  0  1  0  0  0  0  0  0
  -25.4040  -36.4400   23.8810 C   0  0  0  0  0  3  0  0  0  0  0  0
  -27.5440  -37.2890   24.7360 C   0  0  0  0  0  1  0  0  0  0  0  0
  -26.4500  -37.4810   23.7890 N   0  0  0  0  0  0  0  0  0  0  0  0
  -26.0520  -38.4040   23.9460 H   0  0  0  0  0  0  0  0  0  0  0  0
  -31.3460  -21.2770   24.7680 C   0  0  0  0  0  1  0  0  0  0  0  0
  -33.4250  -20.9730   23.4540 C   0  0  0  0  0  1  0  0  0  0  0  0
  -31.9810  -21.1740   23.4540 N   0  0  0  0  0  0  0  0  0  0  0  0
  1  3  1  0
  3  2  2  0
  3 94  1  0
  4  5  1  0
  4  1  2  0
  5  6  2  0
  6  7  1  0
  6  2  1  0
  8 16  1  0
  9 14  1  0
 10 11  1  0
 10  9  1  0
 12 11  1  0
 12 21  1  0
 12 13  1  0
 14  8  1  0
 14 13  1  0
 15  8  2  0
 16  5  1  0
 17 16  1  0
 18 19  2  0
 19 38  1  0
 20 19  1  0
 20 23  1  0
 21 22  1  0
 21 18  1  0
 22 20  2  0
 23 24  1  0
 24 25  2  0
 26 29  1  0
 26 25  1  0
 27 26  2  0
 28 27  1  0
 28 23  2  0
 29 30  1  0
 30 31  1  0
 31 32  2  0
 33 32  1  0
 33 37  1  0
 34 33  2  0
 35 30  2  0
 35 34  1  0
 36 35  1  0
 38 39  1  0
 39 42  1  0
 39 41  1  0
 40 38  2  0
 43 18  1  0
 43 44  1  0
 45 43  1  0
 46 48  2  0
 47 46  1  0
 47  4  1  0
 49 47  1  0
 50 51  1  0
 50 46  1  0
 52 63  2  0
 53 51  1  0
 53 58  1  0
 54 62  1  0
 54 64  1  0
 55 61  1  0
 55 57  1  0
 56 62  1  0
 57 56  1  0
 58 57  2  0
 59 60  1  0
 59 53  2  0
 60 55  2  0
 61 54  1  0
 62 52  1  0
 64 66  2  0
 65 64  1  0
 67 65  1  0
 68 77  2  0
 68 73  1  0
 69 65  1  0
 69 73  1  0
 70 69  1  0
 71 72  1  0
 71 70  1  0
 72 68  1  0
 73 74  2  0
 74 75  1  0
 76 75  2  0
 77 76  1  0
 78 52  1  0
 78 83  1  0
 78 79  1  0
 79 82  1  1
 79 80  1  0
 81 79  1  0
 83 86  1  0
 84 88  1  0
 84 83  1  0
 85 84  2  0
 88 87  1  0
 90 88  1  0
 90 91  1  0
 90 89  1  0
 94 93  1  0
 94 92  1  0
M  ISO  4   8 100  16 100  50 101  51 101
M  END
>  <TORSDO>  (82) 
F 19

>  <SCORE>  (82) 
-15.421

>  <name>  (82) 
82

>  <ligand_id>  (82) 
82

>  <original_smiles>  (82) 
[H]c1c([H])c([H])c2c(c1[H])C([H])([H])C([H])([H])C([H])([H])C2([H])N([H])C(=O)C1([H])N(C(=O)C([H])(N([H])C(=O)C([H])(N([H])C([H])([H])[H])C([H])([H])[H])C(C([H])([H])[H])(C([H])([H])[H])C([H])([H])[H])C([H])([H])c2c([H])c(OC([H])([H])C(=O)N([H])c3c([H])c(N(C([H])([H])[H])C([H])([H])[H])c([H])c(F)c3N([H])C(=O)N3C([H])([H])C([H])([H])C([H])([H])C([H])(n4nc(-c5c([H])c([H])c(Oc6c([H])c([H])c(F)c([H])c6F)c([H])c5[H])c(C(=O)N([H])[H])c4N([H])[H])C3([H])[H])c([H])c([H])c2C1([H])[H]

>  <smiles>  (82) 
[H]c1c([H])c([H])c2c(c1[H])C([H])([H])C([H])([H])C([H])([H])C2([H])N([H])C(=O)C1([H])N(C(=O)C([H])(N([H])C(=O)C([H])(N([H])C([H])([H])[H])C([H])([H])[H])C(C([H])([H])[H])(C([H])([H])[H])C([H])([H])[H])C([H])([H])c2c([H])c(OC([H])([H])C(=O)N([H])c3c([H])c(N(C([H])([H])[H])C([H])([H])[H])c([H])c(F)c3N([H])C(=O)N3C([H])([H])C([H])([H])C([H])([H])C([H])(n4nc(-c5c([H])c([H])c(Oc6c([H])c([H])c(F)c([H])c6F)c([H])c5[H])c(C(=O)N([H])[H])c4N([H])[H])C3([H])[H])c([H])c([H])c2C1([H])[H]

$$$$
83:0:0
     RDKit          3D

 95102  0  0  1  0  0  0  0  0999 V2000
  -30.7960  -22.6160   22.8290 C   0  0  0  0  0  2  0  0  0  0  0  0
  -28.6670  -23.5230   21.9800 C   0  0  0  0  0  0  0  0  0  0  0  0
  -30.2620  -25.0040   23.1950 C   0  0  0  0  0  1  0  0  0  0  0  0
  -29.8680  -23.7330   22.5750 N   0  0  0  0  0  0  0  0  0  0  0  0
  -28.2730  -22.3900   21.6910 O   0  0  0  0  0  0  0  0  0  0  0  0
  -27.7550  -24.6910   21.5790 C   0  0  0  0  0  2  0  0  0  0  0  0
  -27.6460  -24.7700   20.0450 C   0  0  0  0  0  2  0  0  0  0  0  0
  -27.6770  -26.1220   19.6110 O   0  0  0  0  0  0  0  0  0  0  0  0
  -24.3890  -31.3920   23.0320 C   0  0  0  0  0  0  0  0  0  0  0  0
  -26.5310  -26.8640   19.7270 C   0  0  0  0  0  0  0  0  0  0  0  0
  -23.0070  -30.1580   21.3930 C   0  0  0  0  0  3  0  0  0  0  0  0
  -24.2660  -28.5380   19.8830 C   0  0  0  0  0  0  0  0  0  0  0  0
  -25.5470  -30.2980   21.1210 C   0  0  0  0  0  2  0  0  0  0  0  0
  -25.4830  -28.9490   20.4410 C   0  0  0  0  0  0  0  0  0  0  0  0
  -26.6160  -28.1210   20.3570 C   0  0  0  0  0  3  0  0  0  0  0  0
  -25.2970  -26.4470   19.1770 C   0  0  0  0  0  3  0  0  0  0  0  0
  -24.1670  -27.2830   19.2560 C   0  0  0  0  0  3  0  0  0  0  0  0
  -23.1100  -29.5050   19.9890 C   0  0  0  0  0  2  0  0  0  0  0  0
  -24.3360  -30.6270   21.9060 N   0  0  0  0  0  0  0  0  0  0  0  0
  -23.3550  -31.7450   23.6150 O   0  0  0  0  0  0  0  0  0  0  0  0
  -22.2980  -29.1690   22.3440 C   0  0  0  0  0  0  0  0  0  0  0  0
  -20.9580  -29.1240   22.2640 N   0  0  0  0  0  0  0  0  0  0  0  0
  -22.9450  -28.4470   23.1060 O   0  0  0  0  0  0  0  0  0  0  0  0
  -20.5010  -29.7490   21.6140 H   0  0  0  0  0  0  0  0  0  0  0  0
  -17.4990  -28.2710   22.8580 C   0  0  0  0  0  0  0  0  0  0  0  0
  -20.0780  -28.2430   23.0310 C   0  0  0  0  0  3  0  0  0  0  0  0
  -20.0050  -26.8380   22.3910 C   0  0  0  0  0  2  0  0  0  0  0  0
  -18.8330  -26.6800   21.4160 C   0  0  0  0  0  2  0  0  0  0  0  0
  -17.5020  -26.9410   22.1250 C   0  0  0  0  0  2  0  0  0  0  0  0
  -18.7090  -28.8890   23.2690 C   0  0  0  0  0  0  0  0  0  0  0  0
  -18.6520  -30.1440   23.9150 C   0  0  0  0  0  3  0  0  0  0  0  0
  -17.4160  -30.7720   24.1590 C   0  0  0  0  0  3  0  0  0  0  0  0
  -16.2200  -30.1470   23.7690 C   0  0  0  0  0  3  0  0  0  0  0  0
  -16.2630  -28.8990   23.1200 C   0  0  0  0  0  3  0  0  0  0  0  0
  -25.7470  -31.8760   23.6270 C   0  0  0  0  0  3  0  0  0  0  0  0
  -26.2510  -30.9900   24.8310 C   0  0  1  0  0  0  0  0  0  0  0  0
  -25.1890  -30.7810   25.9350 C   0  0  0  0  0  1  0  0  0  0  0  0
  -26.6980  -29.5950   24.3330 C   0  0  0  0  0  1  0  0  0  0  0  0
  -27.4890  -31.6480   25.4850 C   0  0  0  0  0  1  0  0  0  0  0  0
  -25.5710  -33.2730   24.0460 N   0  0  0  0  0  0  0  0  0  0  0  0
  -25.9800  -34.3350   23.3430 C   0  0  0  0  0  0  0  0  0  0  0  0
  -26.6200  -34.2360   22.2910 O   0  0  0  0  0  0  0  0  0  0  0  0
  -25.0010  -33.4310   24.8640 H   0  0  0  0  0  0  0  0  0  0  0  0
  -24.4170  -36.2920   23.1210 C   0  0  0  0  0  1  0  0  0  0  0  0
  -25.6220  -35.7300   23.8920 C   0  0  0  0  0  3  0  0  0  0  0  0
  -27.8290  -36.3670   24.7550 C   0  0  0  0  0  1  0  0  0  0  0  0
  -26.7420  -36.6910   23.8330 N   0  0  0  0  0  0  0  0  0  0  0  0
  -26.4200  -37.6330   24.0380 H   0  0  0  0  0  0  0  0  0  0  0  0
  -31.8570  -22.4220   21.7180 C   0  0  0  0  0  2  0  0  0  0  0  0
  -31.3620  -22.2930   20.2550 C   0  0  0  0  0  2  0  0  0  0  0  0
  -31.0900  -20.8450   19.7950 C   0  0  0  0  0  2  0  0  0  0  0  0
  -29.8200  -20.2290   20.3990 C   0  0  0  0  0  2  0  0  0  0  0  0
  -29.9010  -17.7400   20.2660 C   0  0  0  0  0  0  0  0  0  0  0  0
  -29.5000  -18.9350   19.8150 N   0  0  0  0  0  0  0  0  0  0  0  0
  -30.7000  -17.5980   21.1930 O   0  0  0  0  0  0  0  0  0  0  0  0
  -28.8450  -18.9520   19.0430 H   0  0  0  0  0  0  0  0  0  0  0  0
  -29.2640  -16.5380   19.5790 C   0  0  0  0  0  2  0  0  0  0  0  0
  -30.3220  -14.3230   19.9170 C   0  0  0  0  0  0  0  0  0  0  0  0
  -30.0390  -12.1890   18.7520 C   0  0  0  0  0  2  0  0  0  0  0  0
  -28.9900  -12.4460   17.6450 C   0  0  0  0  0  2  0  0  0  0  0  0
  -27.5480  -12.2890   18.1810 C   0  0  0  0  0  2  0  0  0  0  0  0
  -27.3160  -13.0480   19.5140 C   0  0  0  0  0  3  0  0  0  0  0  0
  -28.4640  -12.7470   20.5090 C   0  0  0  0  0  2  0  0  0  0  0  0
  -29.7380  -13.1020   19.8600 N   0  0  0  0  0  0  0  0  0  0  0  0
  -31.4120  -14.5930   19.4030 O   0  0  0  0  0  0  0  0  0  0  0  0
  -29.4510  -15.2690   20.2830 N   0  0  0  0  0  0  0  0  0  0  0  0
  -28.6320  -14.9160   20.7520 H   0  0  0  0  0  0  0  0  0  0  0  0
  -24.9670  -13.6190   20.4020 C   0  0  0  0  0  0  0  0  0  0  0  0
  -23.9490  -12.8280   20.8600 C   0  0  0  0  0  0  0  0  0  0  0  0
  -24.4380  -11.4860   20.8030 C   0  0  0  0  0  0  0  0  0  0  0  0
  -26.0100  -12.7560   20.0950 N   0  0  0  0  0  0  0  0  0  0  0  0
  -25.6990  -11.4710   20.3930 N   0  0  0  0  0  0  0  0  0  0  0  0
  -23.7610  -10.2090   21.0560 C   0  0  0  0  0  0  0  0  0  0  0  0
  -24.2650   -9.2840   21.9990 C   0  0  0  0  0  3  0  0  0  0  0  0
  -23.5890   -8.0690   22.2390 C   0  0  0  0  0  3  0  0  0  0  0  0
  -22.3960   -7.7700   21.5390 C   0  0  0  0  0  0  0  0  0  0  0  0
  -21.9110   -8.6830   20.5860 C   0  0  0  0  0  3  0  0  0  0  0  0
  -22.5880   -9.8900   20.3430 C   0  0  0  0  0  3  0  0  0  0  0  0
  -21.6880   -6.6030   21.6890 O   0  0  0  0  0  0  0  0  0  0  0  0
  -21.6810   -5.9130   22.8750 C   0  0  0  0  0  0  0  0  0  0  0  0
  -21.2270   -6.4970   24.0770 C   0  0  0  0  0  3  0  0  0  0  0  0
  -21.1720   -5.7260   25.2560 C   0  0  0  0  0  3  0  0  0  0  0  0
  -21.5650   -4.3750   25.2320 C   0  0  0  0  0  0  0  0  0  0  0  0
  -22.0140   -3.7910   24.0360 C   0  0  0  0  0  3  0  0  0  0  0  0
  -22.0690   -4.5590   22.8580 C   0  0  0  0  0  0  0  0  0  0  0  0
  -22.4830   -3.9870   21.7010 F   0  0  0  0  0  0  0  0  0  0  0  0
  -21.5040   -3.6320   26.3630 F   0  0  0  0  0  0  0  0  0  0  0  0
  -22.5660  -13.2730   21.2370 C   0  0  0  0  0  0  0  0  0  0  0  0
  -21.9250  -12.5610   22.1580 N   0  0  0  0  0  0  0  0  0  0  0  0
  -22.0630  -14.2810   20.7450 O   0  0  0  0  0  0  0  0  0  0  0  0
  -22.3490  -11.7480   22.5800 H   0  0  0  0  0  0  0  0  0  0  0  0
  -20.9960  -12.8350   22.4450 H   0  0  0  0  0  0  0  0  0  0  0  0
  -25.0840  -14.9920   20.2020 N   0  0  0  0  0  0  0  0  0  0  0  0
  -24.3080  -15.6240   20.3690 H   0  0  0  0  0  0  0  0  0  0  0  0
  -25.8830  -15.4470   19.7820 H   0  0  0  0  0  0  0  0  0  0  0  0
  2  4  1  0
  4  1  1  0
  4  3  1  0
  5  2  2  0
  6  2  1  0
  7  6  1  0
  8 10  1  0
  8  7  1  0
  9 20  2  0
 10 15  1  0
 11 19  1  0
 11 21  1  0
 12 18  1  0
 12 14  1  0
 13 19  1  0
 14 13  1  0
 15 14  2  0
 16 17  1  0
 16 10  2  0
 17 12  2  0
 18 11  1  0
 19  9  1  0
 21 23  2  0
 22 21  1  0
 24 22  1  0
 25 34  2  0
 25 30  1  0
 26 22  1  0
 26 30  1  0
 27 26  1  0
 28 29  1  0
 28 27  1  0
 29 25  1  0
 30 31  2  0
 31 32  1  0
 33 32  2  0
 34 33  1  0
 35  9  1  0
 35 40  1  0
 35 36  1  0
 36 39  1  1
 36 37  1  0
 38 36  1  0
 40 43  1  0
 41 45  1  0
 41 40  1  0
 42 41  2  0
 45 44  1  0
 47 45  1  0
 47 48  1  0
 47 46  1  0
 49  1  1  0
 50 49  1  0
 51 50  1  0
 51 52  1  0
 53 55  2  0
 54 53  1  0
 54 52  1  0
 56 54  1  0
 57 53  1  0
 57 66  1  0
 58 66  1  0
 59 64  1  0
 60 61  1  0
 60 59  1  0
 62 61  1  0
 62 71  1  0
 62 63  1  0
 64 58  1  0
 64 63  1  0
 65 58  2  0
 66 67  1  0
 68 69  2  0
 69 88  1  0
 70 69  1  0
 70 73  1  0
 71 72  1  0
 71 68  1  0
 72 70  2  0
 73 74  1  0
 74 75  2  0
 76 79  1  0
 76 75  1  0
 77 76  2  0
 78 77  1  0
 78 73  2  0
 79 80  1  0
 80 81  1  0
 81 82  2  0
 83 82  1  0
 83 87  1  0
 84 83  2  0
 85 80  2  0
 85 84  1  0
 86 85  1  0
 88 89  1  0
 89 92  1  0
 89 91  1  0
 90 88  2  0
 93 94  1  0
 93 68  1  0
 95 93  1  0
M  ISO  4   7 101   8 101  58 100  66 100
M  END
>  <TORSDO>  (83) 
F 25

>  <SCORE>  (83) 
-10.114

>  <name>  (83) 
83

>  <ligand_id>  (83) 
83

>  <original_smiles>  (83) 
[H]c1c([H])c([H])c2c(c1[H])C([H])([H])C([H])([H])C([H])([H])C2([H])N([H])C(=O)C1([H])N(C(=O)C([H])(N([H])C(=O)C([H])(N([H])C([H])([H])[H])C([H])([H])[H])C(C([H])([H])[H])(C([H])([H])[H])C([H])([H])[H])C([H])([H])c2c([H])c(OC([H])([H])C([H])([H])C(=O)N(C([H])([H])[H])C([H])([H])C([H])([H])C([H])([H])C([H])([H])C([H])([H])N([H])C(=O)C([H])([H])N([H])C(=O)N3C([H])([H])C([H])([H])C([H])([H])C([H])(n4nc(-c5c([H])c([H])c(Oc6c([H])c([H])c(F)c([H])c6F)c([H])c5[H])c(C(=O)N([H])[H])c4N([H])[H])C3([H])[H])c([H])c([H])c2C1([H])[H]

>  <smiles>  (83) 
[H]c1c([H])c([H])c2c(c1[H])C([H])([H])C([H])([H])C([H])([H])C2([H])N([H])C(=O)C1([H])N(C(=O)C([H])(N([H])C(=O)C([H])(N([H])C([H])([H])[H])C([H])([H])[H])C(C([H])([H])[H])(C([H])([H])[H])C([H])([H])[H])C([H])([H])c2c([H])c(OC([H])([H])C([H])([H])C(=O)N(C([H])([H])[H])C([H])([H])C([H])([H])C([H])([H])C([H])([H])C([H])([H])N([H])C(=O)C([H])([H])N([H])C(=O)N3C([H])([H])C([H])([H])C([H])([H])C([H])(n4nc(-c5c([H])c([H])c(Oc6c([H])c([H])c(F)c([H])c6F)c([H])c5[H])c(C(=O)N([H])[H])c4N([H])[H])C3([H])[H])c([H])c([H])c2C1([H])[H]

$$$$
84:0:0
     RDKit          3D

 93101  0  0  1  0  0  0  0  0999 V2000
  -30.6460  -18.0650   21.7820 C   0  0  0  0  0  3  0  0  0  0  0  0
  -30.6030  -19.2990   22.4810 C   0  0  0  0  0  0  0  0  0  0  0  0
  -30.2300  -17.9290   20.4430 C   0  0  0  0  0  0  0  0  0  0  0  0
  -29.7650  -20.5970   20.5230 C   0  0  0  0  0  0  0  0  0  0  0  0
  -30.1730  -20.5200   21.8830 C   0  0  0  0  0  0  0  0  0  0  0  0
  -29.7950  -19.2460   19.8420 C   0  0  0  0  0  0  0  0  0  0  0  0
  -31.0380  -19.3010   23.9380 C   0  0  0  0  0  1  0  0  0  0  0  0
  -30.2240  -21.9630   22.8480 Cl  0  0  0  0  0  0  0  0  0  0  0  0
  -29.2820  -19.2000   18.1920 Cl  0  0  0  0  0  0  0  0  0  0  0  0
  -30.8910  -15.2410   19.9840 C   0  0  0  0  0  0  0  0  0  0  0  0
  -30.7270  -12.8890   18.9790 C   0  0  0  0  0  2  0  0  0  0  0  0
  -29.7440  -12.8270   17.7870 C   0  0  0  0  0  2  0  0  0  0  0  0
  -28.2970  -12.6160   18.2780 C   0  0  0  0  0  2  0  0  0  0  0  0
  -27.9380  -13.5430   19.4700 C   0  0  0  0  0  3  0  0  0  0  0  0
  -29.0380  -13.5530   20.5490 C   0  0  0  0  0  2  0  0  0  0  0  0
  -30.2690  -13.9890   19.8780 N   0  0  0  0  0  0  0  0  0  0  0  0
  -32.1150  -15.2500   19.8080 O   0  0  0  0  0  0  0  0  0  0  0  0
  -30.1240  -16.4630   19.9170 N   0  0  0  0  0  0  0  0  0  0  0  0
  -29.2030  -16.2690   19.5540 H   0  0  0  0  0  0  0  0  0  0  0  0
  -25.6060  -14.1570   20.3130 C   0  0  0  0  0  0  0  0  0  0  0  0
  -24.5360  -13.3980   20.7010 C   0  0  0  0  0  0  0  0  0  0  0  0
  -24.9700  -12.0390   20.6300 C   0  0  0  0  0  0  0  0  0  0  0  0
  -26.6190  -13.2600   20.0190 N   0  0  0  0  0  0  0  0  0  0  0  0
  -26.2490  -11.9790   20.2770 N   0  0  0  0  0  0  0  0  0  0  0  0
  -24.2200  -10.7900   20.8180 C   0  0  0  0  0  0  0  0  0  0  0  0
  -24.6220   -9.8230   21.7670 C   0  0  0  0  0  3  0  0  0  0  0  0
  -23.8720   -8.6390   21.9440 C   0  0  0  0  0  3  0  0  0  0  0  0
  -22.7070   -8.4150   21.1730 C   0  0  0  0  0  0  0  0  0  0  0  0
  -22.3250   -9.3700   20.2150 C   0  0  0  0  0  3  0  0  0  0  0  0
  -23.0730  -10.5450   20.0360 C   0  0  0  0  0  3  0  0  0  0  0  0
  -21.9320   -7.2830   21.2590 O   0  0  0  0  0  0  0  0  0  0  0  0
  -21.8310   -6.5670   22.4250 C   0  0  0  0  0  0  0  0  0  0  0  0
  -21.3150   -7.1380   23.6080 C   0  0  0  0  0  3  0  0  0  0  0  0
  -21.1630   -6.3470   24.7640 C   0  0  0  0  0  3  0  0  0  0  0  0
  -21.5170   -4.9850   24.7370 C   0  0  0  0  0  0  0  0  0  0  0  0
  -22.0260   -4.4130   23.5570 C   0  0  0  0  0  3  0  0  0  0  0  0
  -22.1800   -5.2010   22.4040 C   0  0  0  0  0  0  0  0  0  0  0  0
  -22.6500   -4.6410   21.2640 F   0  0  0  0  0  0  0  0  0  0  0  0
  -21.3650   -4.2220   25.8440 F   0  0  0  0  0  0  0  0  0  0  0  0
  -23.1590  -13.9020   21.0210 C   0  0  0  0  0  0  0  0  0  0  0  0
  -22.4390  -13.2050   21.8930 N   0  0  0  0  0  0  0  0  0  0  0  0
  -22.7320  -14.9480   20.5340 O   0  0  0  0  0  0  0  0  0  0  0  0
  -22.8000  -12.3600   22.3110 H   0  0  0  0  0  0  0  0  0  0  0  0
  -21.5140  -13.5230   22.1480 H   0  0  0  0  0  0  0  0  0  0  0  0
  -25.7960  -15.5270   20.1630 N   0  0  0  0  0  0  0  0  0  0  0  0
  -25.0520  -16.1960   20.3300 H   0  0  0  0  0  0  0  0  0  0  0  0
  -26.6490  -15.9620   19.8380 H   0  0  0  0  0  0  0  0  0  0  0  0
  -29.5010  -21.9760   19.9480 N   0  0  0  0  0  4  0  0  0  0  0  0
  -29.7320  -21.9810   18.9590 H   0  0  0  0  0  0  0  0  0  0  0  0
  -27.3760  -23.1560   19.2270 C   0  0  0  0  0  1  0  0  0  0  0  0
  -28.4890  -23.1600   20.2780 C   0  0  0  0  0  0  0  0  0  0  0  0
  -28.7920  -24.7890   20.7940 C   0  0  0  0  0  2  0  0  0  0  0  0
  -28.6950  -26.2650   20.2190 O   0  0  0  0  0  0  0  0  0  0  0  0
  -24.7390  -31.8400   23.2460 C   0  0  0  0  0  0  0  0  0  0  0  0
  -27.5820  -27.2010   20.2740 C   0  0  0  0  0  0  0  0  0  0  0  0
  -23.6520  -30.4270   21.5470 C   0  0  0  0  0  3  0  0  0  0  0  0
  -25.2050  -28.9050   20.1690 C   0  0  0  0  0  0  0  0  0  0  0  0
  -26.2050  -30.7640   21.4870 C   0  0  0  0  0  2  0  0  0  0  0  0
  -26.3500  -29.3750   20.8270 C   0  0  0  0  0  0  0  0  0  0  0  0
  -27.5420  -28.5440   20.8520 C   0  0  0  0  0  3  0  0  0  0  0  0
  -26.4080  -26.8440   19.5830 C   0  0  0  0  0  3  0  0  0  0  0  0
  -25.2510  -27.6560   19.5300 C   0  0  0  0  0  3  0  0  0  0  0  0
  -23.9520  -29.7700   20.1730 C   0  0  0  0  0  2  0  0  0  0  0  0
  -24.8830  -31.0340   22.1490 N   0  0  0  0  0  0  0  0  0  0  0  0
  -23.6230  -32.0810   23.7340 O   0  0  0  0  0  0  0  0  0  0  0  0
  -22.9680  -29.3860   22.4710 C   0  0  0  0  0  0  0  0  0  0  0  0
  -21.6520  -29.1770   22.2940 N   0  0  0  0  0  0  0  0  0  0  0  0
  -23.6290  -28.7710   23.3120 O   0  0  0  0  0  0  0  0  0  0  0  0
  -21.1750  -29.7250   21.5920 H   0  0  0  0  0  0  0  0  0  0  0  0
  -18.2890  -27.8850   22.6890 C   0  0  0  0  0  0  0  0  0  0  0  0
  -20.8340  -28.2010   23.0220 C   0  0  0  0  0  3  0  0  0  0  0  0
  -20.9840  -26.7870   22.4130 C   0  0  0  0  0  2  0  0  0  0  0  0
  -19.9130  -26.4650   21.3660 C   0  0  0  0  0  2  0  0  0  0  0  0
  -18.5140  -26.5600   21.9800 C   0  0  0  0  0  2  0  0  0  0  0  0
  -19.3780  -28.6630   23.1630 C   0  0  0  0  0  0  0  0  0  0  0  0
  -19.1130  -29.9020   23.7860 C   0  0  0  0  0  3  0  0  0  0  0  0
  -17.7920  -30.3640   23.9370 C   0  0  0  0  0  3  0  0  0  0  0  0
  -16.7180  -29.5840   23.4770 C   0  0  0  0  0  3  0  0  0  0  0  0
  -16.9660  -28.3450   22.8590 C   0  0  0  0  0  3  0  0  0  0  0  0
  -25.9650  -32.5130   23.9330 C   0  0  0  0  0  3  0  0  0  0  0  0
  -26.4180  -31.7750   25.2530 C   0  0  1  0  0  0  0  0  0  0  0  0
  -25.2650  -31.5250   26.2540 C   0  0  0  0  0  1  0  0  0  0  0  0
  -27.0610  -30.4080   24.9290 C   0  0  0  0  0  1  0  0  0  0  0  0
  -27.5050  -32.6110   25.9720 C   0  0  0  0  0  1  0  0  0  0  0  0
  -25.6060  -33.9100   24.2260 N   0  0  0  0  0  0  0  0  0  0  0  0
  -25.9540  -34.9650   23.4760 C   0  0  0  0  0  0  0  0  0  0  0  0
  -26.6740  -34.8640   22.4790 O   0  0  0  0  0  0  0  0  0  0  0  0
  -24.9680  -34.0600   24.9950 H   0  0  0  0  0  0  0  0  0  0  0  0
  -24.2150  -36.7270   23.0180 C   0  0  0  0  0  1  0  0  0  0  0  0
  -25.4200  -36.3500   23.8940 C   0  0  0  0  0  3  0  0  0  0  0  0
  -27.4850  -37.2910   24.8350 C   0  0  0  0  0  1  0  0  0  0  0  0
  -26.4390  -37.4210   23.8230 N   0  0  0  0  0  0  0  0  0  0  0  0
  -26.0080  -38.3350   23.9260 H   0  0  0  0  0  0  0  0  0  0  0  0
  1  2  1  0
  2  7  1  0
  3  1  2  0
  4  5  1  0
  5  2  2  0
  5  8  1  0
  6  3  1  0
  6  4  2  0
  9  6  1  0
 11 16  1  0
 12 13  1  0
 12 11  1  0
 14 13  1  0
 14 23  1  0
 14 15  1  0
 16 10  1  0
 16 15  1  0
 17 10  2  0
 18 10  1  0
 18  3  1  0
 19 18  1  0
 20 21  2  0
 21 40  1  0
 22 21  1  0
 22 25  1  0
 23 24  1  0
 23 20  1  0
 24 22  2  0
 25 26  1  0
 26 27  2  0
 28 31  1  0
 28 27  1  0
 29 28  2  0
 30 29  1  0
 30 25  2  0
 31 32  1  0
 32 33  1  0
 33 34  2  0
 35 34  1  0
 35 39  1  0
 36 35  2  0
 37 32  2  0
 37 36  1  0
 38 37  1  0
 40 41  1  0
 41 44  1  0
 41 43  1  0
 42 40  2  0
 45 20  1  0
 45 46  1  0
 47 45  1  0
 48 51  2  3
 48  4  1  0
 49 48  1  0
 50 51  1  0
 51 52  1  0
 53 55  1  0
 53 52  1  0
 54 65  2  0
 55 60  1  0
 56 64  1  0
 56 66  1  0
 57 63  1  0
 57 59  1  0
 58 64  1  0
 59 60  2  0
 59 58  1  0
 61 55  2  0
 62 61  1  0
 62 57  2  0
 63 56  1  0
 64 54  1  0
 66 68  2  0
 67 66  1  0
 69 67  1  0
 70 79  2  0
 70 75  1  0
 71 67  1  0
 71 75  1  0
 72 71  1  0
 73 74  1  0
 73 72  1  0
 74 70  1  0
 75 76  2  0
 76 77  1  0
 78 77  2  0
 79 78  1  0
 80 54  1  0
 80 85  1  0
 80 81  1  0
 81 84  1  1
 81 82  1  0
 83 81  1  0
 85 88  1  0
 86 90  1  0
 86 85  1  0
 87 86  2  0
 90 89  1  0
 92 90  1  0
 92 93  1  0
 92 91  1  0
M  ISO  4  10 100  18 100  52 101  53 101
M  END
>  <TORSDO>  (84) 
F 19

>  <SCORE>  (84) 
-14.102

>  <name>  (84) 
84

>  <ligand_id>  (84) 
84

>  <original_smiles>  (84) 
[H]c1c([H])c([H])c2c(c1[H])C([H])([H])C([H])([H])C([H])([H])C2([H])N([H])C(=O)C1([H])N(C(=O)C([H])(N([H])C(=O)C([H])(N([H])C([H])([H])[H])C([H])([H])[H])C(C([H])([H])[H])(C([H])([H])[H])C([H])([H])[H])C([H])([H])c2c([H])c(OC([H])([H])C([H])(N([H])c3c(Cl)c(N([H])C(=O)N4C([H])([H])C([H])([H])C([H])([H])C([H])(n5nc(-c6c([H])c([H])c(Oc7c([H])c([H])c(F)c([H])c7F)c([H])c6[H])c(C(=O)N([H])[H])c5N([H])[H])C4([H])[H])c([H])c(C([H])([H])[H])c3Cl)C([H])([H])[H])c([H])c([H])c2C1([H])[H]

>  <smiles>  (84) 
[H]c1c([H])c([H])c2c(c1[H])C([H])([H])C([H])([H])C([H])([H])C2([H])N([H])C(=O)C1([H])N(C(=O)C([H])(N([H])C(=O)C([H])(N([H])C([H])([H])[H])C([H])([H])[H])C(C([H])([H])[H])(C([H])([H])[H])C([H])([H])[H])C([H])([H])c2c([H])c(OC([H])([H])C([H])(N([H])c3c(Cl)c(N([H])C(=O)N4C([H])([H])C([H])([H])C([H])([H])C([H])(n5nc(-c6c([H])c([H])c(Oc7c([H])c([H])c(F)c([H])c7F)c([H])c6[H])c(C(=O)N([H])[H])c5N([H])[H])C4([H])[H])c([H])c(C([H])([H])[H])c3Cl)C([H])([H])[H])c([H])c([H])c2C1([H])[H]

$$$$
85:0:0
     RDKit          3D

 91 99  0  0  1  0  0  0  0  0999 V2000
  -30.7260  -18.3140   19.0710 C   0  0  0  0  0  3  0  0  0  0  0  0
  -28.5940  -19.8020   20.0510 C   0  0  0  0  0  3  0  0  0  0  0  0
  -30.6170  -19.7470   18.8360 C   0  0  0  0  0  0  0  0  0  0  0  0
  -28.6860  -18.3600   20.2530 C   0  0  0  0  0  0  0  0  0  0  0  0
  -29.7720  -17.5280   19.7810 C   0  0  0  0  0  0  0  0  0  0  0  0
  -29.5510  -20.6040   19.3480 C   0  0  0  0  0  0  0  0  0  0  0  0
  -31.7090  -20.3120   17.9380 C   0  0  0  0  0  1  0  0  0  0  0  0
  -27.5440  -17.7160   21.0230 C   0  0  0  0  0  1  0  0  0  0  0  0
  -30.5570  -14.9000   19.5140 C   0  0  0  0  0  0  0  0  0  0  0  0
  -30.3390  -12.5780   18.5380 C   0  0  0  0  0  2  0  0  0  0  0  0
  -29.2510  -12.5830   17.4390 C   0  0  0  0  0  2  0  0  0  0  0  0
  -27.8490  -12.3730   18.0440 C   0  0  0  0  0  2  0  0  0  0  0  0
  -27.6050  -13.2600   19.2920 C   0  0  0  0  0  3  0  0  0  0  0  0
  -28.7930  -13.2040   20.2760 C   0  0  0  0  0  2  0  0  0  0  0  0
  -29.9920  -13.6280   19.5360 N   0  0  0  0  0  0  0  0  0  0  0  0
  -31.6830  -15.0230   19.0200 O   0  0  0  0  0  0  0  0  0  0  0  0
  -29.7830  -16.0040   19.9400 N   0  0  0  0  0  0  0  0  0  0  0  0
  -28.9840  -15.6750   20.4570 H   0  0  0  0  0  0  0  0  0  0  0  0
  -25.3550  -13.8320   20.3750 C   0  0  0  0  0  0  0  0  0  0  0  0
  -24.3310  -13.0510   20.8390 C   0  0  0  0  0  0  0  0  0  0  0  0
  -24.7520  -11.6990   20.6570 C   0  0  0  0  0  0  0  0  0  0  0  0
  -26.3340  -12.9540   19.9410 N   0  0  0  0  0  0  0  0  0  0  0  0
  -25.9870  -11.6610   20.1710 N   0  0  0  0  0  0  0  0  0  0  0  0
  -24.0240  -10.4390   20.8600 C   0  0  0  0  0  0  0  0  0  0  0  0
  -24.4930   -9.4490   21.7510 C   0  0  0  0  0  3  0  0  0  0  0  0
  -23.7650   -8.2560   21.9460 C   0  0  0  0  0  3  0  0  0  0  0  0
  -22.5540   -8.0430   21.2490 C   0  0  0  0  0  0  0  0  0  0  0  0
  -22.1010   -9.0200   20.3440 C   0  0  0  0  0  3  0  0  0  0  0  0
  -22.8310  -10.2050   20.1480 C   0  0  0  0  0  3  0  0  0  0  0  0
  -21.7930   -6.9030   21.3540 O   0  0  0  0  0  0  0  0  0  0  0  0
  -21.7230   -6.1890   22.5230 C   0  0  0  0  0  0  0  0  0  0  0  0
  -21.2460   -6.7650   23.7200 C   0  0  0  0  0  3  0  0  0  0  0  0
  -21.1280   -5.9770   24.8830 C   0  0  0  0  0  3  0  0  0  0  0  0
  -21.4750   -4.6130   24.8490 C   0  0  0  0  0  0  0  0  0  0  0  0
  -21.9460   -4.0370   23.6560 C   0  0  0  0  0  3  0  0  0  0  0  0
  -22.0660   -4.8230   22.4950 C   0  0  0  0  0  0  0  0  0  0  0  0
  -22.5000   -4.2560   21.3430 F   0  0  0  0  0  0  0  0  0  0  0  0
  -21.3540   -3.8550   25.9620 F   0  0  0  0  0  0  0  0  0  0  0  0
  -22.9950  -13.5340   21.3260 C   0  0  0  0  0  0  0  0  0  0  0  0
  -22.3690  -12.7940   22.2350 N   0  0  0  0  0  0  0  0  0  0  0  0
  -22.5200  -14.5990   20.9360 O   0  0  0  0  0  0  0  0  0  0  0  0
  -22.7710  -11.9310   22.5700 H   0  0  0  0  0  0  0  0  0  0  0  0
  -21.4770  -13.0970   22.6010 H   0  0  0  0  0  0  0  0  0  0  0  0
  -25.5290  -15.2090   20.2630 N   0  0  0  0  0  0  0  0  0  0  0  0
  -24.7870  -15.8610   20.4940 H   0  0  0  0  0  0  0  0  0  0  0  0
  -26.3080  -15.6500   19.7930 H   0  0  0  0  0  0  0  0  0  0  0  0
  -30.8500  -22.6670   19.3220 C   0  0  0  0  0  1  0  0  0  0  0  0
  -29.5020  -22.1000   19.2040 N   0  0  0  0  0  0  0  0  0  0  0  0
  -28.4650  -23.1910   19.6230 C   0  0  0  0  0  2  0  0  0  0  0  0
  -28.4260  -24.7310   18.9120 C   0  0  0  0  0  2  0  0  0  0  0  0
  -28.3480  -26.1480   19.5590 O   0  0  0  0  0  0  0  0  0  0  0  0
  -24.6580  -31.5480   22.9300 C   0  0  0  0  0  0  0  0  0  0  0  0
  -27.2520  -27.0850   19.5360 C   0  0  0  0  0  0  0  0  0  0  0  0
  -23.4510  -30.2430   21.2230 C   0  0  0  0  0  3  0  0  0  0  0  0
  -24.8940  -28.7900   19.6690 C   0  0  0  0  0  0  0  0  0  0  0  0
  -25.9980  -30.5520   21.0400 C   0  0  0  0  0  2  0  0  0  0  0  0
  -26.0760  -29.2100   20.2910 C   0  0  0  0  0  0  0  0  0  0  0  0
  -27.2480  -28.3710   20.2110 C   0  0  0  0  0  3  0  0  0  0  0  0
  -26.0370  -26.7580   18.8920 C   0  0  0  0  0  3  0  0  0  0  0  0
  -24.8860  -27.5760   18.9580 C   0  0  0  0  0  3  0  0  0  0  0  0
  -23.6580  -29.6650   19.7990 C   0  0  0  0  0  2  0  0  0  0  0  0
  -24.7230  -30.7990   21.7880 N   0  0  0  0  0  0  0  0  0  0  0  0
  -23.5770  -31.7820   23.4920 O   0  0  0  0  0  0  0  0  0  0  0  0
  -22.8010  -29.1670   22.1280 C   0  0  0  0  0  0  0  0  0  0  0  0
  -21.4670  -29.0170   22.0360 N   0  0  0  0  0  0  0  0  0  0  0  0
  -23.4970  -28.4720   22.8750 O   0  0  0  0  0  0  0  0  0  0  0  0
  -20.9650  -29.6260   21.4050 H   0  0  0  0  0  0  0  0  0  0  0  0
  -18.0870  -27.8360   22.5930 C   0  0  0  0  0  0  0  0  0  0  0  0
  -20.6610  -28.0270   22.7560 C   0  0  0  0  0  3  0  0  0  0  0  0
  -20.7080  -26.6540   22.0460 C   0  0  0  0  0  2  0  0  0  0  0  0
  -19.5490  -26.4460   21.0660 C   0  0  0  0  0  2  0  0  0  0  0  0
  -18.2020  -26.5540   21.7880 C   0  0  0  0  0  2  0  0  0  0  0  0
  -19.2410  -28.5380   23.0340 C   0  0  0  0  0  0  0  0  0  0  0  0
  -19.0770  -29.7420   23.7500 C   0  0  0  0  0  3  0  0  0  0  0  0
  -17.7940  -30.2430   24.0360 C   0  0  0  0  0  3  0  0  0  0  0  0
  -16.6550  -29.5350   23.6130 C   0  0  0  0  0  3  0  0  0  0  0  0
  -16.8030  -28.3370   22.8930 C   0  0  0  0  0  3  0  0  0  0  0  0
  -25.9380  -32.1580   23.5780 C   0  0  0  0  0  3  0  0  0  0  0  0
  -26.4710  -31.3170   24.8060 C   0  0  1  0  0  0  0  0  0  0  0  0
  -25.3890  -31.0200   25.8730 C   0  0  0  0  0  1  0  0  0  0  0  0
  -27.0540  -29.9620   24.3360 C   0  0  0  0  0  1  0  0  0  0  0  0
  -27.6230  -32.0800   25.5010 C   0  0  0  0  0  1  0  0  0  0  0  0
  -25.6120  -33.5280   24.0030 N   0  0  0  0  0  0  0  0  0  0  0  0
  -25.9340  -34.6360   23.3220 C   0  0  0  0  0  0  0  0  0  0  0  0
  -26.6010  -34.6110   22.2850 O   0  0  0  0  0  0  0  0  0  0  0  0
  -25.0130  -33.6200   24.8100 H   0  0  0  0  0  0  0  0  0  0  0  0
  -24.1820  -36.4340   23.1160 C   0  0  0  0  0  1  0  0  0  0  0  0
  -25.4390  -35.9860   23.8790 C   0  0  0  0  0  3  0  0  0  0  0  0
  -27.5700  -36.8480   24.7450 C   0  0  0  0  0  1  0  0  0  0  0  0
  -26.4570  -37.0570   23.8260 N   0  0  0  0  0  0  0  0  0  0  0  0
  -26.0380  -37.9600   24.0330 H   0  0  0  0  0  0  0  0  0  0  0  0
  1  5  1  0
  2  4  1  0
  3  1  2  0
  3  6  1  0
  4  8  1  0
  5 17  1  0
  5  4  2  0
  6  2  2  0
  7  3  1  0
  9 15  1  0
  9 17  1  0
 10 15  1  0
 11 12  1  0
 11 10  1  0
 13 12  1  0
 13 22  1  0
 13 14  1  0
 15 14  1  0
 16  9  2  0
 17 18  1  0
 19 20  2  0
 20 39  1  0
 21 20  1  0
 21 24  1  0
 22 23  1  0
 22 19  1  0
 23 21  2  0
 24 25  1  0
 25 26  2  0
 27 30  1  0
 27 26  1  0
 28 27  2  0
 29 28  1  0
 29 24  2  0
 30 31  1  0
 31 32  1  0
 32 33  2  0
 34 33  1  0
 34 38  1  0
 35 34  2  0
 36 31  2  0
 36 35  1  0
 37 36  1  0
 39 40  1  0
 40 42  1  0
 40 43  1  0
 41 39  2  0
 44 19  1  0
 44 45  1  0
 46 44  1  0
 48 47  1  0
 48  6  1  0
 48 49  1  0
 50 51  1  0
 50 49  1  0
 52 63  2  0
 53 51  1  0
 53 58  1  0
 54 62  1  0
 54 64  1  0
 55 61  1  0
 55 57  1  0
 56 62  1  0
 57 56  1  0
 58 57  2  0
 59 60  1  0
 59 53  2  0
 60 55  2  0
 61 54  1  0
 62 52  1  0
 64 66  2  0
 65 64  1  0
 67 65  1  0
 68 77  2  0
 68 73  1  0
 69 65  1  0
 69 73  1  0
 70 69  1  0
 71 72  1  0
 71 70  1  0
 72 68  1  0
 73 74  2  0
 74 75  1  0
 76 75  2  0
 77 76  1  0
 78 52  1  0
 78 83  1  0
 78 79  1  0
 79 82  1  1
 79 80  1  0
 81 79  1  0
 83 86  1  0
 84 88  1  0
 84 83  1  0
 85 84  2  0
 88 87  1  0
 90 88  1  0
 90 91  1  0
 90 89  1  0
M  ISO  4   9 100  17 100  50 101  51 101
M  END
>  <TORSDO>  (85) 
F 19

>  <SCORE>  (85) 
-12.687

>  <name>  (85) 
85

>  <ligand_id>  (85) 
85

>  <original_smiles>  (85) 
[H]c1c([H])c([H])c2c(c1[H])C([H])([H])C([H])([H])C([H])([H])C2([H])N([H])C(=O)C1([H])N(C(=O)C([H])(N([H])C(=O)C([H])(N([H])C([H])([H])[H])C([H])([H])[H])C(C([H])([H])[H])(C([H])([H])[H])C([H])([H])[H])C([H])([H])c2c([H])c(OC([H])([H])C([H])([H])N(c3c([H])c(C([H])([H])[H])c(N([H])C(=O)N4C([H])([H])C([H])([H])C([H])([H])C([H])(n5nc(-c6c([H])c([H])c(Oc7c([H])c([H])c(F)c([H])c7F)c([H])c6[H])c(C(=O)N([H])[H])c5N([H])[H])C4([H])[H])c([H])c3C([H])([H])[H])C([H])([H])[H])c([H])c([H])c2C1([H])[H]

>  <smiles>  (85) 
[H]c1c([H])c([H])c2c(c1[H])C([H])([H])C([H])([H])C([H])([H])C2([H])N([H])C(=O)C1([H])N(C(=O)C([H])(N([H])C(=O)C([H])(N([H])C([H])([H])[H])C([H])([H])[H])C(C([H])([H])[H])(C([H])([H])[H])C([H])([H])[H])C([H])([H])c2c([H])c(OC([H])([H])C([H])([H])N(c3c([H])c(C([H])([H])[H])c(N([H])C(=O)N4C([H])([H])C([H])([H])C([H])([H])C([H])(n5nc(-c6c([H])c([H])c(Oc7c([H])c([H])c(F)c([H])c7F)c([H])c6[H])c(C(=O)N([H])[H])c5N([H])[H])C4([H])[H])c([H])c3C([H])([H])[H])C([H])([H])[H])c([H])c([H])c2C1([H])[H]

$$$$
86:0:0
     RDKit          3D

101110  0  0  1  0  0  0  0  0999 V2000
  -31.8820  -21.3700   18.5530 C   0  0  0  0  0  2  0  0  0  0  0  0
  -31.9770  -24.5410   20.6790 C   0  0  0  0  0  2  0  0  0  0  0  0
  -30.2440  -24.7960   19.0970 C   0  0  0  0  0  2  0  0  0  0  0  0
  -32.2000  -23.0780   20.2610 C   0  0  0  0  0  2  0  0  0  0  0  0
  -30.3580  -23.3310   18.6560 C   0  0  0  0  0  2  0  0  0  0  0  0
  -30.5640  -24.8970   20.5280 N   0  0  0  0  0  0  0  0  0  0  0  0
  -31.7340  -22.8100   18.8740 N   0  0  2  0  0  4  0  0  0  0  0  0
  -32.3310  -23.3210   18.2430 H   0  0  0  0  0  0  0  0  0  0  0  0
  -30.3720  -26.2580   21.0320 C   0  0  0  0  0  2  0  0  0  0  0  0
  -28.8970  -26.5760   21.2980 C   0  0  0  0  0  2  0  0  0  0  0  0
  -28.2450  -26.7620   20.0450 O   0  0  0  0  0  0  0  0  0  0  0  0
  -24.5030  -31.8790   23.1710 C   0  0  0  0  0  0  0  0  0  0  0  0
  -27.0870  -27.4820   20.0840 C   0  0  0  0  0  0  0  0  0  0  0  0
  -23.2560  -30.4790   21.5490 C   0  0  0  0  0  3  0  0  0  0  0  0
  -24.6830  -28.9360   20.1040 C   0  0  0  0  0  0  0  0  0  0  0  0
  -25.7660  -30.8550   21.2950 C   0  0  0  0  0  2  0  0  0  0  0  0
  -25.8400  -29.4830   20.6730 C   0  0  0  0  0  0  0  0  0  0  0  0
  -27.0440  -28.7630   20.6660 C   0  0  0  0  0  3  0  0  0  0  0  0
  -25.9290  -26.9390   19.4970 C   0  0  0  0  0  3  0  0  0  0  0  0
  -24.7180  -27.6570   19.5170 C   0  0  0  0  0  3  0  0  0  0  0  0
  -23.4350  -29.7880   20.1670 C   0  0  0  0  0  2  0  0  0  0  0  0
  -24.5260  -31.0850   22.0640 N   0  0  0  0  0  0  0  0  0  0  0  0
  -23.4350  -32.1510   23.7370 O   0  0  0  0  0  0  0  0  0  0  0  0
  -22.6290  -29.4590   22.5230 C   0  0  0  0  0  0  0  0  0  0  0  0
  -21.3030  -29.2770   22.4200 N   0  0  0  0  0  0  0  0  0  0  0  0
  -23.3290  -28.8330   23.3240 O   0  0  0  0  0  0  0  0  0  0  0  0
  -20.7980  -29.8400   21.7500 H   0  0  0  0  0  0  0  0  0  0  0  0
  -17.9400  -28.0920   22.9650 C   0  0  0  0  0  0  0  0  0  0  0  0
  -20.5000  -28.3390   23.2020 C   0  0  0  0  0  3  0  0  0  0  0  0
  -20.5910  -26.9080   22.6250 C   0  0  0  0  0  2  0  0  0  0  0  0
  -19.4750  -26.5880   21.6260 C   0  0  0  0  0  2  0  0  0  0  0  0
  -18.1030  -26.7390   22.2890 C   0  0  0  0  0  2  0  0  0  0  0  0
  -19.0680  -28.8490   23.3790 C   0  0  0  0  0  0  0  0  0  0  0  0
  -18.8650  -30.1160   23.9680 C   0  0  0  0  0  3  0  0  0  0  0  0
  -17.5650  -30.6280   24.1460 C   0  0  0  0  0  3  0  0  0  0  0  0
  -16.4510  -29.8670   23.7490 C   0  0  0  0  0  3  0  0  0  0  0  0
  -16.6400  -28.6000   23.1670 C   0  0  0  0  0  3  0  0  0  0  0  0
  -25.8080  -32.5010   23.7640 C   0  0  0  0  0  3  0  0  0  0  0  0
  -25.5050  -33.8890   24.1330 N   0  0  0  0  0  0  0  0  0  0  0  0
  -25.8190  -34.9580   23.3890 C   0  0  0  0  0  0  0  0  0  0  0  0
  -26.4670  -34.8790   22.3420 O   0  0  0  0  0  0  0  0  0  0  0  0
  -24.9280  -34.0240   24.9500 H   0  0  0  0  0  0  0  0  0  0  0  0
  -24.0790  -36.7490   23.0970 C   0  0  0  0  0  1  0  0  0  0  0  0
  -25.3330  -36.3330   23.8830 C   0  0  0  0  0  3  0  0  0  0  0  0
  -27.4770  -37.2030   24.7000 C   0  0  0  0  0  1  0  0  0  0  0  0
  -26.3590  -37.3910   23.7810 N   0  0  0  0  0  0  0  0  0  0  0  0
  -25.9520  -38.3060   23.9560 H   0  0  0  0  0  0  0  0  0  0  0  0
  -26.3720  -31.7010   25.0030 C   0  0  1  0  0  0  0  0  0  0  0  0
  -25.3140  -31.4190   26.0940 C   0  0  0  0  0  1  0  0  0  0  0  0
  -26.9630  -30.3450   24.5500 C   0  0  0  0  0  1  0  0  0  0  0  0
  -27.5230  -32.4960   25.6630 C   0  0  0  0  0  1  0  0  0  0  0  0
  -31.5690  -21.0210   17.0900 C   0  0  0  0  0  0  0  0  0  0  0  0
  -30.9860  -19.8520   16.7900 N   0  0  0  0  0  0  0  0  0  0  0  0
  -31.8940  -21.8110   16.2010 O   0  0  0  0  0  0  0  0  0  0  0  0
  -30.9540  -19.6180   15.8080 H   0  0  0  0  0  0  0  0  0  0  0  0
  -29.6580  -18.8570   18.6340 C   0  0  0  0  0  3  0  0  0  0  0  0
  -31.2460  -16.5490   18.4620 C   0  0  0  0  0  3  0  0  0  0  0  0
  -30.7120  -18.7930   17.6920 C   0  0  0  0  0  0  0  0  0  0  0  0
  -30.2350  -16.6270   19.4580 C   0  0  0  0  0  0  0  0  0  0  0  0
  -31.4840  -17.6250   17.5920 C   0  0  0  0  0  0  0  0  0  0  0  0
  -29.4290  -17.7790   19.5140 C   0  0  0  0  0  0  0  0  0  0  0  0
  -32.4660  -17.5370   16.6640 F   0  0  0  0  0  0  0  0  0  0  0  0
  -28.4220  -17.8440   20.4190 F   0  0  0  0  0  0  0  0  0  0  0  0
  -30.7020  -14.4940   20.5890 C   0  0  0  0  0  0  0  0  0  0  0  0
  -30.4220  -12.2780   19.6450 C   0  0  0  0  0  2  0  0  0  0  0  0
  -29.5450  -12.4470   18.3870 C   0  0  0  0  0  2  0  0  0  0  0  0
  -28.0510  -12.3480   18.7530 C   0  0  0  0  0  2  0  0  0  0  0  0
  -27.6530  -13.2390   19.9610 C   0  0  0  0  0  3  0  0  0  0  0  0
  -28.6680  -13.1080   21.1200 C   0  0  0  0  0  2  0  0  0  0  0  0
  -30.0200  -13.3270   20.5870 N   0  0  0  0  0  0  0  0  0  0  0  0
  -31.9220  -14.5700   20.4500 O   0  0  0  0  0  0  0  0  0  0  0  0
  -29.9410  -15.5720   20.3790 N   0  0  0  0  0  0  0  0  0  0  0  0
  -28.9840  -15.5230   20.6930 H   0  0  0  0  0  0  0  0  0  0  0  0
  -25.2250  -13.8390   20.5820 C   0  0  0  0  0  0  0  0  0  0  0  0
  -24.1510  -13.0650   20.9260 C   0  0  0  0  0  0  0  0  0  0  0  0
  -24.6240  -11.7150   20.9350 C   0  0  0  0  0  0  0  0  0  0  0  0
  -26.2860  -12.9640   20.4020 N   0  0  0  0  0  0  0  0  0  0  0  0
  -25.9240  -11.6840   20.6760 N   0  0  0  0  0  0  0  0  0  0  0  0
  -23.9030  -10.4500   21.1180 C   0  0  0  0  0  0  0  0  0  0  0  0
  -24.3240   -9.4840   22.0610 C   0  0  0  0  0  3  0  0  0  0  0  0
  -23.5990   -8.2850   22.2290 C   0  0  0  0  0  3  0  0  0  0  0  0
  -22.4430   -8.0400   21.4510 C   0  0  0  0  0  0  0  0  0  0  0  0
  -22.0440   -8.9920   20.4970 C   0  0  0  0  0  3  0  0  0  0  0  0
  -22.7680  -10.1820   20.3260 C   0  0  0  0  0  3  0  0  0  0  0  0
  -21.6930   -6.8900   21.5280 O   0  0  0  0  0  0  0  0  0  0  0  0
  -21.6400   -6.1400   22.6760 C   0  0  0  0  0  0  0  0  0  0  0  0
  -21.2110   -6.6870   23.9040 C   0  0  0  0  0  3  0  0  0  0  0  0
  -21.1030   -5.8640   25.0430 C   0  0  0  0  0  3  0  0  0  0  0  0
  -21.4200   -4.4940   24.9540 C   0  0  0  0  0  0  0  0  0  0  0  0
  -21.8420   -3.9480   23.7300 C   0  0  0  0  0  3  0  0  0  0  0  0
  -21.9500   -4.7670   22.5930 C   0  0  0  0  0  0  0  0  0  0  0  0
  -22.3360   -4.2300   21.4110 F   0  0  0  0  0  0  0  0  0  0  0  0
  -21.3110   -3.7010   26.0450 F   0  0  0  0  0  0  0  0  0  0  0  0
  -22.7380  -13.5330   21.1400 C   0  0  0  0  0  0  0  0  0  0  0  0
  -21.9820  -12.8430   21.9860 N   0  0  0  0  0  0  0  0  0  0  0  0
  -22.3100  -14.5480   20.5890 O   0  0  0  0  0  0  0  0  0  0  0  0
  -22.3400  -12.0250   22.4560 H   0  0  0  0  0  0  0  0  0  0  0  0
  -21.0310  -13.1350   22.1670 H   0  0  0  0  0  0  0  0  0  0  0  0
  -25.3850  -15.2080   20.3840 N   0  0  0  0  0  0  0  0  0  0  0  0
  -24.6070  -15.8570   20.4450 H   0  0  0  0  0  0  0  0  0  0  0  0
  -26.2460  -15.6530   20.0960 H   0  0  0  0  0  0  0  0  0  0  0  0
  1  7  1  0
  3  6  1  0
  4  2  1  0
  5  7  1  0
  5  3  1  0
  6  2  1  0
  6  9  1  0
  7  4  1  0
  7  8  1  6
  9 10  1  0
 11 13  1  0
 11 10  1  0
 12 23  2  0
 13 18  1  0
 14 22  1  0
 14 24  1  0
 15 21  1  0
 15 17  1  0
 16 22  1  0
 17 16  1  0
 18 17  2  0
 19 20  1  0
 19 13  2  0
 20 15  2  0
 21 14  1  0
 22 12  1  0
 24 26  2  0
 25 24  1  0
 27 25  1  0
 28 37  2  0
 28 33  1  0
 29 25  1  0
 29 33  1  0
 30 29  1  0
 31 32  1  0
 31 30  1  0
 32 28  1  0
 33 34  2  0
 34 35  1  0
 36 35  2  0
 37 36  1  0
 38 12  1  0
 38 39  1  0
 38 48  1  0
 39 42  1  0
 40 44  1  0
 40 39  1  0
 41 40  2  0
 44 43  1  0
 46 44  1  0
 46 47  1  0
 46 45  1  0
 48 51  1  1
 48 49  1  0
 50 48  1  0
 52  1  1  0
 53 52  1  0
 53 58  1  0
 54 52  2  0
 55 53  1  0
 56 61  1  0
 57 59  1  0
 58 56  2  0
 59 61  2  0
 59 72  1  0
 60 58  1  0
 60 57  2  0
 61 63  1  0
 62 60  1  0
 65 70  1  0
 66 67  1  0
 66 65  1  0
 68 67  1  0
 68 77  1  0
 68 69  1  0
 70 64  1  0
 70 69  1  0
 71 64  2  0
 72 64  1  0
 72 73  1  0
 74 75  2  0
 75 76  1  0
 75 94  1  0
 76 79  1  0
 77 74  1  0
 77 78  1  0
 78 76  2  0
 79 80  1  0
 80 81  2  0
 82 85  1  0
 82 81  1  0
 83 82  2  0
 84 83  1  0
 84 79  2  0
 85 86  1  0
 86 87  1  0
 87 88  2  0
 89 88  1  0
 89 93  1  0
 90 89  2  0
 91 86  2  0
 91 90  1  0
 92 91  1  0
 94 95  1  0
 95 98  1  0
 95 97  1  0
 96 94  2  0
 99100  1  0
 99 74  1  0
101 99  1  0
M  ISO  4  10 101  11 101  64 100  72 100
M  END
>  <TORSDO>  (86) 
F 21

>  <SCORE>  (86) 
-13.352

>  <name>  (86) 
86

>  <ligand_id>  (86) 
86

>  <original_smiles>  (86) 
[H]c1c([H])c([H])c2c(c1[H])C([H])([H])C([H])([H])C([H])([H])C2([H])N([H])C(=O)C1([H])N(C(=O)C([H])(N([H])C(=O)C([H])(N([H])C([H])([H])[H])C([H])([H])[H])C(C([H])([H])[H])(C([H])([H])[H])C([H])([H])[H])C([H])([H])c2c([H])c(OC([H])([H])C([H])([H])N3C([H])([H])C([H])([H])[N+]([H])(C([H])([H])C(=O)N([H])c4c([H])c(F)c(N([H])C(=O)N5C([H])([H])C([H])([H])C([H])([H])C([H])(n6nc(-c7c([H])c([H])c(Oc8c([H])c([H])c(F)c([H])c8F)c([H])c7[H])c(C(=O)N([H])[H])c6N([H])[H])C5([H])[H])c([H])c4F)C([H])([H])C3([H])[H])c([H])c([H])c2C1([H])[H]

>  <smiles>  (86) 
[H]c1c([H])c([H])c2c(c1[H])C([H])([H])C([H])([H])C([H])([H])C2([H])N([H])C(=O)C1([H])N(C(=O)C([H])(N([H])C(=O)C([H])(N([H])C([H])([H])[H])C([H])([H])[H])C(C([H])([H])[H])(C([H])([H])[H])C([H])([H])[H])C([H])([H])c2c([H])c(OC([H])([H])C([H])([H])N3C([H])([H])C([H])([H])[N+]([H])(C([H])([H])C(=O)N([H])c4c([H])c(F)c(N([H])C(=O)N5C([H])([H])C([H])([H])C([H])([H])C([H])(n6nc(-c7c([H])c([H])c(Oc8c([H])c([H])c(F)c([H])c8F)c([H])c7[H])c(C(=O)N([H])[H])c6N([H])[H])C5([H])[H])c([H])c4F)C([H])([H])C3([H])[H])c([H])c([H])c2C1([H])[H]

$$$$
87:0:0
     RDKit          3D

103111  0  0  1  0  0  0  0  0999 V2000
  -30.8170  -25.9830   24.1050 C   0  0  0  0  0  3  0  0  0  0  0  0
  -30.6430  -24.9390   23.1690 C   0  0  0  0  0  0  0  0  0  0  0  0
  -31.1750  -26.5100   21.3520 C   0  0  0  0  0  0  0  0  0  0  0  0
  -31.2200  -27.2600   23.6820 C   0  0  0  0  0  0  0  0  0  0  0  0
  -31.4160  -27.5200   22.3150 C   0  0  0  0  0  0  0  0  0  0  0  0
  -30.8450  -25.1970   21.7880 C   0  0  0  0  0  0  0  0  0  0  0  0
  -31.3960  -28.2500   24.5890 F   0  0  0  0  0  0  0  0  0  0  0  0
  -31.8140  -28.7560   21.9340 F   0  0  0  0  0  0  0  0  0  0  0  0
  -30.6570  -23.9140   20.6320 Cl  0  0  0  0  0  0  0  0  0  0  0  0
  -30.1010  -27.1750   19.2500 C   0  0  0  0  0  0  0  0  0  0  0  0
  -32.4900  -26.6740   19.2360 C   0  0  0  0  0  1  0  0  0  0  0  0
  -31.2160  -26.8280   19.9540 N   0  0  0  0  0  0  0  0  0  0  0  0
  -30.1050  -27.2410   18.0140 O   0  0  0  0  0  0  0  0  0  0  0  0
  -28.7910  -27.5330   19.9920 C   0  0  0  0  0  2  0  0  0  0  0  0
  -27.6670  -27.5300   19.1020 O   0  0  0  0  0  0  0  0  0  0  0  0
  -24.1810  -32.0830   23.4030 C   0  0  0  0  0  0  0  0  0  0  0  0
  -26.5290  -28.2410   19.4370 C   0  0  0  0  0  0  0  0  0  0  0  0
  -22.8020  -30.9270   21.6970 C   0  0  0  0  0  3  0  0  0  0  0  0
  -24.1070  -29.6330   19.9230 C   0  0  0  0  0  0  0  0  0  0  0  0
  -25.2790  -31.3700   21.2880 C   0  0  0  0  0  2  0  0  0  0  0  0
  -25.3070  -30.1010   20.4660 C   0  0  0  0  0  0  0  0  0  0  0  0
  -26.5120  -29.4120   20.2380 C   0  0  0  0  0  3  0  0  0  0  0  0
  -25.3080  -27.7810   18.8990 C   0  0  0  0  0  3  0  0  0  0  0  0
  -24.0980  -28.4640   19.1420 C   0  0  0  0  0  3  0  0  0  0  0  0
  -22.8660  -30.4460   20.2200 C   0  0  0  0  0  2  0  0  0  0  0  0
  -24.1130  -31.4650   22.1910 N   0  0  0  0  0  0  0  0  0  0  0  0
  -23.1660  -32.2520   24.0920 O   0  0  0  0  0  0  0  0  0  0  0  0
  -22.2560  -29.7700   22.5600 C   0  0  0  0  0  0  0  0  0  0  0  0
  -20.9600  -29.4640   22.3880 N   0  0  0  0  0  0  0  0  0  0  0  0
  -22.9920  -29.1530   23.3340 O   0  0  0  0  0  0  0  0  0  0  0  0
  -20.4270  -30.0190   21.7330 H   0  0  0  0  0  0  0  0  0  0  0  0
  -17.7770  -27.7750   22.5620 C   0  0  0  0  0  0  0  0  0  0  0  0
  -20.2360  -28.3850   23.0580 C   0  0  0  0  0  3  0  0  0  0  0  0
  -20.5970  -27.0130   22.4430 C   0  0  0  0  0  2  0  0  0  0  0  0
  -19.6370  -26.5800   21.3300 C   0  0  0  0  0  2  0  0  0  0  0  0
  -18.2020  -26.4940   21.8600 C   0  0  0  0  0  2  0  0  0  0  0  0
  -18.7330  -28.6690   23.1090 C   0  0  0  0  0  0  0  0  0  0  0  0
  -18.2850  -29.8600   23.7190 C   0  0  0  0  0  3  0  0  0  0  0  0
  -16.9120  -30.1600   23.7910 C   0  0  0  0  0  3  0  0  0  0  0  0
  -15.9680  -29.2630   23.2600 C   0  0  0  0  0  3  0  0  0  0  0  0
  -16.4000  -28.0730   22.6490 C   0  0  0  0  0  3  0  0  0  0  0  0
  -25.5250  -32.6360   23.9690 C   0  0  0  0  0  3  0  0  0  0  0  0
  -26.0280  -31.8740   25.2550 C   0  0  1  0  0  0  0  0  0  0  0  0
  -24.9360  -31.6950   26.3330 C   0  0  0  0  0  1  0  0  0  0  0  0
  -26.5670  -30.4720   24.8830 C   0  0  0  0  0  1  0  0  0  0  0  0
  -27.2170  -32.6430   25.8790 C   0  0  0  0  0  1  0  0  0  0  0  0
  -25.3280  -34.0630   24.2550 N   0  0  0  0  0  0  0  0  0  0  0  0
  -25.8140  -35.0620   23.5080 C   0  0  0  0  0  0  0  0  0  0  0  0
  -26.5440  -34.8740   22.5300 O   0  0  0  0  0  0  0  0  0  0  0  0
  -24.6920  -34.2900   25.0040 H   0  0  0  0  0  0  0  0  0  0  0  0
  -24.3230  -37.0230   22.9830 C   0  0  0  0  0  1  0  0  0  0  0  0
  -25.4290  -36.4970   23.9110 C   0  0  0  0  0  3  0  0  0  0  0  0
  -27.5590  -37.1590   24.9360 C   0  0  0  0  0  1  0  0  0  0  0  0
  -26.5700  -37.4370   23.9010 N   0  0  0  0  0  0  0  0  0  0  0  0
  -26.2420  -38.3930   24.0240 H   0  0  0  0  0  0  0  0  0  0  0  0
  -30.2660  -23.5520   23.6830 C   0  0  0  0  0  2  0  0  0  0  0  0
  -29.0650  -22.8880   22.9690 C   0  0  0  0  0  2  0  0  0  0  0  0
  -29.4030  -22.1040   21.6780 C   0  0  0  0  0  2  0  0  0  0  0  0
  -28.3490  -21.0450   21.2900 C   0  0  0  0  0  2  0  0  0  0  0  0
  -28.8040  -20.0530   20.1920 C   0  0  0  0  0  2  0  0  0  0  0  0
  -29.8180  -17.7830   20.2590 C   0  0  0  0  0  0  0  0  0  0  0  0
  -29.7420  -19.0490   20.7000 N   0  0  0  0  0  0  0  0  0  0  0  0
  -29.1810  -17.3960   19.2740 O   0  0  0  0  0  0  0  0  0  0  0  0
  -30.3150  -19.3140   21.4900 H   0  0  0  0  0  0  0  0  0  0  0  0
  -30.7160  -16.7990   21.0280 C   0  0  0  0  0  2  0  0  0  0  0  0
  -30.5070  -14.5620   19.9330 C   0  0  0  0  0  0  0  0  0  0  0  0
  -30.2940  -12.2310   19.1560 C   0  0  0  0  0  2  0  0  0  0  0  0
  -29.2870  -12.1100   17.9980 C   0  0  0  0  0  2  0  0  0  0  0  0
  -27.8610  -11.9030   18.5380 C   0  0  0  0  0  2  0  0  0  0  0  0
  -27.4890  -12.9500   19.6230 C   0  0  0  0  0  3  0  0  0  0  0  0
  -28.6020  -13.0840   20.6870 C   0  0  0  0  0  2  0  0  0  0  0  0
  -29.8880  -13.3530   20.0120 N   0  0  0  0  0  0  0  0  0  0  0  0
  -31.3710  -14.8230   19.0920 O   0  0  0  0  0  0  0  0  0  0  0  0
  -30.2160  -15.4210   20.9190 N   0  0  0  0  0  0  0  0  0  0  0  0
  -29.5540  -15.1130   21.6180 H   0  0  0  0  0  0  0  0  0  0  0  0
  -25.2410  -13.5250   20.7380 C   0  0  0  0  0  0  0  0  0  0  0  0
  -24.1880  -12.7430   21.1410 C   0  0  0  0  0  0  0  0  0  0  0  0
  -24.5660  -11.3970   20.8520 C   0  0  0  0  0  0  0  0  0  0  0  0
  -26.1940  -12.6510   20.2380 N   0  0  0  0  0  0  0  0  0  0  0  0
  -25.7970  -11.3580   20.3580 N   0  0  0  0  0  0  0  0  0  0  0  0
  -23.8030  -10.1450   20.9660 C   0  0  0  0  0  0  0  0  0  0  0  0
  -24.2830   -9.0550   21.7220 C   0  0  0  0  0  3  0  0  0  0  0  0
  -23.5250   -7.8690   21.8300 C   0  0  0  0  0  3  0  0  0  0  0  0
  -22.2730   -7.7640   21.1810 C   0  0  0  0  0  0  0  0  0  0  0  0
  -21.8080   -8.8460   20.4120 C   0  0  0  0  0  3  0  0  0  0  0  0
  -22.5650  -10.0240   20.3020 C   0  0  0  0  0  3  0  0  0  0  0  0
  -21.4800   -6.6420   21.2090 O   0  0  0  0  0  0  0  0  0  0  0  0
  -21.4990   -5.7730   22.2710 C   0  0  0  0  0  0  0  0  0  0  0  0
  -21.1740   -6.1900   23.5800 C   0  0  0  0  0  3  0  0  0  0  0  0
  -21.1350   -5.2500   24.6300 C   0  0  0  0  0  3  0  0  0  0  0  0
  -21.4070   -3.8930   24.3710 C   0  0  0  0  0  0  0  0  0  0  0  0
  -21.7200   -3.4740   23.0670 C   0  0  0  0  0  3  0  0  0  0  0  0
  -21.7620   -4.4110   22.0200 C   0  0  0  0  0  0  0  0  0  0  0  0
  -22.0450   -3.9990   20.7600 F   0  0  0  0  0  0  0  0  0  0  0  0
  -21.3630   -2.9880   25.3780 F   0  0  0  0  0  0  0  0  0  0  0  0
  -22.8700  -13.2260   21.6750 C   0  0  0  0  0  0  0  0  0  0  0  0
  -22.2330  -12.4490   22.5470 N   0  0  0  0  0  0  0  0  0  0  0  0
  -22.4140  -14.3200   21.3520 O   0  0  0  0  0  0  0  0  0  0  0  0
  -22.6140  -11.5650   22.8470 H   0  0  0  0  0  0  0  0  0  0  0  0
  -21.3470  -12.7500   22.9250 H   0  0  0  0  0  0  0  0  0  0  0  0
  -25.4590  -14.8990   20.7350 N   0  0  0  0  0  0  0  0  0  0  0  0
  -24.7590  -15.5730   21.0250 H   0  0  0  0  0  0  0  0  0  0  0  0
  -26.3040  -15.3350   20.3810 H   0  0  0  0  0  0  0  0  0  0  0  0
  2 56  1  0
  2  1  2  0
  3  6  2  0
  3  5  1  0
  4  1  1  0
  4  7  1  0
  5  4  2  0
  6  2  1  0
  8  5  1  0
  9  6  1  0
 10 12  1  0
 10 14  1  0
 11 12  1  0
 12  3  1  0
 13 10  2  0
 15 17  1  0
 15 14  1  0
 16 27  2  0
 17 22  1  0
 18 26  1  0
 18 28  1  0
 19 25  1  0
 19 21  1  0
 20 26  1  0
 21 20  1  0
 22 21  2  0
 23 24  1  0
 23 17  2  0
 24 19  2  0
 25 18  1  0
 26 16  1  0
 28 30  2  0
 29 28  1  0
 31 29  1  0
 32 41  2  0
 32 37  1  0
 33 29  1  0
 33 37  1  0
 34 33  1  0
 35 36  1  0
 35 34  1  0
 36 32  1  0
 37 38  2  0
 38 39  1  0
 40 39  2  0
 41 40  1  0
 42 16  1  0
 42 47  1  0
 42 43  1  0
 43 46  1  1
 43 44  1  0
 45 43  1  0
 47 50  1  0
 48 52  1  0
 48 47  1  0
 49 48  2  0
 52 51  1  0
 54 52  1  0
 54 55  1  0
 54 53  1  0
 57 56  1  0
 58 57  1  0
 59 58  1  0
 60 62  1  0
 60 59  1  0
 61 62  1  0
 61 65  1  0
 62 64  1  0
 63 61  2  0
 66 72  1  0
 66 74  1  0
 67 72  1  0
 68 69  1  0
 68 67  1  0
 70 69  1  0
 70 79  1  0
 70 71  1  0
 72 71  1  0
 73 66  2  0
 74 65  1  0
 74 75  1  0
 76 77  2  0
 77 96  1  0
 78 81  1  0
 78 77  1  0
 79 80  1  0
 79 76  1  0
 80 78  2  0
 81 82  1  0
 82 83  2  0
 84 87  1  0
 84 83  1  0
 85 84  2  0
 86 85  1  0
 86 81  2  0
 87 88  1  0
 88 89  1  0
 89 90  2  0
 91 90  1  0
 91 95  1  0
 92 91  2  0
 93 88  2  0
 93 92  1  0
 94 93  1  0
 96 97  1  0
 97 99  1  0
 97100  1  0
 98 96  2  0
101 76  1  0
101102  1  0
103101  1  0
M  ISO  4  14 101  15 101  66 100  74 100
M  END
>  <TORSDO>  (87) 
F 25

>  <SCORE>  (87) 
-6.612

>  <name>  (87) 
87

>  <ligand_id>  (87) 
87

>  <original_smiles>  (87) 
[H]c1c([H])c([H])c2c(c1[H])C([H])([H])C([H])([H])C([H])([H])C2([H])N([H])C(=O)C1([H])N(C(=O)C([H])(N([H])C(=O)C([H])(N([H])C([H])([H])[H])C([H])([H])[H])C(C([H])([H])[H])(C([H])([H])[H])C([H])([H])[H])C([H])([H])c2c([H])c(OC([H])([H])C(=O)N(c3c(F)c(F)c([H])c(C([H])([H])C([H])([H])C([H])([H])C([H])([H])C([H])([H])N([H])C(=O)C([H])([H])N([H])C(=O)N4C([H])([H])C([H])([H])C([H])([H])C([H])(n5nc(-c6c([H])c([H])c(Oc7c([H])c([H])c(F)c([H])c7F)c([H])c6[H])c(C(=O)N([H])[H])c5N([H])[H])C4([H])[H])c3Cl)C([H])([H])[H])c([H])c([H])c2C1([H])[H]

>  <smiles>  (87) 
[H]c1c([H])c([H])c2c(c1[H])C([H])([H])C([H])([H])C([H])([H])C2([H])N([H])C(=O)C1([H])N(C(=O)C([H])(N([H])C(=O)C([H])(N([H])C([H])([H])[H])C([H])([H])[H])C(C([H])([H])[H])(C([H])([H])[H])C([H])([H])[H])C([H])([H])c2c([H])c(OC([H])([H])C(=O)N(c3c(F)c(F)c([H])c(C([H])([H])C([H])([H])C([H])([H])C([H])([H])C([H])([H])N([H])C(=O)C([H])([H])N([H])C(=O)N4C([H])([H])C([H])([H])C([H])([H])C([H])(n5nc(-c6c([H])c([H])c(Oc7c([H])c([H])c(F)c([H])c7F)c([H])c6[H])c(C(=O)N([H])[H])c5N([H])[H])C4([H])[H])c3Cl)C([H])([H])[H])c([H])c([H])c2C1([H])[H]

$$$$
88:0:0
     RDKit          3D

 91 99  0  0  1  0  0  0  0  0999 V2000
  -29.2760  -19.0180   20.5480 C   0  0  0  0  0  3  0  0  0  0  0  0
  -30.8680  -19.3720   18.3540 C   0  0  0  0  0  3  0  0  0  0  0  0
  -29.4140  -20.4360   20.0460 C   0  0  0  0  0  0  0  0  0  0  0  0
  -29.9190  -17.7680   19.9940 C   0  0  0  0  0  0  0  0  0  0  0  0
  -30.2860  -20.5160   18.9330 C   0  0  0  0  0  0  0  0  0  0  0  0
  -30.6760  -18.0530   18.8190 C   0  0  0  0  0  0  0  0  0  0  0  0
  -30.5620  -21.7120   18.3590 F   0  0  0  0  0  0  0  0  0  0  0  0
  -31.3270  -16.8240   17.7890 Cl  0  0  0  0  0  0  0  0  0  0  0  0
  -30.5100  -15.0610   20.3140 C   0  0  0  0  0  0  0  0  0  0  0  0
  -30.3920  -12.6930   19.3960 C   0  0  0  0  0  2  0  0  0  0  0  0
  -29.4680  -12.6360   18.1580 C   0  0  0  0  0  2  0  0  0  0  0  0
  -28.0030  -12.4250   18.5840 C   0  0  0  0  0  2  0  0  0  0  0  0
  -27.5900  -13.3450   19.7620 C   0  0  0  0  0  3  0  0  0  0  0  0
  -28.6420  -13.3740   20.8900 C   0  0  0  0  0  2  0  0  0  0  0  0
  -29.9090  -13.7980   20.2800 N   0  0  0  0  0  0  0  0  0  0  0  0
  -31.7260  -15.0750   20.0930 O   0  0  0  0  0  0  0  0  0  0  0  0
  -29.7480  -16.2780   20.4500 N   0  0  0  0  0  0  0  0  0  0  0  0
  -28.8360  -16.0940   20.8360 H   0  0  0  0  0  0  0  0  0  0  0  0
  -25.2090  -13.9140   20.4950 C   0  0  0  0  0  0  0  0  0  0  0  0
  -24.1460  -13.1380   20.8630 C   0  0  0  0  0  0  0  0  0  0  0  0
  -24.6130  -11.7890   20.8380 C   0  0  0  0  0  0  0  0  0  0  0  0
  -26.2540  -13.0390   20.2600 N   0  0  0  0  0  0  0  0  0  0  0  0
  -25.9070  -11.7540   20.5340 N   0  0  0  0  0  0  0  0  0  0  0  0
  -23.8880  -10.5250   21.0270 C   0  0  0  0  0  0  0  0  0  0  0  0
  -24.3170   -9.5590   21.9650 C   0  0  0  0  0  3  0  0  0  0  0  0
  -23.5890   -8.3620   22.1420 C   0  0  0  0  0  3  0  0  0  0  0  0
  -22.4180   -8.1220   21.3830 C   0  0  0  0  0  0  0  0  0  0  0  0
  -22.0090   -9.0780   20.4360 C   0  0  0  0  0  3  0  0  0  0  0  0
  -22.7370  -10.2660   20.2560 C   0  0  0  0  0  3  0  0  0  0  0  0
  -21.6640   -6.9790   21.4710 O   0  0  0  0  0  0  0  0  0  0  0  0
  -21.6100   -6.2370   22.6240 C   0  0  0  0  0  0  0  0  0  0  0  0
  -21.1790   -6.7930   23.8480 C   0  0  0  0  0  3  0  0  0  0  0  0
  -21.0730   -5.9780   24.9930 C   0  0  0  0  0  3  0  0  0  0  0  0
  -21.3890   -4.6090   24.9150 C   0  0  0  0  0  0  0  0  0  0  0  0
  -21.8130   -4.0520   23.6950 C   0  0  0  0  0  3  0  0  0  0  0  0
  -21.9200   -4.8650   22.5530 C   0  0  0  0  0  0  0  0  0  0  0  0
  -22.3090   -4.3180   21.3760 F   0  0  0  0  0  0  0  0  0  0  0  0
  -21.2790   -3.8240   26.0130 F   0  0  0  0  0  0  0  0  0  0  0  0
  -22.7460  -13.6130   21.1210 C   0  0  0  0  0  0  0  0  0  0  0  0
  -22.0130  -12.9220   21.9870 N   0  0  0  0  0  0  0  0  0  0  0  0
  -22.3110  -14.6350   20.5910 O   0  0  0  0  0  0  0  0  0  0  0  0
  -22.3800  -12.0980   22.4400 H   0  0  0  0  0  0  0  0  0  0  0  0
  -21.0730  -13.2220   22.2010 H   0  0  0  0  0  0  0  0  0  0  0  0
  -25.3690  -15.2850   20.3110 N   0  0  0  0  0  0  0  0  0  0  0  0
  -24.5950  -15.9330   20.4110 H   0  0  0  0  0  0  0  0  0  0  0  0
  -26.2030  -15.7210   19.9400 H   0  0  0  0  0  0  0  0  0  0  0  0
  -28.7680  -21.7140   20.5250 N   0  0  0  0  0  0  0  0  0  0  0  0
  -28.1300  -21.6010   21.3090 H   0  0  0  0  0  0  0  0  0  0  0  0
  -28.9660  -23.2280   20.0730 C   0  0  0  0  0  3  0  0  0  0  0  0
  -28.0150  -24.5820   20.5310 C   0  0  0  0  0  3  0  0  0  0  0  0
  -28.2640  -26.1280   20.2860 O   0  0  0  0  0  0  0  0  0  0  0  0
  -24.6210  -31.8950   23.2350 C   0  0  0  0  0  0  0  0  0  0  0  0
  -27.2090  -27.1270   20.2530 C   0  0  0  0  0  0  0  0  0  0  0  0
  -23.4310  -30.4860   21.6020 C   0  0  0  0  0  3  0  0  0  0  0  0
  -24.8860  -28.8990   20.1940 C   0  0  0  0  0  0  0  0  0  0  0  0
  -25.9880  -30.7430   21.4490 C   0  0  0  0  0  2  0  0  0  0  0  0
  -26.0650  -29.3430   20.8060 C   0  0  0  0  0  0  0  0  0  0  0  0
  -27.2280  -28.4750   20.8140 C   0  0  0  0  0  3  0  0  0  0  0  0
  -26.0040  -26.7980   19.5950 C   0  0  0  0  0  3  0  0  0  0  0  0
  -24.8710  -27.6410   19.5710 C   0  0  0  0  0  3  0  0  0  0  0  0
  -23.6600  -29.7990   20.2290 C   0  0  0  0  0  2  0  0  0  0  0  0
  -24.7010  -31.0650   22.1490 N   0  0  0  0  0  0  0  0  0  0  0  0
  -23.5320  -32.1810   23.7560 O   0  0  0  0  0  0  0  0  0  0  0  0
  -22.7490  -29.4860   22.5690 C   0  0  0  0  0  0  0  0  0  0  0  0
  -21.4210  -29.3130   22.4400 N   0  0  0  0  0  0  0  0  0  0  0  0
  -23.4170  -28.8660   23.4000 O   0  0  0  0  0  0  0  0  0  0  0  0
  -20.9380  -29.8620   21.7420 H   0  0  0  0  0  0  0  0  0  0  0  0
  -18.0390  -28.1140   22.9450 C   0  0  0  0  0  0  0  0  0  0  0  0
  -20.5980  -28.3800   23.2140 C   0  0  0  0  0  3  0  0  0  0  0  0
  -20.7010  -26.9450   22.6460 C   0  0  0  0  0  2  0  0  0  0  0  0
  -19.6010  -26.6160   21.6310 C   0  0  0  0  0  2  0  0  0  0  0  0
  -18.2180  -26.7620   22.2730 C   0  0  0  0  0  2  0  0  0  0  0  0
  -19.1560  -28.8800   23.3710 C   0  0  0  0  0  0  0  0  0  0  0  0
  -18.9330  -30.1430   23.9600 C   0  0  0  0  0  3  0  0  0  0  0  0
  -17.6270  -30.6410   24.1260 C   0  0  0  0  0  3  0  0  0  0  0  0
  -16.5250  -29.8720   23.7140 C   0  0  0  0  0  3  0  0  0  0  0  0
  -16.7310  -28.6100   23.1290 C   0  0  0  0  0  3  0  0  0  0  0  0
  -25.8950  -32.5390   23.8650 C   0  0  0  0  0  3  0  0  0  0  0  0
  -26.3990  -31.7810   25.1550 C   0  0  1  0  0  0  0  0  0  0  0  0
  -25.2960  -31.5540   26.2150 C   0  0  0  0  0  1  0  0  0  0  0  0
  -26.9860  -30.3990   24.7880 C   0  0  0  0  0  1  0  0  0  0  0  0
  -27.5440  -32.5820   25.8170 C   0  0  0  0  0  1  0  0  0  0  0  0
  -25.5760  -33.9390   24.1880 N   0  0  0  0  0  0  0  0  0  0  0  0
  -25.9090  -34.9940   23.4330 C   0  0  0  0  0  0  0  0  0  0  0  0
  -26.5840  -34.8910   22.4040 O   0  0  0  0  0  0  0  0  0  0  0  0
  -24.9750  -34.0920   24.9840 H   0  0  0  0  0  0  0  0  0  0  0  0
  -24.1830  -36.7900   23.0740 C   0  0  0  0  0  1  0  0  0  0  0  0
  -25.4210  -36.3840   23.8890 C   0  0  0  0  0  3  0  0  0  0  0  0
  -27.5510  -37.2710   24.7310 C   0  0  0  0  0  1  0  0  0  0  0  0
  -26.4550  -37.4360   23.7800 N   0  0  0  0  0  0  0  0  0  0  0  0
  -26.0490  -38.3580   23.9210 H   0  0  0  0  0  0  0  0  0  0  0  0
  2  6  2  0
  2  5  1  0
  3 47  1  0
  3  1  1  0
  4 17  1  0
  4  1  2  0
  5  3  2  0
  6  4  1  0
  7  5  1  0
  8  6  1  0
  9 17  1  0
 10 15  1  0
 11 12  1  0
 11 10  1  0
 13 12  1  0
 13 22  1  0
 13 14  1  0
 15  9  1  0
 15 14  1  0
 16  9  2  0
 17 18  1  0
 19 20  2  0
 20 39  1  0
 21 20  1  0
 21 24  1  0
 22 19  1  0
 22 23  1  0
 23 21  2  0
 24 25  1  0
 25 26  2  0
 27 30  1  0
 27 26  1  0
 28 27  2  0
 29 28  1  0
 29 24  2  0
 30 31  1  0
 31 32  1  0
 32 33  2  0
 34 33  1  0
 34 38  1  0
 35 34  2  0
 36 31  2  0
 36 35  1  0
 37 36  1  0
 39 40  1  0
 40 43  1  0
 40 42  1  0
 41 39  2  0
 44 45  1  0
 44 19  1  0
 46 44  1  0
 47 48  1  0
 49 47  1  0
 49 50  2  0
 51 50  1  0
 52 63  2  0
 53 51  1  0
 53 58  1  0
 54 62  1  0
 54 64  1  0
 55 61  1  0
 55 57  1  0
 56 62  1  0
 57 58  2  0
 57 56  1  0
 59 53  2  0
 60 59  1  0
 60 55  2  0
 61 54  1  0
 62 52  1  0
 64 66  2  0
 65 64  1  0
 67 65  1  0
 68 77  2  0
 68 73  1  0
 69 65  1  0
 69 73  1  0
 70 69  1  0
 71 72  1  0
 71 70  1  0
 72 68  1  0
 73 74  2  0
 74 75  1  0
 76 75  2  0
 77 76  1  0
 78 52  1  0
 78 83  1  0
 78 79  1  0
 79 82  1  1
 79 80  1  0
 81 79  1  0
 83 86  1  0
 84 88  1  0
 84 83  1  0
 85 84  2  0
 88 87  1  0
 90 88  1  0
 90 91  1  0
 90 89  1  0
M  ISO  4   9 100  17 100  50 101  51 101
M  END
>  <TORSDO>  (88) 
F 19

>  <SCORE>  (88) 
-14.994

>  <name>  (88) 
88

>  <ligand_id>  (88) 
88

>  <original_smiles>  (88) 
[H]c1c([H])c([H])c2c(c1[H])C([H])([H])C([H])([H])C([H])([H])C2([H])N([H])C(=O)C1([H])N(C(=O)C([H])(N([H])C(=O)C([H])(N([H])C([H])([H])[H])C([H])([H])[H])C(C([H])([H])[H])(C([H])([H])[H])C([H])([H])[H])C([H])([H])c2c([H])c(OC([H])([H])C([H])([H])N([H])c3c([H])c(N([H])C(=O)N4C([H])([H])C([H])([H])C([H])([H])C([H])(n5nc(-c6c([H])c([H])c(Oc7c([H])c([H])c(F)c([H])c7F)c([H])c6[H])c(C(=O)N([H])[H])c5N([H])[H])C4([H])[H])c(Cl)c([H])c3F)c([H])c([H])c2C1([H])[H]

>  <smiles>  (88) 
[H]c1c([H])c([H])c2c(c1[H])C([H])([H])C([H])([H])C([H])([H])C2([H])N([H])C(=O)C1([H])N(C(=O)C([H])(N([H])C(=O)C([H])(N([H])C([H])([H])[H])C([H])([H])[H])C(C([H])([H])[H])(C([H])([H])[H])C([H])([H])[H])C([H])([H])c2c([H])c(OC([H])([H])C([H])([H])N([H])c3c([H])c(N([H])C(=O)N4C([H])([H])C([H])([H])C([H])([H])C([H])(n5nc(-c6c([H])c([H])c(Oc7c([H])c([H])c(F)c([H])c7F)c([H])c6[H])c(C(=O)N([H])[H])c5N([H])[H])C4([H])[H])c(Cl)c([H])c3F)c([H])c([H])c2C1([H])[H]

$$$$
89:0:0
     RDKit          3D

 92100  0  0  1  0  0  0  0  0999 V2000
  -29.1050  -19.8890   20.8840 C   0  0  0  0  0  3  0  0  0  0  0  0
  -29.8880  -19.8550   18.6650 C   0  0  0  0  0  3  0  0  0  0  0  0
  -29.3510  -20.6870   19.7170 C   0  0  0  0  0  0  0  0  0  0  0  0
  -29.8580  -17.6290   19.9080 C   0  0  0  0  0  0  0  0  0  0  0  0
  -29.3290  -18.4510   20.9680 C   0  0  0  0  0  0  0  0  0  0  0  0
  -30.1420  -18.4210   18.7460 C   0  0  0  0  0  0  0  0  0  0  0  0
  -28.9760  -17.8280   22.1190 F   0  0  0  0  0  0  0  0  0  0  0  0
  -30.6070  -17.7940   17.6380 F   0  0  0  0  0  0  0  0  0  0  0  0
  -30.6500  -15.0060   19.5540 C   0  0  0  0  0  0  0  0  0  0  0  0
  -30.4400  -12.6900   18.5470 C   0  0  0  0  0  2  0  0  0  0  0  0
  -29.3640  -12.7030   17.4350 C   0  0  0  0  0  2  0  0  0  0  0  0
  -27.9570  -12.4870   18.0270 C   0  0  0  0  0  2  0  0  0  0  0  0
  -27.7040  -13.3600   19.2830 C   0  0  0  0  0  3  0  0  0  0  0  0
  -28.8840  -13.2960   20.2770 C   0  0  0  0  0  2  0  0  0  0  0  0
  -30.0870  -13.7310   19.5530 N   0  0  0  0  0  0  0  0  0  0  0  0
  -31.7720  -15.1350   19.0510 O   0  0  0  0  0  0  0  0  0  0  0  0
  -29.8940  -16.0990   20.0360 N   0  0  0  0  0  0  0  0  0  0  0  0
  -29.1370  -15.7670   20.6130 H   0  0  0  0  0  0  0  0  0  0  0  0
  -25.4330  -13.9190   20.3270 C   0  0  0  0  0  0  0  0  0  0  0  0
  -24.4080  -13.1350   20.7800 C   0  0  0  0  0  0  0  0  0  0  0  0
  -24.8450  -11.7830   20.6180 C   0  0  0  0  0  0  0  0  0  0  0  0
  -26.4280  -13.0480   19.9170 N   0  0  0  0  0  0  0  0  0  0  0  0
  -26.0880  -11.7530   20.1540 N   0  0  0  0  0  0  0  0  0  0  0  0
  -24.1250  -10.5180   20.8230 C   0  0  0  0  0  0  0  0  0  0  0  0
  -24.5730   -9.5560   21.7550 C   0  0  0  0  0  3  0  0  0  0  0  0
  -23.8530   -8.3580   21.9480 C   0  0  0  0  0  3  0  0  0  0  0  0
  -22.6710   -8.1120   21.2090 C   0  0  0  0  0  0  0  0  0  0  0  0
  -22.2430   -9.0630   20.2660 C   0  0  0  0  0  3  0  0  0  0  0  0
  -22.9640  -10.2530   20.0710 C   0  0  0  0  0  3  0  0  0  0  0  0
  -21.9200   -6.9660   21.3120 O   0  0  0  0  0  0  0  0  0  0  0  0
  -21.7660   -6.3120   22.5090 C   0  0  0  0  0  0  0  0  0  0  0  0
  -21.1800   -6.9380   23.6300 C   0  0  0  0  0  3  0  0  0  0  0  0
  -20.9780   -6.2080   24.8190 C   0  0  0  0  0  3  0  0  0  0  0  0
  -21.3510   -4.8520   24.8850 C   0  0  0  0  0  0  0  0  0  0  0  0
  -21.9310   -4.2250   23.7670 C   0  0  0  0  0  3  0  0  0  0  0  0
  -22.1350   -4.9530   22.5810 C   0  0  0  0  0  0  0  0  0  0  0  0
  -22.6750   -4.3400   21.5010 F   0  0  0  0  0  0  0  0  0  0  0  0
  -21.1500   -4.1470   26.0230 F   0  0  0  0  0  0  0  0  0  0  0  0
  -23.0610  -13.6070   21.2420 C   0  0  0  0  0  0  0  0  0  0  0  0
  -22.4360  -12.8750   22.1570 N   0  0  0  0  0  0  0  0  0  0  0  0
  -22.5770  -14.6600   20.8280 O   0  0  0  0  0  0  0  0  0  0  0  0
  -22.8440  -12.0220   22.5110 H   0  0  0  0  0  0  0  0  0  0  0  0
  -21.5370  -13.1720   22.5090 H   0  0  0  0  0  0  0  0  0  0  0  0
  -25.5930  -15.2970   20.2070 N   0  0  0  0  0  0  0  0  0  0  0  0
  -24.8470  -15.9440   20.4370 H   0  0  0  0  0  0  0  0  0  0  0  0
  -26.3900  -15.7480   19.7760 H   0  0  0  0  0  0  0  0  0  0  0  0
  -28.9140  -23.3810   20.1900 C   0  0  0  0  0  0  0  0  0  0  0  0
  -28.9180  -22.1460   19.4870 N   0  0  0  0  0  0  0  0  0  0  0  0
  -29.5120  -23.4650   21.2670 O   0  0  0  0  0  0  0  0  0  0  0  0
  -28.5260  -22.2830   18.5630 H   0  0  0  0  0  0  0  0  0  0  0  0
  -28.1150  -24.7290   19.6400 C   0  0  0  0  0  2  0  0  0  0  0  0
  -28.2970  -26.1770   20.1970 O   0  0  0  0  0  0  0  0  0  0  0  0
  -24.6290  -31.8210   23.2120 C   0  0  0  0  0  0  0  0  0  0  0  0
  -27.2460  -27.1680   20.1120 C   0  0  0  0  0  0  0  0  0  0  0  0
  -23.4450  -30.4410   21.5490 C   0  0  0  0  0  3  0  0  0  0  0  0
  -24.9080  -28.9050   20.0980 C   0  0  0  0  0  0  0  0  0  0  0  0
  -25.9980  -30.7220   21.4020 C   0  0  0  0  0  2  0  0  0  0  0  0
  -26.0800  -29.3420   20.7270 C   0  0  0  0  0  0  0  0  0  0  0  0
  -27.2480  -28.4870   20.7240 C   0  0  0  0  0  3  0  0  0  0  0  0
  -26.0530  -26.8490   19.4220 C   0  0  0  0  0  3  0  0  0  0  0  0
  -24.9080  -27.6720   19.4310 C   0  0  0  0  0  3  0  0  0  0  0  0
  -23.6750  -29.7920   20.1580 C   0  0  0  0  0  2  0  0  0  0  0  0
  -24.7100  -31.0170   22.1080 N   0  0  0  0  0  0  0  0  0  0  0  0
  -23.5390  -32.0910   23.7390 O   0  0  0  0  0  0  0  0  0  0  0  0
  -22.7700  -29.4140   22.4930 C   0  0  0  0  0  0  0  0  0  0  0  0
  -21.4470  -29.2240   22.3480 N   0  0  0  0  0  0  0  0  0  0  0  0
  -23.4410  -28.7920   23.3210 O   0  0  0  0  0  0  0  0  0  0  0  0
  -20.9620  -29.7770   21.6560 H   0  0  0  0  0  0  0  0  0  0  0  0
  -18.0770  -27.9720   22.8020 C   0  0  0  0  0  0  0  0  0  0  0  0
  -20.6290  -28.2690   23.1030 C   0  0  0  0  0  3  0  0  0  0  0  0
  -20.7580  -26.8440   22.5200 C   0  0  0  0  0  2  0  0  0  0  0  0
  -19.6740  -26.5120   21.4900 C   0  0  0  0  0  2  0  0  0  0  0  0
  -18.2820  -26.6320   22.1170 C   0  0  0  0  0  2  0  0  0  0  0  0
  -19.1780  -28.7480   23.2500 C   0  0  0  0  0  0  0  0  0  0  0  0
  -18.9320  -30.0020   23.8500 C   0  0  0  0  0  3  0  0  0  0  0  0
  -17.6170  -30.4800   24.0070 C   0  0  0  0  0  3  0  0  0  0  0  0
  -16.5300  -29.7000   23.5750 C   0  0  0  0  0  3  0  0  0  0  0  0
  -16.7600  -28.4480   22.9780 C   0  0  0  0  0  3  0  0  0  0  0  0
  -25.9020  -32.4560   23.8510 C   0  0  0  0  0  3  0  0  0  0  0  0
  -25.5930  -33.8620   24.1560 N   0  0  0  0  0  0  0  0  0  0  0  0
  -25.9110  -34.9040   23.3760 C   0  0  0  0  0  0  0  0  0  0  0  0
  -26.5610  -34.7820   22.3350 O   0  0  0  0  0  0  0  0  0  0  0  0
  -25.0150  -34.0310   24.9660 H   0  0  0  0  0  0  0  0  0  0  0  0
  -24.1640  -36.6830   23.0410 C   0  0  0  0  0  1  0  0  0  0  0  0
  -25.4320  -36.3010   23.8200 C   0  0  0  0  0  3  0  0  0  0  0  0
  -27.5810  -37.2180   24.5720 C   0  0  0  0  0  1  0  0  0  0  0  0
  -26.4560  -37.3550   23.6510 N   0  0  0  0  0  0  0  0  0  0  0  0
  -26.0470  -38.2770   23.7830 H   0  0  0  0  0  0  0  0  0  0  0  0
  -26.3840  -31.7050   25.1530 C   0  0  1  0  0  0  0  0  0  0  0  0
  -25.2650  -31.4870   26.1970 C   0  0  0  0  0  1  0  0  0  0  0  0
  -26.9760  -30.3200   24.8020 C   0  0  0  0  0  1  0  0  0  0  0  0
  -27.5180  -32.5090   25.8310 C   0  0  0  0  0  1  0  0  0  0  0  0
  1  5  1  0
  2  6  2  0
  2  3  1  0
  3  1  2  0
  4 17  1  0
  4  5  2  0
  5  7  1  0
  6  4  1  0
  8  6  1  0
  9 17  1  0
 10 15  1  0
 11 12  1  0
 11 10  1  0
 13 12  1  0
 13 22  1  0
 13 14  1  0
 15  9  1  0
 15 14  1  0
 16  9  2  0
 17 18  1  0
 19 20  2  0
 20 39  1  0
 21 20  1  0
 21 24  1  0
 22 23  1  0
 22 19  1  0
 23 21  2  0
 24 25  1  0
 25 26  2  0
 27 30  1  0
 27 26  1  0
 28 27  2  0
 29 28  1  0
 29 24  2  0
 30 31  1  0
 31 36  2  0
 31 32  1  0
 32 33  2  0
 33 34  1  0
 34 38  1  0
 35 34  2  0
 36 35  1  0
 37 36  1  0
 39 40  1  0
 40 43  1  0
 40 42  1  0
 41 39  2  0
 44 19  1  0
 44 45  1  0
 46 44  1  0
 47 49  2  0
 48  3  1  0
 48 47  1  0
 50 48  1  0
 51 47  1  0
 51 52  1  0
 53 64  2  0
 54 52  1  0
 54 59  1  0
 55 63  1  0
 55 65  1  0
 56 62  1  0
 56 58  1  0
 57 63  1  0
 58 57  1  0
 59 58  2  0
 60 61  1  0
 60 54  2  0
 61 56  2  0
 62 55  1  0
 63 53  1  0
 65 67  2  0
 66 65  1  0
 68 66  1  0
 69 78  2  0
 69 74  1  0
 70 66  1  0
 70 74  1  0
 71 70  1  0
 72 73  1  0
 72 71  1  0
 73 69  1  0
 74 75  2  0
 75 76  1  0
 77 76  2  0
 78 77  1  0
 79 53  1  0
 79 80  1  0
 79 89  1  0
 80 83  1  0
 81 85  1  0
 81 80  1  0
 82 81  2  0
 85 84  1  0
 87 88  1  0
 87 85  1  0
 87 86  1  0
 89 92  1  1
 89 90  1  0
 91 89  1  0
M  ISO  4   9 100  17 100  51 101  52 101
M  END
>  <TORSDO>  (89) 
F 18

>  <SCORE>  (89) 
-12.942

>  <name>  (89) 
89

>  <ligand_id>  (89) 
89

>  <original_smiles>  (89) 
[H]c1c([H])c([H])c2c(c1[H])C([H])([H])C([H])([H])C([H])([H])C2([H])N([H])C(=O)C1([H])N(C(=O)C([H])(N([H])C(=O)C([H])(N([H])C([H])([H])[H])C([H])([H])[H])C(C([H])([H])[H])(C([H])([H])[H])C([H])([H])[H])C([H])([H])c2c([H])c(OC([H])([H])C(=O)N([H])c3c([H])c(F)c(N([H])C(=O)N4C([H])([H])C([H])([H])C([H])([H])C([H])(n5nc(-c6c([H])c([H])c(Oc7c([H])c([H])c(F)c([H])c7F)c([H])c6[H])c(C(=O)N([H])[H])c5N([H])[H])C4([H])[H])c(F)c3[H])c([H])c([H])c2C1([H])[H]

>  <smiles>  (89) 
[H]c1c([H])c([H])c2c(c1[H])C([H])([H])C([H])([H])C([H])([H])C2([H])N([H])C(=O)C1([H])N(C(=O)C([H])(N([H])C(=O)C([H])(N([H])C([H])([H])[H])C([H])([H])[H])C(C([H])([H])[H])(C([H])([H])[H])C([H])([H])[H])C([H])([H])c2c([H])c(OC([H])([H])C(=O)N([H])c3c([H])c(F)c(N([H])C(=O)N4C([H])([H])C([H])([H])C([H])([H])C([H])(n5nc(-c6c([H])c([H])c(Oc7c([H])c([H])c(F)c([H])c7F)c([H])c6[H])c(C(=O)N([H])[H])c5N([H])[H])C4([H])[H])c(F)c3[H])c([H])c([H])c2C1([H])[H]

$$$$
90:0:0
     RDKit          3D

 95103  0  0  1  0  0  0  0  0999 V2000
  -31.3220  -18.2130   19.4510 C   0  0  0  0  0  3  0  0  0  0  0  0
  -31.7200  -19.5510   19.2130 C   0  0  0  0  0  0  0  0  0  0  0  0
  -30.0680  -17.8520   19.9880 C   0  0  0  0  0  0  0  0  0  0  0  0
  -29.5480  -20.5210   20.0010 C   0  0  0  0  0  0  0  0  0  0  0  0
  -30.8750  -20.6640   19.5110 C   0  0  0  0  0  0  0  0  0  0  0  0
  -29.1890  -19.0590   20.2220 C   0  0  0  0  0  0  0  0  0  0  0  0
  -31.3870  -21.9080   19.3500 F   0  0  0  0  0  0  0  0  0  0  0  0
  -27.5920  -18.6820   20.7610 Cl  0  0  0  0  0  0  0  0  0  0  0  0
  -30.5120  -15.0920   19.9470 C   0  0  0  0  0  0  0  0  0  0  0  0
  -30.3270  -12.7410   18.9670 C   0  0  0  0  0  2  0  0  0  0  0  0
  -29.3360  -12.7060   17.7810 C   0  0  0  0  0  2  0  0  0  0  0  0
  -27.8970  -12.4850   18.2810 C   0  0  0  0  0  2  0  0  0  0  0  0
  -27.5520  -13.3790   19.5010 C   0  0  0  0  0  3  0  0  0  0  0  0
  -28.6670  -13.3860   20.5700 C   0  0  0  0  0  2  0  0  0  0  0  0
  -29.8980  -13.8310   19.9010 N   0  0  0  0  0  0  0  0  0  0  0  0
  -31.7040  -15.1030   19.6150 O   0  0  0  0  0  0  0  0  0  0  0  0
  -29.7850  -16.3210   20.1910 N   0  0  0  0  0  0  0  0  0  0  0  0
  -28.8500  -16.1400   20.5280 H   0  0  0  0  0  0  0  0  0  0  0  0
  -25.2200  -13.9390   20.3880 C   0  0  0  0  0  0  0  0  0  0  0  0
  -24.1740  -13.1580   20.7910 C   0  0  0  0  0  0  0  0  0  0  0  0
  -24.6300  -11.8070   20.7000 C   0  0  0  0  0  0  0  0  0  0  0  0
  -26.2440  -13.0660   20.0650 N   0  0  0  0  0  0  0  0  0  0  0  0
  -25.9040  -11.7760   20.3230 N   0  0  0  0  0  0  0  0  0  0  0  0
  -23.9030  -10.5440   20.8950 C   0  0  0  0  0  0  0  0  0  0  0  0
  -24.3660   -9.5540   21.7890 C   0  0  0  0  0  3  0  0  0  0  0  0
  -23.6380   -8.3580   21.9740 C   0  0  0  0  0  3  0  0  0  0  0  0
  -22.4330   -8.1430   21.2630 C   0  0  0  0  0  0  0  0  0  0  0  0
  -21.9880   -9.1230   20.3580 C   0  0  0  0  0  3  0  0  0  0  0  0
  -22.7170  -10.3090   20.1710 C   0  0  0  0  0  3  0  0  0  0  0  0
  -21.6710   -7.0030   21.3610 O   0  0  0  0  0  0  0  0  0  0  0  0
  -21.6670   -6.2360   22.5000 C   0  0  0  0  0  0  0  0  0  0  0  0
  -21.2880   -6.7650   23.7530 C   0  0  0  0  0  3  0  0  0  0  0  0
  -21.2270   -5.9250   24.8820 C   0  0  0  0  0  3  0  0  0  0  0  0
  -21.5380   -4.5580   24.7620 C   0  0  0  0  0  0  0  0  0  0  0  0
  -21.9100   -4.0280   23.5140 C   0  0  0  0  0  3  0  0  0  0  0  0
  -21.9710   -4.8640   22.3870 C   0  0  0  0  0  0  0  0  0  0  0  0
  -22.3110   -4.3440   21.1820 F   0  0  0  0  0  0  0  0  0  0  0  0
  -21.4720   -3.7500   25.8450 F   0  0  0  0  0  0  0  0  0  0  0  0
  -22.7950  -13.6370   21.1420 C   0  0  0  0  0  0  0  0  0  0  0  0
  -22.1050  -12.9240   22.0240 N   0  0  0  0  0  0  0  0  0  0  0  0
  -22.3420  -14.6780   20.6690 O   0  0  0  0  0  0  0  0  0  0  0  0
  -22.4850  -12.0830   22.4310 H   0  0  0  0  0  0  0  0  0  0  0  0
  -21.1800  -13.2250   22.3000 H   0  0  0  0  0  0  0  0  0  0  0  0
  -25.3770  -15.3140   20.2390 N   0  0  0  0  0  0  0  0  0  0  0  0
  -24.6150  -15.9590   20.4180 H   0  0  0  0  0  0  0  0  0  0  0  0
  -26.1970  -15.7690   19.8610 H   0  0  0  0  0  0  0  0  0  0  0  0
  -28.6920  -23.1610   19.6580 C   0  0  0  0  0  0  0  0  0  0  0  0
  -28.0180  -21.8290   21.5860 C   0  0  0  0  0  1  0  0  0  0  0  0
  -28.7610  -21.8590   20.3210 N   0  0  0  0  0  0  0  0  0  0  0  0
  -29.1910  -23.2830   18.5360 O   0  0  0  0  0  0  0  0  0  0  0  0
  -27.8840  -24.5590   20.1900 C   0  0  0  0  0  2  0  0  0  0  0  0
  -28.1000  -26.0410   19.6640 O   0  0  0  0  0  0  0  0  0  0  0  0
  -24.6300  -31.7190   23.0060 C   0  0  0  0  0  0  0  0  0  0  0  0
  -27.0640  -27.0620   19.7300 C   0  0  0  0  0  0  0  0  0  0  0  0
  -23.3670  -30.3980   21.3520 C   0  0  0  0  0  3  0  0  0  0  0  0
  -24.7570  -28.8590   19.8270 C   0  0  0  0  0  0  0  0  0  0  0  0
  -25.9190  -30.6380   21.1200 C   0  0  0  0  0  2  0  0  0  0  0  0
  -25.9610  -29.2640   20.4180 C   0  0  0  0  0  0  0  0  0  0  0  0
  -27.1160  -28.3850   20.3490 C   0  0  0  0  0  3  0  0  0  0  0  0
  -25.8340  -26.7760   19.1000 C   0  0  0  0  0  3  0  0  0  0  0  0
  -24.7110  -27.6310   19.1480 C   0  0  0  0  0  3  0  0  0  0  0  0
  -23.5420  -29.7680   19.9430 C   0  0  0  0  0  2  0  0  0  0  0  0
  -24.6610  -30.9410   21.8790 N   0  0  0  0  0  0  0  0  0  0  0  0
  -23.5610  -31.9900   23.5780 O   0  0  0  0  0  0  0  0  0  0  0  0
  -22.7090  -29.3610   22.2980 C   0  0  0  0  0  0  0  0  0  0  0  0
  -21.3750  -29.2100   22.2140 N   0  0  0  0  0  0  0  0  0  0  0  0
  -23.4020  -28.6950   23.0720 O   0  0  0  0  0  0  0  0  0  0  0  0
  -20.8700  -29.8000   21.5670 H   0  0  0  0  0  0  0  0  0  0  0  0
  -18.0010  -28.0190   22.7920 C   0  0  0  0  0  0  0  0  0  0  0  0
  -20.5710  -28.2490   22.9770 C   0  0  0  0  0  3  0  0  0  0  0  0
  -20.6390  -26.8400   22.3430 C   0  0  0  0  0  2  0  0  0  0  0  0
  -19.4980  -26.5690   21.3580 C   0  0  0  0  0  2  0  0  0  0  0  0
  -18.1400  -26.6980   22.0550 C   0  0  0  0  0  2  0  0  0  0  0  0
  -19.1410  -28.7550   23.2120 C   0  0  0  0  0  0  0  0  0  0  0  0
  -18.9520  -29.9910   23.8650 C   0  0  0  0  0  3  0  0  0  0  0  0
  -17.6580  -30.4920   24.1010 C   0  0  0  0  0  3  0  0  0  0  0  0
  -16.5330  -29.7540   23.6940 C   0  0  0  0  0  3  0  0  0  0  0  0
  -16.7070  -28.5180   23.0450 C   0  0  0  0  0  3  0  0  0  0  0  0
  -25.9300  -32.3220   23.6170 C   0  0  0  0  0  3  0  0  0  0  0  0
  -26.4840  -31.4900   24.8390 C   0  0  1  0  0  0  0  0  0  0  0  0
  -25.4290  -31.2110   25.9340 C   0  0  0  0  0  1  0  0  0  0  0  0
  -27.0410  -30.1260   24.3670 C   0  0  0  0  0  1  0  0  0  0  0  0
  -27.6660  -32.2430   25.4930 C   0  0  0  0  0  1  0  0  0  0  0  0
  -25.6340  -33.7030   24.0330 N   0  0  0  0  0  0  0  0  0  0  0  0
  -25.9540  -34.7980   23.3320 C   0  0  0  0  0  0  0  0  0  0  0  0
  -26.5980  -34.7530   22.2810 O   0  0  0  0  0  0  0  0  0  0  0  0
  -25.0600  -33.8120   24.8560 H   0  0  0  0  0  0  0  0  0  0  0  0
  -24.2330  -36.6250   23.1350 C   0  0  0  0  0  1  0  0  0  0  0  0
  -25.4910  -36.1620   23.8860 C   0  0  0  0  0  3  0  0  0  0  0  0
  -27.6520  -36.9870   24.7130 C   0  0  0  0  0  1  0  0  0  0  0  0
  -26.5290  -37.2140   23.8060 N   0  0  0  0  0  0  0  0  0  0  0  0
  -26.1330  -38.1250   24.0150 H   0  0  0  0  0  0  0  0  0  0  0  0
  -33.0410  -19.4360   17.2120 C   0  0  0  0  0  1  0  0  0  0  0  0
  -33.8750  -20.7690   19.1570 C   0  0  0  0  0  1  0  0  0  0  0  0
  -33.0020  -19.7180   18.6430 N   0  0  0  0  0  0  0  0  0  0  0  0
  1  3  1  0
  2  1  2  0
  2  5  1  0
  3 17  1  0
  3  6  2  0
  4  6  1  0
  4 49  1  0
  5  4  2  0
  6  8  1  0
  7  5  1  0
  9 17  1  0
 10 15  1  0
 11 12  1  0
 11 10  1  0
 13 12  1  0
 13 22  1  0
 13 14  1  0
 15  9  1  0
 15 14  1  0
 16  9  2  0
 17 18  1  0
 19 20  2  0
 20 39  1  0
 21 20  1  0
 21 24  1  0
 22 23  1  0
 22 19  1  0
 23 21  2  0
 24 25  1  0
 25 26  2  0
 27 30  1  0
 27 26  1  0
 28 27  2  0
 29 28  1  0
 29 24  2  0
 30 31  1  0
 31 32  1  0
 32 33  2  0
 34 33  1  0
 34 38  1  0
 35 34  2  0
 36 31  2  0
 36 35  1  0
 37 36  1  0
 39 40  1  0
 40 43  1  0
 40 42  1  0
 41 39  2  0
 44 19  1  0
 44 45  1  0
 46 44  1  0
 47 51  1  0
 47 49  1  0
 49 48  1  0
 50 47  2  0
 52 54  1  0
 52 51  1  0
 53 64  2  0
 54 59  1  0
 55 63  1  0
 55 65  1  0
 56 62  1  0
 56 58  1  0
 57 63  1  0
 58 57  1  0
 59 58  2  0
 60 61  1  0
 60 54  2  0
 61 56  2  0
 62 55  1  0
 63 53  1  0
 65 67  2  0
 66 65  1  0
 68 66  1  0
 69 78  2  0
 69 74  1  0
 70 66  1  0
 70 74  1  0
 71 70  1  0
 72 73  1  0
 72 71  1  0
 73 69  1  0
 74 75  2  0
 75 76  1  0
 77 76  2  0
 78 77  1  0
 79 53  1  0
 79 84  1  0
 79 80  1  0
 80 83  1  1
 80 81  1  0
 82 80  1  0
 84 87  1  0
 85 89  1  0
 85 84  1  0
 86 85  2  0
 89 88  1  0
 91 89  1  0
 91 92  1  0
 91 90  1  0
 93 95  1  0
 95 94  1  0
 95  2  1  0
M  ISO  4   9 100  17 100  51 101  52 101
M  END
>  <TORSDO>  (90) 
F 19

>  <SCORE>  (90) 
-14.270

>  <name>  (90) 
90

>  <ligand_id>  (90) 
90

>  <original_smiles>  (90) 
[H]c1c([H])c([H])c2c(c1[H])C([H])([H])C([H])([H])C([H])([H])C2([H])N([H])C(=O)C1([H])N(C(=O)C([H])(N([H])C(=O)C([H])(N([H])C([H])([H])[H])C([H])([H])[H])C(C([H])([H])[H])(C([H])([H])[H])C([H])([H])[H])C([H])([H])c2c([H])c(OC([H])([H])C(=O)N(c3c(F)c(N(C([H])([H])[H])C([H])([H])[H])c([H])c(N([H])C(=O)N4C([H])([H])C([H])([H])C([H])([H])C([H])(n5nc(-c6c([H])c([H])c(Oc7c([H])c([H])c(F)c([H])c7F)c([H])c6[H])c(C(=O)N([H])[H])c5N([H])[H])C4([H])[H])c3Cl)C([H])([H])[H])c([H])c([H])c2C1([H])[H]

>  <smiles>  (90) 
[H]c1c([H])c([H])c2c(c1[H])C([H])([H])C([H])([H])C([H])([H])C2([H])N([H])C(=O)C1([H])N(C(=O)C([H])(N([H])C(=O)C([H])(N([H])C([H])([H])[H])C([H])([H])[H])C(C([H])([H])[H])(C([H])([H])[H])C([H])([H])[H])C([H])([H])c2c([H])c(OC([H])([H])C(=O)N(c3c(F)c(N(C([H])([H])[H])C([H])([H])[H])c([H])c(N([H])C(=O)N4C([H])([H])C([H])([H])C([H])([H])C([H])(n5nc(-c6c([H])c([H])c(Oc7c([H])c([H])c(F)c([H])c7F)c([H])c6[H])c(C(=O)N([H])[H])c5N([H])[H])C4([H])[H])c3Cl)C([H])([H])[H])c([H])c([H])c2C1([H])[H]

$$$$
91:0:0
     RDKit          3D

 94102  0  0  1  0  0  0  0  0999 V2000
  -30.5890  -20.0080   18.9570 C   0  0  0  0  0  3  0  0  0  0  0  0
  -29.7050  -19.8170   20.0380 C   0  0  0  0  0  0  0  0  0  0  0  0
  -30.1590  -17.2900   19.8500 C   0  0  0  0  0  0  0  0  0  0  0  0
  -31.1880  -18.9170   18.3010 C   0  0  0  0  0  0  0  0  0  0  0  0
  -29.5180  -18.4380   20.4790 C   0  0  0  0  0  0  0  0  0  0  0  0
  -30.9630  -17.5870   18.7160 C   0  0  0  0  0  0  0  0  0  0  0  0
  -31.9860  -19.1540   17.2320 F   0  0  0  0  0  0  0  0  0  0  0  0
  -28.6990  -18.2060   21.5310 F   0  0  0  0  0  0  0  0  0  0  0  0
  -31.5030  -16.6020   17.9580 F   0  0  0  0  0  0  0  0  0  0  0  0
  -30.6670  -14.7240   20.0080 C   0  0  0  0  0  0  0  0  0  0  0  0
  -30.3650  -12.4920   18.9470 C   0  0  0  0  0  2  0  0  0  0  0  0
  -29.3680  -12.6340   17.7770 C   0  0  0  0  0  2  0  0  0  0  0  0
  -27.9190  -12.4710   18.2770 C   0  0  0  0  0  2  0  0  0  0  0  0
  -27.6260  -13.3140   19.5470 C   0  0  0  0  0  3  0  0  0  0  0  0
  -28.7400  -13.1710   20.6060 C   0  0  0  0  0  2  0  0  0  0  0  0
  -30.0110  -13.5160   19.9560 N   0  0  0  0  0  0  0  0  0  0  0  0
  -31.8530  -14.7790   19.6710 O   0  0  0  0  0  0  0  0  0  0  0  0
  -29.9370  -15.8750   20.2750 N   0  0  0  0  0  0  0  0  0  0  0  0
  -29.0550  -15.7140   20.7340 H   0  0  0  0  0  0  0  0  0  0  0  0
  -25.2790  -13.9020   20.3970 C   0  0  0  0  0  0  0  0  0  0  0  0
  -24.2280  -13.1270   20.8060 C   0  0  0  0  0  0  0  0  0  0  0  0
  -24.6830  -11.7750   20.7320 C   0  0  0  0  0  0  0  0  0  0  0  0
  -26.3060  -13.0230   20.0980 N   0  0  0  0  0  0  0  0  0  0  0  0
  -25.9570  -11.7370   20.3620 N   0  0  0  0  0  0  0  0  0  0  0  0
  -23.9580  -10.5130   20.9360 C   0  0  0  0  0  0  0  0  0  0  0  0
  -24.4030   -9.5480   21.8680 C   0  0  0  0  0  3  0  0  0  0  0  0
  -23.6790   -8.3520   22.0600 C   0  0  0  0  0  3  0  0  0  0  0  0
  -22.4960   -8.1110   21.3210 C   0  0  0  0  0  0  0  0  0  0  0  0
  -22.0700   -9.0640   20.3800 C   0  0  0  0  0  3  0  0  0  0  0  0
  -22.7950  -10.2520   20.1850 C   0  0  0  0  0  3  0  0  0  0  0  0
  -21.7420   -6.9670   21.4240 O   0  0  0  0  0  0  0  0  0  0  0  0
  -21.6830   -6.2450   22.5890 C   0  0  0  0  0  0  0  0  0  0  0  0
  -21.2050   -6.8100   23.7920 C   0  0  0  0  0  3  0  0  0  0  0  0
  -21.0970   -6.0130   24.9490 C   0  0  0  0  0  3  0  0  0  0  0  0
  -21.4560   -4.6520   24.9040 C   0  0  0  0  0  0  0  0  0  0  0  0
  -21.9250   -4.0880   23.7050 C   0  0  0  0  0  3  0  0  0  0  0  0
  -22.0360   -4.8810   22.5510 C   0  0  0  0  0  0  0  0  0  0  0  0
  -22.4700   -4.3270   21.3930 F   0  0  0  0  0  0  0  0  0  0  0  0
  -21.3430   -3.8850   26.0130 F   0  0  0  0  0  0  0  0  0  0  0  0
  -22.8470  -13.6060   21.1490 C   0  0  0  0  0  0  0  0  0  0  0  0
  -22.1530  -12.8950   22.0290 N   0  0  0  0  0  0  0  0  0  0  0  0
  -22.3950  -14.6470   20.6710 O   0  0  0  0  0  0  0  0  0  0  0  0
  -22.5340  -12.0540   22.4370 H   0  0  0  0  0  0  0  0  0  0  0  0
  -21.2280  -13.1960   22.3010 H   0  0  0  0  0  0  0  0  0  0  0  0
  -25.4410  -15.2740   20.2310 N   0  0  0  0  0  0  0  0  0  0  0  0
  -24.6830  -15.9300   20.3870 H   0  0  0  0  0  0  0  0  0  0  0  0
  -26.2700  -15.7140   19.8530 H   0  0  0  0  0  0  0  0  0  0  0  0
  -29.0390  -21.1040   20.7130 C   0  0  0  0  0  2  0  0  0  0  0  0
  -28.7720  -23.7140   20.5070 C   0  0  0  0  0  0  0  0  0  0  0  0
  -28.2810  -22.2380   18.5910 C   0  0  0  0  0  1  0  0  0  0  0  0
  -28.7760  -22.4230   19.9610 N   0  0  0  0  0  0  0  0  0  0  0  0
  -29.0640  -23.8850   21.6940 O   0  0  0  0  0  0  0  0  0  0  0  0
  -28.4020  -25.0170   19.6380 C   0  0  0  0  0  2  0  0  0  0  0  0
  -28.3190  -26.3660   20.3130 O   0  0  0  0  0  0  0  0  0  0  0  0
  -24.5510  -31.8430   23.2230 C   0  0  0  0  0  0  0  0  0  0  0  0
  -27.2040  -27.2360   20.2090 C   0  0  0  0  0  0  0  0  0  0  0  0
  -23.3800  -30.4530   21.5570 C   0  0  0  0  0  3  0  0  0  0  0  0
  -24.8530  -28.9020   20.1550 C   0  0  0  0  0  0  0  0  0  0  0  0
  -25.9290  -30.7480   21.4350 C   0  0  0  0  0  2  0  0  0  0  0  0
  -26.0140  -29.3680   20.7830 C   0  0  0  0  0  0  0  0  0  0  0  0
  -27.1870  -28.5470   20.8020 C   0  0  0  0  0  3  0  0  0  0  0  0
  -26.0100  -26.8390   19.5590 C   0  0  0  0  0  3  0  0  0  0  0  0
  -24.8570  -27.6450   19.5360 C   0  0  0  0  0  3  0  0  0  0  0  0
  -23.6220  -29.7840   20.1790 C   0  0  0  0  0  2  0  0  0  0  0  0
  -24.6380  -31.0340   22.1280 N   0  0  0  0  0  0  0  0  0  0  0  0
  -23.4560  -32.1250   23.7330 O   0  0  0  0  0  0  0  0  0  0  0  0
  -22.6920  -29.4350   22.5000 C   0  0  0  0  0  0  0  0  0  0  0  0
  -21.3670  -29.2630   22.3450 N   0  0  0  0  0  0  0  0  0  0  0  0
  -23.3500  -28.8050   23.3310 O   0  0  0  0  0  0  0  0  0  0  0  0
  -20.8970  -29.8230   21.6490 H   0  0  0  0  0  0  0  0  0  0  0  0
  -17.9730  -28.0870   22.7820 C   0  0  0  0  0  0  0  0  0  0  0  0
  -20.5290  -28.3280   23.0960 C   0  0  0  0  0  3  0  0  0  0  0  0
  -20.6300  -26.8990   22.5140 C   0  0  0  0  0  2  0  0  0  0  0  0
  -19.5430  -26.5890   21.4800 C   0  0  0  0  0  2  0  0  0  0  0  0
  -18.1520  -26.7410   22.1010 C   0  0  0  0  0  2  0  0  0  0  0  0
  -19.0900  -28.8390   23.2350 C   0  0  0  0  0  0  0  0  0  0  0  0
  -18.8700  -30.0990   23.8310 C   0  0  0  0  0  3  0  0  0  0  0  0
  -17.5660  -30.6080   23.9800 C   0  0  0  0  0  3  0  0  0  0  0  0
  -16.4630  -29.8530   23.5430 C   0  0  0  0  0  3  0  0  0  0  0  0
  -16.6680  -28.5940   22.9500 C   0  0  0  0  0  3  0  0  0  0  0  0
  -25.8200  -32.4720   23.8740 C   0  0  0  0  0  3  0  0  0  0  0  0
  -26.2930  -31.7110   25.1730 C   0  0  1  0  0  0  0  0  0  0  0  0
  -25.1670  -31.4880   26.2100 C   0  0  0  0  0  1  0  0  0  0  0  0
  -26.8820  -30.3270   24.8130 C   0  0  0  0  0  1  0  0  0  0  0  0
  -27.4270  -32.5050   25.8630 C   0  0  0  0  0  1  0  0  0  0  0  0
  -25.5110  -33.8770   24.1850 N   0  0  0  0  0  0  0  0  0  0  0  0
  -25.8610  -34.9210   23.4220 C   0  0  0  0  0  0  0  0  0  0  0  0
  -26.5460  -34.8030   22.4030 O   0  0  0  0  0  0  0  0  0  0  0  0
  -24.9050  -34.0410   24.9750 H   0  0  0  0  0  0  0  0  0  0  0  0
  -24.1540  -36.7240   23.0190 C   0  0  0  0  0  1  0  0  0  0  0  0
  -25.3750  -36.3170   23.8600 C   0  0  0  0  0  3  0  0  0  0  0  0
  -27.4910  -37.2000   24.7360 C   0  0  0  0  0  1  0  0  0  0  0  0
  -26.4170  -37.3610   23.7600 N   0  0  0  0  0  0  0  0  0  0  0  0
  -26.0140  -38.2860   23.8820 H   0  0  0  0  0  0  0  0  0  0  0  0
  1  2  1  0
  2  5  2  0
  2 48  1  0
  3 18  1  0
  3  5  1  0
  4  6  1  0
  4  1  2  0
  5  8  1  0
  6  3  2  0
  7  4  1  0
  9  6  1  0
 10 18  1  0
 11 16  1  0
 12 13  1  0
 12 11  1  0
 14 13  1  0
 14 23  1  0
 14 15  1  0
 16 10  1  0
 16 15  1  0
 17 10  2  0
 18 19  1  0
 20 21  2  0
 21 40  1  0
 22 21  1  0
 22 25  1  0
 23 24  1  0
 23 20  1  0
 24 22  2  0
 25 26  1  0
 26 27  2  0
 28 31  1  0
 28 27  1  0
 29 28  2  0
 30 29  1  0
 30 25  2  0
 31 32  1  0
 32 33  1  0
 33 34  2  0
 35 34  1  0
 35 39  1  0
 36 35  2  0
 37 32  2  0
 37 36  1  0
 38 37  1  0
 40 41  1  0
 41 44  1  0
 41 43  1  0
 42 40  2  0
 45 46  1  0
 45 20  1  0
 47 45  1  0
 49 52  2  0
 50 51  1  0
 51 49  1  0
 51 48  1  0
 53 54  1  0
 53 49  1  0
 55 66  2  0
 56 54  1  0
 56 61  1  0
 57 65  1  0
 57 67  1  0
 58 64  1  0
 58 60  1  0
 59 65  1  0
 60 61  2  0
 60 59  1  0
 62 56  2  0
 63 62  1  0
 63 58  2  0
 64 57  1  0
 65 55  1  0
 67 69  2  0
 68 67  1  0
 70 68  1  0
 71 80  2  0
 71 76  1  0
 72 68  1  0
 72 76  1  0
 73 72  1  0
 74 75  1  0
 74 73  1  0
 75 71  1  0
 76 77  2  0
 77 78  1  0
 79 78  2  0
 80 79  1  0
 81 55  1  0
 81 86  1  0
 81 82  1  0
 82 85  1  1
 82 83  1  0
 84 82  1  0
 86 89  1  0
 87 91  1  0
 87 86  1  0
 88 87  2  0
 91 90  1  0
 93 91  1  0
 93 94  1  0
 93 92  1  0
M  ISO  4  10 100  18 100  53 101  54 101
M  END
>  <TORSDO>  (91) 
F 19

>  <SCORE>  (91) 
-14.084

>  <name>  (91) 
91

>  <ligand_id>  (91) 
91

>  <original_smiles>  (91) 
[H]c1c([H])c([H])c2c(c1[H])C([H])([H])C([H])([H])C([H])([H])C2([H])N([H])C(=O)C1([H])N(C(=O)C([H])(N([H])C(=O)C([H])(N([H])C([H])([H])[H])C([H])([H])[H])C(C([H])([H])[H])(C([H])([H])[H])C([H])([H])[H])C([H])([H])c2c([H])c(OC([H])([H])C(=O)N(C([H])([H])[H])C([H])([H])c3c([H])c(F)c(F)c(N([H])C(=O)N4C([H])([H])C([H])([H])C([H])([H])C([H])(n5nc(-c6c([H])c([H])c(Oc7c([H])c([H])c(F)c([H])c7F)c([H])c6[H])c(C(=O)N([H])[H])c5N([H])[H])C4([H])[H])c3F)c([H])c([H])c2C1([H])[H]

>  <smiles>  (91) 
[H]c1c([H])c([H])c2c(c1[H])C([H])([H])C([H])([H])C([H])([H])C2([H])N([H])C(=O)C1([H])N(C(=O)C([H])(N([H])C(=O)C([H])(N([H])C([H])([H])[H])C([H])([H])[H])C(C([H])([H])[H])(C([H])([H])[H])C([H])([H])[H])C([H])([H])c2c([H])c(OC([H])([H])C(=O)N(C([H])([H])[H])C([H])([H])c3c([H])c(F)c(F)c(N([H])C(=O)N4C([H])([H])C([H])([H])C([H])([H])C([H])(n5nc(-c6c([H])c([H])c(Oc7c([H])c([H])c(F)c([H])c7F)c([H])c6[H])c(C(=O)N([H])[H])c5N([H])[H])C4([H])[H])c3F)c([H])c([H])c2C1([H])[H]

$$$$
92:0:0
     RDKit          3D

102110  0  0  1  0  0  0  0  0999 V2000
  -30.1480  -19.3960   20.5240 C   0  0  0  0  0  3  0  0  0  0  0  0
  -32.3540  -17.6970   20.7930 C   0  0  0  0  0  3  0  0  0  0  0  0
  -31.4100  -20.0160   20.6990 C   0  0  0  0  0  0  0  0  0  0  0  0
  -29.9830  -17.9730   20.4790 C   0  0  0  0  0  0  0  0  0  0  0  0
  -31.0860  -17.0800   20.6300 C   0  0  0  0  0  0  0  0  0  0  0  0
  -32.5160  -19.1180   20.8270 C   0  0  0  0  0  0  0  0  0  0  0  0
  -34.1180  -19.7220   21.0580 Cl  0  0  0  0  0  0  0  0  0  0  0  0
  -31.4480  -14.6280   19.8260 C   0  0  0  0  0  0  0  0  0  0  0  0
  -30.9240  -12.6280   18.4370 C   0  0  0  0  0  2  0  0  0  0  0  0
  -29.8690  -13.0280   17.3800 C   0  0  0  0  0  2  0  0  0  0  0  0
  -28.4440  -12.8880   17.9500 C   0  0  0  0  0  2  0  0  0  0  0  0
  -28.2950  -13.5410   19.3490 C   0  0  0  0  0  3  0  0  0  0  0  0
  -29.4500  -13.1300   20.2900 C   0  0  0  0  0  2  0  0  0  0  0  0
  -30.7180  -13.4810   19.6280 N   0  0  0  0  0  0  0  0  0  0  0  0
  -32.5440  -14.7800   19.2810 O   0  0  0  0  0  0  0  0  0  0  0  0
  -30.8540  -15.6290   20.5490 N   0  0  0  0  0  0  0  0  0  0  0  0
  -30.0700  -15.3280   21.1100 H   0  0  0  0  0  0  0  0  0  0  0  0
  -25.9820  -14.1520   20.2880 C   0  0  0  0  0  0  0  0  0  0  0  0
  -24.9360  -13.3900   20.7280 C   0  0  0  0  0  0  0  0  0  0  0  0
  -25.3580  -12.0330   20.5960 C   0  0  0  0  0  0  0  0  0  0  0  0
  -26.9850  -13.2640   19.9350 N   0  0  0  0  0  0  0  0  0  0  0  0
  -26.6160  -11.9790   20.1750 N   0  0  0  0  0  0  0  0  0  0  0  0
  -24.6140  -10.7820   20.7890 C   0  0  0  0  0  0  0  0  0  0  0  0
  -25.0270   -9.8170   21.7350 C   0  0  0  0  0  3  0  0  0  0  0  0
  -24.2840   -8.6300   21.9160 C   0  0  0  0  0  3  0  0  0  0  0  0
  -23.1160   -8.4000   21.1510 C   0  0  0  0  0  0  0  0  0  0  0  0
  -22.7240   -9.3530   20.1940 C   0  0  0  0  0  3  0  0  0  0  0  0
  -23.4670  -10.5320   20.0120 C   0  0  0  0  0  3  0  0  0  0  0  0
  -22.3470   -7.2660   21.2410 O   0  0  0  0  0  0  0  0  0  0  0  0
  -22.0770   -6.6740   22.4500 C   0  0  0  0  0  0  0  0  0  0  0  0
  -21.4590   -7.3820   23.5040 C   0  0  0  0  0  3  0  0  0  0  0  0
  -21.1360   -6.7180   24.7040 C   0  0  0  0  0  3  0  0  0  0  0  0
  -21.4200   -5.3460   24.8490 C   0  0  0  0  0  0  0  0  0  0  0  0
  -22.0300   -4.6380   23.7980 C   0  0  0  0  0  3  0  0  0  0  0  0
  -22.3540   -5.3010   22.6000 C   0  0  0  0  0  0  0  0  0  0  0  0
  -22.9220   -4.6100   21.5840 F   0  0  0  0  0  0  0  0  0  0  0  0
  -21.1030   -4.7050   25.9980 F   0  0  0  0  0  0  0  0  0  0  0  0
  -23.5830  -13.8900   21.1440 C   0  0  0  0  0  0  0  0  0  0  0  0
  -22.9320  -13.1960   22.0710 N   0  0  0  0  0  0  0  0  0  0  0  0
  -23.1160  -14.9310   20.6820 O   0  0  0  0  0  0  0  0  0  0  0  0
  -23.3240  -12.3540   22.4660 H   0  0  0  0  0  0  0  0  0  0  0  0
  -22.0280  -13.5120   22.3920 H   0  0  0  0  0  0  0  0  0  0  0  0
  -26.1480  -15.5210   20.1270 N   0  0  0  0  0  0  0  0  0  0  0  0
  -25.3610  -16.1470   20.2410 H   0  0  0  0  0  0  0  0  0  0  0  0
  -26.9110  -15.9250   19.6010 H   0  0  0  0  0  0  0  0  0  0  0  0
  -27.7390  -17.7150   21.3520 C   0  0  0  0  0  1  0  0  0  0  0  0
  -28.7030  -17.4290   20.2940 N   0  0  0  0  0  0  0  0  0  0  0  0
  -28.2510  -17.3790   18.9060 C   0  0  0  0  0  2  0  0  0  0  0  0
  -28.7930  -18.5240   18.0290 C   0  0  0  0  0  2  0  0  0  0  0  0
  -29.3460  -18.0130   16.6880 C   0  0  0  0  0  2  0  0  0  0  0  0
  -30.2350  -19.0320   15.9430 C   0  0  0  0  0  2  0  0  0  0  0  0
  -32.2520  -18.7530   17.3750 C   0  0  0  0  0  1  0  0  0  0  0  0
  -31.9180  -20.8200   16.1040 C   0  0  0  0  0  1  0  0  0  0  0  0
  -31.2580  -19.6910   16.8000 N   0  0  1  0  0  4  0  0  0  0  0  0
  -30.7670  -20.1060   17.5760 H   0  0  0  0  0  0  0  0  0  0  0  0
  -31.5370  -21.5740   20.9490 C   0  0  0  0  0  2  0  0  0  0  0  0
  -30.6110  -23.9390   20.6320 C   0  0  0  0  0  0  0  0  0  0  0  0
  -30.6340  -22.5990   20.3150 N   0  0  0  0  0  0  0  0  0  0  0  0
  -31.3110  -24.3750   21.5490 O   0  0  0  0  0  0  0  0  0  0  0  0
  -30.0500  -22.2890   19.5510 H   0  0  0  0  0  0  0  0  0  0  0  0
  -29.7110  -24.9560   19.8240 C   0  0  0  0  0  2  0  0  0  0  0  0
  -29.6700  -26.3580   20.3230 O   0  0  0  0  0  0  0  0  0  0  0  0
  -24.9610  -31.0950   23.0660 C   0  0  0  0  0  0  0  0  0  0  0  0
  -28.4730  -27.0780   20.1560 C   0  0  0  0  0  0  0  0  0  0  0  0
  -24.1560  -29.6950   21.1980 C   0  0  0  0  0  3  0  0  0  0  0  0
  -25.9540  -28.4190   19.9040 C   0  0  0  0  0  0  0  0  0  0  0  0
  -26.6420  -30.3010   21.3890 C   0  0  0  0  0  2  0  0  0  0  0  0
  -26.9680  -28.9890   20.6840 C   0  0  0  0  0  0  0  0  0  0  0  0
  -28.2300  -28.3320   20.8000 C   0  0  0  0  0  3  0  0  0  0  0  0
  -27.4300  -26.5630   19.3510 C   0  0  0  0  0  3  0  0  0  0  0  0
  -26.1880  -27.2120   19.2290 C   0  0  0  0  0  3  0  0  0  0  0  0
  -24.6270  -29.1480   19.8260 C   0  0  0  0  0  2  0  0  0  0  0  0
  -25.2620  -30.3790   21.9440 N   0  0  0  0  0  0  0  0  0  0  0  0
  -23.7910  -31.2140   23.4580 O   0  0  0  0  0  0  0  0  0  0  0  0
  -23.4960  -28.5460   21.9970 C   0  0  0  0  0  0  0  0  0  0  0  0
  -22.1940  -28.3110   21.7560 N   0  0  0  0  0  0  0  0  0  0  0  0
  -24.1560  -27.8750   22.7950 O   0  0  0  0  0  0  0  0  0  0  0  0
  -21.7190  -28.9090   21.0950 H   0  0  0  0  0  0  0  0  0  0  0  0
  -18.8310  -27.0100   22.0390 C   0  0  0  0  0  0  0  0  0  0  0  0
  -21.3840  -27.2550   22.3660 C   0  0  0  0  0  3  0  0  0  0  0  0
  -21.5090  -25.9310   21.5760 C   0  0  0  0  0  2  0  0  0  0  0  0
  -20.4170  -25.7570   20.5150 C   0  0  0  0  0  2  0  0  0  0  0  0
  -19.0300  -25.7850   21.1620 C   0  0  0  0  0  2  0  0  0  0  0  0
  -19.9370  -27.7090   22.5910 C   0  0  0  0  0  0  0  0  0  0  0  0
  -19.6980  -28.8620   23.3710 C   0  0  0  0  0  3  0  0  0  0  0  0
  -18.3850  -29.3130   23.6030 C   0  0  0  0  0  3  0  0  0  0  0  0
  -17.2940  -28.6090   23.0660 C   0  0  0  0  0  3  0  0  0  0  0  0
  -17.5180  -27.4580   22.2900 C   0  0  0  0  0  3  0  0  0  0  0  0
  -26.0670  -31.8160   23.8950 C   0  0  0  0  0  3  0  0  0  0  0  0
  -26.4050  -31.0810   25.2500 C   0  0  1  0  0  0  0  0  0  0  0  0
  -25.1630  -30.7700   26.1160 C   0  0  0  0  0  1  0  0  0  0  0  0
  -27.1360  -29.7450   24.9800 C   0  0  0  0  0  1  0  0  0  0  0  0
  -27.3690  -31.9500   26.0910 C   0  0  0  0  0  1  0  0  0  0  0  0
  -25.6060  -33.1870   24.1520 N   0  0  0  0  0  0  0  0  0  0  0  0
  -25.9670  -34.2600   23.4360 C   0  0  0  0  0  0  0  0  0  0  0  0
  -26.7870  -34.2040   22.5160 O   0  0  0  0  0  0  0  0  0  0  0  0
  -24.8900  -33.2990   24.8550 H   0  0  0  0  0  0  0  0  0  0  0  0
  -24.1650  -35.9010   22.8140 C   0  0  0  0  0  1  0  0  0  0  0  0
  -25.3110  -35.6080   23.7940 C   0  0  0  0  0  3  0  0  0  0  0  0
  -27.2340  -36.6740   24.8900 C   0  0  0  0  0  1  0  0  0  0  0  0
  -26.2620  -36.7420   23.8010 N   0  0  0  0  0  0  0  0  0  0  0  0
  -25.7670  -37.6270   23.8710 H   0  0  0  0  0  0  0  0  0  0  0  0
  1  3  1  0
  2  6  1  0
  3  6  2  0
  3 56  1  0
  4  1  2  0
  4  5  1  0
  5  2  2  0
  6  7  1  0
  8 16  1  0
  9 14  1  0
 10 11  1  0
 10  9  1  0
 12 11  1  0
 12 21  1  0
 12 13  1  0
 14  8  1  0
 14 13  1  0
 15  8  2  0
 16  5  1  0
 16 17  1  0
 18 19  2  0
 19 38  1  0
 20 19  1  0
 20 23  1  0
 21 22  1  0
 21 18  1  0
 22 20  2  0
 23 24  1  0
 24 25  2  0
 26 29  1  0
 26 25  1  0
 27 26  2  0
 28 27  1  0
 28 23  2  0
 29 30  1  0
 30 35  2  0
 30 31  1  0
 31 32  2  0
 32 33  1  0
 33 37  1  0
 34 33  2  0
 35 34  1  0
 36 35  1  0
 38 39  1  0
 39 42  1  0
 39 41  1  0
 40 38  2  0
 43 44  1  0
 43 18  1  0
 45 43  1  0
 47  4  1  0
 47 46  1  0
 48 47  1  0
 49 48  1  0
 50 49  1  0
 51 50  1  0
 51 54  1  0
 53 54  1  0
 54 52  1  0
 54 55  1  1
 57 59  2  0
 58 57  1  0
 58 56  1  0
 60 58  1  0
 61 62  1  0
 61 57  1  0
 63 74  2  0
 64 62  1  0
 64 69  1  0
 65 73  1  0
 65 75  1  0
 66 68  1  0
 67 73  1  0
 68 69  2  0
 68 67  1  0
 70 64  2  0
 71 70  1  0
 71 66  2  0
 72 66  1  0
 72 65  1  0
 73 63  1  0
 75 77  2  0
 76 75  1  0
 78 76  1  0
 79 88  2  0
 79 84  1  0
 80 76  1  0
 80 84  1  0
 81 80  1  0
 82 83  1  0
 82 81  1  0
 83 79  1  0
 84 85  2  0
 85 86  1  0
 87 86  2  0
 88 87  1  0
 89 63  1  0
 89 94  1  0
 89 90  1  0
 90 93  1  1
 90 91  1  0
 92 90  1  0
 94 97  1  0
 95 99  1  0
 95 94  1  0
 96 95  2  0
 99 98  1  0
 99101  1  0
101102  1  0
101100  1  0
M  ISO  4   8 100  16 100  61 101  62 101
M  END
>  <TORSDO>  (92) 
F 25

>  <SCORE>  (92) 
-7.787

>  <name>  (92) 
92

>  <ligand_id>  (92) 
92

>  <original_smiles>  (92) 
[H]c1c([H])c([H])c2c(c1[H])C([H])([H])C([H])([H])C([H])([H])C2([H])N([H])C(=O)C1([H])N(C(=O)C([H])(N([H])C(=O)C([H])(N([H])C([H])([H])[H])C([H])([H])[H])C(C([H])([H])[H])(C([H])([H])[H])C([H])([H])[H])C([H])([H])c2c([H])c(OC([H])([H])C(=O)N([H])C([H])([H])c3c([H])c(N(C([H])([H])[H])C([H])([H])C([H])([H])C([H])([H])C([H])([H])[N+]([H])(C([H])([H])[H])C([H])([H])[H])c(N([H])C(=O)N4C([H])([H])C([H])([H])C([H])([H])C([H])(n5nc(-c6c([H])c([H])c(Oc7c([H])c([H])c(F)c([H])c7F)c([H])c6[H])c(C(=O)N([H])[H])c5N([H])[H])C4([H])[H])c([H])c3Cl)c([H])c([H])c2C1([H])[H]

>  <smiles>  (92) 
[H]c1c([H])c([H])c2c(c1[H])C([H])([H])C([H])([H])C([H])([H])C2([H])N([H])C(=O)C1([H])N(C(=O)C([H])(N([H])C(=O)C([H])(N([H])C([H])([H])[H])C([H])([H])[H])C(C([H])([H])[H])(C([H])([H])[H])C([H])([H])[H])C([H])([H])c2c([H])c(OC([H])([H])C(=O)N([H])C([H])([H])c3c([H])c(N(C([H])([H])[H])C([H])([H])C([H])([H])C([H])([H])C([H])([H])[N+]([H])(C([H])([H])[H])C([H])([H])[H])c(N([H])C(=O)N4C([H])([H])C([H])([H])C([H])([H])C([H])(n5nc(-c6c([H])c([H])c(Oc7c([H])c([H])c(F)c([H])c7F)c([H])c6[H])c(C(=O)N([H])[H])c5N([H])[H])C4([H])[H])c([H])c3Cl)c([H])c([H])c2C1([H])[H]

$$$$
93:0:0
     RDKit          3D

 82 86  0  0  1  0  0  0  0  0999 V2000
  -28.2050  -25.2050   20.1810 O   0  0  0  0  0  1  0  0  0  0  0  0
  -24.6630  -31.8080   23.1260 C   0  0  0  0  0  0  0  0  0  0  0  0
  -27.2220  -26.5040   20.2220 C   0  0  0  0  0  0  0  0  0  0  0  0
  -23.4970  -30.3850   21.5020 C   0  0  0  0  0  3  0  0  0  0  0  0
  -24.9590  -28.6800   20.1340 C   0  0  0  0  0  0  0  0  0  0  0  0
  -26.0880  -30.4680   21.4190 C   0  0  0  0  0  2  0  0  0  0  0  0
  -26.1600  -29.0030   20.7770 C   0  0  0  0  0  0  0  0  0  0  0  0
  -27.2650  -27.9550   20.7750 C   0  0  0  0  0  3  0  0  0  0  0  0
  -25.9780  -26.4560   19.5220 C   0  0  0  0  0  3  0  0  0  0  0  0
  -24.9220  -27.4330   19.4830 C   0  0  0  0  0  3  0  0  0  0  0  0
  -23.7610  -29.6570   20.1490 C   0  0  0  0  0  2  0  0  0  0  0  0
  -24.7760  -30.9260   22.0670 N   0  0  0  0  0  0  0  0  0  0  0  0
  -23.5610  -32.1170   23.6170 O   0  0  0  0  0  0  0  0  0  0  0  0
  -22.7590  -29.4350   22.4830 C   0  0  0  0  0  0  0  0  0  0  0  0
  -21.4230  -29.2990   22.3640 N   0  0  0  0  0  0  0  0  0  0  0  0
  -23.4070  -28.8130   23.3290 O   0  0  0  0  0  0  0  0  0  0  0  0
  -20.9470  -29.8480   21.6620 H   0  0  0  0  0  0  0  0  0  0  0  0
  -18.0300  -28.1040   22.9050 C   0  0  0  0  0  0  0  0  0  0  0  0
  -20.5940  -28.3680   23.1430 C   0  0  0  0  0  3  0  0  0  0  0  0
  -20.6850  -26.9330   22.5730 C   0  0  0  0  0  2  0  0  0  0  0  0
  -19.5770  -26.6140   21.5660 C   0  0  0  0  0  2  0  0  0  0  0  0
  -18.1990  -26.7580   22.2190 C   0  0  0  0  0  2  0  0  0  0  0  0
  -19.1530  -28.8670   23.3230 C   0  0  0  0  0  0  0  0  0  0  0  0
  -18.9380  -30.1230   23.9300 C   0  0  0  0  0  3  0  0  0  0  0  0
  -17.6340  -30.6180   24.1200 C   0  0  0  0  0  3  0  0  0  0  0  0
  -16.5260  -29.8540   23.7130 C   0  0  0  0  0  3  0  0  0  0  0  0
  -16.7250  -28.5990   23.1120 C   0  0  0  0  0  3  0  0  0  0  0  0
  -25.9100  -32.4810   23.7750 C   0  0  0  0  0  3  0  0  0  0  0  0
  -25.5650  -33.8790   24.1160 N   0  0  0  0  0  0  0  0  0  0  0  0
  -25.8860  -34.9580   23.3920 C   0  0  0  0  0  0  0  0  0  0  0  0
  -26.5550  -34.8840   22.3590 O   0  0  0  0  0  0  0  0  0  0  0  0
  -24.9630  -34.0060   24.9160 H   0  0  0  0  0  0  0  0  0  0  0  0
  -24.1370  -36.7510   23.1000 C   0  0  0  0  0  1  0  0  0  0  0  0
  -25.3920  -36.3360   23.8840 C   0  0  0  0  0  3  0  0  0  0  0  0
  -27.5270  -37.2420   24.7020 C   0  0  0  0  0  1  0  0  0  0  0  0
  -26.4110  -37.4050   23.7740 N   0  0  0  0  0  0  0  0  0  0  0  0
  -25.9940  -38.3170   23.9380 H   0  0  0  0  0  0  0  0  0  0  0  0
  -26.4070  -31.7320   25.0750 C   0  0  1  0  0  0  0  0  0  0  0  0
  -25.2940  -31.5040   26.1250 C   0  0  0  0  0  1  0  0  0  0  0  0
  -27.0060  -30.3500   24.7310 C   0  0  0  0  0  1  0  0  0  0  0  0
  -27.5440  -32.5410   25.7410 C   0  0  0  0  0  1  0  0  0  0  0  0
  -28.2600  -23.3270   20.4490 C   0  0  0  0  0 15  0  0  0  0  0  0
  -28.8130  -21.3740   19.8690 C   0  0  0  0  0 15  0  0  0  0  0  0
  -29.3900  -19.4240   20.4190 C   0  0  0  0  0  1  0  0  0  0  0  0
  -30.1320  -16.0760   20.0710 C   0  0  0  0  0  0  0  0  0  0  0  0
  -30.3210  -13.4470   19.2590 C   0  0  0  0  0  2  0  0  0  0  0  0
  -29.4440  -12.8330   18.1190 C   0  0  0  0  0  2  0  0  0  0  0  0
  -28.0700  -12.3920   18.6390 C   0  0  0  0  0  2  0  0  0  0  0  0
  -27.5180  -13.4260   19.6370 C   0  0  0  0  0  3  0  0  0  0  0  0
  -28.5530  -13.9140   20.6890 C   0  0  0  0  0  2  0  0  0  0  0  0
  -29.6300  -14.6560   19.9560 N   0  0  0  0  0  0  0  0  0  0  0  0
  -31.3780  -15.9210   20.0610 O   0  0  0  0  0  0  0  0  0  0  0  0
  -28.1020  -17.4350   19.3330 C   0  0  0  0  0  1  0  0  0  0  0  0
  -29.3880  -17.5580   20.0160 N   0  0  0  0  0  0  0  0  0  0  0  0
  -25.1830  -13.9270   20.4730 C   0  0  0  0  0  0  0  0  0  0  0  0
  -24.1320  -13.1430   20.8550 C   0  0  0  0  0  0  0  0  0  0  0  0
  -24.6060  -11.7950   20.8040 C   0  0  0  0  0  0  0  0  0  0  0  0
  -26.2260  -13.0640   20.2030 N   0  0  0  0  0  0  0  0  0  0  0  0
  -25.8940  -11.7710   20.4640 N   0  0  0  0  0  0  0  0  0  0  0  0
  -23.8800  -10.5310   21.0000 C   0  0  0  0  0  0  0  0  0  0  0  0
  -24.3230   -9.5560   21.9210 C   0  0  0  0  0  3  0  0  0  0  0  0
  -23.5910   -8.3620   22.1070 C   0  0  0  0  0  3  0  0  0  0  0  0
  -22.4020   -8.1360   21.3740 C   0  0  0  0  0  0  0  0  0  0  0  0
  -21.9770   -9.1010   20.4430 C   0  0  0  0  0  3  0  0  0  0  0  0
  -22.7110  -10.2850   20.2540 C   0  0  0  0  0  3  0  0  0  0  0  0
  -21.6420   -6.9940   21.4690 O   0  0  0  0  0  0  0  0  0  0  0  0
  -21.6130   -6.2440   22.6170 C   0  0  0  0  0  0  0  0  0  0  0  0
  -21.2160   -6.7910   23.8560 C   0  0  0  0  0  3  0  0  0  0  0  0
  -21.1320   -5.9670   24.9970 C   0  0  0  0  0  3  0  0  0  0  0  0
  -21.4380   -4.5960   24.8990 C   0  0  0  0  0  0  0  0  0  0  0  0
  -21.8300   -4.0480   23.6650 C   0  0  0  0  0  3  0  0  0  0  0  0
  -21.9140   -4.8690   22.5270 C   0  0  0  0  0  0  0  0  0  0  0  0
  -22.2710   -4.3300   21.3360 F   0  0  0  0  0  0  0  0  0  0  0  0
  -21.3530   -3.8020   25.9920 F   0  0  0  0  0  0  0  0  0  0  0  0
  -22.7400  -13.6190   21.1450 C   0  0  0  0  0  0  0  0  0  0  0  0
  -22.0220  -12.9210   22.0180 N   0  0  0  0  0  0  0  0  0  0  0  0
  -22.3000  -14.6470   20.6350 O   0  0  0  0  0  0  0  0  0  0  0  0
  -22.3880  -12.0890   22.4530 H   0  0  0  0  0  0  0  0  0  0  0  0
  -21.0890  -13.2290   22.2540 H   0  0  0  0  0  0  0  0  0  0  0  0
  -25.3360  -15.2990   20.2950 N   0  0  0  0  0  0  0  0  0  0  0  0
  -24.5650  -15.9500   20.3980 H   0  0  0  0  0  0  0  0  0  0  0  0
  -26.1710  -15.7290   19.9240 H   0  0  0  0  0  0  0  0  0  0  0  0
  1  3  1  0
  2 13  2  0
  3  8  1  0
  4 12  1  0
  4 14  1  0
  5 11  1  0
  5  7  1  0
  6 12  1  0
  7  6  1  0
  8  7  2  0
  9  3  2  0
 10  9  1  0
 10  5  2  0
 11  4  1  0
 12  2  1  0
 14 16  2  0
 15 14  1  0
 17 15  1  0
 18 27  2  0
 18 23  1  0
 19 15  1  0
 19 23  1  0
 20 19  1  0
 21 22  1  0
 21 20  1  0
 22 18  1  0
 23 24  2  0
 24 25  1  0
 26 25  2  0
 27 26  1  0
 28  2  1  0
 28 29  1  0
 28 38  1  0
 29 32  1  0
 30 34  1  0
 30 29  1  0
 31 30  2  0
 34 33  1  0
 36 34  1  0
 36 37  1  0
 36 35  1  0
 38 41  1  1
 38 39  1  0
 40 38  1  0
 46 51  1  0
 47 48  1  0
 47 46  1  0
 49 48  1  0
 49 58  1  0
 49 50  1  0
 51 45  1  0
 51 50  1  0
 52 45  2  0
 53 54  1  0
 54 45  1  0
 54 44  1  0
 55 56  2  0
 56 75  1  0
 57 56  1  0
 57 60  1  0
 58 59  1  0
 58 55  1  0
 59 57  2  0
 60 61  1  0
 61 62  2  0
 63 66  1  0
 63 62  1  0
 64 63  2  0
 65 64  1  0
 65 60  2  0
 66 67  1  0
 67 68  1  0
 68 69  2  0
 70 69  1  0
 70 74  1  0
 71 70  2  0
 72 67  2  0
 72 71  1  0
 73 72  1  0
 75 76  1  0
 76 79  1  0
 76 78  1  0
 77 75  2  0
 80 81  1  0
 80 55  1  0
 82 80  1  0
M  ISO  4   1 101  42 101  45 100  54 100
M  END
>  <TORSDO>  (93) 
F 18

>  <SCORE>  (93) 
-16.265

>  <name>  (93) 
93

>  <ligand_id>  (93) 
93

>  <original_smiles>  (93) 
[H]c1c([H])c([H])c2c(c1[H])C([H])([H])C([H])([H])C([H])([H])C2([H])N([H])C(=O)C1([H])N(C(=O)C([H])(N([H])C(=O)C([H])(N([H])C([H])([H])[H])C([H])([H])[H])C(C([H])([H])[H])(C([H])([H])[H])C([H])([H])[H])C([H])([H])c2c([H])c(OC([H])([H])C([H])([H])C([H])([H])N(C(=O)N3C([H])([H])C([H])([H])C([H])([H])C([H])(n4nc(-c5c([H])c([H])c(Oc6c([H])c([H])c(F)c([H])c6F)c([H])c5[H])c(C(=O)N([H])[H])c4N([H])[H])C3([H])[H])C([H])([H])[H])c([H])c([H])c2C1([H])[H]

>  <smiles>  (93) 
[H]c1c([H])c([H])c2c(c1[H])C([H])([H])C([H])([H])C([H])([H])C2([H])N([H])C(=O)C1([H])N(C(=O)C([H])(N([H])C(=O)C([H])(N([H])C([H])([H])[H])C([H])([H])[H])C(C([H])([H])[H])(C([H])([H])[H])C([H])([H])[H])C([H])([H])c2c([H])c(OC([H])([H])C([H])([H])C([H])([H])N(C(=O)N3C([H])([H])C([H])([H])C([H])([H])C([H])(n4nc(-c5c([H])c([H])c(Oc6c([H])c([H])c(F)c([H])c6F)c([H])c5[H])c(C(=O)N([H])[H])c4N([H])[H])C3([H])[H])C([H])([H])[H])c([H])c([H])c2C1([H])[H]

$$$$
94:0:0
     RDKit          3D

 97105  0  0  1  0  0  0  0  0999 V2000
  -25.2420  -22.2630   19.9350 C   0  0  0  0  0  3  0  0  0  0  0  0
  -24.9310  -23.8740   17.8910 C   0  0  0  0  0  1  0  0  0  0  0  0
  -26.0130  -23.3570   18.8600 C   0  0  0  0  0  3  0  0  0  0  0  0
  -28.4850  -24.5640   19.4700 C   0  0  0  0  0  0  0  0  0  0  0  0
  -26.3570  -25.7860   19.3870 C   0  0  0  0  0  1  0  0  0  0  0  0
  -27.0780  -24.5360   19.1350 N   0  0  0  0  0  0  0  0  0  0  0  0
  -29.1990  -23.6270   19.1120 O   0  0  0  0  0  0  0  0  0  0  0  0
  -29.2650  -25.7170   20.3920 C   0  0  0  0  0  2  0  0  0  0  0  0
  -31.6830  -26.7690   21.2650 C   0  0  0  0  0  0  0  0  0  0  0  0
  -33.9550  -27.6180   20.5210 C   0  0  0  0  0  2  0  0  0  0  0  0
  -34.1110  -27.4020   18.9960 C   0  0  0  0  0  2  0  0  0  0  0  0
  -34.6520  -25.9920   18.6990 C   0  0  0  0  0  2  0  0  0  0  0  0
  -33.9120  -24.8960   19.5090 C   0  0  0  0  0  3  0  0  0  0  0  0
  -33.7550  -25.2720   20.9990 C   0  0  0  0  0  2  0  0  0  0  0  0
  -33.0460  -26.5570   21.0500 N   0  0  0  0  0  0  0  0  0  0  0  0
  -31.3270  -27.9310   21.4900 O   0  0  0  0  0  0  0  0  0  0  0  0
  -30.7300  -25.7410   21.0140 N   0  0  0  0  0  0  0  0  0  0  0  0
  -31.1680  -24.8320   20.9800 H   0  0  0  0  0  0  0  0  0  0  0  0
  -33.9710  -22.4590   18.7330 C   0  0  0  0  0  0  0  0  0  0  0  0
  -34.9580  -21.5130   18.7420 C   0  0  0  0  0  0  0  0  0  0  0  0
  -36.0870  -22.1240   19.3710 C   0  0  0  0  0  0  0  0  0  0  0  0
  -34.5160  -23.5810   19.3330 N   0  0  0  0  0  0  0  0  0  0  0  0
  -35.7790  -23.3510   19.7770 N   0  0  0  0  0  0  0  0  0  0  0  0
  -37.4590  -21.6320   19.5530 C   0  0  0  0  0  0  0  0  0  0  0  0
  -38.1570  -20.9850   18.5090 C   0  0  0  0  0  3  0  0  0  0  0  0
  -39.4820  -20.5390   18.7040 C   0  0  0  0  0  3  0  0  0  0  0  0
  -40.1240  -20.7420   19.9480 C   0  0  0  0  0  0  0  0  0  0  0  0
  -39.4170  -21.3650   20.9910 C   0  0  0  0  0  3  0  0  0  0  0  0
  -38.0960  -21.8030   20.7980 C   0  0  0  0  0  3  0  0  0  0  0  0
  -41.4010  -20.3200   20.2350 O   0  0  0  0  0  0  0  0  0  0  0  0
  -41.8000  -20.0660   21.5230 C   0  0  0  0  0  0  0  0  0  0  0  0
  -41.3500  -18.9320   22.2330 C   0  0  0  0  0  3  0  0  0  0  0  0
  -41.8400  -18.6720   23.5280 C   0  0  0  0  0  3  0  0  0  0  0  0
  -42.7860  -19.5350   24.1110 C   0  0  0  0  0  0  0  0  0  0  0  0
  -43.2420  -20.6610   23.4010 C   0  0  0  0  0  3  0  0  0  0  0  0
  -42.7520  -20.9230   22.1100 C   0  0  0  0  0  0  0  0  0  0  0  0
  -43.2100  -21.9980   21.4240 F   0  0  0  0  0  0  0  0  0  0  0  0
  -43.2640  -19.2810   25.3510 F   0  0  0  0  0  0  0  0  0  0  0  0
  -34.8930  -20.1530   18.1120 C   0  0  0  0  0  0  0  0  0  0  0  0
  -35.6180  -19.1860   18.6630 N   0  0  0  0  0  0  0  0  0  0  0  0
  -34.1570  -19.9280   17.1520 O   0  0  0  0  0  0  0  0  0  0  0  0
  -36.2060  -19.3660   19.4640 H   0  0  0  0  0  0  0  0  0  0  0  0
  -35.5840  -18.2520   18.2810 H   0  0  0  0  0  0  0  0  0  0  0  0
  -32.6690  -22.4720   18.2420 N   0  0  0  0  0  0  0  0  0  0  0  0
  -32.2800  -21.6840   17.7350 H   0  0  0  0  0  0  0  0  0  0  0  0
  -32.0730  -23.2890   18.2200 H   0  0  0  0  0  0  0  0  0  0  0  0
  -24.3220  -21.2340   19.2130 C   0  0  0  0  0  2  0  0  0  0  0  0
  -23.8470  -22.0670   16.9080 C   0  0  0  0  0  1  0  0  0  0  0  0
  -23.3080  -21.7970   18.2670 N   0  0  2  0  0  4  0  0  0  0  0  0
  -22.6610  -21.0360   18.1190 H   0  0  0  0  0  0  0  0  0  0  0  0
  -21.0410  -23.6360   20.6730 C   0  0  0  0  0  2  0  0  0  0  0  0
  -20.2990  -23.8400   19.3440 C   0  0  0  0  0  2  0  0  0  0  0  0
  -22.2540  -22.7550   20.3520 C   0  0  0  0  0  2  0  0  0  0  0  0
  -21.0310  -22.9680   18.3180 C   0  0  0  0  0  2  0  0  0  0  0  0
  -22.4770  -22.8950   18.8370 C   0  0  0  0  0  3  0  0  0  0  0  0
  -24.4880  -22.7290   21.3910 C   0  0  0  0  0  2  0  0  0  0  0  0
  -24.3070  -24.1290   22.0700 O   0  0  0  0  0  0  0  0  0  0  0  0
  -24.5170  -29.1540   16.7110 C   0  0  0  0  0  0  0  0  0  0  0  0
  -23.7780  -25.3560   21.5220 C   0  0  0  0  0  0  0  0  0  0  0  0
  -23.5900  -29.8600   18.8850 C   0  0  0  0  0  3  0  0  0  0  0  0
  -22.9730  -27.9740   20.5260 C   0  0  0  0  0  0  0  0  0  0  0  0
  -23.3700  -27.4120   18.1310 C   0  0  0  0  0  2  0  0  0  0  0  0
  -23.3620  -26.9880   19.6120 C   0  0  0  0  0  0  0  0  0  0  0  0
  -23.7460  -25.6860   20.1050 C   0  0  0  0  0  3  0  0  0  0  0  0
  -23.3060  -26.3810   22.3700 C   0  0  0  0  0  3  0  0  0  0  0  0
  -22.9240  -27.6590   21.8950 C   0  0  0  0  0  3  0  0  0  0  0  0
  -22.6240  -29.3560   19.9930 C   0  0  0  0  0  2  0  0  0  0  0  0
  -23.8660  -28.7990   17.8620 N   0  0  0  0  0  0  0  0  0  0  0  0
  -24.8630  -30.3260   16.4950 O   0  0  0  0  0  0  0  0  0  0  0  0
  -24.8750  -30.4220   19.5430 C   0  0  0  0  0  0  0  0  0  0  0  0
  -25.1070  -30.0820   20.8230 N   0  0  0  0  0  0  0  0  0  0  0  0
  -25.6510  -31.1300   18.8950 O   0  0  0  0  0  0  0  0  0  0  0  0
  -24.4210  -29.5070   21.2930 H   0  0  0  0  0  0  0  0  0  0  0  0
  -26.3190  -30.6360   24.1900 C   0  0  0  0  0  0  0  0  0  0  0  0
  -26.2830  -30.4590   21.6100 C   0  0  0  0  0  3  0  0  0  0  0  0
  -27.2440  -29.2600   21.7830 C   0  0  0  0  0  2  0  0  0  0  0  0
  -26.9970  -28.4700   23.0710 C   0  0  0  0  0  2  0  0  0  0  0  0
  -27.1590  -29.3740   24.2970 C   0  0  0  0  0  2  0  0  0  0  0  0
  -25.8960  -31.1370   22.9300 C   0  0  0  0  0  0  0  0  0  0  0  0
  -25.0900  -32.2960   22.8910 C   0  0  0  0  0  3  0  0  0  0  0  0
  -24.7130  -32.9520   24.0780 C   0  0  0  0  0  3  0  0  0  0  0  0
  -25.1470  -32.4600   25.3210 C   0  0  0  0  0  3  0  0  0  0  0  0
  -25.9510  -31.3060   25.3750 C   0  0  0  0  0  3  0  0  0  0  0  0
  -24.8410  -28.1070   15.6020 C   0  0  0  0  0  3  0  0  0  0  0  0
  -26.3050  -28.2480   15.0250 C   0  0  1  0  0  0  0  0  0  0  0  0
  -26.6760  -29.6930   14.6150 C   0  0  0  0  0  1  0  0  0  0  0  0
  -27.3510  -27.7710   16.0590 C   0  0  0  0  0  1  0  0  0  0  0  0
  -26.4690  -27.3390   13.7840 C   0  0  0  0  0  1  0  0  0  0  0  0
  -23.8520  -28.2710   14.5250 N   0  0  0  0  0  0  0  0  0  0  0  0
  -23.1060  -27.2820   14.0140 C   0  0  0  0  0  0  0  0  0  0  0  0
  -23.2300  -26.1050   14.3620 O   0  0  0  0  0  0  0  0  0  0  0  0
  -23.6560  -29.2180   14.2330 H   0  0  0  0  0  0  0  0  0  0  0  0
  -20.6450  -27.4250   13.5020 C   0  0  0  0  0  1  0  0  0  0  0  0
  -22.0590  -27.6550   12.9450 C   0  0  0  0  0  3  0  0  0  0  0  0
  -23.4270  -27.2700   10.9410 C   0  0  0  0  0  1  0  0  0  0  0  0
  -22.2190  -26.9090   11.6770 N   0  0  0  0  0  0  0  0  0  0  0  0
  -21.4200  -27.0610   11.0680 H   0  0  0  0  0  0  0  0  0  0  0  0
  1 47  1  0
  1 56  1  0
  3  2  1  0
  3  6  1  0
  3  1  1  0
  4  8  1  0
  6  5  1  0
  6  4  1  0
  7  4  2  0
  8 17  1  0
  9 16  2  0
 10 15  1  0
 11 10  1  0
 12 11  1  0
 13 12  1  0
 13 14  1  0
 14 15  1  0
 15  9  1  0
 17  9  1  0
 18 17  1  0
 19 20  2  0
 19 22  1  0
 20 21  1  0
 21 24  1  0
 21 23  2  0
 22 13  1  0
 22 23  1  0
 24 29  1  0
 25 26  1  0
 25 24  2  0
 26 27  2  0
 27 30  1  0
 27 28  1  0
 29 28  2  0
 30 31  1  0
 31 36  2  0
 31 32  1  0
 32 33  2  0
 33 34  1  0
 34 38  1  0
 35 34  2  0
 36 35  1  0
 37 36  1  0
 39 40  1  0
 39 20  1  0
 40 42  1  0
 41 39  2  0
 43 40  1  0
 44 19  1  0
 45 44  1  0
 46 44  1  0
 48 49  1  0
 49 55  1  0
 49 47  1  0
 49 50  1  6
 52 51  1  0
 53 51  1  0
 54 55  1  0
 54 52  1  0
 55 53  1  0
 56 57  1  0
 58 68  1  0
 59 57  1  0
 59 65  1  0
 60 70  1  0
 60 67  1  0
 61 66  1  0
 62 63  1  0
 63 64  1  0
 63 61  2  0
 64 59  2  0
 66 65  2  0
 67 61  1  0
 68 62  1  0
 68 60  1  0
 69 58  2  0
 70 71  1  0
 71 73  1  0
 72 70  2  0
 74 78  1  0
 74 83  1  0
 75 71  1  0
 75 76  1  0
 75 79  1  0
 76 77  1  0
 77 78  1  0
 79 74  2  0
 80 79  1  0
 80 81  2  0
 81 82  1  0
 82 83  2  0
 84 58  1  0
 85 84  1  0
 85 87  1  1
 86 85  1  0
 88 85  1  0
 89 84  1  0
 90 91  2  0
 90 89  1  0
 92 89  1  0
 94 93  1  0
 94 90  1  0
 95 96  1  0
 96 94  1  0
 97 96  1  0
M  ISO  4   9 100  17 100  56 101  57 101
M  END
>  <TORSDO>  (94) 
F 23

>  <SCORE>  (94) 
5.841

>  <name>  (94) 
94

>  <ligand_id>  (94) 
94

>  <original_smiles>  (94) 
[H]c1c([H])c([H])c2c(c1[H])C([H])([H])C([H])([H])C([H])([H])C2([H])N([H])C(=O)C1([H])N(C(=O)C([H])(N([H])C(=O)C([H])(N([H])C([H])([H])[H])C([H])([H])[H])C(C([H])([H])[H])(C([H])([H])[H])C([H])([H])[H])C([H])([H])c2c([H])c(OC([H])([H])C([H])(C([H])(N(C(=O)C([H])([H])N([H])C(=O)N3C([H])([H])C([H])([H])C([H])([H])C([H])(n4nc(-c5c([H])c([H])c(Oc6c([H])c([H])c(F)c([H])c6F)c([H])c5[H])c(C(=O)N([H])[H])c4N([H])[H])C3([H])[H])C([H])([H])[H])C([H])([H])[H])C([H])([H])[N+]([H])(C([H])([H])[H])C3([H])C([H])([H])C([H])([H])C([H])([H])C3([H])[H])c([H])c([H])c2C1([H])[H]

>  <smiles>  (94) 
[H]c1c([H])c([H])c2c(c1[H])C([H])([H])C([H])([H])C([H])([H])C2([H])N([H])C(=O)C1([H])N(C(=O)C([H])(N([H])C(=O)C([H])(N([H])C([H])([H])[H])C([H])([H])[H])C(C([H])([H])[H])(C([H])([H])[H])C([H])([H])[H])C([H])([H])c2c([H])c(OC([H])([H])C([H])(C([H])(N(C(=O)C([H])([H])N([H])C(=O)N3C([H])([H])C([H])([H])C([H])([H])C([H])(n4nc(-c5c([H])c([H])c(Oc6c([H])c([H])c(F)c([H])c6F)c([H])c5[H])c(C(=O)N([H])[H])c4N([H])[H])C3([H])[H])C([H])([H])[H])C([H])([H])[H])C([H])([H])[N+]([H])(C([H])([H])[H])C3([H])C([H])([H])C([H])([H])C([H])([H])C3([H])[H])c([H])c([H])c2C1([H])[H]

$$$$
