0:0:0
     RDKit          3D

 89 97  0  0  1  0  0  0  0  0999 V2000
  -30.0770  -19.9050   20.7880 C   0  0  0  0  0  3  0  0  0  0  0  0
  -29.7130  -21.4010   20.7660 C   0  0  0  0  0  0  0  0  0  0  0  0
  -28.1860  -20.9600   19.1700 C   0  0  0  0  0  0  0  0  0  0  0  0
  -28.7070  -22.1380   19.9430 C   0  0  0  0  0  0  0  0  0  0  0  0
  -28.5810  -19.4710   19.1820 C   0  0  0  0  0  0  0  0  0  0  0  0
  -29.5820  -18.7330   20.0000 C   0  0  0  0  0  0  0  0  0  0  0  0
  -30.4610  -22.2720   21.7580 C   0  0  0  0  0  1  0  0  0  0  0  0
  -27.0270  -21.3180   18.2390 C   0  0  0  0  0  1  0  0  0  0  0  0
  -27.8230  -18.5510   18.2290 C   0  0  0  0  0  1  0  0  0  0  0  0
  -30.4440  -15.6920   19.8620 C   0  0  0  0  0  0  0  0  0  0  0  0
  -30.4760  -13.1790   18.9290 C   0  0  0  0  0  2  0  0  0  0  0  0
  -29.4840  -12.8470   17.7740 C   0  0  0  0  0  2  0  0  0  0  0  0
  -28.0860  -12.4970   18.3090 C   0  0  0  0  0  2  0  0  0  0  0  0
  -27.6830  -13.4420   19.4640 C   0  0  0  0  0  3  0  0  0  0  0  0
  -28.8080  -13.6230   20.5070 C   0  0  0  0  0  2  0  0  0  0  0  0
  -29.9320  -14.3120   19.8130 N   0  0  0  0  0  0  0  0  0  0  0  0
  -31.6250  -15.6620   19.4640 O   0  0  0  0  0  0  0  0  0  0  0  0
  -28.7840  -16.7400   21.3300 C   0  0  0  0  0  1  0  0  0  0  0  0
  -29.6970  -17.0260   20.2260 N   0  0  0  0  0  0  0  0  0  0  0  0
  -25.3810  -13.9690   20.4090 C   0  0  0  0  0  0  0  0  0  0  0  0
  -24.3470  -13.1870   20.8320 C   0  0  0  0  0  0  0  0  0  0  0  0
  -24.7990  -11.8370   20.7140 C   0  0  0  0  0  0  0  0  0  0  0  0
  -26.3980  -13.1010   20.0590 N   0  0  0  0  0  0  0  0  0  0  0  0
  -26.0650  -11.8060   20.3060 N   0  0  0  0  0  0  0  0  0  0  0  0
  -24.0710  -10.5750   20.9090 C   0  0  0  0  0  0  0  0  0  0  0  0
  -24.5050   -9.6080   21.8420 C   0  0  0  0  0  3  0  0  0  0  0  0
  -23.7740   -8.4140   22.0270 C   0  0  0  0  0  3  0  0  0  0  0  0
  -22.5950   -8.1790   21.2790 C   0  0  0  0  0  0  0  0  0  0  0  0
  -22.1810   -9.1340   20.3350 C   0  0  0  0  0  3  0  0  0  0  0  0
  -22.9120  -10.3200   20.1480 C   0  0  0  0  0  3  0  0  0  0  0  0
  -21.8360   -7.0380   21.3740 O   0  0  0  0  0  0  0  0  0  0  0  0
  -21.7140   -6.3510   22.5540 C   0  0  0  0  0  0  0  0  0  0  0  0
  -21.1670   -6.9490   23.7120 C   0  0  0  0  0  3  0  0  0  0  0  0
  -20.9960   -6.1860   24.8840 C   0  0  0  0  0  3  0  0  0  0  0  0
  -21.3590   -4.8260   24.9000 C   0  0  0  0  0  0  0  0  0  0  0  0
  -21.8960   -4.2260   23.7470 C   0  0  0  0  0  3  0  0  0  0  0  0
  -22.0690   -4.9880   22.5770 C   0  0  0  0  0  0  0  0  0  0  0  0
  -22.5690   -4.4000   21.4620 F   0  0  0  0  0  0  0  0  0  0  0  0
  -21.1860   -4.0900   26.0230 F   0  0  0  0  0  0  0  0  0  0  0  0
  -22.9790  -13.6660   21.2200 C   0  0  0  0  0  0  0  0  0  0  0  0
  -22.3110  -12.9520   22.1180 N   0  0  0  0  0  0  0  0  0  0  0  0
  -22.5160  -14.7100   20.7640 O   0  0  0  0  0  0  0  0  0  0  0  0
  -22.7020  -12.1070   22.5090 H   0  0  0  0  0  0  0  0  0  0  0  0
  -21.3970  -13.2550   22.4210 H   0  0  0  0  0  0  0  0  0  0  0  0
  -25.5290  -15.3440   20.2600 N   0  0  0  0  0  0  0  0  0  0  0  0
  -24.7710  -15.9900   20.4510 H   0  0  0  0  0  0  0  0  0  0  0  0
  -26.3400  -15.7900   19.8560 H   0  0  0  0  0  0  0  0  0  0  0  0
  -27.9990  -23.8760   19.8600 C   0  0  0  0  0  2  0  0  0  0  0  0
  -28.2810  -25.5710   20.1530 O   0  0  0  0  0  0  0  0  0  0  0  0
  -24.6770  -31.7930   23.0660 C   0  0  0  0  0  0  0  0  0  0  0  0
  -27.3090  -26.7790   20.0840 C   0  0  0  0  0  0  0  0  0  0  0  0
  -23.5260  -30.3880   21.4090 C   0  0  0  0  0  3  0  0  0  0  0  0
  -25.0130  -28.7700   20.0060 C   0  0  0  0  0  0  0  0  0  0  0  0
  -26.1040  -30.5690   21.3180 C   0  0  0  0  0  2  0  0  0  0  0  0
  -26.1960  -29.1420   20.6570 C   0  0  0  0  0  0  0  0  0  0  0  0
  -27.3290  -28.1740   20.6650 C   0  0  0  0  0  3  0  0  0  0  0  0
  -26.0900  -26.6130   19.3770 C   0  0  0  0  0  3  0  0  0  0  0  0
  -24.9980  -27.5310   19.3420 C   0  0  0  0  0  3  0  0  0  0  0  0
  -23.7920  -29.7020   20.0380 C   0  0  0  0  0  2  0  0  0  0  0  0
  -24.7920  -30.9490   21.9840 N   0  0  0  0  0  0  0  0  0  0  0  0
  -23.5750  -32.0770   23.5650 O   0  0  0  0  0  0  0  0  0  0  0  0
  -22.8110  -29.3970   22.3680 C   0  0  0  0  0  0  0  0  0  0  0  0
  -21.4770  -29.2550   22.2520 N   0  0  0  0  0  0  0  0  0  0  0  0
  -23.4690  -28.7520   23.1880 O   0  0  0  0  0  0  0  0  0  0  0  0
  -20.9960  -29.8260   21.5690 H   0  0  0  0  0  0  0  0  0  0  0  0
  -18.0730  -28.1190   22.8290 C   0  0  0  0  0  0  0  0  0  0  0  0
  -20.6480  -28.3120   23.0130 C   0  0  0  0  0  3  0  0  0  0  0  0
  -20.6900  -26.9010   22.3820 C   0  0  0  0  0  2  0  0  0  0  0  0
  -19.5470  -26.6470   21.3930 C   0  0  0  0  0  2  0  0  0  0  0  0
  -18.1910  -26.7980   22.0890 C   0  0  0  0  0  2  0  0  0  0  0  0
  -19.2250  -28.8380   23.2480 C   0  0  0  0  0  0  0  0  0  0  0  0
  -19.0540  -30.0750   23.9080 C   0  0  0  0  0  3  0  0  0  0  0  0
  -17.7680  -30.5930   24.1480 C   0  0  0  0  0  3  0  0  0  0  0  0
  -16.6330  -29.8720   23.7400 C   0  0  0  0  0  3  0  0  0  0  0  0
  -16.7860  -28.6360   23.0860 C   0  0  0  0  0  3  0  0  0  0  0  0
  -25.9250  -32.4540   23.7250 C   0  0  0  0  0  3  0  0  0  0  0  0
  -25.5750  -33.8440   24.0800 N   0  0  0  0  0  0  0  0  0  0  0  0
  -25.8880  -34.9290   23.3580 C   0  0  0  0  0  0  0  0  0  0  0  0
  -26.5590  -34.8660   22.3250 O   0  0  0  0  0  0  0  0  0  0  0  0
  -24.9800  -33.9640   24.8870 H   0  0  0  0  0  0  0  0  0  0  0  0
  -24.1290  -36.7100   23.0620 C   0  0  0  0  0  1  0  0  0  0  0  0
  -25.3790  -36.2980   23.8570 C   0  0  0  0  0  3  0  0  0  0  0  0
  -27.4940  -37.2100   24.7150 C   0  0  0  0  0  1  0  0  0  0  0  0
  -26.3930  -37.3730   23.7690 N   0  0  0  0  0  0  0  0  0  0  0  0
  -25.9680  -38.2820   23.9320 H   0  0  0  0  0  0  0  0  0  0  0  0
  -26.4260  -31.6860   25.0110 C   0  0  1  0  0  0  0  0  0  0  0  0
  -25.3130  -31.4220   26.0530 C   0  0  0  0  0  1  0  0  0  0  0  0
  -27.0440  -30.3210   24.6360 C   0  0  0  0  0  1  0  0  0  0  0  0
  -27.5470  -32.4980   25.7030 C   0  0  0  0  0  1  0  0  0  0  0  0
  2  1  1  0
  2  7  1  0
  3  5  2  0
  3  4  1  0
  4  2  2  0
  5  6  1  0
  6 19  1  0
  6  1  2  0
  8  3  1  0
  9  5  1  0
 10 19  1  0
 11 16  1  0
 12 13  1  0
 12 11  1  0
 14 13  1  0
 14 23  1  0
 14 15  1  0
 16 10  1  0
 16 15  1  0
 17 10  2  0
 19 18  1  0
 20 21  2  0
 21 40  1  0
 22 21  1  0
 22 25  1  0
 23 24  1  0
 23 20  1  0
 24 22  2  0
 25 26  1  0
 26 27  2  0
 28 31  1  0
 28 27  1  0
 29 28  2  0
 30 29  1  0
 30 25  2  0
 31 32  1  0
 32 37  2  0
 32 33  1  0
 33 34  2  0
 34 35  1  0
 35 39  1  0
 36 35  2  0
 37 36  1  0
 38 37  1  0
 40 41  1  0
 41 44  1  0
 41 43  1  0
 42 40  2  0
 45 20  1  0
 45 46  1  0
 47 45  1  0
 48  4  1  0
 48 49  1  0
 50 61  2  0
 51 49  1  0
 51 56  1  0
 52 60  1  0
 52 62  1  0
 53 59  1  0
 53 55  1  0
 54 60  1  0
 55 56  2  0
 55 54  1  0
 57 51  2  0
 58 57  1  0
 58 53  2  0
 59 52  1  0
 60 50  1  0
 62 64  2  0
 63 62  1  0
 65 63  1  0
 66 75  2  0
 66 71  1  0
 67 63  1  0
 67 71  1  0
 68 67  1  0
 69 70  1  0
 69 68  1  0
 70 66  1  0
 71 72  2  0
 72 73  1  0
 74 73  2  0
 75 74  1  0
 76 50  1  0
 76 77  1  0
 76 86  1  0
 77 80  1  0
 78 82  1  0
 78 77  1  0
 79 78  2  0
 82 81  1  0
 84 82  1  0
 84 85  1  0
 84 83  1  0
 86 89  1  1
 86 87  1  0
 88 86  1  0
M  ISO  4  10 100  19 100  48 101  49 101
M  END
>  <TORSDO>  (1) 
F 17

>  <SCORE>  (1) 
-16.422

>  <name>  (1) 
0

>  <ligand_id>  (1) 
0

>  <original_smiles>  (1) 
[H]c1c([H])c([H])c2c(c1[H])C([H])([H])C([H])([H])C([H])([H])C2([H])N([H])C(=O)C1([H])N(C(=O)C([H])(N([H])C(=O)C([H])(N([H])C([H])([H])[H])C([H])([H])[H])C(C([H])([H])[H])(C([H])([H])[H])C([H])([H])[H])C([H])([H])c2c([H])c(OC([H])([H])c3c(C([H])([H])[H])c([H])c(N(C(=O)N4C([H])([H])C([H])([H])C([H])([H])C([H])(n5nc(-c6c([H])c([H])c(Oc7c([H])c([H])c(F)c([H])c7F)c([H])c6[H])c(C(=O)N([H])[H])c5N([H])[H])C4([H])[H])C([H])([H])[H])c(C([H])([H])[H])c3C([H])([H])[H])c([H])c([H])c2C1([H])[H]

>  <smiles>  (1) 
[H]c1c([H])c([H])c2c(c1[H])C([H])([H])C([H])([H])C([H])([H])C2([H])N([H])C(=O)C1([H])N(C(=O)C([H])(N([H])C(=O)C([H])(N([H])C([H])([H])[H])C([H])([H])[H])C(C([H])([H])[H])(C([H])([H])[H])C([H])([H])[H])C([H])([H])c2c([H])c(OC([H])([H])c3c(C([H])([H])[H])c([H])c(N(C(=O)N4C([H])([H])C([H])([H])C([H])([H])C([H])(n5nc(-c6c([H])c([H])c(Oc7c([H])c([H])c(F)c([H])c7F)c([H])c6[H])c(C(=O)N([H])[H])c5N([H])[H])C4([H])[H])C([H])([H])[H])c(C([H])([H])[H])c3C([H])([H])[H])c([H])c([H])c2C1([H])[H]

$$$$
1:0:0
     RDKit          3D

 86 94  0  0  1  0  0  0  0  0999 V2000
  -29.9510  -21.6520   19.5160 C   0  0  0  0  0  2  0  0  0  0  0  0
  -28.3320  -21.3140   21.0940 C   0  0  0  0  0  2  0  0  0  0  0  0
  -30.0100  -19.9510   19.1970 C   0  0  0  0  0  2  0  0  0  0  0  0
  -28.3630  -19.6590   20.7590 C   0  0  0  0  0  2  0  0  0  0  0  0
  -28.6300  -22.5320   20.0260 C   0  0  0  0  0  3  0  0  0  0  0  0
  -29.6620  -18.7200   20.2740 C   0  0  0  0  0  3  0  0  0  0  0  0
  -30.2960  -15.6550   19.8580 C   0  0  0  0  0  0  0  0  0  0  0  0
  -30.3090  -13.1690   18.9150 C   0  0  0  0  0  2  0  0  0  0  0  0
  -29.3060  -12.8180   17.7790 C   0  0  0  0  0  2  0  0  0  0  0  0
  -27.9380  -12.4110   18.3580 C   0  0  0  0  0  2  0  0  0  0  0  0
  -27.5020  -13.3970   19.4550 C   0  0  0  0  0  3  0  0  0  0  0  0
  -28.6340  -13.6580   20.4940 C   0  0  0  0  0  2  0  0  0  0  0  0
  -29.7570  -14.3040   19.7720 N   0  0  0  0  0  0  0  0  0  0  0  0
  -31.5180  -15.6180   19.6040 O   0  0  0  0  0  0  0  0  0  0  0  0
  -28.0940  -16.8050   20.2340 C   0  0  0  0  0  1  0  0  0  0  0  0
  -29.5240  -16.9920   20.0290 N   0  0  0  0  0  0  0  0  0  0  0  0
  -25.1980  -13.9550   20.4140 C   0  0  0  0  0  0  0  0  0  0  0  0
  -24.1740  -13.1720   20.8540 C   0  0  0  0  0  0  0  0  0  0  0  0
  -24.6390  -11.8270   20.7480 C   0  0  0  0  0  0  0  0  0  0  0  0
  -26.2240  -13.0850   20.0720 N   0  0  0  0  0  0  0  0  0  0  0  0
  -25.9010  -11.7970   20.3380 N   0  0  0  0  0  0  0  0  0  0  0  0
  -23.9300  -10.5630   20.9510 C   0  0  0  0  0  0  0  0  0  0  0  0
  -24.4090   -9.5840   21.8490 C   0  0  0  0  0  3  0  0  0  0  0  0
  -23.6970   -8.3820   22.0420 C   0  0  0  0  0  3  0  0  0  0  0  0
  -22.4910   -8.1520   21.3370 C   0  0  0  0  0  0  0  0  0  0  0  0
  -22.0310   -9.1190   20.4260 C   0  0  0  0  0  3  0  0  0  0  0  0
  -22.7450  -10.3130   20.2310 C   0  0  0  0  0  3  0  0  0  0  0  0
  -21.7440   -7.0040   21.4460 O   0  0  0  0  0  0  0  0  0  0  0  0
  -21.7230   -6.2680   22.6030 C   0  0  0  0  0  0  0  0  0  0  0  0
  -21.2830   -6.8150   23.8280 C   0  0  0  0  0  3  0  0  0  0  0  0
  -21.2130   -6.0010   24.9760 C   0  0  0  0  0  3  0  0  0  0  0  0
  -21.5730   -4.6430   24.9000 C   0  0  0  0  0  0  0  0  0  0  0  0
  -22.0040   -4.0950   23.6790 C   0  0  0  0  0  3  0  0  0  0  0  0
  -22.0770   -4.9060   22.5320 C   0  0  0  0  0  0  0  0  0  0  0  0
  -22.4750   -4.3690   21.3550 F   0  0  0  0  0  0  0  0  0  0  0  0
  -21.4970   -3.8590   26.0000 F   0  0  0  0  0  0  0  0  0  0  0  0
  -22.8010  -13.6400   21.2420 C   0  0  0  0  0  0  0  0  0  0  0  0
  -22.1410  -12.9220   22.1420 N   0  0  0  0  0  0  0  0  0  0  0  0
  -22.3290  -14.6810   20.7820 O   0  0  0  0  0  0  0  0  0  0  0  0
  -22.5330  -12.0750   22.5260 H   0  0  0  0  0  0  0  0  0  0  0  0
  -21.2270  -13.2180   22.4520 H   0  0  0  0  0  0  0  0  0  0  0  0
  -25.3130  -15.3300   20.2380 N   0  0  0  0  0  0  0  0  0  0  0  0
  -24.5300  -15.9530   20.4050 H   0  0  0  0  0  0  0  0  0  0  0  0
  -26.0800  -15.7820   19.7630 H   0  0  0  0  0  0  0  0  0  0  0  0
  -28.3950  -24.3020   20.5720 C   0  0  0  0  0  2  0  0  0  0  0  0
  -28.3890  -25.9230   20.1230 O   0  0  0  0  0  0  0  0  0  0  0  0
  -24.6890  -31.8820   23.2020 C   0  0  0  0  0  0  0  0  0  0  0  0
  -27.3330  -27.0000   20.1910 C   0  0  0  0  0  0  0  0  0  0  0  0
  -23.5260  -30.4780   21.5500 C   0  0  0  0  0  3  0  0  0  0  0  0
  -25.0030  -28.8800   20.1410 C   0  0  0  0  0  0  0  0  0  0  0  0
  -26.0940  -30.7090   21.4220 C   0  0  0  0  0  2  0  0  0  0  0  0
  -26.1880  -29.2930   20.7660 C   0  0  0  0  0  0  0  0  0  0  0  0
  -27.3460  -28.3820   20.7550 C   0  0  0  0  0  3  0  0  0  0  0  0
  -26.1070  -26.7470   19.5320 C   0  0  0  0  0  3  0  0  0  0  0  0
  -24.9910  -27.6280   19.5020 C   0  0  0  0  0  3  0  0  0  0  0  0
  -23.7770  -29.7970   20.1760 C   0  0  0  0  0  2  0  0  0  0  0  0
  -24.7930  -31.0500   22.1120 N   0  0  0  0  0  0  0  0  0  0  0  0
  -23.5920  -32.1580   23.7140 O   0  0  0  0  0  0  0  0  0  0  0  0
  -22.8330  -29.4750   22.5110 C   0  0  0  0  0  0  0  0  0  0  0  0
  -21.5040  -29.3070   22.3820 N   0  0  0  0  0  0  0  0  0  0  0  0
  -23.5000  -28.8460   23.3380 O   0  0  0  0  0  0  0  0  0  0  0  0
  -21.0220  -29.8660   21.6940 H   0  0  0  0  0  0  0  0  0  0  0  0
  -18.1200  -28.0940   22.8930 C   0  0  0  0  0  0  0  0  0  0  0  0
  -20.6820  -28.3580   23.1430 C   0  0  0  0  0  3  0  0  0  0  0  0
  -20.7810  -26.9370   22.5440 C   0  0  0  0  0  2  0  0  0  0  0  0
  -19.6710  -26.6310   21.5330 C   0  0  0  0  0  2  0  0  0  0  0  0
  -18.2940  -26.7600   22.1890 C   0  0  0  0  0  2  0  0  0  0  0  0
  -19.2420  -28.8520   23.3270 C   0  0  0  0  0  0  0  0  0  0  0  0
  -19.0230  -30.0990   23.9510 C   0  0  0  0  0  3  0  0  0  0  0  0
  -17.7190  -30.5890   24.1450 C   0  0  0  0  0  3  0  0  0  0  0  0
  -16.6120  -29.8280   23.7280 C   0  0  0  0  0  3  0  0  0  0  0  0
  -16.8140  -28.5830   23.1050 C   0  0  0  0  0  3  0  0  0  0  0  0
  -25.9440  -32.5400   23.8500 C   0  0  0  0  0  3  0  0  0  0  0  0
  -25.6110  -33.9400   24.1710 N   0  0  0  0  0  0  0  0  0  0  0  0
  -25.9360  -35.0000   23.4210 C   0  0  0  0  0  0  0  0  0  0  0  0
  -26.6110  -34.9040   22.3930 O   0  0  0  0  0  0  0  0  0  0  0  0
  -25.0100  -34.0800   24.9690 H   0  0  0  0  0  0  0  0  0  0  0  0
  -24.1930  -36.7860   23.0740 C   0  0  0  0  0  1  0  0  0  0  0  0
  -25.4400  -36.3870   23.8800 C   0  0  0  0  0  3  0  0  0  0  0  0
  -27.5650  -37.3000   24.7100 C   0  0  0  0  0  1  0  0  0  0  0  0
  -26.4630  -37.4500   23.7630 N   0  0  0  0  0  0  0  0  0  0  0  0
  -26.0500  -38.3680   23.9020 H   0  0  0  0  0  0  0  0  0  0  0  0
  -26.4290  -31.7880   25.1520 C   0  0  1  0  0  0  0  0  0  0  0  0
  -25.3090  -31.5590   26.1960 C   0  0  0  0  0  1  0  0  0  0  0  0
  -27.0300  -30.4090   24.8010 C   0  0  0  0  0  1  0  0  0  0  0  0
  -27.5610  -32.5950   25.8300 C   0  0  0  0  0  1  0  0  0  0  0  0
  1  5  1  0
  3  1  1  0
  3  6  1  0
  4  2  1  0
  5 45  1  0
  5  2  1  0
  6 16  1  0
  6  4  1  0
  7 16  1  0
  8 13  1  0
  9 10  1  0
  9  8  1  0
 11 10  1  0
 11 20  1  0
 11 12  1  0
 13  7  1  0
 13 12  1  0
 14  7  2  0
 16 15  1  0
 17 18  2  0
 18 37  1  0
 19 18  1  0
 19 22  1  0
 20 21  1  0
 20 17  1  0
 21 19  2  0
 22 23  1  0
 23 24  2  0
 25 28  1  0
 25 24  1  0
 26 25  2  0
 27 26  1  0
 27 22  2  0
 28 29  1  0
 29 30  1  0
 30 31  2  0
 32 31  1  0
 32 36  1  0
 33 32  2  0
 34 29  2  0
 34 33  1  0
 35 34  1  0
 37 38  1  0
 38 41  1  0
 38 40  1  0
 39 37  2  0
 42 43  1  0
 42 17  1  0
 44 42  1  0
 46 48  1  0
 46 45  1  0
 47 58  2  0
 48 53  1  0
 49 57  1  0
 49 59  1  0
 50 56  1  0
 50 52  1  0
 51 57  1  0
 52 51  1  0
 53 52  2  0
 54 48  2  0
 55 54  1  0
 55 50  2  0
 56 49  1  0
 57 47  1  0
 59 61  2  0
 60 59  1  0
 62 60  1  0
 63 72  2  0
 63 68  1  0
 64 60  1  0
 64 68  1  0
 65 64  1  0
 66 67  1  0
 66 65  1  0
 67 63  1  0
 68 69  2  0
 69 70  1  0
 71 70  2  0
 72 71  1  0
 73 47  1  0
 73 74  1  0
 73 83  1  0
 74 77  1  0
 75 79  1  0
 75 74  1  0
 76 75  2  0
 79 78  1  0
 81 79  1  0
 81 82  1  0
 81 80  1  0
 83 86  1  1
 83 84  1  0
 85 83  1  0
M  ISO  4   7 100  16 100  45 101  46 101
M  END
>  <TORSDO>  (2) 
F 17

>  <SCORE>  (2) 
-16.386

>  <name>  (2) 
1

>  <ligand_id>  (2) 
1

>  <original_smiles>  (2) 
[H]c1c([H])c([H])c2c(c1[H])C([H])([H])C([H])([H])C([H])([H])C2([H])N([H])C(=O)C1([H])N(C(=O)C([H])(N([H])C(=O)C([H])(N([H])C([H])([H])[H])C([H])([H])[H])C(C([H])([H])[H])(C([H])([H])[H])C([H])([H])[H])C([H])([H])c2c([H])c(OC([H])([H])C3([H])C([H])([H])C([H])([H])C([H])(N(C(=O)N4C([H])([H])C([H])([H])C([H])([H])C([H])(n5nc(-c6c([H])c([H])c(Oc7c([H])c([H])c(F)c([H])c7F)c([H])c6[H])c(C(=O)N([H])[H])c5N([H])[H])C4([H])[H])C([H])([H])[H])C([H])([H])C3([H])[H])c([H])c([H])c2C1([H])[H]

>  <smiles>  (2) 
[H]c1c([H])c([H])c2c(c1[H])C([H])([H])C([H])([H])C([H])([H])C2([H])N([H])C(=O)C1([H])N(C(=O)C([H])(N([H])C(=O)C([H])(N([H])C([H])([H])[H])C([H])([H])[H])C(C([H])([H])[H])(C([H])([H])[H])C([H])([H])[H])C([H])([H])c2c([H])c(OC([H])([H])C3([H])C([H])([H])C([H])([H])C([H])(N(C(=O)N4C([H])([H])C([H])([H])C([H])([H])C([H])(n5nc(-c6c([H])c([H])c(Oc7c([H])c([H])c(F)c([H])c7F)c([H])c6[H])c(C(=O)N([H])[H])c5N([H])[H])C4([H])[H])C([H])([H])[H])C([H])([H])C3([H])[H])c([H])c([H])c2C1([H])[H]

$$$$
2:0:0
     RDKit          3D

 89 97  0  0  1  0  0  0  0  0999 V2000
  -29.0740  -21.2260   18.8900 C   0  0  0  0  0  3  0  0  0  0  0  0
  -29.0380  -22.2730   19.9520 C   0  0  0  0  0  0  0  0  0  0  0  0
  -29.4250  -19.7350   18.9050 C   0  0  0  0  0  0  0  0  0  0  0  0
  -29.4710  -21.3940   21.0810 C   0  0  0  0  0  0  0  0  0  0  0  0
  -29.8230  -19.8880   21.1140 C   0  0  0  0  0  0  0  0  0  0  0  0
  -29.8490  -18.8530   20.0280 C   0  0  0  0  0  0  0  0  0  0  0  0
  -29.2540  -19.0150   17.5820 C   0  0  0  0  0  1  0  0  0  0  0  0
  -29.5140  -22.1300   22.4150 C   0  0  0  0  0  1  0  0  0  0  0  0
  -30.1780  -19.3210   22.4830 C   0  0  0  0  0  1  0  0  0  0  0  0
  -30.8180  -15.8370   20.0810 C   0  0  0  0  0  0  0  0  0  0  0  0
  -30.9910  -13.2620   19.3920 C   0  0  0  0  0  2  0  0  0  0  0  0
  -30.0980  -12.7960   18.2040 C   0  0  0  0  0  2  0  0  0  0  0  0
  -28.6850  -12.4330   18.6860 C   0  0  0  0  0  2  0  0  0  0  0  0
  -28.1610  -13.4650   19.7100 C   0  0  0  0  0  3  0  0  0  0  0  0
  -29.1920  -13.8390   20.8010 C   0  0  0  0  0  2  0  0  0  0  0  0
  -30.3500  -14.4530   20.1110 N   0  0  0  0  0  0  0  0  0  0  0  0
  -32.0430  -15.8270   19.8530 O   0  0  0  0  0  0  0  0  0  0  0  0
  -29.9690  -17.1370   20.1530 N   0  0  0  0  0  0  0  0  0  0  0  0
  -29.0530  -16.7940   20.4040 H   0  0  0  0  0  0  0  0  0  0  0  0
  -25.8270  -13.9780   20.5720 C   0  0  0  0  0  0  0  0  0  0  0  0
  -24.7750  -13.1890   20.9420 C   0  0  0  0  0  0  0  0  0  0  0  0
  -25.2370  -11.8400   20.8380 C   0  0  0  0  0  0  0  0  0  0  0  0
  -26.8580  -13.1130   20.2570 N   0  0  0  0  0  0  0  0  0  0  0  0
  -26.5190  -11.8170   20.4840 N   0  0  0  0  0  0  0  0  0  0  0  0
  -24.5070  -10.5740   20.9970 C   0  0  0  0  0  0  0  0  0  0  0  0
  -24.8890   -9.6150   21.9620 C   0  0  0  0  0  3  0  0  0  0  0  0
  -24.1550   -8.4180   22.1110 C   0  0  0  0  0  3  0  0  0  0  0  0
  -23.0260   -8.1710   21.2940 C   0  0  0  0  0  0  0  0  0  0  0  0
  -22.6640   -9.1170   20.3200 C   0  0  0  0  0  3  0  0  0  0  0  0
  -23.3980  -10.3060   20.1700 C   0  0  0  0  0  3  0  0  0  0  0  0
  -22.2690   -7.0250   21.3500 O   0  0  0  0  0  0  0  0  0  0  0  0
  -22.0250   -6.3800   22.5370 C   0  0  0  0  0  0  0  0  0  0  0  0
  -21.3810   -7.0240   23.6160 C   0  0  0  0  0  3  0  0  0  0  0  0
  -21.0880   -6.3040   24.7910 C   0  0  0  0  0  3  0  0  0  0  0  0
  -21.4290   -4.9420   24.8870 C   0  0  0  0  0  0  0  0  0  0  0  0
  -22.0660   -4.2980   23.8120 C   0  0  0  0  0  3  0  0  0  0  0  0
  -22.3610   -5.0150   22.6390 C   0  0  0  0  0  0  0  0  0  0  0  0
  -22.9550   -4.3840   21.5980 F   0  0  0  0  0  0  0  0  0  0  0  0
  -21.1410   -4.2480   26.0130 F   0  0  0  0  0  0  0  0  0  0  0  0
  -23.3900  -13.6610   21.2690 C   0  0  0  0  0  0  0  0  0  0  0  0
  -22.6860  -12.9400   22.1340 N   0  0  0  0  0  0  0  0  0  0  0  0
  -22.9430  -14.7040   20.7940 O   0  0  0  0  0  0  0  0  0  0  0  0
  -23.0620  -12.0980   22.5410 H   0  0  0  0  0  0  0  0  0  0  0  0
  -21.7570  -13.2380   22.3950 H   0  0  0  0  0  0  0  0  0  0  0  0
  -25.9870  -15.3550   20.4440 N   0  0  0  0  0  0  0  0  0  0  0  0
  -25.2170  -15.9980   20.5950 H   0  0  0  0  0  0  0  0  0  0  0  0
  -26.8030  -15.8020   20.0490 H   0  0  0  0  0  0  0  0  0  0  0  0
  -28.2460  -23.9720   19.9180 C   0  0  0  0  0  2  0  0  0  0  0  0
  -28.5450  -25.6840   20.1180 O   0  0  0  0  0  0  0  0  0  0  0  0
  -24.9360  -31.7640   23.3130 C   0  0  0  0  0  0  0  0  0  0  0  0
  -27.5830  -26.9040   20.0940 C   0  0  0  0  0  0  0  0  0  0  0  0
  -23.8060  -30.4690   21.5560 C   0  0  0  0  0  3  0  0  0  0  0  0
  -25.3060  -28.9200   20.0900 C   0  0  0  0  0  0  0  0  0  0  0  0
  -26.3860  -30.6290   21.5250 C   0  0  0  0  0  2  0  0  0  0  0  0
  -26.4790  -29.2420   20.7820 C   0  0  0  0  0  0  0  0  0  0  0  0
  -27.6030  -28.2630   20.7560 C   0  0  0  0  0  3  0  0  0  0  0  0
  -26.3780  -26.7930   19.3540 C   0  0  0  0  0  3  0  0  0  0  0  0
  -25.2940  -27.7230   19.3540 C   0  0  0  0  0  3  0  0  0  0  0  0
  -24.0920  -29.8610   20.1520 C   0  0  0  0  0  2  0  0  0  0  0  0
  -25.0650  -30.9840   22.1860 N   0  0  0  0  0  0  0  0  0  0  0  0
  -23.8260  -32.0280   23.8070 O   0  0  0  0  0  0  0  0  0  0  0  0
  -23.0650  -29.4290   22.4410 C   0  0  0  0  0  0  0  0  0  0  0  0
  -21.7370  -29.2810   22.2650 N   0  0  0  0  0  0  0  0  0  0  0  0
  -23.6970  -28.7570   23.2580 O   0  0  0  0  0  0  0  0  0  0  0  0
  -21.2780  -29.8750   21.5900 H   0  0  0  0  0  0  0  0  0  0  0  0
  -18.3360  -28.0540   22.6180 C   0  0  0  0  0  0  0  0  0  0  0  0
  -20.8910  -28.2970   22.9530 C   0  0  0  0  0  3  0  0  0  0  0  0
  -21.0020  -26.9060   22.2860 C   0  0  0  0  0  2  0  0  0  0  0  0
  -19.9230  -26.6570   21.2260 C   0  0  0  0  0  2  0  0  0  0  0  0
  -18.5270  -26.7580   21.8470 C   0  0  0  0  0  2  0  0  0  0  0  0
  -19.4450  -28.7850   23.1220 C   0  0  0  0  0  0  0  0  0  0  0  0
  -19.2090  -29.9960   23.8070 C   0  0  0  0  0  3  0  0  0  0  0  0
  -17.8990  -30.4800   23.9880 C   0  0  0  0  0  3  0  0  0  0  0  0
  -16.8050  -29.7460   23.4950 C   0  0  0  0  0  3  0  0  0  0  0  0
  -17.0240  -28.5340   22.8170 C   0  0  0  0  0  3  0  0  0  0  0  0
  -26.1760  -32.3770   24.0320 C   0  0  0  0  0  3  0  0  0  0  0  0
  -25.8390  -33.7570   24.4360 N   0  0  0  0  0  0  0  0  0  0  0  0
  -26.1590  -34.8620   23.7510 C   0  0  0  0  0  0  0  0  0  0  0  0
  -26.8270  -34.8290   22.7150 O   0  0  0  0  0  0  0  0  0  0  0  0
  -25.2440  -33.8540   25.2460 H   0  0  0  0  0  0  0  0  0  0  0  0
  -24.4000  -36.6550   23.5410 C   0  0  0  0  0  1  0  0  0  0  0  0
  -25.6650  -36.2180   24.2980 C   0  0  0  0  0  3  0  0  0  0  0  0
  -27.8030  -37.0990   25.1330 C   0  0  0  0  0  1  0  0  0  0  0  0
  -26.6810  -37.2930   24.2190 N   0  0  0  0  0  0  0  0  0  0  0  0
  -26.2630  -38.1990   24.4190 H   0  0  0  0  0  0  0  0  0  0  0  0
  -26.6290  -31.5460   25.2970 C   0  0  1  0  0  0  0  0  0  0  0  0
  -25.4880  -31.2770   26.3080 C   0  0  0  0  0  1  0  0  0  0  0  0
  -27.2150  -30.1770   24.8830 C   0  0  0  0  0  1  0  0  0  0  0  0
  -27.7580  -32.2980   26.0410 C   0  0  0  0  0  1  0  0  0  0  0  0
  1  3  2  0
  1  2  1  0
  2  4  2  0
  3  6  1  0
  4  5  1  0
  4  8  1  0
  5  9  1  0
  6 18  1  0
  6  5  2  0
  7  3  1  0
 10 16  1  0
 10 18  1  0
 11 16  1  0
 12 13  1  0
 12 11  1  0
 14 13  1  0
 14 23  1  0
 14 15  1  0
 16 15  1  0
 17 10  2  0
 18 19  1  0
 20 21  2  0
 21 40  1  0
 22 21  1  0
 22 25  1  0
 23 24  1  0
 23 20  1  0
 24 22  2  0
 25 26  1  0
 26 27  2  0
 28 31  1  0
 28 27  1  0
 29 28  2  0
 30 29  1  0
 30 25  2  0
 31 32  1  0
 32 37  2  0
 32 33  1  0
 33 34  2  0
 34 35  1  0
 35 39  1  0
 36 35  2  0
 37 36  1  0
 38 37  1  0
 40 41  1  0
 41 44  1  0
 41 43  1  0
 42 40  2  0
 45 20  1  0
 45 46  1  0
 47 45  1  0
 48  2  1  0
 48 49  1  0
 50 61  2  0
 51 49  1  0
 51 56  1  0
 52 60  1  0
 52 62  1  0
 53 59  1  0
 53 55  1  0
 54 60  1  0
 55 54  1  0
 56 55  2  0
 57 51  2  0
 58 57  1  0
 58 53  2  0
 59 52  1  0
 60 50  1  0
 62 64  2  0
 63 62  1  0
 65 63  1  0
 66 75  2  0
 66 71  1  0
 67 63  1  0
 67 71  1  0
 68 67  1  0
 69 70  1  0
 69 68  1  0
 70 66  1  0
 71 72  2  0
 72 73  1  0
 74 73  2  0
 75 74  1  0
 76 50  1  0
 76 77  1  0
 76 86  1  0
 77 80  1  0
 78 82  1  0
 78 77  1  0
 79 78  2  0
 82 81  1  0
 84 82  1  0
 84 85  1  0
 84 83  1  0
 86 89  1  1
 86 87  1  0
 88 86  1  0
M  ISO  4  10 100  18 100  48 101  49 101
M  END
>  <TORSDO>  (3) 
F 17

>  <SCORE>  (3) 
-14.813

>  <name>  (3) 
2

>  <ligand_id>  (3) 
2

>  <original_smiles>  (3) 
[H]c1c([H])c([H])c2c(c1[H])C([H])([H])C([H])([H])C([H])([H])C2([H])N([H])C(=O)C1([H])N(C(=O)C([H])(N([H])C(=O)C([H])(N([H])C([H])([H])[H])C([H])([H])[H])C(C([H])([H])[H])(C([H])([H])[H])C([H])([H])[H])C([H])([H])c2c([H])c(OC([H])([H])c3c([H])c(C([H])([H])[H])c(N([H])C(=O)N4C([H])([H])C([H])([H])C([H])([H])C([H])(n5nc(-c6c([H])c([H])c(Oc7c([H])c([H])c(F)c([H])c7F)c([H])c6[H])c(C(=O)N([H])[H])c5N([H])[H])C4([H])[H])c(C([H])([H])[H])c3C([H])([H])[H])c([H])c([H])c2C1([H])[H]

>  <smiles>  (3) 
[H]c1c([H])c([H])c2c(c1[H])C([H])([H])C([H])([H])C([H])([H])C2([H])N([H])C(=O)C1([H])N(C(=O)C([H])(N([H])C(=O)C([H])(N([H])C([H])([H])[H])C([H])([H])[H])C(C([H])([H])[H])(C([H])([H])[H])C([H])([H])[H])C([H])([H])c2c([H])c(OC([H])([H])c3c([H])c(C([H])([H])[H])c(N([H])C(=O)N4C([H])([H])C([H])([H])C([H])([H])C([H])(n5nc(-c6c([H])c([H])c(Oc7c([H])c([H])c(F)c([H])c7F)c([H])c6[H])c(C(=O)N([H])[H])c5N([H])[H])C4([H])[H])c(C([H])([H])[H])c3C([H])([H])[H])c([H])c([H])c2C1([H])[H]

$$$$
3:0:0
     RDKit          3D

 94102  0  0  1  0  0  0  0  0999 V2000
  -29.8370  -19.0850   19.3260 C   0  0  0  0  0  3  0  0  0  0  0  0
  -30.2670  -19.6810   18.1110 C   0  0  0  0  0  0  0  0  0  0  0  0
  -30.0140  -17.7060   19.7260 C   0  0  0  0  0  0  0  0  0  0  0  0
  -31.0740  -18.7780   17.3370 C   0  0  0  0  0  0  0  0  0  0  0  0
  -31.3550  -17.3920   17.7360 C   0  0  0  0  0  0  0  0  0  0  0  0
  -30.7890  -16.7650   18.9210 C   0  0  0  0  0  0  0  0  0  0  0  0
  -31.5920  -19.2960   15.9990 C   0  0  0  0  0  1  0  0  0  0  0  0
  -32.2500  -16.5370   16.8380 C   0  0  0  0  0  1  0  0  0  0  0  0
  -31.6200  -14.1200   19.0890 C   0  0  0  0  0  0  0  0  0  0  0  0
  -31.3800  -11.6680   18.5460 C   0  0  0  0  0  2  0  0  0  0  0  0
  -30.2770  -11.4960   17.4760 C   0  0  0  0  0  2  0  0  0  0  0  0
  -28.8750  -11.4110   18.1170 C   0  0  0  0  0  2  0  0  0  0  0  0
  -28.6580  -12.4990   19.2040 C   0  0  0  0  0  3  0  0  0  0  0  0
  -29.8660  -12.5720   20.1600 C   0  0  0  0  0  2  0  0  0  0  0  0
  -31.0490  -12.8780   19.3420 N   0  0  0  0  0  0  0  0  0  0  0  0
  -32.7590  -14.1450   18.6100 O   0  0  0  0  0  0  0  0  0  0  0  0
  -30.8180  -15.2680   19.2410 N   0  0  0  0  0  0  0  0  0  0  0  0
  -29.9860  -14.9990   19.7450 H   0  0  0  0  0  0  0  0  0  0  0  0
  -26.4940  -13.3040   20.3300 C   0  0  0  0  0  0  0  0  0  0  0  0
  -25.4340  -12.6340   20.8730 C   0  0  0  0  0  0  0  0  0  0  0  0
  -25.7420  -11.2450   20.7510 C   0  0  0  0  0  0  0  0  0  0  0  0
  -27.3910  -12.3310   19.9120 N   0  0  0  0  0  0  0  0  0  0  0  0
  -26.9510  -11.0850   20.2240 N   0  0  0  0  0  0  0  0  0  0  0  0
  -24.9260  -10.0570   21.0450 C   0  0  0  0  0  0  0  0  0  0  0  0
  -25.1320   -9.2890   22.2110 C   0  0  0  0  0  3  0  0  0  0  0  0
  -24.3220   -8.1650   22.4820 C   0  0  0  0  0  3  0  0  0  0  0  0
  -23.2920   -7.8000   21.5830 C   0  0  0  0  0  0  0  0  0  0  0  0
  -23.1050   -8.5560   20.4110 C   0  0  0  0  0  3  0  0  0  0  0  0
  -23.9150   -9.6710   20.1420 C   0  0  0  0  0  3  0  0  0  0  0  0
  -22.4730   -6.7100   21.7480 O   0  0  0  0  0  0  0  0  0  0  0  0
  -21.7590   -6.5170   22.9030 C   0  0  0  0  0  0  0  0  0  0  0  0
  -20.8880   -7.5040   23.4140 C   0  0  0  0  0  3  0  0  0  0  0  0
  -20.1220   -7.2380   24.5690 C   0  0  0  0  0  3  0  0  0  0  0  0
  -20.2140   -5.9870   25.2040 C   0  0  0  0  0  0  0  0  0  0  0  0
  -21.0760   -5.0000   24.6930 C   0  0  0  0  0  3  0  0  0  0  0  0
  -21.8450   -5.2640   23.5450 C   0  0  0  0  0  0  0  0  0  0  0  0
  -22.6590   -4.3040   23.0450 F   0  0  0  0  0  0  0  0  0  0  0  0
  -19.4750   -5.7270   26.3070 F   0  0  0  0  0  0  0  0  0  0  0  0
  -24.1600  -13.2440   21.3780 C   0  0  0  0  0  0  0  0  0  0  0  0
  -23.5420  -12.6380   22.3850 N   0  0  0  0  0  0  0  0  0  0  0  0
  -23.7270  -14.2960   20.9110 O   0  0  0  0  0  0  0  0  0  0  0  0
  -23.9040  -11.7910   22.7960 H   0  0  0  0  0  0  0  0  0  0  0  0
  -22.6920  -13.0400   22.7520 H   0  0  0  0  0  0  0  0  0  0  0  0
  -26.7540  -14.6560   20.1320 N   0  0  0  0  0  0  0  0  0  0  0  0
  -26.1040  -15.3810   20.4210 H   0  0  0  0  0  0  0  0  0  0  0  0
  -27.5500  -15.0250   19.6330 H   0  0  0  0  0  0  0  0  0  0  0  0
  -27.8130  -18.0210   20.9260 C   0  0  0  0  0  1  0  0  0  0  0  0
  -29.9070  -17.8920   22.2880 C   0  0  0  0  0  1  0  0  0  0  0  0
  -28.9510  -15.8620   21.3040 C   0  0  0  0  0  1  0  0  0  0  0  0
  -29.2030  -17.3530   21.0210 C   0  0  2  0  0  0  0  0  0  0  0  0
  -29.5710  -21.0780   17.6080 C   0  0  0  0  0  3  0  0  0  0  0  0
  -30.0710  -22.6530   17.6930 C   0  0  0  0  0  3  0  0  0  0  0  0
  -28.9820  -23.8740   17.4040 C   0  0  0  0  0  2  0  0  0  0  0  0
  -29.0120  -25.3160   17.9250 O   0  0  0  0  0  0  0  0  0  0  0  0
  -24.8550  -29.3320   22.4420 C   0  0  0  0  0  0  0  0  0  0  0  0
  -27.7960  -26.0370   18.1710 C   0  0  0  0  0  0  0  0  0  0  0  0
  -23.7090  -28.1730   20.5890 C   0  0  0  0  0  3  0  0  0  0  0  0
  -25.2220  -27.2560   18.7280 C   0  0  0  0  0  0  0  0  0  0  0  0
  -26.1530  -28.9210   20.3270 C   0  0  0  0  0  2  0  0  0  0  0  0
  -26.3710  -27.7550   19.3530 C   0  0  0  0  0  0  0  0  0  0  0  0
  -27.6520  -27.1580   19.0730 C   0  0  0  0  0  3  0  0  0  0  0  0
  -26.6020  -25.6320   17.5290 C   0  0  0  0  0  3  0  0  0  0  0  0
  -25.3460  -26.2080   17.8050 C   0  0  0  0  0  3  0  0  0  0  0  0
  -23.8800  -27.8770   19.0750 C   0  0  0  0  0  2  0  0  0  0  0  0
  -24.9280  -28.8180   21.1770 N   0  0  0  0  0  0  0  0  0  0  0  0
  -23.8020  -29.2960   23.0960 O   0  0  0  0  0  0  0  0  0  0  0  0
  -23.2970  -26.8680   21.3150 C   0  0  0  0  0  0  0  0  0  0  0  0
  -22.1180  -26.3200   20.9690 N   0  0  0  0  0  0  0  0  0  0  0  0
  -24.0450  -26.3560   22.1530 O   0  0  0  0  0  0  0  0  0  0  0  0
  -21.5580  -26.8000   20.2770 H   0  0  0  0  0  0  0  0  0  0  0  0
  -19.3810  -23.9760   20.6560 C   0  0  0  0  0  0  0  0  0  0  0  0
  -21.5680  -25.0710   21.4980 C   0  0  0  0  0  3  0  0  0  0  0  0
  -22.2930  -23.8470   20.8920 C   0  0  0  0  0  2  0  0  0  0  0  0
  -21.5980  -23.2890   19.6470 C   0  0  0  0  0  2  0  0  0  0  0  0
  -20.1610  -22.8670   19.9710 C   0  0  0  0  0  2  0  0  0  0  0  0
  -20.0410  -25.0190   21.3590 C   0  0  0  0  0  0  0  0  0  0  0  0
  -19.2680  -26.0420   21.9490 C   0  0  0  0  0  3  0  0  0  0  0  0
  -17.8640  -26.0350   21.8460 C   0  0  0  0  0  3  0  0  0  0  0  0
  -17.2150  -24.9930   21.1620 C   0  0  0  0  0  3  0  0  0  0  0  0
  -17.9730  -23.9650   20.5730 C   0  0  0  0  0  3  0  0  0  0  0  0
  -26.0870  -30.0090   23.1160 C   0  0  0  0  0  3  0  0  0  0  0  0
  -26.7310  -29.1270   24.2550 C   0  0  1  0  0  0  0  0  0  0  0  0
  -25.6980  -28.5710   25.2640 C   0  0  0  0  0  1  0  0  0  0  0  0
  -27.5030  -27.9260   23.6590 C   0  0  0  0  0  1  0  0  0  0  0  0
  -27.7670  -29.9630   25.0420 C   0  0  0  0  0  1  0  0  0  0  0  0
  -25.6430  -31.3030   23.6580 N   0  0  0  0  0  0  0  0  0  0  0  0
  -25.7540  -32.4760   23.0180 C   0  0  0  0  0  0  0  0  0  0  0  0
  -26.3100  -32.5900   21.9240 O   0  0  0  0  0  0  0  0  0  0  0  0
  -25.1300  -31.2770   24.5260 H   0  0  0  0  0  0  0  0  0  0  0  0
  -23.7760  -34.0310   23.0860 C   0  0  0  0  0  1  0  0  0  0  0  0
  -25.1500  -33.7200   23.7010 C   0  0  0  0  0  3  0  0  0  0  0  0
  -27.2250  -34.8180   24.4210 C   0  0  0  0  0  1  0  0  0  0  0  0
  -26.0140  -34.9170   23.6120 N   0  0  0  0  0  0  0  0  0  0  0  0
  -25.5060  -35.7500   23.9000 H   0  0  0  0  0  0  0  0  0  0  0  0
  1  3  1  0
  2  1  2  0
  3 50  1  0
  4  5  2  0
  4  2  1  0
  5  6  1  0
  6 17  1  0
  6  3  2  0
  7  4  1  0
  8  5  1  0
  9 17  1  0
  9 15  1  0
 10 15  1  0
 11 12  1  0
 11 10  1  0
 13 12  1  0
 13 22  1  0
 13 14  1  0
 15 14  1  0
 16  9  2  0
 17 18  1  0
 19 20  2  0
 20 39  1  0
 21 20  1  0
 21 24  1  0
 22 23  1  0
 22 19  1  0
 23 21  2  0
 24 25  1  0
 25 26  2  0
 27 30  1  0
 27 26  1  0
 28 27  2  0
 29 28  1  0
 29 24  2  0
 30 31  1  0
 31 32  2  0
 31 36  1  0
 32 33  1  0
 33 34  2  0
 34 38  1  0
 35 34  1  0
 36 35  2  0
 37 36  1  0
 39 40  1  0
 40 43  1  0
 40 42  1  0
 41 39  2  0
 44 19  1  0
 44 45  1  0
 46 44  1  0
 50 47  1  6
 50 49  1  0
 50 48  1  0
 51 52  2  0
 51  2  1  0
 53 52  1  0
 53 54  1  0
 54 56  1  0
 55 66  2  0
 56 61  1  0
 57 65  1  0
 57 67  1  0
 58 64  1  0
 58 60  1  0
 59 65  1  0
 60 59  1  0
 61 60  2  0
 62 63  1  0
 62 56  2  0
 63 58  2  0
 64 57  1  0
 65 55  1  0
 67 69  2  0
 68 67  1  0
 70 68  1  0
 71 76  1  0
 72 68  1  0
 73 72  1  0
 74 75  1  0
 74 73  1  0
 75 71  1  0
 76 72  1  0
 76 77  2  0
 78 77  1  0
 79 78  2  0
 80 71  2  0
 80 79  1  0
 81 55  1  0
 81 86  1  0
 81 82  1  0
 82 85  1  1
 82 83  1  0
 84 82  1  0
 86 89  1  0
 87 86  1  0
 87 91  1  0
 88 87  2  0
 91 90  1  0
 93 91  1  0
 93 94  1  0
 93 92  1  0
M  ISO  4   9 100  17 100  53 101  54 101
M  END
>  <TORSDO>  (4) 
F 20

>  <SCORE>  (4) 
-4.831

>  <name>  (4) 
3

>  <ligand_id>  (4) 
3

>  <original_smiles>  (4) 
[H]c1c([H])c([H])c2c(c1[H])C([H])([H])C([H])([H])C([H])([H])C2([H])N([H])C(=O)C1([H])N(C(=O)C([H])(N([H])C(=O)C([H])(N([H])C([H])([H])[H])C([H])([H])[H])C(C([H])([H])[H])(C([H])([H])[H])C([H])([H])[H])C([H])([H])c2c([H])c(OC([H])([H])C([H])([H])C([H])([H])c3c([H])c(C(C([H])([H])[H])(C([H])([H])[H])C([H])([H])[H])c(N([H])C(=O)N4C([H])([H])C([H])([H])C([H])([H])C([H])(n5nc(-c6c([H])c([H])c(Oc7c([H])c([H])c(F)c([H])c7F)c([H])c6[H])c(C(=O)N([H])[H])c5N([H])[H])C4([H])[H])c(C([H])([H])[H])c3C([H])([H])[H])c([H])c([H])c2C1([H])[H]

>  <smiles>  (4) 
[H]c1c([H])c([H])c2c(c1[H])C([H])([H])C([H])([H])C([H])([H])C2([H])N([H])C(=O)C1([H])N(C(=O)C([H])(N([H])C(=O)C([H])(N([H])C([H])([H])[H])C([H])([H])[H])C(C([H])([H])[H])(C([H])([H])[H])C([H])([H])[H])C([H])([H])c2c([H])c(OC([H])([H])C([H])([H])C([H])([H])c3c([H])c(C(C([H])([H])[H])(C([H])([H])[H])C([H])([H])[H])c(N([H])C(=O)N4C([H])([H])C([H])([H])C([H])([H])C([H])(n5nc(-c6c([H])c([H])c(Oc7c([H])c([H])c(F)c([H])c7F)c([H])c6[H])c(C(=O)N([H])[H])c5N([H])[H])C4([H])[H])c(C([H])([H])[H])c3C([H])([H])[H])c([H])c([H])c2C1([H])[H]

$$$$
4:0:0
     RDKit          3D

 92100  0  0  1  0  0  0  0  0999 V2000
  -29.7150  -20.5540   19.5010 C   0  0  0  0  0  0  0  0  0  0  0  0
  -30.3200  -19.3730   20.1990 C   0  0  0  0  0  0  0  0  0  0  0  0
  -29.8070  -21.7850   20.2160 C   0  0  0  0  0  0  0  0  0  0  0  0
  -30.7240  -20.0100   21.3620 C   0  0  0  0  0  0  0  0  0  0  0  0
  -29.1580  -20.4700   18.1020 C   0  0  0  0  0  1  0  0  0  0  0  0
  -30.4350  -21.3890   21.3670 O   0  0  0  0  0  0  0  0  0  0  0  0
  -30.9020  -18.2930   23.1860 C   0  0  0  0  0  1  0  0  0  0  0  0
  -31.6700  -20.6020   23.6400 C   0  0  0  0  0  1  0  0  0  0  0  0
  -32.9730  -19.1870   22.0700 C   0  0  0  0  0  1  0  0  0  0  0  0
  -31.5460  -19.5300   22.5390 C   0  0  2  0  0  0  0  0  0  0  0  0
  -30.6280  -17.8140   19.6210 C   0  0  0  0  0  2  0  0  0  0  0  0
  -30.9750  -15.1080   20.0130 C   0  0  0  0  0  0  0  0  0  0  0  0
  -30.7730  -12.7190   19.1720 C   0  0  0  0  0  2  0  0  0  0  0  0
  -29.8430  -12.6590   17.9380 C   0  0  0  0  0  2  0  0  0  0  0  0
  -28.3760  -12.4880   18.3790 C   0  0  0  0  0  2  0  0  0  0  0  0
  -27.9920  -13.4540   19.5310 C   0  0  0  0  0  3  0  0  0  0  0  0
  -29.0570  -13.4990   20.6500 C   0  0  0  0  0  2  0  0  0  0  0  0
  -30.3330  -13.8650   20.0230 N   0  0  0  0  0  0  0  0  0  0  0  0
  -32.1670  -15.1060   19.6900 O   0  0  0  0  0  0  0  0  0  0  0  0
  -30.2670  -16.3470   20.1330 N   0  0  0  0  0  0  0  0  0  0  0  0
  -29.3020  -16.2280   20.3910 H   0  0  0  0  0  0  0  0  0  0  0  0
  -25.6330  -14.0990   20.2900 C   0  0  0  0  0  0  0  0  0  0  0  0
  -24.5540  -13.3550   20.6770 C   0  0  0  0  0  0  0  0  0  0  0  0
  -24.9820  -11.9910   20.6500 C   0  0  0  0  0  0  0  0  0  0  0  0
  -26.6520  -13.1920   20.0440 N   0  0  0  0  0  0  0  0  0  0  0  0
  -26.2690  -11.9180   20.3250 N   0  0  0  0  0  0  0  0  0  0  0  0
  -24.2220  -10.7510   20.8610 C   0  0  0  0  0  0  0  0  0  0  0  0
  -24.6170   -9.7980   21.8260 C   0  0  0  0  0  3  0  0  0  0  0  0
  -23.8600   -8.6210   22.0230 C   0  0  0  0  0  3  0  0  0  0  0  0
  -22.6930   -8.3930   21.2550 C   0  0  0  0  0  0  0  0  0  0  0  0
  -22.3190   -9.3330   20.2790 C   0  0  0  0  0  3  0  0  0  0  0  0
  -23.0760  -10.5000   20.0810 C   0  0  0  0  0  3  0  0  0  0  0  0
  -21.9120   -7.2680   21.3580 O   0  0  0  0  0  0  0  0  0  0  0  0
  -21.7890   -6.5800   22.5370 C   0  0  0  0  0  0  0  0  0  0  0  0
  -21.3320   -7.2030   23.7190 C   0  0  0  0  0  3  0  0  0  0  0  0
  -21.1560   -6.4450   24.8950 C   0  0  0  0  0  3  0  0  0  0  0  0
  -21.4230   -5.0620   24.8870 C   0  0  0  0  0  0  0  0  0  0  0  0
  -21.8700   -4.4360   23.7090 C   0  0  0  0  0  3  0  0  0  0  0  0
  -22.0490   -5.1940   22.5370 C   0  0  0  0  0  0  0  0  0  0  0  0
  -22.4600   -4.5820   21.4010 F   0  0  0  0  0  0  0  0  0  0  0  0
  -21.2440   -4.3320   26.0120 F   0  0  0  0  0  0  0  0  0  0  0  0
  -23.1720  -13.8720   20.9550 C   0  0  0  0  0  0  0  0  0  0  0  0
  -22.4360  -13.2130   21.8450 N   0  0  0  0  0  0  0  0  0  0  0  0
  -22.7530  -14.8980   20.4200 O   0  0  0  0  0  0  0  0  0  0  0  0
  -22.7890  -12.3880   22.3040 H   0  0  0  0  0  0  0  0  0  0  0  0
  -21.5060  -13.5430   22.0700 H   0  0  0  0  0  0  0  0  0  0  0  0
  -25.8270  -15.4650   20.0980 N   0  0  0  0  0  0  0  0  0  0  0  0
  -25.0740  -16.1370   20.2010 H   0  0  0  0  0  0  0  0  0  0  0  0
  -26.6760  -15.8790   19.7370 H   0  0  0  0  0  0  0  0  0  0  0  0
  -29.6880  -23.4250   19.9140 C   0  0  0  0  0  3  0  0  0  0  0  0
  -28.5130  -24.6070   20.2760 C   0  0  0  0  0  3  0  0  0  0  0  0
  -28.6520  -26.1790   20.1520 O   0  0  0  0  0  0  0  0  0  0  0  0
  -24.6300  -31.6630   23.1070 C   0  0  0  0  0  0  0  0  0  0  0  0
  -27.5280  -27.1000   20.0970 C   0  0  0  0  0  0  0  0  0  0  0  0
  -23.5370  -30.2010   21.4530 C   0  0  0  0  0  3  0  0  0  0  0  0
  -25.0940  -28.7200   20.0410 C   0  0  0  0  0  0  0  0  0  0  0  0
  -26.0730  -30.6170   21.3170 C   0  0  0  0  0  2  0  0  0  0  0  0
  -26.2400  -29.2320   20.6600 C   0  0  0  0  0  0  0  0  0  0  0  0
  -27.4570  -28.4420   20.6660 C   0  0  0  0  0  3  0  0  0  0  0  0
  -26.3460  -26.6970   19.4380 C   0  0  0  0  0  3  0  0  0  0  0  0
  -25.1610  -27.4680   19.4110 C   0  0  0  0  0  3  0  0  0  0  0  0
  -23.8130  -29.5440   20.0770 C   0  0  0  0  0  2  0  0  0  0  0  0
  -24.7660  -30.8490   22.0140 N   0  0  0  0  0  0  0  0  0  0  0  0
  -23.5220  -31.8790   23.6220 O   0  0  0  0  0  0  0  0  0  0  0  0
  -22.9060  -29.1520   22.4040 C   0  0  0  0  0  0  0  0  0  0  0  0
  -21.5960  -28.8880   22.2460 N   0  0  0  0  0  0  0  0  0  0  0  0
  -23.5990  -28.5800   23.2480 O   0  0  0  0  0  0  0  0  0  0  0  0
  -21.0920  -29.4020   21.5360 H   0  0  0  0  0  0  0  0  0  0  0  0
  -18.3060  -27.4210   22.6440 C   0  0  0  0  0  0  0  0  0  0  0  0
  -20.8230  -27.8980   23.0030 C   0  0  0  0  0  3  0  0  0  0  0  0
  -21.0650  -26.4720   22.4590 C   0  0  0  0  0  2  0  0  0  0  0  0
  -20.0330  -26.0450   21.4100 C   0  0  0  0  0  2  0  0  0  0  0  0
  -18.6210  -26.0830   21.9980 C   0  0  0  0  0  2  0  0  0  0  0  0
  -19.3410  -28.2810   23.1030 C   0  0  0  0  0  0  0  0  0  0  0  0
  -18.9950  -29.5270   23.6680 C   0  0  0  0  0  3  0  0  0  0  0  0
  -17.6480  -29.9190   23.7810 C   0  0  0  0  0  3  0  0  0  0  0  0
  -16.6270  -29.0570   23.3410 C   0  0  0  0  0  3  0  0  0  0  0  0
  -16.9570  -27.8120   22.7770 C   0  0  0  0  0  3  0  0  0  0  0  0
  -25.8570  -32.3740   23.7510 C   0  0  0  0  0  3  0  0  0  0  0  0
  -26.4030  -31.6250   25.0300 C   0  0  1  0  0  0  0  0  0  0  0  0
  -25.3130  -31.3180   26.0850 C   0  0  0  0  0  1  0  0  0  0  0  0
  -27.0710  -30.2870   24.6400 C   0  0  0  0  0  1  0  0  0  0  0  0
  -27.5010  -32.4790   25.7080 C   0  0  0  0  0  1  0  0  0  0  0  0
  -25.4530  -33.7460   24.0960 N   0  0  0  0  0  0  0  0  0  0  0  0
  -25.7300  -34.8320   23.3640 C   0  0  0  0  0  0  0  0  0  0  0  0
  -26.4200  -34.7880   22.3410 O   0  0  0  0  0  0  0  0  0  0  0  0
  -24.8330  -33.8510   24.8860 H   0  0  0  0  0  0  0  0  0  0  0  0
  -23.8950  -36.5200   23.0260 C   0  0  0  0  0  1  0  0  0  0  0  0
  -25.1540  -36.1810   23.8390 C   0  0  0  0  0  3  0  0  0  0  0  0
  -27.2260  -37.1840   24.6950 C   0  0  0  0  0  1  0  0  0  0  0  0
  -26.1210  -37.3000   23.7470 N   0  0  0  0  0  0  0  0  0  0  0  0
  -25.6570  -38.1900   23.9070 H   0  0  0  0  0  0  0  0  0  0  0  0
  1  2  1  0
  1  3  2  0
  2  4  2  0
  3  6  1  0
  4  6  1  0
  4 10  1  0
  5  1  1  0
 10  9  1  6
 10  7  1  0
 10  8  1  0
 11 20  1  0
 11  2  1  0
 12 18  1  0
 12 20  1  0
 13 18  1  0
 14 15  1  0
 14 13  1  0
 16 15  1  0
 16 25  1  0
 16 17  1  0
 18 17  1  0
 19 12  2  0
 20 21  1  0
 22 23  2  0
 23 42  1  0
 24 23  1  0
 24 27  1  0
 25 22  1  0
 25 26  1  0
 26 24  2  0
 27 28  1  0
 28 29  2  0
 30 33  1  0
 30 29  1  0
 31 30  2  0
 32 31  1  0
 32 27  2  0
 33 34  1  0
 34 39  2  0
 34 35  1  0
 35 36  2  0
 37 36  1  0
 37 41  1  0
 38 37  2  0
 39 38  1  0
 40 39  1  0
 42 43  1  0
 43 46  1  0
 43 45  1  0
 44 42  2  0
 47 48  1  0
 47 22  1  0
 49 47  1  0
 50  3  1  0
 50 51  2  0
 52 51  1  0
 53 64  2  0
 54 52  1  0
 54 59  1  0
 55 63  1  0
 55 65  1  0
 56 62  1  0
 56 58  1  0
 57 63  1  0
 58 59  2  0
 58 57  1  0
 60 54  2  0
 61 60  1  0
 61 56  2  0
 62 55  1  0
 63 53  1  0
 65 67  2  0
 66 65  1  0
 68 66  1  0
 69 78  2  0
 69 74  1  0
 70 66  1  0
 70 74  1  0
 71 70  1  0
 72 73  1  0
 72 71  1  0
 73 69  1  0
 74 75  2  0
 75 76  1  0
 77 76  2  0
 78 77  1  0
 79 53  1  0
 79 84  1  0
 79 80  1  0
 80 83  1  1
 80 81  1  0
 82 80  1  0
 84 87  1  0
 85 89  1  0
 85 84  1  0
 86 85  2  0
 89 88  1  0
 91 89  1  0
 91 92  1  0
 91 90  1  0
M  ISO  4  12 100  20 100  51 101  52 101
M  END
>  <TORSDO>  (5) 
F 20

>  <SCORE>  (5) 
-13.811

>  <name>  (5) 
4

>  <ligand_id>  (5) 
4

>  <original_smiles>  (5) 
[H]c1c([H])c([H])c2c(c1[H])C([H])([H])C([H])([H])C([H])([H])C2([H])N([H])C(=O)C1([H])N(C(=O)C([H])(N([H])C(=O)C([H])(N([H])C([H])([H])[H])C([H])([H])[H])C(C([H])([H])[H])(C([H])([H])[H])C([H])([H])[H])C([H])([H])c2c([H])c(OC([H])([H])C([H])([H])c3oc(C(C([H])([H])[H])(C([H])([H])[H])C([H])([H])[H])c(C([H])([H])N([H])C(=O)N4C([H])([H])C([H])([H])C([H])([H])C([H])(n5nc(-c6c([H])c([H])c(Oc7c([H])c([H])c(F)c([H])c7F)c([H])c6[H])c(C(=O)N([H])[H])c5N([H])[H])C4([H])[H])c3C([H])([H])[H])c([H])c([H])c2C1([H])[H]

>  <smiles>  (5) 
[H]c1c([H])c([H])c2c(c1[H])C([H])([H])C([H])([H])C([H])([H])C2([H])N([H])C(=O)C1([H])N(C(=O)C([H])(N([H])C(=O)C([H])(N([H])C([H])([H])[H])C([H])([H])[H])C(C([H])([H])[H])(C([H])([H])[H])C([H])([H])[H])C([H])([H])c2c([H])c(OC([H])([H])C([H])([H])c3oc(C(C([H])([H])[H])(C([H])([H])[H])C([H])([H])[H])c(C([H])([H])N([H])C(=O)N4C([H])([H])C([H])([H])C([H])([H])C([H])(n5nc(-c6c([H])c([H])c(Oc7c([H])c([H])c(F)c([H])c7F)c([H])c6[H])c(C(=O)N([H])[H])c5N([H])[H])C4([H])[H])c3C([H])([H])[H])c([H])c([H])c2C1([H])[H]

$$$$
5:0:0
     RDKit          3D

 89 97  0  0  1  0  0  0  0  0999 V2000
  -29.8720  -19.4110   19.7370 C   0  0  0  0  0  0  0  0  0  0  0  0
  -28.9670  -20.6840   19.7980 C   0  0  0  0  0  0  0  0  0  0  0  0
  -29.2310  -18.1040   19.9420 C   0  0  0  0  0  0  0  0  0  0  0  0
  -27.8130  -20.0640   20.0950 N   0  0  0  0  0  0  0  0  0  0  0  0
  -27.9400  -18.6580   20.1210 N   0  0  0  0  0  0  0  0  0  0  0  0
  -31.5680  -19.5330   19.4440 Cl  0  0  0  0  0  0  0  0  0  0  0  0
  -30.3270  -15.3680   19.7980 C   0  0  0  0  0  0  0  0  0  0  0  0
  -30.4030  -12.8520   19.0330 C   0  0  0  0  0  2  0  0  0  0  0  0
  -29.4280  -12.5060   17.8750 C   0  0  0  0  0  2  0  0  0  0  0  0
  -28.0180  -12.1950   18.4090 C   0  0  0  0  0  2  0  0  0  0  0  0
  -27.5870  -13.2000   19.5040 C   0  0  0  0  0  3  0  0  0  0  0  0
  -28.6870  -13.4540   20.5570 C   0  0  0  0  0  2  0  0  0  0  0  0
  -29.8460  -14.0130   19.8330 N   0  0  0  0  0  0  0  0  0  0  0  0
  -31.5340  -15.4080   19.5030 O   0  0  0  0  0  0  0  0  0  0  0  0
  -29.4390  -16.5780   19.9150 N   0  0  0  0  0  0  0  0  0  0  0  0
  -28.5490  -16.1720   20.1500 H   0  0  0  0  0  0  0  0  0  0  0  0
  -25.2820  -13.7370   20.4410 C   0  0  0  0  0  0  0  0  0  0  0  0
  -24.2480  -12.9550   20.8710 C   0  0  0  0  0  0  0  0  0  0  0  0
  -24.7040  -11.6050   20.7670 C   0  0  0  0  0  0  0  0  0  0  0  0
  -26.3000  -12.8670   20.0990 N   0  0  0  0  0  0  0  0  0  0  0  0
  -25.9710  -11.5760   20.3620 N   0  0  0  0  0  0  0  0  0  0  0  0
  -23.9840  -10.3410   20.9690 C   0  0  0  0  0  0  0  0  0  0  0  0
  -24.4480   -9.3620   21.8760 C   0  0  0  0  0  3  0  0  0  0  0  0
  -23.7250   -8.1650   22.0690 C   0  0  0  0  0  3  0  0  0  0  0  0
  -22.5220   -7.9390   21.3560 C   0  0  0  0  0  0  0  0  0  0  0  0
  -22.0770   -8.9070   20.4380 C   0  0  0  0  0  3  0  0  0  0  0  0
  -22.8010  -10.0950   20.2430 C   0  0  0  0  0  3  0  0  0  0  0  0
  -21.7670   -6.7960   21.4610 O   0  0  0  0  0  0  0  0  0  0  0  0
  -21.7120   -6.0750   22.6270 C   0  0  0  0  0  0  0  0  0  0  0  0
  -21.2780   -6.6520   23.8400 C   0  0  0  0  0  3  0  0  0  0  0  0
  -21.1700   -5.8570   24.9980 C   0  0  0  0  0  3  0  0  0  0  0  0
  -21.4850   -4.4870   24.9440 C   0  0  0  0  0  0  0  0  0  0  0  0
  -21.9120   -3.9090   23.7360 C   0  0  0  0  0  3  0  0  0  0  0  0
  -22.0210   -4.7010   22.5800 C   0  0  0  0  0  0  0  0  0  0  0  0
  -22.4130   -4.1340   21.4130 F   0  0  0  0  0  0  0  0  0  0  0  0
  -21.3740   -3.7210   26.0560 F   0  0  0  0  0  0  0  0  0  0  0  0
  -22.8760  -13.4310   21.2480 C   0  0  0  0  0  0  0  0  0  0  0  0
  -22.2100  -12.7260   22.1560 N   0  0  0  0  0  0  0  0  0  0  0  0
  -22.4060  -14.4640   20.7730 O   0  0  0  0  0  0  0  0  0  0  0  0
  -22.6060  -11.8900   22.5600 H   0  0  0  0  0  0  0  0  0  0  0  0
  -21.2930  -13.0270   22.4520 H   0  0  0  0  0  0  0  0  0  0  0  0
  -25.4290  -15.1090   20.2720 N   0  0  0  0  0  0  0  0  0  0  0  0
  -24.6340  -15.7250   20.3950 H   0  0  0  0  0  0  0  0  0  0  0  0
  -26.1550  -15.5170   19.7020 H   0  0  0  0  0  0  0  0  0  0  0  0
  -25.6540  -18.1230   19.2810 C   0  0  0  0  0  1  0  0  0  0  0  0
  -26.7080  -17.9230   20.3840 C   0  0  0  0  0  2  0  0  0  0  0  0
  -29.0920  -22.4880   19.8490 C   0  0  0  0  0  3  0  0  0  0  0  0
  -28.0530  -24.0000   19.5730 C   0  0  0  0  0  3  0  0  0  0  0  0
  -28.2330  -25.6770   19.7660 O   0  0  0  0  0  0  0  0  0  0  0  0
  -24.6360  -31.6040   22.9690 C   0  0  0  0  0  0  0  0  0  0  0  0
  -27.2150  -26.7980   19.7630 C   0  0  0  0  0  0  0  0  0  0  0  0
  -23.4500  -30.2630   21.2820 C   0  0  0  0  0  3  0  0  0  0  0  0
  -24.9060  -28.7090   19.7970 C   0  0  0  0  0  0  0  0  0  0  0  0
  -26.0190  -30.4770   21.1420 C   0  0  0  0  0  2  0  0  0  0  0  0
  -26.0960  -29.0870   20.4300 C   0  0  0  0  0  0  0  0  0  0  0  0
  -27.2410  -28.1560   20.3840 C   0  0  0  0  0  3  0  0  0  0  0  0
  -25.9880  -26.5930   19.0900 C   0  0  0  0  0  3  0  0  0  0  0  0
  -24.8800  -27.4870   19.1050 C   0  0  0  0  0  3  0  0  0  0  0  0
  -23.6830  -29.6280   19.8810 C   0  0  0  0  0  2  0  0  0  0  0  0
  -24.7250  -30.8090   21.8510 N   0  0  0  0  0  0  0  0  0  0  0  0
  -23.5450  -31.8680   23.5010 O   0  0  0  0  0  0  0  0  0  0  0  0
  -22.7590  -29.2330   22.2140 C   0  0  0  0  0  0  0  0  0  0  0  0
  -21.4250  -29.0840   22.1050 N   0  0  0  0  0  0  0  0  0  0  0  0
  -23.4320  -28.5660   23.0030 O   0  0  0  0  0  0  0  0  0  0  0  0
  -20.9340  -29.6730   21.4460 H   0  0  0  0  0  0  0  0  0  0  0  0
  -18.0380  -27.8960   22.6490 C   0  0  0  0  0  0  0  0  0  0  0  0
  -20.6090  -28.1140   22.8450 C   0  0  0  0  0  3  0  0  0  0  0  0
  -20.6700  -26.7180   22.1840 C   0  0  0  0  0  2  0  0  0  0  0  0
  -19.5330  -26.4700   21.1870 C   0  0  0  0  0  2  0  0  0  0  0  0
  -18.1740  -26.5910   21.8840 C   0  0  0  0  0  2  0  0  0  0  0  0
  -19.1800  -28.6190   23.0870 C   0  0  0  0  0  0  0  0  0  0  0  0
  -18.9950  -29.8410   23.7690 C   0  0  0  0  0  3  0  0  0  0  0  0
  -17.7030  -30.3410   24.0140 C   0  0  0  0  0  3  0  0  0  0  0  0
  -16.5760  -29.6160   23.5900 C   0  0  0  0  0  3  0  0  0  0  0  0
  -16.7450  -28.3940   22.9140 C   0  0  0  0  0  3  0  0  0  0  0  0
  -25.9010  -32.2360   23.6250 C   0  0  0  0  0  3  0  0  0  0  0  0
  -26.4130  -31.4300   24.8830 C   0  0  1  0  0  0  0  0  0  0  0  0
  -25.3160  -31.1620   25.9410 C   0  0  0  0  0  1  0  0  0  0  0  0
  -26.9980  -30.0630   24.4630 C   0  0  0  0  0  1  0  0  0  0  0  0
  -27.5620  -32.2050   25.5700 C   0  0  0  0  0  1  0  0  0  0  0  0
  -25.5700  -33.6190   24.0160 N   0  0  0  0  0  0  0  0  0  0  0  0
  -25.8920  -34.7160   23.3170 C   0  0  0  0  0  0  0  0  0  0  0  0
  -26.5600  -34.6690   22.2790 O   0  0  0  0  0  0  0  0  0  0  0  0
  -24.9750  -33.7280   24.8250 H   0  0  0  0  0  0  0  0  0  0  0  0
  -24.1420  -36.5120   23.0770 C   0  0  0  0  0  1  0  0  0  0  0  0
  -25.4000  -36.0780   23.8470 C   0  0  0  0  0  3  0  0  0  0  0  0
  -27.5380  -36.9500   24.6860 C   0  0  0  0  0  1  0  0  0  0  0  0
  -26.4200  -37.1480   23.7680 N   0  0  0  0  0  0  0  0  0  0  0  0
  -26.0060  -38.0550   23.9650 H   0  0  0  0  0  0  0  0  0  0  0  0
  1  2  1  0
  1  3  2  0
  2 47  1  0
  2  4  2  0
  3  5  1  0
  4  5  1  0
  5 46  1  0
  6  1  1  0
  7 13  1  0
  7 15  1  0
  8 13  1  0
  9 10  1  0
  9  8  1  0
 11 10  1  0
 11 20  1  0
 11 12  1  0
 13 12  1  0
 14  7  2  0
 15  3  1  0
 15 16  1  0
 17 18  2  0
 18 37  1  0
 19 18  1  0
 19 22  1  0
 20 21  1  0
 20 17  1  0
 21 19  2  0
 22 23  1  0
 23 24  2  0
 25 28  1  0
 25 24  1  0
 26 25  2  0
 27 26  1  0
 27 22  2  0
 28 29  1  0
 29 30  1  0
 30 31  2  0
 32 31  1  0
 32 36  1  0
 33 32  2  0
 34 29  2  0
 34 33  1  0
 35 34  1  0
 37 38  1  0
 38 41  1  0
 38 40  1  0
 39 37  2  0
 42 43  1  0
 42 17  1  0
 44 42  1  0
 45 46  1  0
 48 49  1  0
 48 47  2  0
 50 61  2  0
 51 49  1  0
 51 56  1  0
 52 60  1  0
 52 62  1  0
 53 59  1  0
 53 55  1  0
 54 60  1  0
 55 54  1  0
 56 55  2  0
 57 58  1  0
 57 51  2  0
 58 53  2  0
 59 52  1  0
 60 50  1  0
 62 64  2  0
 63 62  1  0
 65 63  1  0
 66 75  2  0
 66 71  1  0
 67 63  1  0
 67 71  1  0
 68 67  1  0
 69 70  1  0
 69 68  1  0
 70 66  1  0
 71 72  2  0
 72 73  1  0
 74 73  2  0
 75 74  1  0
 76 50  1  0
 76 81  1  0
 76 77  1  0
 77 80  1  1
 77 78  1  0
 79 77  1  0
 81 84  1  0
 82 86  1  0
 82 81  1  0
 83 82  2  0
 86 85  1  0
 88 86  1  0
 88 89  1  0
 88 87  1  0
M  ISO  4   7 100  15 100  48 101  49 101
M  END
>  <TORSDO>  (6) 
F 19

>  <SCORE>  (6) 
-14.392

>  <name>  (6) 
5

>  <ligand_id>  (6) 
5

>  <original_smiles>  (6) 
[H]c1c([H])c([H])c2c(c1[H])C([H])([H])C([H])([H])C([H])([H])C2([H])N([H])C(=O)C1([H])N(C(=O)C([H])(N([H])C(=O)C([H])(N([H])C([H])([H])[H])C([H])([H])[H])C(C([H])([H])[H])(C([H])([H])[H])C([H])([H])[H])C([H])([H])c2c([H])c(OC([H])([H])C([H])([H])c3nn(C([H])([H])C([H])([H])[H])c(N([H])C(=O)N4C([H])([H])C([H])([H])C([H])([H])C([H])(n5nc(-c6c([H])c([H])c(Oc7c([H])c([H])c(F)c([H])c7F)c([H])c6[H])c(C(=O)N([H])[H])c5N([H])[H])C4([H])[H])c3Cl)c([H])c([H])c2C1([H])[H]

>  <smiles>  (6) 
[H]c1c([H])c([H])c2c(c1[H])C([H])([H])C([H])([H])C([H])([H])C2([H])N([H])C(=O)C1([H])N(C(=O)C([H])(N([H])C(=O)C([H])(N([H])C([H])([H])[H])C([H])([H])[H])C(C([H])([H])[H])(C([H])([H])[H])C([H])([H])[H])C([H])([H])c2c([H])c(OC([H])([H])C([H])([H])c3nn(C([H])([H])C([H])([H])[H])c(N([H])C(=O)N4C([H])([H])C([H])([H])C([H])([H])C([H])(n5nc(-c6c([H])c([H])c(Oc7c([H])c([H])c(F)c([H])c7F)c([H])c6[H])c(C(=O)N([H])[H])c5N([H])[H])C4([H])[H])c3Cl)c([H])c([H])c2C1([H])[H]

$$$$
6:0:0
     RDKit          3D

 96104  0  0  1  0  0  0  0  0999 V2000
  -28.1270  -20.1600   19.2910 C   0  0  0  0  0  3  0  0  0  0  0  0
  -27.8430  -18.8410   18.8780 C   0  0  0  0  0  0  0  0  0  0  0  0
  -29.1230  -20.4870   20.2330 C   0  0  0  0  0  0  0  0  0  0  0  0
  -29.4510  -17.8370   20.4990 C   0  0  0  0  0  0  0  0  0  0  0  0
  -28.5310  -17.7100   19.4110 C   0  0  0  0  0  0  0  0  0  0  0  0
  -29.7480  -19.2660   20.8660 C   0  0  0  0  0  0  0  0  0  0  0  0
  -26.7250  -18.6950   17.8520 C   0  0  0  0  0  1  0  0  0  0  0  0
  -30.8970  -19.4890   22.1340 Cl  0  0  0  0  0  0  0  0  0  0  0  0
  -30.6350  -15.3900   21.2640 C   0  0  0  0  0  0  0  0  0  0  0  0
  -30.8230  -12.9380   20.6100 C   0  0  0  0  0  2  0  0  0  0  0  0
  -30.1020  -12.7090   19.2570 C   0  0  0  0  0  2  0  0  0  0  0  0
  -28.5950  -12.4720   19.4720 C   0  0  0  0  0  2  0  0  0  0  0  0
  -27.9750  -13.4820   20.4700 C   0  0  0  0  0  3  0  0  0  0  0  0
  -28.8250  -13.6290   21.7480 C   0  0  0  0  0  2  0  0  0  0  0  0
  -30.1540  -14.0750   21.3100 N   0  0  0  0  0  0  0  0  0  0  0  0
  -31.8610  -15.5170   21.1740 O   0  0  0  0  0  0  0  0  0  0  0  0
  -29.7220  -16.4950   21.2520 N   0  0  0  0  0  0  0  0  0  0  0  0
  -28.8280  -16.0840   21.4550 H   0  0  0  0  0  0  0  0  0  0  0  0
  -25.5160  -14.1080   20.8050 C   0  0  0  0  0  0  0  0  0  0  0  0
  -24.3960  -13.3430   21.0000 C   0  0  0  0  0  0  0  0  0  0  0  0
  -24.8490  -11.9890   21.0500 C   0  0  0  0  0  0  0  0  0  0  0  0
  -26.5710  -13.2130   20.7460 N   0  0  0  0  0  0  0  0  0  0  0  0
  -26.1700  -11.9370   20.9580 N   0  0  0  0  0  0  0  0  0  0  0  0
  -24.0970  -10.7300   21.1210 C   0  0  0  0  0  0  0  0  0  0  0  0
  -24.4030   -9.7390   22.0790 C   0  0  0  0  0  3  0  0  0  0  0  0
  -23.6570   -8.5420   22.1360 C   0  0  0  0  0  3  0  0  0  0  0  0
  -22.5900   -8.3300   21.2310 C   0  0  0  0  0  0  0  0  0  0  0  0
  -22.3070   -9.3070   20.2630 C   0  0  0  0  0  3  0  0  0  0  0  0
  -23.0540  -10.4960   20.2040 C   0  0  0  0  0  3  0  0  0  0  0  0
  -21.8230   -7.1910   21.2010 O   0  0  0  0  0  0  0  0  0  0  0  0
  -21.6160   -6.4310   22.3240 C   0  0  0  0  0  0  0  0  0  0  0  0
  -21.0360   -6.9740   23.4920 C   0  0  0  0  0  3  0  0  0  0  0  0
  -20.7790   -6.1440   24.6020 C   0  0  0  0  0  3  0  0  0  0  0  0
  -21.0870   -4.7720   24.5400 C   0  0  0  0  0  0  0  0  0  0  0  0
  -21.6540   -4.2260   23.3750 C   0  0  0  0  0  3  0  0  0  0  0  0
  -21.9150   -5.0550   22.2690 C   0  0  0  0  0  0  0  0  0  0  0  0
  -22.4470   -4.5220   21.1420 F   0  0  0  0  0  0  0  0  0  0  0  0
  -20.8280   -3.9710   25.5990 F   0  0  0  0  0  0  0  0  0  0  0  0
  -22.9750  -13.8260   21.0290 C   0  0  0  0  0  0  0  0  0  0  0  0
  -22.1170  -13.1480   21.7860 N   0  0  0  0  0  0  0  0  0  0  0  0
  -22.6280  -14.8350   20.4210 O   0  0  0  0  0  0  0  0  0  0  0  0
  -22.4120  -12.3310   22.2980 H   0  0  0  0  0  0  0  0  0  0  0  0
  -21.1580  -13.4540   21.8590 H   0  0  0  0  0  0  0  0  0  0  0  0
  -25.7320  -15.4730   20.6390 N   0  0  0  0  0  0  0  0  0  0  0  0
  -24.9870  -16.1600   20.6360 H   0  0  0  0  0  0  0  0  0  0  0  0
  -26.6080  -15.8450   20.2900 H   0  0  0  0  0  0  0  0  0  0  0  0
  -31.0320  -22.3150   20.2740 C   0  0  0  0  0  1  0  0  0  0  0  0
  -29.5110  -22.1210   20.2260 C   0  0  0  0  0  3  0  0  0  0  0  0
  -29.3490  -23.9260   22.1550 C   0  0  0  0  0  1  0  0  0  0  0  0
  -27.2390  -23.1130   21.1220 C   0  0  0  0  0  1  0  0  0  0  0  0
  -28.6940  -23.5110   20.8180 C   0  0  2  0  0  0  0  0  0  0  0  0
  -28.6500  -24.9720   19.9470 C   0  0  0  0  0  2  0  0  0  0  0  0
  -28.6630  -26.4580   20.4480 O   0  0  0  0  0  0  0  0  0  0  0  0
  -25.0880  -32.0130   23.6980 C   0  0  0  0  0  0  0  0  0  0  0  0
  -27.6110  -27.4440   20.3880 C   0  0  0  0  0  0  0  0  0  0  0  0
  -23.8800  -30.7330   21.9720 C   0  0  0  0  0  3  0  0  0  0  0  0
  -25.3100  -29.2240   20.4560 C   0  0  0  0  0  0  0  0  0  0  0  0
  -26.4310  -30.9690   21.8360 C   0  0  0  0  0  2  0  0  0  0  0  0
  -26.4870  -29.6170   21.1000 C   0  0  0  0  0  0  0  0  0  0  0  0
  -27.6310  -28.7360   21.0610 C   0  0  0  0  0  3  0  0  0  0  0  0
  -26.4110  -27.1580   19.7060 C   0  0  0  0  0  3  0  0  0  0  0  0
  -25.2820  -28.0070   19.7510 C   0  0  0  0  0  3  0  0  0  0  0  0
  -24.0960  -30.1330   20.5550 C   0  0  0  0  0  2  0  0  0  0  0  0
  -25.1540  -31.2580   22.5590 N   0  0  0  0  0  0  0  0  0  0  0  0
  -24.0030  -32.2820   24.2380 O   0  0  0  0  0  0  0  0  0  0  0  0
  -23.1800  -29.6850   22.8730 C   0  0  0  0  0  0  0  0  0  0  0  0
  -21.8770  -29.4510   22.6480 N   0  0  0  0  0  0  0  0  0  0  0  0
  -23.8180  -29.0820   23.7400 O   0  0  0  0  0  0  0  0  0  0  0  0
  -21.4140  -30.0000   21.9370 H   0  0  0  0  0  0  0  0  0  0  0  0
  -18.5670  -27.9840   22.7920 C   0  0  0  0  0  0  0  0  0  0  0  0
  -21.0490  -28.4630   23.3460 C   0  0  0  0  0  3  0  0  0  0  0  0
  -21.3300  -27.0330   22.8290 C   0  0  0  0  0  2  0  0  0  0  0  0
  -20.3830  -26.6010   21.7060 C   0  0  0  0  0  2  0  0  0  0  0  0
  -18.9280  -26.6430   22.1790 C   0  0  0  0  0  2  0  0  0  0  0  0
  -19.5620  -28.8450   23.3250 C   0  0  0  0  0  0  0  0  0  0  0  0
  -19.1750  -30.0950   23.8530 C   0  0  0  0  0  3  0  0  0  0  0  0
  -17.8230  -30.4850   23.8600 C   0  0  0  0  0  3  0  0  0  0  0  0
  -16.8390  -29.6230   23.3440 C   0  0  0  0  0  3  0  0  0  0  0  0
  -17.2120  -28.3760   22.8140 C   0  0  0  0  0  3  0  0  0  0  0  0
  -26.3700  -32.5930   24.3650 C   0  0  0  0  0  3  0  0  0  0  0  0
  -26.1010  -33.9960   24.7160 N   0  0  0  0  0  0  0  0  0  0  0  0
  -26.5100  -35.0550   24.0050 C   0  0  0  0  0  0  0  0  0  0  0  0
  -27.2160  -34.9500   22.9990 O   0  0  0  0  0  0  0  0  0  0  0  0
  -25.4830  -34.1560   25.4990 H   0  0  0  0  0  0  0  0  0  0  0  0
  -24.8720  -36.9320   23.6380 C   0  0  0  0  0  1  0  0  0  0  0  0
  -26.0620  -36.4520   24.4840 C   0  0  0  0  0  3  0  0  0  0  0  0
  -28.1930  -37.2250   25.4260 C   0  0  0  0  0  1  0  0  0  0  0  0
  -27.1400  -37.4640   24.4450 N   0  0  0  0  0  0  0  0  0  0  0  0
  -26.7650  -38.3940   24.6070 H   0  0  0  0  0  0  0  0  0  0  0  0
  -26.8210  -31.7880   25.6450 C   0  0  1  0  0  0  0  0  0  0  0  0
  -25.6780  -31.5440   26.6570 C   0  0  0  0  0  1  0  0  0  0  0  0
  -27.4050  -30.4140   25.2490 C   0  0  0  0  0  1  0  0  0  0  0  0
  -27.9500  -32.5520   26.3770 C   0  0  0  0  0  1  0  0  0  0  0  0
  -28.2290  -16.4370   18.9760 O   0  0  0  0  0  0  0  0  0  0  0  0
  -30.4910  -15.8570   18.1220 C   0  0  0  0  0  1  0  0  0  0  0  0
  -28.9750  -15.8480   17.8980 C   0  0  0  0  0  2  0  0  0  0  0  0
  1  3  1  0
  2  1  2  0
  2  5  1  0
  3  6  2  0
  4  6  1  0
  4 17  1  0
  5  4  2  0
  6  8  1  0
  7  2  1  0
  9 15  1  0
 10 15  1  0
 11 12  1  0
 11 10  1  0
 13 12  1  0
 13 22  1  0
 13 14  1  0
 15 14  1  0
 16  9  2  0
 17  9  1  0
 17 18  1  0
 19 20  2  0
 20 39  1  0
 20 21  1  0
 21 24  1  0
 22 19  1  0
 22 23  1  0
 23 21  2  0
 24 25  1  0
 25 26  2  0
 27 26  1  0
 28 27  2  0
 29 28  1  0
 29 24  2  0
 30 27  1  0
 30 31  1  0
 31 32  1  0
 32 33  2  0
 34 33  1  0
 34 38  1  0
 35 34  2  0
 36 31  2  0
 36 35  1  0
 37 36  1  0
 39 40  1  0
 40 43  1  0
 40 42  1  0
 41 39  2  0
 44 19  1  0
 45 44  1  0
 46 44  1  0
 48  3  1  0
 48 47  1  0
 48 51  1  0
 51 50  1  1
 51 49  1  0
 52 53  1  0
 52 51  1  0
 54 65  2  0
 55 53  1  0
 55 60  1  0
 56 64  1  0
 56 66  1  0
 57 63  1  0
 57 59  1  0
 58 64  1  0
 59 58  1  0
 60 59  2  0
 61 62  1  0
 61 55  2  0
 62 57  2  0
 63 56  1  0
 64 54  1  0
 66 68  2  0
 67 66  1  0
 69 67  1  0
 70 79  2  0
 70 75  1  0
 71 67  1  0
 72 71  1  0
 73 74  1  0
 73 72  1  0
 74 70  1  0
 75 71  1  0
 75 76  2  0
 76 77  1  0
 78 77  2  0
 79 78  1  0
 80 54  1  0
 80 81  1  0
 80 90  1  0
 81 84  1  0
 82 86  1  0
 82 81  1  0
 83 82  2  0
 86 85  1  0
 88 86  1  0
 88 89  1  0
 88 87  1  0
 90 93  1  1
 90 91  1  0
 92 90  1  0
 94  5  1  0
 96 95  1  0
 96 94  1  0
M  ISO  4   9 100  17 100  52 101  53 101
M  END
>  <TORSDO>  (7) 
F 21

>  <SCORE>  (7) 
-10.506

>  <name>  (7) 
6

>  <ligand_id>  (7) 
6

>  <original_smiles>  (7) 
[H]c1c([H])c([H])c2c(c1[H])C([H])([H])C([H])([H])C([H])([H])C2([H])N([H])C(=O)C1([H])N(C(=O)C([H])(N([H])C(=O)C([H])(N([H])C([H])([H])[H])C([H])([H])[H])C(C([H])([H])[H])(C([H])([H])[H])C([H])([H])[H])C([H])([H])c2c([H])c(OC([H])([H])C(C([H])([H])[H])(C([H])([H])[H])C([H])(c3c([H])c(C([H])([H])[H])c(OC([H])([H])C([H])([H])[H])c(N([H])C(=O)N4C([H])([H])C([H])([H])C([H])([H])C([H])(n5nc(-c6c([H])c([H])c(Oc7c([H])c([H])c(F)c([H])c7F)c([H])c6[H])c(C(=O)N([H])[H])c5N([H])[H])C4([H])[H])c3Cl)C([H])([H])[H])c([H])c([H])c2C1([H])[H]

>  <smiles>  (7) 
[H]c1c([H])c([H])c2c(c1[H])C([H])([H])C([H])([H])C([H])([H])C2([H])N([H])C(=O)C1([H])N(C(=O)C([H])(N([H])C(=O)C([H])(N([H])C([H])([H])[H])C([H])([H])[H])C(C([H])([H])[H])(C([H])([H])[H])C([H])([H])[H])C([H])([H])c2c([H])c(OC([H])([H])C(C([H])([H])[H])(C([H])([H])[H])C([H])(c3c([H])c(C([H])([H])[H])c(OC([H])([H])C([H])([H])[H])c(N([H])C(=O)N4C([H])([H])C([H])([H])C([H])([H])C([H])(n5nc(-c6c([H])c([H])c(Oc7c([H])c([H])c(F)c([H])c7F)c([H])c6[H])c(C(=O)N([H])[H])c5N([H])[H])C4([H])[H])c3Cl)C([H])([H])[H])c([H])c([H])c2C1([H])[H]

$$$$
7:0:0
     RDKit          3D

 96104  0  0  1  0  0  0  0  0999 V2000
  -27.9050  -24.2190   20.5700 C   0  0  0  0  0  3  0  0  0  0  0  0
  -28.9120  -24.9250   21.2590 C   0  0  0  0  0  0  0  0  0  0  0  0
  -27.7970  -22.8180   20.6400 C   0  0  0  0  0  0  0  0  0  0  0  0
  -29.8580  -24.1910   22.0200 C   0  0  0  0  0  0  0  0  0  0  0  0
  -29.7520  -22.7710   22.1110 C   0  0  0  0  0  0  0  0  0  0  0  0
  -28.7290  -22.0740   21.4060 C   0  0  0  0  0  0  0  0  0  0  0  0
  -26.6080  -22.1690   19.9460 C   0  0  0  0  0  1  0  0  0  0  0  0
  -30.9780  -24.9240   22.7620 C   0  0  0  0  0  1  0  0  0  0  0  0
  -30.7390  -21.9980   22.9880 C   0  0  0  0  0  1  0  0  0  0  0  0
  -28.6060  -20.6790   21.5560 N   0  0  0  0  0  0  0  0  0  0  0  0
  -28.9520  -20.3440   22.4470 H   0  0  0  0  0  0  0  0  0  0  0  0
  -27.7150  -18.9110   20.1070 C   0  0  0  0  0  1  0  0  0  0  0  0
  -28.9400  -19.7780   20.4520 C   0  0  0  0  0  3  0  0  0  0  0  0
  -30.1630  -18.9050   20.8250 C   0  0  0  0  0  2  0  0  0  0  0  0
  -30.2030  -17.5270   20.1370 C   0  0  0  0  0  2  0  0  0  0  0  0
  -31.3920  -16.6480   20.5660 C   0  0  0  0  0  2  0  0  0  0  0  0
  -31.5620  -14.2100   19.9290 C   0  0  0  0  0  0  0  0  0  0  0  0
  -31.1090  -11.9420   19.0710 C   0  0  0  0  0  2  0  0  0  0  0  0
  -30.1250  -12.0190   17.8840 C   0  0  0  0  0  2  0  0  0  0  0  0
  -28.6610  -12.0490   18.3680 C   0  0  0  0  0  2  0  0  0  0  0  0
  -28.4230  -13.0860   19.4960 C   0  0  0  0  0  3  0  0  0  0  0  0
  -29.4970  -12.9320   20.5970 C   0  0  0  0  0  2  0  0  0  0  0  0
  -30.8250  -13.0700   19.9660 N   0  0  0  0  0  0  0  0  0  0  0  0
  -32.6280  -14.3190   19.3170 O   0  0  0  0  0  0  0  0  0  0  0  0
  -30.9880  -15.2460   20.5520 N   0  0  0  0  0  0  0  0  0  0  0  0
  -30.1270  -15.0260   21.0260 H   0  0  0  0  0  0  0  0  0  0  0  0
  -26.1750  -13.9940   20.3710 C   0  0  0  0  0  0  0  0  0  0  0  0
  -25.0230  -13.3630   20.7630 C   0  0  0  0  0  0  0  0  0  0  0  0
  -25.2790  -11.9650   20.6400 C   0  0  0  0  0  0  0  0  0  0  0  0
  -27.0680  -12.9870   20.0380 N   0  0  0  0  0  0  0  0  0  0  0  0
  -26.5310  -11.7580   20.2510 N   0  0  0  0  0  0  0  0  0  0  0  0
  -24.3860  -10.8110   20.8120 C   0  0  0  0  0  0  0  0  0  0  0  0
  -24.7300   -9.7330   21.6570 C   0  0  0  0  0  3  0  0  0  0  0  0
  -23.8530   -8.6410   21.8170 C   0  0  0  0  0  3  0  0  0  0  0  0
  -22.6120   -8.6240   21.1390 C   0  0  0  0  0  0  0  0  0  0  0  0
  -22.2830   -9.6860   20.2780 C   0  0  0  0  0  3  0  0  0  0  0  0
  -23.1610  -10.7710   20.1160 C   0  0  0  0  0  3  0  0  0  0  0  0
  -21.7070   -7.5940   21.2150 O   0  0  0  0  0  0  0  0  0  0  0  0
  -21.6230   -6.7930   22.3240 C   0  0  0  0  0  0  0  0  0  0  0  0
  -21.3790   -7.3210   23.6110 C   0  0  0  0  0  3  0  0  0  0  0  0
  -21.2290   -6.4530   24.7110 C   0  0  0  0  0  3  0  0  0  0  0  0
  -21.3110   -5.0600   24.5250 C   0  0  0  0  0  0  0  0  0  0  0  0
  -21.5480   -4.5320   23.2430 C   0  0  0  0  0  3  0  0  0  0  0  0
  -21.6990   -5.3970   22.1470 C   0  0  0  0  0  0  0  0  0  0  0  0
  -21.9030   -4.8810   20.9110 F   0  0  0  0  0  0  0  0  0  0  0  0
  -21.1570   -4.2250   25.5800 F   0  0  0  0  0  0  0  0  0  0  0  0
  -23.7280  -14.0210   21.1490 C   0  0  0  0  0  0  0  0  0  0  0  0
  -22.9610  -13.4020   22.0380 N   0  0  0  0  0  0  0  0  0  0  0  0
  -23.4160  -15.1250   20.7040 O   0  0  0  0  0  0  0  0  0  0  0  0
  -23.2020  -12.4940   22.4060 H   0  0  0  0  0  0  0  0  0  0  0  0
  -22.1140  -13.8500   22.3650 H   0  0  0  0  0  0  0  0  0  0  0  0
  -26.5280  -15.3370   20.2570 N   0  0  0  0  0  0  0  0  0  0  0  0
  -25.8680  -16.0850   20.4400 H   0  0  0  0  0  0  0  0  0  0  0  0
  -27.4200  -15.6730   19.9160 H   0  0  0  0  0  0  0  0  0  0  0  0
  -28.9320  -26.4620   21.2080 C   0  0  0  0  0  2  0  0  0  0  0  0
  -28.2980  -27.0010   20.0550 O   0  0  0  0  0  0  0  0  0  0  0  0
  -24.5190  -32.0690   23.4560 C   0  0  0  0  0  0  0  0  0  0  0  0
  -27.1450  -27.7310   20.2200 C   0  0  0  0  0  0  0  0  0  0  0  0
  -23.3020  -30.7150   21.7820 C   0  0  0  0  0  3  0  0  0  0  0  0
  -24.7450  -29.2160   20.3140 C   0  0  0  0  0  0  0  0  0  0  0  0
  -25.8270  -31.0730   21.5870 C   0  0  0  0  0  2  0  0  0  0  0  0
  -25.9080  -29.7190   20.9180 C   0  0  0  0  0  0  0  0  0  0  0  0
  -27.1110  -28.9820   20.8780 C   0  0  0  0  0  3  0  0  0  0  0  0
  -25.9740  -27.2470   19.6030 C   0  0  0  0  0  3  0  0  0  0  0  0
  -24.7720  -27.9750   19.6600 C   0  0  0  0  0  3  0  0  0  0  0  0
  -23.5060  -30.0780   20.3830 C   0  0  0  0  0  2  0  0  0  0  0  0
  -24.5680  -31.2990   22.3330 N   0  0  0  0  0  0  0  0  0  0  0  0
  -23.4400  -32.3270   24.0090 O   0  0  0  0  0  0  0  0  0  0  0  0
  -22.6570  -29.6640   22.7140 C   0  0  0  0  0  0  0  0  0  0  0  0
  -21.3430  -29.4410   22.5420 N   0  0  0  0  0  0  0  0  0  0  0  0
  -23.3340  -29.0550   23.5460 O   0  0  0  0  0  0  0  0  0  0  0  0
  -20.8570  -29.9900   21.8460 H   0  0  0  0  0  0  0  0  0  0  0  0
  -18.0080  -28.0920   22.8690 C   0  0  0  0  0  0  0  0  0  0  0  0
  -20.5310  -28.4750   23.2810 C   0  0  0  0  0  3  0  0  0  0  0  0
  -20.7320  -27.0430   22.7330 C   0  0  0  0  0  2  0  0  0  0  0  0
  -19.7050  -26.6540   21.6630 C   0  0  0  0  0  2  0  0  0  0  0  0
  -18.2850  -26.7420   22.2270 C   0  0  0  0  0  2  0  0  0  0  0  0
  -19.0630  -28.9120   23.3480 C   0  0  0  0  0  0  0  0  0  0  0  0
  -18.7510  -30.1740   23.9020 C   0  0  0  0  0  3  0  0  0  0  0  0
  -17.4160  -30.6140   23.9820 C   0  0  0  0  0  3  0  0  0  0  0  0
  -16.3750  -29.7920   23.5170 C   0  0  0  0  0  3  0  0  0  0  0  0
  -16.6710  -28.5330   22.9650 C   0  0  0  0  0  3  0  0  0  0  0  0
  -25.8110  -32.6770   24.0860 C   0  0  0  0  0  3  0  0  0  0  0  0
  -25.5290  -34.0870   24.3910 N   0  0  0  0  0  0  0  0  0  0  0  0
  -25.8920  -35.1180   23.6170 C   0  0  0  0  0  0  0  0  0  0  0  0
  -26.5730  -34.9840   22.5970 O   0  0  0  0  0  0  0  0  0  0  0  0
  -24.9290  -34.2690   25.1830 H   0  0  0  0  0  0  0  0  0  0  0  0
  -24.2020  -36.9350   23.2100 C   0  0  0  0  0  1  0  0  0  0  0  0
  -25.4250  -36.5230   24.0440 C   0  0  0  0  0  3  0  0  0  0  0  0
  -27.5690  -37.3770   24.8810 C   0  0  0  0  0  1  0  0  0  0  0  0
  -26.4790  -37.5540   23.9250 N   0  0  0  0  0  0  0  0  0  0  0  0
  -26.0890  -38.4830   24.0570 H   0  0  0  0  0  0  0  0  0  0  0  0
  -26.2910  -31.9100   25.3790 C   0  0  1  0  0  0  0  0  0  0  0  0
  -25.1720  -31.6830   26.4200 C   0  0  0  0  0  1  0  0  0  0  0  0
  -26.8710  -30.5250   25.0060 C   0  0  0  0  0  1  0  0  0  0  0  0
  -27.4310  -32.7000   26.0640 C   0  0  0  0  0  1  0  0  0  0  0  0
  1  3  2  0
  1  2  1  0
  2  4  2  0
  3  6  1  0
  4  5  1  0
  4  8  1  0
  5  9  1  0
  6 10  1  0
  6  5  2  0
  7  3  1  0
 10 11  1  0
 13 12  1  0
 13 14  1  0
 13 10  1  0
 15 16  1  0
 15 14  1  0
 17 23  1  0
 17 25  1  0
 18 23  1  0
 19 20  1  0
 19 18  1  0
 21 20  1  0
 21 30  1  0
 21 22  1  0
 23 22  1  0
 24 17  2  0
 25 16  1  0
 25 26  1  0
 27 28  2  0
 28 47  1  0
 29 28  1  0
 29 32  1  0
 30 31  1  0
 30 27  1  0
 31 29  2  0
 32 33  1  0
 33 34  2  0
 35 38  1  0
 35 34  1  0
 36 35  2  0
 37 36  1  0
 37 32  2  0
 38 39  1  0
 39 40  1  0
 40 41  2  0
 42 41  1  0
 42 46  1  0
 43 42  2  0
 44 39  2  0
 44 43  1  0
 45 44  1  0
 47 48  1  0
 48 51  1  0
 48 50  1  0
 49 47  2  0
 52 27  1  0
 52 53  1  0
 54 52  1  0
 55  2  1  0
 56 58  1  0
 56 55  1  0
 57 68  2  0
 58 63  1  0
 59 67  1  0
 59 69  1  0
 60 66  1  0
 60 62  1  0
 61 67  1  0
 62 61  1  0
 63 62  2  0
 64 65  1  0
 64 58  2  0
 65 60  2  0
 66 59  1  0
 67 57  1  0
 69 71  2  0
 70 69  1  0
 72 70  1  0
 73 82  2  0
 73 78  1  0
 74 70  1  0
 74 78  1  0
 75 74  1  0
 76 77  1  0
 76 75  1  0
 77 73  1  0
 78 79  2  0
 79 80  1  0
 81 80  2  0
 82 81  1  0
 83 57  1  0
 83 84  1  0
 83 93  1  0
 84 87  1  0
 85 89  1  0
 85 84  1  0
 86 85  2  0
 89 88  1  0
 91 89  1  0
 91 92  1  0
 91 90  1  0
 93 96  1  1
 93 94  1  0
 95 93  1  0
M  ISO  4  17 100  25 100  55 101  56 101
M  END
>  <TORSDO>  (8) 
F 22

>  <SCORE>  (8) 
-11.205

>  <name>  (8) 
7

>  <ligand_id>  (8) 
7

>  <original_smiles>  (8) 
[H]c1c([H])c([H])c2c(c1[H])C([H])([H])C([H])([H])C([H])([H])C2([H])N([H])C(=O)C1([H])N(C(=O)C([H])(N([H])C(=O)C([H])(N([H])C([H])([H])[H])C([H])([H])[H])C(C([H])([H])[H])(C([H])([H])[H])C([H])([H])[H])C([H])([H])c2c([H])c(OC([H])([H])c3c([H])c(C([H])([H])[H])c(N([H])C([H])(C([H])([H])[H])C([H])([H])C([H])([H])C([H])([H])N([H])C(=O)N4C([H])([H])C([H])([H])C([H])([H])C([H])(n5nc(-c6c([H])c([H])c(Oc7c([H])c([H])c(F)c([H])c7F)c([H])c6[H])c(C(=O)N([H])[H])c5N([H])[H])C4([H])[H])c(C([H])([H])[H])c3C([H])([H])[H])c([H])c([H])c2C1([H])[H]

>  <smiles>  (8) 
[H]c1c([H])c([H])c2c(c1[H])C([H])([H])C([H])([H])C([H])([H])C2([H])N([H])C(=O)C1([H])N(C(=O)C([H])(N([H])C(=O)C([H])(N([H])C([H])([H])[H])C([H])([H])[H])C(C([H])([H])[H])(C([H])([H])[H])C([H])([H])[H])C([H])([H])c2c([H])c(OC([H])([H])c3c([H])c(C([H])([H])[H])c(N([H])C([H])(C([H])([H])[H])C([H])([H])C([H])([H])C([H])([H])N([H])C(=O)N4C([H])([H])C([H])([H])C([H])([H])C([H])(n5nc(-c6c([H])c([H])c(Oc7c([H])c([H])c(F)c([H])c7F)c([H])c6[H])c(C(=O)N([H])[H])c5N([H])[H])C4([H])[H])c(C([H])([H])[H])c3C([H])([H])[H])c([H])c([H])c2C1([H])[H]

$$$$
8:0:0
     RDKit          3D

 89 97  0  0  1  0  0  0  0  0999 V2000
  -28.8420  -21.1650   18.9590 C   0  0  0  0  0  3  0  0  0  0  0  0
  -28.9450  -22.2420   19.9840 C   0  0  0  0  0  0  0  0  0  0  0  0
  -29.5200  -21.3910   21.0740 C   0  0  0  0  0  0  0  0  0  0  0  0
  -29.8790  -19.8840   21.0990 C   0  0  0  0  0  0  0  0  0  0  0  0
  -29.7630  -18.8240   20.0440 C   0  0  0  0  0  0  0  0  0  0  0  0
  -29.1870  -19.6760   18.9700 C   0  0  0  0  0  0  0  0  0  0  0  0
  -29.7240  -22.1570   22.3750 C   0  0  0  0  0  1  0  0  0  0  0  0
  -30.4010  -19.3440   22.4260 C   0  0  0  0  0  1  0  0  0  0  0  0
  -28.8700  -19.0090   17.8340 F   0  0  0  0  0  0  0  0  0  0  0  0
  -30.7260  -15.8110   20.1130 C   0  0  0  0  0  0  0  0  0  0  0  0
  -30.9040  -13.2400   19.4120 C   0  0  0  0  0  2  0  0  0  0  0  0
  -30.0150  -12.7730   18.2240 C   0  0  0  0  0  2  0  0  0  0  0  0
  -28.6010  -12.4080   18.7000 C   0  0  0  0  0  2  0  0  0  0  0  0
  -28.0720  -13.4390   19.7230 C   0  0  0  0  0  3  0  0  0  0  0  0
  -29.0990  -13.8120   20.8170 C   0  0  0  0  0  2  0  0  0  0  0  0
  -30.2580  -14.4270   20.1300 N   0  0  0  0  0  0  0  0  0  0  0  0
  -31.9550  -15.8030   19.9070 O   0  0  0  0  0  0  0  0  0  0  0  0
  -29.8730  -17.1080   20.1640 N   0  0  0  0  0  0  0  0  0  0  0  0
  -28.9370  -16.7650   20.3230 H   0  0  0  0  0  0  0  0  0  0  0  0
  -25.7320  -13.9480   20.5730 C   0  0  0  0  0  0  0  0  0  0  0  0
  -24.6800  -13.1570   20.9390 C   0  0  0  0  0  0  0  0  0  0  0  0
  -25.1460  -11.8090   20.8420 C   0  0  0  0  0  0  0  0  0  0  0  0
  -26.7670  -13.0860   20.2650 N   0  0  0  0  0  0  0  0  0  0  0  0
  -26.4300  -11.7880   20.4950 N   0  0  0  0  0  0  0  0  0  0  0  0
  -24.4200  -10.5420   21.0010 C   0  0  0  0  0  0  0  0  0  0  0  0
  -24.8110   -9.5780   21.9560 C   0  0  0  0  0  3  0  0  0  0  0  0
  -24.0800   -8.3800   22.1060 C   0  0  0  0  0  3  0  0  0  0  0  0
  -22.9430   -8.1350   21.2990 C   0  0  0  0  0  0  0  0  0  0  0  0
  -22.5710   -9.0870   20.3340 C   0  0  0  0  0  3  0  0  0  0  0  0
  -23.3020  -10.2770   20.1830 C   0  0  0  0  0  3  0  0  0  0  0  0
  -22.1890   -6.9880   21.3550 O   0  0  0  0  0  0  0  0  0  0  0  0
  -21.9710   -6.3270   22.5380 C   0  0  0  0  0  0  0  0  0  0  0  0
  -21.3370   -6.9510   23.6340 C   0  0  0  0  0  3  0  0  0  0  0  0
  -21.0710   -6.2150   24.8060 C   0  0  0  0  0  3  0  0  0  0  0  0
  -21.4280   -4.8560   24.8800 C   0  0  0  0  0  0  0  0  0  0  0  0
  -22.0550   -4.2310   23.7890 C   0  0  0  0  0  3  0  0  0  0  0  0
  -22.3220   -4.9650   22.6190 C   0  0  0  0  0  0  0  0  0  0  0  0
  -22.9070   -4.3520   21.5610 F   0  0  0  0  0  0  0  0  0  0  0  0
  -21.1660   -4.1460   26.0030 F   0  0  0  0  0  0  0  0  0  0  0  0
  -23.2920  -13.6270   21.2570 C   0  0  0  0  0  0  0  0  0  0  0  0
  -22.5860  -12.9090   22.1230 N   0  0  0  0  0  0  0  0  0  0  0  0
  -22.8430  -14.6660   20.7740 O   0  0  0  0  0  0  0  0  0  0  0  0
  -22.9630  -12.0690   22.5350 H   0  0  0  0  0  0  0  0  0  0  0  0
  -21.6540  -13.2040   22.3780 H   0  0  0  0  0  0  0  0  0  0  0  0
  -25.8880  -15.3250   20.4410 N   0  0  0  0  0  0  0  0  0  0  0  0
  -25.1150  -15.9660   20.5850 H   0  0  0  0  0  0  0  0  0  0  0  0
  -26.7040  -15.7730   20.0470 H   0  0  0  0  0  0  0  0  0  0  0  0
  -28.1530  -23.9410   19.9710 C   0  0  0  0  0  2  0  0  0  0  0  0
  -28.4550  -25.6570   20.1350 O   0  0  0  0  0  0  0  0  0  0  0  0
  -24.8720  -31.7730   23.2990 C   0  0  0  0  0  0  0  0  0  0  0  0
  -27.4920  -26.8750   20.1100 C   0  0  0  0  0  0  0  0  0  0  0  0
  -23.7270  -30.4570   21.5680 C   0  0  0  0  0  3  0  0  0  0  0  0
  -25.2130  -28.8930   20.1040 C   0  0  0  0  0  0  0  0  0  0  0  0
  -26.3060  -30.6190   21.5090 C   0  0  0  0  0  2  0  0  0  0  0  0
  -26.3930  -29.2230   20.7820 C   0  0  0  0  0  0  0  0  0  0  0  0
  -27.5180  -28.2440   20.7550 C   0  0  0  0  0  3  0  0  0  0  0  0
  -26.2790  -26.7570   19.3850 C   0  0  0  0  0  3  0  0  0  0  0  0
  -25.1950  -27.6860   19.3840 C   0  0  0  0  0  3  0  0  0  0  0  0
  -23.9990  -29.8330   20.1690 C   0  0  0  0  0  2  0  0  0  0  0  0
  -24.9910  -30.9790   22.1800 N   0  0  0  0  0  0  0  0  0  0  0  0
  -23.7670  -32.0430   23.8000 O   0  0  0  0  0  0  0  0  0  0  0  0
  -22.9940  -29.4280   22.4710 C   0  0  0  0  0  0  0  0  0  0  0  0
  -21.6640  -29.2860   22.3180 N   0  0  0  0  0  0  0  0  0  0  0  0
  -23.6360  -28.7570   23.2820 O   0  0  0  0  0  0  0  0  0  0  0  0
  -21.1960  -29.8790   21.6470 H   0  0  0  0  0  0  0  0  0  0  0  0
  -18.2600  -28.0870   22.7420 C   0  0  0  0  0  0  0  0  0  0  0  0
  -20.8230  -28.3110   23.0250 C   0  0  0  0  0  3  0  0  0  0  0  0
  -20.9090  -26.9170   22.3600 C   0  0  0  0  0  2  0  0  0  0  0  0
  -19.8080  -26.6740   21.3230 C   0  0  0  0  0  2  0  0  0  0  0  0
  -18.4250  -26.7860   21.9720 C   0  0  0  0  0  2  0  0  0  0  0  0
  -19.3850  -28.8100   23.2210 C   0  0  0  0  0  0  0  0  0  0  0  0
  -19.1720  -30.0260   23.9060 C   0  0  0  0  0  3  0  0  0  0  0  0
  -17.8700  -30.5200   24.1110 C   0  0  0  0  0  3  0  0  0  0  0  0
  -16.7610  -29.7940   23.6440 C   0  0  0  0  0  3  0  0  0  0  0  0
  -16.9570  -28.5780   22.9650 C   0  0  0  0  0  3  0  0  0  0  0  0
  -26.1190  -32.3940   24.0010 C   0  0  0  0  0  3  0  0  0  0  0  0
  -25.7840  -33.7770   24.3940 N   0  0  0  0  0  0  0  0  0  0  0  0
  -26.0890  -34.8760   23.6900 C   0  0  0  0  0  0  0  0  0  0  0  0
  -26.7400  -34.8330   22.6440 O   0  0  0  0  0  0  0  0  0  0  0  0
  -25.2010  -33.8810   25.2120 H   0  0  0  0  0  0  0  0  0  0  0  0
  -24.3160  -36.6570   23.4980 C   0  0  0  0  0  1  0  0  0  0  0  0
  -25.6000  -36.2370   24.2310 C   0  0  0  0  0  3  0  0  0  0  0  0
  -27.7490  -37.1420   25.0080 C   0  0  0  0  0  1  0  0  0  0  0  0
  -26.6080  -37.3160   24.1140 N   0  0  0  0  0  0  0  0  0  0  0  0
  -26.1880  -38.2220   24.3080 H   0  0  0  0  0  0  0  0  0  0  0  0
  -26.5860  -31.5760   25.2690 C   0  0  1  0  0  0  0  0  0  0  0  0
  -25.4540  -31.3050   26.2890 C   0  0  0  0  0  1  0  0  0  0  0  0
  -27.1790  -30.2090   24.8600 C   0  0  0  0  0  1  0  0  0  0  0  0
  -27.7150  -32.3410   25.9980 C   0  0  0  0  0  1  0  0  0  0  0  0
  1  6  2  0
  1  2  1  0
  2  3  2  0
  3  4  1  0
  3  7  1  0
  4  8  1  0
  5 18  1  0
  5  4  2  0
  6  5  1  0
  9  6  1  0
 10 16  1  0
 10 18  1  0
 11 16  1  0
 12 13  1  0
 12 11  1  0
 14 13  1  0
 14 23  1  0
 14 15  1  0
 16 15  1  0
 17 10  2  0
 18 19  1  0
 20 21  2  0
 21 40  1  0
 22 21  1  0
 22 25  1  0
 23 24  1  0
 23 20  1  0
 24 22  2  0
 25 26  1  0
 26 27  2  0
 28 31  1  0
 28 27  1  0
 29 28  2  0
 30 29  1  0
 30 25  2  0
 31 32  1  0
 32 37  2  0
 32 33  1  0
 33 34  2  0
 34 35  1  0
 35 39  1  0
 36 35  2  0
 37 36  1  0
 38 37  1  0
 40 41  1  0
 41 44  1  0
 41 43  1  0
 42 40  2  0
 45 20  1  0
 45 46  1  0
 47 45  1  0
 48  2  1  0
 48 49  1  0
 50 61  2  0
 51 49  1  0
 51 56  1  0
 52 60  1  0
 52 62  1  0
 53 59  1  0
 53 55  1  0
 54 60  1  0
 55 54  1  0
 56 55  2  0
 57 51  2  0
 58 57  1  0
 58 53  2  0
 59 52  1  0
 60 50  1  0
 62 64  2  0
 63 62  1  0
 65 63  1  0
 66 75  2  0
 66 71  1  0
 67 63  1  0
 67 71  1  0
 68 67  1  0
 69 70  1  0
 69 68  1  0
 70 66  1  0
 71 72  2  0
 72 73  1  0
 74 73  2  0
 75 74  1  0
 76 50  1  0
 76 77  1  0
 76 86  1  0
 77 80  1  0
 78 82  1  0
 78 77  1  0
 79 78  2  0
 82 81  1  0
 84 82  1  0
 84 85  1  0
 84 83  1  0
 86 89  1  1
 86 87  1  0
 88 86  1  0
M  ISO  4  10 100  18 100  48 101  49 101
M  END
>  <TORSDO>  (9) 
F 17

>  <SCORE>  (9) 
-15.458

>  <name>  (9) 
8

>  <ligand_id>  (9) 
8

>  <original_smiles>  (9) 
[H]c1c([H])c([H])c2c(c1[H])C([H])([H])C([H])([H])C([H])([H])C2([H])N([H])C(=O)C1([H])N(C(=O)C([H])(N([H])C(=O)C([H])(N([H])C([H])([H])[H])C([H])([H])[H])C(C([H])([H])[H])(C([H])([H])[H])C([H])([H])[H])C([H])([H])c2c([H])c(OC([H])([H])c3c([H])c(F)c(N([H])C(=O)N4C([H])([H])C([H])([H])C([H])([H])C([H])(n5nc(-c6c([H])c([H])c(Oc7c([H])c([H])c(F)c([H])c7F)c([H])c6[H])c(C(=O)N([H])[H])c5N([H])[H])C4([H])[H])c(C([H])([H])[H])c3C([H])([H])[H])c([H])c([H])c2C1([H])[H]

>  <smiles>  (9) 
[H]c1c([H])c([H])c2c(c1[H])C([H])([H])C([H])([H])C([H])([H])C2([H])N([H])C(=O)C1([H])N(C(=O)C([H])(N([H])C(=O)C([H])(N([H])C([H])([H])[H])C([H])([H])[H])C(C([H])([H])[H])(C([H])([H])[H])C([H])([H])[H])C([H])([H])c2c([H])c(OC([H])([H])c3c([H])c(F)c(N([H])C(=O)N4C([H])([H])C([H])([H])C([H])([H])C([H])(n5nc(-c6c([H])c([H])c(Oc7c([H])c([H])c(F)c([H])c7F)c([H])c6[H])c(C(=O)N([H])[H])c5N([H])[H])C4([H])[H])c(C([H])([H])[H])c3C([H])([H])[H])c([H])c([H])c2C1([H])[H]

$$$$
9:0:0
     RDKit          3D

 99106  0  0  1  0  0  0  0  0999 V2000
  -29.4170  -22.6660   19.6630 C   0  0  0  0  0  3  0  0  0  0  0  0
  -30.3600  -22.7810   17.3120 C   0  0  0  0  0  1  0  0  0  0  0  0
  -30.5280  -23.1550   18.7430 N   0  0  2  0  0  4  0  0  0  0  0  0
  -30.2740  -24.1320   18.6850 H   0  0  0  0  0  0  0  0  0  0  0  0
  -31.9430  -23.3740   19.2380 C   0  0  0  0  0  3  0  0  0  0  0  0
  -33.0580  -25.5910   19.9860 C   0  0  0  0  0  1  0  0  0  0  0  0
  -33.5940  -24.7470   17.6820 C   0  0  0  0  0  1  0  0  0  0  0  0
  -31.4180  -25.7250   18.1310 C   0  0  0  0  0  1  0  0  0  0  0  0
  -32.4920  -24.8090   18.7700 C   0  0  1  0  0  0  0  0  0  0  0  0
  -34.1750  -22.2470   19.9530 C   0  0  0  0  0  1  0  0  0  0  0  0
  -32.9770  -22.1860   18.9760 C   0  0  0  0  0  3  0  0  0  0  0  0
  -33.3480  -19.7280   18.2420 C   0  0  0  0  0  1  0  0  0  0  0  0
  -32.4570  -20.7310   18.9980 C   0  0  0  0  0  2  0  0  0  0  0  0
  -29.4540  -24.2600   21.7500 C   0  0  0  0  0  1  0  0  0  0  0  0
  -28.7470  -23.9250   20.4210 C   0  0  0  0  0  3  0  0  0  0  0  0
  -28.3950  -25.2260   19.5430 C   0  0  0  0  0  2  0  0  0  0  0  0
  -28.3080  -26.5710   20.1480 O   0  0  0  0  0  0  0  0  0  0  0  0
  -24.6550  -31.8640   23.3480 C   0  0  0  0  0  0  0  0  0  0  0  0
  -27.1640  -27.3810   20.1090 C   0  0  0  0  0  0  0  0  0  0  0  0
  -23.4060  -30.5370   21.6800 C   0  0  0  0  0  3  0  0  0  0  0  0
  -24.8150  -29.0140   20.1840 C   0  0  0  0  0  0  0  0  0  0  0  0
  -25.9450  -30.8320   21.4670 C   0  0  0  0  0  2  0  0  0  0  0  0
  -25.9950  -29.4740   20.7770 C   0  0  0  0  0  0  0  0  0  0  0  0
  -27.1680  -28.6670   20.7320 C   0  0  0  0  0  3  0  0  0  0  0  0
  -25.9540  -26.9630   19.5080 C   0  0  0  0  0  3  0  0  0  0  0  0
  -24.7960  -27.7640   19.5420 C   0  0  0  0  0  3  0  0  0  0  0  0
  -23.5900  -29.8990   20.2760 C   0  0  0  0  0  2  0  0  0  0  0  0
  -24.6890  -31.0940   22.2220 N   0  0  0  0  0  0  0  0  0  0  0  0
  -23.5840  -32.1400   23.9090 O   0  0  0  0  0  0  0  0  0  0  0  0
  -22.7440  -29.5010   22.6180 C   0  0  0  0  0  0  0  0  0  0  0  0
  -21.4180  -29.3290   22.4890 N   0  0  0  0  0  0  0  0  0  0  0  0
  -23.4230  -28.8560   23.4230 O   0  0  0  0  0  0  0  0  0  0  0  0
  -20.9330  -29.9030   21.8140 H   0  0  0  0  0  0  0  0  0  0  0  0
  -18.0430  -28.0960   22.9230 C   0  0  0  0  0  0  0  0  0  0  0  0
  -20.5950  -28.3770   23.2370 C   0  0  0  0  0  3  0  0  0  0  0  0
  -20.7200  -26.9530   22.6500 C   0  0  0  0  0  2  0  0  0  0  0  0
  -19.6370  -26.6290   21.6160 C   0  0  0  0  0  2  0  0  0  0  0  0
  -18.2430  -26.7550   22.2370 C   0  0  0  0  0  2  0  0  0  0  0  0
  -19.1480  -28.8650   23.3780 C   0  0  0  0  0  0  0  0  0  0  0  0
  -18.9060  -30.1200   23.9770 C   0  0  0  0  0  3  0  0  0  0  0  0
  -17.5940  -30.6060   24.1280 C   0  0  0  0  0  3  0  0  0  0  0  0
  -16.5050  -29.8350   23.6880 C   0  0  0  0  0  3  0  0  0  0  0  0
  -16.7300  -28.5820   23.0910 C   0  0  0  0  0  3  0  0  0  0  0  0
  -25.9570  -32.4550   23.9730 C   0  0  0  0  0  3  0  0  0  0  0  0
  -25.6730  -33.8450   24.3590 N   0  0  0  0  0  0  0  0  0  0  0  0
  -26.0080  -34.9190   23.6330 C   0  0  0  0  0  0  0  0  0  0  0  0
  -26.6580  -34.8430   22.5860 O   0  0  0  0  0  0  0  0  0  0  0  0
  -25.0970  -33.9790   25.1760 H   0  0  0  0  0  0  0  0  0  0  0  0
  -24.2960  -36.7460   23.3810 C   0  0  0  0  0  1  0  0  0  0  0  0
  -25.5510  -36.2970   24.1480 C   0  0  0  0  0  3  0  0  0  0  0  0
  -27.7160  -37.1310   24.9550 C   0  0  0  0  0  1  0  0  0  0  0  0
  -26.5950  -37.3400   24.0430 N   0  0  0  0  0  0  0  0  0  0  0  0
  -26.2040  -38.2620   24.2260 H   0  0  0  0  0  0  0  0  0  0  0  0
  -26.4810  -31.6310   25.2130 C   0  0  1  0  0  0  0  0  0  0  0  0
  -25.4030  -31.3760   26.2920 C   0  0  0  0  0  1  0  0  0  0  0  0
  -27.0330  -30.2570   24.7630 C   0  0  0  0  0  1  0  0  0  0  0  0
  -27.6540  -32.3840   25.8820 C   0  0  0  0  0  1  0  0  0  0  0  0
  -29.7430  -21.3560   20.5630 C   0  0  0  0  0  3  0  0  0  0  0  0
  -29.5560  -19.8670   19.9990 C   0  0  0  0  0  3  0  0  0  0  0  0
  -30.0850  -18.6150   20.8530 C   0  0  0  0  0  2  0  0  0  0  0  0
  -30.4440  -17.2730   20.0660 C   0  0  0  0  0  2  0  0  0  0  0  0
  -31.0050  -14.8000   20.5770 C   0  0  0  0  0  0  0  0  0  0  0  0
  -30.8150  -12.5150   19.6330 C   0  0  0  0  0  2  0  0  0  0  0  0
  -29.9270  -12.5840   18.3730 C   0  0  0  0  0  2  0  0  0  0  0  0
  -28.4350  -12.4490   18.7420 C   0  0  0  0  0  2  0  0  0  0  0  0
  -28.0220  -13.3670   19.9260 C   0  0  0  0  0  3  0  0  0  0  0  0
  -29.0370  -13.2760   21.0880 C   0  0  0  0  0  2  0  0  0  0  0  0
  -30.3680  -13.5870   20.5480 N   0  0  0  0  0  0  0  0  0  0  0  0
  -32.1860  -14.9020   20.2450 O   0  0  0  0  0  0  0  0  0  0  0  0
  -30.2250  -15.9240   20.7210 N   0  0  0  0  0  0  0  0  0  0  0  0
  -29.2780  -15.7380   21.0140 H   0  0  0  0  0  0  0  0  0  0  0  0
  -25.6160  -14.0000   20.5870 C   0  0  0  0  0  0  0  0  0  0  0  0
  -24.5290  -13.2400   20.9250 C   0  0  0  0  0  0  0  0  0  0  0  0
  -24.9710  -11.8820   20.8990 C   0  0  0  0  0  0  0  0  0  0  0  0
  -26.6560  -13.1050   20.3750 N   0  0  0  0  0  0  0  0  0  0  0  0
  -26.2700  -11.8270   20.6250 N   0  0  0  0  0  0  0  0  0  0  0  0
  -24.2210  -10.6290   21.0620 C   0  0  0  0  0  0  0  0  0  0  0  0
  -24.6150   -9.6500   22.0000 C   0  0  0  0  0  3  0  0  0  0  0  0
  -23.8680   -8.4630   22.1550 C   0  0  0  0  0  3  0  0  0  0  0  0
  -22.7090   -8.2480   21.3720 C   0  0  0  0  0  0  0  0  0  0  0  0
  -22.3340   -9.2160   20.4240 C   0  0  0  0  0  3  0  0  0  0  0  0
  -23.0810  -10.3940   20.2670 C   0  0  0  0  0  3  0  0  0  0  0  0
  -21.9340   -7.1170   21.4350 O   0  0  0  0  0  0  0  0  0  0  0  0
  -21.8390   -6.3710   22.5840 C   0  0  0  0  0  0  0  0  0  0  0  0
  -21.3830   -6.9310   23.7980 C   0  0  0  0  0  3  0  0  0  0  0  0
  -21.2340   -6.1130   24.9360 C   0  0  0  0  0  3  0  0  0  0  0  0
  -21.5300   -4.7390   24.8590 C   0  0  0  0  0  0  0  0  0  0  0  0
  -21.9750   -4.1780   23.6480 C   0  0  0  0  0  3  0  0  0  0  0  0
  -22.1250   -4.9940   22.5120 C   0  0  0  0  0  0  0  0  0  0  0  0
  -22.5370   -4.4450   21.3420 F   0  0  0  0  0  0  0  0  0  0  0  0
  -21.3780   -3.9530   25.9490 F   0  0  0  0  0  0  0  0  0  0  0  0
  -23.1300  -13.7370   21.1550 C   0  0  0  0  0  0  0  0  0  0  0  0
  -22.3660  -13.0570   22.0050 N   0  0  0  0  0  0  0  0  0  0  0  0
  -22.7200  -14.7640   20.6160 O   0  0  0  0  0  0  0  0  0  0  0  0
  -22.7070  -12.2300   22.4730 H   0  0  0  0  0  0  0  0  0  0  0  0
  -21.4240  -13.3700   22.1880 H   0  0  0  0  0  0  0  0  0  0  0  0
  -25.8010  -15.3680   20.4170 N   0  0  0  0  0  0  0  0  0  0  0  0
  -25.0370  -16.0270   20.5250 H   0  0  0  0  0  0  0  0  0  0  0  0
  -26.6500  -15.8040   20.0840 H   0  0  0  0  0  0  0  0  0  0  0  0
  1 15  1  0
  1 58  1  0
  2  3  1  0
  3  5  1  0
  3  1  1  0
  3  4  1  6
  5  9  1  0
  9  7  1  6
  8  9  1  0
  9  6  1  0
 11 13  1  0
 11  5  1  0
 11 10  1  0
 12 13  1  0
 15 14  1  0
 16 17  1  0
 16 15  1  0
 18 29  2  0
 19 17  1  0
 19 24  1  0
 20 28  1  0
 20 30  1  0
 21 27  1  0
 21 23  1  0
 22 28  1  0
 23 22  1  0
 24 23  2  0
 25 26  1  0
 25 19  2  0
 26 21  2  0
 27 20  1  0
 28 18  1  0
 30 32  2  0
 31 30  1  0
 33 31  1  0
 34 43  2  0
 34 39  1  0
 35 31  1  0
 35 39  1  0
 36 35  1  0
 37 38  1  0
 37 36  1  0
 38 34  1  0
 39 40  2  0
 40 41  1  0
 42 41  2  0
 43 42  1  0
 44 18  1  0
 44 45  1  0
 44 54  1  0
 45 48  1  0
 46 50  1  0
 46 45  1  0
 47 46  2  0
 50 49  1  0
 52 50  1  0
 52 53  1  0
 52 51  1  0
 54 57  1  1
 54 55  1  0
 56 54  1  0
 59 58  2  0
 59 60  1  0
 61 70  1  0
 61 60  1  0
 62 70  1  0
 63 68  1  0
 64 65  1  0
 64 63  1  0
 66 65  1  0
 66 75  1  0
 66 67  1  0
 68 62  1  0
 68 67  1  0
 69 62  2  0
 70 71  1  0
 72 73  2  0
 73 92  1  0
 74 73  1  0
 74 77  1  0
 75 72  1  0
 75 76  1  0
 76 74  2  0
 77 78  1  0
 78 79  2  0
 80 83  1  0
 80 79  1  0
 81 80  2  0
 82 81  1  0
 82 77  2  0
 83 84  1  0
 84 85  1  0
 85 86  2  0
 87 86  1  0
 87 91  1  0
 88 87  2  0
 89 84  2  0
 89 88  1  0
 90 89  1  0
 92 93  1  0
 93 96  1  0
 93 95  1  0
 94 92  2  0
 97 98  1  0
 97 72  1  0
 99 97  1  0
M  ISO  4  16 101  17 101  62 100  70 100
M  END
>  <TORSDO>  (10) 
F 27

>  <SCORE>  (10) 
-11.342

>  <name>  (10) 
9

>  <ligand_id>  (10) 
9

>  <original_smiles>  (10) 
[H]c1c([H])c([H])c2c(c1[H])C([H])([H])C([H])([H])C([H])([H])C2([H])N([H])C(=O)C1([H])N(C(=O)C([H])(N([H])C(=O)C([H])(N([H])C([H])([H])[H])C([H])([H])[H])C(C([H])([H])[H])(C([H])([H])[H])C([H])([H])[H])C([H])([H])c2c([H])c(OC([H])([H])C([H])(C([H])([H])[H])C([H])(C([H])([H])C([H])([H])C([H])([H])C([H])([H])N([H])C(=O)N3C([H])([H])C([H])([H])C([H])([H])C([H])(n4nc(-c5c([H])c([H])c(Oc6c([H])c([H])c(F)c([H])c6F)c([H])c5[H])c(C(=O)N([H])[H])c4N([H])[H])C3([H])[H])[N+]([H])(C([H])([H])[H])C([H])(C([H])(C([H])([H])[H])C([H])([H])C([H])([H])[H])C(C([H])([H])[H])(C([H])([H])[H])C([H])([H])[H])c([H])c([H])c2C1([H])[H]

>  <smiles>  (10) 
[H]c1c([H])c([H])c2c(c1[H])C([H])([H])C([H])([H])C([H])([H])C2([H])N([H])C(=O)C1([H])N(C(=O)C([H])(N([H])C(=O)C([H])(N([H])C([H])([H])[H])C([H])([H])[H])C(C([H])([H])[H])(C([H])([H])[H])C([H])([H])[H])C([H])([H])c2c([H])c(OC([H])([H])C([H])(C([H])([H])[H])C([H])(C([H])([H])C([H])([H])C([H])([H])C([H])([H])N([H])C(=O)N3C([H])([H])C([H])([H])C([H])([H])C([H])(n4nc(-c5c([H])c([H])c(Oc6c([H])c([H])c(F)c([H])c6F)c([H])c5[H])c(C(=O)N([H])[H])c4N([H])[H])C3([H])[H])[N+]([H])(C([H])([H])[H])C([H])(C([H])(C([H])([H])[H])C([H])([H])C([H])([H])[H])C(C([H])([H])[H])(C([H])([H])[H])C([H])([H])[H])c([H])c([H])c2C1([H])[H]

$$$$
10:0:0
     RDKit          3D

 96104  0  0  1  0  0  0  0  0999 V2000
  -27.7640  -22.6050   20.5170 C   0  0  0  0  0  3  0  0  0  0  0  0
  -27.6030  -23.9270   20.0590 C   0  0  0  0  0  3  0  0  0  0  0  0
  -28.7640  -21.7720   19.9740 C   0  0  0  0  0  0  0  0  0  0  0  0
  -28.4200  -24.4360   19.0280 C   0  0  0  0  0  0  0  0  0  0  0  0
  -29.5880  -22.2680   18.9340 C   0  0  0  0  0  0  0  0  0  0  0  0
  -29.3980  -23.5850   18.4470 C   0  0  0  0  0  0  0  0  0  0  0  0
  -30.8500  -21.2810   18.2650 Cl  0  0  0  0  0  0  0  0  0  0  0  0
  -30.3910  -24.1340   17.1350 Cl  0  0  0  0  0  0  0  0  0  0  0  0
  -27.5270  -26.0710   17.2270 C   0  0  0  0  0  1  0  0  0  0  0  0
  -28.2750  -25.8930   18.5680 C   0  0  0  0  0  3  0  0  0  0  0  0
  -27.9780  -26.8200   19.6210 O   0  0  0  0  0  0  0  0  0  0  0  0
  -24.5430  -31.8910   23.1860 C   0  0  0  0  0  0  0  0  0  0  0  0
  -26.7860  -27.5040   19.7320 C   0  0  0  0  0  0  0  0  0  0  0  0
  -23.1650  -30.5960   21.5890 C   0  0  0  0  0  3  0  0  0  0  0  0
  -24.4450  -29.0610   20.0090 C   0  0  0  0  0  0  0  0  0  0  0  0
  -25.6770  -30.8760   21.2140 C   0  0  0  0  0  2  0  0  0  0  0  0
  -25.6590  -29.5250   20.5280 C   0  0  0  0  0  0  0  0  0  0  0  0
  -26.8260  -28.7470   20.3990 C   0  0  0  0  0  3  0  0  0  0  0  0
  -25.5480  -27.0380   19.2360 C   0  0  0  0  0  3  0  0  0  0  0  0
  -24.3800  -27.8100   19.3710 C   0  0  0  0  0  3  0  0  0  0  0  0
  -23.2440  -29.9610   20.1750 C   0  0  0  0  0  2  0  0  0  0  0  0
  -24.4830  -31.1340   22.0530 N   0  0  0  0  0  0  0  0  0  0  0  0
  -23.5150  -32.1760   23.8160 O   0  0  0  0  0  0  0  0  0  0  0  0
  -22.5550  -29.5580   22.5580 C   0  0  0  0  0  0  0  0  0  0  0  0
  -21.2330  -29.3520   22.4550 N   0  0  0  0  0  0  0  0  0  0  0  0
  -23.2670  -28.9450   23.3580 O   0  0  0  0  0  0  0  0  0  0  0  0
  -20.7150  -29.9040   21.7860 H   0  0  0  0  0  0  0  0  0  0  0  0
  -17.9150  -28.0080   22.9280 C   0  0  0  0  0  0  0  0  0  0  0  0
  -20.4500  -28.3990   23.2430 C   0  0  0  0  0  3  0  0  0  0  0  0
  -20.6340  -26.9590   22.7160 C   0  0  0  0  0  2  0  0  0  0  0  0
  -19.5730  -26.5520   21.6890 C   0  0  0  0  0  2  0  0  0  0  0  0
  -18.1710  -26.6500   22.2980 C   0  0  0  0  0  2  0  0  0  0  0  0
  -18.9850  -28.8360   23.3570 C   0  0  0  0  0  0  0  0  0  0  0  0
  -18.6920  -30.1040   23.9030 C   0  0  0  0  0  3  0  0  0  0  0  0
  -17.3610  -30.5480   24.0230 C   0  0  0  0  0  3  0  0  0  0  0  0
  -16.3050  -29.7200   23.6090 C   0  0  0  0  0  3  0  0  0  0  0  0
  -16.5830  -28.4510   23.0700 C   0  0  0  0  0  3  0  0  0  0  0  0
  -25.8940  -32.4540   23.7290 C   0  0  0  0  0  3  0  0  0  0  0  0
  -25.6620  -33.8450   24.1380 N   0  0  0  0  0  0  0  0  0  0  0  0
  -25.9830  -34.9170   23.4030 C   0  0  0  0  0  0  0  0  0  0  0  0
  -26.5820  -34.8380   22.3260 O   0  0  0  0  0  0  0  0  0  0  0  0
  -25.1430  -33.9880   24.9930 H   0  0  0  0  0  0  0  0  0  0  0  0
  -24.3020  -36.7750   23.2330 C   0  0  0  0  0  1  0  0  0  0  0  0
  -25.5770  -36.2980   23.9500 C   0  0  0  0  0  3  0  0  0  0  0  0
  -27.7890  -37.0650   24.6830 C   0  0  0  0  0  1  0  0  0  0  0  0
  -26.6390  -37.3190   23.8180 N   0  0  0  0  0  0  0  0  0  0  0  0
  -26.2760  -38.2430   24.0340 H   0  0  0  0  0  0  0  0  0  0  0  0
  -26.4850  -31.6120   24.9250 C   0  0  1  0  0  0  0  0  0  0  0  0
  -25.4740  -31.3590   26.0660 C   0  0  0  0  0  1  0  0  0  0  0  0
  -26.9840  -30.2370   24.4200 C   0  0  0  0  0  1  0  0  0  0  0  0
  -27.7130  -32.3380   25.5240 C   0  0  0  0  0  1  0  0  0  0  0  0
  -28.9550  -20.3700   20.5470 C   0  0  0  0  0  2  0  0  0  0  0  0
  -30.6250  -19.3970   21.9560 C   0  0  0  0  0  0  0  0  0  0  0  0
  -31.6820  -19.5500   23.0270 C   0  0  0  0  0  1  0  0  0  0  0  0
  -29.9740  -20.4280   21.5810 N   0  0  0  0  0  0  0  0  0  0  0  0
  -30.4740  -17.9610   21.4500 C   0  0  0  0  0  2  0  0  0  0  0  0
  -31.6860  -17.4940   20.6130 C   0  0  0  0  0  2  0  0  0  0  0  0
  -32.2080  -16.0940   20.9950 C   0  0  0  0  0  2  0  0  0  0  0  0
  -31.5000  -14.1300   19.6440 C   0  0  0  0  0  0  0  0  0  0  0  0
  -30.9200  -11.9140   18.7280 C   0  0  0  0  0  2  0  0  0  0  0  0
  -29.8820  -12.0070   17.5960 C   0  0  0  0  0  2  0  0  0  0  0  0
  -28.4550  -11.9890   18.1690 C   0  0  0  0  0  2  0  0  0  0  0  0
  -28.2640  -13.0240   19.3070 C   0  0  0  0  0  3  0  0  0  0  0  0
  -29.4010  -12.9170   20.3510 C   0  0  0  0  0  2  0  0  0  0  0  0
  -30.6960  -13.0340   19.6560 N   0  0  0  0  0  0  0  0  0  0  0  0
  -32.4300  -14.2770   18.8460 O   0  0  0  0  0  0  0  0  0  0  0  0
  -31.2950  -15.0050   20.6350 N   0  0  0  0  0  0  0  0  0  0  0  0
  -30.5320  -14.8050   21.2620 H   0  0  0  0  0  0  0  0  0  0  0  0
  -26.0510  -13.8790   20.3100 C   0  0  0  0  0  0  0  0  0  0  0  0
  -24.9380  -13.2230   20.7630 C   0  0  0  0  0  0  0  0  0  0  0  0
  -25.2160  -11.8290   20.6230 C   0  0  0  0  0  0  0  0  0  0  0  0
  -26.9460  -12.8920   19.9270 N   0  0  0  0  0  0  0  0  0  0  0  0
  -26.4500  -11.6500   20.1690 N   0  0  0  0  0  0  0  0  0  0  0  0
  -24.3600  -10.6580   20.8410 C   0  0  0  0  0  0  0  0  0  0  0  0
  -24.7350   -9.6230   21.7260 C   0  0  0  0  0  3  0  0  0  0  0  0
  -23.8870   -8.5150   21.9330 C   0  0  0  0  0  3  0  0  0  0  0  0
  -22.6470   -8.4340   21.2550 C   0  0  0  0  0  0  0  0  0  0  0  0
  -22.2880   -9.4550   20.3580 C   0  0  0  0  0  3  0  0  0  0  0  0
  -23.1360  -10.5550   20.1490 C   0  0  0  0  0  3  0  0  0  0  0  0
  -21.7700   -7.3840   21.3740 O   0  0  0  0  0  0  0  0  0  0  0  0
  -21.6690   -6.6580   22.5350 C   0  0  0  0  0  0  0  0  0  0  0  0
  -21.3500   -7.2670   23.7690 C   0  0  0  0  0  3  0  0  0  0  0  0
  -21.1870   -6.4740   24.9230 C   0  0  0  0  0  3  0  0  0  0  0  0
  -21.3330   -5.0770   24.8450 C   0  0  0  0  0  0  0  0  0  0  0  0
  -21.6450   -4.4680   23.6160 C   0  0  0  0  0  3  0  0  0  0  0  0
  -21.8100   -5.2580   22.4640 C   0  0  0  0  0  0  0  0  0  0  0  0
  -22.0900   -4.6650   21.2780 F   0  0  0  0  0  0  0  0  0  0  0  0
  -21.1700   -4.3130   25.9500 F   0  0  0  0  0  0  0  0  0  0  0  0
  -23.6510  -13.8520   21.2140 C   0  0  0  0  0  0  0  0  0  0  0  0
  -22.9510  -13.2140   22.1450 N   0  0  0  0  0  0  0  0  0  0  0  0
  -23.2870  -14.9440   20.7820 O   0  0  0  0  0  0  0  0  0  0  0  0
  -23.2620  -12.3290   22.5150 H   0  0  0  0  0  0  0  0  0  0  0  0
  -22.0900  -13.6180   22.4900 H   0  0  0  0  0  0  0  0  0  0  0  0
  -26.3680  -15.2270   20.1720 N   0  0  0  0  0  0  0  0  0  0  0  0
  -25.7060  -15.9610   20.3950 H   0  0  0  0  0  0  0  0  0  0  0  0
  -27.2360  -15.5760   19.7820 H   0  0  0  0  0  0  0  0  0  0  0  0
  2  1  1  0
  3  1  2  0
  3 52  1  0
  4  2  2  0
  5  3  1  0
  6  5  2  0
  6  4  1  0
  7  5  1  0
  8  6  1  0
 10  9  1  0
 10  4  1  0
 10 11  1  0
 11 13  1  0
 12 23  2  0
 13 18  1  0
 14 22  1  0
 14 24  1  0
 15 21  1  0
 15 17  1  0
 16 22  1  0
 17 16  1  0
 18 17  2  0
 19 20  1  0
 19 13  2  0
 20 15  2  0
 21 14  1  0
 22 12  1  0
 24 26  2  0
 25 24  1  0
 27 25  1  0
 28 37  2  0
 28 33  1  0
 29 25  1  0
 29 33  1  0
 30 29  1  0
 31 32  1  0
 31 30  1  0
 32 28  1  0
 33 34  2  0
 34 35  1  0
 36 35  2  0
 37 36  1  0
 38 12  1  0
 38 39  1  0
 38 48  1  0
 39 42  1  0
 40 44  1  0
 40 39  1  0
 41 40  2  0
 44 43  1  0
 46 44  1  0
 46 47  1  0
 46 45  1  0
 48 51  1  1
 48 49  1  0
 50 48  1  0
 52 55  1  0
 53 54  1  0
 55 53  2  0
 56 53  1  0
 57 58  1  0
 57 56  1  0
 59 65  1  0
 59 67  1  0
 60 65  1  0
 61 62  1  0
 61 60  1  0
 63 62  1  0
 63 72  1  0
 63 64  1  0
 65 64  1  0
 66 59  2  0
 67 58  1  0
 67 68  1  0
 69 70  2  0
 70 89  1  0
 71 70  1  0
 71 74  1  0
 72 73  1  0
 72 69  1  0
 73 71  2  0
 74 75  1  0
 75 76  2  0
 77 80  1  0
 77 76  1  0
 78 77  2  0
 79 78  1  0
 79 74  2  0
 80 81  1  0
 81 82  1  0
 82 83  2  0
 84 83  1  0
 84 88  1  0
 85 84  2  0
 86 81  2  0
 86 85  1  0
 87 86  1  0
 89 90  1  0
 90 93  1  0
 90 92  1  0
 91 89  2  0
 94 69  1  0
 94 95  1  0
 96 94  1  0
M  ISO  4  10 101  11 101  59 100  67 100
M  END
>  <TORSDO>  (11) 
F 22

>  <SCORE>  (11) 
-12.034

>  <name>  (11) 
10

>  <ligand_id>  (11) 
10

>  <original_smiles>  (11) 
[H]c1c([H])c([H])c2c(c1[H])C([H])([H])C([H])([H])C([H])([H])C2([H])N([H])C(=O)C1([H])N(C(=O)C([H])(N([H])C(=O)C([H])(N([H])C([H])([H])[H])C([H])([H])[H])C(C([H])([H])[H])(C([H])([H])[H])C([H])([H])[H])C([H])([H])c2c([H])c(OC([H])(c3c([H])c([H])c(C([H])([H])N=C(C([H])([H])[H])C([H])([H])C([H])([H])C([H])([H])N([H])C(=O)N4C([H])([H])C([H])([H])C([H])([H])C([H])(n5nc(-c6c([H])c([H])c(Oc7c([H])c([H])c(F)c([H])c7F)c([H])c6[H])c(C(=O)N([H])[H])c5N([H])[H])C4([H])[H])c(Cl)c3Cl)C([H])([H])[H])c([H])c([H])c2C1([H])[H]

>  <smiles>  (11) 
[H]c1c([H])c([H])c2c(c1[H])C([H])([H])C([H])([H])C([H])([H])C2([H])N([H])C(=O)C1([H])N(C(=O)C([H])(N([H])C(=O)C([H])(N([H])C([H])([H])[H])C([H])([H])[H])C(C([H])([H])[H])(C([H])([H])[H])C([H])([H])[H])C([H])([H])c2c([H])c(OC([H])(c3c([H])c([H])c(C([H])([H])N=C(C([H])([H])[H])C([H])([H])C([H])([H])C([H])([H])N([H])C(=O)N4C([H])([H])C([H])([H])C([H])([H])C([H])(n5nc(-c6c([H])c([H])c(Oc7c([H])c([H])c(F)c([H])c7F)c([H])c6[H])c(C(=O)N([H])[H])c5N([H])[H])C4([H])[H])c(Cl)c3Cl)C([H])([H])[H])c([H])c([H])c2C1([H])[H]

$$$$
11:0:0
     RDKit          3D

 92100  0  0  1  0  0  0  0  0999 V2000
  -30.7680  -18.6210   20.7090 C   0  0  0  0  0  0  0  0  0  0  0  0
  -31.0210  -20.0180   20.6290 C   0  0  0  0  0  0  0  0  0  0  0  0
  -29.6180  -18.4230   19.9220 C   0  0  0  0  0  0  0  0  0  0  0  0
  -30.1180  -20.7320   20.0410 N   0  0  0  0  0  0  0  0  0  0  0  0
  -29.1270  -19.9240   19.6370 N   0  0  0  0  0  0  0  0  0  0  0  0
  -32.3780  -20.8640   21.2860 Cl  0  0  0  0  0  0  0  0  0  0  0  0
  -29.9130  -15.6610   19.4730 C   0  0  0  0  0  0  0  0  0  0  0  0
  -29.8670  -13.1960   18.6100 C   0  0  0  0  0  2  0  0  0  0  0  0
  -28.8180  -12.9020   17.5100 C   0  0  0  0  0  2  0  0  0  0  0  0
  -27.4670  -12.5220   18.1360 C   0  0  0  0  0  2  0  0  0  0  0  0
  -27.0960  -13.4690   19.3070 C   0  0  0  0  0  3  0  0  0  0  0  0
  -28.2690  -13.7470   20.2790 C   0  0  0  0  0  2  0  0  0  0  0  0
  -29.3650  -14.3330   19.4830 N   0  0  0  0  0  0  0  0  0  0  0  0
  -31.0690  -15.6370   19.0360 O   0  0  0  0  0  0  0  0  0  0  0  0
  -29.2110  -16.9720   19.7050 N   0  0  0  0  0  0  0  0  0  0  0  0
  -28.2140  -16.8410   19.7780 H   0  0  0  0  0  0  0  0  0  0  0  0
  -24.8430  -13.8680   20.4260 C   0  0  0  0  0  0  0  0  0  0  0  0
  -23.8770  -13.0290   20.9070 C   0  0  0  0  0  0  0  0  0  0  0  0
  -24.3890  -11.7040   20.7390 C   0  0  0  0  0  0  0  0  0  0  0  0
  -25.8730  -13.0570   19.9900 N   0  0  0  0  0  0  0  0  0  0  0  0
  -25.6210  -11.7450   20.2400 N   0  0  0  0  0  0  0  0  0  0  0  0
  -23.7460  -10.4010   20.9660 C   0  0  0  0  0  0  0  0  0  0  0  0
  -24.2500   -9.4800   21.9100 C   0  0  0  0  0  3  0  0  0  0  0  0
  -23.5990   -8.2450   22.1280 C   0  0  0  0  0  3  0  0  0  0  0  0
  -22.4310   -7.9190   21.4000 C   0  0  0  0  0  0  0  0  0  0  0  0
  -21.9440   -8.8300   20.4470 C   0  0  0  0  0  3  0  0  0  0  0  0
  -22.5950  -10.0570   20.2280 C   0  0  0  0  0  3  0  0  0  0  0  0
  -21.7470   -6.7330   21.5260 O   0  0  0  0  0  0  0  0  0  0  0  0
  -21.6690   -6.0720   22.7270 C   0  0  0  0  0  0  0  0  0  0  0  0
  -21.0660   -6.6590   23.8610 C   0  0  0  0  0  3  0  0  0  0  0  0
  -20.9410   -5.9190   25.0530 C   0  0  0  0  0  3  0  0  0  0  0  0
  -21.4080   -4.5910   25.1120 C   0  0  0  0  0  0  0  0  0  0  0  0
  -22.0050   -4.0050   23.9820 C   0  0  0  0  0  3  0  0  0  0  0  0
  -22.1310   -4.7430   22.7920 C   0  0  0  0  0  0  0  0  0  0  0  0
  -22.6840   -4.1650   21.7000 F   0  0  0  0  0  0  0  0  0  0  0  0
  -21.2850   -3.8770   26.2550 F   0  0  0  0  0  0  0  0  0  0  0  0
  -22.5170  -13.4290   21.3930 C   0  0  0  0  0  0  0  0  0  0  0  0
  -21.9550  -12.6810   22.3370 N   0  0  0  0  0  0  0  0  0  0  0  0
  -21.9600  -14.4410   20.9690 O   0  0  0  0  0  0  0  0  0  0  0  0
  -22.4170  -11.8660   22.7080 H   0  0  0  0  0  0  0  0  0  0  0  0
  -21.0460  -12.9340   22.6990 H   0  0  0  0  0  0  0  0  0  0  0  0
  -24.9220  -15.2510   20.2890 N   0  0  0  0  0  0  0  0  0  0  0  0
  -24.1580  -15.8680   20.5380 H   0  0  0  0  0  0  0  0  0  0  0  0
  -25.6730  -15.7260   19.8080 H   0  0  0  0  0  0  0  0  0  0  0  0
  -31.5180  -17.9400   23.0700 C   0  0  0  0  0  1  0  0  0  0  0  0
  -33.1460  -17.7940   21.1400 C   0  0  0  0  0  1  0  0  0  0  0  0
  -31.6610  -17.6940   21.5500 C   0  0  0  0  0  3  0  0  0  0  0  0
  -27.7510  -20.7390   17.5970 C   0  0  0  0  0  1  0  0  0  0  0  0
  -28.0390  -21.0670   19.0680 C   0  0  0  0  0  3  0  0  0  0  0  0
  -28.2260  -22.8890   19.1630 C   0  0  0  0  0  3  0  0  0  0  0  0
  -27.2350  -24.3550   18.7190 C   0  0  0  0  0  3  0  0  0  0  0  0
  -27.4500  -26.0080   18.7410 O   0  0  0  0  0  0  0  0  0  0  0  0
  -24.4530  -31.5290   22.9580 C   0  0  0  0  0  0  0  0  0  0  0  0
  -26.4490  -27.1000   18.9640 C   0  0  0  0  0  0  0  0  0  0  0  0
  -22.9950  -30.3300   21.3770 C   0  0  0  0  0  3  0  0  0  0  0  0
  -24.1790  -28.9410   19.5330 C   0  0  0  0  0  0  0  0  0  0  0  0
  -25.5020  -30.5990   20.8310 C   0  0  0  0  0  2  0  0  0  0  0  0
  -25.4540  -29.2830   20.0010 C   0  0  0  0  0  0  0  0  0  0  0  0
  -26.5770  -28.3870   19.6960 C   0  0  0  0  0  3  0  0  0  0  0  0
  -25.1390  -26.9270   18.4670 C   0  0  0  0  0  3  0  0  0  0  0  0
  -24.0450  -27.7890   18.7390 C   0  0  0  0  0  3  0  0  0  0  0  0
  -22.9860  -29.8230   19.9050 C   0  0  0  0  0  2  0  0  0  0  0  0
  -24.3470  -30.8430   21.7740 N   0  0  0  0  0  0  0  0  0  0  0  0
  -23.4660  -31.7300   23.6850 O   0  0  0  0  0  0  0  0  0  0  0  0
  -22.4680  -29.2100   22.3140 C   0  0  0  0  0  0  0  0  0  0  0  0
  -21.1650  -28.8820   22.2240 N   0  0  0  0  0  0  0  0  0  0  0  0
  -23.2370  -28.6360   23.0900 O   0  0  0  0  0  0  0  0  0  0  0  0
  -20.5910  -29.4000   21.5700 H   0  0  0  0  0  0  0  0  0  0  0  0
  -18.0560  -27.0460   22.5950 C   0  0  0  0  0  0  0  0  0  0  0  0
  -20.5010  -27.8070   22.9690 C   0  0  0  0  0  3  0  0  0  0  0  0
  -20.9030  -26.4180   22.4200 C   0  0  0  0  0  2  0  0  0  0  0  0
  -19.9340  -25.8810   21.3620 C   0  0  0  0  0  2  0  0  0  0  0  0
  -18.5230  -25.7550   21.9410 C   0  0  0  0  0  2  0  0  0  0  0  0
  -18.9840  -28.0150   23.0620 C   0  0  0  0  0  0  0  0  0  0  0  0
  -18.4970  -29.2080   23.6370 C   0  0  0  0  0  3  0  0  0  0  0  0
  -17.1130  -29.4420   23.7470 C   0  0  0  0  0  3  0  0  0  0  0  0
  -16.1980  -28.4760   23.2920 C   0  0  0  0  0  3  0  0  0  0  0  0
  -16.6700  -27.2790   22.7230 C   0  0  0  0  0  3  0  0  0  0  0  0
  -25.8110  -32.1140   23.4500 C   0  0  0  0  0  3  0  0  0  0  0  0
  -26.5070  -31.2140   24.5460 C   0  0  1  0  0  0  0  0  0  0  0  0
  -25.5700  -30.8100   25.7090 C   0  0  0  0  0  1  0  0  0  0  0  0
  -27.0650  -29.9140   23.9240 C   0  0  0  0  0  1  0  0  0  0  0  0
  -27.7160  -31.9690   25.1460 C   0  0  0  0  0  1  0  0  0  0  0  0
  -25.5590  -33.4620   23.9890 N   0  0  0  0  0  0  0  0  0  0  0  0
  -25.8570  -34.6090   23.3630 C   0  0  0  0  0  0  0  0  0  0  0  0
  -26.4340  -34.6390   22.2730 O   0  0  0  0  0  0  0  0  0  0  0  0
  -25.0430  -33.5110   24.8550 H   0  0  0  0  0  0  0  0  0  0  0  0
  -24.1800  -36.4860   23.3950 C   0  0  0  0  0  1  0  0  0  0  0  0
  -25.4540  -35.9300   24.0500 C   0  0  0  0  0  3  0  0  0  0  0  0
  -27.6640  -36.6350   24.8570 C   0  0  0  0  0  1  0  0  0  0  0  0
  -26.5130  -36.9600   24.0190 N   0  0  0  0  0  0  0  0  0  0  0  0
  -26.1480  -37.8630   24.3150 H   0  0  0  0  0  0  0  0  0  0  0  0
  1 47  1  0
  2  1  1  0
  2  6  1  0
  3  1  2  0
  4  2  2  0
  5  3  1  0
  5  4  1  0
  7 13  1  0
  7 15  1  0
  8 13  1  0
  9 10  1  0
  9  8  1  0
 11 10  1  0
 11 20  1  0
 11 12  1  0
 13 12  1  0
 14  7  2  0
 15 16  1  0
 15  3  1  0
 17 18  2  0
 18 37  1  0
 19 18  1  0
 19 22  1  0
 20 21  1  0
 20 17  1  0
 21 19  2  0
 22 23  1  0
 23 24  2  0
 25 28  1  0
 25 24  1  0
 26 25  2  0
 27 26  1  0
 27 22  2  0
 28 29  1  0
 29 34  2  0
 29 30  1  0
 30 31  2  0
 31 32  1  0
 32 36  1  0
 33 32  2  0
 34 33  1  0
 35 34  1  0
 37 38  1  0
 38 41  1  0
 38 40  1  0
 39 37  2  0
 42 17  1  0
 42 43  1  0
 44 42  1  0
 46 47  1  0
 47 45  1  0
 49 48  1  0
 49 50  1  0
 49  5  1  0
 51 52  1  0
 51 50  2  0
 52 54  1  0
 53 64  2  0
 54 59  1  0
 55 63  1  0
 55 65  1  0
 56 62  1  0
 56 58  1  0
 57 63  1  0
 58 57  1  0
 59 58  2  0
 60 61  1  0
 60 54  2  0
 61 56  2  0
 62 55  1  0
 63 53  1  0
 65 67  2  0
 66 65  1  0
 68 66  1  0
 69 78  2  0
 69 74  1  0
 70 66  1  0
 70 74  1  0
 71 70  1  0
 72 73  1  0
 72 71  1  0
 73 69  1  0
 74 75  2  0
 75 76  1  0
 77 76  2  0
 78 77  1  0
 79 53  1  0
 79 84  1  0
 79 80  1  0
 80 83  1  1
 80 81  1  0
 82 80  1  0
 84 87  1  0
 85 84  1  0
 85 89  1  0
 86 85  2  0
 89 88  1  0
 91 89  1  0
 91 92  1  0
 91 90  1  0
M  ISO  4   7 100  15 100  51 101  52 101
M  END
>  <TORSDO>  (12) 
F 20

>  <SCORE>  (12) 
-11.874

>  <name>  (12) 
11

>  <ligand_id>  (12) 
11

>  <original_smiles>  (12) 
[H]c1c([H])c([H])c2c(c1[H])C([H])([H])C([H])([H])C([H])([H])C2([H])N([H])C(=O)C1([H])N(C(=O)C([H])(N([H])C(=O)C([H])(N([H])C([H])([H])[H])C([H])([H])[H])C(C([H])([H])[H])(C([H])([H])[H])C([H])([H])[H])C([H])([H])c2c([H])c(OC([H])([H])C([H])([H])C([H])(n3nc(Cl)c(C([H])(C([H])([H])[H])C([H])([H])[H])c3N([H])C(=O)N3C([H])([H])C([H])([H])C([H])([H])C([H])(n4nc(-c5c([H])c([H])c(Oc6c([H])c([H])c(F)c([H])c6F)c([H])c5[H])c(C(=O)N([H])[H])c4N([H])[H])C3([H])[H])C([H])([H])[H])c([H])c([H])c2C1([H])[H]

>  <smiles>  (12) 
[H]c1c([H])c([H])c2c(c1[H])C([H])([H])C([H])([H])C([H])([H])C2([H])N([H])C(=O)C1([H])N(C(=O)C([H])(N([H])C(=O)C([H])(N([H])C([H])([H])[H])C([H])([H])[H])C(C([H])([H])[H])(C([H])([H])[H])C([H])([H])[H])C([H])([H])c2c([H])c(OC([H])([H])C([H])([H])C([H])(n3nc(Cl)c(C([H])(C([H])([H])[H])C([H])([H])[H])c3N([H])C(=O)N3C([H])([H])C([H])([H])C([H])([H])C([H])(n4nc(-c5c([H])c([H])c(Oc6c([H])c([H])c(F)c([H])c6F)c([H])c5[H])c(C(=O)N([H])[H])c4N([H])[H])C3([H])[H])C([H])([H])[H])c([H])c([H])c2C1([H])[H]

$$$$
12:0:0
     RDKit          3D

 91 99  0  0  1  0  0  0  0  0999 V2000
  -28.4970  -20.8130   18.7790 C   0  0  0  0  0  3  0  0  0  0  0  0
  -29.4020  -19.7640   20.7500 C   0  0  0  0  0  3  0  0  0  0  0  0
  -28.9650  -21.1000   20.0730 C   0  0  0  0  0  0  0  0  0  0  0  0
  -28.4330  -19.5060   18.2200 C   0  0  0  0  0  0  0  0  0  0  0  0
  -28.8660  -18.3020   18.8900 C   0  0  0  0  0  0  0  0  0  0  0  0
  -29.4140  -18.3030   20.2150 C   0  0  0  0  0  0  0  0  0  0  0  0
  -27.8410  -19.4310   16.8170 C   0  0  0  0  0  1  0  0  0  0  0  0
  -28.6670  -16.9510   18.1970 C   0  0  0  0  0  1  0  0  0  0  0  0
  -30.4740  -15.5710   20.7600 C   0  0  0  0  0  0  0  0  0  0  0  0
  -30.6460  -13.0540   20.0890 C   0  0  0  0  0  2  0  0  0  0  0  0
  -29.8690  -12.7490   18.7830 C   0  0  0  0  0  2  0  0  0  0  0  0
  -28.3930  -12.4310   19.0890 C   0  0  0  0  0  2  0  0  0  0  0  0
  -27.8000  -13.4240   20.1220 C   0  0  0  0  0  3  0  0  0  0  0  0
  -28.7260  -13.6930   21.3280 C   0  0  0  0  0  2  0  0  0  0  0  0
  -29.9900  -14.2240   20.7930 N   0  0  0  0  0  0  0  0  0  0  0  0
  -31.6980  -15.6100   20.5560 O   0  0  0  0  0  0  0  0  0  0  0  0
  -29.6510  -16.8230   20.8880 N   0  0  0  0  0  0  0  0  0  0  0  0
  -28.8030  -16.5500   21.3660 H   0  0  0  0  0  0  0  0  0  0  0  0
  -25.3690  -13.9350   20.6740 C   0  0  0  0  0  0  0  0  0  0  0  0
  -24.2980  -13.1390   20.9720 C   0  0  0  0  0  0  0  0  0  0  0  0
  -24.7930  -11.8000   20.9970 C   0  0  0  0  0  0  0  0  0  0  0  0
  -26.4450  -13.0790   20.5250 N   0  0  0  0  0  0  0  0  0  0  0  0
  -26.1070  -11.7890   20.7890 N   0  0  0  0  0  0  0  0  0  0  0  0
  -24.0790  -10.5240   21.1440 C   0  0  0  0  0  0  0  0  0  0  0  0
  -24.4490   -9.5830   22.1280 C   0  0  0  0  0  3  0  0  0  0  0  0
  -23.7350   -8.3730   22.2690 C   0  0  0  0  0  3  0  0  0  0  0  0
  -22.6330   -8.0980   21.4240 C   0  0  0  0  0  0  0  0  0  0  0  0
  -22.2810   -9.0280   20.4310 C   0  0  0  0  0  3  0  0  0  0  0  0
  -22.9960  -10.2300   20.2900 C   0  0  0  0  0  3  0  0  0  0  0  0
  -21.8960   -6.9380   21.4670 O   0  0  0  0  0  0  0  0  0  0  0  0
  -21.7590   -6.2160   22.6260 C   0  0  0  0  0  0  0  0  0  0  0  0
  -21.1890   -6.7750   23.7910 C   0  0  0  0  0  3  0  0  0  0  0  0
  -21.0100   -5.9760   24.9400 C   0  0  0  0  0  3  0  0  0  0  0  0
  -21.3820   -4.6180   24.9210 C   0  0  0  0  0  0  0  0  0  0  0  0
  -21.9440   -4.0590   23.7590 C   0  0  0  0  0  3  0  0  0  0  0  0
  -22.1290   -4.8550   22.6160 C   0  0  0  0  0  0  0  0  0  0  0  0
  -22.6490   -4.3050   21.4930 F   0  0  0  0  0  0  0  0  0  0  0  0
  -21.2020   -3.8500   26.0210 F   0  0  0  0  0  0  0  0  0  0  0  0
  -22.8730  -13.5880   21.1190 C   0  0  0  0  0  0  0  0  0  0  0  0
  -22.0860  -12.8850   21.9280 N   0  0  0  0  0  0  0  0  0  0  0  0
  -22.4630  -14.6010   20.5550 O   0  0  0  0  0  0  0  0  0  0  0  0
  -22.4210  -12.0670   22.4130 H   0  0  0  0  0  0  0  0  0  0  0  0
  -21.1280  -13.1690   22.0680 H   0  0  0  0  0  0  0  0  0  0  0  0
  -25.5220  -15.3060   20.4910 N   0  0  0  0  0  0  0  0  0  0  0  0
  -24.7380  -15.9480   20.5250 H   0  0  0  0  0  0  0  0  0  0  0  0
  -26.3880  -15.7480   20.2100 H   0  0  0  0  0  0  0  0  0  0  0  0
  -30.4660  -23.1800   20.5850 C   0  0  0  0  0  1  0  0  0  0  0  0
  -28.4670  -22.7830   22.0040 C   0  0  0  0  0  1  0  0  0  0  0  0
  -28.9720  -22.8070   20.5530 C   0  0  2  0  0  0  0  0  0  0  0  0
  -28.1890  -24.3120   19.8480 C   0  0  0  0  0  2  0  0  0  0  0  0
  -28.2960  -25.9670   20.1100 O   0  0  0  0  0  0  0  0  0  0  0  0
  -24.6540  -31.9150   23.1100 C   0  0  0  0  0  0  0  0  0  0  0  0
  -27.2680  -27.0650   20.0260 C   0  0  0  0  0  0  0  0  0  0  0  0
  -23.4760  -30.5100   21.4720 C   0  0  0  0  0  3  0  0  0  0  0  0
  -24.9390  -28.9340   20.0200 C   0  0  0  0  0  0  0  0  0  0  0  0
  -26.0410  -30.7470   21.3160 C   0  0  0  0  0  2  0  0  0  0  0  0
  -26.1250  -29.3440   20.6400 C   0  0  0  0  0  0  0  0  0  0  0  0
  -27.2800  -28.4320   20.6150 C   0  0  0  0  0  3  0  0  0  0  0  0
  -26.0500  -26.8220   19.3500 C   0  0  0  0  0  3  0  0  0  0  0  0
  -24.9290  -27.6970   19.3540 C   0  0  0  0  0  3  0  0  0  0  0  0
  -23.7050  -29.8370   20.0900 C   0  0  0  0  0  2  0  0  0  0  0  0
  -24.7470  -31.0850   22.0180 N   0  0  0  0  0  0  0  0  0  0  0  0
  -23.5610  -32.1870   23.6350 O   0  0  0  0  0  0  0  0  0  0  0  0
  -22.7990  -29.4980   22.4330 C   0  0  0  0  0  0  0  0  0  0  0  0
  -21.4700  -29.3200   22.3170 N   0  0  0  0  0  0  0  0  0  0  0  0
  -23.4780  -28.8760   23.2530 O   0  0  0  0  0  0  0  0  0  0  0  0
  -20.9780  -29.8730   21.6300 H   0  0  0  0  0  0  0  0  0  0  0  0
  -18.1030  -28.0740   22.8540 C   0  0  0  0  0  0  0  0  0  0  0  0
  -20.6640  -28.3630   23.0840 C   0  0  0  0  0  3  0  0  0  0  0  0
  -20.7710  -26.9420   22.4860 C   0  0  0  0  0  2  0  0  0  0  0  0
  -19.6570  -26.6220   21.4840 C   0  0  0  0  0  2  0  0  0  0  0  0
  -18.2840  -26.7390   22.1510 C   0  0  0  0  0  2  0  0  0  0  0  0
  -19.2200  -28.8440   23.2770 C   0  0  0  0  0  0  0  0  0  0  0  0
  -18.9940  -30.0900   23.8980 C   0  0  0  0  0  3  0  0  0  0  0  0
  -17.6850  -30.5660   24.1060 C   0  0  0  0  0  3  0  0  0  0  0  0
  -16.5840  -29.7940   23.6990 C   0  0  0  0  0  3  0  0  0  0  0  0
  -16.7940  -28.5500   23.0770 C   0  0  0  0  0  3  0  0  0  0  0  0
  -25.9160  -32.5740   23.7430 C   0  0  0  0  0  3  0  0  0  0  0  0
  -25.5710  -33.9590   24.1100 N   0  0  0  0  0  0  0  0  0  0  0  0
  -25.9020  -35.0470   23.4000 C   0  0  0  0  0  0  0  0  0  0  0  0
  -26.5900  -34.9900   22.3800 O   0  0  0  0  0  0  0  0  0  0  0  0
  -24.9610  -34.0770   24.9050 H   0  0  0  0  0  0  0  0  0  0  0  0
  -24.1800  -36.8550   23.0570 C   0  0  0  0  0  1  0  0  0  0  0  0
  -25.3890  -36.4150   23.9000 C   0  0  0  0  0  3  0  0  0  0  0  0
  -27.4810  -37.2740   24.8570 C   0  0  0  0  0  1  0  0  0  0  0  0
  -26.4200  -37.4760   23.8740 N   0  0  0  0  0  0  0  0  0  0  0  0
  -26.0050  -38.3880   24.0420 H   0  0  0  0  0  0  0  0  0  0  0  0
  -26.4490  -31.8000   25.0130 C   0  0  1  0  0  0  0  0  0  0  0  0
  -25.3620  -31.5280   26.0810 C   0  0  0  0  0  1  0  0  0  0  0  0
  -27.0630  -30.4370   24.6180 C   0  0  0  0  0  1  0  0  0  0  0  0
  -27.5830  -32.6120   25.6820 C   0  0  0  0  0  1  0  0  0  0  0  0
  1  3  1  0
  3 49  1  0
  3  2  2  0
  4  1  2  0
  4  5  1  0
  5  6  2  0
  6  2  1  0
  6 17  1  0
  7  4  1  0
  8  5  1  0
  9 15  1  0
  9 17  1  0
 10 15  1  0
 11 12  1  0
 11 10  1  0
 13 12  1  0
 13 22  1  0
 13 14  1  0
 15 14  1  0
 16  9  2  0
 17 18  1  0
 19 20  2  0
 20 21  1  0
 20 39  1  0
 21 24  1  0
 22 19  1  0
 22 23  1  0
 23 21  2  0
 24 25  1  0
 25 26  2  0
 27 30  1  0
 27 26  1  0
 28 27  2  0
 29 28  1  0
 29 24  2  0
 30 31  1  0
 31 32  1  0
 32 33  2  0
 34 33  1  0
 34 38  1  0
 35 34  2  0
 36 31  2  0
 36 35  1  0
 37 36  1  0
 39 40  1  0
 40 43  1  0
 40 42  1  0
 41 39  2  0
 44 45  1  0
 44 19  1  0
 46 44  1  0
 49 47  1  1
 49 48  1  0
 50 51  1  0
 50 49  1  0
 52 63  2  0
 53 51  1  0
 53 58  1  0
 54 62  1  0
 54 64  1  0
 55 61  1  0
 55 57  1  0
 56 62  1  0
 57 56  1  0
 58 57  2  0
 59 60  1  0
 59 53  2  0
 60 55  2  0
 61 54  1  0
 62 52  1  0
 64 66  2  0
 65 64  1  0
 67 65  1  0
 68 77  2  0
 68 73  1  0
 69 65  1  0
 69 73  1  0
 70 69  1  0
 71 72  1  0
 71 70  1  0
 72 68  1  0
 73 74  2  0
 74 75  1  0
 76 75  2  0
 77 76  1  0
 78 52  1  0
 78 79  1  0
 78 88  1  0
 79 82  1  0
 80 84  1  0
 80 79  1  0
 81 80  2  0
 84 83  1  0
 86 84  1  0
 86 87  1  0
 86 85  1  0
 88 91  1  1
 88 89  1  0
 90 88  1  0
M  ISO  4   9 100  17 100  50 101  51 101
M  END
>  <TORSDO>  (13) 
F 18

>  <SCORE>  (13) 
-15.909

>  <name>  (13) 
12

>  <ligand_id>  (13) 
12

>  <original_smiles>  (13) 
[H]c1c([H])c([H])c2c(c1[H])C([H])([H])C([H])([H])C([H])([H])C2([H])N([H])C(=O)C1([H])N(C(=O)C([H])(N([H])C(=O)C([H])(N([H])C([H])([H])[H])C([H])([H])[H])C(C([H])([H])[H])(C([H])([H])[H])C([H])([H])[H])C([H])([H])c2c([H])c(OC([H])([H])C(c3c([H])c(N([H])C(=O)N4C([H])([H])C([H])([H])C([H])([H])C([H])(n5nc(-c6c([H])c([H])c(Oc7c([H])c([H])c(F)c([H])c7F)c([H])c6[H])c(C(=O)N([H])[H])c5N([H])[H])C4([H])[H])c(C([H])([H])[H])c(C([H])([H])[H])c3[H])(C([H])([H])[H])C([H])([H])[H])c([H])c([H])c2C1([H])[H]

>  <smiles>  (13) 
[H]c1c([H])c([H])c2c(c1[H])C([H])([H])C([H])([H])C([H])([H])C2([H])N([H])C(=O)C1([H])N(C(=O)C([H])(N([H])C(=O)C([H])(N([H])C([H])([H])[H])C([H])([H])[H])C(C([H])([H])[H])(C([H])([H])[H])C([H])([H])[H])C([H])([H])c2c([H])c(OC([H])([H])C(c3c([H])c(N([H])C(=O)N4C([H])([H])C([H])([H])C([H])([H])C([H])(n5nc(-c6c([H])c([H])c(Oc7c([H])c([H])c(F)c([H])c7F)c([H])c6[H])c(C(=O)N([H])[H])c5N([H])[H])C4([H])[H])c(C([H])([H])[H])c(C([H])([H])[H])c3[H])(C([H])([H])[H])C([H])([H])[H])c([H])c([H])c2C1([H])[H]

$$$$
13:0:0
     RDKit          3D

 93101  0  0  1  0  0  0  0  0999 V2000
  -29.4940  -21.4280   19.5610 N   0  0  0  0  0  0  0  0  0  0  0  0
  -29.6430  -21.7580   18.6100 H   0  0  0  0  0  0  0  0  0  0  0  0
  -29.5590  -19.3410   21.0080 C   0  0  0  0  0  3  0  0  0  0  0  0
  -29.8740  -19.1840   18.6360 C   0  0  0  0  0  3  0  0  0  0  0  0
  -29.7030  -17.9210   21.1120 C   0  0  0  0  0  0  0  0  0  0  0  0
  -30.0160  -17.7660   18.7150 C   0  0  0  0  0  0  0  0  0  0  0  0
  -29.6490  -20.0140   19.7630 C   0  0  0  0  0  0  0  0  0  0  0  0
  -29.9690  -17.0950   19.9760 C   0  0  0  0  0  0  0  0  0  0  0  0
  -29.5360  -17.2780   22.4810 C   0  0  0  0  0  1  0  0  0  0  0  0
  -30.1390  -17.0090   17.4030 C   0  0  0  0  0  1  0  0  0  0  0  0
  -30.7670  -14.6330   19.6190 C   0  0  0  0  0  0  0  0  0  0  0  0
  -30.3960  -12.4540   18.4930 C   0  0  0  0  0  2  0  0  0  0  0  0
  -29.2900  -12.6650   17.4330 C   0  0  0  0  0  2  0  0  0  0  0  0
  -27.8890  -12.5070   18.0560 C   0  0  0  0  0  2  0  0  0  0  0  0
  -27.7300  -13.3050   19.3780 C   0  0  0  0  0  3  0  0  0  0  0  0
  -28.9270  -13.0550   20.3220 C   0  0  0  0  0  2  0  0  0  0  0  0
  -30.1510  -13.4110   19.5890 N   0  0  0  0  0  0  0  0  0  0  0  0
  -31.8620  -14.8160   19.0810 O   0  0  0  0  0  0  0  0  0  0  0  0
  -30.0180  -15.6420   20.1620 N   0  0  0  0  0  0  0  0  0  0  0  0
  -29.2780  -15.2830   20.7440 H   0  0  0  0  0  0  0  0  0  0  0  0
  -25.4880  -13.9100   20.4820 C   0  0  0  0  0  0  0  0  0  0  0  0
  -24.4580  -13.1380   20.9440 C   0  0  0  0  0  0  0  0  0  0  0  0
  -24.8600  -11.7810   20.7430 C   0  0  0  0  0  0  0  0  0  0  0  0
  -26.4540  -13.0240   20.0300 N   0  0  0  0  0  0  0  0  0  0  0  0
  -26.0890  -11.7340   20.2460 N   0  0  0  0  0  0  0  0  0  0  0  0
  -24.1240  -10.5260   20.9420 C   0  0  0  0  0  0  0  0  0  0  0  0
  -24.5960   -9.5250   21.8200 C   0  0  0  0  0  3  0  0  0  0  0  0
  -23.8620   -8.3350   22.0090 C   0  0  0  0  0  3  0  0  0  0  0  0
  -22.6420   -8.1370   21.3200 C   0  0  0  0  0  0  0  0  0  0  0  0
  -22.1880   -9.1270   20.4310 C   0  0  0  0  0  3  0  0  0  0  0  0
  -22.9230  -10.3100   20.2400 C   0  0  0  0  0  3  0  0  0  0  0  0
  -21.8740   -7.0020   21.4210 O   0  0  0  0  0  0  0  0  0  0  0  0
  -21.7870   -6.2940   22.5930 C   0  0  0  0  0  0  0  0  0  0  0  0
  -21.3220   -6.8850   23.7880 C   0  0  0  0  0  3  0  0  0  0  0  0
  -21.1840   -6.1030   24.9520 C   0  0  0  0  0  3  0  0  0  0  0  0
  -21.4990   -4.7310   24.9220 C   0  0  0  0  0  0  0  0  0  0  0  0
  -21.9560   -4.1400   23.7310 C   0  0  0  0  0  3  0  0  0  0  0  0
  -22.0970   -4.9190   22.5690 C   0  0  0  0  0  0  0  0  0  0  0  0
  -22.5180   -4.3400   21.4190 F   0  0  0  0  0  0  0  0  0  0  0  0
  -21.3580   -3.9780   26.0370 F   0  0  0  0  0  0  0  0  0  0  0  0
  -23.1330  -13.6260   21.4550 C   0  0  0  0  0  0  0  0  0  0  0  0
  -22.5240  -12.8920   22.3790 N   0  0  0  0  0  0  0  0  0  0  0  0
  -22.6520  -14.6910   21.0700 O   0  0  0  0  0  0  0  0  0  0  0  0
  -22.9290  -12.0290   22.7120 H   0  0  0  0  0  0  0  0  0  0  0  0
  -21.6410  -13.1980   22.7620 H   0  0  0  0  0  0  0  0  0  0  0  0
  -25.6760  -15.2860   20.3860 N   0  0  0  0  0  0  0  0  0  0  0  0
  -24.9550  -15.9460   20.6550 H   0  0  0  0  0  0  0  0  0  0  0  0
  -26.4780  -15.7300   19.9570 H   0  0  0  0  0  0  0  0  0  0  0  0
  -30.3880  -22.5390   21.5870 C   0  0  0  0  0  1  0  0  0  0  0  0
  -29.2390  -22.5040   20.5640 C   0  0  0  0  0  3  0  0  0  0  0  0
  -29.0360  -23.9550   19.9120 C   0  0  0  0  0  3  0  0  0  0  0  0
  -28.5560  -25.1660   20.8310 C   0  0  0  0  0  3  0  0  0  0  0  0
  -28.6830  -26.5470   20.3280 O   0  0  0  0  0  0  0  0  0  0  0  0
  -24.6350  -31.7740   23.1960 C   0  0  0  0  0  0  0  0  0  0  0  0
  -27.5230  -27.3240   20.2800 C   0  0  0  0  0  0  0  0  0  0  0  0
  -23.5420  -30.3200   21.5250 C   0  0  0  0  0  3  0  0  0  0  0  0
  -25.0990  -28.8130   20.1680 C   0  0  0  0  0  0  0  0  0  0  0  0
  -26.0680  -30.7440   21.4210 C   0  0  0  0  0  2  0  0  0  0  0  0
  -26.2230  -29.3660   20.7940 C   0  0  0  0  0  0  0  0  0  0  0  0
  -27.4430  -28.6340   20.8360 C   0  0  0  0  0  3  0  0  0  0  0  0
  -26.3810  -26.8090   19.6380 C   0  0  0  0  0  3  0  0  0  0  0  0
  -25.1760  -27.5400   19.5810 C   0  0  0  0  0  3  0  0  0  0  0  0
  -23.8280  -29.6380   20.1610 C   0  0  0  0  0  2  0  0  0  0  0  0
  -24.7640  -30.9640   22.1050 N   0  0  0  0  0  0  0  0  0  0  0  0
  -23.5250  -32.0110   23.6940 O   0  0  0  0  0  0  0  0  0  0  0  0
  -22.8860  -29.2870   22.4720 C   0  0  0  0  0  0  0  0  0  0  0  0
  -21.5700  -29.0700   22.3100 N   0  0  0  0  0  0  0  0  0  0  0  0
  -23.5600  -28.6820   23.3090 O   0  0  0  0  0  0  0  0  0  0  0  0
  -21.0820  -29.6090   21.6080 H   0  0  0  0  0  0  0  0  0  0  0  0
  -18.2140  -27.7890   22.7320 C   0  0  0  0  0  0  0  0  0  0  0  0
  -20.7590  -28.1120   23.0620 C   0  0  0  0  0  3  0  0  0  0  0  0
  -20.9120  -26.6830   22.4900 C   0  0  0  0  0  2  0  0  0  0  0  0
  -19.8420  -26.3340   21.4500 C   0  0  0  0  0  2  0  0  0  0  0  0
  -18.4410  -26.4460   22.0590 C   0  0  0  0  0  2  0  0  0  0  0  0
  -19.3030  -28.5780   23.1880 C   0  0  0  0  0  0  0  0  0  0  0  0
  -19.0380  -29.8350   23.7740 C   0  0  0  0  0  3  0  0  0  0  0  0
  -17.7170  -30.3030   23.9080 C   0  0  0  0  0  3  0  0  0  0  0  0
  -16.6430  -29.5110   23.4680 C   0  0  0  0  0  3  0  0  0  0  0  0
  -16.8920  -28.2560   22.8840 C   0  0  0  0  0  3  0  0  0  0  0  0
  -25.8720  -32.4570   23.8580 C   0  0  0  0  0  3  0  0  0  0  0  0
  -26.3730  -31.7130   25.1550 C   0  0  1  0  0  0  0  0  0  0  0  0
  -25.2500  -31.4310   26.1800 C   0  0  0  0  0  1  0  0  0  0  0  0
  -27.0300  -30.3630   24.7900 C   0  0  0  0  0  1  0  0  0  0  0  0
  -27.4620  -32.5580   25.8580 C   0  0  0  0  0  1  0  0  0  0  0  0
  -25.4980  -33.8440   24.1690 N   0  0  0  0  0  0  0  0  0  0  0  0
  -25.8070  -34.9050   23.4100 C   0  0  0  0  0  0  0  0  0  0  0  0
  -26.5030  -34.8210   22.3930 O   0  0  0  0  0  0  0  0  0  0  0  0
  -24.8820  -33.9810   24.9570 H   0  0  0  0  0  0  0  0  0  0  0  0
  -24.0110  -36.6170   23.0100 C   0  0  0  0  0  1  0  0  0  0  0  0
  -25.2560  -36.2760   23.8440 C   0  0  0  0  0  3  0  0  0  0  0  0
  -27.3380  -37.2590   24.6990 C   0  0  0  0  0  1  0  0  0  0  0  0
  -26.2460  -37.3700   23.7340 N   0  0  0  0  0  0  0  0  0  0  0  0
  -25.7990  -38.2730   23.8670 H   0  0  0  0  0  0  0  0  0  0  0  0
  1  7  1  0
  1 50  1  0
  2  1  1  0
  3  5  1  0
  4  6  2  0
  4  7  1  0
  5  9  1  0
  6  8  1  0
  7  3  2  0
  8 19  1  0
  8  5  2  0
 10  6  1  0
 11 19  1  0
 12 17  1  0
 13 14  1  0
 13 12  1  0
 15 14  1  0
 15 24  1  0
 15 16  1  0
 17 11  1  0
 17 16  1  0
 18 11  2  0
 19 20  1  0
 21 22  2  0
 22 41  1  0
 23 26  1  0
 23 22  1  0
 24 25  1  0
 24 21  1  0
 25 23  2  0
 26 27  1  0
 27 28  2  0
 29 32  1  0
 29 28  1  0
 30 29  2  0
 31 30  1  0
 31 26  2  0
 32 33  1  0
 33 34  1  0
 34 35  2  0
 36 35  1  0
 36 40  1  0
 37 36  2  0
 38 33  2  0
 38 37  1  0
 39 38  1  0
 41 42  1  0
 42 44  1  0
 42 45  1  0
 43 41  2  0
 46 21  1  0
 46 47  1  0
 48 46  1  0
 50 49  1  0
 51 50  1  0
 51 52  2  0
 53 52  1  0
 54 65  2  0
 55 53  1  0
 55 60  1  0
 56 64  1  0
 56 66  1  0
 57 59  1  0
 58 64  1  0
 59 60  2  0
 59 58  1  0
 61 55  2  0
 62 61  1  0
 62 57  2  0
 63 57  1  0
 63 56  1  0
 64 54  1  0
 66 68  2  0
 67 66  1  0
 69 67  1  0
 70 79  2  0
 70 75  1  0
 71 67  1  0
 71 75  1  0
 72 71  1  0
 73 74  1  0
 73 72  1  0
 74 70  1  0
 75 76  2  0
 76 77  1  0
 78 77  2  0
 79 78  1  0
 80 54  1  0
 80 85  1  0
 80 81  1  0
 81 84  1  1
 81 82  1  0
 83 81  1  0
 85 88  1  0
 86 90  1  0
 86 85  1  0
 87 86  2  0
 90 89  1  0
 92 90  1  0
 92 93  1  0
 92 91  1  0
M  ISO  4  11 100  19 100  52 101  53 101
M  END
>  <TORSDO>  (14) 
F 20

>  <SCORE>  (14) 
-10.905

>  <name>  (14) 
13

>  <ligand_id>  (14) 
13

>  <original_smiles>  (14) 
[H]c1c([H])c([H])c2c(c1[H])C([H])([H])C([H])([H])C([H])([H])C2([H])N([H])C(=O)C1([H])N(C(=O)C([H])(N([H])C(=O)C([H])(N([H])C([H])([H])[H])C([H])([H])[H])C(C([H])([H])[H])(C([H])([H])[H])C([H])([H])[H])C([H])([H])c2c([H])c(OC([H])([H])C([H])([H])C([H])(N([H])c3c([H])c(C([H])([H])[H])c(N([H])C(=O)N4C([H])([H])C([H])([H])C([H])([H])C([H])(n5nc(-c6c([H])c([H])c(Oc7c([H])c([H])c(F)c([H])c7F)c([H])c6[H])c(C(=O)N([H])[H])c5N([H])[H])C4([H])[H])c(C([H])([H])[H])c3[H])C([H])([H])[H])c([H])c([H])c2C1([H])[H]

>  <smiles>  (14) 
[H]c1c([H])c([H])c2c(c1[H])C([H])([H])C([H])([H])C([H])([H])C2([H])N([H])C(=O)C1([H])N(C(=O)C([H])(N([H])C(=O)C([H])(N([H])C([H])([H])[H])C([H])([H])[H])C(C([H])([H])[H])(C([H])([H])[H])C([H])([H])[H])C([H])([H])c2c([H])c(OC([H])([H])C([H])([H])C([H])(N([H])c3c([H])c(C([H])([H])[H])c(N([H])C(=O)N4C([H])([H])C([H])([H])C([H])([H])C([H])(n5nc(-c6c([H])c([H])c(Oc7c([H])c([H])c(F)c([H])c7F)c([H])c6[H])c(C(=O)N([H])[H])c5N([H])[H])C4([H])[H])c(C([H])([H])[H])c3[H])C([H])([H])[H])c([H])c([H])c2C1([H])[H]

$$$$
14:0:0
     RDKit          3D

 94102  0  0  1  0  0  0  0  0999 V2000
  -30.7750  -21.5940   20.3780 C   0  0  0  0  0  3  0  0  0  0  0  0
  -31.1170  -20.1990   20.3350 C   0  0  0  0  0  0  0  0  0  0  0  0
  -29.4820  -22.1550   20.1460 C   0  0  0  0  0  0  0  0  0  0  0  0
  -30.1850  -19.1430   20.0480 C   0  0  0  0  0  0  0  0  0  0  0  0
  -28.8830  -19.6730   19.7250 C   0  0  0  0  0  0  0  0  0  0  0  0
  -28.5490  -21.1080   19.7760 C   0  0  0  0  0  0  0  0  0  0  0  0
  -32.5760  -19.8740   20.6230 C   0  0  0  0  0  1  0  0  0  0  0  0
  -27.8210  -18.6670   19.3040 C   0  0  0  0  0  1  0  0  0  0  0  0
  -26.9340  -21.5940   19.3860 Cl  0  0  0  0  0  0  0  0  0  0  0  0
  -30.5060  -24.4720   20.7970 C   0  0  0  0  0  1  0  0  0  0  0  0
  -29.1640  -23.7480   20.5140 C   0  0  2  0  0  0  0  0  0  0  0  0
  -28.9020  -22.9820   23.0290 C   0  0  0  0  0  1  0  0  0  0  0  0
  -28.3570  -23.8060   21.8450 C   0  0  0  0  0  2  0  0  0  0  0  0
  -28.3970  -24.8270   19.5190 C   0  0  0  0  0  2  0  0  0  0  0  0
  -28.4480  -26.3490   19.7750 O   0  0  0  0  0  0  0  0  0  0  0  0
  -24.6790  -31.6940   23.0390 C   0  0  0  0  0  0  0  0  0  0  0  0
  -27.3270  -27.2330   19.7530 C   0  0  0  0  0  0  0  0  0  0  0  0
  -23.4770  -30.3120   21.3870 C   0  0  0  0  0  3  0  0  0  0  0  0
  -24.9330  -28.8560   19.8560 C   0  0  0  0  0  0  0  0  0  0  0  0
  -26.0080  -30.6930   21.1520 C   0  0  0  0  0  2  0  0  0  0  0  0
  -26.1080  -29.3330   20.4470 C   0  0  0  0  0  0  0  0  0  0  0  0
  -27.3030  -28.5350   20.3820 C   0  0  0  0  0  3  0  0  0  0  0  0
  -26.1240  -26.8490   19.1210 C   0  0  0  0  0  3  0  0  0  0  0  0
  -24.9500  -27.6270   19.1790 C   0  0  0  0  0  3  0  0  0  0  0  0
  -23.6750  -29.6970   19.9760 C   0  0  0  0  0  2  0  0  0  0  0  0
  -24.7420  -30.9190   21.9140 N   0  0  0  0  0  0  0  0  0  0  0  0
  -23.6020  -31.9160   23.6130 O   0  0  0  0  0  0  0  0  0  0  0  0
  -22.8750  -29.2420   22.3290 C   0  0  0  0  0  0  0  0  0  0  0  0
  -21.5550  -29.0030   22.2200 N   0  0  0  0  0  0  0  0  0  0  0  0
  -23.5940  -28.6310   23.1230 O   0  0  0  0  0  0  0  0  0  0  0  0
  -21.0280  -29.5550   21.5570 H   0  0  0  0  0  0  0  0  0  0  0  0
  -18.2560  -27.6010   22.7210 C   0  0  0  0  0  0  0  0  0  0  0  0
  -20.7970  -28.0060   22.9790 C   0  0  0  0  0  3  0  0  0  0  0  0
  -20.9780  -26.5920   22.3790 C   0  0  0  0  0  2  0  0  0  0  0  0
  -19.8910  -26.2240   21.3650 C   0  0  0  0  0  2  0  0  0  0  0  0
  -18.5060  -26.2750   22.0200 C   0  0  0  0  0  2  0  0  0  0  0  0
  -19.3320  -28.4190   23.1560 C   0  0  0  0  0  0  0  0  0  0  0  0
  -19.0420  -29.6560   23.7720 C   0  0  0  0  0  3  0  0  0  0  0  0
  -17.7110  -30.0740   23.9590 C   0  0  0  0  0  3  0  0  0  0  0  0
  -16.6510  -29.2530   23.5390 C   0  0  0  0  0  3  0  0  0  0  0  0
  -16.9240  -28.0180   22.9240 C   0  0  0  0  0  3  0  0  0  0  0  0
  -25.9540  -32.3540   23.6450 C   0  0  0  0  0  3  0  0  0  0  0  0
  -26.5310  -31.5660   24.8870 C   0  0  1  0  0  0  0  0  0  0  0  0
  -25.4770  -31.2650   25.9780 C   0  0  0  0  0  1  0  0  0  0  0  0
  -27.1490  -30.2200   24.4450 C   0  0  0  0  0  1  0  0  0  0  0  0
  -27.6760  -32.3810   25.5360 C   0  0  0  0  0  1  0  0  0  0  0  0
  -25.6040  -33.7300   24.0310 N   0  0  0  0  0  0  0  0  0  0  0  0
  -25.9020  -34.8230   23.3150 C   0  0  0  0  0  0  0  0  0  0  0  0
  -26.5680  -34.7800   22.2780 O   0  0  0  0  0  0  0  0  0  0  0  0
  -25.0100  -33.8350   24.8400 H   0  0  0  0  0  0  0  0  0  0  0  0
  -24.1240  -36.5820   23.0440 C   0  0  0  0  0  1  0  0  0  0  0  0
  -25.3790  -36.1770   23.8320 C   0  0  0  0  0  3  0  0  0  0  0  0
  -27.4890  -37.0900   24.6960 C   0  0  0  0  0  1  0  0  0  0  0  0
  -26.3820  -37.2640   23.7600 N   0  0  0  0  0  0  0  0  0  0  0  0
  -25.9500  -38.1650   23.9460 H   0  0  0  0  0  0  0  0  0  0  0  0
  -30.7500  -17.5940   19.9880 C   0  0  0  0  0  2  0  0  0  0  0  0
  -30.7970  -14.9670   20.0930 C   0  0  0  0  0  0  0  0  0  0  0  0
  -30.5310  -12.6550   19.1390 C   0  0  0  0  0  2  0  0  0  0  0  0
  -29.5810  -12.6890   17.9220 C   0  0  0  0  0  2  0  0  0  0  0  0
  -28.1170  -12.5410   18.3760 C   0  0  0  0  0  2  0  0  0  0  0  0
  -27.7700  -13.4600   19.5770 C   0  0  0  0  0  3  0  0  0  0  0  0
  -28.8440  -13.4150   20.6840 C   0  0  0  0  0  2  0  0  0  0  0  0
  -30.1230  -13.7560   20.0540 N   0  0  0  0  0  0  0  0  0  0  0  0
  -31.9910  -14.9680   19.7800 O   0  0  0  0  0  0  0  0  0  0  0  0
  -30.1220  -16.1950   20.2500 N   0  0  0  0  0  0  0  0  0  0  0  0
  -29.1410  -16.1590   20.4780 H   0  0  0  0  0  0  0  0  0  0  0  0
  -25.4110  -14.0980   20.3410 C   0  0  0  0  0  0  0  0  0  0  0  0
  -24.3370  -13.3480   20.7340 C   0  0  0  0  0  0  0  0  0  0  0  0
  -24.7720  -11.9870   20.7100 C   0  0  0  0  0  0  0  0  0  0  0  0
  -26.4330  -13.1960   20.0960 N   0  0  0  0  0  0  0  0  0  0  0  0
  -26.0580  -11.9210   20.3830 N   0  0  0  0  0  0  0  0  0  0  0  0
  -24.0220  -10.7420   20.9200 C   0  0  0  0  0  0  0  0  0  0  0  0
  -24.4410   -9.7750   21.8610 C   0  0  0  0  0  3  0  0  0  0  0  0
  -23.6890   -8.5970   22.0600 C   0  0  0  0  0  3  0  0  0  0  0  0
  -22.5040   -8.3760   21.3180 C   0  0  0  0  0  0  0  0  0  0  0  0
  -22.1050   -9.3310   20.3660 C   0  0  0  0  0  3  0  0  0  0  0  0
  -22.8570  -10.5000   20.1660 C   0  0  0  0  0  3  0  0  0  0  0  0
  -21.7250   -7.2490   21.4250 O   0  0  0  0  0  0  0  0  0  0  0  0
  -21.6790   -6.5140   22.5830 C   0  0  0  0  0  0  0  0  0  0  0  0
  -21.2710   -7.0830   23.8100 C   0  0  0  0  0  3  0  0  0  0  0  0
  -21.1700   -6.2760   24.9600 C   0  0  0  0  0  3  0  0  0  0  0  0
  -21.4660   -4.9020   24.8860 C   0  0  0  0  0  0  0  0  0  0  0  0
  -21.8670   -4.3330   23.6650 C   0  0  0  0  0  3  0  0  0  0  0  0
  -21.9690   -5.1370   22.5160 C   0  0  0  0  0  0  0  0  0  0  0  0
  -22.3350   -4.5800   21.3360 F   0  0  0  0  0  0  0  0  0  0  0  0
  -21.3620   -4.1250   25.9890 F   0  0  0  0  0  0  0  0  0  0  0  0
  -22.9530  -13.8570   21.0170 C   0  0  0  0  0  0  0  0  0  0  0  0
  -22.2240  -13.1890   21.9040 N   0  0  0  0  0  0  0  0  0  0  0  0
  -22.5280  -14.8810   20.4840 O   0  0  0  0  0  0  0  0  0  0  0  0
  -22.5790  -12.3600   22.3560 H   0  0  0  0  0  0  0  0  0  0  0  0
  -21.2950  -13.5140   22.1360 H   0  0  0  0  0  0  0  0  0  0  0  0
  -25.6000  -15.4620   20.1440 N   0  0  0  0  0  0  0  0  0  0  0  0
  -24.8450  -16.1310   20.2550 H   0  0  0  0  0  0  0  0  0  0  0  0
  -26.4320  -15.8680   19.7410 H   0  0  0  0  0  0  0  0  0  0  0  0
  2  1  1  0
  2  7  1  0
  3  1  2  0
  3 11  1  0
  4  2  2  0
  5  6  2  0
  5  4  1  0
  6  3  1  0
  8  5  1  0
  9  6  1  0
 11 10  1  1
 11 13  1  0
 13 12  1  0
 14 15  1  0
 14 11  1  0
 16 27  2  0
 17 15  1  0
 17 22  1  0
 18 26  1  0
 18 28  1  0
 19 25  1  0
 19 21  1  0
 20 26  1  0
 21 20  1  0
 22 21  2  0
 23 24  1  0
 23 17  2  0
 24 19  2  0
 25 18  1  0
 26 16  1  0
 28 30  2  0
 29 28  1  0
 31 29  1  0
 32 41  2  0
 32 37  1  0
 33 29  1  0
 33 37  1  0
 34 33  1  0
 35 36  1  0
 35 34  1  0
 36 32  1  0
 37 38  2  0
 38 39  1  0
 40 39  2  0
 41 40  1  0
 42 16  1  0
 42 47  1  0
 42 43  1  0
 43 46  1  1
 43 44  1  0
 45 43  1  0
 47 50  1  0
 48 52  1  0
 48 47  1  0
 49 48  2  0
 52 51  1  0
 54 52  1  0
 54 55  1  0
 54 53  1  0
 56  4  1  0
 56 65  1  0
 57 65  1  0
 58 63  1  0
 59 60  1  0
 59 58  1  0
 61 60  1  0
 61 70  1  0
 61 62  1  0
 63 57  1  0
 63 62  1  0
 64 57  2  0
 65 66  1  0
 67 68  2  0
 68 87  1  0
 69 68  1  0
 69 72  1  0
 70 67  1  0
 70 71  1  0
 71 69  2  0
 72 73  1  0
 73 74  2  0
 75 78  1  0
 75 74  1  0
 76 75  2  0
 77 76  1  0
 77 72  2  0
 78 79  1  0
 79 80  1  0
 80 81  2  0
 82 81  1  0
 82 86  1  0
 83 82  2  0
 84 79  2  0
 84 83  1  0
 85 84  1  0
 87 88  1  0
 88 91  1  0
 88 90  1  0
 89 87  2  0
 92 93  1  0
 92 67  1  0
 94 92  1  0
M  ISO  4  14 101  15 101  57 100  65 100
M  END
>  <TORSDO>  (15) 
F 20

>  <SCORE>  (15) 
-13.162

>  <name>  (15) 
14

>  <ligand_id>  (15) 
14

>  <original_smiles>  (15) 
[H]c1c([H])c([H])c2c(c1[H])C([H])([H])C([H])([H])C([H])([H])C2([H])N([H])C(=O)C1([H])N(C(=O)C([H])(N([H])C(=O)C([H])(N([H])C([H])([H])[H])C([H])([H])[H])C(C([H])([H])[H])(C([H])([H])[H])C([H])([H])[H])C([H])([H])c2c([H])c(OC([H])([H])C(c3c([H])c(C([H])([H])[H])c(C([H])([H])N([H])C(=O)N4C([H])([H])C([H])([H])C([H])([H])C([H])(n5nc(-c6c([H])c([H])c(Oc7c([H])c([H])c(F)c([H])c7F)c([H])c6[H])c(C(=O)N([H])[H])c5N([H])[H])C4([H])[H])c(C([H])([H])[H])c3Cl)(C([H])([H])[H])C([H])([H])C([H])([H])[H])c([H])c([H])c2C1([H])[H]

>  <smiles>  (15) 
[H]c1c([H])c([H])c2c(c1[H])C([H])([H])C([H])([H])C([H])([H])C2([H])N([H])C(=O)C1([H])N(C(=O)C([H])(N([H])C(=O)C([H])(N([H])C([H])([H])[H])C([H])([H])[H])C(C([H])([H])[H])(C([H])([H])[H])C([H])([H])[H])C([H])([H])c2c([H])c(OC([H])([H])C(c3c([H])c(C([H])([H])[H])c(C([H])([H])N([H])C(=O)N4C([H])([H])C([H])([H])C([H])([H])C([H])(n5nc(-c6c([H])c([H])c(Oc7c([H])c([H])c(F)c([H])c7F)c([H])c6[H])c(C(=O)N([H])[H])c5N([H])[H])C4([H])[H])c(C([H])([H])[H])c3Cl)(C([H])([H])[H])C([H])([H])C([H])([H])[H])c([H])c([H])c2C1([H])[H]

$$$$
15:0:0
     RDKit          3D

 93102  0  0  1  0  0  0  0  0999 V2000
  -30.6510  -14.6920   20.4220 C   0  0  0  0  0  0  0  0  0  0  0  0
  -30.4220  -12.4330   19.4010 C   0  0  0  0  0  2  0  0  0  0  0  0
  -29.5000  -12.5530   18.1660 C   0  0  0  0  0  2  0  0  0  0  0  0
  -28.0200  -12.4210   18.5740 C   0  0  0  0  0  2  0  0  0  0  0  0
  -27.6530  -13.3090   19.7930 C   0  0  0  0  0  3  0  0  0  0  0  0
  -28.6920  -13.1630   20.9280 C   0  0  0  0  0  2  0  0  0  0  0  0
  -30.0130  -13.4770   20.3640 N   0  0  0  0  0  0  0  0  0  0  0  0
  -31.8310  -14.7900   20.0690 O   0  0  0  0  0  0  0  0  0  0  0  0
  -28.9350  -18.0880   20.8670 C   0  0  0  0  0  3  0  0  0  0  0  0
  -31.2390  -19.1760   19.9250 C   0  0  0  0  0  3  0  0  0  0  0  0
  -29.0160  -19.5130   20.7170 C   0  0  0  0  0  0  0  0  0  0  0  0
  -30.2080  -20.0950   20.2520 C   0  0  0  0  0  0  0  0  0  0  0  0
  -30.0300  -17.2270   20.5410 C   0  0  0  0  0  0  0  0  0  0  0  0
  -27.8660  -20.4530   21.0600 C   0  0  0  0  0  2  0  0  0  0  0  0
  -27.9190  -21.8070   20.2890 C   0  0  0  0  0  2  0  0  0  0  0  0
  -30.3870  -21.6540   20.0980 C   0  0  0  0  0  3  0  0  0  0  0  0
  -31.6430  -22.1060   20.8710 C   0  0  0  0  0  1  0  0  0  0  0  0
  -31.1570  -17.8190   20.0660 N   0  0  0  0  0  0  0  0  0  0  0  0
  -29.8600  -15.7810   20.7220 N   0  0  0  0  0  0  0  0  0  0  0  0
  -29.2060  -22.5430   20.4660 N   0  0  1  0  0  4  0  0  0  0  0  0
  -28.9410  -15.5130   21.0340 H   0  0  0  0  0  0  0  0  0  0  0  0
  -29.2960  -22.6880   21.4630 H   0  0  0  0  0  0  0  0  0  0  0  0
  -25.2610  -13.9570   20.4630 C   0  0  0  0  0  0  0  0  0  0  0  0
  -24.1760  -13.2070   20.8290 C   0  0  0  0  0  0  0  0  0  0  0  0
  -24.6160  -11.8480   20.8260 C   0  0  0  0  0  0  0  0  0  0  0  0
  -26.2940  -13.0550   20.2590 N   0  0  0  0  0  0  0  0  0  0  0  0
  -25.9100  -11.7840   20.5400 N   0  0  0  0  0  0  0  0  0  0  0  0
  -23.8660  -10.6010   21.0230 C   0  0  0  0  0  0  0  0  0  0  0  0
  -24.2810   -9.6300   21.9610 C   0  0  0  0  0  3  0  0  0  0  0  0
  -23.5330   -8.4470   22.1450 C   0  0  0  0  0  3  0  0  0  0  0  0
  -22.3550   -8.2280   21.3920 C   0  0  0  0  0  0  0  0  0  0  0  0
  -21.9600   -9.1870   20.4430 C   0  0  0  0  0  3  0  0  0  0  0  0
  -22.7080  -10.3610   20.2570 C   0  0  0  0  0  3  0  0  0  0  0  0
  -21.5800   -7.0970   21.4860 O   0  0  0  0  0  0  0  0  0  0  0  0
  -21.5280   -6.3520   22.6370 C   0  0  0  0  0  0  0  0  0  0  0  0
  -21.1460   -6.9170   23.8730 C   0  0  0  0  0  3  0  0  0  0  0  0
  -21.0410   -6.1010   25.0170 C   0  0  0  0  0  3  0  0  0  0  0  0
  -21.3060   -4.7210   24.9250 C   0  0  0  0  0  0  0  0  0  0  0  0
  -21.6810   -4.1560   23.6940 C   0  0  0  0  0  3  0  0  0  0  0  0
  -21.7890   -4.9700   22.5520 C   0  0  0  0  0  0  0  0  0  0  0  0
  -22.1300   -4.4170   21.3640 F   0  0  0  0  0  0  0  0  0  0  0  0
  -21.1970   -3.9360   26.0220 F   0  0  0  0  0  0  0  0  0  0  0  0
  -22.7830  -13.7110   21.0680 C   0  0  0  0  0  0  0  0  0  0  0  0
  -22.0300  -13.0450   21.9370 N   0  0  0  0  0  0  0  0  0  0  0  0
  -22.3690  -14.7310   20.5190 O   0  0  0  0  0  0  0  0  0  0  0  0
  -22.3780  -12.2200   22.4030 H   0  0  0  0  0  0  0  0  0  0  0  0
  -21.0940  -13.3650   22.1410 H   0  0  0  0  0  0  0  0  0  0  0  0
  -25.4510  -15.3220   20.2660 N   0  0  0  0  0  0  0  0  0  0  0  0
  -24.6830  -15.9810   20.3390 H   0  0  0  0  0  0  0  0  0  0  0  0
  -26.2920  -15.7370   19.8870 H   0  0  0  0  0  0  0  0  0  0  0  0
  -29.2210  -23.9460   19.8280 C   0  0  0  0  0  3  0  0  0  0  0  0
  -28.3830  -25.1230   20.5160 C   0  0  0  0  0  3  0  0  0  0  0  0
  -28.5050  -26.5060   19.9810 O   0  0  0  0  0  0  0  0  0  0  0  0
  -24.6410  -31.7910   23.0520 C   0  0  0  0  0  0  0  0  0  0  0  0
  -27.3620  -27.3210   19.9730 C   0  0  0  0  0  0  0  0  0  0  0  0
  -23.4720  -30.3750   21.4010 C   0  0  0  0  0  3  0  0  0  0  0  0
  -24.9590  -28.8680   19.9660 C   0  0  0  0  0  0  0  0  0  0  0  0
  -26.0000  -30.7590   21.2190 C   0  0  0  0  0  2  0  0  0  0  0  0
  -26.1140  -29.3860   20.5650 C   0  0  0  0  0  0  0  0  0  0  0  0
  -27.3220  -28.6260   20.5550 C   0  0  0  0  0  3  0  0  0  0  0  0
  -26.1870  -26.8560   19.3450 C   0  0  0  0  0  3  0  0  0  0  0  0
  -24.9970  -27.6090   19.3460 C   0  0  0  0  0  3  0  0  0  0  0  0
  -23.7010  -29.7120   20.0170 C   0  0  0  0  0  2  0  0  0  0  0  0
  -24.7230  -30.9930   21.9470 N   0  0  0  0  0  0  0  0  0  0  0  0
  -23.5520  -32.0380   23.5890 O   0  0  0  0  0  0  0  0  0  0  0  0
  -22.8330  -29.3370   22.3540 C   0  0  0  0  0  0  0  0  0  0  0  0
  -21.5100  -29.1400   22.2350 N   0  0  0  0  0  0  0  0  0  0  0  0
  -23.5290  -28.7110   23.1590 O   0  0  0  0  0  0  0  0  0  0  0  0
  -21.0060  -29.6980   21.5610 H   0  0  0  0  0  0  0  0  0  0  0  0
  -18.1530  -27.9010   22.7630 C   0  0  0  0  0  0  0  0  0  0  0  0
  -20.7120  -28.1800   23.0010 C   0  0  0  0  0  3  0  0  0  0  0  0
  -20.8190  -26.7600   22.3990 C   0  0  0  0  0  2  0  0  0  0  0  0
  -19.7060  -26.4450   21.3950 C   0  0  0  0  0  2  0  0  0  0  0  0
  -18.3320  -26.5660   22.0600 C   0  0  0  0  0  2  0  0  0  0  0  0
  -19.2690  -28.6660   23.1900 C   0  0  0  0  0  0  0  0  0  0  0  0
  -19.0470  -29.9160   23.8060 C   0  0  0  0  0  3  0  0  0  0  0  0
  -17.7400  -30.4020   24.0010 C   0  0  0  0  0  3  0  0  0  0  0  0
  -16.6370  -29.6330   23.5890 C   0  0  0  0  0  3  0  0  0  0  0  0
  -16.8450  -28.3850   22.9760 C   0  0  0  0  0  3  0  0  0  0  0  0
  -25.9090  -32.4480   23.6790 C   0  0  0  0  0  3  0  0  0  0  0  0
  -25.5540  -33.8230   24.0640 N   0  0  0  0  0  0  0  0  0  0  0  0
  -25.8350  -34.9130   23.3380 C   0  0  0  0  0  0  0  0  0  0  0  0
  -26.4910  -34.8710   22.2940 O   0  0  0  0  0  0  0  0  0  0  0  0
  -24.9680  -33.9260   24.8790 H   0  0  0  0  0  0  0  0  0  0  0  0
  -24.0350  -36.6490   23.0750 C   0  0  0  0  0  1  0  0  0  0  0  0
  -25.3040  -36.2650   23.8520 C   0  0  0  0  0  3  0  0  0  0  0  0
  -27.4210  -37.1970   24.6770 C   0  0  0  0  0  1  0  0  0  0  0  0
  -26.2950  -37.3590   23.7610 N   0  0  0  0  0  0  0  0  0  0  0  0
  -25.8580  -38.2580   23.9510 H   0  0  0  0  0  0  0  0  0  0  0  0
  -26.4720  -31.6540   24.9200 C   0  0  1  0  0  0  0  0  0  0  0  0
  -25.4050  -31.3450   25.9960 C   0  0  0  0  0  1  0  0  0  0  0  0
  -27.0940  -30.3110   24.4730 C   0  0  0  0  0  1  0  0  0  0  0  0
  -27.6050  -32.4640   25.5920 C   0  0  0  0  0  1  0  0  0  0  0  0
  1 19  1  0
  2  7  1  0
  3  4  1  0
  3  2  1  0
  5  4  1  0
  5 26  1  0
  5  6  1  0
  7  1  1  0
  7  6  1  0
  8  1  2  0
 10 18  2  0
 10 12  1  0
 11  9  1  0
 11 14  1  0
 12 11  2  0
 13 19  1  0
 13  9  2  0
 15 20  1  0
 15 14  1  0
 16 12  1  0
 16 20  1  0
 16 17  1  0
 18 13  1  0
 19 21  1  0
 20 22  1  1
 23 24  2  0
 24 43  1  0
 25 24  1  0
 25 28  1  0
 26 23  1  0
 26 27  1  0
 27 25  2  0
 28 29  1  0
 29 30  2  0
 31 34  1  0
 31 30  1  0
 32 31  2  0
 33 32  1  0
 33 28  2  0
 34 35  1  0
 35 36  1  0
 36 37  2  0
 38 37  1  0
 38 42  1  0
 39 38  2  0
 40 35  2  0
 40 39  1  0
 41 40  1  0
 43 44  1  0
 44 47  1  0
 44 46  1  0
 45 43  2  0
 48 49  1  0
 48 23  1  0
 50 48  1  0
 51 20  1  0
 51 52  2  0
 53 52  1  0
 54 65  2  0
 55 53  1  0
 55 60  1  0
 56 64  1  0
 56 66  1  0
 57 63  1  0
 57 59  1  0
 58 64  1  0
 59 58  1  0
 60 59  2  0
 61 62  1  0
 61 55  2  0
 62 57  2  0
 63 56  1  0
 64 54  1  0
 66 68  2  0
 67 66  1  0
 69 67  1  0
 70 79  2  0
 70 75  1  0
 71 67  1  0
 71 75  1  0
 72 71  1  0
 73 74  1  0
 73 72  1  0
 74 70  1  0
 75 76  2  0
 76 77  1  0
 78 77  2  0
 79 78  1  0
 80 54  1  0
 80 81  1  0
 80 90  1  0
 81 84  1  0
 82 86  1  0
 82 81  1  0
 83 82  2  0
 86 85  1  0
 88 86  1  0
 88 89  1  0
 88 87  1  0
 90 93  1  1
 90 91  1  0
 92 90  1  0
M  ISO  4   1 100  19 100  52 101  53 101
M  END
>  <TORSDO>  (16) 
F 17

>  <SCORE>  (16) 
-14.320

>  <name>  (16) 
15

>  <ligand_id>  (16) 
15

>  <original_smiles>  (16) 
[H]c1nc(N([H])C(=O)N2C([H])([H])C([H])([H])C([H])([H])C([H])(n3nc(-c4c([H])c([H])c(Oc5c([H])c([H])c(F)c([H])c5F)c([H])c4[H])c(C(=O)N([H])[H])c3N([H])[H])C2([H])[H])c([H])c2c1C([H])(C([H])([H])[H])[N+]([H])(C([H])([H])C([H])([H])Oc1c([H])c([H])c3c(c1[H])C([H])([H])N(C(=O)C([H])(N([H])C(=O)C([H])(N([H])C([H])([H])[H])C([H])([H])[H])C(C([H])([H])[H])(C([H])([H])[H])C([H])([H])[H])C([H])(C(=O)N([H])C1([H])c4c([H])c([H])c([H])c([H])c4C([H])([H])C([H])([H])C1([H])[H])C3([H])[H])C([H])([H])C2([H])[H]

>  <smiles>  (16) 
[H]c1nc(N([H])C(=O)N2C([H])([H])C([H])([H])C([H])([H])C([H])(n3nc(-c4c([H])c([H])c(Oc5c([H])c([H])c(F)c([H])c5F)c([H])c4[H])c(C(=O)N([H])[H])c3N([H])[H])C2([H])[H])c([H])c2c1C([H])(C([H])([H])[H])[N+]([H])(C([H])([H])C([H])([H])Oc1c([H])c([H])c3c(c1[H])C([H])([H])N(C(=O)C([H])(N([H])C(=O)C([H])(N([H])C([H])([H])[H])C([H])([H])[H])C(C([H])([H])[H])(C([H])([H])[H])C([H])([H])[H])C([H])(C(=O)N([H])C1([H])c4c([H])c([H])c([H])c([H])c4C([H])([H])C([H])([H])C1([H])[H])C3([H])[H])C([H])([H])C2([H])[H]

$$$$
16:0:0
     RDKit          3D

 85 93  0  0  1  0  0  0  0  0999 V2000
  -27.9520  -20.3630   20.6190 C   0  0  0  0  0  3  0  0  0  0  0  0
  -29.9510  -20.7640   19.7150 C   0  0  0  0  0  3  0  0  0  0  0  0
  -27.5650  -22.0590   20.1300 C   0  0  0  0  0  3  0  0  0  0  0  0
  -29.7470  -22.4910   20.2150 C   0  0  0  0  0  3  0  0  0  0  0  0
  -29.3350  -19.3030   20.4000 C   0  0  0  0  0  0  0  0  0  0  0  0
  -28.3770  -23.5570   20.4390 C   0  0  0  0  0  0  0  0  0  0  0  0
  -30.1950  -16.0250   20.0540 C   0  0  0  0  0  0  0  0  0  0  0  0
  -30.3710  -13.4240   19.2040 C   0  0  0  0  0  2  0  0  0  0  0  0
  -29.4760  -12.8720   18.0490 C   0  0  0  0  0  2  0  0  0  0  0  0
  -28.0960  -12.4390   18.5630 C   0  0  0  0  0  2  0  0  0  0  0  0
  -27.5660  -13.4490   19.5970 C   0  0  0  0  0  3  0  0  0  0  0  0
  -28.6100  -13.8950   20.6570 C   0  0  0  0  0  2  0  0  0  0  0  0
  -29.7030  -14.6140   19.9390 N   0  0  0  0  0  0  0  0  0  0  0  0
  -31.4420  -15.9100   19.9860 O   0  0  0  0  0  0  0  0  0  0  0  0
  -28.0280  -17.2660   19.6400 C   0  0  0  0  0  1  0  0  0  0  0  0
  -29.4100  -17.4570   20.0620 N   0  0  0  0  0  0  0  0  0  0  0  0
  -25.2360  -13.9540   20.4520 C   0  0  0  0  0  0  0  0  0  0  0  0
  -24.1930  -13.1660   20.8420 C   0  0  0  0  0  0  0  0  0  0  0  0
  -24.6710  -11.8210   20.7780 C   0  0  0  0  0  0  0  0  0  0  0  0
  -26.2770  -13.0930   20.1670 N   0  0  0  0  0  0  0  0  0  0  0  0
  -25.9550  -11.7990   20.4290 N   0  0  0  0  0  0  0  0  0  0  0  0
  -23.9520  -10.5540   20.9700 C   0  0  0  0  0  0  0  0  0  0  0  0
  -24.3940   -9.5860   21.8970 C   0  0  0  0  0  3  0  0  0  0  0  0
  -23.6720   -8.3880   22.0800 C   0  0  0  0  0  3  0  0  0  0  0  0
  -22.4920   -8.1490   21.3360 C   0  0  0  0  0  0  0  0  0  0  0  0
  -22.0680   -9.1060   20.3970 C   0  0  0  0  0  3  0  0  0  0  0  0
  -22.7920  -10.2960   20.2120 C   0  0  0  0  0  3  0  0  0  0  0  0
  -21.7400   -7.0020   21.4290 O   0  0  0  0  0  0  0  0  0  0  0  0
  -21.6800   -6.2720   22.5890 C   0  0  0  0  0  0  0  0  0  0  0  0
  -21.2120   -6.8310   23.7980 C   0  0  0  0  0  3  0  0  0  0  0  0
  -21.1050   -6.0270   24.9500 C   0  0  0  0  0  3  0  0  0  0  0  0
  -21.4540   -4.6640   24.8940 C   0  0  0  0  0  0  0  0  0  0  0  0
  -21.9140   -4.1040   23.6890 C   0  0  0  0  0  3  0  0  0  0  0  0
  -22.0250   -4.9050   22.5390 C   0  0  0  0  0  0  0  0  0  0  0  0
  -22.4490   -4.3550   21.3760 F   0  0  0  0  0  0  0  0  0  0  0  0
  -21.3430   -3.8890   25.9970 F   0  0  0  0  0  0  0  0  0  0  0  0
  -22.8020  -13.6380   21.1480 C   0  0  0  0  0  0  0  0  0  0  0  0
  -22.1010  -12.9370   22.0310 N   0  0  0  0  0  0  0  0  0  0  0  0
  -22.3500  -14.6630   20.6400 O   0  0  0  0  0  0  0  0  0  0  0  0
  -22.4840  -12.1070   22.4590 H   0  0  0  0  0  0  0  0  0  0  0  0
  -21.1710  -13.2370   22.2850 H   0  0  0  0  0  0  0  0  0  0  0  0
  -25.3730  -15.3270   20.2830 N   0  0  0  0  0  0  0  0  0  0  0  0
  -24.5900  -15.9580   20.4160 H   0  0  0  0  0  0  0  0  0  0  0  0
  -26.2000  -15.7840   19.9270 H   0  0  0  0  0  0  0  0  0  0  0  0
  -28.2320  -25.3960   20.2160 O   0  0  0  0  0  0  0  0  0  0  0  0
  -24.6860  -31.8580   23.1820 C   0  0  0  0  0  0  0  0  0  0  0  0
  -27.2300  -26.6420   20.2520 C   0  0  0  0  0  0  0  0  0  0  0  0
  -23.5140  -30.4460   21.5500 C   0  0  0  0  0  3  0  0  0  0  0  0
  -24.9680  -28.7640   20.1660 C   0  0  0  0  0  0  0  0  0  0  0  0
  -26.0990  -30.5570   21.4440 C   0  0  0  0  0  2  0  0  0  0  0  0
  -26.1650  -29.1020   20.8040 C   0  0  0  0  0  0  0  0  0  0  0  0
  -27.2760  -28.0790   20.8010 C   0  0  0  0  0  3  0  0  0  0  0  0
  -25.9900  -26.5530   19.5550 C   0  0  0  0  0  3  0  0  0  0  0  0
  -24.9280  -27.5180   19.5130 C   0  0  0  0  0  3  0  0  0  0  0  0
  -23.7660  -29.7300   20.1890 C   0  0  0  0  0  2  0  0  0  0  0  0
  -24.7920  -30.9920   22.1110 N   0  0  0  0  0  0  0  0  0  0  0  0
  -23.5880  -32.1600   23.6820 O   0  0  0  0  0  0  0  0  0  0  0  0
  -22.7870  -29.4830   22.5290 C   0  0  0  0  0  0  0  0  0  0  0  0
  -21.4530  -29.3330   22.4040 N   0  0  0  0  0  0  0  0  0  0  0  0
  -23.4370  -28.8640   23.3730 O   0  0  0  0  0  0  0  0  0  0  0  0
  -20.9770  -29.8810   21.7020 H   0  0  0  0  0  0  0  0  0  0  0  0
  -18.0630  -28.1130   22.9230 C   0  0  0  0  0  0  0  0  0  0  0  0
  -20.6240  -28.3950   23.1770 C   0  0  0  0  0  3  0  0  0  0  0  0
  -20.7270  -26.9610   22.6030 C   0  0  0  0  0  2  0  0  0  0  0  0
  -19.6240  -26.6350   21.5920 C   0  0  0  0  0  2  0  0  0  0  0  0
  -18.2440  -26.7700   22.2390 C   0  0  0  0  0  2  0  0  0  0  0  0
  -19.1800  -28.8840   23.3490 C   0  0  0  0  0  0  0  0  0  0  0  0
  -18.9500  -30.1390   23.9550 C   0  0  0  0  0  3  0  0  0  0  0  0
  -17.6420  -30.6240   24.1350 C   0  0  0  0  0  3  0  0  0  0  0  0
  -16.5410  -29.8520   23.7210 C   0  0  0  0  0  3  0  0  0  0  0  0
  -16.7540  -28.5970   23.1230 C   0  0  0  0  0  3  0  0  0  0  0  0
  -25.9370  -32.5250   23.8320 C   0  0  0  0  0  3  0  0  0  0  0  0
  -25.6020  -33.9270   24.1620 N   0  0  0  0  0  0  0  0  0  0  0  0
  -25.9220  -34.9970   23.4200 C   0  0  0  0  0  0  0  0  0  0  0  0
  -26.5840  -34.9090   22.3830 O   0  0  0  0  0  0  0  0  0  0  0  0
  -25.0180  -34.0660   24.9730 H   0  0  0  0  0  0  0  0  0  0  0  0
  -24.1800  -36.7940   23.1120 C   0  0  0  0  0  1  0  0  0  0  0  0
  -25.4360  -36.3830   23.8990 C   0  0  0  0  0  3  0  0  0  0  0  0
  -27.5750  -37.2860   24.7040 C   0  0  0  0  0  1  0  0  0  0  0  0
  -26.4590  -37.4460   23.7760 N   0  0  0  0  0  0  0  0  0  0  0  0
  -26.0450  -38.3620   23.9310 H   0  0  0  0  0  0  0  0  0  0  0  0
  -26.4230  -31.7790   25.1360 C   0  0  1  0  0  0  0  0  0  0  0  0
  -25.3080  -31.5600   26.1870 C   0  0  0  0  0  1  0  0  0  0  0  0
  -27.0160  -30.3950   24.7940 C   0  0  0  0  0  1  0  0  0  0  0  0
  -27.5620  -32.5850   25.8070 C   0  0  0  0  0  1  0  0  0  0  0  0
  2  4  1  0
  2  5  2  0
  3  6  1  0
  3  1  2  0
  4  6  2  0
  5  1  1  0
  7 16  1  0
  8 13  1  0
  9 10  1  0
  9  8  1  0
 11 10  1  0
 11 20  1  0
 11 12  1  0
 13  7  1  0
 13 12  1  0
 14  7  2  0
 15 16  1  0
 16  5  1  0
 17 18  2  0
 18 37  1  0
 19 18  1  0
 19 22  1  0
 20 21  1  0
 20 17  1  0
 21 19  2  0
 22 23  1  0
 23 24  2  0
 25 28  1  0
 25 24  1  0
 26 25  2  0
 27 26  1  0
 27 22  2  0
 28 29  1  0
 29 30  1  0
 30 31  2  0
 32 31  1  0
 32 36  1  0
 33 32  2  0
 34 29  2  0
 34 33  1  0
 35 34  1  0
 37 38  1  0
 38 41  1  0
 38 40  1  0
 39 37  2  0
 42 43  1  0
 42 17  1  0
 44 42  1  0
 45 47  1  0
 45  6  1  0
 46 57  2  0
 47 52  1  0
 48 56  1  0
 48 58  1  0
 49 55  1  0
 49 51  1  0
 50 56  1  0
 51 50  1  0
 52 51  2  0
 53 47  2  0
 54 53  1  0
 54 49  2  0
 55 48  1  0
 56 46  1  0
 58 60  2  0
 59 58  1  0
 61 59  1  0
 62 71  2  0
 62 67  1  0
 63 59  1  0
 63 67  1  0
 64 63  1  0
 65 66  1  0
 65 64  1  0
 66 62  1  0
 67 68  2  0
 68 69  1  0
 70 69  2  0
 71 70  1  0
 72 46  1  0
 72 73  1  0
 72 82  1  0
 73 76  1  0
 74 78  1  0
 74 73  1  0
 75 74  2  0
 78 77  1  0
 80 78  1  0
 80 81  1  0
 80 79  1  0
 82 85  1  1
 82 83  1  0
 84 82  1  0
M  ISO  4   6 101   7 100  16 100  45 101
M  END
>  <TORSDO>  (17) 
F 16

>  <SCORE>  (17) 
-16.419

>  <name>  (17) 
16

>  <ligand_id>  (17) 
16

>  <original_smiles>  (17) 
[H]c1c([H])c([H])c2c(c1[H])C([H])([H])C([H])([H])C([H])([H])C2([H])N([H])C(=O)C1([H])N(C(=O)C([H])(N([H])C(=O)C([H])(N([H])C([H])([H])[H])C([H])([H])[H])C(C([H])([H])[H])(C([H])([H])[H])C([H])([H])[H])C([H])([H])c2c([H])c(OC3([H])C([H])([H])C([H])([H])C([H])(N(C(=O)N4C([H])([H])C([H])([H])C([H])([H])C([H])(n5nc(-c6c([H])c([H])c(Oc7c([H])c([H])c(F)c([H])c7F)c([H])c6[H])c(C(=O)N([H])[H])c5N([H])[H])C4([H])[H])C([H])([H])[H])C([H])([H])C3([H])[H])c([H])c([H])c2C1([H])[H]

>  <smiles>  (17) 
[H]c1c([H])c([H])c2c(c1[H])C([H])([H])C([H])([H])C([H])([H])C2([H])N([H])C(=O)C1([H])N(C(=O)C([H])(N([H])C(=O)C([H])(N([H])C([H])([H])[H])C([H])([H])[H])C(C([H])([H])[H])(C([H])([H])[H])C([H])([H])[H])C([H])([H])c2c([H])c(OC3([H])C([H])([H])C([H])([H])C([H])(N(C(=O)N4C([H])([H])C([H])([H])C([H])([H])C([H])(n5nc(-c6c([H])c([H])c(Oc7c([H])c([H])c(F)c([H])c7F)c([H])c6[H])c(C(=O)N([H])[H])c5N([H])[H])C4([H])[H])C([H])([H])[H])C([H])([H])C3([H])[H])c([H])c([H])c2C1([H])[H]

$$$$
17:0:0
     RDKit          3D

 89 96  0  0  1  0  0  0  0  0999 V2000
  -28.3510  -20.2390   20.3710 C   0  0  0  0  0  2  0  0  0  0  0  0
  -30.5770  -19.9210   19.8570 C   0  0  0  0  0  2  0  0  0  0  0  0
  -28.7910  -21.9740   20.0850 C   0  0  0  0  0  2  0  0  0  0  0  0
  -29.5380  -18.8790   20.4740 C   0  0  0  0  0  3  0  0  0  0  0  0
  -30.3210  -21.5320   20.2290 C   0  0  1  0  0  0  0  0  0  0  0  0
  -30.7760  -21.7810   21.6800 C   0  0  0  0  0  1  0  0  0  0  0  0
  -31.1860  -22.4030   19.2970 C   0  0  0  0  0  1  0  0  0  0  0  0
  -30.2800  -15.7350   20.2130 C   0  0  0  0  0  0  0  0  0  0  0  0
  -30.3800  -13.1930   19.3710 C   0  0  0  0  0  2  0  0  0  0  0  0
  -29.4770  -12.7860   18.1730 C   0  0  0  0  0  2  0  0  0  0  0  0
  -28.0570  -12.4270   18.6390 C   0  0  0  0  0  2  0  0  0  0  0  0
  -27.5550  -13.4130   19.7190 C   0  0  0  0  0  3  0  0  0  0  0  0
  -28.6020  -13.7360   20.8110 C   0  0  0  0  0  2  0  0  0  0  0  0
  -29.7550  -14.3700   20.1280 N   0  0  0  0  0  0  0  0  0  0  0  0
  -31.5180  -15.6710   20.0890 O   0  0  0  0  0  0  0  0  0  0  0  0
  -29.5100  -17.0960   20.2470 N   0  0  0  0  0  0  0  0  0  0  0  0
  -28.5370  -16.8290   20.1960 H   0  0  0  0  0  0  0  0  0  0  0  0
  -25.2040  -13.9140   20.5380 C   0  0  0  0  0  0  0  0  0  0  0  0
  -24.1560  -13.1210   20.9090 C   0  0  0  0  0  0  0  0  0  0  0  0
  -24.6360  -11.7760   20.8490 C   0  0  0  0  0  0  0  0  0  0  0  0
  -26.2500  -13.0550   20.2610 N   0  0  0  0  0  0  0  0  0  0  0  0
  -25.9250  -11.7600   20.5150 N   0  0  0  0  0  0  0  0  0  0  0  0
  -23.9170  -10.5060   21.0280 C   0  0  0  0  0  0  0  0  0  0  0  0
  -24.3470   -9.5380   21.9620 C   0  0  0  0  0  3  0  0  0  0  0  0
  -23.6250   -8.3370   22.1330 C   0  0  0  0  0  3  0  0  0  0  0  0
  -22.4580   -8.0940   21.3700 C   0  0  0  0  0  0  0  0  0  0  0  0
  -22.0470   -9.0500   20.4260 C   0  0  0  0  0  3  0  0  0  0  0  0
  -22.7690  -10.2440   20.2530 C   0  0  0  0  0  3  0  0  0  0  0  0
  -21.7090   -6.9450   21.4500 O   0  0  0  0  0  0  0  0  0  0  0  0
  -21.6290   -6.2160   22.6100 C   0  0  0  0  0  0  0  0  0  0  0  0
  -21.1130   -6.7680   23.8030 C   0  0  0  0  0  3  0  0  0  0  0  0
  -20.9850   -5.9630   24.9530 C   0  0  0  0  0  3  0  0  0  0  0  0
  -21.3610   -4.6070   24.9100 C   0  0  0  0  0  0  0  0  0  0  0  0
  -21.8680   -4.0550   23.7210 C   0  0  0  0  0  3  0  0  0  0  0  0
  -21.9990   -4.8560   22.5730 C   0  0  0  0  0  0  0  0  0  0  0  0
  -22.4680   -4.3130   21.4250 F   0  0  0  0  0  0  0  0  0  0  0  0
  -21.2310   -3.8320   26.0110 F   0  0  0  0  0  0  0  0  0  0  0  0
  -22.7600  -13.5830   21.2010 C   0  0  0  0  0  0  0  0  0  0  0  0
  -22.0480  -12.8770   22.0710 N   0  0  0  0  0  0  0  0  0  0  0  0
  -22.3080  -14.6070   20.6890 O   0  0  0  0  0  0  0  0  0  0  0  0
  -22.4260  -12.0490   22.5080 H   0  0  0  0  0  0  0  0  0  0  0  0
  -21.1100  -13.1690   22.3040 H   0  0  0  0  0  0  0  0  0  0  0  0
  -25.3490  -15.2890   20.3770 N   0  0  0  0  0  0  0  0  0  0  0  0
  -24.5770  -15.9320   20.5080 H   0  0  0  0  0  0  0  0  0  0  0  0
  -26.1810  -15.7380   20.0160 H   0  0  0  0  0  0  0  0  0  0  0  0
  -27.5160  -23.7980   18.6100 C   0  0  0  0  0  1  0  0  0  0  0  0
  -26.7390  -23.5530   21.0370 C   0  0  0  0  0  1  0  0  0  0  0  0
  -27.9370  -23.7710   20.0990 C   0  0  0  0  0  3  0  0  0  0  0  0
  -28.1280  -25.5340   20.2920 O   0  0  0  0  0  0  0  0  0  0  0  0
  -24.6720  -31.8810   23.2760 C   0  0  0  0  0  0  0  0  0  0  0  0
  -27.1590  -26.7720   20.2540 C   0  0  0  0  0  0  0  0  0  0  0  0
  -23.4730  -30.4940   21.6460 C   0  0  0  0  0  3  0  0  0  0  0  0
  -24.9040  -28.8480   20.2260 C   0  0  0  0  0  0  0  0  0  0  0  0
  -26.0570  -30.6150   21.5150 C   0  0  0  0  0  2  0  0  0  0  0  0
  -26.1110  -29.1850   20.8500 C   0  0  0  0  0  0  0  0  0  0  0  0
  -27.2220  -28.1800   20.8260 C   0  0  0  0  0  3  0  0  0  0  0  0
  -25.8970  -26.6570   19.6050 C   0  0  0  0  0  3  0  0  0  0  0  0
  -24.8380  -27.6070   19.5820 C   0  0  0  0  0  3  0  0  0  0  0  0
  -23.7050  -29.8050   20.2730 C   0  0  0  0  0  2  0  0  0  0  0  0
  -24.7590  -31.0290   22.1980 N   0  0  0  0  0  0  0  0  0  0  0  0
  -23.5810  -32.1860   23.7880 O   0  0  0  0  0  0  0  0  0  0  0  0
  -22.7530  -29.5160   22.6140 C   0  0  0  0  0  0  0  0  0  0  0  0
  -21.4220  -29.3500   22.4760 N   0  0  0  0  0  0  0  0  0  0  0  0
  -23.4020  -28.9050   23.4660 O   0  0  0  0  0  0  0  0  0  0  0  0
  -20.9450  -29.8940   21.7710 H   0  0  0  0  0  0  0  0  0  0  0  0
  -18.0390  -28.1110   22.9610 C   0  0  0  0  0  0  0  0  0  0  0  0
  -20.5940  -28.4140   23.2480 C   0  0  0  0  0  3  0  0  0  0  0  0
  -20.7160  -26.9760   22.6950 C   0  0  0  0  0  2  0  0  0  0  0  0
  -19.6320  -26.6280   21.6710 C   0  0  0  0  0  2  0  0  0  0  0  0
  -18.2410  -26.7590   22.2970 C   0  0  0  0  0  2  0  0  0  0  0  0
  -19.1430  -28.8950   23.3930 C   0  0  0  0  0  0  0  0  0  0  0  0
  -18.8970  -30.1540   23.9810 C   0  0  0  0  0  3  0  0  0  0  0  0
  -17.5820  -30.6340   24.1360 C   0  0  0  0  0  3  0  0  0  0  0  0
  -16.4940  -29.8490   23.7180 C   0  0  0  0  0  3  0  0  0  0  0  0
  -16.7240  -28.5900   23.1360 C   0  0  0  0  0  3  0  0  0  0  0  0
  -25.9390  -32.5240   23.9150 C   0  0  0  0  0  3  0  0  0  0  0  0
  -25.6320  -33.9350   24.2260 N   0  0  0  0  0  0  0  0  0  0  0  0
  -25.9640  -34.9850   23.4630 C   0  0  0  0  0  0  0  0  0  0  0  0
  -26.6190  -34.8680   22.4250 O   0  0  0  0  0  0  0  0  0  0  0  0
  -25.0440  -34.0980   25.0310 H   0  0  0  0  0  0  0  0  0  0  0  0
  -24.2480  -36.8010   23.1350 C   0  0  0  0  0  1  0  0  0  0  0  0
  -25.5020  -36.3850   23.9200 C   0  0  0  0  0  3  0  0  0  0  0  0
  -27.6560  -37.2690   24.7040 C   0  0  0  0  0  1  0  0  0  0  0  0
  -26.5420  -37.4270   23.7730 N   0  0  0  0  0  0  0  0  0  0  0  0
  -26.1450  -38.3540   23.9080 H   0  0  0  0  0  0  0  0  0  0  0  0
  -26.4150  -31.7790   25.2240 C   0  0  1  0  0  0  0  0  0  0  0  0
  -25.2960  -31.5860   26.2740 C   0  0  0  0  0  1  0  0  0  0  0  0
  -26.9860  -30.3820   24.8930 C   0  0  0  0  0  1  0  0  0  0  0  0
  -27.5630  -32.5740   25.8910 C   0  0  0  0  0  1  0  0  0  0  0  0
  1  4  1  0
  2  5  1  0
  2  4  1  0
  3  5  1  0
  3  1  1  0
  4 16  1  0
  5  6  1  1
  7  5  1  0
  8 16  1  0
  9 14  1  0
 10 11  1  0
 10  9  1  0
 12 11  1  0
 12 21  1  0
 12 13  1  0
 14  8  1  0
 14 13  1  0
 15  8  2  0
 17 16  1  0
 18 19  2  0
 19 38  1  0
 20 19  1  0
 20 23  1  0
 21 22  1  0
 21 18  1  0
 22 20  2  0
 23 24  1  0
 24 25  2  0
 26 29  1  0
 26 25  1  0
 27 26  2  0
 28 27  1  0
 28 23  2  0
 29 30  1  0
 30 31  1  0
 31 32  2  0
 33 32  1  0
 33 37  1  0
 34 33  2  0
 35 30  2  0
 35 34  1  0
 36 35  1  0
 38 39  1  0
 39 42  1  0
 39 41  1  0
 40 38  2  0
 43 44  1  0
 43 18  1  0
 45 43  1  0
 46 48  1  0
 48 49  1  0
 48 47  1  0
 50 61  2  0
 51 49  1  0
 51 56  1  0
 52 60  1  0
 52 62  1  0
 53 59  1  0
 53 55  1  0
 54 60  1  0
 55 54  1  0
 56 55  2  0
 57 51  2  0
 58 57  1  0
 58 53  2  0
 59 52  1  0
 60 50  1  0
 62 64  2  0
 63 62  1  0
 65 63  1  0
 66 75  2  0
 66 71  1  0
 67 63  1  0
 67 71  1  0
 68 67  1  0
 69 70  1  0
 69 68  1  0
 70 66  1  0
 71 72  2  0
 72 73  1  0
 74 73  2  0
 75 74  1  0
 76 50  1  0
 76 77  1  0
 76 86  1  0
 77 80  1  0
 78 82  1  0
 78 77  1  0
 79 78  2  0
 82 81  1  0
 84 85  1  0
 84 82  1  0
 84 83  1  0
 86 89  1  1
 86 87  1  0
 88 86  1  0
M  ISO  4   8 100  16 100  48 101  49 101
M  END
>  <TORSDO>  (18) 
F 17

>  <SCORE>  (18) 
-16.789

>  <name>  (18) 
17

>  <ligand_id>  (18) 
17

>  <original_smiles>  (18) 
[H]c1c([H])c([H])c2c(c1[H])C([H])([H])C([H])([H])C([H])([H])C2([H])N([H])C(=O)C1([H])N(C(=O)C([H])(N([H])C(=O)C([H])(N([H])C([H])([H])[H])C([H])([H])[H])C(C([H])([H])[H])(C([H])([H])[H])C([H])([H])[H])C([H])([H])c2c([H])c(OC(C([H])([H])[H])(C([H])([H])[H])C3([H])C([H])([H])C([H])(N([H])C(=O)N4C([H])([H])C([H])([H])C([H])([H])C([H])(n5nc(-c6c([H])c([H])c(Oc7c([H])c([H])c(F)c([H])c7F)c([H])c6[H])c(C(=O)N([H])[H])c5N([H])[H])C4([H])[H])C([H])([H])C3(C([H])([H])[H])C([H])([H])[H])c([H])c([H])c2C1([H])[H]

>  <smiles>  (18) 
[H]c1c([H])c([H])c2c(c1[H])C([H])([H])C([H])([H])C([H])([H])C2([H])N([H])C(=O)C1([H])N(C(=O)C([H])(N([H])C(=O)C([H])(N([H])C([H])([H])[H])C([H])([H])[H])C(C([H])([H])[H])(C([H])([H])[H])C([H])([H])[H])C([H])([H])c2c([H])c(OC(C([H])([H])[H])(C([H])([H])[H])C3([H])C([H])([H])C([H])(N([H])C(=O)N4C([H])([H])C([H])([H])C([H])([H])C([H])(n5nc(-c6c([H])c([H])c(Oc7c([H])c([H])c(F)c([H])c7F)c([H])c6[H])c(C(=O)N([H])[H])c5N([H])[H])C4([H])[H])C([H])([H])C3(C([H])([H])[H])C([H])([H])[H])c([H])c([H])c2C1([H])[H]

$$$$
18:0:0
     RDKit          3D

 89 97  0  0  1  0  0  0  0  0999 V2000
  -31.1690  -20.9560   20.7620 C   0  0  0  0  0  3  0  0  0  0  0  0
  -30.2970  -22.0820   20.5840 C   0  0  0  0  0  0  0  0  0  0  0  0
  -28.9280  -21.9720   20.2320 C   0  0  0  0  0  0  0  0  0  0  0  0
  -28.6760  -20.3510   20.1020 C   0  0  0  0  0  0  0  0  0  0  0  0
  -29.6140  -19.0110   20.2790 C   0  0  0  0  0  0  0  0  0  0  0  0
  -30.8830  -19.5550   20.6360 C   0  0  0  0  0  0  0  0  0  0  0  0
  -30.8820  -23.4690   20.7940 C   0  0  0  0  0  1  0  0  0  0  0  0
  -27.2500  -20.0020   19.7360 C   0  0  0  0  0  1  0  0  0  0  0  0
  -32.2120  -18.5140   20.9900 Cl  0  0  0  0  0  0  0  0  0  0  0  0
  -30.2440  -15.8410   20.1580 C   0  0  0  0  0  0  0  0  0  0  0  0
  -30.3760  -13.2670   19.3320 C   0  0  0  0  0  2  0  0  0  0  0  0
  -29.4910  -12.7930   18.1410 C   0  0  0  0  0  2  0  0  0  0  0  0
  -28.0860  -12.4000   18.6170 C   0  0  0  0  0  2  0  0  0  0  0  0
  -27.5600  -13.4050   19.6650 C   0  0  0  0  0  3  0  0  0  0  0  0
  -28.5920  -13.7820   20.7580 C   0  0  0  0  0  2  0  0  0  0  0  0
  -29.7290  -14.4560   20.0750 N   0  0  0  0  0  0  0  0  0  0  0  0
  -31.4770  -15.7310   19.9960 O   0  0  0  0  0  0  0  0  0  0  0  0
  -29.4820  -17.2450   20.2020 N   0  0  0  0  0  0  0  0  0  0  0  0
  -28.5040  -17.0040   20.1850 H   0  0  0  0  0  0  0  0  0  0  0  0
  -25.2030  -13.8990   20.4570 C   0  0  0  0  0  0  0  0  0  0  0  0
  -24.1570  -13.1060   20.8310 C   0  0  0  0  0  0  0  0  0  0  0  0
  -24.6440  -11.7620   20.7940 C   0  0  0  0  0  0  0  0  0  0  0  0
  -26.2560  -13.0430   20.2030 N   0  0  0  0  0  0  0  0  0  0  0  0
  -25.9360  -11.7490   20.4720 N   0  0  0  0  0  0  0  0  0  0  0  0
  -23.9320  -10.4910   20.9850 C   0  0  0  0  0  0  0  0  0  0  0  0
  -24.3610   -9.5370   21.9340 C   0  0  0  0  0  3  0  0  0  0  0  0
  -23.6430   -8.3350   22.1170 C   0  0  0  0  0  3  0  0  0  0  0  0
  -22.4800   -8.0790   21.3520 C   0  0  0  0  0  0  0  0  0  0  0  0
  -22.0700   -9.0220   20.3930 C   0  0  0  0  0  3  0  0  0  0  0  0
  -22.7880  -10.2150   20.2090 C   0  0  0  0  0  3  0  0  0  0  0  0
  -21.7340   -6.9280   21.4430 O   0  0  0  0  0  0  0  0  0  0  0  0
  -21.6590   -6.2090   22.6090 C   0  0  0  0  0  0  0  0  0  0  0  0
  -21.1700   -6.7780   23.8050 C   0  0  0  0  0  3  0  0  0  0  0  0
  -21.0450   -5.9850   24.9630 C   0  0  0  0  0  3  0  0  0  0  0  0
  -21.3970   -4.6230   24.9250 C   0  0  0  0  0  0  0  0  0  0  0  0
  -21.8800   -4.0520   23.7340 C   0  0  0  0  0  3  0  0  0  0  0  0
  -22.0060   -4.8430   22.5790 C   0  0  0  0  0  0  0  0  0  0  0  0
  -22.4510   -4.2830   21.4280 F   0  0  0  0  0  0  0  0  0  0  0  0
  -21.2710   -3.8580   26.0350 F   0  0  0  0  0  0  0  0  0  0  0  0
  -22.7550  -13.5660   21.1030 C   0  0  0  0  0  0  0  0  0  0  0  0
  -22.0420  -12.8720   21.9820 N   0  0  0  0  0  0  0  0  0  0  0  0
  -22.3040  -14.5800   20.5720 O   0  0  0  0  0  0  0  0  0  0  0  0
  -22.4230  -12.0530   22.4320 H   0  0  0  0  0  0  0  0  0  0  0  0
  -21.1020  -13.1640   22.2070 H   0  0  0  0  0  0  0  0  0  0  0  0
  -25.3420  -15.2730   20.2770 N   0  0  0  0  0  0  0  0  0  0  0  0
  -24.5610  -15.9110   20.3860 H   0  0  0  0  0  0  0  0  0  0  0  0
  -26.1710  -15.7200   19.9110 H   0  0  0  0  0  0  0  0  0  0  0  0
  -27.9720  -23.6260   20.0540 C   0  0  0  0  0  2  0  0  0  0  0  0
  -28.1840  -25.4140   20.2290 O   0  0  0  0  0  0  0  0  0  0  0  0
  -24.7250  -31.8330   23.1760 C   0  0  0  0  0  0  0  0  0  0  0  0
  -27.2360  -26.6800   20.1780 C   0  0  0  0  0  0  0  0  0  0  0  0
  -23.5400  -30.4460   21.5290 C   0  0  0  0  0  3  0  0  0  0  0  0
  -24.9860  -28.7820   20.1190 C   0  0  0  0  0  0  0  0  0  0  0  0
  -26.1240  -30.5520   21.4280 C   0  0  0  0  0  2  0  0  0  0  0  0
  -26.1840  -29.1130   20.7650 C   0  0  0  0  0  0  0  0  0  0  0  0
  -27.2880  -28.0940   20.7580 C   0  0  0  0  0  3  0  0  0  0  0  0
  -26.0030  -26.5850   19.4760 C   0  0  0  0  0  3  0  0  0  0  0  0
  -24.9410  -27.5460   19.4500 C   0  0  0  0  0  3  0  0  0  0  0  0
  -23.7870  -29.7490   20.1590 C   0  0  0  0  0  2  0  0  0  0  0  0
  -24.8210  -30.9790   22.0960 N   0  0  0  0  0  0  0  0  0  0  0  0
  -23.6290  -32.1370   23.6810 O   0  0  0  0  0  0  0  0  0  0  0  0
  -22.8070  -29.4750   22.4950 C   0  0  0  0  0  0  0  0  0  0  0  0
  -21.4720  -29.3390   22.3720 N   0  0  0  0  0  0  0  0  0  0  0  0
  -23.4550  -28.8400   23.3310 O   0  0  0  0  0  0  0  0  0  0  0  0
  -20.9990  -29.9010   21.6780 H   0  0  0  0  0  0  0  0  0  0  0  0
  -18.0700  -28.1690   22.8970 C   0  0  0  0  0  0  0  0  0  0  0  0
  -20.6360  -28.4050   23.1390 C   0  0  0  0  0  3  0  0  0  0  0  0
  -20.7130  -26.9780   22.5480 C   0  0  0  0  0  2  0  0  0  0  0  0
  -19.6000  -26.6830   21.5370 C   0  0  0  0  0  2  0  0  0  0  0  0
  -18.2250  -26.8310   22.1940 C   0  0  0  0  0  2  0  0  0  0  0  0
  -19.2000  -28.9160   23.3250 C   0  0  0  0  0  0  0  0  0  0  0  0
  -18.9950  -30.1660   23.9480 C   0  0  0  0  0  3  0  0  0  0  0  0
  -17.6960  -30.6710   24.1430 C   0  0  0  0  0  3  0  0  0  0  0  0
  -16.5810  -29.9230   23.7260 C   0  0  0  0  0  3  0  0  0  0  0  0
  -16.7690  -28.6730   23.1090 C   0  0  0  0  0  3  0  0  0  0  0  0
  -25.9840  -32.4780   23.8290 C   0  0  0  0  0  3  0  0  0  0  0  0
  -25.6620  -33.8780   24.1750 N   0  0  0  0  0  0  0  0  0  0  0  0
  -25.9700  -34.9500   23.4340 C   0  0  0  0  0  0  0  0  0  0  0  0
  -26.6120  -34.8660   22.3840 O   0  0  0  0  0  0  0  0  0  0  0  0
  -25.0850  -34.0140   24.9930 H   0  0  0  0  0  0  0  0  0  0  0  0
  -24.2140  -36.7430   23.1890 C   0  0  0  0  0  1  0  0  0  0  0  0
  -25.4980  -36.3350   23.9310 C   0  0  0  0  0  3  0  0  0  0  0  0
  -27.6600  -37.2420   24.6670 C   0  0  0  0  0  1  0  0  0  0  0  0
  -26.5150  -37.3990   23.7740 N   0  0  0  0  0  0  0  0  0  0  0  0
  -26.1070  -38.3150   23.9420 H   0  0  0  0  0  0  0  0  0  0  0  0
  -26.4710  -31.7110   25.1220 C   0  0  1  0  0  0  0  0  0  0  0  0
  -25.3570  -31.4880   26.1740 C   0  0  0  0  0  1  0  0  0  0  0  0
  -27.0530  -30.3270   24.7620 C   0  0  0  0  0  1  0  0  0  0  0  0
  -27.6150  -32.5020   25.7990 C   0  0  0  0  0  1  0  0  0  0  0  0
  2  1  2  0
  2  7  1  0
  3  2  1  0
  4  3  2  0
  4  5  1  0
  5  6  2  0
  6  1  1  0
  6  9  1  0
  8  4  1  0
 10 18  1  0
 11 16  1  0
 12 13  1  0
 12 11  1  0
 14 13  1  0
 14 23  1  0
 14 15  1  0
 16 10  1  0
 16 15  1  0
 17 10  2  0
 18  5  1  0
 19 18  1  0
 20 21  2  0
 21 40  1  0
 22 21  1  0
 22 25  1  0
 23 20  1  0
 23 24  1  0
 24 22  2  0
 25 26  1  0
 26 27  2  0
 28 31  1  0
 28 27  1  0
 29 28  2  0
 30 29  1  0
 30 25  2  0
 31 32  1  0
 32 33  1  0
 33 34  2  0
 35 34  1  0
 35 39  1  0
 36 35  2  0
 37 32  2  0
 37 36  1  0
 38 37  1  0
 40 41  1  0
 41 44  1  0
 41 43  1  0
 42 40  2  0
 45 46  1  0
 45 20  1  0
 47 45  1  0
 48 49  1  0
 48  3  1  0
 50 61  2  0
 51 49  1  0
 51 56  1  0
 52 60  1  0
 52 62  1  0
 53 59  1  0
 53 55  1  0
 54 60  1  0
 55 54  1  0
 56 55  2  0
 57 51  2  0
 58 57  1  0
 58 53  2  0
 59 52  1  0
 60 50  1  0
 62 64  2  0
 63 62  1  0
 65 63  1  0
 66 75  2  0
 66 71  1  0
 67 63  1  0
 67 71  1  0
 68 67  1  0
 69 70  1  0
 69 68  1  0
 70 66  1  0
 71 72  2  0
 72 73  1  0
 74 73  2  0
 75 74  1  0
 76 50  1  0
 76 77  1  0
 76 86  1  0
 77 80  1  0
 78 82  1  0
 78 77  1  0
 79 78  2  0
 82 81  1  0
 84 82  1  0
 84 85  1  0
 84 83  1  0
 86 89  1  1
 86 87  1  0
 88 86  1  0
M  ISO  4  10 100  18 100  48 101  49 101
M  END
>  <TORSDO>  (19) 
F 17

>  <SCORE>  (19) 
-16.525

>  <name>  (19) 
18

>  <ligand_id>  (19) 
18

>  <original_smiles>  (19) 
[H]c1c([H])c([H])c2c(c1[H])C([H])([H])C([H])([H])C([H])([H])C2([H])N([H])C(=O)C1([H])N(C(=O)C([H])(N([H])C(=O)C([H])(N([H])C([H])([H])[H])C([H])([H])[H])C(C([H])([H])[H])(C([H])([H])[H])C([H])([H])[H])C([H])([H])c2c([H])c(OC([H])([H])c3c(C([H])([H])[H])c([H])c(Cl)c(N([H])C(=O)N4C([H])([H])C([H])([H])C([H])([H])C([H])(n5nc(-c6c([H])c([H])c(Oc7c([H])c([H])c(F)c([H])c7F)c([H])c6[H])c(C(=O)N([H])[H])c5N([H])[H])C4([H])[H])c3C([H])([H])[H])c([H])c([H])c2C1([H])[H]

>  <smiles>  (19) 
[H]c1c([H])c([H])c2c(c1[H])C([H])([H])C([H])([H])C([H])([H])C2([H])N([H])C(=O)C1([H])N(C(=O)C([H])(N([H])C(=O)C([H])(N([H])C([H])([H])[H])C([H])([H])[H])C(C([H])([H])[H])(C([H])([H])[H])C([H])([H])[H])C([H])([H])c2c([H])c(OC([H])([H])c3c(C([H])([H])[H])c([H])c(Cl)c(N([H])C(=O)N4C([H])([H])C([H])([H])C([H])([H])C([H])(n5nc(-c6c([H])c([H])c(Oc7c([H])c([H])c(F)c([H])c7F)c([H])c6[H])c(C(=O)N([H])[H])c5N([H])[H])C4([H])[H])c3C([H])([H])[H])c([H])c([H])c2C1([H])[H]

$$$$
19:0:0
     RDKit          3D

 88 96  0  0  1  0  0  0  0  0999 V2000
  -29.3790  -20.4840   18.7180 C   0  0  0  0  0  2  0  0  0  0  0  0
  -29.1920  -20.5400   21.1260 C   0  0  0  0  0  2  0  0  0  0  0  0
  -29.1770  -18.8610   18.9410 C   0  0  0  0  0  2  0  0  0  0  0  0
  -30.0720  -19.1310   21.1740 C   0  0  0  0  0  2  0  0  0  0  0  0
  -29.4490  -21.5680   19.9250 C   0  0  0  0  0  3  0  0  0  0  0  0
  -30.0910  -18.0310   19.9630 C   0  0  0  0  0  3  0  0  0  0  0  0
  -30.5760  -15.1830   19.9490 C   0  0  0  0  0  0  0  0  0  0  0  0
  -30.4620  -12.8080   18.9450 C   0  0  0  0  0  2  0  0  0  0  0  0
  -29.4450  -12.6900   17.7800 C   0  0  0  0  0  2  0  0  0  0  0  0
  -28.0240  -12.4250   18.3120 C   0  0  0  0  0  2  0  0  0  0  0  0
  -27.6760  -13.3410   19.5090 C   0  0  0  0  0  3  0  0  0  0  0  0
  -28.8090  -13.3220   20.5600 C   0  0  0  0  0  2  0  0  0  0  0  0
  -29.9990  -13.8840   19.8910 N   0  0  0  0  0  0  0  0  0  0  0  0
  -31.7470  -15.2170   19.5400 O   0  0  0  0  0  0  0  0  0  0  0  0
  -28.6950  -16.3660   21.1320 C   0  0  0  0  0  1  0  0  0  0  0  0
  -29.8360  -16.4350   20.2200 N   0  0  0  0  0  0  0  0  0  0  0  0
  -25.3490  -13.9210   20.4140 C   0  0  0  0  0  0  0  0  0  0  0  0
  -24.3140  -13.1490   20.8490 C   0  0  0  0  0  0  0  0  0  0  0  0
  -24.7650  -11.7960   20.7520 C   0  0  0  0  0  0  0  0  0  0  0  0
  -26.3730  -13.0450   20.0880 N   0  0  0  0  0  0  0  0  0  0  0  0
  -26.0320  -11.7580   20.3530 N   0  0  0  0  0  0  0  0  0  0  0  0
  -24.0390  -10.5370   20.9530 C   0  0  0  0  0  0  0  0  0  0  0  0
  -24.4960   -9.5580   21.8630 C   0  0  0  0  0  3  0  0  0  0  0  0
  -23.7680   -8.3650   22.0520 C   0  0  0  0  0  3  0  0  0  0  0  0
  -22.5700   -8.1420   21.3340 C   0  0  0  0  0  0  0  0  0  0  0  0
  -22.1320   -9.1090   20.4120 C   0  0  0  0  0  3  0  0  0  0  0  0
  -22.8610  -10.2940   20.2190 C   0  0  0  0  0  3  0  0  0  0  0  0
  -21.8110   -7.0010   21.4350 O   0  0  0  0  0  0  0  0  0  0  0  0
  -21.7610   -6.2730   22.5970 C   0  0  0  0  0  0  0  0  0  0  0  0
  -21.3180   -6.8380   23.8140 C   0  0  0  0  0  3  0  0  0  0  0  0
  -21.2160   -6.0350   24.9670 C   0  0  0  0  0  3  0  0  0  0  0  0
  -21.5480   -4.6670   24.9050 C   0  0  0  0  0  0  0  0  0  0  0  0
  -21.9840   -4.1030   23.6950 C   0  0  0  0  0  3  0  0  0  0  0  0
  -22.0880   -4.9030   22.5440 C   0  0  0  0  0  0  0  0  0  0  0  0
  -22.4900   -4.3490   21.3740 F   0  0  0  0  0  0  0  0  0  0  0  0
  -21.4420   -3.8940   26.0120 F   0  0  0  0  0  0  0  0  0  0  0  0
  -22.9450  -13.6300   21.2290 C   0  0  0  0  0  0  0  0  0  0  0  0
  -22.2720  -12.9230   22.1300 N   0  0  0  0  0  0  0  0  0  0  0  0
  -22.4830  -14.6730   20.7670 O   0  0  0  0  0  0  0  0  0  0  0  0
  -22.6610  -12.0800   22.5250 H   0  0  0  0  0  0  0  0  0  0  0  0
  -21.3580  -13.2290   22.4290 H   0  0  0  0  0  0  0  0  0  0  0  0
  -25.4820  -15.2960   20.2350 N   0  0  0  0  0  0  0  0  0  0  0  0
  -24.7050  -15.9290   20.3870 H   0  0  0  0  0  0  0  0  0  0  0  0
  -26.2770  -15.7410   19.7970 H   0  0  0  0  0  0  0  0  0  0  0  0
  -29.7720  -23.7800   18.5630 C   0  0  0  0  0  1  0  0  0  0  0  0
  -28.8260  -23.1890   19.6270 C   0  0  0  0  0  3  0  0  0  0  0  0
  -28.4780  -24.5760   20.5970 C   0  0  0  0  0  2  0  0  0  0  0  0
  -28.5290  -26.1340   20.2560 O   0  0  0  0  0  0  0  0  0  0  0  0
  -24.6730  -31.8100   23.2020 C   0  0  0  0  0  0  0  0  0  0  0  0
  -27.4300  -27.0920   20.2590 C   0  0  0  0  0  0  0  0  0  0  0  0
  -23.5530  -30.3920   21.5260 C   0  0  0  0  0  3  0  0  0  0  0  0
  -25.0730  -28.8290   20.1550 C   0  0  0  0  0  0  0  0  0  0  0  0
  -26.1090  -30.6910   21.4440 C   0  0  0  0  0  2  0  0  0  0  0  0
  -26.2320  -29.2950   20.7910 C   0  0  0  0  0  0  0  0  0  0  0  0
  -27.4110  -28.4470   20.8130 C   0  0  0  0  0  3  0  0  0  0  0  0
  -26.2310  -26.7270   19.6120 C   0  0  0  0  0  3  0  0  0  0  0  0
  -25.0870  -27.5600   19.5540 C   0  0  0  0  0  3  0  0  0  0  0  0
  -23.8350  -29.7170   20.1570 C   0  0  0  0  0  2  0  0  0  0  0  0
  -24.7950  -30.9890   22.1120 N   0  0  0  0  0  0  0  0  0  0  0  0
  -23.5660  -32.0740   23.6960 O   0  0  0  0  0  0  0  0  0  0  0  0
  -22.8560  -29.3770   22.4660 C   0  0  0  0  0  0  0  0  0  0  0  0
  -21.5340  -29.1950   22.3070 N   0  0  0  0  0  0  0  0  0  0  0  0
  -23.5110  -28.7530   23.3050 O   0  0  0  0  0  0  0  0  0  0  0  0
  -21.0600  -29.7520   21.6110 H   0  0  0  0  0  0  0  0  0  0  0  0
  -18.1530  -27.9510   22.7200 C   0  0  0  0  0  0  0  0  0  0  0  0
  -20.7020  -28.2420   23.0500 C   0  0  0  0  0  3  0  0  0  0  0  0
  -20.8350  -26.8130   22.4730 C   0  0  0  0  0  2  0  0  0  0  0  0
  -19.7650  -26.4860   21.4270 C   0  0  0  0  0  2  0  0  0  0  0  0
  -18.3640  -26.6090   22.0370 C   0  0  0  0  0  2  0  0  0  0  0  0
  -19.2520  -28.7230   23.1800 C   0  0  0  0  0  0  0  0  0  0  0  0
  -19.0030  -29.9760   23.7800 C   0  0  0  0  0  3  0  0  0  0  0  0
  -17.6880  -30.4580   23.9250 C   0  0  0  0  0  3  0  0  0  0  0  0
  -16.6030  -29.6830   23.4810 C   0  0  0  0  0  3  0  0  0  0  0  0
  -16.8360  -28.4300   22.8840 C   0  0  0  0  0  3  0  0  0  0  0  0
  -25.9180  -32.4720   23.8690 C   0  0  0  0  0  3  0  0  0  0  0  0
  -25.5780  -33.8700   24.1760 N   0  0  0  0  0  0  0  0  0  0  0  0
  -25.9130  -34.9250   23.4200 C   0  0  0  0  0  0  0  0  0  0  0  0
  -26.6090  -34.8240   22.4060 O   0  0  0  0  0  0  0  0  0  0  0  0
  -24.9610  -34.0210   24.9610 H   0  0  0  0  0  0  0  0  0  0  0  0
  -24.1640  -36.6910   23.0240 C   0  0  0  0  0  1  0  0  0  0  0  0
  -25.3970  -36.3110   23.8570 C   0  0  0  0  0  3  0  0  0  0  0  0
  -27.5020  -37.2430   24.7130 C   0  0  0  0  0  1  0  0  0  0  0  0
  -26.4150  -37.3810   23.7480 N   0  0  0  0  0  0  0  0  0  0  0  0
  -25.9920  -38.2960   23.8810 H   0  0  0  0  0  0  0  0  0  0  0  0
  -26.3850  -31.7290   25.1820 C   0  0  1  0  0  0  0  0  0  0  0  0
  -25.2470  -31.5010   26.2040 C   0  0  0  0  0  1  0  0  0  0  0  0
  -26.9970  -30.3470   24.8500 C   0  0  0  0  0  1  0  0  0  0  0  0
  -27.4980  -32.5460   25.8810 C   0  0  0  0  0  1  0  0  0  0  0  0
  1  3  1  0
  1  5  1  0
  2  4  1  0
  3  6  1  0
  5 46  1  0
  5  2  1  0
  6 16  1  0
  6  4  1  0
  7 16  1  0
  8 13  1  0
  9 10  1  0
  9  8  1  0
 11 10  1  0
 11 20  1  0
 11 12  1  0
 13  7  1  0
 13 12  1  0
 14  7  2  0
 16 15  1  0
 17 18  2  0
 18 37  1  0
 19 18  1  0
 19 22  1  0
 20 21  1  0
 20 17  1  0
 21 19  2  0
 22 23  1  0
 23 24  2  0
 25 28  1  0
 25 24  1  0
 26 25  2  0
 27 26  1  0
 27 22  2  0
 28 29  1  0
 29 30  1  0
 30 31  2  0
 32 31  1  0
 32 36  1  0
 33 32  2  0
 34 29  2  0
 34 33  1  0
 35 34  1  0
 37 38  1  0
 38 41  1  0
 38 40  1  0
 39 37  2  0
 42 43  1  0
 42 17  1  0
 44 42  1  0
 46 45  1  0
 46 47  1  0
 48 50  1  0
 48 47  1  0
 49 60  2  0
 50 55  1  0
 51 59  1  0
 51 61  1  0
 52 58  1  0
 52 54  1  0
 53 59  1  0
 54 55  2  0
 54 53  1  0
 56 50  2  0
 57 56  1  0
 57 52  2  0
 58 51  1  0
 59 49  1  0
 61 63  2  0
 62 61  1  0
 64 62  1  0
 65 74  2  0
 65 70  1  0
 66 62  1  0
 66 70  1  0
 67 66  1  0
 68 69  1  0
 68 67  1  0
 69 65  1  0
 70 71  2  0
 71 72  1  0
 73 72  2  0
 74 73  1  0
 75 49  1  0
 75 76  1  0
 75 85  1  0
 76 79  1  0
 77 81  1  0
 77 76  1  0
 78 77  2  0
 81 80  1  0
 83 81  1  0
 83 84  1  0
 83 82  1  0
 85 88  1  1
 85 86  1  0
 87 85  1  0
M  ISO  4   7 100  16 100  47 101  48 101
M  END
>  <TORSDO>  (20) 
F 18

>  <SCORE>  (20) 
-15.171

>  <name>  (20) 
19

>  <ligand_id>  (20) 
19

>  <original_smiles>  (20) 
[H]c1c([H])c([H])c2c(c1[H])C([H])([H])C([H])([H])C([H])([H])C2([H])N([H])C(=O)C1([H])N(C(=O)C([H])(N([H])C(=O)C([H])(N([H])C([H])([H])[H])C([H])([H])[H])C(C([H])([H])[H])(C([H])([H])[H])C([H])([H])[H])C([H])([H])c2c([H])c(OC([H])([H])C([H])(C([H])([H])[H])C3([H])C([H])([H])C([H])([H])C([H])(N(C(=O)N4C([H])([H])C([H])([H])C([H])([H])C([H])(n5nc(-c6c([H])c([H])c(Oc7c([H])c([H])c(F)c([H])c7F)c([H])c6[H])c(C(=O)N([H])[H])c5N([H])[H])C4([H])[H])C([H])([H])[H])C([H])([H])C3([H])[H])c([H])c([H])c2C1([H])[H]

>  <smiles>  (20) 
[H]c1c([H])c([H])c2c(c1[H])C([H])([H])C([H])([H])C([H])([H])C2([H])N([H])C(=O)C1([H])N(C(=O)C([H])(N([H])C(=O)C([H])(N([H])C([H])([H])[H])C([H])([H])[H])C(C([H])([H])[H])(C([H])([H])[H])C([H])([H])[H])C([H])([H])c2c([H])c(OC([H])([H])C([H])(C([H])([H])[H])C3([H])C([H])([H])C([H])([H])C([H])(N(C(=O)N4C([H])([H])C([H])([H])C([H])([H])C([H])(n5nc(-c6c([H])c([H])c(Oc7c([H])c([H])c(F)c([H])c7F)c([H])c6[H])c(C(=O)N([H])[H])c5N([H])[H])C4([H])[H])C([H])([H])[H])C([H])([H])C3([H])[H])c([H])c([H])c2C1([H])[H]

$$$$
20:0:0
     RDKit          3D

 92100  0  0  1  0  0  0  0  0999 V2000
  -30.7710  -21.2160   20.2550 C   0  0  0  0  0  3  0  0  0  0  0  0
  -31.3090  -18.7650   20.2250 C   0  0  0  0  0  3  0  0  0  0  0  0
  -31.7230  -20.1390   20.2580 C   0  0  0  0  0  0  0  0  0  0  0  0
  -29.3650  -21.0710   20.2550 C   0  0  0  0  0  0  0  0  0  0  0  0
  -29.0160  -19.5520   20.2720 C   0  0  0  0  0  0  0  0  0  0  0  0
  -29.9610  -18.3150   20.2340 C   0  0  0  0  0  0  0  0  0  0  0  0
  -27.5430  -19.2120   20.4030 C   0  0  0  0  0  1  0  0  0  0  0  0
  -30.4240  -15.3900   19.9970 C   0  0  0  0  0  0  0  0  0  0  0  0
  -30.3200  -12.9650   19.0110 C   0  0  0  0  0  2  0  0  0  0  0  0
  -29.3300  -12.7680   17.8330 C   0  0  0  0  0  2  0  0  0  0  0  0
  -27.9180  -12.4680   18.3560 C   0  0  0  0  0  2  0  0  0  0  0  0
  -27.5310  -13.4000   19.5290 C   0  0  0  0  0  3  0  0  0  0  0  0
  -28.6420  -13.5300   20.5940 C   0  0  0  0  0  2  0  0  0  0  0  0
  -29.8300  -14.0840   19.9130 N   0  0  0  0  0  0  0  0  0  0  0  0
  -31.6200  -15.3610   19.6700 O   0  0  0  0  0  0  0  0  0  0  0  0
  -29.7040  -16.6890   20.2490 N   0  0  0  0  0  0  0  0  0  0  0  0
  -28.7500  -16.4830   20.5010 H   0  0  0  0  0  0  0  0  0  0  0  0
  -25.1910  -13.9140   20.3990 C   0  0  0  0  0  0  0  0  0  0  0  0
  -24.1540  -13.1250   20.8040 C   0  0  0  0  0  0  0  0  0  0  0  0
  -24.6300  -11.7790   20.7340 C   0  0  0  0  0  0  0  0  0  0  0  0
  -26.2330  -13.0570   20.0990 N   0  0  0  0  0  0  0  0  0  0  0  0
  -25.9070  -11.7620   20.3600 N   0  0  0  0  0  0  0  0  0  0  0  0
  -23.9200  -10.5100   20.9420 C   0  0  0  0  0  0  0  0  0  0  0  0
  -24.3800   -9.5490   21.8690 C   0  0  0  0  0  3  0  0  0  0  0  0
  -23.6680   -8.3460   22.0670 C   0  0  0  0  0  3  0  0  0  0  0  0
  -22.4800   -8.0970   21.3390 C   0  0  0  0  0  0  0  0  0  0  0  0
  -22.0390   -9.0460   20.4000 C   0  0  0  0  0  3  0  0  0  0  0  0
  -22.7510  -10.2400   20.2010 C   0  0  0  0  0  3  0  0  0  0  0  0
  -21.7380   -6.9450   21.4470 O   0  0  0  0  0  0  0  0  0  0  0  0
  -21.6960   -6.2210   22.6110 C   0  0  0  0  0  0  0  0  0  0  0  0
  -21.2520   -6.7880   23.8250 C   0  0  0  0  0  3  0  0  0  0  0  0
  -21.1590   -5.9910   24.9830 C   0  0  0  0  0  3  0  0  0  0  0  0
  -21.5010   -4.6260   24.9280 C   0  0  0  0  0  0  0  0  0  0  0  0
  -21.9370   -4.0570   23.7180 C   0  0  0  0  0  3  0  0  0  0  0  0
  -22.0310   -4.8520   22.5630 C   0  0  0  0  0  0  0  0  0  0  0  0
  -22.4340   -4.2940   21.3960 F   0  0  0  0  0  0  0  0  0  0  0  0
  -21.4040   -3.8580   26.0380 F   0  0  0  0  0  0  0  0  0  0  0  0
  -22.7670  -13.5860   21.1450 C   0  0  0  0  0  0  0  0  0  0  0  0
  -22.0910  -12.8800   22.0420 N   0  0  0  0  0  0  0  0  0  0  0  0
  -22.3020  -14.6150   20.6560 O   0  0  0  0  0  0  0  0  0  0  0  0
  -22.4820  -12.0500   22.4590 H   0  0  0  0  0  0  0  0  0  0  0  0
  -21.1650  -13.1740   22.3140 H   0  0  0  0  0  0  0  0  0  0  0  0
  -25.3270  -15.2880   20.2240 N   0  0  0  0  0  0  0  0  0  0  0  0
  -24.5440  -15.9170   20.3640 H   0  0  0  0  0  0  0  0  0  0  0  0
  -26.1260  -15.7390   19.8060 H   0  0  0  0  0  0  0  0  0  0  0  0
  -33.7020  -20.2100   21.8390 C   0  0  0  0  0  1  0  0  0  0  0  0
  -33.5960  -21.9310   20.0470 C   0  0  0  0  0  1  0  0  0  0  0  0
  -34.1120  -19.5960   19.4380 C   0  0  0  0  0  1  0  0  0  0  0  0
  -33.2460  -20.4610   20.3850 C   0  0  2  0  0  0  0  0  0  0  0  0
  -28.4750  -22.5930   20.4890 C   0  0  0  0  0  2  0  0  0  0  0  0
  -28.3700  -24.2420   19.7090 C   0  0  0  0  0  2  0  0  0  0  0  0
  -28.2970  -25.8520   20.1550 O   0  0  0  0  0  0  0  0  0  0  0  0
  -24.6510  -31.7810   23.0590 C   0  0  0  0  0  0  0  0  0  0  0  0
  -27.2660  -26.9350   20.0230 C   0  0  0  0  0  0  0  0  0  0  0  0
  -23.4710  -30.3790   21.4100 C   0  0  0  0  0  3  0  0  0  0  0  0
  -24.9390  -28.7960   19.9700 C   0  0  0  0  0  0  0  0  0  0  0  0
  -26.0320  -30.6190   21.2680 C   0  0  0  0  0  2  0  0  0  0  0  0
  -26.1180  -29.2110   20.6030 C   0  0  0  0  0  0  0  0  0  0  0  0
  -27.2690  -28.2990   20.6090 C   0  0  0  0  0  3  0  0  0  0  0  0
  -26.0610  -26.6800   19.3280 C   0  0  0  0  0  3  0  0  0  0  0  0
  -24.9370  -27.5520   19.3120 C   0  0  0  0  0  3  0  0  0  0  0  0
  -23.7100  -29.7050   20.0280 C   0  0  0  0  0  2  0  0  0  0  0  0
  -24.7390  -30.9560   21.9660 N   0  0  0  0  0  0  0  0  0  0  0  0
  -23.5600  -32.0500   23.5910 O   0  0  0  0  0  0  0  0  0  0  0  0
  -22.7940  -29.3720   22.3710 C   0  0  0  0  0  0  0  0  0  0  0  0
  -21.4610  -29.2200   22.2650 N   0  0  0  0  0  0  0  0  0  0  0  0
  -23.4700  -28.7320   23.1810 O   0  0  0  0  0  0  0  0  0  0  0  0
  -20.9680  -29.7940   21.5960 H   0  0  0  0  0  0  0  0  0  0  0  0
  -18.0750  -28.0260   22.8250 C   0  0  0  0  0  0  0  0  0  0  0  0
  -20.6420  -28.2670   23.0270 C   0  0  0  0  0  3  0  0  0  0  0  0
  -20.7150  -26.8480   22.4140 C   0  0  0  0  0  2  0  0  0  0  0  0
  -19.5850  -26.5620   21.4180 C   0  0  0  0  0  2  0  0  0  0  0  0
  -18.2220  -26.6980   22.1030 C   0  0  0  0  0  2  0  0  0  0  0  0
  -19.2110  -28.7710   23.2430 C   0  0  0  0  0  0  0  0  0  0  0  0
  -19.0190  -30.0150   23.8820 C   0  0  0  0  0  3  0  0  0  0  0  0
  -17.7210  -30.5160   24.1050 C   0  0  0  0  0  3  0  0  0  0  0  0
  -16.6000  -29.7710   23.7000 C   0  0  0  0  0  3  0  0  0  0  0  0
  -16.7790  -28.5260   23.0680 C   0  0  0  0  0  3  0  0  0  0  0  0
  -25.9170  -32.4340   23.6940 C   0  0  0  0  0  3  0  0  0  0  0  0
  -26.4500  -31.6540   24.9600 C   0  0  1  0  0  0  0  0  0  0  0  0
  -25.3630  -31.3860   26.0260 C   0  0  0  0  0  1  0  0  0  0  0  0
  -27.0540  -30.2880   24.5590 C   0  0  0  0  0  1  0  0  0  0  0  0
  -27.5860  -32.4590   25.6320 C   0  0  0  0  0  1  0  0  0  0  0  0
  -25.5730  -33.8200   24.0630 N   0  0  0  0  0  0  0  0  0  0  0  0
  -25.8770  -34.9080   23.3420 C   0  0  0  0  0  0  0  0  0  0  0  0
  -26.5440  -34.8550   22.3080 O   0  0  0  0  0  0  0  0  0  0  0  0
  -24.9770  -33.9320   24.8700 H   0  0  0  0  0  0  0  0  0  0  0  0
  -24.1150  -36.6870   23.0700 C   0  0  0  0  0  1  0  0  0  0  0  0
  -25.3700  -36.2730   23.8550 C   0  0  0  0  0  3  0  0  0  0  0  0
  -27.4950  -37.1740   24.7060 C   0  0  0  0  0  1  0  0  0  0  0  0
  -26.3830  -37.3480   23.7740 N   0  0  0  0  0  0  0  0  0  0  0  0
  -25.9590  -38.2560   23.9490 H   0  0  0  0  0  0  0  0  0  0  0  0
  1  4  2  0
  1  3  1  0
  2  6  1  0
  2  3  2  0
  3 49  1  0
  4  5  1  0
  4 50  1  0
  5  7  1  0
  6 16  1  0
  6  5  2  0
  8 16  1  0
  9 14  1  0
 10 11  1  0
 10  9  1  0
 12 11  1  0
 12 21  1  0
 12 13  1  0
 14  8  1  0
 14 13  1  0
 15  8  2  0
 16 17  1  0
 18 19  2  0
 19 38  1  0
 20 19  1  0
 20 23  1  0
 21 22  1  0
 21 18  1  0
 22 20  2  0
 23 24  1  0
 24 25  2  0
 26 29  1  0
 26 25  1  0
 27 26  2  0
 28 27  1  0
 28 23  2  0
 29 30  1  0
 30 31  1  0
 31 32  2  0
 33 32  1  0
 33 37  1  0
 34 33  2  0
 35 30  2  0
 35 34  1  0
 36 35  1  0
 38 39  1  0
 39 42  1  0
 39 41  1  0
 40 38  2  0
 43 44  1  0
 43 18  1  0
 45 43  1  0
 49 47  1  6
 48 49  1  0
 49 46  1  0
 51 52  1  0
 51 50  1  0
 53 64  2  0
 54 52  1  0
 54 59  1  0
 55 63  1  0
 55 65  1  0
 56 62  1  0
 56 58  1  0
 57 63  1  0
 58 59  2  0
 58 57  1  0
 60 54  2  0
 61 60  1  0
 61 56  2  0
 62 55  1  0
 63 53  1  0
 65 67  2  0
 66 65  1  0
 68 66  1  0
 69 78  2  0
 69 74  1  0
 70 66  1  0
 70 74  1  0
 71 70  1  0
 72 73  1  0
 72 71  1  0
 73 69  1  0
 74 75  2  0
 75 76  1  0
 77 76  2  0
 78 77  1  0
 79 53  1  0
 79 84  1  0
 79 80  1  0
 80 83  1  1
 80 81  1  0
 82 80  1  0
 84 87  1  0
 85 89  1  0
 85 84  1  0
 86 85  2  0
 89 88  1  0
 91 89  1  0
 91 92  1  0
 91 90  1  0
M  ISO  4   8 100  16 100  51 101  52 101
M  END
>  <TORSDO>  (21) 
F 19

>  <SCORE>  (21) 
-15.662

>  <name>  (21) 
20

>  <ligand_id>  (21) 
20

>  <original_smiles>  (21) 
[H]c1c([H])c([H])c2c(c1[H])C([H])([H])C([H])([H])C([H])([H])C2([H])N([H])C(=O)C1([H])N(C(=O)C([H])(N([H])C(=O)C([H])(N([H])C([H])([H])[H])C([H])([H])[H])C(C([H])([H])[H])(C([H])([H])[H])C([H])([H])[H])C([H])([H])c2c([H])c(OC([H])([H])C([H])([H])c3c([H])c(C(C([H])([H])[H])(C([H])([H])[H])C([H])([H])[H])c([H])c(N([H])C(=O)N4C([H])([H])C([H])([H])C([H])([H])C([H])(n5nc(-c6c([H])c([H])c(Oc7c([H])c([H])c(F)c([H])c7F)c([H])c6[H])c(C(=O)N([H])[H])c5N([H])[H])C4([H])[H])c3C([H])([H])[H])c([H])c([H])c2C1([H])[H]

>  <smiles>  (21) 
[H]c1c([H])c([H])c2c(c1[H])C([H])([H])C([H])([H])C([H])([H])C2([H])N([H])C(=O)C1([H])N(C(=O)C([H])(N([H])C(=O)C([H])(N([H])C([H])([H])[H])C([H])([H])[H])C(C([H])([H])[H])(C([H])([H])[H])C([H])([H])[H])C([H])([H])c2c([H])c(OC([H])([H])C([H])([H])c3c([H])c(C(C([H])([H])[H])(C([H])([H])[H])C([H])([H])[H])c([H])c(N([H])C(=O)N4C([H])([H])C([H])([H])C([H])([H])C([H])(n5nc(-c6c([H])c([H])c(Oc7c([H])c([H])c(F)c([H])c7F)c([H])c6[H])c(C(=O)N([H])[H])c5N([H])[H])C4([H])[H])c3C([H])([H])[H])c([H])c([H])c2C1([H])[H]

$$$$
21:0:0
     RDKit          3D

 94102  0  0  1  0  0  0  0  0999 V2000
  -30.0340  -21.0100   18.7430 C   0  0  0  0  0  2  0  0  0  0  0  0
  -30.7440  -18.2700   18.6660 C   0  0  0  0  0  0  0  0  0  0  0  0
  -30.1940  -19.4990   19.2580 C   0  0  0  0  0  0  0  0  0  0  0  0
  -30.4040  -17.1850   19.4760 C   0  0  0  0  0  0  0  0  0  0  0  0
  -29.5300  -19.1180   20.3470 N   0  0  0  0  0  0  0  0  0  0  0  0
  -29.7060  -17.7760   20.5240 N   0  0  0  0  0  0  0  0  0  0  0  0
  -31.5570  -18.1820   17.1450 Cl  0  0  0  0  0  0  0  0  0  0  0  0
  -31.1680  -14.7710   18.7540 C   0  0  0  0  0  0  0  0  0  0  0  0
  -30.6570  -12.5330   17.7370 C   0  0  0  0  0  2  0  0  0  0  0  0
  -29.4230  -12.6850   16.8160 C   0  0  0  0  0  2  0  0  0  0  0  0
  -28.1080  -12.5690   17.6160 C   0  0  0  0  0  2  0  0  0  0  0  0
  -28.1200  -13.4290   18.9050 C   0  0  0  0  0  3  0  0  0  0  0  0
  -29.4230  -13.1980   19.7040 C   0  0  0  0  0  2  0  0  0  0  0  0
  -30.5490  -13.5400   18.8180 N   0  0  0  0  0  0  0  0  0  0  0  0
  -32.1870  -14.9210   18.0730 O   0  0  0  0  0  0  0  0  0  0  0  0
  -30.4950  -15.7820   19.4110 N   0  0  0  0  0  0  0  0  0  0  0  0
  -29.7880  -15.3570   19.9880 H   0  0  0  0  0  0  0  0  0  0  0  0
  -26.1400  -14.1380   20.3760 C   0  0  0  0  0  0  0  0  0  0  0  0
  -25.1120  -13.4300   20.9360 C   0  0  0  0  0  0  0  0  0  0  0  0
  -25.3260  -12.0670   20.5650 C   0  0  0  0  0  0  0  0  0  0  0  0
  -26.9300  -13.2090   19.7190 N   0  0  0  0  0  0  0  0  0  0  0  0
  -26.4600  -11.9460   19.8850 N   0  0  0  0  0  0  0  0  0  0  0  0
  -24.4850  -10.8810   20.7660 C   0  0  0  0  0  0  0  0  0  0  0  0
  -24.8890   -9.8230   21.6090 C   0  0  0  0  0  3  0  0  0  0  0  0
  -24.0550   -8.7000   21.7990 C   0  0  0  0  0  3  0  0  0  0  0  0
  -22.8020   -8.6280   21.1430 C   0  0  0  0  0  0  0  0  0  0  0  0
  -22.4170   -9.6730   20.2850 C   0  0  0  0  0  3  0  0  0  0  0  0
  -23.2500  -10.7880   20.0950 C   0  0  0  0  0  3  0  0  0  0  0  0
  -21.9380   -7.5660   21.2490 O   0  0  0  0  0  0  0  0  0  0  0  0
  -21.7240   -6.9290   22.4450 C   0  0  0  0  0  0  0  0  0  0  0  0
  -21.2200   -7.6130   23.5730 C   0  0  0  0  0  3  0  0  0  0  0  0
  -20.9500   -6.9060   24.7620 C   0  0  0  0  0  3  0  0  0  0  0  0
  -21.1730   -5.5170   24.8220 C   0  0  0  0  0  0  0  0  0  0  0  0
  -21.6700   -4.8340   23.6980 C   0  0  0  0  0  3  0  0  0  0  0  0
  -21.9420   -5.5380   22.5130 C   0  0  0  0  0  0  0  0  0  0  0  0
  -22.4000   -4.8720   21.4250 F   0  0  0  0  0  0  0  0  0  0  0  0
  -20.9070   -4.8350   25.9620 F   0  0  0  0  0  0  0  0  0  0  0  0
  -23.9400  -13.9980   21.6830 C   0  0  0  0  0  0  0  0  0  0  0  0
  -23.4010  -13.2470   22.6390 N   0  0  0  0  0  0  0  0  0  0  0  0
  -23.5260  -15.1340   21.4560 O   0  0  0  0  0  0  0  0  0  0  0  0
  -23.7560  -12.3240   22.8400 H   0  0  0  0  0  0  0  0  0  0  0  0
  -22.6300  -13.6050   23.1820 H   0  0  0  0  0  0  0  0  0  0  0  0
  -26.4470  -15.4920   20.3420 N   0  0  0  0  0  0  0  0  0  0  0  0
  -25.7830  -16.1790   20.6820 H   0  0  0  0  0  0  0  0  0  0  0  0
  -27.1410  -15.8930   19.7270 H   0  0  0  0  0  0  0  0  0  0  0  0
  -29.6350  -17.5970   23.0230 C   0  0  0  0  0  1  0  0  0  0  0  0
  -29.0600  -17.1460   21.6710 C   0  0  0  0  0  2  0  0  0  0  0  0
  -31.8690  -22.6550   19.4070 C   0  0  0  0  0  1  0  0  0  0  0  0
  -30.3670  -22.3630   19.6190 C   0  0  2  0  0  0  0  0  0  0  0  0
  -31.2210  -21.9230   22.0880 C   0  0  0  0  0  1  0  0  0  0  0  0
  -30.0330  -22.1140   21.1260 C   0  0  0  0  0  2  0  0  0  0  0  0
  -29.6000  -23.7440   19.1590 C   0  0  0  0  0  2  0  0  0  0  0  0
  -29.4100  -25.0050   20.1750 C   0  0  0  0  0  2  0  0  0  0  0  0
  -29.3640  -26.4420   19.7550 O   0  0  0  0  0  0  0  0  0  0  0  0
  -24.8720  -31.1400   23.0230 C   0  0  0  0  0  0  0  0  0  0  0  0
  -28.1360  -27.1310   19.7970 C   0  0  0  0  0  0  0  0  0  0  0  0
  -23.8940  -29.6600   21.3050 C   0  0  0  0  0  3  0  0  0  0  0  0
  -25.5640  -28.3960   19.8290 C   0  0  0  0  0  0  0  0  0  0  0  0
  -26.3630  -30.3450   21.1700 C   0  0  0  0  0  2  0  0  0  0  0  0
  -26.6490  -29.0200   20.4610 C   0  0  0  0  0  0  0  0  0  0  0  0
  -27.9390  -28.4040   20.4290 C   0  0  0  0  0  3  0  0  0  0  0  0
  -27.0230  -26.5570   19.1520 C   0  0  0  0  0  3  0  0  0  0  0  0
  -25.7530  -27.1720   19.1640 C   0  0  0  0  0  3  0  0  0  0  0  0
  -24.2150  -29.0870   19.8980 C   0  0  0  0  0  2  0  0  0  0  0  0
  -25.0580  -30.3990   21.8910 N   0  0  0  0  0  0  0  0  0  0  0  0
  -23.7560  -31.2340   23.5550 O   0  0  0  0  0  0  0  0  0  0  0  0
  -23.3760  -28.5160   22.2110 C   0  0  0  0  0  0  0  0  0  0  0  0
  -22.1010  -28.1320   22.0320 N   0  0  0  0  0  0  0  0  0  0  0  0
  -24.1230  -27.9790   23.0340 O   0  0  0  0  0  0  0  0  0  0  0  0
  -21.5490  -28.6280   21.3450 H   0  0  0  0  0  0  0  0  0  0  0  0
  -18.9590  -26.3650   22.3590 C   0  0  0  0  0  0  0  0  0  0  0  0
  -21.4240  -27.0440   22.7420 C   0  0  0  0  0  3  0  0  0  0  0  0
  -21.7900  -25.6700   22.1350 C   0  0  0  0  0  2  0  0  0  0  0  0
  -20.7980  -25.1990   21.0670 C   0  0  0  0  0  2  0  0  0  0  0  0
  -19.3880  -25.0880   21.6550 C   0  0  0  0  0  2  0  0  0  0  0  0
  -19.9150  -27.2910   22.8540 C   0  0  0  0  0  0  0  0  0  0  0  0
  -19.4650  -28.4790   23.4680 C   0  0  0  0  0  3  0  0  0  0  0  0
  -18.0900  -28.7490   23.5910 C   0  0  0  0  0  3  0  0  0  0  0  0
  -17.1460  -27.8230   23.1130 C   0  0  0  0  0  3  0  0  0  0  0  0
  -17.5820  -26.6330   22.5040 C   0  0  0  0  0  3  0  0  0  0  0  0
  -26.0460  -31.9230   23.6890 C   0  0  0  0  0  3  0  0  0  0  0  0
  -25.5520  -33.2670   24.0220 N   0  0  0  0  0  0  0  0  0  0  0  0
  -25.7950  -34.3670   23.2970 C   0  0  0  0  0  0  0  0  0  0  0  0
  -26.5230  -34.3640   22.3000 O   0  0  0  0  0  0  0  0  0  0  0  0
  -24.9010  -33.3290   24.7920 H   0  0  0  0  0  0  0  0  0  0  0  0
  -23.8960  -35.9600   22.8680 C   0  0  0  0  0  1  0  0  0  0  0  0
  -25.1230  -35.6780   23.7490 C   0  0  0  0  0  3  0  0  0  0  0  0
  -27.0790  -36.7820   24.7410 C   0  0  0  0  0  1  0  0  0  0  0  0
  -26.0330  -36.8450   23.7240 N   0  0  0  0  0  0  0  0  0  0  0  0
  -25.5120  -37.7070   23.8590 H   0  0  0  0  0  0  0  0  0  0  0  0
  -26.6140  -31.2080   24.9760 C   0  0  1  0  0  0  0  0  0  0  0  0
  -25.5250  -30.8060   25.9980 C   0  0  0  0  0  1  0  0  0  0  0  0
  -27.3960  -29.9310   24.5930 C   0  0  0  0  0  1  0  0  0  0  0  0
  -27.6180  -32.1440   25.6920 C   0  0  0  0  0  1  0  0  0  0  0  0
  1  3  1  0
  1 49  1  0
  2  3  1  0
  2  4  2  0
  3  5  2  0
  4  6  1  0
  5  6  1  0
  6 47  1  0
  7  2  1  0
  8 14  1  0
  8 16  1  0
  9 14  1  0
 10 11  1  0
 10  9  1  0
 12 11  1  0
 12 13  1  0
 12 21  1  0
 14 13  1  0
 15  8  2  0
 16  4  1  0
 16 17  1  0
 18 19  2  0
 19 38  1  0
 20 23  1  0
 20 19  1  0
 21 22  1  0
 21 18  1  0
 22 20  2  0
 23 24  1  0
 24 25  2  0
 26 29  1  0
 26 25  1  0
 27 26  2  0
 28 27  1  0
 28 23  2  0
 29 30  1  0
 30 35  2  0
 30 31  1  0
 31 32  2  0
 32 33  1  0
 33 37  1  0
 34 33  2  0
 35 34  1  0
 36 35  1  0
 38 39  1  0
 39 41  1  0
 39 42  1  0
 40 38  2  0
 43 18  1  0
 43 44  1  0
 45 43  1  0
 47 46  1  0
 49 48  1  1
 49 51  1  0
 51 50  1  0
 52 49  1  0
 52 53  1  0
 54 56  1  0
 54 53  1  0
 55 66  2  0
 56 61  1  0
 57 65  1  0
 57 67  1  0
 58 64  1  0
 58 60  1  0
 59 65  1  0
 60 59  1  0
 61 60  2  0
 62 63  1  0
 62 56  2  0
 63 58  2  0
 64 57  1  0
 65 55  1  0
 67 69  2  0
 68 67  1  0
 70 68  1  0
 71 80  2  0
 71 76  1  0
 72 68  1  0
 72 76  1  0
 73 72  1  0
 74 75  1  0
 74 73  1  0
 75 71  1  0
 76 77  2  0
 77 78  1  0
 79 78  2  0
 80 79  1  0
 81 55  1  0
 81 82  1  0
 81 91  1  0
 82 85  1  0
 83 87  1  0
 83 82  1  0
 84 83  2  0
 87 86  1  0
 89 87  1  0
 89 90  1  0
 89 88  1  0
 91 94  1  1
 91 92  1  0
 93 91  1  0
M  ISO  4   8 100  16 100  53 101  54 101
M  END
>  <TORSDO>  (22) 
F 22

>  <SCORE>  (22) 
-5.265

>  <name>  (22) 
21

>  <ligand_id>  (22) 
21

>  <original_smiles>  (22) 
[H]c1c([H])c([H])c2c(c1[H])C([H])([H])C([H])([H])C([H])([H])C2([H])N([H])C(=O)C1([H])N(C(=O)C([H])(N([H])C(=O)C([H])(N([H])C([H])([H])[H])C([H])([H])[H])C(C([H])([H])[H])(C([H])([H])[H])C([H])([H])[H])C([H])([H])c2c([H])c(OC([H])([H])C([H])([H])C(C([H])([H])[H])(C([H])([H])c3nn(C([H])([H])C([H])([H])[H])c(N([H])C(=O)N4C([H])([H])C([H])([H])C([H])([H])C([H])(n5nc(-c6c([H])c([H])c(Oc7c([H])c([H])c(F)c([H])c7F)c([H])c6[H])c(C(=O)N([H])[H])c5N([H])[H])C4([H])[H])c3Cl)C([H])([H])C([H])([H])[H])c([H])c([H])c2C1([H])[H]

>  <smiles>  (22) 
[H]c1c([H])c([H])c2c(c1[H])C([H])([H])C([H])([H])C([H])([H])C2([H])N([H])C(=O)C1([H])N(C(=O)C([H])(N([H])C(=O)C([H])(N([H])C([H])([H])[H])C([H])([H])[H])C(C([H])([H])[H])(C([H])([H])[H])C([H])([H])[H])C([H])([H])c2c([H])c(OC([H])([H])C([H])([H])C(C([H])([H])[H])(C([H])([H])c3nn(C([H])([H])C([H])([H])[H])c(N([H])C(=O)N4C([H])([H])C([H])([H])C([H])([H])C([H])(n5nc(-c6c([H])c([H])c(Oc7c([H])c([H])c(F)c([H])c7F)c([H])c6[H])c(C(=O)N([H])[H])c5N([H])[H])C4([H])[H])c3Cl)C([H])([H])C([H])([H])[H])c([H])c([H])c2C1([H])[H]

$$$$
22:0:0
     RDKit          3D

 92100  0  0  1  0  0  0  0  0999 V2000
  -28.5120  -19.7590   21.5070 C   0  0  0  0  0  3  0  0  0  0  0  0
  -30.0090  -18.6760   19.8990 C   0  0  0  0  0  0  0  0  0  0  0  0
  -29.4730  -21.1760   19.7380 C   0  0  0  0  0  0  0  0  0  0  0  0
  -29.1850  -18.6160   21.0420 C   0  0  0  0  0  0  0  0  0  0  0  0
  -28.6250  -21.0080   20.8620 C   0  0  0  0  0  0  0  0  0  0  0  0
  -30.1550  -19.9780   19.2710 C   0  0  0  0  0  0  0  0  0  0  0  0
  -29.0170  -17.4470   21.7080 F   0  0  0  0  0  0  0  0  0  0  0  0
  -27.6240  -22.2940   21.4440 Cl  0  0  0  0  0  0  0  0  0  0  0  0
  -31.1630  -20.0880   17.8670 Cl  0  0  0  0  0  0  0  0  0  0  0  0
  -29.4560  -22.5600   18.9510 C   0  0  0  0  0  2  0  0  0  0  0  0
  -29.6650  -24.0100   19.6270 C   0  0  0  0  0  3  0  0  0  0  0  0
  -28.7800  -25.1920   19.0050 C   0  0  0  0  0  3  0  0  0  0  0  0
  -28.7860  -26.5890   19.5310 O   0  0  0  0  0  0  0  0  0  0  0  0
  -24.6430  -31.4130   22.9630 C   0  0  0  0  0  0  0  0  0  0  0  0
  -27.6040  -27.3630   19.5150 C   0  0  0  0  0  0  0  0  0  0  0  0
  -23.5480  -30.0670   21.2080 C   0  0  0  0  0  3  0  0  0  0  0  0
  -25.1140  -28.7840   19.6430 C   0  0  0  0  0  0  0  0  0  0  0  0
  -26.0530  -30.6090   21.0570 C   0  0  0  0  0  2  0  0  0  0  0  0
  -26.2420  -29.3050   20.2900 C   0  0  0  0  0  0  0  0  0  0  0  0
  -27.4860  -28.6030   20.2240 C   0  0  0  0  0  3  0  0  0  0  0  0
  -26.4500  -26.9250   18.8200 C   0  0  0  0  0  3  0  0  0  0  0  0
  -25.2230  -27.6050   18.8960 C   0  0  0  0  0  3  0  0  0  0  0  0
  -23.8070  -29.5390   19.7730 C   0  0  0  0  0  2  0  0  0  0  0  0
  -24.7650  -30.7110   21.7990 N   0  0  0  0  0  0  0  0  0  0  0  0
  -23.5440  -31.5520   23.5190 O   0  0  0  0  0  0  0  0  0  0  0  0
  -22.9810  -28.9170   22.0750 C   0  0  0  0  0  0  0  0  0  0  0  0
  -21.6800  -28.6210   21.9140 N   0  0  0  0  0  0  0  0  0  0  0  0
  -23.7110  -28.2970   22.8540 O   0  0  0  0  0  0  0  0  0  0  0  0
  -21.1460  -29.1800   21.2630 H   0  0  0  0  0  0  0  0  0  0  0  0
  -18.4360  -27.0510   22.2400 C   0  0  0  0  0  0  0  0  0  0  0  0
  -20.9480  -27.5540   22.5980 C   0  0  0  0  0  3  0  0  0  0  0  0
  -21.2100  -26.1840   21.9290 C   0  0  0  0  0  2  0  0  0  0  0  0
  -20.1680  -25.8210   20.8670 C   0  0  0  0  0  2  0  0  0  0  0  0
  -18.7660  -25.7770   21.4820 C   0  0  0  0  0  2  0  0  0  0  0  0
  -19.4600  -27.8930   22.7500 C   0  0  0  0  0  0  0  0  0  0  0  0
  -19.0960  -29.0830   23.4190 C   0  0  0  0  0  3  0  0  0  0  0  0
  -17.7430  -29.4320   23.5830 C   0  0  0  0  0  3  0  0  0  0  0  0
  -16.7340  -28.5860   23.0900 C   0  0  0  0  0  3  0  0  0  0  0  0
  -17.0810  -27.3980   22.4230 C   0  0  0  0  0  3  0  0  0  0  0  0
  -25.8730  -32.0960   23.6380 C   0  0  0  0  0  3  0  0  0  0  0  0
  -26.4150  -31.3010   24.8880 C   0  0  1  0  0  0  0  0  0  0  0  0
  -25.3220  -30.9540   25.9270 C   0  0  0  0  0  1  0  0  0  0  0  0
  -27.0820  -29.9750   24.4490 C   0  0  0  0  0  1  0  0  0  0  0  0
  -27.5080  -32.1300   25.6020 C   0  0  0  0  0  1  0  0  0  0  0  0
  -25.4690  -33.4550   24.0240 N   0  0  0  0  0  0  0  0  0  0  0  0
  -25.7510  -34.5610   23.3230 C   0  0  0  0  0  0  0  0  0  0  0  0
  -26.4460  -34.5470   22.3030 O   0  0  0  0  0  0  0  0  0  0  0  0
  -24.8500  -33.5340   24.8170 H   0  0  0  0  0  0  0  0  0  0  0  0
  -23.9160  -36.2550   23.0230 C   0  0  0  0  0  1  0  0  0  0  0  0
  -25.1700  -35.8950   23.8340 C   0  0  0  0  0  3  0  0  0  0  0  0
  -27.2270  -36.8800   24.7430 C   0  0  0  0  0  1  0  0  0  0  0  0
  -26.1340  -37.0140   23.7840 N   0  0  0  0  0  0  0  0  0  0  0  0
  -25.6680  -37.9000   23.9580 H   0  0  0  0  0  0  0  0  0  0  0  0
  -30.7500  -17.3700   19.3890 C   0  0  0  0  0  2  0  0  0  0  0  0
  -31.0750  -14.8170   19.5960 C   0  0  0  0  0  0  0  0  0  0  0  0
  -30.7250  -12.5170   18.7240 C   0  0  0  0  0  2  0  0  0  0  0  0
  -29.6920  -12.5780   17.5780 C   0  0  0  0  0  2  0  0  0  0  0  0
  -28.2590  -12.4660   18.1320 C   0  0  0  0  0  2  0  0  0  0  0  0
  -28.0080  -13.4110   19.3380 C   0  0  0  0  0  3  0  0  0  0  0  0
  -29.1550  -13.3450   20.3730 C   0  0  0  0  0  2  0  0  0  0  0  0
  -30.4110  -13.6170   19.6630 N   0  0  0  0  0  0  0  0  0  0  0  0
  -32.2070  -14.8780   19.1110 O   0  0  0  0  0  0  0  0  0  0  0  0
  -30.3770  -15.9730   19.8550 N   0  0  0  0  0  0  0  0  0  0  0  0
  -29.4750  -15.8740   20.2960 H   0  0  0  0  0  0  0  0  0  0  0  0
  -25.7350  -14.0880   20.3230 C   0  0  0  0  0  0  0  0  0  0  0  0
  -24.6710  -13.3530   20.7670 C   0  0  0  0  0  0  0  0  0  0  0  0
  -25.0540  -11.9820   20.6350 C   0  0  0  0  0  0  0  0  0  0  0  0
  -26.7030  -13.1700   19.9480 N   0  0  0  0  0  0  0  0  0  0  0  0
  -26.3030  -11.8950   20.1950 N   0  0  0  0  0  0  0  0  0  0  0  0
  -24.2820  -10.7510   20.8480 C   0  0  0  0  0  0  0  0  0  0  0  0
  -24.6990   -9.7670   21.7720 C   0  0  0  0  0  3  0  0  0  0  0  0
  -23.9290   -8.6010   21.9730 C   0  0  0  0  0  3  0  0  0  0  0  0
  -22.7280   -8.4090   21.2500 C   0  0  0  0  0  0  0  0  0  0  0  0
  -22.3300   -9.3800   20.3140 C   0  0  0  0  0  3  0  0  0  0  0  0
  -23.0990  -10.5380   20.1110 C   0  0  0  0  0  3  0  0  0  0  0  0
  -21.9310   -7.2960   21.3600 O   0  0  0  0  0  0  0  0  0  0  0  0
  -21.7990   -6.6190   22.5470 C   0  0  0  0  0  0  0  0  0  0  0  0
  -21.3110   -7.2480   23.7130 C   0  0  0  0  0  3  0  0  0  0  0  0
  -21.1260   -6.4990   24.8930 C   0  0  0  0  0  3  0  0  0  0  0  0
  -21.4200   -5.1220   24.9050 C   0  0  0  0  0  0  0  0  0  0  0  0
  -21.9030   -4.4930   23.7440 C   0  0  0  0  0  3  0  0  0  0  0  0
  -22.0870   -5.2400   22.5670 C   0  0  0  0  0  0  0  0  0  0  0  0
  -22.5320   -4.6240   21.4450 F   0  0  0  0  0  0  0  0  0  0  0  0
  -21.2360   -4.4000   26.0360 F   0  0  0  0  0  0  0  0  0  0  0  0
  -23.3340  -13.8860   21.1970 C   0  0  0  0  0  0  0  0  0  0  0  0
  -22.6680  -13.1990   22.1180 N   0  0  0  0  0  0  0  0  0  0  0  0
  -22.8960  -14.9460   20.7520 O   0  0  0  0  0  0  0  0  0  0  0  0
  -23.0380  -12.3400   22.5010 H   0  0  0  0  0  0  0  0  0  0  0  0
  -21.7760  -13.5360   22.4500 H   0  0  0  0  0  0  0  0  0  0  0  0
  -25.9550  -15.4550   20.1830 N   0  0  0  0  0  0  0  0  0  0  0  0
  -25.2410  -16.1400   20.4070 H   0  0  0  0  0  0  0  0  0  0  0  0
  -26.7920  -15.8670   19.7930 H   0  0  0  0  0  0  0  0  0  0  0  0
  2  4  2  0
  3  5  1  0
  4  1  1  0
  4  7  1  0
  5  8  1  0
  5  1  2  0
  6  3  2  0
  6  2  1  0
  9  6  1  0
 10 11  1  0
 10  3  1  0
 12 13  1  0
 12 11  2  0
 14 25  2  0
 15 13  1  0
 15 20  1  0
 16 24  1  0
 16 26  1  0
 17 23  1  0
 17 19  1  0
 18 24  1  0
 19 18  1  0
 20 19  2  0
 21 22  1  0
 21 15  2  0
 22 17  2  0
 23 16  1  0
 24 14  1  0
 26 28  2  0
 27 26  1  0
 29 27  1  0
 30 39  2  0
 30 35  1  0
 31 27  1  0
 31 35  1  0
 32 31  1  0
 33 34  1  0
 33 32  1  0
 34 30  1  0
 35 36  2  0
 36 37  1  0
 38 37  2  0
 39 38  1  0
 40 14  1  0
 40 45  1  0
 40 41  1  0
 41 44  1  1
 41 42  1  0
 43 41  1  0
 45 48  1  0
 46 50  1  0
 46 45  1  0
 47 46  2  0
 50 49  1  0
 52 50  1  0
 52 53  1  0
 52 51  1  0
 54 63  1  0
 54  2  1  0
 55 61  1  0
 55 63  1  0
 56 61  1  0
 57 58  1  0
 57 56  1  0
 59 58  1  0
 59 68  1  0
 59 60  1  0
 61 60  1  0
 62 55  2  0
 63 64  1  0
 65 66  2  0
 66 85  1  0
 67 66  1  0
 67 70  1  0
 68 69  1  0
 68 65  1  0
 69 67  2  0
 70 71  1  0
 71 72  2  0
 73 76  1  0
 73 72  1  0
 74 73  2  0
 75 74  1  0
 75 70  2  0
 76 77  1  0
 77 82  2  0
 77 78  1  0
 78 79  2  0
 79 80  1  0
 80 84  1  0
 81 80  2  0
 82 81  1  0
 83 82  1  0
 85 86  1  0
 86 89  1  0
 86 88  1  0
 87 85  2  0
 90 65  1  0
 90 91  1  0
 92 90  1  0
M  ISO  4  12 101  13 101  55 100  63 100
M  END
>  <TORSDO>  (23) 
F 20

>  <SCORE>  (23) 
-10.905

>  <name>  (23) 
22

>  <ligand_id>  (23) 
22

>  <original_smiles>  (23) 
[H]c1c([H])c([H])c2c(c1[H])C([H])([H])C([H])([H])C([H])([H])C2([H])N([H])C(=O)C1([H])N(C(=O)C([H])(N([H])C(=O)C([H])(N([H])C([H])([H])[H])C([H])([H])[H])C(C([H])([H])[H])(C([H])([H])[H])C([H])([H])[H])C([H])([H])c2c([H])c(OC([H])([H])C([H])([H])C([H])([H])c3c(Cl)c([H])c(F)c(C([H])([H])N([H])C(=O)N4C([H])([H])C([H])([H])C([H])([H])C([H])(n5nc(-c6c([H])c([H])c(Oc7c([H])c([H])c(F)c([H])c7F)c([H])c6[H])c(C(=O)N([H])[H])c5N([H])[H])C4([H])[H])c3Cl)c([H])c([H])c2C1([H])[H]

>  <smiles>  (23) 
[H]c1c([H])c([H])c2c(c1[H])C([H])([H])C([H])([H])C([H])([H])C2([H])N([H])C(=O)C1([H])N(C(=O)C([H])(N([H])C(=O)C([H])(N([H])C([H])([H])[H])C([H])([H])[H])C(C([H])([H])[H])(C([H])([H])[H])C([H])([H])[H])C([H])([H])c2c([H])c(OC([H])([H])C([H])([H])C([H])([H])c3c(Cl)c([H])c(F)c(C([H])([H])N([H])C(=O)N4C([H])([H])C([H])([H])C([H])([H])C([H])(n5nc(-c6c([H])c([H])c(Oc7c([H])c([H])c(F)c([H])c7F)c([H])c6[H])c(C(=O)N([H])[H])c5N([H])[H])C4([H])[H])c3Cl)c([H])c([H])c2C1([H])[H]

$$$$
23:0:0
     RDKit          3D

 89 97  0  0  1  0  0  0  0  0999 V2000
  -30.9150  -19.5220   20.3470 C   0  0  0  0  0  3  0  0  0  0  0  0
  -30.3910  -22.0570   20.3500 C   0  0  0  0  0  0  0  0  0  0  0  0
  -28.9770  -21.9690   20.1670 C   0  0  0  0  0  0  0  0  0  0  0  0
  -29.6090  -19.0060   20.2010 C   0  0  0  0  0  0  0  0  0  0  0  0
  -31.2740  -20.9100   20.4120 C   0  0  0  0  0  0  0  0  0  0  0  0
  -28.6820  -20.3550   20.1090 C   0  0  0  0  0  0  0  0  0  0  0  0
  -31.0070  -23.4490   20.4700 C   0  0  0  0  0  1  0  0  0  0  0  0
  -32.9780  -21.1810   20.5690 Cl  0  0  0  0  0  0  0  0  0  0  0  0
  -27.0080  -19.9900   19.9010 Cl  0  0  0  0  0  0  0  0  0  0  0  0
  -30.2550  -15.8550   20.0970 C   0  0  0  0  0  0  0  0  0  0  0  0
  -30.3850  -13.2850   19.2550 C   0  0  0  0  0  2  0  0  0  0  0  0
  -29.4720  -12.8160   18.0810 C   0  0  0  0  0  2  0  0  0  0  0  0
  -28.0770  -12.4210   18.5850 C   0  0  0  0  0  2  0  0  0  0  0  0
  -27.5740  -13.4180   19.6510 C   0  0  0  0  0  3  0  0  0  0  0  0
  -28.6300  -13.7840   20.7240 C   0  0  0  0  0  2  0  0  0  0  0  0
  -29.7520  -14.4650   20.0230 N   0  0  0  0  0  0  0  0  0  0  0  0
  -31.4890  -15.7760   19.9100 O   0  0  0  0  0  0  0  0  0  0  0  0
  -29.4800  -17.2440   20.1790 N   0  0  0  0  0  0  0  0  0  0  0  0
  -28.5030  -16.9980   20.2410 H   0  0  0  0  0  0  0  0  0  0  0  0
  -25.2420  -13.9120   20.5150 C   0  0  0  0  0  0  0  0  0  0  0  0
  -24.2010  -13.1170   20.9000 C   0  0  0  0  0  0  0  0  0  0  0  0
  -24.6770  -11.7720   20.8210 C   0  0  0  0  0  0  0  0  0  0  0  0
  -26.2820  -13.0530   20.2140 N   0  0  0  0  0  0  0  0  0  0  0  0
  -25.9600  -11.7560   20.4640 N   0  0  0  0  0  0  0  0  0  0  0  0
  -23.9600  -10.5010   21.0040 C   0  0  0  0  0  0  0  0  0  0  0  0
  -24.4050   -9.5250   21.9230 C   0  0  0  0  0  3  0  0  0  0  0  0
  -23.6830   -8.3250   22.0980 C   0  0  0  0  0  3  0  0  0  0  0  0
  -22.5020   -8.0920   21.3540 C   0  0  0  0  0  0  0  0  0  0  0  0
  -22.0760   -9.0570   20.4250 C   0  0  0  0  0  3  0  0  0  0  0  0
  -22.7990  -10.2480   20.2480 C   0  0  0  0  0  3  0  0  0  0  0  0
  -21.7500   -6.9440   21.4400 O   0  0  0  0  0  0  0  0  0  0  0  0
  -21.6900   -6.2070   22.5960 C   0  0  0  0  0  0  0  0  0  0  0  0
  -21.2090   -6.7560   23.8050 C   0  0  0  0  0  3  0  0  0  0  0  0
  -21.0980   -5.9440   24.9510 C   0  0  0  0  0  3  0  0  0  0  0  0
  -21.4580   -4.5850   24.8900 C   0  0  0  0  0  0  0  0  0  0  0  0
  -21.9320   -4.0350   23.6860 C   0  0  0  0  0  3  0  0  0  0  0  0
  -22.0450   -4.8440   22.5420 C   0  0  0  0  0  0  0  0  0  0  0  0
  -22.4810   -4.3050   21.3790 F   0  0  0  0  0  0  0  0  0  0  0  0
  -21.3440   -3.8030   25.9890 F   0  0  0  0  0  0  0  0  0  0  0  0
  -22.8110  -13.5810   21.2180 C   0  0  0  0  0  0  0  0  0  0  0  0
  -22.1160  -12.8730   22.1020 N   0  0  0  0  0  0  0  0  0  0  0  0
  -22.3520  -14.6090   20.7220 O   0  0  0  0  0  0  0  0  0  0  0  0
  -22.5030  -12.0410   22.5240 H   0  0  0  0  0  0  0  0  0  0  0  0
  -21.1850  -13.1660   22.3590 H   0  0  0  0  0  0  0  0  0  0  0  0
  -25.3880  -15.2870   20.3620 N   0  0  0  0  0  0  0  0  0  0  0  0
  -24.6150  -15.9290   20.5070 H   0  0  0  0  0  0  0  0  0  0  0  0
  -26.2070  -15.7370   19.9790 H   0  0  0  0  0  0  0  0  0  0  0  0
  -28.0040  -23.6200   20.0290 C   0  0  0  0  0  2  0  0  0  0  0  0
  -28.2090  -25.4170   20.1810 O   0  0  0  0  0  0  0  0  0  0  0  0
  -24.6970  -31.8050   23.1530 C   0  0  0  0  0  0  0  0  0  0  0  0
  -27.2550  -26.6810   20.1380 C   0  0  0  0  0  0  0  0  0  0  0  0
  -23.5350  -30.4320   21.4780 C   0  0  0  0  0  3  0  0  0  0  0  0
  -25.0020  -28.7820   20.0720 C   0  0  0  0  0  0  0  0  0  0  0  0
  -26.1210  -30.5420   21.4120 C   0  0  0  0  0  2  0  0  0  0  0  0
  -26.1910  -29.1090   20.7340 C   0  0  0  0  0  0  0  0  0  0  0  0
  -27.2970  -28.0890   20.7320 C   0  0  0  0  0  3  0  0  0  0  0  0
  -26.0300  -26.5930   19.4200 C   0  0  0  0  0  3  0  0  0  0  0  0
  -24.9670  -27.5530   19.3910 C   0  0  0  0  0  3  0  0  0  0  0  0
  -23.8000  -29.7480   20.1060 C   0  0  0  0  0  2  0  0  0  0  0  0
  -24.8080  -30.9610   22.0680 N   0  0  0  0  0  0  0  0  0  0  0  0
  -23.5940  -32.1040   23.6460 O   0  0  0  0  0  0  0  0  0  0  0  0
  -22.7930  -29.4510   22.4270 C   0  0  0  0  0  0  0  0  0  0  0  0
  -21.4600  -29.3100   22.2820 N   0  0  0  0  0  0  0  0  0  0  0  0
  -23.4290  -28.8130   23.2680 O   0  0  0  0  0  0  0  0  0  0  0  0
  -20.9940  -29.8730   21.5830 H   0  0  0  0  0  0  0  0  0  0  0  0
  -18.0510  -28.1340   22.7610 C   0  0  0  0  0  0  0  0  0  0  0  0
  -20.6170  -28.3670   23.0290 C   0  0  0  0  0  3  0  0  0  0  0  0
  -20.6980  -26.9460   22.4210 C   0  0  0  0  0  2  0  0  0  0  0  0
  -19.5950  -26.6640   21.3970 C   0  0  0  0  0  2  0  0  0  0  0  0
  -18.2140  -26.8060   22.0440 C   0  0  0  0  0  2  0  0  0  0  0  0
  -19.1790  -28.8750   23.2090 C   0  0  0  0  0  0  0  0  0  0  0  0
  -18.9690  -30.1170   23.8470 C   0  0  0  0  0  3  0  0  0  0  0  0
  -17.6680  -30.6200   24.0370 C   0  0  0  0  0  3  0  0  0  0  0  0
  -16.5570  -29.8770   23.6010 C   0  0  0  0  0  3  0  0  0  0  0  0
  -16.7490  -28.6350   22.9700 C   0  0  0  0  0  3  0  0  0  0  0  0
  -25.9460  -32.4480   23.8280 C   0  0  0  0  0  3  0  0  0  0  0  0
  -25.6160  -33.8440   24.1820 N   0  0  0  0  0  0  0  0  0  0  0  0
  -25.9320  -34.9230   23.4530 C   0  0  0  0  0  0  0  0  0  0  0  0
  -26.5870  -34.8500   22.4120 O   0  0  0  0  0  0  0  0  0  0  0  0
  -25.0290  -33.9730   24.9930 H   0  0  0  0  0  0  0  0  0  0  0  0
  -24.1770  -36.7160   23.2020 C   0  0  0  0  0  1  0  0  0  0  0  0
  -25.4510  -36.3030   23.9560 C   0  0  0  0  0  3  0  0  0  0  0  0
  -27.6000  -37.2050   24.7350 C   0  0  0  0  0  1  0  0  0  0  0  0
  -26.4690  -37.3690   23.8250 N   0  0  0  0  0  0  0  0  0  0  0  0
  -26.0570  -38.2830   23.9940 H   0  0  0  0  0  0  0  0  0  0  0  0
  -26.4180  -31.6710   25.1200 C   0  0  1  0  0  0  0  0  0  0  0  0
  -25.2920  -31.4370   26.1550 C   0  0  0  0  0  1  0  0  0  0  0  0
  -27.0080  -30.2910   24.7560 C   0  0  0  0  0  1  0  0  0  0  0  0
  -27.5530  -32.4580   25.8190 C   0  0  0  0  0  1  0  0  0  0  0  0
  1  5  1  0
  2  5  2  0
  2  7  1  0
  3  2  1  0
  4  1  2  0
  5  8  1  0
  6  3  2  0
  6  4  1  0
  9  6  1  0
 10 18  1  0
 11 16  1  0
 12 13  1  0
 12 11  1  0
 14 13  1  0
 14 23  1  0
 14 15  1  0
 16 10  1  0
 16 15  1  0
 17 10  2  0
 18  4  1  0
 18 19  1  0
 20 21  2  0
 21 40  1  0
 22 21  1  0
 22 25  1  0
 23 24  1  0
 23 20  1  0
 24 22  2  0
 25 26  1  0
 26 27  2  0
 28 31  1  0
 28 27  1  0
 29 28  2  0
 30 29  1  0
 30 25  2  0
 31 32  1  0
 32 33  1  0
 33 34  2  0
 35 34  1  0
 35 39  1  0
 36 35  2  0
 37 32  2  0
 37 36  1  0
 38 37  1  0
 40 41  1  0
 41 44  1  0
 41 43  1  0
 42 40  2  0
 45 46  1  0
 45 20  1  0
 47 45  1  0
 48  3  1  0
 48 49  1  0
 50 61  2  0
 51 49  1  0
 51 56  1  0
 52 60  1  0
 52 62  1  0
 53 59  1  0
 53 55  1  0
 54 60  1  0
 55 54  1  0
 56 55  2  0
 57 51  2  0
 58 57  1  0
 58 53  2  0
 59 52  1  0
 60 50  1  0
 62 64  2  0
 63 62  1  0
 65 63  1  0
 66 75  2  0
 66 71  1  0
 67 63  1  0
 67 71  1  0
 68 67  1  0
 69 70  1  0
 69 68  1  0
 70 66  1  0
 71 72  2  0
 72 73  1  0
 74 73  2  0
 75 74  1  0
 76 50  1  0
 76 77  1  0
 76 86  1  0
 77 80  1  0
 78 82  1  0
 78 77  1  0
 79 78  2  0
 82 81  1  0
 84 82  1  0
 84 85  1  0
 84 83  1  0
 86 89  1  1
 86 87  1  0
 88 86  1  0
M  ISO  4  10 100  18 100  48 101  49 101
M  END
>  <TORSDO>  (24) 
F 17

>  <SCORE>  (24) 
-16.276

>  <name>  (24) 
23

>  <ligand_id>  (24) 
23

>  <original_smiles>  (24) 
[H]c1c([H])c([H])c2c(c1[H])C([H])([H])C([H])([H])C([H])([H])C2([H])N([H])C(=O)C1([H])N(C(=O)C([H])(N([H])C(=O)C([H])(N([H])C([H])([H])[H])C([H])([H])[H])C(C([H])([H])[H])(C([H])([H])[H])C([H])([H])[H])C([H])([H])c2c([H])c(OC([H])([H])c3c(Cl)c(N([H])C(=O)N4C([H])([H])C([H])([H])C([H])([H])C([H])(n5nc(-c6c([H])c([H])c(Oc7c([H])c([H])c(F)c([H])c7F)c([H])c6[H])c(C(=O)N([H])[H])c5N([H])[H])C4([H])[H])c([H])c(Cl)c3C([H])([H])[H])c([H])c([H])c2C1([H])[H]

>  <smiles>  (24) 
[H]c1c([H])c([H])c2c(c1[H])C([H])([H])C([H])([H])C([H])([H])C2([H])N([H])C(=O)C1([H])N(C(=O)C([H])(N([H])C(=O)C([H])(N([H])C([H])([H])[H])C([H])([H])[H])C(C([H])([H])[H])(C([H])([H])[H])C([H])([H])[H])C([H])([H])c2c([H])c(OC([H])([H])c3c(Cl)c(N([H])C(=O)N4C([H])([H])C([H])([H])C([H])([H])C([H])(n5nc(-c6c([H])c([H])c(Oc7c([H])c([H])c(F)c([H])c7F)c([H])c6[H])c(C(=O)N([H])[H])c5N([H])[H])C4([H])[H])c([H])c(Cl)c3C([H])([H])[H])c([H])c([H])c2C1([H])[H]

$$$$
24:0:0
     RDKit          3D

 90 98  0  0  1  0  0  0  0  0999 V2000
  -29.9280  -21.4420   20.5010 C   0  0  0  0  0  3  0  0  0  0  0  0
  -28.2000  -19.5660   19.7020 C   0  0  0  0  0  3  0  0  0  0  0  0
  -28.7000  -22.2370   20.1600 C   0  0  0  0  0  0  0  0  0  0  0  0
  -30.2600  -19.9340   20.4430 C   0  0  0  0  0  0  0  0  0  0  0  0
  -27.8740  -21.0580   19.7330 C   0  0  0  0  0  0  0  0  0  0  0  0
  -29.4060  -18.7720   20.0500 C   0  0  0  0  0  0  0  0  0  0  0  0
  -31.6690  -19.5640   20.8630 C   0  0  0  0  0  1  0  0  0  0  0  0
  -26.4550  -21.3480   19.2580 C   0  0  0  0  0  1  0  0  0  0  0  0
  -30.3460  -15.7410   19.8530 C   0  0  0  0  0  0  0  0  0  0  0  0
  -30.3780  -13.2210   18.9570 C   0  0  0  0  0  2  0  0  0  0  0  0
  -29.3900  -12.8690   17.8070 C   0  0  0  0  0  2  0  0  0  0  0  0
  -27.9950  -12.5270   18.3550 C   0  0  0  0  0  2  0  0  0  0  0  0
  -27.5800  -13.5030   19.4800 C   0  0  0  0  0  3  0  0  0  0  0  0
  -28.6950  -13.7560   20.5190 C   0  0  0  0  0  2  0  0  0  0  0  0
  -29.8270  -14.3770   19.7950 N   0  0  0  0  0  0  0  0  0  0  0  0
  -31.5640  -15.7080   19.5930 O   0  0  0  0  0  0  0  0  0  0  0  0
  -29.5250  -17.0520   19.9950 N   0  0  0  0  0  0  0  0  0  0  0  0
  -28.5850  -16.6950   20.0750 H   0  0  0  0  0  0  0  0  0  0  0  0
  -25.2890  -14.0330   20.4410 C   0  0  0  0  0  0  0  0  0  0  0  0
  -24.2540  -13.2500   20.8680 C   0  0  0  0  0  0  0  0  0  0  0  0
  -24.7080  -11.8990   20.7580 C   0  0  0  0  0  0  0  0  0  0  0  0
  -26.3030  -13.1620   20.0890 N   0  0  0  0  0  0  0  0  0  0  0  0
  -25.9730  -11.8700   20.3470 N   0  0  0  0  0  0  0  0  0  0  0  0
  -23.9850  -10.6370   20.9600 C   0  0  0  0  0  0  0  0  0  0  0  0
  -24.4490   -9.6520   21.8590 C   0  0  0  0  0  3  0  0  0  0  0  0
  -23.7210   -8.4580   22.0540 C   0  0  0  0  0  3  0  0  0  0  0  0
  -22.5130   -8.2400   21.3500 C   0  0  0  0  0  0  0  0  0  0  0  0
  -22.0660   -9.2140   20.4400 C   0  0  0  0  0  3  0  0  0  0  0  0
  -22.7960  -10.3990   20.2430 C   0  0  0  0  0  3  0  0  0  0  0  0
  -21.7550   -7.0980   21.4560 O   0  0  0  0  0  0  0  0  0  0  0  0
  -21.7310   -6.3530   22.6070 C   0  0  0  0  0  0  0  0  0  0  0  0
  -21.3010   -6.8980   23.8380 C   0  0  0  0  0  3  0  0  0  0  0  0
  -21.2250   -6.0790   24.9820 C   0  0  0  0  0  3  0  0  0  0  0  0
  -21.5680   -4.7160   24.8970 C   0  0  0  0  0  0  0  0  0  0  0  0
  -21.9930   -4.1710   23.6730 C   0  0  0  0  0  3  0  0  0  0  0  0
  -22.0700   -4.9870   22.5300 C   0  0  0  0  0  0  0  0  0  0  0  0
  -22.4580   -4.4520   21.3470 F   0  0  0  0  0  0  0  0  0  0  0  0
  -21.4890   -3.9270   25.9930 F   0  0  0  0  0  0  0  0  0  0  0  0
  -22.8840  -13.7300   21.2490 C   0  0  0  0  0  0  0  0  0  0  0  0
  -22.2130  -13.0160   22.1460 N   0  0  0  0  0  0  0  0  0  0  0  0
  -22.4230  -14.7730   20.7910 O   0  0  0  0  0  0  0  0  0  0  0  0
  -22.6010  -12.1710   22.5370 H   0  0  0  0  0  0  0  0  0  0  0  0
  -21.2970  -13.3210   22.4460 H   0  0  0  0  0  0  0  0  0  0  0  0
  -25.4420  -15.4080   20.2860 N   0  0  0  0  0  0  0  0  0  0  0  0
  -24.6720  -16.0480   20.4530 H   0  0  0  0  0  0  0  0  0  0  0  0
  -26.2250  -15.8450   19.8200 H   0  0  0  0  0  0  0  0  0  0  0  0
  -26.7290  -23.9540   21.0870 C   0  0  0  0  0  1  0  0  0  0  0  0
  -29.0470  -24.3040   21.7980 C   0  0  0  0  0  1  0  0  0  0  0  0
  -28.1770  -24.0030   20.5680 C   0  0  1  0  0  0  0  0  0  0  0  0
  -28.2490  -25.6480   19.9770 O   0  0  0  0  0  0  0  0  0  0  0  0
  -24.6110  -31.8370   23.0330 C   0  0  0  0  0  0  0  0  0  0  0  0
  -27.2630  -26.8480   20.0370 C   0  0  0  0  0  0  0  0  0  0  0  0
  -23.4680  -30.4330   21.3750 C   0  0  0  0  0  3  0  0  0  0  0  0
  -24.9610  -28.8300   19.9680 C   0  0  0  0  0  0  0  0  0  0  0  0
  -26.0430  -30.6330   21.2770 C   0  0  0  0  0  2  0  0  0  0  0  0
  -26.1450  -29.2070   20.6160 C   0  0  0  0  0  0  0  0  0  0  0  0
  -27.2870  -28.2460   20.6160 C   0  0  0  0  0  3  0  0  0  0  0  0
  -26.0440  -26.6880   19.3320 C   0  0  0  0  0  3  0  0  0  0  0  0
  -24.9470  -27.5970   19.3020 C   0  0  0  0  0  3  0  0  0  0  0  0
  -23.7350  -29.7560   20.0020 C   0  0  0  0  0  2  0  0  0  0  0  0
  -24.7300  -30.9970   21.9500 N   0  0  0  0  0  0  0  0  0  0  0  0
  -23.5070  -32.1130   23.5350 O   0  0  0  0  0  0  0  0  0  0  0  0
  -22.7650  -29.4280   22.3290 C   0  0  0  0  0  0  0  0  0  0  0  0
  -21.4300  -29.2800   22.2210 N   0  0  0  0  0  0  0  0  0  0  0  0
  -23.4320  -28.7820   23.1420 O   0  0  0  0  0  0  0  0  0  0  0  0
  -20.9420  -29.8530   21.5480 H   0  0  0  0  0  0  0  0  0  0  0  0
  -18.0360  -28.1230   22.8120 C   0  0  0  0  0  0  0  0  0  0  0  0
  -20.6110  -28.3290   22.9840 C   0  0  0  0  0  3  0  0  0  0  0  0
  -20.6560  -26.9200   22.3450 C   0  0  0  0  0  2  0  0  0  0  0  0
  -19.5090  -26.6660   21.3610 C   0  0  0  0  0  2  0  0  0  0  0  0
  -18.1570  -26.8040   22.0660 C   0  0  0  0  0  2  0  0  0  0  0  0
  -19.1870  -28.8450   23.2300 C   0  0  0  0  0  0  0  0  0  0  0  0
  -19.0130  -30.0760   23.8960 C   0  0  0  0  0  3  0  0  0  0  0  0
  -17.7260  -30.5880   24.1430 C   0  0  0  0  0  3  0  0  0  0  0  0
  -16.5920  -29.8620   23.7390 C   0  0  0  0  0  3  0  0  0  0  0  0
  -16.7470  -28.6310   23.0790 C   0  0  0  0  0  3  0  0  0  0  0  0
  -25.8550  -32.5080   23.6890 C   0  0  0  0  0  3  0  0  0  0  0  0
  -25.4950  -33.8950   24.0460 N   0  0  0  0  0  0  0  0  0  0  0  0
  -25.8100  -34.9830   23.3300 C   0  0  0  0  0  0  0  0  0  0  0  0
  -26.4910  -34.9260   22.3040 O   0  0  0  0  0  0  0  0  0  0  0  0
  -24.8820  -34.0080   24.8390 H   0  0  0  0  0  0  0  0  0  0  0  0
  -24.0470  -36.7570   23.0230 C   0  0  0  0  0  1  0  0  0  0  0  0
  -25.2930  -36.3490   23.8260 C   0  0  0  0  0  3  0  0  0  0  0  0
  -27.3960  -37.2630   24.7060 C   0  0  0  0  0  1  0  0  0  0  0  0
  -26.3030  -37.4270   23.7520 N   0  0  0  0  0  0  0  0  0  0  0  0
  -25.8740  -38.3350   23.9150 H   0  0  0  0  0  0  0  0  0  0  0  0
  -26.3640  -31.7390   24.9700 C   0  0  1  0  0  0  0  0  0  0  0  0
  -25.2560  -31.4740   26.0170 C   0  0  0  0  0  1  0  0  0  0  0  0
  -26.9830  -30.3750   24.5930 C   0  0  0  0  0  1  0  0  0  0  0  0
  -27.4860  -32.5510   25.6570 C   0  0  0  0  0  1  0  0  0  0  0  0
  2  5  2  0
  2  6  1  0
  3  1  2  0
  3 49  1  0
  4  1  1  0
  4  7  1  0
  5  3  1  0
  6  4  2  0
  8  5  1  0
  9 17  1  0
 10 15  1  0
 11 12  1  0
 11 10  1  0
 13 12  1  0
 13 22  1  0
 13 14  1  0
 15  9  1  0
 15 14  1  0
 16  9  2  0
 17  6  1  0
 17 18  1  0
 19 20  2  0
 20 39  1  0
 21 20  1  0
 21 24  1  0
 22 23  1  0
 22 19  1  0
 23 21  2  0
 24 25  1  0
 25 26  2  0
 27 30  1  0
 27 26  1  0
 28 27  2  0
 29 28  1  0
 29 24  2  0
 30 31  1  0
 31 32  1  0
 32 33  2  0
 34 33  1  0
 34 38  1  0
 35 34  2  0
 36 31  2  0
 36 35  1  0
 37 36  1  0
 39 40  1  0
 40 43  1  0
 40 42  1  0
 41 39  2  0
 44 19  1  0
 44 45  1  0
 46 44  1  0
 49 47  1  1
 49 48  1  0
 50 52  1  0
 50 49  1  0
 51 62  2  0
 52 57  1  0
 53 61  1  0
 53 63  1  0
 54 60  1  0
 54 56  1  0
 55 61  1  0
 56 57  2  0
 56 55  1  0
 58 52  2  0
 59 58  1  0
 59 54  2  0
 60 53  1  0
 61 51  1  0
 63 65  2  0
 64 63  1  0
 66 64  1  0
 67 76  2  0
 67 72  1  0
 68 64  1  0
 68 72  1  0
 69 68  1  0
 70 71  1  0
 70 69  1  0
 71 67  1  0
 72 73  2  0
 73 74  1  0
 75 74  2  0
 76 75  1  0
 77 51  1  0
 77 78  1  0
 77 87  1  0
 78 81  1  0
 79 83  1  0
 79 78  1  0
 80 79  2  0
 83 82  1  0
 85 83  1  0
 85 86  1  0
 85 84  1  0
 87 90  1  1
 87 88  1  0
 89 87  1  0
M  ISO  4   9 100  17 100  49 101  50 101
M  END
>  <TORSDO>  (25) 
F 17

>  <SCORE>  (25) 
-16.451

>  <name>  (25) 
24

>  <ligand_id>  (25) 
24

>  <original_smiles>  (25) 
[H]c1c([H])c([H])c2c(c1[H])C([H])([H])C([H])([H])C([H])([H])C2([H])N([H])C(=O)C1([H])N(C(=O)C([H])(N([H])C(=O)C([H])(N([H])C([H])([H])[H])C([H])([H])[H])C(C([H])([H])[H])(C([H])([H])[H])C([H])([H])[H])C([H])([H])c2c([H])c(OC(c3c([H])c(C([H])([H])[H])c(N([H])C(=O)N4C([H])([H])C([H])([H])C([H])([H])C([H])(n5nc(-c6c([H])c([H])c(Oc7c([H])c([H])c(F)c([H])c7F)c([H])c6[H])c(C(=O)N([H])[H])c5N([H])[H])C4([H])[H])c([H])c3C([H])([H])[H])(C([H])([H])[H])C([H])([H])[H])c([H])c([H])c2C1([H])[H]

>  <smiles>  (25) 
[H]c1c([H])c([H])c2c(c1[H])C([H])([H])C([H])([H])C([H])([H])C2([H])N([H])C(=O)C1([H])N(C(=O)C([H])(N([H])C(=O)C([H])(N([H])C([H])([H])[H])C([H])([H])[H])C(C([H])([H])[H])(C([H])([H])[H])C([H])([H])[H])C([H])([H])c2c([H])c(OC(c3c([H])c(C([H])([H])[H])c(N([H])C(=O)N4C([H])([H])C([H])([H])C([H])([H])C([H])(n5nc(-c6c([H])c([H])c(Oc7c([H])c([H])c(F)c([H])c7F)c([H])c6[H])c(C(=O)N([H])[H])c5N([H])[H])C4([H])[H])c([H])c3C([H])([H])[H])(C([H])([H])[H])C([H])([H])[H])c([H])c([H])c2C1([H])[H]

$$$$
25:0:0
     RDKit          3D

 89 97  0  0  1  0  0  0  0  0999 V2000
  -28.0980  -19.4270   19.6410 C   0  0  0  0  0  0  0  0  0  0  0  0
  -27.7390  -20.9120   19.6030 C   0  0  0  0  0  0  0  0  0  0  0  0
  -29.2480  -18.7360   20.2730 C   0  0  0  0  0  0  0  0  0  0  0  0
  -28.4750  -22.0870   20.1400 C   0  0  0  0  0  0  0  0  0  0  0  0
  -29.9380  -19.9690   20.7970 C   0  0  0  0  0  0  0  0  0  0  0  0
  -27.1460  -18.4710   18.9240 C   0  0  0  0  0  1  0  0  0  0  0  0
  -26.4100  -21.2640   18.9270 C   0  0  0  0  0  1  0  0  0  0  0  0
  -31.2160  -19.7250   21.5670 C   0  0  0  0  0  1  0  0  0  0  0  0
  -29.5980  -21.4150   20.7370 N   0  0  0  0  0  0  0  0  0  0  0  0
  -30.2710  -15.7140   20.3780 C   0  0  0  0  0  0  0  0  0  0  0  0
  -30.4240  -13.1600   19.6010 C   0  0  0  0  0  2  0  0  0  0  0  0
  -29.5530  -12.7390   18.3820 C   0  0  0  0  0  2  0  0  0  0  0  0
  -28.1190  -12.3920   18.8160 C   0  0  0  0  0  2  0  0  0  0  0  0
  -27.5870  -13.4040   19.8560 C   0  0  0  0  0  3  0  0  0  0  0  0
  -28.5990  -13.7220   20.9810 C   0  0  0  0  0  2  0  0  0  0  0  0
  -29.7800  -14.3380   20.3340 N   0  0  0  0  0  0  0  0  0  0  0  0
  -31.5090  -15.6930   20.2400 O   0  0  0  0  0  0  0  0  0  0  0  0
  -29.4200  -17.0150   20.3720 N   0  0  0  0  0  0  0  0  0  0  0  0
  -28.4860  -16.6350   20.3700 H   0  0  0  0  0  0  0  0  0  0  0  0
  -25.2150  -13.9350   20.5940 C   0  0  0  0  0  0  0  0  0  0  0  0
  -24.1520  -13.1530   20.9440 C   0  0  0  0  0  0  0  0  0  0  0  0
  -24.6220  -11.8040   20.9110 C   0  0  0  0  0  0  0  0  0  0  0  0
  -26.2630  -13.0650   20.3570 N   0  0  0  0  0  0  0  0  0  0  0  0
  -25.9200  -11.7760   20.6160 N   0  0  0  0  0  0  0  0  0  0  0  0
  -23.8930  -10.5410   21.0820 C   0  0  0  0  0  0  0  0  0  0  0  0
  -24.3040   -9.5680   22.0190 C   0  0  0  0  0  3  0  0  0  0  0  0
  -23.5700   -8.3730   22.1800 C   0  0  0  0  0  3  0  0  0  0  0  0
  -22.4090   -8.1430   21.4060 C   0  0  0  0  0  0  0  0  0  0  0  0
  -22.0160   -9.1040   20.4570 C   0  0  0  0  0  3  0  0  0  0  0  0
  -22.7500  -10.2900   20.2940 C   0  0  0  0  0  3  0  0  0  0  0  0
  -21.6470   -7.0010   21.4760 O   0  0  0  0  0  0  0  0  0  0  0  0
  -21.5700   -6.2580   22.6270 C   0  0  0  0  0  0  0  0  0  0  0  0
  -21.0920   -6.8060   23.8370 C   0  0  0  0  0  3  0  0  0  0  0  0
  -20.9630   -5.9900   24.9780 C   0  0  0  0  0  3  0  0  0  0  0  0
  -21.3000   -4.6250   24.9100 C   0  0  0  0  0  0  0  0  0  0  0  0
  -21.7710   -4.0750   23.7050 C   0  0  0  0  0  3  0  0  0  0  0  0
  -21.9020   -4.8900   22.5650 C   0  0  0  0  0  0  0  0  0  0  0  0
  -22.3360   -4.3500   21.4010 F   0  0  0  0  0  0  0  0  0  0  0  0
  -21.1700   -3.8380   26.0040 F   0  0  0  0  0  0  0  0  0  0  0  0
  -22.7500  -13.6290   21.1890 C   0  0  0  0  0  0  0  0  0  0  0  0
  -22.0090  -12.9360   22.0460 N   0  0  0  0  0  0  0  0  0  0  0  0
  -22.3210  -14.6520   20.6570 O   0  0  0  0  0  0  0  0  0  0  0  0
  -22.3690  -12.1080   22.4980 H   0  0  0  0  0  0  0  0  0  0  0  0
  -21.0670  -13.2370   22.2520 H   0  0  0  0  0  0  0  0  0  0  0  0
  -25.3730  -15.3070   20.4230 N   0  0  0  0  0  0  0  0  0  0  0  0
  -24.5950  -15.9500   20.5210 H   0  0  0  0  0  0  0  0  0  0  0  0
  -26.2070  -15.7440   20.0600 H   0  0  0  0  0  0  0  0  0  0  0  0
  -27.8230  -23.8610   20.0660 C   0  0  0  0  0  2  0  0  0  0  0  0
  -28.1620  -25.5720   20.2320 O   0  0  0  0  0  0  0  0  0  0  0  0
  -24.6680  -31.8610   23.1840 C   0  0  0  0  0  0  0  0  0  0  0  0
  -27.2050  -26.7980   20.1820 C   0  0  0  0  0  0  0  0  0  0  0  0
  -23.4830  -30.4670   21.5440 C   0  0  0  0  0  3  0  0  0  0  0  0
  -24.9340  -28.8270   20.1270 C   0  0  0  0  0  0  0  0  0  0  0  0
  -26.0620  -30.6140   21.4240 C   0  0  0  0  0  2  0  0  0  0  0  0
  -26.1300  -29.1830   20.7640 C   0  0  0  0  0  0  0  0  0  0  0  0
  -27.2500  -28.1970   20.7590 C   0  0  0  0  0  3  0  0  0  0  0  0
  -25.9740  -26.6540   19.4900 C   0  0  0  0  0  3  0  0  0  0  0  0
  -24.8960  -27.5890   19.4670 C   0  0  0  0  0  3  0  0  0  0  0  0
  -23.7260  -29.7750   20.1710 C   0  0  0  0  0  2  0  0  0  0  0  0
  -24.7610  -31.0130   22.1040 N   0  0  0  0  0  0  0  0  0  0  0  0
  -23.5750  -32.1590   23.6950 O   0  0  0  0  0  0  0  0  0  0  0  0
  -22.7680  -29.4850   22.5120 C   0  0  0  0  0  0  0  0  0  0  0  0
  -21.4350  -29.3350   22.3910 N   0  0  0  0  0  0  0  0  0  0  0  0
  -23.4240  -28.8570   23.3460 O   0  0  0  0  0  0  0  0  0  0  0  0
  -20.9540  -29.8900   21.6960 H   0  0  0  0  0  0  0  0  0  0  0  0
  -18.0420  -28.1450   22.9220 C   0  0  0  0  0  0  0  0  0  0  0  0
  -20.6060  -28.3990   23.1620 C   0  0  0  0  0  3  0  0  0  0  0  0
  -20.6930  -26.9700   22.5770 C   0  0  0  0  0  2  0  0  0  0  0  0
  -19.5810  -26.6630   21.5690 C   0  0  0  0  0  2  0  0  0  0  0  0
  -18.2060  -26.8040   22.2280 C   0  0  0  0  0  2  0  0  0  0  0  0
  -19.1670  -28.9020   23.3470 C   0  0  0  0  0  0  0  0  0  0  0  0
  -18.9560  -30.1530   23.9640 C   0  0  0  0  0  3  0  0  0  0  0  0
  -17.6530  -30.6510   24.1550 C   0  0  0  0  0  3  0  0  0  0  0  0
  -16.5430  -29.8940   23.7430 C   0  0  0  0  0  3  0  0  0  0  0  0
  -16.7380  -28.6420   23.1340 C   0  0  0  0  0  3  0  0  0  0  0  0
  -25.9310  -32.5130   23.8270 C   0  0  0  0  0  3  0  0  0  0  0  0
  -25.6070  -33.9140   24.1610 N   0  0  0  0  0  0  0  0  0  0  0  0
  -25.9410  -34.9800   23.4210 C   0  0  0  0  0  0  0  0  0  0  0  0
  -26.6110  -34.8880   22.3900 O   0  0  0  0  0  0  0  0  0  0  0  0
  -25.0100  -34.0570   24.9620 H   0  0  0  0  0  0  0  0  0  0  0  0
  -24.2170  -36.7900   23.0970 C   0  0  0  0  0  1  0  0  0  0  0  0
  -25.4600  -36.3680   23.8970 C   0  0  0  0  0  3  0  0  0  0  0  0
  -27.5960  -37.2480   24.7350 C   0  0  0  0  0  1  0  0  0  0  0  0
  -26.4940  -37.4220   23.7930 N   0  0  0  0  0  0  0  0  0  0  0  0
  -26.0890  -38.3410   23.9460 H   0  0  0  0  0  0  0  0  0  0  0  0
  -26.4240  -31.7550   25.1220 C   0  0  1  0  0  0  0  0  0  0  0  0
  -25.3150  -31.5360   26.1790 C   0  0  0  0  0  1  0  0  0  0  0  0
  -27.0060  -30.3680   24.7670 C   0  0  0  0  0  1  0  0  0  0  0  0
  -27.5700  -32.5510   25.7910 C   0  0  0  0  0  1  0  0  0  0  0  0
  1  3  1  0
  2  1  2  0
  2  4  1  0
  3 18  1  0
  3  5  2  0
  4  9  2  0
  5  8  1  0
  6  1  1  0
  7  2  1  0
  9  5  1  0
 11 16  1  0
 12 13  1  0
 12 11  1  0
 14 13  1  0
 14 23  1  0
 14 15  1  0
 16 10  1  0
 16 15  1  0
 17 10  2  0
 18 10  1  0
 19 18  1  0
 20 21  2  0
 21 40  1  0
 22 21  1  0
 22 25  1  0
 23 20  1  0
 23 24  1  0
 24 22  2  0
 25 26  1  0
 26 27  2  0
 28 31  1  0
 28 27  1  0
 29 28  2  0
 30 29  1  0
 30 25  2  0
 31 32  1  0
 32 33  1  0
 33 34  2  0
 35 34  1  0
 35 39  1  0
 36 35  2  0
 37 32  2  0
 37 36  1  0
 38 37  1  0
 40 41  1  0
 41 44  1  0
 41 43  1  0
 42 40  2  0
 45 46  1  0
 45 20  1  0
 47 45  1  0
 48  4  1  0
 48 49  1  0
 50 61  2  0
 51 49  1  0
 51 56  1  0
 52 60  1  0
 52 62  1  0
 53 59  1  0
 53 55  1  0
 54 60  1  0
 55 54  1  0
 56 55  2  0
 57 51  2  0
 58 57  1  0
 58 53  2  0
 59 52  1  0
 60 50  1  0
 62 64  2  0
 63 62  1  0
 65 63  1  0
 66 75  2  0
 66 71  1  0
 67 63  1  0
 67 71  1  0
 68 67  1  0
 69 70  1  0
 69 68  1  0
 70 66  1  0
 71 72  2  0
 72 73  1  0
 74 73  2  0
 75 74  1  0
 76 50  1  0
 76 77  1  0
 76 86  1  0
 77 80  1  0
 78 82  1  0
 78 77  1  0
 79 78  2  0
 82 81  1  0
 84 82  1  0
 84 85  1  0
 84 83  1  0
 86 89  1  1
 86 87  1  0
 88 86  1  0
M  ISO  4  10 100  18 100  48 101  49 101
M  END
>  <TORSDO>  (26) 
F 17

>  <SCORE>  (26) 
-16.616

>  <name>  (26) 
25

>  <ligand_id>  (26) 
25

>  <original_smiles>  (26) 
[H]c1c([H])c([H])c2c(c1[H])C([H])([H])C([H])([H])C([H])([H])C2([H])N([H])C(=O)C1([H])N(C(=O)C([H])(N([H])C(=O)C([H])(N([H])C([H])([H])[H])C([H])([H])[H])C(C([H])([H])[H])(C([H])([H])[H])C([H])([H])[H])C([H])([H])c2c([H])c(OC([H])([H])c3nc(C([H])([H])[H])c(N([H])C(=O)N4C([H])([H])C([H])([H])C([H])([H])C([H])(n5nc(-c6c([H])c([H])c(Oc7c([H])c([H])c(F)c([H])c7F)c([H])c6[H])c(C(=O)N([H])[H])c5N([H])[H])C4([H])[H])c(C([H])([H])[H])c3C([H])([H])[H])c([H])c([H])c2C1([H])[H]

>  <smiles>  (26) 
[H]c1c([H])c([H])c2c(c1[H])C([H])([H])C([H])([H])C([H])([H])C2([H])N([H])C(=O)C1([H])N(C(=O)C([H])(N([H])C(=O)C([H])(N([H])C([H])([H])[H])C([H])([H])[H])C(C([H])([H])[H])(C([H])([H])[H])C([H])([H])[H])C([H])([H])c2c([H])c(OC([H])([H])c3nc(C([H])([H])[H])c(N([H])C(=O)N4C([H])([H])C([H])([H])C([H])([H])C([H])(n5nc(-c6c([H])c([H])c(Oc7c([H])c([H])c(F)c([H])c7F)c([H])c6[H])c(C(=O)N([H])[H])c5N([H])[H])C4([H])[H])c(C([H])([H])[H])c3C([H])([H])[H])c([H])c([H])c2C1([H])[H]

$$$$
26:0:0
     RDKit          3D

100108  0  0  1  0  0  0  0  0999 V2000
  -29.4880  -22.3100   24.3020 C   0  0  0  0  0  2  0  0  0  0  0  0
  -30.6800  -21.3620   24.0480 C   0  0  0  0  0  2  0  0  0  0  0  0
  -30.2730  -19.9150   23.6640 C   0  0  0  0  0  2  0  0  0  0  0  0
  -31.4470  -19.0400   23.1330 C   0  0  0  0  0  2  0  0  0  0  0  0
  -31.5900  -17.4360   21.2380 C   0  0  0  0  0  0  0  0  0  0  0  0
  -31.2900  -19.8420   20.7450 C   0  0  0  0  0  1  0  0  0  0  0  0
  -31.4540  -18.7210   21.6830 N   0  0  0  0  0  0  0  0  0  0  0  0
  -31.6500  -16.4720   22.0090 O   0  0  0  0  0  0  0  0  0  0  0  0
  -32.1650  -14.7260   19.6270 C   0  0  0  0  0  0  0  0  0  0  0  0
  -31.6770  -12.4520   18.8580 C   0  0  0  0  0  2  0  0  0  0  0  0
  -30.6380  -12.4800   17.7150 C   0  0  0  0  0  2  0  0  0  0  0  0
  -29.2020  -12.5370   18.2630 C   0  0  0  0  0  2  0  0  0  0  0  0
  -28.9990  -13.5440   19.4280 C   0  0  0  0  0  3  0  0  0  0  0  0
  -30.1430  -13.4670   20.4640 C   0  0  0  0  0  2  0  0  0  0  0  0
  -31.4140  -13.5980   19.7370 N   0  0  0  0  0  0  0  0  0  0  0  0
  -33.3810  -14.6960   19.4420 O   0  0  0  0  0  0  0  0  0  0  0  0
  -33.2140  -17.5390   17.6480 C   0  0  0  0  0  2  0  0  0  0  0  0
  -31.8800  -17.1230   17.0050 C   0  0  0  0  0  2  0  0  0  0  0  0
  -33.0820  -17.7150   19.1750 C   0  0  0  0  0  2  0  0  0  0  0  0
  -31.2980  -15.8660   17.7030 C   0  0  0  0  0  2  0  0  0  0  0  0
  -31.7160  -17.1860   19.7120 C   0  0  0  0  0  3  0  0  0  0  0  0
  -31.4780  -15.8160   19.1870 N   0  0  0  0  0  0  0  0  0  0  0  0
  -26.7770  -14.3370   20.4500 C   0  0  0  0  0  0  0  0  0  0  0  0
  -25.6590  -13.6590   20.8440 C   0  0  0  0  0  0  0  0  0  0  0  0
  -25.9450  -12.2740   20.6440 C   0  0  0  0  0  0  0  0  0  0  0  0
  -27.6830  -13.3750   20.0380 N   0  0  0  0  0  0  0  0  0  0  0  0
  -27.1900  -12.1210   20.2140 N   0  0  0  0  0  0  0  0  0  0  0  0
  -25.0950  -11.0880   20.7840 C   0  0  0  0  0  0  0  0  0  0  0  0
  -25.4590  -10.0130   21.6260 C   0  0  0  0  0  3  0  0  0  0  0  0
  -24.6140   -8.8920   21.7590 C   0  0  0  0  0  3  0  0  0  0  0  0
  -23.3910   -8.8370   21.0500 C   0  0  0  0  0  0  0  0  0  0  0  0
  -23.0450   -9.8970   20.1940 C   0  0  0  0  0  3  0  0  0  0  0  0
  -23.8890  -11.0120   20.0580 C   0  0  0  0  0  3  0  0  0  0  0  0
  -22.5210   -7.7740   21.0950 O   0  0  0  0  0  0  0  0  0  0  0  0
  -22.1860   -7.1710   22.2800 C   0  0  0  0  0  0  0  0  0  0  0  0
  -21.7010   -7.9100   23.3810 C   0  0  0  0  0  3  0  0  0  0  0  0
  -21.3040   -7.2430   24.5570 C   0  0  0  0  0  3  0  0  0  0  0  0
  -21.3810   -5.8400   24.6310 C   0  0  0  0  0  0  0  0  0  0  0  0
  -21.8570   -5.1010   23.5320 C   0  0  0  0  0  3  0  0  0  0  0  0
  -22.2570   -5.7650   22.3610 C   0  0  0  0  0  0  0  0  0  0  0  0
  -22.6980   -5.0490   21.2990 F   0  0  0  0  0  0  0  0  0  0  0  0
  -20.9920   -5.1960   25.7570 F   0  0  0  0  0  0  0  0  0  0  0  0
  -24.3590  -14.2590   21.2940 C   0  0  0  0  0  0  0  0  0  0  0  0
  -23.6420  -13.5750   22.1760 N   0  0  0  0  0  0  0  0  0  0  0  0
  -23.9960  -15.3680   20.8970 O   0  0  0  0  0  0  0  0  0  0  0  0
  -23.9470  -12.6710   22.5040 H   0  0  0  0  0  0  0  0  0  0  0  0
  -22.7730  -13.9580   22.5250 H   0  0  0  0  0  0  0  0  0  0  0  0
  -27.0910  -15.6920   20.3800 N   0  0  0  0  0  0  0  0  0  0  0  0
  -26.4180  -16.4090   20.6230 H   0  0  0  0  0  0  0  0  0  0  0  0
  -27.9590  -16.0630   20.0130 H   0  0  0  0  0  0  0  0  0  0  0  0
  -28.9880  -23.1230   23.0860 C   0  0  0  0  0  2  0  0  0  0  0  0
  -29.8920  -24.3400   22.7250 C   0  0  0  0  0  2  0  0  0  0  0  0
  -27.9910  -25.8090   22.2260 C   0  0  0  0  0  1  0  0  0  0  0  0
  -29.3010  -25.2890   21.7280 N   0  0  2  0  0  4  0  0  0  0  0  0
  -29.9100  -26.0950   21.7940 H   0  0  0  0  0  0  0  0  0  0  0  0
  -30.5030  -23.9040   19.9360 C   0  0  0  0  0  1  0  0  0  0  0  0
  -28.0730  -24.2480   19.7540 C   0  0  0  0  0  1  0  0  0  0  0  0
  -29.3780  -24.9280   20.2530 C   0  0  1  0  0  0  0  0  0  0  0  0
  -29.7560  -26.1880   19.3840 C   0  0  0  0  0  2  0  0  0  0  0  0
  -29.4460  -27.4800   19.9130 O   0  0  0  0  0  0  0  0  0  0  0  0
  -24.6690  -31.5810   23.1050 C   0  0  0  0  0  0  0  0  0  0  0  0
  -28.1850  -28.0120   19.7860 C   0  0  0  0  0  0  0  0  0  0  0  0
  -23.8100  -30.2080   21.2350 C   0  0  0  0  0  3  0  0  0  0  0  0
  -25.5790  -29.0950   19.7770 C   0  0  0  0  0  0  0  0  0  0  0  0
  -26.2500  -30.9790   21.2790 C   0  0  0  0  0  2  0  0  0  0  0  0
  -26.5950  -29.7250   20.5060 C   0  0  0  0  0  0  0  0  0  0  0  0
  -27.8970  -29.1840   20.5140 C   0  0  0  0  0  3  0  0  0  0  0  0
  -27.1590  -27.4110   19.0210 C   0  0  0  0  0  3  0  0  0  0  0  0
  -25.8530  -27.9300   19.0410 C   0  0  0  0  0  3  0  0  0  0  0  0
  -24.2110  -29.7330   19.8120 C   0  0  0  0  0  2  0  0  0  0  0  0
  -24.9220  -30.9340   21.9340 N   0  0  0  0  0  0  0  0  0  0  0  0
  -23.5270  -31.6170   23.5850 O   0  0  0  0  0  0  0  0  0  0  0  0
  -23.2800  -28.9930   22.0300 C   0  0  0  0  0  0  0  0  0  0  0  0
  -21.9910  -28.6730   21.8360 N   0  0  0  0  0  0  0  0  0  0  0  0
  -24.0250  -28.3480   22.7740 O   0  0  0  0  0  0  0  0  0  0  0  0
  -21.4470  -29.2590   21.2180 H   0  0  0  0  0  0  0  0  0  0  0  0
  -18.7580  -27.0910   22.1430 C   0  0  0  0  0  0  0  0  0  0  0  0
  -21.2840  -27.5460   22.4470 C   0  0  0  0  0  3  0  0  0  0  0  0
  -21.5110  -26.2420   21.6460 C   0  0  0  0  0  2  0  0  0  0  0  0
  -20.4280  -25.9820   20.5940 C   0  0  0  0  0  2  0  0  0  0  0  0
  -19.0510  -25.8890   21.2590 C   0  0  0  0  0  2  0  0  0  0  0  0
  -19.8060  -27.8770   22.6880 C   0  0  0  0  0  0  0  0  0  0  0  0
  -19.4800  -29.0020   23.4760 C   0  0  0  0  0  3  0  0  0  0  0  0
  -18.1370  -29.3460   23.7180 C   0  0  0  0  0  3  0  0  0  0  0  0
  -17.1030  -28.5540   23.1920 C   0  0  0  0  0  3  0  0  0  0  0  0
  -17.4140  -27.4270   22.4110 C   0  0  0  0  0  3  0  0  0  0  0  0
  -25.7960  -32.3270   23.8860 C   0  0  0  0  0  3  0  0  0  0  0  0
  -26.2230  -31.5900   25.2160 C   0  0  1  0  0  0  0  0  0  0  0  0
  -25.0330  -31.2230   26.1320 C   0  0  0  0  0  1  0  0  0  0  0  0
  -26.9950  -30.2850   24.9040 C   0  0  0  0  0  1  0  0  0  0  0  0
  -27.1880  -32.4880   26.0200 C   0  0  0  0  0  1  0  0  0  0  0  0
  -25.3120  -33.6840   24.1720 N   0  0  0  0  0  0  0  0  0  0  0  0
  -25.6340  -34.7710   23.4580 C   0  0  0  0  0  0  0  0  0  0  0  0
  -26.4360  -34.7450   22.5200 O   0  0  0  0  0  0  0  0  0  0  0  0
  -24.6080  -33.7710   24.8900 H   0  0  0  0  0  0  0  0  0  0  0  0
  -23.7890  -36.3810   22.8830 C   0  0  0  0  0  1  0  0  0  0  0  0
  -24.9550  -36.1010   23.8440 C   0  0  0  0  0  3  0  0  0  0  0  0
  -26.8680  -37.2000   24.9280 C   0  0  0  0  0  1  0  0  0  0  0  0
  -25.8810  -37.2540   23.8510 N   0  0  0  0  0  0  0  0  0  0  0  0
  -25.3670  -38.1280   23.9360 H   0  0  0  0  0  0  0  0  0  0  0  0
  2  1  1  0
  3  2  1  0
  4  3  1  0
  5  7  1  0
  5  8  2  0
  6  7  1  0
  7  4  1  0
  9 15  1  0
 10 15  1  0
 11 12  1  0
 11 10  1  0
 13 12  1  0
 13 26  1  0
 13 14  1  0
 15 14  1  0
 16  9  2  0
 17 19  1  0
 18 17  1  0
 18 20  1  0
 19 21  1  0
 20 22  1  0
 21  5  1  0
 22  9  1  0
 22 21  1  0
 23 24  2  0
 24 43  1  0
 25 28  1  0
 25 24  1  0
 26 27  1  0
 26 23  1  0
 27 25  2  0
 28 29  1  0
 29 30  2  0
 31 34  1  0
 31 30  1  0
 32 31  2  0
 33 32  1  0
 33 28  2  0
 34 35  1  0
 35 40  2  0
 35 36  1  0
 36 37  2  0
 37 38  1  0
 38 42  1  0
 39 38  2  0
 40 39  1  0
 41 40  1  0
 43 44  1  0
 44 46  1  0
 44 47  1  0
 45 43  2  0
 48 23  1  0
 48 49  1  0
 50 48  1  0
 51  1  1  0
 52 51  1  0
 54 55  1  6
 54 53  1  0
 54 52  1  0
 58 56  1  1
 57 58  1  0
 58 54  1  0
 59 60  1  0
 59 58  1  0
 61 72  2  0
 62 60  1  0
 62 67  1  0
 63 71  1  0
 63 73  1  0
 64 70  1  0
 64 66  1  0
 65 71  1  0
 66 67  2  0
 66 65  1  0
 68 69  1  0
 68 62  2  0
 69 64  2  0
 70 63  1  0
 71 61  1  0
 73 75  2  0
 74 73  1  0
 76 74  1  0
 77 86  2  0
 77 82  1  0
 78 74  1  0
 78 82  1  0
 79 78  1  0
 80 81  1  0
 80 79  1  0
 81 77  1  0
 82 83  2  0
 83 84  1  0
 85 84  2  0
 86 85  1  0
 87 61  1  0
 87 92  1  0
 87 88  1  0
 88 91  1  1
 88 89  1  0
 90 88  1  0
 92 95  1  0
 93 97  1  0
 93 92  1  0
 94 93  2  0
 97 96  1  0
 97 99  1  0
 99100  1  0
 99 98  1  0
M  ISO  4   9 100  22 100  59 101  60 101
M  END
>  <TORSDO>  (27) 
F 25

>  <SCORE>  (27) 
-7.513

>  <name>  (27) 
26

>  <ligand_id>  (27) 
26

>  <original_smiles>  (27) 
[H]c1c([H])c([H])c2c(c1[H])C([H])([H])C([H])([H])C([H])([H])C2([H])N([H])C(=O)C1([H])N(C(=O)C([H])(N([H])C(=O)C([H])(N([H])C([H])([H])[H])C([H])([H])[H])C(C([H])([H])[H])(C([H])([H])[H])C([H])([H])[H])C([H])([H])c2c([H])c(OC([H])([H])C(C([H])([H])[H])(C([H])([H])[H])[N+]([H])(C([H])([H])[H])C([H])([H])C([H])([H])C([H])([H])C([H])([H])C([H])([H])C([H])([H])N(C(=O)C3([H])N(C(=O)N4C([H])([H])C([H])([H])C([H])([H])C([H])(n5nc(-c6c([H])c([H])c(Oc7c([H])c([H])c(F)c([H])c7F)c([H])c6[H])c(C(=O)N([H])[H])c5N([H])[H])C4([H])[H])C([H])([H])C([H])([H])C([H])([H])C3([H])[H])C([H])([H])[H])c([H])c([H])c2C1([H])[H]

>  <smiles>  (27) 
[H]c1c([H])c([H])c2c(c1[H])C([H])([H])C([H])([H])C([H])([H])C2([H])N([H])C(=O)C1([H])N(C(=O)C([H])(N([H])C(=O)C([H])(N([H])C([H])([H])[H])C([H])([H])[H])C(C([H])([H])[H])(C([H])([H])[H])C([H])([H])[H])C([H])([H])c2c([H])c(OC([H])([H])C(C([H])([H])[H])(C([H])([H])[H])[N+]([H])(C([H])([H])[H])C([H])([H])C([H])([H])C([H])([H])C([H])([H])C([H])([H])C([H])([H])N(C(=O)C3([H])N(C(=O)N4C([H])([H])C([H])([H])C([H])([H])C([H])(n5nc(-c6c([H])c([H])c(Oc7c([H])c([H])c(F)c([H])c7F)c([H])c6[H])c(C(=O)N([H])[H])c5N([H])[H])C4([H])[H])C([H])([H])C([H])([H])C([H])([H])C3([H])[H])C([H])([H])[H])c([H])c([H])c2C1([H])[H]

$$$$
27:0:0
     RDKit          3D

 90 98  0  0  1  0  0  0  0  0999 V2000
  -29.7850  -21.4240   20.7300 C   0  0  0  0  0  0  0  0  0  0  0  0
  -28.1370  -20.9530   19.2630 C   0  0  0  0  0  0  0  0  0  0  0  0
  -28.7090  -22.1400   19.9740 C   0  0  0  0  0  0  0  0  0  0  0  0
  -30.1620  -19.9190   20.7600 C   0  0  0  0  0  0  0  0  0  0  0  0
  -28.5310  -19.4690   19.2700 C   0  0  0  0  0  0  0  0  0  0  0  0
  -29.5880  -18.7450   20.0230 C   0  0  0  0  0  0  0  0  0  0  0  0
  -30.5910  -22.3500   21.6280 C   0  0  0  0  0  1  0  0  0  0  0  0
  -26.9150  -21.2930   18.4080 C   0  0  0  0  0  1  0  0  0  0  0  0
  -31.2770  -19.5270   21.7210 C   0  0  0  0  0  1  0  0  0  0  0  0
  -27.7080  -18.5340   18.3870 C   0  0  0  0  0  1  0  0  0  0  0  0
  -30.4490  -15.7040   19.8690 C   0  0  0  0  0  0  0  0  0  0  0  0
  -30.4790  -13.1930   18.9310 C   0  0  0  0  0  2  0  0  0  0  0  0
  -29.4810  -12.8590   17.7810 C   0  0  0  0  0  2  0  0  0  0  0  0
  -28.0860  -12.5080   18.3220 C   0  0  0  0  0  2  0  0  0  0  0  0
  -27.6880  -13.4480   19.4820 C   0  0  0  0  0  3  0  0  0  0  0  0
  -28.8200  -13.6300   20.5190 C   0  0  0  0  0  2  0  0  0  0  0  0
  -29.9380  -14.3230   19.8200 N   0  0  0  0  0  0  0  0  0  0  0  0
  -31.6280  -15.6770   19.4630 O   0  0  0  0  0  0  0  0  0  0  0  0
  -28.8090  -16.7480   21.3590 C   0  0  0  0  0  1  0  0  0  0  0  0
  -29.7070  -17.0360   20.2420 N   0  0  0  0  0  0  0  0  0  0  0  0
  -25.3970  -13.9670   20.4570 C   0  0  0  0  0  0  0  0  0  0  0  0
  -24.3630  -13.1810   20.8740 C   0  0  0  0  0  0  0  0  0  0  0  0
  -24.8070  -11.8310   20.7280 C   0  0  0  0  0  0  0  0  0  0  0  0
  -26.4070  -13.1010   20.0820 N   0  0  0  0  0  0  0  0  0  0  0  0
  -26.0700  -11.8040   20.3080 N   0  0  0  0  0  0  0  0  0  0  0  0
  -24.0760  -10.5700   20.9070 C   0  0  0  0  0  0  0  0  0  0  0  0
  -24.4930   -9.5980   21.8430 C   0  0  0  0  0  3  0  0  0  0  0  0
  -23.7570   -8.4050   22.0120 C   0  0  0  0  0  3  0  0  0  0  0  0
  -22.5910   -8.1750   21.2450 C   0  0  0  0  0  0  0  0  0  0  0  0
  -22.1930   -9.1340   20.2970 C   0  0  0  0  0  3  0  0  0  0  0  0
  -22.9290  -10.3190   20.1260 C   0  0  0  0  0  3  0  0  0  0  0  0
  -21.8300   -7.0340   21.3220 O   0  0  0  0  0  0  0  0  0  0  0  0
  -21.6580   -6.3620   22.5070 C   0  0  0  0  0  0  0  0  0  0  0  0
  -21.0790   -6.9810   23.6360 C   0  0  0  0  0  3  0  0  0  0  0  0
  -20.8570   -6.2360   24.8110 C   0  0  0  0  0  3  0  0  0  0  0  0
  -21.2030   -4.8710   24.8550 C   0  0  0  0  0  0  0  0  0  0  0  0
  -21.7740   -4.2520   23.7300 C   0  0  0  0  0  3  0  0  0  0  0  0
  -21.9970   -4.9960   22.5580 C   0  0  0  0  0  0  0  0  0  0  0  0
  -22.5280   -4.3890   21.4690 F   0  0  0  0  0  0  0  0  0  0  0  0
  -20.9830   -4.1520   25.9810 F   0  0  0  0  0  0  0  0  0  0  0  0
  -23.0000  -13.6590   21.2840 C   0  0  0  0  0  0  0  0  0  0  0  0
  -22.3350  -12.9290   22.1700 N   0  0  0  0  0  0  0  0  0  0  0  0
  -22.5400  -14.7170   20.8540 O   0  0  0  0  0  0  0  0  0  0  0  0
  -22.7250  -12.0730   22.5380 H   0  0  0  0  0  0  0  0  0  0  0  0
  -21.4250  -13.2300   22.4870 H   0  0  0  0  0  0  0  0  0  0  0  0
  -25.5500  -15.3440   20.3310 N   0  0  0  0  0  0  0  0  0  0  0  0
  -24.7940  -15.9880   20.5390 H   0  0  0  0  0  0  0  0  0  0  0  0
  -26.3590  -15.7970   19.9310 H   0  0  0  0  0  0  0  0  0  0  0  0
  -27.9990  -23.8800   19.8870 C   0  0  0  0  0  2  0  0  0  0  0  0
  -28.2720  -25.5780   20.1840 O   0  0  0  0  0  0  0  0  0  0  0  0
  -24.6640  -31.8000   23.0950 C   0  0  0  0  0  0  0  0  0  0  0  0
  -27.2990  -26.7840   20.1120 C   0  0  0  0  0  0  0  0  0  0  0  0
  -23.5140  -30.3970   21.4370 C   0  0  0  0  0  3  0  0  0  0  0  0
  -25.0010  -28.7760   20.0360 C   0  0  0  0  0  0  0  0  0  0  0  0
  -26.0920  -30.5760   21.3490 C   0  0  0  0  0  2  0  0  0  0  0  0
  -26.1840  -29.1480   20.6860 C   0  0  0  0  0  0  0  0  0  0  0  0
  -27.3170  -28.1800   20.6930 C   0  0  0  0  0  3  0  0  0  0  0  0
  -26.0790  -26.6190   19.4050 C   0  0  0  0  0  3  0  0  0  0  0  0
  -24.9860  -27.5380   19.3720 C   0  0  0  0  0  3  0  0  0  0  0  0
  -23.7800  -29.7090   20.0670 C   0  0  0  0  0  2  0  0  0  0  0  0
  -24.7790  -30.9570   22.0130 N   0  0  0  0  0  0  0  0  0  0  0  0
  -23.5610  -32.0850   23.5920 O   0  0  0  0  0  0  0  0  0  0  0  0
  -22.7970  -29.4060   22.3950 C   0  0  0  0  0  0  0  0  0  0  0  0
  -21.4620  -29.2640   22.2740 N   0  0  0  0  0  0  0  0  0  0  0  0
  -23.4530  -28.7630   23.2170 O   0  0  0  0  0  0  0  0  0  0  0  0
  -20.9830  -29.8330   21.5900 H   0  0  0  0  0  0  0  0  0  0  0  0
  -18.0610  -28.1110   22.8310 C   0  0  0  0  0  0  0  0  0  0  0  0
  -20.6330  -28.3200   23.0350 C   0  0  0  0  0  3  0  0  0  0  0  0
  -20.6890  -26.9050   22.4130 C   0  0  0  0  0  2  0  0  0  0  0  0
  -19.5570  -26.6390   21.4160 C   0  0  0  0  0  2  0  0  0  0  0  0
  -18.1940  -26.7850   22.1000 C   0  0  0  0  0  2  0  0  0  0  0  0
  -19.2050  -28.8400   23.2550 C   0  0  0  0  0  0  0  0  0  0  0  0
  -19.0220  -30.0790   23.9050 C   0  0  0  0  0  3  0  0  0  0  0  0
  -17.7300  -30.5920   24.1300 C   0  0  0  0  0  3  0  0  0  0  0  0
  -16.6020  -29.8620   23.7170 C   0  0  0  0  0  3  0  0  0  0  0  0
  -16.7690  -28.6220   23.0740 C   0  0  0  0  0  3  0  0  0  0  0  0
  -25.9120  -32.4630   23.7550 C   0  0  0  0  0  3  0  0  0  0  0  0
  -25.5600  -33.8490   24.1180 N   0  0  0  0  0  0  0  0  0  0  0  0
  -25.8560  -34.9360   23.3930 C   0  0  0  0  0  0  0  0  0  0  0  0
  -26.5120  -34.8780   22.3500 O   0  0  0  0  0  0  0  0  0  0  0  0
  -24.9730  -33.9640   24.9310 H   0  0  0  0  0  0  0  0  0  0  0  0
  -24.0740  -36.7000   23.1400 C   0  0  0  0  0  1  0  0  0  0  0  0
  -25.3490  -36.3030   23.9010 C   0  0  0  0  0  3  0  0  0  0  0  0
  -27.4770  -37.2370   24.7000 C   0  0  0  0  0  1  0  0  0  0  0  0
  -26.3510  -37.3870   23.7840 N   0  0  0  0  0  0  0  0  0  0  0  0
  -25.9220  -38.2920   23.9550 H   0  0  0  0  0  0  0  0  0  0  0  0
  -26.4170  -31.6870   25.0350 C   0  0  1  0  0  0  0  0  0  0  0  0
  -25.3080  -31.4160   26.0800 C   0  0  0  0  0  1  0  0  0  0  0  0
  -27.0350  -30.3240   24.6520 C   0  0  0  0  0  1  0  0  0  0  0  0
  -27.5400  -32.4960   25.7270 C   0  0  0  0  0  1  0  0  0  0  0  0
  1  4  1  0
  1  7  1  0
  2  5  2  0
  2  3  1  0
  3  1  2  0
  4  9  1  0
  5  6  1  0
  6 20  1  0
  6  4  2  0
  8  2  1  0
 10  5  1  0
 11 20  1  0
 12 17  1  0
 13 14  1  0
 13 12  1  0
 15 14  1  0
 15 24  1  0
 15 16  1  0
 17 11  1  0
 17 16  1  0
 18 11  2  0
 20 19  1  0
 21 22  2  0
 22 41  1  0
 23 22  1  0
 23 26  1  0
 24 25  1  0
 24 21  1  0
 25 23  2  0
 26 27  1  0
 27 28  2  0
 29 32  1  0
 29 28  1  0
 30 29  2  0
 31 30  1  0
 31 26  2  0
 32 33  1  0
 33 38  2  0
 33 34  1  0
 34 35  2  0
 35 36  1  0
 36 40  1  0
 37 36  2  0
 38 37  1  0
 39 38  1  0
 41 42  1  0
 42 45  1  0
 42 44  1  0
 43 41  2  0
 46 21  1  0
 46 47  1  0
 48 46  1  0
 49  3  1  0
 49 50  1  0
 51 62  2  0
 52 50  1  0
 52 57  1  0
 53 61  1  0
 53 63  1  0
 54 60  1  0
 54 56  1  0
 55 61  1  0
 56 57  2  0
 56 55  1  0
 58 52  2  0
 59 58  1  0
 59 54  2  0
 60 53  1  0
 61 51  1  0
 63 65  2  0
 64 63  1  0
 66 64  1  0
 67 76  2  0
 67 72  1  0
 68 64  1  0
 68 72  1  0
 69 68  1  0
 70 71  1  0
 70 69  1  0
 71 67  1  0
 72 73  2  0
 73 74  1  0
 75 74  2  0
 76 75  1  0
 77 51  1  0
 77 78  1  0
 77 87  1  0
 78 81  1  0
 79 83  1  0
 79 78  1  0
 80 79  2  0
 83 82  1  0
 85 83  1  0
 85 86  1  0
 85 84  1  0
 87 90  1  1
 87 88  1  0
 89 87  1  0
M  ISO  4  11 100  20 100  49 101  50 101
M  END
>  <TORSDO>  (28) 
F 17

>  <SCORE>  (28) 
-16.426

>  <name>  (28) 
27

>  <ligand_id>  (28) 
27

>  <original_smiles>  (28) 
[H]c1c([H])c([H])c2c(c1[H])C([H])([H])C([H])([H])C([H])([H])C2([H])N([H])C(=O)C1([H])N(C(=O)C([H])(N([H])C(=O)C([H])(N([H])C([H])([H])[H])C([H])([H])[H])C(C([H])([H])[H])(C([H])([H])[H])C([H])([H])[H])C([H])([H])c2c([H])c(OC([H])([H])c3c(C([H])([H])[H])c(C([H])([H])[H])c(N(C(=O)N4C([H])([H])C([H])([H])C([H])([H])C([H])(n5nc(-c6c([H])c([H])c(Oc7c([H])c([H])c(F)c([H])c7F)c([H])c6[H])c(C(=O)N([H])[H])c5N([H])[H])C4([H])[H])C([H])([H])[H])c(C([H])([H])[H])c3C([H])([H])[H])c([H])c([H])c2C1([H])[H]

>  <smiles>  (28) 
[H]c1c([H])c([H])c2c(c1[H])C([H])([H])C([H])([H])C([H])([H])C2([H])N([H])C(=O)C1([H])N(C(=O)C([H])(N([H])C(=O)C([H])(N([H])C([H])([H])[H])C([H])([H])[H])C(C([H])([H])[H])(C([H])([H])[H])C([H])([H])[H])C([H])([H])c2c([H])c(OC([H])([H])c3c(C([H])([H])[H])c(C([H])([H])[H])c(N(C(=O)N4C([H])([H])C([H])([H])C([H])([H])C([H])(n5nc(-c6c([H])c([H])c(Oc7c([H])c([H])c(F)c([H])c7F)c([H])c6[H])c(C(=O)N([H])[H])c5N([H])[H])C4([H])[H])C([H])([H])[H])c(C([H])([H])[H])c3C([H])([H])[H])c([H])c([H])c2C1([H])[H]

$$$$
28:0:0
     RDKit          3D

 91 99  0  0  1  0  0  0  0  0999 V2000
  -27.8900  -20.8360   20.6680 C   0  0  0  0  0  3  0  0  0  0  0  0
  -27.3820  -19.5260   20.7400 C   0  0  0  0  0  3  0  0  0  0  0  0
  -29.2210  -21.0760   20.2800 C   0  0  0  0  0  0  0  0  0  0  0  0
  -29.5000  -18.5420   19.9520 C   0  0  0  0  0  0  0  0  0  0  0  0
  -28.1680  -18.3970   20.4240 C   0  0  0  0  0  0  0  0  0  0  0  0
  -30.0070  -19.9090   19.9050 C   0  0  0  0  0  0  0  0  0  0  0  0
  -27.4460  -16.8560   20.7120 Cl  0  0  0  0  0  0  0  0  0  0  0  0
  -31.6550  -20.1470   19.4350 Cl  0  0  0  0  0  0  0  0  0  0  0  0
  -29.7790  -22.5520   20.4670 C   0  0  0  0  0  2  0  0  0  0  0  0
  -29.0170  -23.8700   19.9240 C   0  0  0  0  0  2  0  0  0  0  0  0
  -29.0410  -25.2070   20.8220 C   0  0  0  0  0  2  0  0  0  0  0  0
  -28.9850  -26.5820   20.2630 O   0  0  0  0  0  0  0  0  0  0  0  0
  -24.6220  -31.6050   23.1410 C   0  0  0  0  0  0  0  0  0  0  0  0
  -27.7800  -27.2970   20.2500 C   0  0  0  0  0  0  0  0  0  0  0  0
  -23.6310  -30.1090   21.4420 C   0  0  0  0  0  3  0  0  0  0  0  0
  -25.2840  -28.6840   20.1060 C   0  0  0  0  0  0  0  0  0  0  0  0
  -26.1360  -30.6510   21.3860 C   0  0  0  0  0  2  0  0  0  0  0  0
  -26.3720  -29.2820   20.7550 C   0  0  0  0  0  0  0  0  0  0  0  0
  -27.6260  -28.6030   20.8110 C   0  0  0  0  0  3  0  0  0  0  0  0
  -26.6690  -26.7380   19.5900 C   0  0  0  0  0  3  0  0  0  0  0  0
  -25.4340  -27.4180   19.5140 C   0  0  0  0  0  3  0  0  0  0  0  0
  -23.9760  -29.4500   20.0800 C   0  0  0  0  0  2  0  0  0  0  0  0
  -24.8100  -30.8080   22.0480 N   0  0  0  0  0  0  0  0  0  0  0  0
  -23.4920  -31.7850   23.6190 O   0  0  0  0  0  0  0  0  0  0  0  0
  -23.0090  -29.0390   22.3710 C   0  0  0  0  0  0  0  0  0  0  0  0
  -21.7130  -28.7450   22.1730 N   0  0  0  0  0  0  0  0  0  0  0  0
  -23.6940  -28.4760   23.2290 O   0  0  0  0  0  0  0  0  0  0  0  0
  -21.2160  -29.2560   21.4570 H   0  0  0  0  0  0  0  0  0  0  0  0
  -18.4240  -27.2810   22.5190 C   0  0  0  0  0  0  0  0  0  0  0  0
  -20.9400  -27.7370   22.9010 C   0  0  0  0  0  3  0  0  0  0  0  0
  -21.1790  -26.3250   22.3180 C   0  0  0  0  0  2  0  0  0  0  0  0
  -20.1490  -25.9280   21.2550 C   0  0  0  0  0  2  0  0  0  0  0  0
  -18.7340  -25.9570   21.8400 C   0  0  0  0  0  2  0  0  0  0  0  0
  -19.4590  -28.1240   23.0020 C   0  0  0  0  0  0  0  0  0  0  0  0
  -19.1160  -29.3590   23.5940 C   0  0  0  0  0  3  0  0  0  0  0  0
  -17.7700  -29.7540   23.7080 C   0  0  0  0  0  3  0  0  0  0  0  0
  -16.7480  -28.9090   23.2420 C   0  0  0  0  0  3  0  0  0  0  0  0
  -17.0760  -27.6750   22.6530 C   0  0  0  0  0  3  0  0  0  0  0  0
  -25.8110  -32.3440   23.8290 C   0  0  0  0  0  3  0  0  0  0  0  0
  -26.2870  -31.6480   25.1630 C   0  0  1  0  0  0  0  0  0  0  0  0
  -25.1380  -31.3470   26.1530 C   0  0  0  0  0  1  0  0  0  0  0  0
  -27.0070  -30.3140   24.8570 C   0  0  0  0  0  1  0  0  0  0  0  0
  -27.3160  -32.5490   25.8860 C   0  0  0  0  0  1  0  0  0  0  0  0
  -25.3840  -33.7260   24.0910 N   0  0  0  0  0  0  0  0  0  0  0  0
  -25.6810  -34.7760   23.3150 C   0  0  0  0  0  0  0  0  0  0  0  0
  -26.4130  -34.6890   22.3240 O   0  0  0  0  0  0  0  0  0  0  0  0
  -24.7360  -33.8600   24.8540 H   0  0  0  0  0  0  0  0  0  0  0  0
  -23.8470  -36.4230   22.8120 C   0  0  0  0  0  1  0  0  0  0  0  0
  -25.0710  -36.1390   23.6960 C   0  0  0  0  0  3  0  0  0  0  0  0
  -27.0890  -37.2100   24.5980 C   0  0  0  0  0  1  0  0  0  0  0  0
  -26.0290  -37.2610   23.5940 N   0  0  0  0  0  0  0  0  0  0  0  0
  -25.5500  -38.1540   23.6830 H   0  0  0  0  0  0  0  0  0  0  0  0
  -30.4110  -17.2830   19.5690 C   0  0  0  0  0  2  0  0  0  0  0  0
  -30.7170  -14.6930   19.4450 C   0  0  0  0  0  0  0  0  0  0  0  0
  -30.3760  -12.4120   18.5010 C   0  0  0  0  0  2  0  0  0  0  0  0
  -29.3130  -12.4810   17.3830 C   0  0  0  0  0  2  0  0  0  0  0  0
  -27.8950  -12.3360   17.9710 C   0  0  0  0  0  2  0  0  0  0  0  0
  -27.6630  -13.2480   19.2060 C   0  0  0  0  0  3  0  0  0  0  0  0
  -28.8350  -13.1660   20.2080 C   0  0  0  0  0  2  0  0  0  0  0  0
  -30.0680  -13.4820   19.4760 N   0  0  0  0  0  0  0  0  0  0  0  0
  -31.8420  -14.7850   18.9460 O   0  0  0  0  0  0  0  0  0  0  0  0
  -30.0130  -15.8280   19.7850 N   0  0  0  0  0  0  0  0  0  0  0  0
  -29.0970  -15.6810   20.1840 H   0  0  0  0  0  0  0  0  0  0  0  0
  -25.3820  -13.8700   20.2070 C   0  0  0  0  0  0  0  0  0  0  0  0
  -24.3520  -13.1120   20.6890 C   0  0  0  0  0  0  0  0  0  0  0  0
  -24.7780  -11.7530   20.5760 C   0  0  0  0  0  0  0  0  0  0  0  0
  -26.3760  -12.9780   19.8420 N   0  0  0  0  0  0  0  0  0  0  0  0
  -26.0230  -11.6960   20.1210 N   0  0  0  0  0  0  0  0  0  0  0  0
  -24.0460  -10.5040   20.8190 C   0  0  0  0  0  0  0  0  0  0  0  0
  -24.4930   -9.5560   21.7650 C   0  0  0  0  0  3  0  0  0  0  0  0
  -23.7600   -8.3720   21.9950 C   0  0  0  0  0  3  0  0  0  0  0  0
  -22.5650   -8.1270   21.2780 C   0  0  0  0  0  0  0  0  0  0  0  0
  -22.1350   -9.0630   20.3200 C   0  0  0  0  0  3  0  0  0  0  0  0
  -22.8690  -10.2380   20.0890 C   0  0  0  0  0  3  0  0  0  0  0  0
  -21.8010   -6.9930   21.4160 O   0  0  0  0  0  0  0  0  0  0  0  0
  -21.6860   -6.3460   22.6210 C   0  0  0  0  0  0  0  0  0  0  0  0
  -21.1970   -7.0000   23.7730 C   0  0  0  0  0  3  0  0  0  0  0  0
  -21.0290   -6.2790   24.9730 C   0  0  0  0  0  3  0  0  0  0  0  0
  -21.3400   -4.9070   25.0200 C   0  0  0  0  0  0  0  0  0  0  0  0
  -21.8210   -4.2530   23.8720 C   0  0  0  0  0  3  0  0  0  0  0  0
  -21.9910   -4.9710   22.6740 C   0  0  0  0  0  0  0  0  0  0  0  0
  -22.4350   -4.3330   21.5660 F   0  0  0  0  0  0  0  0  0  0  0  0
  -21.1700   -4.2130   26.1690 F   0  0  0  0  0  0  0  0  0  0  0  0
  -23.0100  -13.6140   21.1360 C   0  0  0  0  0  0  0  0  0  0  0  0
  -22.3850  -12.9290   22.0870 N   0  0  0  0  0  0  0  0  0  0  0  0
  -22.5300  -14.6510   20.6780 O   0  0  0  0  0  0  0  0  0  0  0  0
  -22.7880  -12.0920   22.4780 H   0  0  0  0  0  0  0  0  0  0  0  0
  -21.4900  -13.2490   22.4290 H   0  0  0  0  0  0  0  0  0  0  0  0
  -25.5430  -15.2380   20.0270 N   0  0  0  0  0  0  0  0  0  0  0  0
  -24.8210  -15.9020   20.2830 H   0  0  0  0  0  0  0  0  0  0  0  0
  -26.3920  -15.6830   19.7090 H   0  0  0  0  0  0  0  0  0  0  0  0
  1  2  1  0
  3  9  1  0
  3  1  2  0
  4  5  1  0
  5  7  1  0
  5  2  2  0
  6  4  2  0
  6  3  1  0
  8  6  1  0
 10  9  1  0
 10 11  1  0
 12 11  1  0
 13 24  2  0
 14 12  1  0
 14 19  1  0
 15 23  1  0
 15 25  1  0
 16 18  1  0
 17 23  1  0
 18 19  2  0
 18 17  1  0
 20 14  2  0
 21 20  1  0
 21 16  2  0
 22 16  1  0
 22 15  1  0
 23 13  1  0
 25 27  2  0
 26 25  1  0
 28 26  1  0
 29 38  2  0
 29 34  1  0
 30 26  1  0
 30 34  1  0
 31 30  1  0
 32 33  1  0
 32 31  1  0
 33 29  1  0
 34 35  2  0
 35 36  1  0
 37 36  2  0
 38 37  1  0
 39 13  1  0
 39 44  1  0
 39 40  1  0
 40 43  1  1
 40 41  1  0
 42 40  1  0
 44 47  1  0
 45 49  1  0
 45 44  1  0
 46 45  2  0
 49 48  1  0
 51 52  1  0
 51 49  1  0
 51 50  1  0
 53 62  1  0
 53  4  1  0
 54 60  1  0
 54 62  1  0
 55 60  1  0
 56 57  1  0
 56 55  1  0
 58 57  1  0
 58 67  1  0
 58 59  1  0
 60 59  1  0
 61 54  2  0
 62 63  1  0
 64 65  2  0
 65 84  1  0
 66 65  1  0
 66 69  1  0
 67 68  1  0
 67 64  1  0
 68 66  2  0
 69 70  1  0
 70 71  2  0
 72 75  1  0
 72 71  1  0
 73 72  2  0
 74 73  1  0
 74 69  2  0
 75 76  1  0
 76 81  2  0
 76 77  1  0
 77 78  2  0
 78 79  1  0
 79 83  1  0
 80 79  2  0
 81 80  1  0
 82 81  1  0
 84 85  1  0
 85 88  1  0
 85 87  1  0
 86 84  2  0
 89 64  1  0
 89 90  1  0
 91 89  1  0
M  ISO  4  11 101  12 101  54 100  62 100
M  END
>  <TORSDO>  (29) 
F 20

>  <SCORE>  (29) 
-11.362

>  <name>  (29) 
28

>  <ligand_id>  (29) 
28

>  <original_smiles>  (29) 
[H]c1c([H])c([H])c2c(c1[H])C([H])([H])C([H])([H])C([H])([H])C2([H])N([H])C(=O)C1([H])N(C(=O)C([H])(N([H])C(=O)C([H])(N([H])C([H])([H])[H])C([H])([H])[H])C(C([H])([H])[H])(C([H])([H])[H])C([H])([H])[H])C([H])([H])c2c([H])c(OC([H])([H])C([H])([H])C([H])([H])c3c([H])c([H])c(Cl)c(C([H])([H])N([H])C(=O)N4C([H])([H])C([H])([H])C([H])([H])C([H])(n5nc(-c6c([H])c([H])c(Oc7c([H])c([H])c(F)c([H])c7F)c([H])c6[H])c(C(=O)N([H])[H])c5N([H])[H])C4([H])[H])c3Cl)c([H])c([H])c2C1([H])[H]

>  <smiles>  (29) 
[H]c1c([H])c([H])c2c(c1[H])C([H])([H])C([H])([H])C([H])([H])C2([H])N([H])C(=O)C1([H])N(C(=O)C([H])(N([H])C(=O)C([H])(N([H])C([H])([H])[H])C([H])([H])[H])C(C([H])([H])[H])(C([H])([H])[H])C([H])([H])[H])C([H])([H])c2c([H])c(OC([H])([H])C([H])([H])C([H])([H])c3c([H])c([H])c(Cl)c(C([H])([H])N([H])C(=O)N4C([H])([H])C([H])([H])C([H])([H])C([H])(n5nc(-c6c([H])c([H])c(Oc7c([H])c([H])c(F)c([H])c7F)c([H])c6[H])c(C(=O)N([H])[H])c5N([H])[H])C4([H])[H])c3Cl)c([H])c([H])c2C1([H])[H]

$$$$
29:0:0
     RDKit          3D

 92100  0  0  1  0  0  0  0  0999 V2000
  -30.5030  -20.5300   18.7210 C   0  0  0  0  0  3  0  0  0  0  0  0
  -29.5400  -20.3380   19.7220 C   0  0  0  0  0  0  0  0  0  0  0  0
  -31.2190  -19.4610   18.1350 C   0  0  0  0  0  0  0  0  0  0  0  0
  -29.4090  -18.9120   20.1630 C   0  0  0  0  0  0  0  0  0  0  0  0
  -30.1810  -17.7440   19.6280 C   0  0  0  0  0  0  0  0  0  0  0  0
  -31.0450  -18.1040   18.5430 C   0  0  0  0  0  0  0  0  0  0  0  0
  -28.3820  -18.5970   21.2320 C   0  0  0  0  0  1  0  0  0  0  0  0
  -31.8370  -16.8960   17.5810 Cl  0  0  0  0  0  0  0  0  0  0  0  0
  -30.7730  -15.0510   19.8780 C   0  0  0  0  0  0  0  0  0  0  0  0
  -30.5660  -12.7160   18.9250 C   0  0  0  0  0  2  0  0  0  0  0  0
  -29.5470  -12.6950   17.7640 C   0  0  0  0  0  2  0  0  0  0  0  0
  -28.1200  -12.4760   18.3010 C   0  0  0  0  0  2  0  0  0  0  0  0
  -27.8000  -13.3800   19.5190 C   0  0  0  0  0  3  0  0  0  0  0  0
  -28.9370  -13.3810   20.5630 C   0  0  0  0  0  2  0  0  0  0  0  0
  -30.1590  -13.7980   19.8650 N   0  0  0  0  0  0  0  0  0  0  0  0
  -31.9760  -15.0680   19.6000 O   0  0  0  0  0  0  0  0  0  0  0  0
  -30.0130  -16.2550   20.0380 N   0  0  0  0  0  0  0  0  0  0  0  0
  -29.1050  -16.0600   20.4290 H   0  0  0  0  0  0  0  0  0  0  0  0
  -25.4900  -13.9390   20.4650 C   0  0  0  0  0  0  0  0  0  0  0  0
  -24.4500  -13.1560   20.8820 C   0  0  0  0  0  0  0  0  0  0  0  0
  -24.8980  -11.8050   20.7600 C   0  0  0  0  0  0  0  0  0  0  0  0
  -26.5030  -13.0670   20.1100 N   0  0  0  0  0  0  0  0  0  0  0  0
  -26.1630  -11.7750   20.3530 N   0  0  0  0  0  0  0  0  0  0  0  0
  -24.1750  -10.5400   20.9480 C   0  0  0  0  0  0  0  0  0  0  0  0
  -24.6090   -9.5710   21.8790 C   0  0  0  0  0  3  0  0  0  0  0  0
  -23.8830   -8.3720   22.0570 C   0  0  0  0  0  3  0  0  0  0  0  0
  -22.7100   -8.1340   21.3020 C   0  0  0  0  0  0  0  0  0  0  0  0
  -22.2950   -9.0920   20.3600 C   0  0  0  0  0  3  0  0  0  0  0  0
  -23.0220  -10.2820   20.1810 C   0  0  0  0  0  3  0  0  0  0  0  0
  -21.9560   -6.9890   21.3900 O   0  0  0  0  0  0  0  0  0  0  0  0
  -21.8450   -6.2870   22.5630 C   0  0  0  0  0  0  0  0  0  0  0  0
  -21.2820   -6.8630   23.7240 C   0  0  0  0  0  3  0  0  0  0  0  0
  -21.1230   -6.0850   24.8880 C   0  0  0  0  0  3  0  0  0  0  0  0
  -21.5170   -4.7340   24.8940 C   0  0  0  0  0  0  0  0  0  0  0  0
  -22.0730   -4.1580   23.7370 C   0  0  0  0  0  3  0  0  0  0  0  0
  -22.2330   -4.9330   22.5750 C   0  0  0  0  0  0  0  0  0  0  0  0
  -22.7500   -4.3670   21.4580 F   0  0  0  0  0  0  0  0  0  0  0  0
  -21.3560   -3.9850   26.0090 F   0  0  0  0  0  0  0  0  0  0  0  0
  -23.0810  -13.6300   21.2730 C   0  0  0  0  0  0  0  0  0  0  0  0
  -22.4070  -12.8960   22.1510 N   0  0  0  0  0  0  0  0  0  0  0  0
  -22.6210  -14.6850   20.8370 O   0  0  0  0  0  0  0  0  0  0  0  0
  -22.7930  -12.0410   22.5240 H   0  0  0  0  0  0  0  0  0  0  0  0
  -21.4910  -13.1930   22.4580 H   0  0  0  0  0  0  0  0  0  0  0  0
  -25.6510  -15.3150   20.3300 N   0  0  0  0  0  0  0  0  0  0  0  0
  -24.8930  -15.9650   20.5120 H   0  0  0  0  0  0  0  0  0  0  0  0
  -26.4530  -15.7580   19.9010 H   0  0  0  0  0  0  0  0  0  0  0  0
  -33.6140  -20.0450   17.5150 C   0  0  0  0  0  1  0  0  0  0  0  0
  -32.1820  -19.8310   17.0090 C   0  0  0  0  0  2  0  0  0  0  0  0
  -28.6970  -21.6890   20.1990 C   0  0  0  0  0  2  0  0  0  0  0  0
  -28.9930  -23.3090   19.7680 C   0  0  0  0  0  3  0  0  0  0  0  0
  -28.0390  -24.6470   20.1990 C   0  0  0  0  0  3  0  0  0  0  0  0
  -28.3000  -26.1830   20.0070 O   0  0  0  0  0  0  0  0  0  0  0  0
  -24.6320  -31.8230   23.1070 C   0  0  0  0  0  0  0  0  0  0  0  0
  -27.2350  -27.1610   20.0010 C   0  0  0  0  0  0  0  0  0  0  0  0
  -23.4420  -30.4500   21.4420 C   0  0  0  0  0  3  0  0  0  0  0  0
  -24.8990  -28.9040   19.9960 C   0  0  0  0  0  0  0  0  0  0  0  0
  -25.9950  -30.7250   21.2880 C   0  0  0  0  0  2  0  0  0  0  0  0
  -26.0760  -29.3410   20.6160 C   0  0  0  0  0  0  0  0  0  0  0  0
  -27.2460  -28.4880   20.6000 C   0  0  0  0  0  3  0  0  0  0  0  0
  -26.0330  -26.8330   19.3380 C   0  0  0  0  0  3  0  0  0  0  0  0
  -24.8900  -27.6620   19.3430 C   0  0  0  0  0  3  0  0  0  0  0  0
  -23.6700  -29.7990   20.0530 C   0  0  0  0  0  2  0  0  0  0  0  0
  -24.7100  -31.0210   22.0020 N   0  0  0  0  0  0  0  0  0  0  0  0
  -23.5420  -32.0950   23.6350 O   0  0  0  0  0  0  0  0  0  0  0  0
  -22.7650  -29.4220   22.3840 C   0  0  0  0  0  0  0  0  0  0  0  0
  -21.4330  -29.2700   22.2700 N   0  0  0  0  0  0  0  0  0  0  0  0
  -23.4410  -28.7670   23.1820 O   0  0  0  0  0  0  0  0  0  0  0  0
  -20.9480  -29.8500   21.6020 H   0  0  0  0  0  0  0  0  0  0  0  0
  -18.0380  -28.1330   22.8280 C   0  0  0  0  0  0  0  0  0  0  0  0
  -20.6100  -28.3210   23.0240 C   0  0  0  0  0  3  0  0  0  0  0  0
  -20.6570  -26.9140   22.3850 C   0  0  0  0  0  2  0  0  0  0  0  0
  -19.5140  -26.6630   21.3940 C   0  0  0  0  0  2  0  0  0  0  0  0
  -18.1590  -26.8120   22.0880 C   0  0  0  0  0  2  0  0  0  0  0  0
  -19.1890  -28.8490   23.2540 C   0  0  0  0  0  0  0  0  0  0  0  0
  -19.0210  -30.0870   23.9100 C   0  0  0  0  0  3  0  0  0  0  0  0
  -17.7350  -30.6100   24.1430 C   0  0  0  0  0  3  0  0  0  0  0  0
  -16.5990  -29.8910   23.7320 C   0  0  0  0  0  3  0  0  0  0  0  0
  -16.7520  -28.6550   23.0800 C   0  0  0  0  0  3  0  0  0  0  0  0
  -25.9050  -32.4530   23.7490 C   0  0  0  0  0  3  0  0  0  0  0  0
  -26.4110  -31.6650   25.0200 C   0  0  1  0  0  0  0  0  0  0  0  0
  -25.3080  -31.4060   26.0730 C   0  0  0  0  0  1  0  0  0  0  0  0
  -27.0070  -30.2960   24.6190 C   0  0  0  0  0  1  0  0  0  0  0  0
  -27.5520  -32.4560   25.7030 C   0  0  0  0  0  1  0  0  0  0  0  0
  -25.5860  -33.8450   24.1030 N   0  0  0  0  0  0  0  0  0  0  0  0
  -25.9080  -34.9150   23.3640 C   0  0  0  0  0  0  0  0  0  0  0  0
  -26.5730  -34.8350   22.3280 O   0  0  0  0  0  0  0  0  0  0  0  0
  -24.9910  -33.9800   24.9070 H   0  0  0  0  0  0  0  0  0  0  0  0
  -24.1790  -36.7170   23.0440 C   0  0  0  0  0  1  0  0  0  0  0  0
  -25.4170  -36.2940   23.8500 C   0  0  0  0  0  3  0  0  0  0  0  0
  -27.5390  -37.1740   24.7220 C   0  0  0  0  0  1  0  0  0  0  0  0
  -26.4490  -37.3500   23.7630 N   0  0  0  0  0  0  0  0  0  0  0  0
  -26.0410  -38.2680   23.9150 H   0  0  0  0  0  0  0  0  0  0  0  0
  1  2  1  0
  2  4  2  0
  2 49  1  0
  3  6  1  0
  3  1  2  0
  4  7  1  0
  5 17  1  0
  5  4  1  0
  6  5  2  0
  8  6  1  0
  9 17  1  0
 10 15  1  0
 11 12  1  0
 11 10  1  0
 13 12  1  0
 13 22  1  0
 13 14  1  0
 15  9  1  0
 15 14  1  0
 16  9  2  0
 17 18  1  0
 19 20  2  0
 20 39  1  0
 21 20  1  0
 21 24  1  0
 22 23  1  0
 22 19  1  0
 23 21  2  0
 24 25  1  0
 25 26  2  0
 27 30  1  0
 27 26  1  0
 28 27  2  0
 29 28  1  0
 29 24  2  0
 30 31  1  0
 31 36  2  0
 31 32  1  0
 32 33  2  0
 33 34  1  0
 34 38  1  0
 35 34  2  0
 36 35  1  0
 37 36  1  0
 39 40  1  0
 40 43  1  0
 40 42  1  0
 41 39  2  0
 44 19  1  0
 44 45  1  0
 46 44  1  0
 48 47  1  0
 48  3  1  0
 50 51  2  0
 50 49  1  0
 52 51  1  0
 53 64  2  0
 54 52  1  0
 54 59  1  0
 55 63  1  0
 55 65  1  0
 56 62  1  0
 56 58  1  0
 57 63  1  0
 58 57  1  0
 59 58  2  0
 60 61  1  0
 60 54  2  0
 61 56  2  0
 62 55  1  0
 63 53  1  0
 65 67  2  0
 66 65  1  0
 68 66  1  0
 69 78  2  0
 69 74  1  0
 70 66  1  0
 70 74  1  0
 71 70  1  0
 72 73  1  0
 72 71  1  0
 73 69  1  0
 74 75  2  0
 75 76  1  0
 77 76  2  0
 78 77  1  0
 79 53  1  0
 79 84  1  0
 79 80  1  0
 80 83  1  1
 80 81  1  0
 82 80  1  0
 84 87  1  0
 85 89  1  0
 85 84  1  0
 86 85  2  0
 89 88  1  0
 91 89  1  0
 91 92  1  0
 91 90  1  0
M  ISO  4   9 100  17 100  51 101  52 101
M  END
>  <TORSDO>  (30) 
F 20

>  <SCORE>  (30) 
-13.866

>  <name>  (30) 
29

>  <ligand_id>  (30) 
29

>  <original_smiles>  (30) 
[H]c1c([H])c([H])c2c(c1[H])C([H])([H])C([H])([H])C([H])([H])C2([H])N([H])C(=O)C1([H])N(C(=O)C([H])(N([H])C(=O)C([H])(N([H])C([H])([H])[H])C([H])([H])[H])C(C([H])([H])[H])(C([H])([H])[H])C([H])([H])[H])C([H])([H])c2c([H])c(OC([H])([H])C([H])([H])C([H])([H])c3c([H])c(C([H])([H])C([H])([H])[H])c(Cl)c(N([H])C(=O)N4C([H])([H])C([H])([H])C([H])([H])C([H])(n5nc(-c6c([H])c([H])c(Oc7c([H])c([H])c(F)c([H])c7F)c([H])c6[H])c(C(=O)N([H])[H])c5N([H])[H])C4([H])[H])c3C([H])([H])[H])c([H])c([H])c2C1([H])[H]

>  <smiles>  (30) 
[H]c1c([H])c([H])c2c(c1[H])C([H])([H])C([H])([H])C([H])([H])C2([H])N([H])C(=O)C1([H])N(C(=O)C([H])(N([H])C(=O)C([H])(N([H])C([H])([H])[H])C([H])([H])[H])C(C([H])([H])[H])(C([H])([H])[H])C([H])([H])[H])C([H])([H])c2c([H])c(OC([H])([H])C([H])([H])C([H])([H])c3c([H])c(C([H])([H])C([H])([H])[H])c(Cl)c(N([H])C(=O)N4C([H])([H])C([H])([H])C([H])([H])C([H])(n5nc(-c6c([H])c([H])c(Oc7c([H])c([H])c(F)c([H])c7F)c([H])c6[H])c(C(=O)N([H])[H])c5N([H])[H])C4([H])[H])c3C([H])([H])[H])c([H])c([H])c2C1([H])[H]

$$$$
30:0:0
     RDKit          3D

 89 97  0  0  1  0  0  0  0  0999 V2000
  -29.5590  -20.4400   21.3230 C   0  0  0  0  0  3  0  0  0  0  0  0
  -28.8370  -20.4230   19.1410 C   0  0  0  0  0  3  0  0  0  0  0  0
  -29.0590  -21.3160   20.2730 C   0  0  0  0  0  0  0  0  0  0  0  0
  -29.5650  -18.0910   20.1370 C   0  0  0  0  0  0  0  0  0  0  0  0
  -29.7790  -18.9720   21.2760 C   0  0  0  0  0  0  0  0  0  0  0  0
  -29.0500  -18.9500   19.0770 C   0  0  0  0  0  0  0  0  0  0  0  0
  -30.3420  -18.2320   22.7310 Cl  0  0  0  0  0  0  0  0  0  0  0  0
  -28.6270  -18.1730   17.5940 Cl  0  0  0  0  0  0  0  0  0  0  0  0
  -30.4080  -15.3170   19.9070 C   0  0  0  0  0  0  0  0  0  0  0  0
  -30.3590  -12.9180   18.9470 C   0  0  0  0  0  2  0  0  0  0  0  0
  -29.3440  -12.7810   17.7830 C   0  0  0  0  0  2  0  0  0  0  0  0
  -27.9310  -12.4890   18.3180 C   0  0  0  0  0  2  0  0  0  0  0  0
  -27.5640  -13.4000   19.5160 C   0  0  0  0  0  3  0  0  0  0  0  0
  -28.6940  -13.4780   20.5650 C   0  0  0  0  0  2  0  0  0  0  0  0
  -29.8810  -14.0020   19.8720 N   0  0  0  0  0  0  0  0  0  0  0  0
  -31.5930  -15.3980   19.5540 O   0  0  0  0  0  0  0  0  0  0  0  0
  -29.5710  -16.4870   20.1660 N   0  0  0  0  0  0  0  0  0  0  0  0
  -28.6590  -16.1510   20.4330 H   0  0  0  0  0  0  0  0  0  0  0  0
  -25.2500  -13.9070   20.4680 C   0  0  0  0  0  0  0  0  0  0  0  0
  -24.2240  -13.1050   20.8810 C   0  0  0  0  0  0  0  0  0  0  0  0
  -24.6950  -11.7620   20.7500 C   0  0  0  0  0  0  0  0  0  0  0  0
  -26.2760  -13.0540   20.1050 N   0  0  0  0  0  0  0  0  0  0  0  0
  -25.9590  -11.7540   20.3410 N   0  0  0  0  0  0  0  0  0  0  0  0
  -23.9920  -10.4840   20.9340 C   0  0  0  0  0  0  0  0  0  0  0  0
  -24.4300   -9.5260   21.8740 C   0  0  0  0  0  3  0  0  0  0  0  0
  -23.7240   -8.3170   22.0460 C   0  0  0  0  0  3  0  0  0  0  0  0
  -22.5640   -8.0560   21.2770 C   0  0  0  0  0  0  0  0  0  0  0  0
  -22.1450   -9.0030   20.3270 C   0  0  0  0  0  3  0  0  0  0  0  0
  -22.8510  -10.2050   20.1530 C   0  0  0  0  0  3  0  0  0  0  0  0
  -21.8290   -6.8980   21.3580 O   0  0  0  0  0  0  0  0  0  0  0  0
  -21.6830   -6.2200   22.5420 C   0  0  0  0  0  0  0  0  0  0  0  0
  -21.0930   -6.8210   23.6760 C   0  0  0  0  0  3  0  0  0  0  0  0
  -20.8980   -6.0670   24.8500 C   0  0  0  0  0  3  0  0  0  0  0  0
  -21.2820   -4.7130   24.8900 C   0  0  0  0  0  0  0  0  0  0  0  0
  -21.8630   -4.1110   23.7600 C   0  0  0  0  0  3  0  0  0  0  0  0
  -22.0590   -4.8630   22.5880 C   0  0  0  0  0  0  0  0  0  0  0  0
  -22.6000   -4.2730   21.4950 F   0  0  0  0  0  0  0  0  0  0  0  0
  -21.0880   -3.9850   26.0150 F   0  0  0  0  0  0  0  0  0  0  0  0
  -22.8470  -13.5540   21.2750 C   0  0  0  0  0  0  0  0  0  0  0  0
  -22.1940  -12.8150   22.1660 N   0  0  0  0  0  0  0  0  0  0  0  0
  -22.3640  -14.5950   20.8320 O   0  0  0  0  0  0  0  0  0  0  0  0
  -22.6020  -11.9730   22.5420 H   0  0  0  0  0  0  0  0  0  0  0  0
  -21.2740  -13.0960   22.4740 H   0  0  0  0  0  0  0  0  0  0  0  0
  -25.3880  -15.2870   20.3410 N   0  0  0  0  0  0  0  0  0  0  0  0
  -24.6190  -15.9210   20.5260 H   0  0  0  0  0  0  0  0  0  0  0  0
  -26.1800  -15.7450   19.9120 H   0  0  0  0  0  0  0  0  0  0  0  0
  -29.0940  -23.0560   20.2960 C   0  0  0  0  0  3  0  0  0  0  0  0
  -27.9530  -24.4150   20.3080 C   0  0  0  0  0  3  0  0  0  0  0  0
  -28.1910  -26.0300   20.3810 O   0  0  0  0  0  0  0  0  0  0  0  0
  -24.6440  -31.9720   23.3210 C   0  0  0  0  0  0  0  0  0  0  0  0
  -27.1660  -27.0970   20.3260 C   0  0  0  0  0  0  0  0  0  0  0  0
  -23.4370  -30.5780   21.6900 C   0  0  0  0  0  3  0  0  0  0  0  0
  -24.8720  -28.9590   20.2760 C   0  0  0  0  0  0  0  0  0  0  0  0
  -26.0020  -30.7810   21.5360 C   0  0  0  0  0  2  0  0  0  0  0  0
  -26.0610  -29.3710   20.8880 C   0  0  0  0  0  0  0  0  0  0  0  0
  -27.2060  -28.4610   20.8850 C   0  0  0  0  0  3  0  0  0  0  0  0
  -25.9450  -26.8220   19.6720 C   0  0  0  0  0  3  0  0  0  0  0  0
  -24.8350  -27.7040   19.6470 C   0  0  0  0  0  3  0  0  0  0  0  0
  -23.6570  -29.8850   20.3180 C   0  0  0  0  0  2  0  0  0  0  0  0
  -24.7160  -31.1370   22.2360 N   0  0  0  0  0  0  0  0  0  0  0  0
  -23.5590  -32.2720   23.8430 O   0  0  0  0  0  0  0  0  0  0  0  0
  -22.7390  -29.5910   22.6620 C   0  0  0  0  0  0  0  0  0  0  0  0
  -21.4150  -29.4030   22.5120 N   0  0  0  0  0  0  0  0  0  0  0  0
  -23.3950  -28.9930   23.5190 O   0  0  0  0  0  0  0  0  0  0  0  0
  -20.9400  -29.9330   21.7940 H   0  0  0  0  0  0  0  0  0  0  0  0
  -18.0450  -28.1330   22.9490 C   0  0  0  0  0  0  0  0  0  0  0  0
  -20.5880  -28.4710   23.2860 C   0  0  0  0  0  3  0  0  0  0  0  0
  -20.7430  -27.0240   22.7610 C   0  0  0  0  0  2  0  0  0  0  0  0
  -19.6830  -26.6400   21.7250 C   0  0  0  0  0  2  0  0  0  0  0  0
  -18.2770  -26.7690   22.3180 C   0  0  0  0  0  2  0  0  0  0  0  0
  -19.1300  -28.9380   23.3890 C   0  0  0  0  0  0  0  0  0  0  0  0
  -18.8580  -30.2080   23.9410 C   0  0  0  0  0  3  0  0  0  0  0  0
  -17.5350  -30.6750   24.0560 C   0  0  0  0  0  3  0  0  0  0  0  0
  -16.4650  -29.8690   23.6300 C   0  0  0  0  0  3  0  0  0  0  0  0
  -16.7210  -28.6000   23.0820 C   0  0  0  0  0  3  0  0  0  0  0  0
  -25.9210  -32.6070   23.9500 C   0  0  0  0  0  3  0  0  0  0  0  0
  -25.6170  -34.0130   24.2690 N   0  0  0  0  0  0  0  0  0  0  0  0
  -25.9310  -35.0620   23.4970 C   0  0  0  0  0  0  0  0  0  0  0  0
  -26.5700  -34.9470   22.4470 O   0  0  0  0  0  0  0  0  0  0  0  0
  -25.0430  -34.1740   25.0840 H   0  0  0  0  0  0  0  0  0  0  0  0
  -24.1820  -36.8500   23.2090 C   0  0  0  0  0  1  0  0  0  0  0  0
  -25.4660  -36.4580   23.9580 C   0  0  0  0  0  3  0  0  0  0  0  0
  -27.6330  -37.3700   24.6670 C   0  0  0  0  0  1  0  0  0  0  0  0
  -26.4880  -37.5120   23.7720 N   0  0  0  0  0  0  0  0  0  0  0  0
  -26.0860  -38.4340   23.9160 H   0  0  0  0  0  0  0  0  0  0  0  0
  -26.4180  -31.8500   25.2440 C   0  0  1  0  0  0  0  0  0  0  0  0
  -25.3100  -31.6260   26.2990 C   0  0  0  0  0  1  0  0  0  0  0  0
  -27.0040  -30.4660   24.8830 C   0  0  0  0  0  1  0  0  0  0  0  0
  -27.5610  -32.6500   25.9110 C   0  0  0  0  0  1  0  0  0  0  0  0
  2  3  1  0
  3 47  1  0
  3  1  2  0
  4 17  1  0
  4  5  2  0
  5  1  1  0
  5  7  1  0
  6  2  2  0
  6  4  1  0
  8  6  1  0
  9 17  1  0
 10 15  1  0
 11 12  1  0
 11 10  1  0
 13 12  1  0
 13 22  1  0
 13 14  1  0
 15  9  1  0
 15 14  1  0
 16  9  2  0
 17 18  1  0
 19 20  2  0
 20 39  1  0
 21 20  1  0
 21 24  1  0
 22 23  1  0
 22 19  1  0
 23 21  2  0
 24 25  1  0
 25 26  2  0
 27 30  1  0
 27 26  1  0
 28 27  2  0
 29 28  1  0
 29 24  2  0
 30 31  1  0
 31 36  2  0
 31 32  1  0
 32 33  2  0
 33 34  1  0
 34 38  1  0
 35 34  2  0
 36 35  1  0
 37 36  1  0
 39 40  1  0
 40 43  1  0
 40 42  1  0
 41 39  2  0
 44 19  1  0
 44 45  1  0
 46 44  1  0
 47 48  2  0
 48 49  1  0
 50 61  2  0
 51 49  1  0
 51 56  1  0
 52 60  1  0
 52 62  1  0
 53 59  1  0
 53 55  1  0
 54 60  1  0
 55 54  1  0
 56 55  2  0
 57 51  2  0
 58 57  1  0
 58 53  2  0
 59 52  1  0
 60 50  1  0
 62 64  2  0
 63 62  1  0
 65 63  1  0
 66 75  2  0
 66 71  1  0
 67 63  1  0
 67 71  1  0
 68 67  1  0
 69 70  1  0
 69 68  1  0
 70 66  1  0
 71 72  2  0
 72 73  1  0
 74 73  2  0
 75 74  1  0
 76 50  1  0
 76 77  1  0
 76 86  1  0
 77 80  1  0
 78 82  1  0
 78 77  1  0
 79 78  2  0
 82 81  1  0
 84 85  1  0
 84 82  1  0
 84 83  1  0
 86 89  1  1
 86 87  1  0
 88 86  1  0
M  ISO  4   9 100  17 100  48 101  49 101
M  END
>  <TORSDO>  (31) 
F 18

>  <SCORE>  (31) 
-14.851

>  <name>  (31) 
30

>  <ligand_id>  (31) 
30

>  <original_smiles>  (31) 
[H]c1c([H])c([H])c2c(c1[H])C([H])([H])C([H])([H])C([H])([H])C2([H])N([H])C(=O)C1([H])N(C(=O)C([H])(N([H])C(=O)C([H])(N([H])C([H])([H])[H])C([H])([H])[H])C(C([H])([H])[H])(C([H])([H])[H])C([H])([H])[H])C([H])([H])c2c([H])c(OC([H])([H])C([H])([H])c3c([H])c(Cl)c(N([H])C(=O)N4C([H])([H])C([H])([H])C([H])([H])C([H])(n5nc(-c6c([H])c([H])c(Oc7c([H])c([H])c(F)c([H])c7F)c([H])c6[H])c(C(=O)N([H])[H])c5N([H])[H])C4([H])[H])c(Cl)c3[H])c([H])c([H])c2C1([H])[H]

>  <smiles>  (31) 
[H]c1c([H])c([H])c2c(c1[H])C([H])([H])C([H])([H])C([H])([H])C2([H])N([H])C(=O)C1([H])N(C(=O)C([H])(N([H])C(=O)C([H])(N([H])C([H])([H])[H])C([H])([H])[H])C(C([H])([H])[H])(C([H])([H])[H])C([H])([H])[H])C([H])([H])c2c([H])c(OC([H])([H])C([H])([H])c3c([H])c(Cl)c(N([H])C(=O)N4C([H])([H])C([H])([H])C([H])([H])C([H])(n5nc(-c6c([H])c([H])c(Oc7c([H])c([H])c(F)c([H])c7F)c([H])c6[H])c(C(=O)N([H])[H])c5N([H])[H])C4([H])[H])c(Cl)c3[H])c([H])c([H])c2C1([H])[H]

$$$$
31:0:0
     RDKit          3D

 89 97  0  0  1  0  0  0  0  0999 V2000
  -29.6690  -20.4530   21.3070 C   0  0  0  0  0  3  0  0  0  0  0  0
  -28.7370  -20.4260   19.2050 C   0  0  0  0  0  3  0  0  0  0  0  0
  -29.0720  -21.3230   20.3020 C   0  0  0  0  0  0  0  0  0  0  0  0
  -29.8850  -18.9840   21.2540 C   0  0  0  0  0  0  0  0  0  0  0  0
  -28.9410  -18.9520   19.1330 C   0  0  0  0  0  0  0  0  0  0  0  0
  -29.5590  -18.0990   20.1450 C   0  0  0  0  0  0  0  0  0  0  0  0
  -30.4890  -18.3290   22.4810 C   0  0  0  0  0  1  0  0  0  0  0  0
  -28.4430  -18.2520   17.8820 C   0  0  0  0  0  1  0  0  0  0  0  0
  -30.4080  -15.3160   19.9510 C   0  0  0  0  0  0  0  0  0  0  0  0
  -30.3590  -12.9150   18.9950 C   0  0  0  0  0  2  0  0  0  0  0  0
  -29.3510  -12.7780   17.8280 C   0  0  0  0  0  2  0  0  0  0  0  0
  -27.9330  -12.4900   18.3580 C   0  0  0  0  0  2  0  0  0  0  0  0
  -27.5630  -13.4020   19.5560 C   0  0  0  0  0  3  0  0  0  0  0  0
  -28.6890  -13.4840   20.6070 C   0  0  0  0  0  2  0  0  0  0  0  0
  -29.8790  -14.0040   19.9140 N   0  0  0  0  0  0  0  0  0  0  0  0
  -31.6010  -15.3890   19.6220 O   0  0  0  0  0  0  0  0  0  0  0  0
  -29.5630  -16.4940   20.1680 N   0  0  0  0  0  0  0  0  0  0  0  0
  -28.6340  -16.1550   20.3650 H   0  0  0  0  0  0  0  0  0  0  0  0
  -25.2470  -13.9110   20.5010 C   0  0  0  0  0  0  0  0  0  0  0  0
  -24.2190  -13.1100   20.9130 C   0  0  0  0  0  0  0  0  0  0  0  0
  -24.6890  -11.7670   20.7860 C   0  0  0  0  0  0  0  0  0  0  0  0
  -26.2740  -13.0560   20.1420 N   0  0  0  0  0  0  0  0  0  0  0  0
  -25.9550  -11.7570   20.3810 N   0  0  0  0  0  0  0  0  0  0  0  0
  -23.9830  -10.4910   20.9690 C   0  0  0  0  0  0  0  0  0  0  0  0
  -24.4300   -9.5250   21.8970 C   0  0  0  0  0  3  0  0  0  0  0  0
  -23.7220   -8.3160   22.0700 C   0  0  0  0  0  3  0  0  0  0  0  0
  -22.5510   -8.0640   21.3150 C   0  0  0  0  0  0  0  0  0  0  0  0
  -22.1230   -9.0200   20.3760 C   0  0  0  0  0  3  0  0  0  0  0  0
  -22.8330  -10.2200   20.2010 C   0  0  0  0  0  3  0  0  0  0  0  0
  -21.8130   -6.9090   21.3980 O   0  0  0  0  0  0  0  0  0  0  0  0
  -21.6970   -6.2120   22.5750 C   0  0  0  0  0  0  0  0  0  0  0  0
  -21.1340   -6.7930   23.7320 C   0  0  0  0  0  3  0  0  0  0  0  0
  -20.9680   -6.0200   24.8990 C   0  0  0  0  0  3  0  0  0  0  0  0
  -21.3550   -4.6670   24.9080 C   0  0  0  0  0  0  0  0  0  0  0  0
  -21.9110   -4.0850   23.7550 C   0  0  0  0  0  3  0  0  0  0  0  0
  -22.0780   -4.8560   22.5910 C   0  0  0  0  0  0  0  0  0  0  0  0
  -22.5940   -4.2840   21.4760 F   0  0  0  0  0  0  0  0  0  0  0  0
  -21.1890   -3.9220   26.0250 F   0  0  0  0  0  0  0  0  0  0  0  0
  -22.8420  -13.5630   21.3020 C   0  0  0  0  0  0  0  0  0  0  0  0
  -22.1820  -12.8270   22.1890 N   0  0  0  0  0  0  0  0  0  0  0  0
  -22.3630  -14.6040   20.8550 O   0  0  0  0  0  0  0  0  0  0  0  0
  -22.5840  -11.9850   22.5730 H   0  0  0  0  0  0  0  0  0  0  0  0
  -21.2610  -13.1130   22.4910 H   0  0  0  0  0  0  0  0  0  0  0  0
  -25.3850  -15.2910   20.3730 N   0  0  0  0  0  0  0  0  0  0  0  0
  -24.6150  -15.9220   20.5640 H   0  0  0  0  0  0  0  0  0  0  0  0
  -26.1780  -15.7550   19.9530 H   0  0  0  0  0  0  0  0  0  0  0  0
  -29.1060  -23.0620   20.3330 C   0  0  0  0  0  3  0  0  0  0  0  0
  -27.9660  -24.4200   20.3010 C   0  0  0  0  0  3  0  0  0  0  0  0
  -28.2040  -26.0340   20.3840 O   0  0  0  0  0  0  0  0  0  0  0  0
  -24.6570  -31.9820   23.3010 C   0  0  0  0  0  0  0  0  0  0  0  0
  -27.1800  -27.1010   20.3210 C   0  0  0  0  0  0  0  0  0  0  0  0
  -23.4510  -30.5850   21.6720 C   0  0  0  0  0  3  0  0  0  0  0  0
  -24.8850  -28.9640   20.2620 C   0  0  0  0  0  0  0  0  0  0  0  0
  -26.0150  -30.7870   21.5200 C   0  0  0  0  0  2  0  0  0  0  0  0
  -26.0750  -29.3770   20.8750 C   0  0  0  0  0  0  0  0  0  0  0  0
  -27.2180  -28.4660   20.8780 C   0  0  0  0  0  3  0  0  0  0  0  0
  -25.9590  -26.8240   19.6660 C   0  0  0  0  0  3  0  0  0  0  0  0
  -24.8490  -27.7060   19.6380 C   0  0  0  0  0  3  0  0  0  0  0  0
  -23.6720  -29.8900   20.3010 C   0  0  0  0  0  2  0  0  0  0  0  0
  -24.7300  -31.1440   22.2180 N   0  0  0  0  0  0  0  0  0  0  0  0
  -23.5720  -32.2840   23.8210 O   0  0  0  0  0  0  0  0  0  0  0  0
  -22.7490  -29.6010   22.6430 C   0  0  0  0  0  0  0  0  0  0  0  0
  -21.4230  -29.4250   22.4990 N   0  0  0  0  0  0  0  0  0  0  0  0
  -23.4060  -28.9960   23.4940 O   0  0  0  0  0  0  0  0  0  0  0  0
  -20.9480  -29.9640   21.7890 H   0  0  0  0  0  0  0  0  0  0  0  0
  -18.0410  -28.2020   22.9680 C   0  0  0  0  0  0  0  0  0  0  0  0
  -20.5930  -28.4980   23.2750 C   0  0  0  0  0  3  0  0  0  0  0  0
  -20.7180  -27.0540   22.7330 C   0  0  0  0  0  2  0  0  0  0  0  0
  -19.6380  -26.7000   21.7050 C   0  0  0  0  0  2  0  0  0  0  0  0
  -18.2430  -26.8420   22.3200 C   0  0  0  0  0  2  0  0  0  0  0  0
  -19.1440  -28.9860   23.4010 C   0  0  0  0  0  0  0  0  0  0  0  0
  -18.8990  -30.2550   23.9690 C   0  0  0  0  0  3  0  0  0  0  0  0
  -17.5850  -30.7420   24.1060 C   0  0  0  0  0  3  0  0  0  0  0  0
  -16.4980  -29.9570   23.6860 C   0  0  0  0  0  3  0  0  0  0  0  0
  -16.7260  -28.6890   23.1240 C   0  0  0  0  0  3  0  0  0  0  0  0
  -25.9350  -32.6160   23.9300 C   0  0  0  0  0  3  0  0  0  0  0  0
  -25.6300  -34.0190   24.2580 N   0  0  0  0  0  0  0  0  0  0  0  0
  -25.9310  -35.0710   23.4850 C   0  0  0  0  0  0  0  0  0  0  0  0
  -26.5590  -34.9620   22.4290 O   0  0  0  0  0  0  0  0  0  0  0  0
  -25.0660  -34.1760   25.0800 H   0  0  0  0  0  0  0  0  0  0  0  0
  -24.1690  -36.8520   23.2260 C   0  0  0  0  0  1  0  0  0  0  0  0
  -25.4650  -36.4640   23.9560 C   0  0  0  0  0  3  0  0  0  0  0  0
  -27.6370  -37.3870   24.6400 C   0  0  0  0  0  1  0  0  0  0  0  0
  -26.4790  -37.5230   23.7600 N   0  0  0  0  0  0  0  0  0  0  0  0
  -26.0740  -38.4440   23.9110 H   0  0  0  0  0  0  0  0  0  0  0  0
  -26.4350  -31.8530   25.2190 C   0  0  1  0  0  0  0  0  0  0  0  0
  -25.3270  -31.6160   26.2730 C   0  0  0  0  0  1  0  0  0  0  0  0
  -27.0280  -30.4750   24.8490 C   0  0  0  0  0  1  0  0  0  0  0  0
  -27.5730  -32.6540   25.8940 C   0  0  0  0  0  1  0  0  0  0  0  0
  2  3  1  0
  3 47  1  0
  3  1  2  0
  4  1  1  0
  4  7  1  0
  5  2  2  0
  5  6  1  0
  6 17  1  0
  6  4  2  0
  8  5  1  0
  9 17  1  0
 10 15  1  0
 11 12  1  0
 11 10  1  0
 13 12  1  0
 13 22  1  0
 13 14  1  0
 15  9  1  0
 15 14  1  0
 16  9  2  0
 17 18  1  0
 19 20  2  0
 20 39  1  0
 21 20  1  0
 21 24  1  0
 22 23  1  0
 22 19  1  0
 23 21  2  0
 24 25  1  0
 25 26  2  0
 27 30  1  0
 27 26  1  0
 28 27  2  0
 29 28  1  0
 29 24  2  0
 30 31  1  0
 31 36  2  0
 31 32  1  0
 32 33  2  0
 33 34  1  0
 34 38  1  0
 35 34  2  0
 36 35  1  0
 37 36  1  0
 39 40  1  0
 40 43  1  0
 40 42  1  0
 41 39  2  0
 44 19  1  0
 44 45  1  0
 46 44  1  0
 48 47  2  0
 48 49  1  0
 50 61  2  0
 51 49  1  0
 51 56  1  0
 52 60  1  0
 52 62  1  0
 53 59  1  0
 53 55  1  0
 54 60  1  0
 55 56  2  0
 55 54  1  0
 57 51  2  0
 58 57  1  0
 58 53  2  0
 59 52  1  0
 60 50  1  0
 62 64  2  0
 63 62  1  0
 65 63  1  0
 66 75  2  0
 66 71  1  0
 67 63  1  0
 67 71  1  0
 68 67  1  0
 69 70  1  0
 69 68  1  0
 70 66  1  0
 71 72  2  0
 72 73  1  0
 74 73  2  0
 75 74  1  0
 76 50  1  0
 76 77  1  0
 76 86  1  0
 77 80  1  0
 78 82  1  0
 78 77  1  0
 79 78  2  0
 82 81  1  0
 84 85  1  0
 84 82  1  0
 84 83  1  0
 86 89  1  1
 86 87  1  0
 88 86  1  0
M  ISO  4   9 100  17 100  48 101  49 101
M  END
>  <TORSDO>  (32) 
F 18

>  <SCORE>  (32) 
-15.195

>  <name>  (32) 
31

>  <ligand_id>  (32) 
31

>  <original_smiles>  (32) 
[H]c1c([H])c([H])c2c(c1[H])C([H])([H])C([H])([H])C([H])([H])C2([H])N([H])C(=O)C1([H])N(C(=O)C([H])(N([H])C(=O)C([H])(N([H])C([H])([H])[H])C([H])([H])[H])C(C([H])([H])[H])(C([H])([H])[H])C([H])([H])[H])C([H])([H])c2c([H])c(OC([H])([H])C([H])([H])c3c([H])c(C([H])([H])[H])c(N([H])C(=O)N4C([H])([H])C([H])([H])C([H])([H])C([H])(n5nc(-c6c([H])c([H])c(Oc7c([H])c([H])c(F)c([H])c7F)c([H])c6[H])c(C(=O)N([H])[H])c5N([H])[H])C4([H])[H])c(C([H])([H])[H])c3[H])c([H])c([H])c2C1([H])[H]

>  <smiles>  (32) 
[H]c1c([H])c([H])c2c(c1[H])C([H])([H])C([H])([H])C([H])([H])C2([H])N([H])C(=O)C1([H])N(C(=O)C([H])(N([H])C(=O)C([H])(N([H])C([H])([H])[H])C([H])([H])[H])C(C([H])([H])[H])(C([H])([H])[H])C([H])([H])[H])C([H])([H])c2c([H])c(OC([H])([H])C([H])([H])c3c([H])c(C([H])([H])[H])c(N([H])C(=O)N4C([H])([H])C([H])([H])C([H])([H])C([H])(n5nc(-c6c([H])c([H])c(Oc7c([H])c([H])c(F)c([H])c7F)c([H])c6[H])c(C(=O)N([H])[H])c5N([H])[H])C4([H])[H])c(C([H])([H])[H])c3[H])c([H])c([H])c2C1([H])[H]

$$$$
32:0:0
     RDKit          3D

 91 99  0  0  1  0  0  0  0  0999 V2000
  -28.8960  -23.0280   18.3310 C   0  0  0  0  0  1  0  0  0  0  0  0
  -29.1310  -22.7120   19.8320 C   0  0  1  0  0  0  0  0  0  0  0  0
  -28.9510  -19.5940   20.5010 C   0  0  0  0  0  3  0  0  0  0  0  0
  -29.6670  -18.2790   20.0710 C   0  0  0  0  0  0  0  0  0  0  0  0
  -29.3350  -20.8860   19.8880 C   0  0  0  0  0  0  0  0  0  0  0  0
  -30.4690  -18.8280   19.1100 C   0  0  0  0  0  0  0  0  0  0  0  0
  -31.3770  -18.0580   18.1790 C   0  0  0  0  0  1  0  0  0  0  0  0
  -31.2460  -20.9390   18.1020 C   0  0  0  0  0  1  0  0  0  0  0  0
  -30.3420  -20.2640   19.0440 N   0  0  0  0  0  0  0  0  0  0  0  0
  -30.3550  -15.3760   20.2060 C   0  0  0  0  0  0  0  0  0  0  0  0
  -30.3690  -12.8950   19.3700 C   0  0  0  0  0  2  0  0  0  0  0  0
  -29.4520  -12.6670   18.1400 C   0  0  0  0  0  2  0  0  0  0  0  0
  -28.0120  -12.3630   18.5880 C   0  0  0  0  0  2  0  0  0  0  0  0
  -27.5520  -13.3210   19.7140 C   0  0  0  0  0  3  0  0  0  0  0  0
  -28.6020  -13.5100   20.8340 C   0  0  0  0  0  2  0  0  0  0  0  0
  -29.8150  -14.0450   20.1940 N   0  0  0  0  0  0  0  0  0  0  0  0
  -31.5650  -15.3630   19.9320 O   0  0  0  0  0  0  0  0  0  0  0  0
  -29.5840  -16.6600   20.3910 N   0  0  0  0  0  0  0  0  0  0  0  0
  -28.6960  -16.4260   20.8140 H   0  0  0  0  0  0  0  0  0  0  0  0
  -25.1880  -13.8590   20.4940 C   0  0  0  0  0  0  0  0  0  0  0  0
  -24.1320  -13.0770   20.8710 C   0  0  0  0  0  0  0  0  0  0  0  0
  -24.6040  -11.7280   20.8310 C   0  0  0  0  0  0  0  0  0  0  0  0
  -26.2320  -12.9900   20.2360 N   0  0  0  0  0  0  0  0  0  0  0  0
  -25.8950  -11.7020   20.5070 N   0  0  0  0  0  0  0  0  0  0  0  0
  -23.8820  -10.4630   21.0220 C   0  0  0  0  0  0  0  0  0  0  0  0
  -24.3240   -9.4940   21.9490 C   0  0  0  0  0  3  0  0  0  0  0  0
  -23.6020   -8.2940   22.1330 C   0  0  0  0  0  3  0  0  0  0  0  0
  -22.4220   -8.0570   21.3880 C   0  0  0  0  0  0  0  0  0  0  0  0
  -21.9960   -9.0150   20.4520 C   0  0  0  0  0  3  0  0  0  0  0  0
  -22.7190  -10.2050   20.2670 C   0  0  0  0  0  3  0  0  0  0  0  0
  -21.6690   -6.9120   21.4820 O   0  0  0  0  0  0  0  0  0  0  0  0
  -21.6320   -6.1610   22.6300 C   0  0  0  0  0  0  0  0  0  0  0  0
  -21.2160   -6.7090   23.8620 C   0  0  0  0  0  3  0  0  0  0  0  0
  -21.1300   -5.8880   25.0030 C   0  0  0  0  0  3  0  0  0  0  0  0
  -21.4490   -4.5190   24.9120 C   0  0  0  0  0  0  0  0  0  0  0  0
  -21.8560   -3.9700   23.6840 C   0  0  0  0  0  3  0  0  0  0  0  0
  -21.9440   -4.7890   22.5450 C   0  0  0  0  0  0  0  0  0  0  0  0
  -22.3180   -4.2510   21.3580 F   0  0  0  0  0  0  0  0  0  0  0  0
  -21.3550   -3.7290   26.0080 F   0  0  0  0  0  0  0  0  0  0  0  0
  -22.7320  -13.5470   21.1500 C   0  0  0  0  0  0  0  0  0  0  0  0
  -22.0100  -12.8540   22.0210 N   0  0  0  0  0  0  0  0  0  0  0  0
  -22.2900  -14.5690   20.6270 O   0  0  0  0  0  0  0  0  0  0  0  0
  -22.3830  -12.0320   22.4710 H   0  0  0  0  0  0  0  0  0  0  0  0
  -21.0700  -13.1520   22.2420 H   0  0  0  0  0  0  0  0  0  0  0  0
  -25.3400  -15.2300   20.3150 N   0  0  0  0  0  0  0  0  0  0  0  0
  -24.5680  -15.8780   20.4320 H   0  0  0  0  0  0  0  0  0  0  0  0
  -26.1720  -15.6690   19.9420 H   0  0  0  0  0  0  0  0  0  0  0  0
  -30.8730  -22.7110   21.7700 C   0  0  0  0  0  1  0  0  0  0  0  0
  -30.4630  -23.3010   20.4090 C   0  0  0  0  0  2  0  0  0  0  0  0
  -28.0540  -24.0990   20.3770 C   0  0  0  0  0  2  0  0  0  0  0  0
  -28.2000  -25.7720   20.2130 O   0  0  0  0  0  0  0  0  0  0  0  0
  -24.6200  -31.8260   23.1530 C   0  0  0  0  0  0  0  0  0  0  0  0
  -27.1730  -26.8740   20.1920 C   0  0  0  0  0  0  0  0  0  0  0  0
  -23.4300  -30.4190   21.5250 C   0  0  0  0  0  3  0  0  0  0  0  0
  -24.8770  -28.7840   20.1280 C   0  0  0  0  0  0  0  0  0  0  0  0
  -26.0010  -30.6060   21.3880 C   0  0  0  0  0  2  0  0  0  0  0  0
  -26.0700  -29.1870   20.7430 C   0  0  0  0  0  0  0  0  0  0  0  0
  -27.2130  -28.2580   20.7370 C   0  0  0  0  0  3  0  0  0  0  0  0
  -25.9450  -26.6270   19.5390 C   0  0  0  0  0  3  0  0  0  0  0  0
  -24.8420  -27.5230   19.5100 C   0  0  0  0  0  3  0  0  0  0  0  0
  -23.6650  -29.7180   20.1590 C   0  0  0  0  0  2  0  0  0  0  0  0
  -24.7070  -30.9790   22.0740 N   0  0  0  0  0  0  0  0  0  0  0  0
  -23.5280  -32.1210   23.6670 O   0  0  0  0  0  0  0  0  0  0  0  0
  -22.7270  -29.4340   22.4970 C   0  0  0  0  0  0  0  0  0  0  0  0
  -21.3930  -29.2830   22.3790 N   0  0  0  0  0  0  0  0  0  0  0  0
  -23.3900  -28.8040   23.3240 O   0  0  0  0  0  0  0  0  0  0  0  0
  -20.9110  -29.8390   21.6870 H   0  0  0  0  0  0  0  0  0  0  0  0
  -18.0040  -28.1020   22.9130 C   0  0  0  0  0  0  0  0  0  0  0  0
  -20.5670  -28.3530   23.1590 C   0  0  0  0  0  3  0  0  0  0  0  0
  -20.6570  -26.9190   22.5860 C   0  0  0  0  0  2  0  0  0  0  0  0
  -19.5470  -26.6000   21.5800 C   0  0  0  0  0  2  0  0  0  0  0  0
  -18.1710  -26.7520   22.2320 C   0  0  0  0  0  2  0  0  0  0  0  0
  -19.1300  -28.8600   23.3330 C   0  0  0  0  0  0  0  0  0  0  0  0
  -18.9190  -30.1210   23.9330 C   0  0  0  0  0  3  0  0  0  0  0  0
  -17.6190  -30.6220   24.1180 C   0  0  0  0  0  3  0  0  0  0  0  0
  -16.5080  -29.8620   23.7150 C   0  0  0  0  0  3  0  0  0  0  0  0
  -16.7020  -28.6040   23.1150 C   0  0  0  0  0  3  0  0  0  0  0  0
  -25.8850  -32.4780   23.7840 C   0  0  0  0  0  3  0  0  0  0  0  0
  -26.3950  -31.7150   25.0690 C   0  0  1  0  0  0  0  0  0  0  0  0
  -25.2960  -31.4820   26.1340 C   0  0  0  0  0  1  0  0  0  0  0  0
  -26.9840  -30.3350   24.6980 C   0  0  0  0  0  1  0  0  0  0  0  0
  -27.5360  -32.5180   25.7370 C   0  0  0  0  0  1  0  0  0  0  0  0
  -25.5540  -33.8750   24.1290 N   0  0  0  0  0  0  0  0  0  0  0  0
  -25.8710  -34.9470   23.3940 C   0  0  0  0  0  0  0  0  0  0  0  0
  -26.5350  -34.8670   22.3570 O   0  0  0  0  0  0  0  0  0  0  0  0
  -24.9590  -34.0060   24.9340 H   0  0  0  0  0  0  0  0  0  0  0  0
  -24.1260  -36.7420   23.0920 C   0  0  0  0  0  1  0  0  0  0  0  0
  -25.3800  -36.3280   23.8810 C   0  0  0  0  0  3  0  0  0  0  0  0
  -27.5180  -37.2220   24.7000 C   0  0  0  0  0  1  0  0  0  0  0  0
  -26.4020  -37.3930   23.7730 N   0  0  0  0  0  0  0  0  0  0  0  0
  -25.9900  -38.3080   23.9370 H   0  0  0  0  0  0  0  0  0  0  0  0
  2  1  1  6
  2  5  1  0
  2 50  1  0
  2 49  1  0
  4 18  1  0
  4  3  1  0
  5  3  2  0
  6  4  2  0
  7  6  1  0
  8  9  1  0
  9  6  1  0
  9  5  1  0
 10 18  1  0
 11 16  1  0
 12 13  1  0
 12 11  1  0
 14 13  1  0
 14 23  1  0
 14 15  1  0
 16 10  1  0
 16 15  1  0
 17 10  2  0
 18 19  1  0
 20 21  2  0
 21 40  1  0
 22 21  1  0
 22 25  1  0
 23 20  1  0
 23 24  1  0
 24 22  2  0
 25 26  1  0
 26 27  2  0
 28 31  1  0
 28 27  1  0
 29 28  2  0
 30 29  1  0
 30 25  2  0
 31 32  1  0
 32 33  1  0
 33 34  2  0
 35 34  1  0
 35 39  1  0
 36 35  2  0
 37 32  2  0
 37 36  1  0
 38 37  1  0
 40 41  1  0
 41 44  1  0
 41 43  1  0
 42 40  2  0
 45 46  1  0
 45 20  1  0
 47 45  1  0
 49 48  1  0
 51 50  1  0
 52 63  2  0
 53 51  1  0
 53 58  1  0
 54 62  1  0
 54 64  1  0
 55 61  1  0
 55 57  1  0
 56 62  1  0
 57 56  1  0
 58 57  2  0
 59 53  2  0
 60 59  1  0
 60 55  2  0
 61 54  1  0
 62 52  1  0
 64 66  2  0
 65 64  1  0
 67 65  1  0
 68 77  2  0
 68 73  1  0
 69 65  1  0
 69 73  1  0
 70 69  1  0
 71 72  1  0
 71 70  1  0
 72 68  1  0
 73 74  2  0
 74 75  1  0
 76 75  2  0
 77 76  1  0
 78 52  1  0
 78 83  1  0
 78 79  1  0
 79 82  1  1
 79 80  1  0
 81 79  1  0
 83 86  1  0
 84 88  1  0
 84 83  1  0
 85 84  2  0
 88 87  1  0
 90 88  1  0
 90 91  1  0
 90 89  1  0
M  ISO  4  10 100  18 100  50 101  51 101
M  END
>  <TORSDO>  (33) 
F 19

>  <SCORE>  (33) 
-15.765

>  <name>  (33) 
32

>  <ligand_id>  (33) 
32

>  <original_smiles>  (33) 
[H]c1c([H])c([H])c2c(c1[H])C([H])([H])C([H])([H])C([H])([H])C2([H])N([H])C(=O)C1([H])N(C(=O)C([H])(N([H])C(=O)C([H])(N([H])C([H])([H])[H])C([H])([H])[H])C(C([H])([H])[H])(C([H])([H])[H])C([H])([H])[H])C([H])([H])c2c([H])c(OC([H])([H])C(c3c([H])c(N([H])C(=O)N4C([H])([H])C([H])([H])C([H])([H])C([H])(n5nc(-c6c([H])c([H])c(Oc7c([H])c([H])c(F)c([H])c7F)c([H])c6[H])c(C(=O)N([H])[H])c5N([H])[H])C4([H])[H])c(C([H])([H])[H])n3C([H])([H])[H])(C([H])([H])[H])C([H])([H])C([H])([H])[H])c([H])c([H])c2C1([H])[H]

>  <smiles>  (33) 
[H]c1c([H])c([H])c2c(c1[H])C([H])([H])C([H])([H])C([H])([H])C2([H])N([H])C(=O)C1([H])N(C(=O)C([H])(N([H])C(=O)C([H])(N([H])C([H])([H])[H])C([H])([H])[H])C(C([H])([H])[H])(C([H])([H])[H])C([H])([H])[H])C([H])([H])c2c([H])c(OC([H])([H])C(c3c([H])c(N([H])C(=O)N4C([H])([H])C([H])([H])C([H])([H])C([H])(n5nc(-c6c([H])c([H])c(Oc7c([H])c([H])c(F)c([H])c7F)c([H])c6[H])c(C(=O)N([H])[H])c5N([H])[H])C4([H])[H])c(C([H])([H])[H])n3C([H])([H])[H])(C([H])([H])[H])C([H])([H])C([H])([H])[H])c([H])c([H])c2C1([H])[H]

$$$$
33:0:0
     RDKit          3D

 90 98  0  0  1  0  0  0  0  0999 V2000
  -28.1140  -20.9720   20.3760 C   0  0  0  0  0  3  0  0  0  0  0  0
  -28.8320  -22.1560   19.8380 C   0  0  0  0  0  0  0  0  0  0  0  0
  -30.0240  -21.4040   19.3120 C   0  0  0  0  0  0  0  0  0  0  0  0
  -29.6090  -18.7250   19.9080 C   0  0  0  0  0  0  0  0  0  0  0  0
  -30.3740  -19.8930   19.3430 C   0  0  0  0  0  0  0  0  0  0  0  0
  -28.4380  -19.4870   20.4130 C   0  0  0  0  0  0  0  0  0  0  0  0
  -31.0140  -22.2810   18.5600 C   0  0  0  0  0  1  0  0  0  0  0  0
  -27.2170  -18.5030   21.1390 Cl  0  0  0  0  0  0  0  0  0  0  0  0
  -30.5640  -15.7050   19.7230 C   0  0  0  0  0  0  0  0  0  0  0  0
  -30.6230  -13.1690   18.9020 C   0  0  0  0  0  2  0  0  0  0  0  0
  -29.6300  -12.7830   17.7670 C   0  0  0  0  0  2  0  0  0  0  0  0
  -28.2510  -12.4260   18.3400 C   0  0  0  0  0  2  0  0  0  0  0  0
  -27.8270  -13.4190   19.4480 C   0  0  0  0  0  3  0  0  0  0  0  0
  -28.9490  -13.7140   20.4730 C   0  0  0  0  0  2  0  0  0  0  0  0
  -30.0690  -14.3320   19.7270 N   0  0  0  0  0  0  0  0  0  0  0  0
  -31.7640  -15.6880   19.3920 O   0  0  0  0  0  0  0  0  0  0  0  0
  -29.7540  -17.0080   19.9430 N   0  0  0  0  0  0  0  0  0  0  0  0
  -28.8790  -16.6650   20.3140 H   0  0  0  0  0  0  0  0  0  0  0  0
  -25.5710  -13.9260   20.4980 C   0  0  0  0  0  0  0  0  0  0  0  0
  -24.5390  -13.1360   20.9170 C   0  0  0  0  0  0  0  0  0  0  0  0
  -24.9740  -11.7850   20.7340 C   0  0  0  0  0  0  0  0  0  0  0  0
  -26.5640  -13.0620   20.0770 N   0  0  0  0  0  0  0  0  0  0  0  0
  -26.2270  -11.7610   20.2860 N   0  0  0  0  0  0  0  0  0  0  0  0
  -24.2430  -10.5220   20.9030 C   0  0  0  0  0  0  0  0  0  0  0  0
  -24.6450   -9.5540   21.8480 C   0  0  0  0  0  3  0  0  0  0  0  0
  -23.9080   -8.3590   22.0070 C   0  0  0  0  0  3  0  0  0  0  0  0
  -22.7550   -8.1250   21.2210 C   0  0  0  0  0  0  0  0  0  0  0  0
  -22.3730   -9.0830   20.2650 C   0  0  0  0  0  3  0  0  0  0  0  0
  -23.1090  -10.2680   20.1050 C   0  0  0  0  0  3  0  0  0  0  0  0
  -21.9930   -6.9840   21.2880 O   0  0  0  0  0  0  0  0  0  0  0  0
  -21.7640   -6.3420   22.4790 C   0  0  0  0  0  0  0  0  0  0  0  0
  -21.1110   -6.9810   23.5550 C   0  0  0  0  0  3  0  0  0  0  0  0
  -20.8320   -6.2620   24.7350 C   0  0  0  0  0  3  0  0  0  0  0  0
  -21.1970   -4.9060   24.8380 C   0  0  0  0  0  0  0  0  0  0  0  0
  -21.8410   -4.2680   23.7640 C   0  0  0  0  0  3  0  0  0  0  0  0
  -22.1220   -4.9840   22.5870 C   0  0  0  0  0  0  0  0  0  0  0  0
  -22.7250   -4.3570   21.5470 F   0  0  0  0  0  0  0  0  0  0  0  0
  -20.9220   -4.2140   25.9680 F   0  0  0  0  0  0  0  0  0  0  0  0
  -23.1860  -13.6110   21.3600 C   0  0  0  0  0  0  0  0  0  0  0  0
  -22.5430  -12.8740   22.2570 N   0  0  0  0  0  0  0  0  0  0  0  0
  -22.7170  -14.6700   20.9460 O   0  0  0  0  0  0  0  0  0  0  0  0
  -22.9370  -12.0130   22.6090 H   0  0  0  0  0  0  0  0  0  0  0  0
  -21.6410  -13.1750   22.5990 H   0  0  0  0  0  0  0  0  0  0  0  0
  -25.7410  -15.3030   20.4050 N   0  0  0  0  0  0  0  0  0  0  0  0
  -25.0070  -15.9550   20.6590 H   0  0  0  0  0  0  0  0  0  0  0  0
  -26.5470  -15.7570   20.0020 H   0  0  0  0  0  0  0  0  0  0  0  0
  -31.5320  -18.6650   17.6580 C   0  0  0  0  0  1  0  0  0  0  0  0
  -31.5710  -19.6040   18.7260 O   0  0  0  0  0  0  0  0  0  0  0  0
  -28.1250  -23.8760   19.6070 C   0  0  0  0  0  2  0  0  0  0  0  0
  -28.3740  -25.5810   19.9130 O   0  0  0  0  0  0  0  0  0  0  0  0
  -24.7070  -31.6480   23.0820 C   0  0  0  0  0  0  0  0  0  0  0  0
  -27.3820  -26.7790   19.8980 C   0  0  0  0  0  0  0  0  0  0  0  0
  -23.5610  -30.2880   21.3850 C   0  0  0  0  0  3  0  0  0  0  0  0
  -25.0590  -28.7420   19.9140 C   0  0  0  0  0  0  0  0  0  0  0  0
  -26.1340  -30.5100   21.2770 C   0  0  0  0  0  2  0  0  0  0  0  0
  -26.2420  -29.1080   20.5660 C   0  0  0  0  0  0  0  0  0  0  0  0
  -27.3890  -28.1550   20.5280 C   0  0  0  0  0  3  0  0  0  0  0  0
  -26.1570  -26.6220   19.2000 C   0  0  0  0  0  3  0  0  0  0  0  0
  -25.0540  -27.5270   19.2090 C   0  0  0  0  0  3  0  0  0  0  0  0
  -23.8250  -29.6550   19.9890 C   0  0  0  0  0  2  0  0  0  0  0  0
  -24.8240  -30.8480   21.9680 N   0  0  0  0  0  0  0  0  0  0  0  0
  -23.6050  -31.8960   23.6000 O   0  0  0  0  0  0  0  0  0  0  0  0
  -22.8700  -29.2520   22.3120 C   0  0  0  0  0  0  0  0  0  0  0  0
  -21.5440  -29.0580   22.1660 N   0  0  0  0  0  0  0  0  0  0  0  0
  -23.5380  -28.6230   23.1360 O   0  0  0  0  0  0  0  0  0  0  0  0
  -21.0540  -29.6150   21.4820 H   0  0  0  0  0  0  0  0  0  0  0  0
  -18.1840  -27.7670   22.6520 C   0  0  0  0  0  0  0  0  0  0  0  0
  -20.7420  -28.0680   22.8990 C   0  0  0  0  0  3  0  0  0  0  0  0
  -20.8620  -26.6700   22.2500 C   0  0  0  0  0  2  0  0  0  0  0  0
  -19.7530  -26.3830   21.2310 C   0  0  0  0  0  2  0  0  0  0  0  0
  -18.3770  -26.4620   21.8970 C   0  0  0  0  0  2  0  0  0  0  0  0
  -19.2940  -28.5280   23.1080 C   0  0  0  0  0  0  0  0  0  0  0  0
  -19.0510  -29.7460   23.7800 C   0  0  0  0  0  3  0  0  0  0  0  0
  -17.7380  -30.2030   23.9980 C   0  0  0  0  0  3  0  0  0  0  0  0
  -16.6460  -29.4400   23.5520 C   0  0  0  0  0  3  0  0  0  0  0  0
  -16.8710  -28.2220   22.8840 C   0  0  0  0  0  3  0  0  0  0  0  0
  -25.9500  -32.3050   23.7550 C   0  0  0  0  0  3  0  0  0  0  0  0
  -25.5920  -33.6860   24.1370 N   0  0  0  0  0  0  0  0  0  0  0  0
  -25.8620  -34.7800   23.4130 C   0  0  0  0  0  0  0  0  0  0  0  0
  -26.4970  -34.7360   22.3570 O   0  0  0  0  0  0  0  0  0  0  0  0
  -25.0220  -33.7900   24.9640 H   0  0  0  0  0  0  0  0  0  0  0  0
  -24.0480  -36.5170   23.2210 C   0  0  0  0  0  1  0  0  0  0  0  0
  -25.3530  -36.1390   23.9410 C   0  0  0  0  0  3  0  0  0  0  0  0
  -27.4900  -37.1040   24.6760 C   0  0  0  0  0  1  0  0  0  0  0  0
  -26.3350  -37.2380   23.7920 N   0  0  0  0  0  0  0  0  0  0  0  0
  -25.8980  -38.1380   23.9760 H   0  0  0  0  0  0  0  0  0  0  0  0
  -26.4520  -31.5130   25.0260 C   0  0  1  0  0  0  0  0  0  0  0  0
  -25.3380  -31.2280   26.0630 C   0  0  0  0  0  1  0  0  0  0  0  0
  -27.0730  -30.1570   24.6250 C   0  0  0  0  0  1  0  0  0  0  0  0
  -27.5720  -32.3140   25.7320 C   0  0  0  0  0  1  0  0  0  0  0  0
  1  6  1  0
  2  1  2  0
  3  5  2  0
  3  2  1  0
  4 17  1  0
  4  6  2  0
  5  4  1  0
  6  8  1  0
  7  3  1  0
  9 15  1  0
  9 17  1  0
 10 15  1  0
 11 12  1  0
 11 10  1  0
 13 12  1  0
 13 22  1  0
 13 14  1  0
 15 14  1  0
 16  9  2  0
 17 18  1  0
 19 20  2  0
 20 39  1  0
 21 24  1  0
 21 20  1  0
 22 23  1  0
 22 19  1  0
 23 21  2  0
 24 25  1  0
 25 26  2  0
 27 30  1  0
 27 26  1  0
 28 27  2  0
 29 28  1  0
 29 24  2  0
 30 31  1  0
 31 36  2  0
 31 32  1  0
 32 33  2  0
 33 34  1  0
 34 38  1  0
 35 34  2  0
 36 35  1  0
 37 36  1  0
 39 40  1  0
 40 43  1  0
 40 42  1  0
 41 39  2  0
 44 19  1  0
 44 45  1  0
 46 44  1  0
 47 48  1  0
 48  5  1  0
 49  2  1  0
 49 50  1  0
 51 62  2  0
 52 50  1  0
 52 57  1  0
 53 61  1  0
 53 63  1  0
 54 60  1  0
 54 56  1  0
 55 61  1  0
 56 55  1  0
 57 56  2  0
 58 59  1  0
 58 52  2  0
 59 54  2  0
 60 53  1  0
 61 51  1  0
 63 65  2  0
 64 63  1  0
 66 64  1  0
 67 76  2  0
 67 72  1  0
 68 64  1  0
 68 72  1  0
 69 68  1  0
 70 71  1  0
 70 69  1  0
 71 67  1  0
 72 73  2  0
 73 74  1  0
 75 74  2  0
 76 75  1  0
 77 51  1  0
 77 78  1  0
 77 87  1  0
 78 81  1  0
 79 83  1  0
 79 78  1  0
 80 79  2  0
 83 82  1  0
 85 83  1  0
 85 86  1  0
 85 84  1  0
 87 90  1  1
 87 88  1  0
 89 87  1  0
M  ISO  4   9 100  17 100  49 101  50 101
M  END
>  <TORSDO>  (34) 
F 18

>  <SCORE>  (34) 
-13.777

>  <name>  (34) 
33

>  <ligand_id>  (34) 
33

>  <original_smiles>  (34) 
[H]c1c([H])c([H])c2c(c1[H])C([H])([H])C([H])([H])C([H])([H])C2([H])N([H])C(=O)C1([H])N(C(=O)C([H])(N([H])C(=O)C([H])(N([H])C([H])([H])[H])C([H])([H])[H])C(C([H])([H])[H])(C([H])([H])[H])C([H])([H])[H])C([H])([H])c2c([H])c(OC([H])([H])c3c([H])c(Cl)c(N([H])C(=O)N4C([H])([H])C([H])([H])C([H])([H])C([H])(n5nc(-c6c([H])c([H])c(Oc7c([H])c([H])c(F)c([H])c7F)c([H])c6[H])c(C(=O)N([H])[H])c5N([H])[H])C4([H])[H])c(OC([H])([H])[H])c3C([H])([H])[H])c([H])c([H])c2C1([H])[H]

>  <smiles>  (34) 
[H]c1c([H])c([H])c2c(c1[H])C([H])([H])C([H])([H])C([H])([H])C2([H])N([H])C(=O)C1([H])N(C(=O)C([H])(N([H])C(=O)C([H])(N([H])C([H])([H])[H])C([H])([H])[H])C(C([H])([H])[H])(C([H])([H])[H])C([H])([H])[H])C([H])([H])c2c([H])c(OC([H])([H])c3c([H])c(Cl)c(N([H])C(=O)N4C([H])([H])C([H])([H])C([H])([H])C([H])(n5nc(-c6c([H])c([H])c(Oc7c([H])c([H])c(F)c([H])c7F)c([H])c6[H])c(C(=O)N([H])[H])c5N([H])[H])C4([H])[H])c(OC([H])([H])[H])c3C([H])([H])[H])c([H])c([H])c2C1([H])[H]

$$$$
34:0:0
     RDKit          3D

 90 98  0  0  1  0  0  0  0  0999 V2000
  -30.4870  -20.9800   19.7600 C   0  0  0  0  0  3  0  0  0  0  0  0
  -30.1380  -22.4030   19.6010 C   0  0  0  0  0  0  0  0  0  0  0  0
  -29.5870  -20.1980   20.4650 C   0  0  0  0  0  0  0  0  0  0  0  0
  -28.9160  -22.7440   20.1640 C   0  0  0  0  0  0  0  0  0  0  0  0
  -31.0330  -23.3770   18.8800 C   0  0  0  0  0  1  0  0  0  0  0  0
  -27.3430  -21.1010   21.3460 C   0  0  0  0  0  1  0  0  0  0  0  0
  -28.6030  -21.3410   20.6710 N   0  0  0  0  0  0  0  0  0  0  0  0
  -29.7240  -18.5170   21.0740 C   0  0  0  0  0  2  0  0  0  0  0  0
  -30.7460  -15.6730   20.9350 C   0  0  0  0  0  0  0  0  0  0  0  0
  -30.8710  -13.1380   20.2930 C   0  0  0  0  0  2  0  0  0  0  0  0
  -30.1160  -12.6900   19.0170 C   0  0  0  0  0  2  0  0  0  0  0  0
  -28.6330  -12.4100   19.3190 C   0  0  0  0  0  2  0  0  0  0  0  0
  -28.0160  -13.4700   20.2630 C   0  0  0  0  0  3  0  0  0  0  0  0
  -28.9250  -13.8430   21.4530 C   0  0  0  0  0  2  0  0  0  0  0  0
  -30.1790  -14.3540   20.8660 N   0  0  0  0  0  0  0  0  0  0  0  0
  -31.9770  -15.5960   21.0970 O   0  0  0  0  0  0  0  0  0  0  0  0
  -30.1170  -16.9820   20.4580 N   0  0  0  0  0  0  0  0  0  0  0  0
  -25.5890  -14.0520   20.7540 C   0  0  0  0  0  0  0  0  0  0  0  0
  -24.4870  -13.2880   21.0090 C   0  0  0  0  0  0  0  0  0  0  0  0
  -24.9460  -11.9350   21.0530 C   0  0  0  0  0  0  0  0  0  0  0  0
  -26.6460  -13.1680   20.6450 N   0  0  0  0  0  0  0  0  0  0  0  0
  -26.2650  -11.8890   20.8970 N   0  0  0  0  0  0  0  0  0  0  0  0
  -24.1950  -10.6800   21.1760 C   0  0  0  0  0  0  0  0  0  0  0  0
  -24.5340   -9.7100   22.1450 C   0  0  0  0  0  3  0  0  0  0  0  0
  -23.7840   -8.5210   22.2590 C   0  0  0  0  0  3  0  0  0  0  0  0
  -22.6800   -8.2910   21.4040 C   0  0  0  0  0  0  0  0  0  0  0  0
  -22.3600   -9.2500   20.4270 C   0  0  0  0  0  3  0  0  0  0  0  0
  -23.1110  -10.4320   20.3110 C   0  0  0  0  0  3  0  0  0  0  0  0
  -21.9100   -7.1540   21.4270 O   0  0  0  0  0  0  0  0  0  0  0  0
  -21.7780   -6.3960   22.5640 C   0  0  0  0  0  0  0  0  0  0  0  0
  -21.2730   -6.9380   23.7660 C   0  0  0  0  0  3  0  0  0  0  0  0
  -21.0920   -6.1070   24.8890 C   0  0  0  0  0  3  0  0  0  0  0  0
  -21.3980   -4.7360   24.8100 C   0  0  0  0  0  0  0  0  0  0  0  0
  -21.8930   -4.1940   23.6110 C   0  0  0  0  0  3  0  0  0  0  0  0
  -22.0790   -5.0210   22.4900 C   0  0  0  0  0  0  0  0  0  0  0  0
  -22.5360   -4.4890   21.3300 F   0  0  0  0  0  0  0  0  0  0  0  0
  -21.2150   -3.9350   25.8860 F   0  0  0  0  0  0  0  0  0  0  0  0
  -23.0710  -13.7770   21.0990 C   0  0  0  0  0  0  0  0  0  0  0  0
  -22.2430  -13.1040   21.8900 N   0  0  0  0  0  0  0  0  0  0  0  0
  -22.7030  -14.7870   20.5010 O   0  0  0  0  0  0  0  0  0  0  0  0
  -22.5510  -12.2870   22.3980 H   0  0  0  0  0  0  0  0  0  0  0  0
  -21.2870  -13.4110   21.9930 H   0  0  0  0  0  0  0  0  0  0  0  0
  -25.7870  -15.4190   20.5770 N   0  0  0  0  0  0  0  0  0  0  0  0
  -25.0330  -16.0960   20.6150 H   0  0  0  0  0  0  0  0  0  0  0  0
  -26.6860  -15.8390   20.3800 H   0  0  0  0  0  0  0  0  0  0  0  0
  -31.3730  -16.8140   18.2270 C   0  0  0  0  0  1  0  0  0  0  0  0
  -28.8400  -16.5860   18.3200 C   0  0  0  0  0  1  0  0  0  0  0  0
  -30.0830  -17.1950   18.9820 C   0  0  0  0  0  3  0  0  0  0  0  0
  -27.9360  -24.2400   20.1560 C   0  0  0  0  0  2  0  0  0  0  0  0
  -28.2850  -25.8800   20.0780 O   0  0  0  0  0  0  0  0  0  0  0  0
  -24.7100  -31.9210   23.1110 C   0  0  0  0  0  0  0  0  0  0  0  0
  -27.2800  -27.0130   20.0620 C   0  0  0  0  0  0  0  0  0  0  0  0
  -23.5120  -30.5030   21.5000 C   0  0  0  0  0  3  0  0  0  0  0  0
  -24.9590  -28.9060   20.0600 C   0  0  0  0  0  0  0  0  0  0  0  0
  -26.0790  -30.7300   21.3150 C   0  0  0  0  0  2  0  0  0  0  0  0
  -26.1590  -29.3130   20.6590 C   0  0  0  0  0  0  0  0  0  0  0  0
  -27.3110  -28.3900   20.6320 C   0  0  0  0  0  3  0  0  0  0  0  0
  -26.0400  -26.7760   19.4170 C   0  0  0  0  0  3  0  0  0  0  0  0
  -24.9270  -27.6590   19.4190 C   0  0  0  0  0  3  0  0  0  0  0  0
  -23.7320  -29.8170   20.1240 C   0  0  0  0  0  2  0  0  0  0  0  0
  -24.7910  -31.0790   22.0290 N   0  0  0  0  0  0  0  0  0  0  0  0
  -23.6250  -32.2000   23.6460 O   0  0  0  0  0  0  0  0  0  0  0  0
  -22.8430  -29.5050   22.4800 C   0  0  0  0  0  0  0  0  0  0  0  0
  -21.5120  -29.3210   22.3770 N   0  0  0  0  0  0  0  0  0  0  0  0
  -23.5270  -28.8950   23.3040 O   0  0  0  0  0  0  0  0  0  0  0  0
  -21.0110  -29.8640   21.6870 H   0  0  0  0  0  0  0  0  0  0  0  0
  -18.1560  -28.0580   22.9410 C   0  0  0  0  0  0  0  0  0  0  0  0
  -20.7150  -28.3750   23.1660 C   0  0  0  0  0  3  0  0  0  0  0  0
  -20.8340  -26.9400   22.5980 C   0  0  0  0  0  2  0  0  0  0  0  0
  -19.7250  -26.5910   21.6020 C   0  0  0  0  0  2  0  0  0  0  0  0
  -18.3510  -26.7110   22.2650 C   0  0  0  0  0  2  0  0  0  0  0  0
  -19.2650  -28.8460   23.3490 C   0  0  0  0  0  0  0  0  0  0  0  0
  -19.0270  -30.1030   23.9460 C   0  0  0  0  0  3  0  0  0  0  0  0
  -17.7130  -30.5720   24.1370 C   0  0  0  0  0  3  0  0  0  0  0  0
  -16.6200  -29.7820   23.7420 C   0  0  0  0  0  3  0  0  0  0  0  0
  -16.8420  -28.5270   23.1500 C   0  0  0  0  0  3  0  0  0  0  0  0
  -25.9800  -32.5870   23.7240 C   0  0  0  0  0  3  0  0  0  0  0  0
  -26.5330  -31.8160   24.9870 C   0  0  1  0  0  0  0  0  0  0  0  0
  -25.4630  -31.5520   26.0740 C   0  0  0  0  0  1  0  0  0  0  0  0
  -27.1350  -30.4520   24.5840 C   0  0  0  0  0  1  0  0  0  0  0  0
  -27.6830  -32.6260   25.6310 C   0  0  0  0  0  1  0  0  0  0  0  0
  -25.6370  -33.9730   24.0900 N   0  0  0  0  0  0  0  0  0  0  0  0
  -25.9390  -35.0570   23.3630 C   0  0  0  0  0  0  0  0  0  0  0  0
  -26.5960  -34.9960   22.3210 O   0  0  0  0  0  0  0  0  0  0  0  0
  -25.0480  -34.0920   24.9010 H   0  0  0  0  0  0  0  0  0  0  0  0
  -24.1760  -36.8340   23.0890 C   0  0  0  0  0  1  0  0  0  0  0  0
  -25.4350  -36.4260   23.8700 C   0  0  0  0  0  3  0  0  0  0  0  0
  -27.5650  -37.3270   24.6960 C   0  0  0  0  0  1  0  0  0  0  0  0
  -26.4480  -37.5010   23.7730 N   0  0  0  0  0  0  0  0  0  0  0  0
  -26.0290  -38.4090   23.9510 H   0  0  0  0  0  0  0  0  0  0  0  0
  1  3  2  0
  2  1  1  0
  2  4  2  0
  3  7  1  0
  3  8  1  0
  4  7  1  0
  5  2  1  0
  7  6  1  0
  9 16  2  0
 10 15  1  0
 11 12  1  0
 11 10  1  0
 13 12  1  0
 13 21  1  0
 13 14  1  0
 15  9  1  0
 15 14  1  0
 17  9  1  0
 17  8  1  0
 18 19  2  0
 19 20  1  0
 19 38  1  0
 20 23  1  0
 21 18  1  0
 21 22  1  0
 22 20  2  0
 23 24  1  0
 24 25  2  0
 26 29  1  0
 26 25  1  0
 27 26  2  0
 28 27  1  0
 28 23  2  0
 29 30  1  0
 30 31  1  0
 31 32  2  0
 33 32  1  0
 33 37  1  0
 34 33  2  0
 35 30  2  0
 35 34  1  0
 36 35  1  0
 38 39  1  0
 39 42  1  0
 39 41  1  0
 40 38  2  0
 43 44  1  0
 43 18  1  0
 45 43  1  0
 46 48  1  0
 47 48  1  0
 48 17  1  0
 49  4  1  0
 50 49  1  0
 51 62  2  0
 52 50  1  0
 52 57  1  0
 53 61  1  0
 53 63  1  0
 54 60  1  0
 54 56  1  0
 55 61  1  0
 56 55  1  0
 57 56  2  0
 58 59  1  0
 58 52  2  0
 59 54  2  0
 60 53  1  0
 61 51  1  0
 63 65  2  0
 64 63  1  0
 66 64  1  0
 67 76  2  0
 67 72  1  0
 68 64  1  0
 68 72  1  0
 69 68  1  0
 70 71  1  0
 70 69  1  0
 71 67  1  0
 72 73  2  0
 73 74  1  0
 75 74  2  0
 76 75  1  0
 77 51  1  0
 77 82  1  0
 77 78  1  0
 78 81  1  1
 78 79  1  0
 80 78  1  0
 82 85  1  0
 83 87  1  0
 83 82  1  0
 84 83  2  0
 87 86  1  0
 89 87  1  0
 89 90  1  0
 89 88  1  0
M  ISO  4   9 100  17 100  49 101  50 101
M  END
>  <TORSDO>  (35) 
F 19

>  <SCORE>  (35) 
-13.806

>  <name>  (35) 
34

>  <ligand_id>  (35) 
34

>  <original_smiles>  (35) 
[H]c1c([H])c([H])c2c(c1[H])C([H])([H])C([H])([H])C([H])([H])C2([H])N([H])C(=O)C1([H])N(C(=O)C([H])(N([H])C(=O)C([H])(N([H])C([H])([H])[H])C([H])([H])[H])C(C([H])([H])[H])(C([H])([H])[H])C([H])([H])[H])C([H])([H])c2c([H])c(OC([H])([H])c3c(C([H])([H])[H])c([H])c(C([H])([H])N(C(=O)N4C([H])([H])C([H])([H])C([H])([H])C([H])(n5nc(-c6c([H])c([H])c(Oc7c([H])c([H])c(F)c([H])c7F)c([H])c6[H])c(C(=O)N([H])[H])c5N([H])[H])C4([H])[H])C([H])(C([H])([H])[H])C([H])([H])[H])n3C([H])([H])[H])c([H])c([H])c2C1([H])[H]

>  <smiles>  (35) 
[H]c1c([H])c([H])c2c(c1[H])C([H])([H])C([H])([H])C([H])([H])C2([H])N([H])C(=O)C1([H])N(C(=O)C([H])(N([H])C(=O)C([H])(N([H])C([H])([H])[H])C([H])([H])[H])C(C([H])([H])[H])(C([H])([H])[H])C([H])([H])[H])C([H])([H])c2c([H])c(OC([H])([H])c3c(C([H])([H])[H])c([H])c(C([H])([H])N(C(=O)N4C([H])([H])C([H])([H])C([H])([H])C([H])(n5nc(-c6c([H])c([H])c(Oc7c([H])c([H])c(F)c([H])c7F)c([H])c6[H])c(C(=O)N([H])[H])c5N([H])[H])C4([H])[H])C([H])(C([H])([H])[H])C([H])([H])[H])n3C([H])([H])[H])c([H])c([H])c2C1([H])[H]

$$$$
35:0:0
     RDKit          3D

 84 89  0  0  1  0  0  0  0  0999 V2000
  -27.5400  -23.5200   18.6080 C   0  0  0  0  0  1  0  0  0  0  0  0
  -28.0780  -23.1990   20.0340 C   0  0  0  0  0  1  0  0  0  0  0  0
  -29.9250  -21.4250   18.6960 C   0  0  0  0  0  1  0  0  0  0  0  0
  -27.4990  -20.6030   19.1370 C   0  0  0  0  0  1  0  0  0  0  0  0
  -28.8310  -21.1580   19.7560 C   0  0  0  0  0  3  0  0  0  0  0  0
  -29.5640  -17.9790   20.1520 C   0  0  0  0  0  0  0  0  0  0  0  0
  -29.2600  -19.3380   20.1380 C   0  0  0  0  0  0  0  0  0  0  0  0
  -30.1820  -16.1770   20.0850 C   0  0  0  0  0  0  0  0  0  0  0  0
  -30.3650  -13.5080   19.3400 C   0  0  0  0  0  2  0  0  0  0  0  0
  -29.5120  -12.8980   18.1750 C   0  0  0  0  0  2  0  0  0  0  0  0
  -28.1320  -12.4490   18.6640 C   0  0  0  0  0  2  0  0  0  0  0  0
  -27.5680  -13.4840   19.6550 C   0  0  0  0  0  3  0  0  0  0  0  0
  -28.5760  -13.9940   20.7250 C   0  0  0  0  0  2  0  0  0  0  0  0
  -29.6860  -14.7370   20.0410 N   0  0  0  0  0  0  0  0  0  0  0  0
  -31.4130  -15.9780   19.9240 O   0  0  0  0  0  0  0  0  0  0  0  0
  -25.2270  -13.9640   20.4730 C   0  0  0  0  0  0  0  0  0  0  0  0
  -24.1790  -13.1750   20.8490 C   0  0  0  0  0  0  0  0  0  0  0  0
  -24.6590  -11.8280   20.8050 C   0  0  0  0  0  0  0  0  0  0  0  0
  -26.2750  -13.1070   20.2090 N   0  0  0  0  0  0  0  0  0  0  0  0
  -25.9500  -11.8110   20.4730 N   0  0  0  0  0  0  0  0  0  0  0  0
  -23.9370  -10.5620   21.0010 C   0  0  0  0  0  0  0  0  0  0  0  0
  -24.3750   -9.5940   21.9320 C   0  0  0  0  0  3  0  0  0  0  0  0
  -23.6450   -8.3990   22.1190 C   0  0  0  0  0  3  0  0  0  0  0  0
  -22.4630   -8.1630   21.3770 C   0  0  0  0  0  0  0  0  0  0  0  0
  -22.0430   -9.1200   20.4380 C   0  0  0  0  0  3  0  0  0  0  0  0
  -22.7730  -10.3060   20.2470 C   0  0  0  0  0  3  0  0  0  0  0  0
  -21.7060   -7.0190   21.4750 O   0  0  0  0  0  0  0  0  0  0  0  0
  -21.6620   -6.2800   22.6290 C   0  0  0  0  0  0  0  0  0  0  0  0
  -21.2170   -6.8320   23.8500 C   0  0  0  0  0  3  0  0  0  0  0  0
  -21.1220   -6.0180   24.9970 C   0  0  0  0  0  3  0  0  0  0  0  0
  -21.4610   -4.6540   24.9230 C   0  0  0  0  0  0  0  0  0  0  0  0
  -21.8980   -4.1020   23.7070 C   0  0  0  0  0  3  0  0  0  0  0  0
  -21.9950   -4.9120   22.5620 C   0  0  0  0  0  0  0  0  0  0  0  0
  -22.3970   -4.3690   21.3880 F   0  0  0  0  0  0  0  0  0  0  0  0
  -21.3630   -3.8710   26.0230 F   0  0  0  0  0  0  0  0  0  0  0  0
  -22.7820  -13.6440   21.1310 C   0  0  0  0  0  0  0  0  0  0  0  0
  -22.0690  -12.9490   22.0080 N   0  0  0  0  0  0  0  0  0  0  0  0
  -22.3370  -14.6660   20.6090 O   0  0  0  0  0  0  0  0  0  0  0  0
  -22.4450  -12.1230   22.4500 H   0  0  0  0  0  0  0  0  0  0  0  0
  -21.1320  -13.2470   22.2430 H   0  0  0  0  0  0  0  0  0  0  0  0
  -25.3710  -15.3380   20.2970 N   0  0  0  0  0  0  0  0  0  0  0  0
  -24.5980  -15.9820   20.4220 H   0  0  0  0  0  0  0  0  0  0  0  0
  -26.2140  -15.7940   19.9730 H   0  0  0  0  0  0  0  0  0  0  0  0
  -28.1700  -25.1150   20.2530 O   0  0  0  0  0  1  0  0  0  0  0  0
  -24.6680  -31.8030   23.1390 C   0  0  0  0  0  0  0  0  0  0  0  0
  -27.2270  -26.4670   20.2030 C   0  0  0  0  0  0  0  0  0  0  0  0
  -23.5060  -30.3800   21.5130 C   0  0  0  0  0  3  0  0  0  0  0  0
  -24.9710  -28.6810   20.1280 C   0  0  0  0  0  0  0  0  0  0  0  0
  -26.0980  -30.4560   21.4300 C   0  0  0  0  0  2  0  0  0  0  0  0
  -26.1710  -28.9880   20.7790 C   0  0  0  0  0  0  0  0  0  0  0  0
  -27.2650  -27.9210   20.7770 C   0  0  0  0  0  3  0  0  0  0  0  0
  -25.9820  -26.4570   19.4940 C   0  0  0  0  0  3  0  0  0  0  0  0
  -24.9350  -27.4440   19.4600 C   0  0  0  0  0  3  0  0  0  0  0  0
  -23.7690  -29.6570   20.1560 C   0  0  0  0  0  2  0  0  0  0  0  0
  -24.7840  -30.9220   22.0780 N   0  0  0  0  0  0  0  0  0  0  0  0
  -23.5650  -32.1090   23.6300 O   0  0  0  0  0  0  0  0  0  0  0  0
  -22.7690  -29.4280   22.4980 C   0  0  0  0  0  0  0  0  0  0  0  0
  -21.4320  -29.2900   22.3850 N   0  0  0  0  0  0  0  0  0  0  0  0
  -23.4200  -28.8060   23.3400 O   0  0  0  0  0  0  0  0  0  0  0  0
  -20.9530  -29.8440   21.6890 H   0  0  0  0  0  0  0  0  0  0  0  0
  -18.0390  -28.0900   22.9490 C   0  0  0  0  0  0  0  0  0  0  0  0
  -20.6070  -28.3570   23.1670 C   0  0  0  0  0  3  0  0  0  0  0  0
  -20.6920  -26.9240   22.5900 C   0  0  0  0  0  2  0  0  0  0  0  0
  -19.5740  -26.6080   21.5890 C   0  0  0  0  0  2  0  0  0  0  0  0
  -18.2040  -26.7470   22.2550 C   0  0  0  0  0  2  0  0  0  0  0  0
  -19.1660  -28.8520   23.3620 C   0  0  0  0  0  0  0  0  0  0  0  0
  -18.9530  -30.1030   23.9800 C   0  0  0  0  0  3  0  0  0  0  0  0
  -17.6480  -30.5950   24.1820 C   0  0  0  0  0  3  0  0  0  0  0  0
  -16.5390  -29.8320   23.7800 C   0  0  0  0  0  3  0  0  0  0  0  0
  -16.7350  -28.5800   23.1710 C   0  0  0  0  0  3  0  0  0  0  0  0
  -25.9100  -32.4850   23.7880 C   0  0  0  0  0  3  0  0  0  0  0  0
  -25.5640  -33.8900   24.1040 N   0  0  0  0  0  0  0  0  0  0  0  0
  -25.9040  -34.9610   23.3750 C   0  0  0  0  0  0  0  0  0  0  0  0
  -26.5890  -34.8710   22.3520 O   0  0  0  0  0  0  0  0  0  0  0  0
  -24.9450  -34.0270   24.8900 H   0  0  0  0  0  0  0  0  0  0  0  0
  -24.1790  -36.7700   23.0320 C   0  0  0  0  0  1  0  0  0  0  0  0
  -25.4150  -36.3500   23.8450 C   0  0  0  0  0  3  0  0  0  0  0  0
  -27.5350  -37.2460   24.7070 C   0  0  0  0  0  1  0  0  0  0  0  0
  -26.4490  -37.4050   23.7440 N   0  0  0  0  0  0  0  0  0  0  0  0
  -26.0390  -38.3260   23.8730 H   0  0  0  0  0  0  0  0  0  0  0  0
  -26.3940  -31.7570   25.1050 C   0  0  1  0  0  0  0  0  0  0  0  0
  -25.2730  -31.5420   26.1500 C   0  0  0  0  0  1  0  0  0  0  0  0
  -26.9990  -30.3740   24.7880 C   0  0  0  0  0  1  0  0  0  0  0  0
  -27.5210  -32.5800   25.7730 C   0  0  0  0  0  1  0  0  0  0  0  0
  1  2  1  0
  3  5  1  0
  4  5  1  0
  5  7  1  0
  7  6  3  0
  8  6  1  0
  9 14  1  0
 10 11  1  0
 10  9  1  0
 12 11  1  0
 12 19  1  0
 12 13  1  0
 14  8  1  0
 14 13  1  0
 15  8  2  0
 16 17  2  0
 17 36  1  0
 18 17  1  0
 18 21  1  0
 19 20  1  0
 19 16  1  0
 20 18  2  0
 21 22  1  0
 22 23  2  0
 24 27  1  0
 24 23  1  0
 25 24  2  0
 26 25  1  0
 26 21  2  0
 27 28  1  0
 28 29  1  0
 29 30  2  0
 31 30  1  0
 31 35  1  0
 32 31  2  0
 33 28  2  0
 33 32  1  0
 34 33  1  0
 36 37  1  0
 37 40  1  0
 37 39  1  0
 38 36  2  0
 41 42  1  0
 41 16  1  0
 43 41  1  0
 45 56  2  0
 46 44  1  0
 46 51  1  0
 47 55  1  0
 47 57  1  0
 48 54  1  0
 48 50  1  0
 49 55  1  0
 50 49  1  0
 51 50  2  0
 52 46  2  0
 53 52  1  0
 53 48  2  0
 54 47  1  0
 55 45  1  0
 57 59  2  0
 58 57  1  0
 60 58  1  0
 61 70  2  0
 61 66  1  0
 62 58  1  0
 62 66  1  0
 63 62  1  0
 64 65  1  0
 64 63  1  0
 65 61  1  0
 66 67  2  0
 67 68  1  0
 69 68  2  0
 70 69  1  0
 71 45  1  0
 71 72  1  0
 71 81  1  0
 72 75  1  0
 73 77  1  0
 73 72  1  0
 74 73  2  0
 77 76  1  0
 79 77  1  0
 79 80  1  0
 79 78  1  0
 81 84  1  1
 81 82  1  0
 83 81  1  0
M  ISO  4   2 101   6 100   8 100  44 101
M  END
>  <TORSDO>  (36) 
F 18

>  <SCORE>  (36) 
-16.559

>  <name>  (36) 
35

>  <ligand_id>  (36) 
35

>  <original_smiles>  (36) 
[H]c1c([H])c([H])c2c(c1[H])C([H])([H])C([H])([H])C([H])([H])C2([H])N([H])C(=O)C1([H])N(C(=O)C([H])(N([H])C(=O)C([H])(N([H])C([H])([H])[H])C([H])([H])[H])C(C([H])([H])[H])(C([H])([H])[H])C([H])([H])[H])C([H])([H])c2c([H])c(OC([H])(C([H])([H])[H])C(C#CC(=O)N3C([H])([H])C([H])([H])C([H])([H])C([H])(n4nc(-c5c([H])c([H])c(Oc6c([H])c([H])c(F)c([H])c6F)c([H])c5[H])c(C(=O)N([H])[H])c4N([H])[H])C3([H])[H])(C([H])([H])[H])C([H])([H])[H])c([H])c([H])c2C1([H])[H]

>  <smiles>  (36) 
[H]c1c([H])c([H])c2c(c1[H])C([H])([H])C([H])([H])C([H])([H])C2([H])N([H])C(=O)C1([H])N(C(=O)C([H])(N([H])C(=O)C([H])(N([H])C([H])([H])[H])C([H])([H])[H])C(C([H])([H])[H])(C([H])([H])[H])C([H])([H])[H])C([H])([H])c2c([H])c(OC([H])(C([H])([H])[H])C(C#CC(=O)N3C([H])([H])C([H])([H])C([H])([H])C([H])(n4nc(-c5c([H])c([H])c(Oc6c([H])c([H])c(F)c([H])c6F)c([H])c5[H])c(C(=O)N([H])[H])c4N([H])[H])C3([H])[H])(C([H])([H])[H])C([H])([H])[H])c([H])c([H])c2C1([H])[H]

$$$$
36:0:0
     RDKit          3D

 93101  0  0  1  0  0  0  0  0999 V2000
  -28.9000  -19.3340   20.7500 C   0  0  0  0  0  3  0  0  0  0  0  0
  -29.4240  -20.0900   19.6770 C   0  0  0  0  0  0  0  0  0  0  0  0
  -29.1530  -17.9390   20.9040 C   0  0  0  0  0  0  0  0  0  0  0  0
  -30.2790  -19.3780   18.7750 C   0  0  0  0  0  0  0  0  0  0  0  0
  -30.4640  -17.9500   18.8670 C   0  0  0  0  0  0  0  0  0  0  0  0
  -29.9230  -17.1930   19.9590 C   0  0  0  0  0  0  0  0  0  0  0  0
  -28.5150  -17.2300   22.0900 C   0  0  0  0  0  1  0  0  0  0  0  0
  -30.9750  -20.1620   17.6640 C   0  0  0  0  0  1  0  0  0  0  0  0
  -31.1640  -17.2310   17.7160 C   0  0  0  0  0  1  0  0  0  0  0  0
  -30.7530  -14.6980   19.6970 C   0  0  0  0  0  0  0  0  0  0  0  0
  -30.4510  -12.5120   18.5610 C   0  0  0  0  0  2  0  0  0  0  0  0
  -29.3960  -12.7080   17.4480 C   0  0  0  0  0  2  0  0  0  0  0  0
  -27.9680  -12.5290   18.0030 C   0  0  0  0  0  2  0  0  0  0  0  0
  -27.7330  -13.3240   19.3150 C   0  0  0  0  0  3  0  0  0  0  0  0
  -28.8900  -13.1040   20.3160 C   0  0  0  0  0  2  0  0  0  0  0  0
  -30.1420  -13.4730   19.6360 N   0  0  0  0  0  0  0  0  0  0  0  0
  -31.8940  -14.8610   19.2570 O   0  0  0  0  0  0  0  0  0  0  0  0
  -29.9520  -15.7280   20.1240 N   0  0  0  0  0  0  0  0  0  0  0  0
  -29.1410  -15.3730   20.6040 H   0  0  0  0  0  0  0  0  0  0  0  0
  -25.4080  -13.8880   20.2520 C   0  0  0  0  0  0  0  0  0  0  0  0
  -24.3830  -13.0980   20.6960 C   0  0  0  0  0  0  0  0  0  0  0  0
  -24.8500  -11.7520   20.5960 C   0  0  0  0  0  0  0  0  0  0  0  0
  -26.4340  -13.0210   19.9090 N   0  0  0  0  0  0  0  0  0  0  0  0
  -26.1080  -11.7300   20.1750 N   0  0  0  0  0  0  0  0  0  0  0  0
  -24.1520  -10.4790   20.8210 C   0  0  0  0  0  0  0  0  0  0  0  0
  -24.6230   -9.5340   21.7580 C   0  0  0  0  0  3  0  0  0  0  0  0
  -23.9250   -8.3250   21.9700 C   0  0  0  0  0  3  0  0  0  0  0  0
  -22.7410   -8.0540   21.2430 C   0  0  0  0  0  0  0  0  0  0  0  0
  -22.2900   -8.9870   20.2950 C   0  0  0  0  0  3  0  0  0  0  0  0
  -22.9880  -10.1870   20.0810 C   0  0  0  0  0  3  0  0  0  0  0  0
  -22.0110   -6.8960   21.3640 O   0  0  0  0  0  0  0  0  0  0  0  0
  -21.9290   -6.2170   22.5540 C   0  0  0  0  0  0  0  0  0  0  0  0
  -21.4330   -6.8270   23.7270 C   0  0  0  0  0  3  0  0  0  0  0  0
  -21.3020   -6.0720   24.9100 C   0  0  0  0  0  3  0  0  0  0  0  0
  -21.6560   -4.7100   24.9200 C   0  0  0  0  0  0  0  0  0  0  0  0
  -22.1450   -4.1000   23.7510 C   0  0  0  0  0  3  0  0  0  0  0  0
  -22.2780   -4.8520   22.5710 C   0  0  0  0  0  0  0  0  0  0  0  0
  -22.7300   -4.2540   21.4420 F   0  0  0  0  0  0  0  0  0  0  0  0
  -21.5220   -3.9830   26.0550 F   0  0  0  0  0  0  0  0  0  0  0  0
  -23.0110  -13.5560   21.0980 C   0  0  0  0  0  0  0  0  0  0  0  0
  -22.3710  -12.8440   22.0170 N   0  0  0  0  0  0  0  0  0  0  0  0
  -22.5170  -14.5820   20.6300 O   0  0  0  0  0  0  0  0  0  0  0  0
  -22.7840  -12.0140   22.4160 H   0  0  0  0  0  0  0  0  0  0  0  0
  -21.4540  -13.1320   22.3280 H   0  0  0  0  0  0  0  0  0  0  0  0
  -25.5460  -15.2630   20.0890 N   0  0  0  0  0  0  0  0  0  0  0  0
  -24.7830  -15.9040   20.2740 H   0  0  0  0  0  0  0  0  0  0  0  0
  -26.3430  -15.7140   19.6570 H   0  0  0  0  0  0  0  0  0  0  0  0
  -28.8830  -21.5460   19.3730 C   0  0  0  0  0  2  0  0  0  0  0  0
  -29.1660  -22.6700   20.2670 O   0  0  0  0  0  0  0  0  0  0  0  0
  -30.3920  -24.3970   19.1370 C   0  0  0  0  0  1  0  0  0  0  0  0
  -29.0080  -24.0150   19.6770 C   0  0  0  0  0  3  0  0  0  0  0  0
  -28.4600  -25.1650   20.6320 C   0  0  0  0  0  2  0  0  0  0  0  0
  -28.5650  -26.5730   20.1910 O   0  0  0  0  0  0  0  0  0  0  0  0
  -24.7050  -31.8490   23.2320 C   0  0  0  0  0  0  0  0  0  0  0  0
  -27.4110  -27.3600   20.1900 C   0  0  0  0  0  0  0  0  0  0  0  0
  -23.5230  -30.4130   21.6060 C   0  0  0  0  0  3  0  0  0  0  0  0
  -25.0020  -28.8870   20.1830 C   0  0  0  0  0  0  0  0  0  0  0  0
  -26.0490  -30.8010   21.4000 C   0  0  0  0  0  2  0  0  0  0  0  0
  -26.1600  -29.4210   20.7640 C   0  0  0  0  0  0  0  0  0  0  0  0
  -27.3690  -28.6700   20.7520 C   0  0  0  0  0  3  0  0  0  0  0  0
  -26.2330  -26.8670   19.5910 C   0  0  0  0  0  3  0  0  0  0  0  0
  -25.0390  -27.6150   19.5880 C   0  0  0  0  0  3  0  0  0  0  0  0
  -23.7430  -29.7300   20.2300 C   0  0  0  0  0  2  0  0  0  0  0  0
  -24.7770  -31.0380   22.1370 N   0  0  0  0  0  0  0  0  0  0  0  0
  -23.6200  -32.1040   23.7740 O   0  0  0  0  0  0  0  0  0  0  0  0
  -22.8920  -29.3880   22.5780 C   0  0  0  0  0  0  0  0  0  0  0  0
  -21.5690  -29.1840   22.4640 N   0  0  0  0  0  0  0  0  0  0  0  0
  -23.5910  -28.7780   23.3910 O   0  0  0  0  0  0  0  0  0  0  0  0
  -21.0640  -29.7280   21.7790 H   0  0  0  0  0  0  0  0  0  0  0  0
  -18.2170  -27.9380   23.0090 C   0  0  0  0  0  0  0  0  0  0  0  0
  -20.7750  -28.2330   23.2440 C   0  0  0  0  0  3  0  0  0  0  0  0
  -20.8890  -26.8050   22.6650 C   0  0  0  0  0  2  0  0  0  0  0  0
  -19.7780  -26.4670   21.6660 C   0  0  0  0  0  2  0  0  0  0  0  0
  -18.4040  -26.5930   22.3290 C   0  0  0  0  0  2  0  0  0  0  0  0
  -19.3320  -28.7160   23.4240 C   0  0  0  0  0  0  0  0  0  0  0  0
  -19.1030  -29.9750   24.0210 C   0  0  0  0  0  3  0  0  0  0  0  0
  -17.7930  -30.4580   24.2050 C   0  0  0  0  0  3  0  0  0  0  0  0
  -16.6940  -29.6770   23.8060 C   0  0  0  0  0  3  0  0  0  0  0  0
  -16.9070  -28.4200   23.2140 C   0  0  0  0  0  3  0  0  0  0  0  0
  -25.9780  -32.5130   23.8430 C   0  0  0  0  0  3  0  0  0  0  0  0
  -26.5140  -31.7660   25.1250 C   0  0  1  0  0  0  0  0  0  0  0  0
  -25.4300  -31.5140   26.1990 C   0  0  0  0  0  1  0  0  0  0  0  0
  -27.1270  -30.3980   24.7440 C   0  0  0  0  0  1  0  0  0  0  0  0
  -27.6490  -32.5910   25.7770 C   0  0  0  0  0  1  0  0  0  0  0  0
  -25.6420  -33.9090   24.1620 N   0  0  0  0  0  0  0  0  0  0  0  0
  -25.9430  -34.9600   23.3870 C   0  0  0  0  0  0  0  0  0  0  0  0
  -26.6050  -34.8580   22.3500 O   0  0  0  0  0  0  0  0  0  0  0  0
  -25.0530  -34.0600   24.9670 H   0  0  0  0  0  0  0  0  0  0  0  0
  -24.1690  -36.7080   23.0380 C   0  0  0  0  0  1  0  0  0  0  0  0
  -25.4320  -36.3430   23.8340 C   0  0  0  0  0  3  0  0  0  0  0  0
  -27.5580  -37.2880   24.6200 C   0  0  0  0  0  1  0  0  0  0  0  0
  -26.4390  -37.4170   23.6900 N   0  0  0  0  0  0  0  0  0  0  0  0
  -26.0140  -38.3300   23.8290 H   0  0  0  0  0  0  0  0  0  0  0  0
  1  3  1  0
  2  1  2  0
  3  7  1  0
  4  5  2  0
  4  2  1  0
  5  6  1  0
  6 18  1  0
  6  3  2  0
  8  4  1  0
  9  5  1  0
 10 18  1  0
 11 16  1  0
 12 13  1  0
 12 11  1  0
 14 13  1  0
 14 23  1  0
 14 15  1  0
 16 10  1  0
 16 15  1  0
 17 10  2  0
 18 19  1  0
 20 21  2  0
 21 40  1  0
 22 21  1  0
 22 25  1  0
 23 24  1  0
 23 20  1  0
 24 22  2  0
 25 26  1  0
 26 27  2  0
 28 31  1  0
 28 27  1  0
 29 28  2  0
 30 29  1  0
 30 25  2  0
 31 32  1  0
 32 37  2  0
 32 33  1  0
 33 34  2  0
 34 35  1  0
 35 39  1  0
 36 35  2  0
 37 36  1  0
 38 37  1  0
 40 41  1  0
 41 44  1  0
 41 43  1  0
 42 40  2  0
 45 20  1  0
 45 46  1  0
 47 45  1  0
 48  2  1  0
 48 49  1  0
 51 50  1  0
 51 49  1  0
 51 52  1  0
 53 52  1  0
 54 65  2  0
 55 53  1  0
 55 60  1  0
 56 64  1  0
 56 66  1  0
 57 63  1  0
 57 59  1  0
 58 64  1  0
 59 58  1  0
 60 59  2  0
 61 55  2  0
 62 61  1  0
 62 57  2  0
 63 56  1  0
 64 54  1  0
 66 68  2  0
 67 66  1  0
 69 67  1  0
 70 79  2  0
 70 75  1  0
 71 67  1  0
 71 75  1  0
 72 71  1  0
 73 74  1  0
 73 72  1  0
 74 70  1  0
 75 76  2  0
 76 77  1  0
 78 77  2  0
 79 78  1  0
 80 54  1  0
 80 85  1  0
 80 81  1  0
 81 84  1  1
 81 82  1  0
 83 81  1  0
 85 88  1  0
 86 90  1  0
 86 85  1  0
 87 86  2  0
 90 89  1  0
 92 93  1  0
 92 90  1  0
 92 91  1  0
M  ISO  4  10 100  18 100  52 101  53 101
M  END
>  <TORSDO>  (37) 
F 20

>  <SCORE>  (37) 
-10.188

>  <name>  (37) 
36

>  <ligand_id>  (37) 
36

>  <original_smiles>  (37) 
[H]c1c([H])c([H])c2c(c1[H])C([H])([H])C([H])([H])C([H])([H])C2([H])N([H])C(=O)C1([H])N(C(=O)C([H])(N([H])C(=O)C([H])(N([H])C([H])([H])[H])C([H])([H])[H])C(C([H])([H])[H])(C([H])([H])[H])C([H])([H])[H])C([H])([H])c2c([H])c(OC([H])([H])C([H])(OC([H])([H])c3c([H])c(C([H])([H])[H])c(N([H])C(=O)N4C([H])([H])C([H])([H])C([H])([H])C([H])(n5nc(-c6c([H])c([H])c(Oc7c([H])c([H])c(F)c([H])c7F)c([H])c6[H])c(C(=O)N([H])[H])c5N([H])[H])C4([H])[H])c(C([H])([H])[H])c3C([H])([H])[H])C([H])([H])[H])c([H])c([H])c2C1([H])[H]

>  <smiles>  (37) 
[H]c1c([H])c([H])c2c(c1[H])C([H])([H])C([H])([H])C([H])([H])C2([H])N([H])C(=O)C1([H])N(C(=O)C([H])(N([H])C(=O)C([H])(N([H])C([H])([H])[H])C([H])([H])[H])C(C([H])([H])[H])(C([H])([H])[H])C([H])([H])[H])C([H])([H])c2c([H])c(OC([H])([H])C([H])(OC([H])([H])c3c([H])c(C([H])([H])[H])c(N([H])C(=O)N4C([H])([H])C([H])([H])C([H])([H])C([H])(n5nc(-c6c([H])c([H])c(Oc7c([H])c([H])c(F)c([H])c7F)c([H])c6[H])c(C(=O)N([H])[H])c5N([H])[H])C4([H])[H])c(C([H])([H])[H])c3C([H])([H])[H])C([H])([H])[H])c([H])c([H])c2C1([H])[H]

$$$$
37:0:0
     RDKit          3D

100104  0  0  1  0  0  0  0  0999 V2000
  -27.5270  -23.1630   20.0200 C   0  0  0  0  0  3  0  0  0  0  0  0
  -26.0200  -23.2220   20.0910 C   0  0  0  0  0  0  0  0  0  0  0  0
  -28.5110  -23.4990   21.0530 C   0  0  0  0  0  0  0  0  0  0  0  0
  -25.1610  -23.6440   21.2210 C   0  0  0  0  0  0  0  0  0  0  0  0
  -27.6480  -23.9470   22.1590 C   0  0  0  0  0  0  0  0  0  0  0  0
  -26.1450  -23.9880   22.2470 C   0  0  0  0  0  0  0  0  0  0  0  0
  -25.2930  -22.7350   18.8470 C   0  0  0  0  0  1  0  0  0  0  0  0
  -25.6190  -24.3420   23.4450 F   0  0  0  0  0  0  0  0  0  0  0  0
  -30.3000  -23.5470   21.1250 C   0  0  0  0  0  2  0  0  0  0  0  0
  -31.8190  -23.0720   20.2150 C   0  0  0  0  0  2  0  0  0  0  0  0
  -34.3710  -21.3540   20.4420 C   0  0  0  0  0  0  0  0  0  0  0  0
  -35.8370  -19.2690   19.7980 C   0  0  0  0  0  2  0  0  0  0  0  0
  -35.4600  -18.7760   18.3690 C   0  0  0  0  0  2  0  0  0  0  0  0
  -34.1100  -18.0260   18.3610 C   0  0  0  0  0  2  0  0  0  0  0  0
  -33.0740  -18.7510   19.2510 C   0  0  0  0  0  3  0  0  0  0  0  0
  -33.6310  -19.0040   20.6530 C   0  0  0  0  0  2  0  0  0  0  0  0
  -34.6590  -19.9820   20.4240 N   0  0  0  0  0  0  0  0  0  0  0  0
  -35.4200  -22.0370   20.3470 O   0  0  0  0  0  0  0  0  0  0  0  0
  -32.9230  -21.8000   20.4510 N   0  0  0  0  0  0  0  0  0  0  0  0
  -32.3820  -20.9610   20.6040 H   0  0  0  0  0  0  0  0  0  0  0  0
  -30.5450  -18.6160   19.2330 C   0  0  0  0  0  0  0  0  0  0  0  0
  -29.6930  -17.5670   19.4160 C   0  0  0  0  0  0  0  0  0  0  0  0
  -30.5180  -16.4290   19.6700 C   0  0  0  0  0  0  0  0  0  0  0  0
  -31.8110  -18.0790   19.3640 N   0  0  0  0  0  0  0  0  0  0  0  0
  -31.7940  -16.7730   19.6990 N   0  0  0  0  0  0  0  0  0  0  0  0
  -30.1760  -15.0150   19.8160 C   0  0  0  0  0  0  0  0  0  0  0  0
  -30.2760  -14.3570   21.0600 C   0  0  0  0  0  3  0  0  0  0  0  0
  -29.9280  -12.9950   21.1740 C   0  0  0  0  0  3  0  0  0  0  0  0
  -29.4740  -12.2850   20.0380 C   0  0  0  0  0  0  0  0  0  0  0  0
  -29.4020  -12.9410   18.7960 C   0  0  0  0  0  3  0  0  0  0  0  0
  -29.7540  -14.2940   18.6830 C   0  0  0  0  0  3  0  0  0  0  0  0
  -29.1350  -10.9550   20.0460 O   0  0  0  0  0  0  0  0  0  0  0  0
  -28.2730  -10.4420   20.9810 C   0  0  0  0  0  0  0  0  0  0  0  0
  -26.9630  -10.9440   21.1430 C   0  0  0  0  0  3  0  0  0  0  0  0
  -26.0880  -10.3390   22.0670 C   0  0  0  0  0  3  0  0  0  0  0  0
  -26.5160   -9.2300   22.8210 C   0  0  0  0  0  0  0  0  0  0  0  0
  -27.8180   -8.7270   22.6580 C   0  0  0  0  0  3  0  0  0  0  0  0
  -28.6940   -9.3300   21.7380 C   0  0  0  0  0  0  0  0  0  0  0  0
  -29.9410   -8.8300   21.5680 F   0  0  0  0  0  0  0  0  0  0  0  0
  -25.6730   -8.6440   23.7030 F   0  0  0  0  0  0  0  0  0  0  0  0
  -28.2040  -17.6000   19.2550 C   0  0  0  0  0  0  0  0  0  0  0  0
  -27.4920  -16.7660   20.0040 N   0  0  0  0  0  0  0  0  0  0  0  0
  -27.6630  -18.3990   18.4920 O   0  0  0  0  0  0  0  0  0  0  0  0
  -27.9400  -16.1250   20.6410 H   0  0  0  0  0  0  0  0  0  0  0  0
  -26.4840  -16.7690   19.9390 H   0  0  0  0  0  0  0  0  0  0  0  0
  -30.3580  -19.9630   18.9410 N   0  0  0  0  0  0  0  0  0  0  0  0
  -29.4310  -20.3240   18.7450 H   0  0  0  0  0  0  0  0  0  0  0  0
  -31.0970  -20.5910   18.6550 H   0  0  0  0  0  0  0  0  0  0  0  0
  -23.4110  -23.3520   21.4370 C   0  0  0  0  0  2  0  0  0  0  0  0
  -21.9110  -24.0990   21.8500 N   0  0  0  0  0  4  0  0  0  0  0  0
  -22.2200  -25.0320   22.0670 H   0  0  0  0  0  0  0  0  0  0  0  0
  -21.6650  -23.7010   22.7430 H   0  0  0  0  0  0  0  0  0  0  0  0
  -19.4160  -24.6840   22.2350 C   0  0  0  0  0  1  0  0  0  0  0  0
  -20.3480  -24.4000   20.9820 C   0  0  0  0  0  2  0  0  0  0  0  0
  -20.5290  -25.7950   18.4000 C   0  0  0  0  0  3  0  0  0  0  0  0
  -22.3740  -26.5210   17.8300 C   0  0  0  0  0  1  0  0  0  0  0  0
  -24.1570  -26.7010   18.2580 O   0  0  0  0  0  0  0  0  0  0  0  0
  -24.9920  -29.8730   22.6010 C   0  0  0  0  0  0  0  0  0  0  0  0
  -25.4050  -27.1390   17.6370 C   0  0  0  0  0  3  0  0  0  0  0  0
  -23.4060  -29.5900   20.7740 C   0  0  0  0  0  3  0  0  0  0  0  0
  -24.3640  -29.3470   18.3720 C   0  0  0  0  0  3  0  0  0  0  0  0
  -25.8990  -29.7630   20.2820 C   0  0  0  0  0  2  0  0  0  0  0  0
  -25.5560  -29.0160   19.0180 C   0  0  0  0  0  3  0  0  0  0  0  0
  -26.2490  -27.9090   18.5000 C   0  0  0  0  0  2  0  0  0  0  0  0
  -24.9790  -27.8410   16.5460 C   0  0  0  0  0  2  0  0  0  0  0  0
  -24.2010  -28.9130   17.0180 C   0  0  0  0  0  2  0  0  0  0  0  0
  -23.2840  -29.9540   19.2450 C   0  0  0  0  0  2  0  0  0  0  0  0
  -24.7910  -29.7860   21.2620 N   0  0  0  0  0  0  0  0  0  0  0  0
  -24.0420  -29.8870   23.4000 O   0  0  0  0  0  0  0  0  0  0  0  0
  -23.0090  -28.1500   21.2020 C   0  0  0  0  0  0  0  0  0  0  0  0
  -21.8080  -27.9130   21.6600 N   0  0  0  0  0  0  0  0  0  0  0  0
  -23.8030  -27.2200   21.2230 O   0  0  0  0  0  0  0  0  0  0  0  0
  -21.1700  -28.6870   21.7820 H   0  0  0  0  0  0  0  0  0  0  0  0
  -18.4660  -26.9440   20.6410 C   0  0  0  0  0  0  0  0  0  0  0  0
  -21.2070  -26.5610   21.6040 C   0  0  0  0  0  2  0  0  0  0  0  0
  -21.9450  -25.3220   20.1460 C   0  0  0  0  0 15  0  0  0  0  0  0
  -20.3030  -25.2200   18.4440 C   0  0  0  0  0  3  0  0  0  0  0  0
  -18.6720  -26.1910   19.0600 C   0  0  0  0  0  1  0  0  0  0  0  0
  -19.5680  -27.1640   21.6530 C   0  0  0  0  0  0  0  0  0  0  0  0
  -19.2310  -27.9950   22.7970 C   0  0  0  0  0  3  0  0  0  0  0  0
  -17.9430  -28.5040   23.1090 C   0  0  0  0  0  3  0  0  0  0  0  0
  -16.8750  -28.1470   22.2760 C   0  0  0  0  0  3  0  0  0  0  0  0
  -17.1440  -27.3930   21.0900 C   0  0  0  0  0  3  0  0  0  0  0  0
  -26.4250  -29.9850   23.1770 C   0  0  0  0  0  3  0  0  0  0  0  0
  -26.9150  -28.6650   23.8860 C   0  0  1  0  0  0  0  0  0  0  0  0
  -25.9060  -28.0910   24.9080 C   0  0  0  0  0  1  0  0  0  0  0  0
  -27.2150  -27.5550   22.8530 C   0  0  0  0  0  1  0  0  0  0  0  0
  -28.2430  -28.9500   24.6240 C   0  0  0  0  0  1  0  0  0  0  0  0
  -26.3990  -31.1090   24.1150 N   0  0  0  0  0  0  0  0  0  0  0  0
  -26.8330  -32.3410   23.8240 C   0  0  0  0  0  0  0  0  0  0  0  0
  -27.3860  -32.6220   22.7570 O   0  0  0  0  0  0  0  0  0  0  0  0
  -25.9110  -30.9630   24.9860 H   0  0  0  0  0  0  0  0  0  0  0  0
  -25.4410  -34.3230   24.5000 C   0  0  0  0  0  1  0  0  0  0  0  0
  -26.6280  -33.4300   24.8920 C   0  0  0  0  0  3  0  0  0  0  0  0
  -28.9380  -33.5290   25.7170 C   0  0  0  0  0  1  0  0  0  0  0  0
  -27.8290  -34.2630   25.1120 N   0  0  0  0  0  0  0  0  0  0  0  0
  -27.6120  -35.0570   25.7100 H   0  0  0  0  0  0  0  0  0  0  0  0
  -28.3460  -24.3500   23.2700 O   0  0  0  0  0  0  0  0  0  0  0  0
  -30.5910  -25.1540   23.4770 C   0  0  0  0  0  1  0  0  0  0  0  0
  -29.1570  -25.5020   23.0740 C   0  0  0  0  0  2  0  0  0  0  0  0
  1  2  2  0
  1  3  1  0
  2  4  1  0
  3  9  1  0
  3  5  2  0
  4 49  1  0
  4  6  2  0
  5  6  1  0
  5 98  1  0
  6  8  1  0
  7  2  1  0
 10 19  1  0
 10  9  1  0
 11 19  1  0
 12 17  1  0
 13 12  1  0
 14 13  1  0
 15 14  1  0
 15 24  1  0
 15 16  1  0
 17 11  1  0
 17 16  1  0
 18 11  2  0
 19 20  1  0
 21 24  1  0
 21 22  2  0
 22 23  1  0
 23 25  2  0
 23 26  1  0
 24 25  1  0
 26 27  1  0
 27 28  2  0
 29 32  1  0
 29 28  1  0
 30 29  2  0
 31 30  1  0
 31 26  2  0
 32 33  1  0
 33 34  2  0
 33 38  1  0
 34 35  1  0
 35 36  2  0
 36 40  1  0
 37 36  1  0
 38 37  2  0
 39 38  1  0
 41 22  1  0
 41 42  1  0
 42 44  1  0
 43 41  2  0
 45 42  1  0
 46 21  1  0
 47 46  1  0
 48 46  1  0
 49 50  1  0
 50 51  1  0
 50 52  1  0
 54 50  1  0
 54 53  1  0
 55 77  3  0
 56 57  1  0
 58 69  2  0
 59 57  1  0
 59 64  1  0
 60 70  1  0
 60 68  1  0
 61 66  1  0
 61 63  1  0
 61 67  1  0
 62 68  1  0
 63 64  1  0
 63 62  1  0
 65 66  1  0
 65 59  1  0
 67 60  1  0
 68 58  1  0
 70 72  2  0
 70 71  1  0
 71 73  1  0
 74 83  2  0
 74 79  1  0
 75 79  1  0
 75 71  1  0
 78 74  1  0
 79 80  2  0
 80 81  1  0
 82 81  2  0
 83 82  1  0
 84 58  1  0
 84 85  1  0
 84 89  1  0
 85 88  1  1
 85 86  1  0
 87 85  1  0
 89 92  1  0
 90 89  1  0
 90 94  1  0
 91 90  2  0
 94 93  1  0
 94 96  1  0
 96 97  1  0
 96 95  1  0
100 98  1  0
100 99  1  0
M  ISO  4  11 100  19 100  56 101  57 101
M  END
>  <TORSDO>  (38) 
F 25

>  <SCORE>  (38) 
-4.948

>  <name>  (38) 
37

>  <ligand_id>  (38) 
37

>  <original_smiles>  (38) 
[H]c1c([H])c([H])c2c(c1[H])C([H])([H])C([H])([H])C([H])([H])C2([H])N([H])C(=O)C1([H])N(C(=O)C([H])(N([H])C(=O)C([H])(N([H])C([H])([H])[H])C([H])([H])[H])C(C([H])([H])[H])(C([H])([H])[H])C([H])([H])[H])C([H])([H])c2c([H])c(OC([H])([H])C([H])([H])C([H])(C([H])([H])[H])[N+]([H])([H])C([H])([H])c3c(F)c(OC([H])([H])C([H])([H])[H])c(C([H])([H])C([H])([H])N([H])C(=O)N4C([H])([H])C([H])([H])C([H])([H])C([H])(n5nc(-c6c([H])c([H])c(Oc7c([H])c([H])c(F)c([H])c7F)c([H])c6[H])c(C(=O)N([H])[H])c5N([H])[H])C4([H])[H])c([H])c3C([H])([H])[H])c([H])c([H])c2C1([H])[H]

>  <smiles>  (38) 
[H]c1c([H])c([H])c2c(c1[H])C([H])([H])C([H])([H])C([H])([H])C2([H])N([H])C(=O)C1([H])N(C(=O)C([H])(N([H])C(=O)C([H])(N([H])C([H])([H])[H])C([H])([H])[H])C(C([H])([H])[H])(C([H])([H])[H])C([H])([H])[H])C([H])([H])c2c([H])c(OC([H])([H])C([H])([H])C([H])(C([H])([H])[H])[N+]([H])([H])C([H])([H])c3c(F)c(OC([H])([H])C([H])([H])[H])c(C([H])([H])C([H])([H])N([H])C(=O)N4C([H])([H])C([H])([H])C([H])([H])C([H])(n5nc(-c6c([H])c([H])c(Oc7c([H])c([H])c(F)c([H])c7F)c([H])c6[H])c(C(=O)N([H])[H])c5N([H])[H])C4([H])[H])c([H])c3C([H])([H])[H])c([H])c([H])c2C1([H])[H]

$$$$
38:0:0
     RDKit          3D

101110  0  0  1  0  0  0  0  0999 V2000
  -28.0470  -20.0670   20.6420 C   0  0  0  0  0  2  0  0  0  0  0  0
  -26.9230  -21.1220   20.7080 C   0  0  0  0  0  2  0  0  0  0  0  0
  -28.5770  -21.7150   19.0480 C   0  0  0  0  0  2  0  0  0  0  0  0
  -29.2680  -20.8150   20.0880 C   0  0  0  0  0  3  0  0  0  0  0  0
  -27.3730  -22.2980   19.8140 C   0  0  0  0  0  3  0  0  0  0  0  0
  -26.5180  -22.8280   17.4510 C   0  0  0  0  0  1  0  0  0  0  0  0
  -26.2410  -22.9490   18.9640 C   0  0  0  0  0  3  0  0  0  0  0  0
  -26.0010  -24.4440   19.3240 C   0  0  0  0  0  2  0  0  0  0  0  0
  -25.1900  -24.6940   20.6130 C   0  0  0  0  0  2  0  0  0  0  0  0
  -24.6850  -26.1470   20.7660 C   0  0  0  0  0  2  0  0  0  0  0  0
  -25.7010  -27.0600   21.1940 O   0  0  0  0  0  0  0  0  0  0  0  0
  -27.6800  -32.5300   25.3190 C   0  0  0  0  0  0  0  0  0  0  0  0
  -25.4410  -27.8050   22.3270 C   0  0  0  0  0  0  0  0  0  0  0  0
  -25.8740  -31.1010   26.2240 C   0  0  0  0  0  3  0  0  0  0  0  0
  -24.8790  -29.4090   24.5910 C   0  0  0  0  0  0  0  0  0  0  0  0
  -26.2280  -31.3140   23.6980 C   0  0  0  0  0  2  0  0  0  0  0  0
  -25.6880  -29.9060   23.5640 C   0  0  0  0  0  0  0  0  0  0  0  0
  -25.9800  -29.1060   22.4350 C   0  0  0  0  0  3  0  0  0  0  0  0
  -24.6500  -27.3070   23.3860 C   0  0  0  0  0  3  0  0  0  0  0  0
  -24.3640  -28.1030   24.5130 C   0  0  0  0  0  3  0  0  0  0  0  0
  -24.6080  -30.3310   25.7620 C   0  0  0  0  0  2  0  0  0  0  0  0
  -26.6540  -31.6660   25.0750 N   0  0  0  0  0  0  0  0  0  0  0  0
  -27.9540  -32.8900   26.4730 O   0  0  0  0  0  0  0  0  0  0  0  0
  -26.7080  -30.1690   27.1310 C   0  0  0  0  0  0  0  0  0  0  0  0
  -26.3630  -30.1270   28.4280 N   0  0  0  0  0  0  0  0  0  0  0  0
  -27.6230  -29.4860   26.6620 O   0  0  0  0  0  0  0  0  0  0  0  0
  -25.6140  -30.7310   28.7390 H   0  0  0  0  0  0  0  0  0  0  0  0
  -26.4010  -29.4260   31.9690 C   0  0  0  0  0  0  0  0  0  0  0  0
  -26.9850  -29.2930   29.4550 C   0  0  0  0  0  3  0  0  0  0  0  0
  -26.3530  -27.8810   29.4870 C   0  0  0  0  0  2  0  0  0  0  0  0
  -25.2000  -27.7600   30.4900 C   0  0  0  0  0  2  0  0  0  0  0  0
  -25.6840  -28.0870   31.9050 C   0  0  0  0  0  2  0  0  0  0  0  0
  -26.9970  -29.9990   30.8160 C   0  0  0  0  0  0  0  0  0  0  0  0
  -27.6180  -31.2620   30.9230 C   0  0  0  0  0  3  0  0  0  0  0  0
  -27.6510  -31.9470   32.1510 C   0  0  0  0  0  3  0  0  0  0  0  0
  -27.0740  -31.3670   33.2940 C   0  0  0  0  0  3  0  0  0  0  0  0
  -26.4550  -30.1090   33.2020 C   0  0  0  0  0  3  0  0  0  0  0  0
  -28.5400  -33.1260   24.1610 C   0  0  0  0  0  3  0  0  0  0  0  0
  -28.6750  -34.5680   24.4080 N   0  0  0  0  0  0  0  0  0  0  0  0
  -28.0480  -35.5210   23.7040 C   0  0  0  0  0  0  0  0  0  0  0  0
  -27.3440  -35.2740   22.7210 O   0  0  0  0  0  0  0  0  0  0  0  0
  -29.1890  -34.8410   25.2320 H   0  0  0  0  0  0  0  0  0  0  0  0
  -26.9510  -37.4660   24.8610 C   0  0  0  0  0  1  0  0  0  0  0  0
  -28.2320  -36.9790   24.1640 C   0  0  0  0  0  3  0  0  0  0  0  0
  -29.9240  -37.6900   22.5320 C   0  0  0  0  0  1  0  0  0  0  0  0
  -28.5800  -37.9050   23.0630 N   0  0  0  0  0  0  0  0  0  0  0  0
  -28.5120  -38.8720   23.3700 H   0  0  0  0  0  0  0  0  0  0  0  0
  -29.9580  -32.4470   24.0260 C   0  0  1  0  0  0  0  0  0  0  0  0
  -30.7540  -32.4000   25.3510 C   0  0  0  0  0  1  0  0  0  0  0  0
  -29.8220  -30.9950   23.5070 C   0  0  0  0  0  1  0  0  0  0  0  0
  -30.8050  -33.2080   22.9810 C   0  0  0  0  0  1  0  0  0  0  0  0
  -30.8890  -18.8830   20.5880 C   0  0  0  0  0  1  0  0  0  0  0  0
  -30.4950  -19.9740   19.5730 C   0  0  0  0  0  3  0  0  0  0  0  0
  -32.9210  -22.7580   17.1550 C   0  0  0  0  0  2  0  0  0  0  0  0
  -33.3570  -21.2950   17.0770 C   0  0  0  0  0  2  0  0  0  0  0  0
  -31.5930  -22.3320   19.2110 C   0  0  0  0  0  2  0  0  0  0  0  0
  -32.7200  -23.1980   18.6170 C   0  0  0  0  0  3  0  0  0  0  0  0
  -31.7850  -20.7920   19.1460 C   0  0  0  0  0  3  0  0  0  0  0  0
  -32.3980  -20.2990   17.7920 C   0  0  0  0  0  3  0  0  0  0  0  0
  -33.2860  -18.2300   16.7710 C   0  0  0  0  0  0  0  0  0  0  0  0
  -34.1960  -16.1810   15.7270 C   0  0  0  0  0  2  0  0  0  0  0  0
  -33.1130  -15.2400   15.1660 C   0  0  0  0  0  2  0  0  0  0  0  0
  -32.6380  -14.2620   16.2510 C   0  0  0  0  0  2  0  0  0  0  0  0
  -32.2510  -14.9910   17.5590 C   0  0  0  0  0  3  0  0  0  0  0  0
  -33.3400  -15.9890   17.9910 C   0  0  0  0  0  2  0  0  0  0  0  0
  -33.6560  -16.9170   16.8860 N   0  0  0  0  0  0  0  0  0  0  0  0
  -33.2020  -18.7640   15.6590 O   0  0  0  0  0  0  0  0  0  0  0  0
  -33.8530  -18.7710   19.1350 C   0  0  0  0  0  1  0  0  0  0  0  0
  -33.0600  -18.9640   17.9010 N   0  0  0  0  0  0  0  0  0  0  0  0
  -30.8000  -13.9280   19.4000 C   0  0  0  0  0  0  0  0  0  0  0  0
  -31.0040  -12.8470   20.2190 C   0  0  0  0  0  0  0  0  0  0  0  0
  -32.3040  -12.3520   19.8990 C   0  0  0  0  0  0  0  0  0  0  0  0
  -31.9500  -14.0490   18.6360 N   0  0  0  0  0  0  0  0  0  0  0  0
  -32.8800  -13.1240   18.9850 N   0  0  0  0  0  0  0  0  0  0  0  0
  -33.0120  -11.1530   20.3670 C   0  0  0  0  0  0  0  0  0  0  0  0
  -34.3750  -11.1940   20.7340 C   0  0  0  0  0  3  0  0  0  0  0  0
  -35.0290  -10.0310   21.1970 C   0  0  0  0  0  3  0  0  0  0  0  0
  -34.3170   -8.8120   21.3000 C   0  0  0  0  0  0  0  0  0  0  0  0
  -32.9670   -8.7710   20.9120 C   0  0  0  0  0  3  0  0  0  0  0  0
  -32.3190   -9.9290   20.4470 C   0  0  0  0  0  3  0  0  0  0  0  0
  -34.8750   -7.6270   21.7130 O   0  0  0  0  0  0  0  0  0  0  0  0
  -36.0670   -7.5900   22.3920 C   0  0  0  0  0  0  0  0  0  0  0  0
  -36.2970   -8.3830   23.5360 C   0  0  0  0  0  3  0  0  0  0  0  0
  -37.5100   -8.2630   24.2440 C   0  0  0  0  0  3  0  0  0  0  0  0
  -38.4880   -7.3460   23.8160 C   0  0  0  0  0  0  0  0  0  0  0  0
  -38.2580   -6.5490   22.6800 C   0  0  0  0  0  3  0  0  0  0  0  0
  -37.0490   -6.6690   21.9720 C   0  0  0  0  0  0  0  0  0  0  0  0
  -36.8230   -5.8860   20.8910 F   0  0  0  0  0  0  0  0  0  0  0  0
  -39.6500   -7.2240   24.4990 F   0  0  0  0  0  0  0  0  0  0  0  0
  -30.0110  -12.2470   21.1710 C   0  0  0  0  0  0  0  0  0  0  0  0
  -30.4910  -11.6120   22.2360 N   0  0  0  0  0  0  0  0  0  0  0  0
  -28.8010  -12.3780   21.0010 O   0  0  0  0  0  0  0  0  0  0  0  0
  -31.4840  -11.5230   22.3870 H   0  0  0  0  0  0  0  0  0  0  0  0
  -29.8540  -11.2130   22.9110 H   0  0  0  0  0  0  0  0  0  0  0  0
  -29.7330  -14.8020   19.2300 N   0  0  0  0  0  0  0  0  0  0  0  0
  -28.8620  -14.7060   19.7420 H   0  0  0  0  0  0  0  0  0  0  0  0
  -29.7160  -15.5580   18.5570 H   0  0  0  0  0  0  0  0  0  0  0  0
  -33.7290  -25.5310   18.3670 C   0  0  0  0  0  1  0  0  0  0  0  0
  -32.2020  -25.0850   20.2690 C   0  0  0  0  0  1  0  0  0  0  0  0
  -31.2780  -25.2410   17.9420 C   0  0  0  0  0  1  0  0  0  0  0  0
  -32.4720  -24.7390   18.7870 C   0  0  2  0  0  0  0  0  0  0  0  0
  1  2  1  0
  3  5  1  0
  3  4  1  0
  4 53  1  0
  4  1  1  0
  5  7  1  0
  5  2  1  0
  7  6  1  0
  7  8  1  0
  8  9  1  0
  9 10  1  0
 10 11  1  0
 11 13  1  0
 12 23  2  0
 13 18  2  0
 13 19  1  0
 14 24  1  0
 15 21  1  0
 16 22  1  0
 17 16  1  0
 17 15  2  0
 18 17  1  0
 19 20  2  0
 20 15  1  0
 21 14  1  0
 22 12  1  0
 22 14  1  0
 24 25  1  0
 25 27  1  0
 26 24  2  0
 28 37  1  0
 29 25  1  0
 29 30  1  0
 29 33  1  0
 30 31  1  0
 31 32  1  0
 32 28  1  0
 33 34  1  0
 33 28  2  0
 34 35  2  0
 35 36  1  0
 37 36  2  0
 38 39  1  0
 38 12  1  0
 39 42  1  0
 40 44  1  0
 40 39  1  0
 41 40  2  0
 44 43  1  0
 45 46  1  0
 46 47  1  0
 46 44  1  0
 48 38  1  0
 48 49  1  1
 50 48  1  0
 51 48  1  0
 53 52  1  0
 54 57  1  0
 55 54  1  0
 55 59  1  0
 57101  1  0
 57 56  1  0
 58 56  1  0
 58 53  1  0
 59 69  1  0
 59 58  1  0
 60 66  1  0
 60 69  1  0
 61 66  1  0
 62 61  1  0
 62 63  1  0
 64 63  1  0
 64 65  1  0
 64 73  1  0
 66 65  1  0
 67 60  2  0
 69 68  1  0
 70 71  2  0
 71 90  1  0
 72 71  1  0
 72 75  1  0
 73 74  1  0
 73 70  1  0
 74 72  2  0
 75 80  2  0
 75 76  1  0
 76 77  2  0
 77 78  1  0
 78 81  1  0
 79 78  2  0
 80 79  1  0
 81 82  1  0
 82 83  1  0
 83 84  2  0
 85 84  1  0
 85 89  1  0
 86 85  2  0
 87 82  2  0
 87 86  1  0
 88 87  1  0
 90 91  1  0
 91 93  1  0
 91 94  1  0
 92 90  2  0
 95 70  1  0
 95 96  1  0
 97 95  1  0
101 98  1  6
100101  1  0
101 99  1  0
M  ISO  4  10 101  11 101  60 100  69 100
M  END
>  <TORSDO>  (39) 
F 23

>  <SCORE>  (39) 
-4.964

>  <name>  (39) 
38

>  <ligand_id>  (39) 
38

>  <original_smiles>  (39) 
[H]c1c([H])c([H])c2c(c1[H])C([H])([H])C([H])([H])C([H])([H])C2([H])N([H])C(=O)C1([H])N(C(=O)C([H])(N([H])C(=O)C([H])(N([H])C([H])([H])[H])C([H])([H])[H])C(C([H])([H])[H])(C([H])([H])[H])C([H])([H])[H])C([H])([H])c2c([H])c(OC([H])([H])C([H])([H])C([H])([H])C([H])(C([H])([H])[H])C3([H])C([H])([H])C([H])([H])C([H])(C([H])(C([H])([H])[H])C4([H])C([H])([H])C([H])(C(C([H])([H])[H])(C([H])([H])[H])C([H])([H])[H])C([H])([H])C([H])([H])C4([H])N(C(=O)N4C([H])([H])C([H])([H])C([H])([H])C([H])(n5nc(-c6c([H])c([H])c(Oc7c([H])c([H])c(F)c([H])c7F)c([H])c6[H])c(C(=O)N([H])[H])c5N([H])[H])C4([H])[H])C([H])([H])[H])C3([H])[H])c([H])c([H])c2C1([H])[H]

>  <smiles>  (39) 
[H]c1c([H])c([H])c2c(c1[H])C([H])([H])C([H])([H])C([H])([H])C2([H])N([H])C(=O)C1([H])N(C(=O)C([H])(N([H])C(=O)C([H])(N([H])C([H])([H])[H])C([H])([H])[H])C(C([H])([H])[H])(C([H])([H])[H])C([H])([H])[H])C([H])([H])c2c([H])c(OC([H])([H])C([H])([H])C([H])([H])C([H])(C([H])([H])[H])C3([H])C([H])([H])C([H])([H])C([H])(C([H])(C([H])([H])[H])C4([H])C([H])([H])C([H])(C(C([H])([H])[H])(C([H])([H])[H])C([H])([H])[H])C([H])([H])C([H])([H])C4([H])N(C(=O)N4C([H])([H])C([H])([H])C([H])([H])C([H])(n5nc(-c6c([H])c([H])c(Oc7c([H])c([H])c(F)c([H])c7F)c([H])c6[H])c(C(=O)N([H])[H])c5N([H])[H])C4([H])[H])C([H])([H])[H])C3([H])[H])c([H])c([H])c2C1([H])[H]

$$$$
39:0:0
     RDKit          3D

 90 98  0  0  1  0  0  0  0  0999 V2000
  -28.9700  -21.3870   20.6950 C   0  0  0  0  0  0  0  0  0  0  0  0
  -28.6920  -22.3020   19.5470 C   0  0  0  0  0  0  0  0  0  0  0  0
  -29.3420  -19.8890   20.7290 C   0  0  0  0  0  0  0  0  0  0  0  0
  -28.9140  -21.3080   18.4480 C   0  0  0  0  0  0  0  0  0  0  0  0
  -29.5560  -18.9020   19.6240 C   0  0  0  0  0  0  0  0  0  0  0  0
  -29.2950  -19.8170   18.4800 C   0  0  0  0  0  0  0  0  0  0  0  0
  -28.8070  -22.0700   22.0480 C   0  0  0  0  0  1  0  0  0  0  0  0
  -29.5020  -19.2770   22.1170 C   0  0  0  0  0  1  0  0  0  0  0  0
  -28.6580  -21.8620   17.0570 C   0  0  0  0  0  1  0  0  0  0  0  0
  -29.3500  -19.2030   17.2730 F   0  0  0  0  0  0  0  0  0  0  0  0
  -30.5750  -15.9030   19.5820 C   0  0  0  0  0  0  0  0  0  0  0  0
  -30.7320  -13.3270   18.8890 C   0  0  0  0  0  2  0  0  0  0  0  0
  -29.7600  -12.8480   17.7730 C   0  0  0  0  0  2  0  0  0  0  0  0
  -28.3910  -12.4690   18.3580 C   0  0  0  0  0  2  0  0  0  0  0  0
  -27.9310  -13.5000   19.4130 C   0  0  0  0  0  3  0  0  0  0  0  0
  -29.0340  -13.8870   20.4250 C   0  0  0  0  0  2  0  0  0  0  0  0
  -30.1330  -14.5110   19.6520 N   0  0  0  0  0  0  0  0  0  0  0  0
  -31.7780  -15.9100   19.2570 O   0  0  0  0  0  0  0  0  0  0  0  0
  -29.7180  -17.1870   19.7340 N   0  0  0  0  0  0  0  0  0  0  0  0
  -28.8370  -16.8330   20.0740 H   0  0  0  0  0  0  0  0  0  0  0  0
  -25.6810  -13.9940   20.4870 C   0  0  0  0  0  0  0  0  0  0  0  0
  -24.6590  -13.1980   20.9150 C   0  0  0  0  0  0  0  0  0  0  0  0
  -25.0980  -11.8510   20.7260 C   0  0  0  0  0  0  0  0  0  0  0  0
  -26.6750  -13.1360   20.0540 N   0  0  0  0  0  0  0  0  0  0  0  0
  -26.3460  -11.8340   20.2630 N   0  0  0  0  0  0  0  0  0  0  0  0
  -24.3750  -10.5840   20.9010 C   0  0  0  0  0  0  0  0  0  0  0  0
  -24.7690   -9.6340   21.8700 C   0  0  0  0  0  3  0  0  0  0  0  0
  -24.0410   -8.4350   22.0340 C   0  0  0  0  0  3  0  0  0  0  0  0
  -22.9050   -8.1770   21.2300 C   0  0  0  0  0  0  0  0  0  0  0  0
  -22.5310   -9.1160   20.2510 C   0  0  0  0  0  3  0  0  0  0  0  0
  -23.2600  -10.3060   20.0850 C   0  0  0  0  0  3  0  0  0  0  0  0
  -22.1540   -7.0290   21.3020 O   0  0  0  0  0  0  0  0  0  0  0  0
  -21.8660   -6.4300   22.5010 C   0  0  0  0  0  0  0  0  0  0  0  0
  -21.1530   -7.1050   23.5180 C   0  0  0  0  0  3  0  0  0  0  0  0
  -20.8180   -6.4300   24.7080 C   0  0  0  0  0  3  0  0  0  0  0  0
  -21.1840   -5.0820   24.8820 C   0  0  0  0  0  0  0  0  0  0  0  0
  -21.8890   -4.4070   23.8690 C   0  0  0  0  0  3  0  0  0  0  0  0
  -22.2250   -5.0800   22.6810 C   0  0  0  0  0  0  0  0  0  0  0  0
  -22.8860   -4.4200   21.7000 F   0  0  0  0  0  0  0  0  0  0  0  0
  -20.8560   -4.4310   26.0230 F   0  0  0  0  0  0  0  0  0  0  0  0
  -23.3090  -13.6650   21.3750 C   0  0  0  0  0  0  0  0  0  0  0  0
  -22.6770  -12.9200   22.2750 N   0  0  0  0  0  0  0  0  0  0  0  0
  -22.8310  -14.7240   20.9720 O   0  0  0  0  0  0  0  0  0  0  0  0
  -23.0820  -12.0620   22.6200 H   0  0  0  0  0  0  0  0  0  0  0  0
  -21.7760  -13.2130   22.6240 H   0  0  0  0  0  0  0  0  0  0  0  0
  -25.8410  -15.3740   20.3940 N   0  0  0  0  0  0  0  0  0  0  0  0
  -25.0930  -16.0160   20.6350 H   0  0  0  0  0  0  0  0  0  0  0  0
  -26.6230  -15.8310   19.9440 H   0  0  0  0  0  0  0  0  0  0  0  0
  -27.8720  -23.9910   19.5060 C   0  0  0  0  0  2  0  0  0  0  0  0
  -28.1440  -25.7110   19.6820 O   0  0  0  0  0  0  0  0  0  0  0  0
  -24.6240  -31.7360   23.0770 C   0  0  0  0  0  0  0  0  0  0  0  0
  -27.1580  -26.9120   19.7130 C   0  0  0  0  0  0  0  0  0  0  0  0
  -23.4100  -30.4050   21.4050 C   0  0  0  0  0  3  0  0  0  0  0  0
  -24.8430  -28.8810   19.8480 C   0  0  0  0  0  0  0  0  0  0  0  0
  -25.9770  -30.6220   21.2020 C   0  0  0  0  0  2  0  0  0  0  0  0
  -26.0520  -29.2320   20.4610 C   0  0  0  0  0  0  0  0  0  0  0  0
  -27.1920  -28.2760   20.3650 C   0  0  0  0  0  3  0  0  0  0  0  0
  -25.9100  -26.7730   19.0530 C   0  0  0  0  0  3  0  0  0  0  0  0
  -24.8090  -27.6800   19.1200 C   0  0  0  0  0  3  0  0  0  0  0  0
  -23.6150  -29.7950   19.9880 C   0  0  0  0  0  2  0  0  0  0  0  0
  -24.6950  -30.9510   21.9480 N   0  0  0  0  0  0  0  0  0  0  0  0
  -23.5440  -31.9800   23.6430 O   0  0  0  0  0  0  0  0  0  0  0  0
  -22.7530  -29.3550   22.3430 C   0  0  0  0  0  0  0  0  0  0  0  0
  -21.4290  -29.1360   22.2170 N   0  0  0  0  0  0  0  0  0  0  0  0
  -23.4450  -28.7390   23.1560 O   0  0  0  0  0  0  0  0  0  0  0  0
  -20.9180  -29.6870   21.5430 H   0  0  0  0  0  0  0  0  0  0  0  0
  -18.1200  -27.7090   22.6770 C   0  0  0  0  0  0  0  0  0  0  0  0
  -20.6580  -28.1300   22.9580 C   0  0  0  0  0  3  0  0  0  0  0  0
  -20.8490  -26.7220   22.3470 C   0  0  0  0  0  2  0  0  0  0  0  0
  -19.7740  -26.3600   21.3170 C   0  0  0  0  0  2  0  0  0  0  0  0
  -18.3840  -26.3960   21.9590 C   0  0  0  0  0  2  0  0  0  0  0  0
  -19.1870  -28.5300   23.1320 C   0  0  0  0  0  0  0  0  0  0  0  0
  -18.8830  -29.7530   23.7690 C   0  0  0  0  0  3  0  0  0  0  0  0
  -17.5470  -30.1570   23.9520 C   0  0  0  0  0  3  0  0  0  0  0  0
  -16.4960  -29.3350   23.5100 C   0  0  0  0  0  3  0  0  0  0  0  0
  -16.7840  -28.1130   22.8780 C   0  0  0  0  0  3  0  0  0  0  0  0
  -25.8950  -32.3790   23.7100 C   0  0  0  0  0  3  0  0  0  0  0  0
  -25.5620  -33.7600   24.1090 N   0  0  0  0  0  0  0  0  0  0  0  0
  -25.8290  -34.8600   23.3910 C   0  0  0  0  0  0  0  0  0  0  0  0
  -26.4390  -34.8180   22.3200 O   0  0  0  0  0  0  0  0  0  0  0  0
  -25.0110  -33.8630   24.9480 H   0  0  0  0  0  0  0  0  0  0  0  0
  -24.0310  -36.6210   23.2570 C   0  0  0  0  0  1  0  0  0  0  0  0
  -25.3470  -36.2180   23.9420 C   0  0  0  0  0  3  0  0  0  0  0  0
  -27.5120  -37.1510   24.6340 C   0  0  0  0  0  1  0  0  0  0  0  0
  -26.3370  -37.3070   23.7820 N   0  0  0  0  0  0  0  0  0  0  0  0
  -25.9150  -38.2090   23.9860 H   0  0  0  0  0  0  0  0  0  0  0  0
  -26.4370  -31.5780   24.9590 C   0  0  1  0  0  0  0  0  0  0  0  0
  -25.3590  -31.2930   26.0330 C   0  0  0  0  0  1  0  0  0  0  0  0
  -27.0370  -30.2210   24.5310 C   0  0  0  0  0  1  0  0  0  0  0  0
  -27.5840  -32.3690   25.6310 C   0  0  0  0  0  1  0  0  0  0  0  0
  1  3  1  0
  1  7  1  0
  2  1  2  0
  3  8  1  0
  4  6  2  0
  4  2  1  0
  5 19  1  0
  5  3  2  0
  6  5  1  0
  9  4  1  0
 10  6  1  0
 11 17  1  0
 11 19  1  0
 12 17  1  0
 13 14  1  0
 13 12  1  0
 15 14  1  0
 15 24  1  0
 15 16  1  0
 17 16  1  0
 18 11  2  0
 19 20  1  0
 21 22  2  0
 22 41  1  0
 23 26  1  0
 23 22  1  0
 24 25  1  0
 24 21  1  0
 25 23  2  0
 26 27  1  0
 27 28  2  0
 29 32  1  0
 29 28  1  0
 30 29  2  0
 31 30  1  0
 31 26  2  0
 32 33  1  0
 33 38  2  0
 33 34  1  0
 34 35  2  0
 35 36  1  0
 36 40  1  0
 37 36  2  0
 38 37  1  0
 39 38  1  0
 41 42  1  0
 42 44  1  0
 42 45  1  0
 43 41  2  0
 46 21  1  0
 46 47  1  0
 48 46  1  0
 49  2  1  0
 49 50  1  0
 50 52  1  0
 51 62  2  0
 52 57  1  0
 53 61  1  0
 53 63  1  0
 54 60  1  0
 54 56  1  0
 55 61  1  0
 56 55  1  0
 57 56  2  0
 58 59  1  0
 58 52  2  0
 59 54  2  0
 60 53  1  0
 61 51  1  0
 63 65  2  0
 64 63  1  0
 66 64  1  0
 67 76  2  0
 67 72  1  0
 68 64  1  0
 68 72  1  0
 69 68  1  0
 70 71  1  0
 70 69  1  0
 71 67  1  0
 72 73  2  0
 73 74  1  0
 75 74  2  0
 76 75  1  0
 77 51  1  0
 77 78  1  0
 77 87  1  0
 78 81  1  0
 79 83  1  0
 79 78  1  0
 80 79  2  0
 83 82  1  0
 85 83  1  0
 85 86  1  0
 85 84  1  0
 87 90  1  1
 87 88  1  0
 89 87  1  0
M  ISO  4  11 100  19 100  49 101  50 101
M  END
>  <TORSDO>  (40) 
F 17

>  <SCORE>  (40) 
-14.158

>  <name>  (40) 
39

>  <ligand_id>  (40) 
39

>  <original_smiles>  (40) 
[H]c1c([H])c([H])c2c(c1[H])C([H])([H])C([H])([H])C([H])([H])C2([H])N([H])C(=O)C1([H])N(C(=O)C([H])(N([H])C(=O)C([H])(N([H])C([H])([H])[H])C([H])([H])[H])C(C([H])([H])[H])(C([H])([H])[H])C([H])([H])[H])C([H])([H])c2c([H])c(OC([H])([H])c3c(C([H])([H])[H])c(F)c(N([H])C(=O)N4C([H])([H])C([H])([H])C([H])([H])C([H])(n5nc(-c6c([H])c([H])c(Oc7c([H])c([H])c(F)c([H])c7F)c([H])c6[H])c(C(=O)N([H])[H])c5N([H])[H])C4([H])[H])c(C([H])([H])[H])c3C([H])([H])[H])c([H])c([H])c2C1([H])[H]

>  <smiles>  (40) 
[H]c1c([H])c([H])c2c(c1[H])C([H])([H])C([H])([H])C([H])([H])C2([H])N([H])C(=O)C1([H])N(C(=O)C([H])(N([H])C(=O)C([H])(N([H])C([H])([H])[H])C([H])([H])[H])C(C([H])([H])[H])(C([H])([H])[H])C([H])([H])[H])C([H])([H])c2c([H])c(OC([H])([H])c3c(C([H])([H])[H])c(F)c(N([H])C(=O)N4C([H])([H])C([H])([H])C([H])([H])C([H])(n5nc(-c6c([H])c([H])c(Oc7c([H])c([H])c(F)c([H])c7F)c([H])c6[H])c(C(=O)N([H])[H])c5N([H])[H])C4([H])[H])c(C([H])([H])[H])c3C([H])([H])[H])c([H])c([H])c2C1([H])[H]

$$$$
40:0:0
     RDKit          3D

 89 97  0  0  1  0  0  0  0  0999 V2000
  -30.3050  -16.1040   19.6870 C   0  0  0  0  0  0  0  0  0  0  0  0
  -30.4760  -13.4820   19.0990 C   0  0  0  0  0  2  0  0  0  0  0  0
  -29.5790  -12.9030   17.9620 C   0  0  0  0  0  2  0  0  0  0  0  0
  -28.2060  -12.4970   18.5060 C   0  0  0  0  0  2  0  0  0  0  0  0
  -27.6630  -13.5720   19.4670 C   0  0  0  0  0  3  0  0  0  0  0  0
  -28.6910  -14.0810   20.5090 C   0  0  0  0  0  2  0  0  0  0  0  0
  -29.8290  -14.7080   19.7900 N   0  0  0  0  0  0  0  0  0  0  0  0
  -31.5050  -16.0110   19.3400 O   0  0  0  0  0  0  0  0  0  0  0  0
  -29.5450  -20.0580   20.7960 C   0  0  0  0  0  3  0  0  0  0  0  0
  -28.9390  -20.4410   19.5440 C   0  0  0  0  0  0  0  0  0  0  0  0
  -30.0040  -18.7200   20.9720 C   0  0  0  0  0  0  0  0  0  0  0  0
  -29.0220  -18.9950   19.0620 C   0  0  0  0  0  0  0  0  0  0  0  0
  -28.4610  -18.5870   17.7370 C   0  0  0  0  0  1  0  0  0  0  0  0
  -29.6940  -17.8200   19.8840 N   0  0  0  0  0  0  0  0  0  0  0  0
  -25.3710  -14.0570   20.4360 C   0  0  0  0  0  0  0  0  0  0  0  0
  -24.3390  -13.2610   20.8380 C   0  0  0  0  0  0  0  0  0  0  0  0
  -24.8000  -11.9140   20.7010 C   0  0  0  0  0  0  0  0  0  0  0  0
  -26.3900  -13.2020   20.0640 N   0  0  0  0  0  0  0  0  0  0  0  0
  -26.0670  -11.9000   20.2920 N   0  0  0  0  0  0  0  0  0  0  0  0
  -24.0810  -10.6440   20.8750 C   0  0  0  0  0  0  0  0  0  0  0  0
  -24.4350   -9.7240   21.8870 C   0  0  0  0  0  3  0  0  0  0  0  0
  -23.7080   -8.5240   22.0500 C   0  0  0  0  0  3  0  0  0  0  0  0
  -22.6140   -8.2350   21.1990 C   0  0  0  0  0  0  0  0  0  0  0  0
  -22.2800   -9.1430   20.1790 C   0  0  0  0  0  3  0  0  0  0  0  0
  -23.0080  -10.3340   20.0150 C   0  0  0  0  0  3  0  0  0  0  0  0
  -21.8700   -7.0800   21.2660 O   0  0  0  0  0  0  0  0  0  0  0  0
  -21.5390   -6.5030   22.4650 C   0  0  0  0  0  0  0  0  0  0  0  0
  -20.7730   -7.1880   23.4340 C   0  0  0  0  0  3  0  0  0  0  0  0
  -20.3950   -6.5360   24.6240 C   0  0  0  0  0  3  0  0  0  0  0  0
  -20.7750   -5.1980   24.8460 C   0  0  0  0  0  0  0  0  0  0  0  0
  -21.5330   -4.5110   23.8800 C   0  0  0  0  0  3  0  0  0  0  0  0
  -21.9090   -5.1620   22.6910 C   0  0  0  0  0  0  0  0  0  0  0  0
  -22.6200   -4.4890   21.7550 F   0  0  0  0  0  0  0  0  0  0  0  0
  -20.4060   -4.5680   25.9860 F   0  0  0  0  0  0  0  0  0  0  0  0
  -22.9670  -13.7220   21.2310 C   0  0  0  0  0  0  0  0  0  0  0  0
  -22.3120  -13.0010   22.1300 N   0  0  0  0  0  0  0  0  0  0  0  0
  -22.4930  -14.7640   20.7790 O   0  0  0  0  0  0  0  0  0  0  0  0
  -22.7060  -12.1510   22.5030 H   0  0  0  0  0  0  0  0  0  0  0  0
  -21.4010  -13.3000   22.4510 H   0  0  0  0  0  0  0  0  0  0  0  0
  -25.5330  -15.4390   20.3230 N   0  0  0  0  0  0  0  0  0  0  0  0
  -24.7990  -16.0990   20.5530 H   0  0  0  0  0  0  0  0  0  0  0  0
  -26.3790  -15.8860   19.9950 H   0  0  0  0  0  0  0  0  0  0  0  0
  -30.6550  -19.3330   23.3700 C   0  0  0  0  0  1  0  0  0  0  0  0
  -32.3050  -18.2490   21.9230 C   0  0  0  0  0  1  0  0  0  0  0  0
  -30.2660  -16.9800   22.7950 C   0  0  0  0  0  1  0  0  0  0  0  0
  -30.7920  -18.3040   22.2140 C   0  0  2  0  0  0  0  0  0  0  0  0
  -28.5080  -22.2260   18.9590 C   0  0  0  0  0  3  0  0  0  0  0  0
  -27.7400  -23.9670   19.4550 C   0  0  0  0  0  3  0  0  0  0  0  0
  -27.6670  -25.6910   19.0090 O   0  0  0  0  0  0  0  0  0  0  0  0
  -24.4630  -31.7480   22.7700 C   0  0  0  0  0  0  0  0  0  0  0  0
  -26.6760  -26.8810   19.2150 C   0  0  0  0  0  0  0  0  0  0  0  0
  -23.1110  -30.4380   21.1920 C   0  0  0  0  0  3  0  0  0  0  0  0
  -24.3980  -28.8890   19.5330 C   0  0  0  0  0  0  0  0  0  0  0  0
  -25.6550  -30.6260   20.7820 C   0  0  0  0  0  2  0  0  0  0  0  0
  -25.6580  -29.2260   20.0450 C   0  0  0  0  0  0  0  0  0  0  0  0
  -26.7800  -28.2560   19.8500 C   0  0  0  0  0  3  0  0  0  0  0  0
  -25.3740  -26.7570   18.6680 C   0  0  0  0  0  3  0  0  0  0  0  0
  -24.2920  -27.6800   18.8180 C   0  0  0  0  0  3  0  0  0  0  0  0
  -23.2060  -29.8370   19.7600 C   0  0  0  0  0  2  0  0  0  0  0  0
  -24.4410  -30.9680   21.6350 N   0  0  0  0  0  0  0  0  0  0  0  0
  -23.4310  -31.9990   23.4170 O   0  0  0  0  0  0  0  0  0  0  0  0
  -22.5130  -29.3900   22.1680 C   0  0  0  0  0  0  0  0  0  0  0  0
  -21.1770  -29.2210   22.1820 N   0  0  0  0  0  0  0  0  0  0  0  0
  -23.2640  -28.7290   22.8900 O   0  0  0  0  0  0  0  0  0  0  0  0
  -20.6170  -29.8250   21.5950 H   0  0  0  0  0  0  0  0  0  0  0  0
  -17.8780  -27.9200   23.0000 C   0  0  0  0  0  0  0  0  0  0  0  0
  -20.4500  -28.2180   22.9770 C   0  0  0  0  0  3  0  0  0  0  0  0
  -20.4960  -26.8240   22.3070 C   0  0  0  0  0  2  0  0  0  0  0  0
  -19.2870  -26.5470   21.4070 C   0  0  0  0  0  2  0  0  0  0  0  0
  -17.9880  -26.6240   22.2150 C   0  0  0  0  0  2  0  0  0  0  0  0
  -19.0320  -28.6750   23.3450 C   0  0  0  0  0  0  0  0  0  0  0  0
  -18.8700  -29.8840   24.0530 C   0  0  0  0  0  3  0  0  0  0  0  0
  -17.5880  -30.3420   24.4130 C   0  0  0  0  0  3  0  0  0  0  0  0
  -16.4510  -29.5900   24.0740 C   0  0  0  0  0  3  0  0  0  0  0  0
  -16.5980  -28.3780   23.3740 C   0  0  0  0  0  3  0  0  0  0  0  0
  -25.7830  -32.3780   23.3080 C   0  0  0  0  0  3  0  0  0  0  0  0
  -25.4630  -33.7050   23.8760 N   0  0  0  0  0  0  0  0  0  0  0  0
  -25.7130  -34.8790   23.2800 C   0  0  0  0  0  0  0  0  0  0  0  0
  -26.2940  -34.9600   22.1950 O   0  0  0  0  0  0  0  0  0  0  0  0
  -24.9370  -33.7100   24.7370 H   0  0  0  0  0  0  0  0  0  0  0  0
  -23.9640  -36.6980   23.3390 C   0  0  0  0  0  1  0  0  0  0  0  0
  -25.2490  -36.1670   23.9980 C   0  0  0  0  0  3  0  0  0  0  0  0
  -27.4240  -36.9290   24.8540 C   0  0  0  0  0  1  0  0  0  0  0  0
  -26.2710  -37.2370   24.0110 N   0  0  0  0  0  0  0  0  0  0  0  0
  -25.8700  -38.1160   24.3280 H   0  0  0  0  0  0  0  0  0  0  0  0
  -26.4880  -31.4870   24.4070 C   0  0  1  0  0  0  0  0  0  0  0  0
  -25.5600  -31.0810   25.5760 C   0  0  0  0  0  1  0  0  0  0  0  0
  -27.0470  -30.1880   23.7820 C   0  0  0  0  0  1  0  0  0  0  0  0
  -27.6960  -32.2480   25.0000 C   0  0  0  0  0  1  0  0  0  0  0  0
  1  7  1  0
  1 14  1  0
  2  7  1  0
  3  4  1  0
  3  2  1  0
  5  4  1  0
  5 18  1  0
  5  6  1  0
  7  6  1  0
  8  1  2  0
  9 11  2  0
 10  9  1  0
 11 46  1  0
 12 10  2  0
 12 14  1  0
 13 12  1  0
 14 11  1  0
 15 16  2  0
 16 35  1  0
 17 16  1  0
 17 20  1  0
 18 19  1  0
 18 15  1  0
 19 17  2  0
 20 21  1  0
 21 22  2  0
 23 26  1  0
 23 22  1  0
 24 23  2  0
 25 24  1  0
 25 20  2  0
 26 27  1  0
 27 32  2  0
 27 28  1  0
 28 29  2  0
 29 30  1  0
 30 34  1  0
 31 30  2  0
 32 31  1  0
 33 32  1  0
 35 36  1  0
 36 39  1  0
 36 38  1  0
 37 35  2  0
 40 15  1  0
 40 41  1  0
 42 40  1  0
 46 44  1  6
 46 45  1  0
 46 43  1  0
 47 48  2  0
 47 10  1  0
 49 51  1  0
 49 48  1  0
 50 61  2  0
 51 56  1  0
 52 60  1  0
 52 62  1  0
 53 59  1  0
 53 55  1  0
 54 60  1  0
 55 54  1  0
 56 55  2  0
 57 58  1  0
 57 51  2  0
 58 53  2  0
 59 52  1  0
 60 50  1  0
 62 63  1  0
 62 64  2  0
 65 63  1  0
 66 71  2  0
 66 75  1  0
 67 63  1  0
 67 71  1  0
 68 67  1  0
 69 70  1  0
 69 68  1  0
 70 66  1  0
 71 72  1  0
 72 73  2  0
 74 73  1  0
 75 74  2  0
 76 50  1  0
 76 77  1  0
 76 86  1  0
 77 80  1  0
 78 77  1  0
 78 82  1  0
 79 78  2  0
 82 81  1  0
 82 84  1  0
 84 85  1  0
 84 83  1  0
 86 89  1  1
 86 87  1  0
 88 86  1  0
M  ISO  4   1 100  14 100  48 101  49 101
M  END
>  <TORSDO>  (41) 
F 18

>  <SCORE>  (41) 
-12.916

>  <name>  (41) 
40

>  <ligand_id>  (41) 
40

>  <original_smiles>  (41) 
[H]c1c([H])c([H])c2c(c1[H])C([H])([H])C([H])([H])C([H])([H])C2([H])N([H])C(=O)C1([H])N(C(=O)C([H])(N([H])C(=O)C([H])(N([H])C([H])([H])[H])C([H])([H])[H])C(C([H])([H])[H])(C([H])([H])[H])C([H])([H])[H])C([H])([H])c2c([H])c(OC([H])([H])C([H])([H])c3c([H])c(C(C([H])([H])[H])(C([H])([H])[H])C([H])([H])[H])n(C(=O)N4C([H])([H])C([H])([H])C([H])([H])C([H])(n5nc(-c6c([H])c([H])c(Oc7c([H])c([H])c(F)c([H])c7F)c([H])c6[H])c(C(=O)N([H])[H])c5N([H])[H])C4([H])[H])c3C([H])([H])[H])c([H])c([H])c2C1([H])[H]

>  <smiles>  (41) 
[H]c1c([H])c([H])c2c(c1[H])C([H])([H])C([H])([H])C([H])([H])C2([H])N([H])C(=O)C1([H])N(C(=O)C([H])(N([H])C(=O)C([H])(N([H])C([H])([H])[H])C([H])([H])[H])C(C([H])([H])[H])(C([H])([H])[H])C([H])([H])[H])C([H])([H])c2c([H])c(OC([H])([H])C([H])([H])c3c([H])c(C(C([H])([H])[H])(C([H])([H])[H])C([H])([H])[H])n(C(=O)N4C([H])([H])C([H])([H])C([H])([H])C([H])(n5nc(-c6c([H])c([H])c(Oc7c([H])c([H])c(F)c([H])c7F)c([H])c6[H])c(C(=O)N([H])[H])c5N([H])[H])C4([H])[H])c3C([H])([H])[H])c([H])c([H])c2C1([H])[H]

$$$$
41:0:0
     RDKit          3D

 91 99  0  0  1  0  0  0  0  0999 V2000
  -31.1530  -19.3780   21.7870 C   0  0  0  0  0  3  0  0  0  0  0  0
  -30.4820  -20.5170   21.2890 C   0  0  0  0  0  0  0  0  0  0  0  0
  -29.3750  -20.3980   20.3990 C   0  0  0  0  0  0  0  0  0  0  0  0
  -29.0770  -18.9670   20.0380 C   0  0  0  0  0  0  0  0  0  0  0  0
  -29.8060  -17.7440   20.5230 C   0  0  0  0  0  0  0  0  0  0  0  0
  -30.8280  -18.0490   21.4600 C   0  0  0  0  0  0  0  0  0  0  0  0
  -30.9990  -21.8520   21.7950 C   0  0  0  0  0  1  0  0  0  0  0  0
  -27.9180  -18.7210   19.0880 C   0  0  0  0  0  1  0  0  0  0  0  0
  -31.6800  -16.8390   22.3600 Cl  0  0  0  0  0  0  0  0  0  0  0  0
  -30.2600  -15.0830   19.9750 C   0  0  0  0  0  0  0  0  0  0  0  0
  -30.0840  -12.7700   18.9350 C   0  0  0  0  0  2  0  0  0  0  0  0
  -29.0640  -12.7560   17.7740 C   0  0  0  0  0  2  0  0  0  0  0  0
  -27.6410  -12.5040   18.3060 C   0  0  0  0  0  2  0  0  0  0  0  0
  -27.3100  -13.3790   19.5430 C   0  0  0  0  0  3  0  0  0  0  0  0
  -28.4450  -13.3700   20.5890 C   0  0  0  0  0  2  0  0  0  0  0  0
  -29.6600  -13.8250   19.9010 N   0  0  0  0  0  0  0  0  0  0  0  0
  -31.4300  -15.1550   19.5840 O   0  0  0  0  0  0  0  0  0  0  0  0
  -29.4870  -16.2590   20.2310 N   0  0  0  0  0  0  0  0  0  0  0  0
  -28.5040  -16.0500   20.2760 H   0  0  0  0  0  0  0  0  0  0  0  0
  -24.9830  -13.8900   20.4710 C   0  0  0  0  0  0  0  0  0  0  0  0
  -23.9600  -13.0840   20.8870 C   0  0  0  0  0  0  0  0  0  0  0  0
  -24.4400  -11.7430   20.7720 C   0  0  0  0  0  0  0  0  0  0  0  0
  -26.0180  -13.0390   20.1250 N   0  0  0  0  0  0  0  0  0  0  0  0
  -25.7060  -11.7400   20.3720 N   0  0  0  0  0  0  0  0  0  0  0  0
  -23.7470  -10.4620   20.9650 C   0  0  0  0  0  0  0  0  0  0  0  0
  -24.2080   -9.5040   21.8940 C   0  0  0  0  0  3  0  0  0  0  0  0
  -23.5110   -8.2890   22.0740 C   0  0  0  0  0  3  0  0  0  0  0  0
  -22.3390   -8.0250   21.3260 C   0  0  0  0  0  0  0  0  0  0  0  0
  -21.8970   -8.9730   20.3860 C   0  0  0  0  0  3  0  0  0  0  0  0
  -22.5950  -10.1790   20.2030 C   0  0  0  0  0  3  0  0  0  0  0  0
  -21.6110   -6.8630   21.4180 O   0  0  0  0  0  0  0  0  0  0  0  0
  -21.5370   -6.1510   22.5880 C   0  0  0  0  0  0  0  0  0  0  0  0
  -20.9970   -6.7100   23.7670 C   0  0  0  0  0  3  0  0  0  0  0  0
  -20.8750   -5.9210   24.9280 C   0  0  0  0  0  3  0  0  0  0  0  0
  -21.2810   -4.5730   24.9100 C   0  0  0  0  0  0  0  0  0  0  0  0
  -21.8120   -4.0130   23.7350 C   0  0  0  0  0  3  0  0  0  0  0  0
  -21.9360   -4.8000   22.5770 C   0  0  0  0  0  0  0  0  0  0  0  0
  -22.4300   -4.2490   21.4420 F   0  0  0  0  0  0  0  0  0  0  0  0
  -21.1560   -3.8120   26.0220 F   0  0  0  0  0  0  0  0  0  0  0  0
  -22.5780  -13.5280   21.2700 C   0  0  0  0  0  0  0  0  0  0  0  0
  -21.9200  -12.7860   22.1550 N   0  0  0  0  0  0  0  0  0  0  0  0
  -22.0940  -14.5660   20.8230 O   0  0  0  0  0  0  0  0  0  0  0  0
  -22.3270  -11.9450   22.5360 H   0  0  0  0  0  0  0  0  0  0  0  0
  -20.9960  -13.0630   22.4540 H   0  0  0  0  0  0  0  0  0  0  0  0
  -25.1100  -15.2680   20.3310 N   0  0  0  0  0  0  0  0  0  0  0  0
  -24.3360  -15.8970   20.5090 H   0  0  0  0  0  0  0  0  0  0  0  0
  -25.9040  -15.7310   19.9110 H   0  0  0  0  0  0  0  0  0  0  0  0
  -28.5420  -21.7670   19.9030 C   0  0  0  0  0  2  0  0  0  0  0  0
  -28.8370  -23.4210   20.2180 C   0  0  0  0  0  3  0  0  0  0  0  0
  -27.8700  -24.7480   19.8070 C   0  0  0  0  0  3  0  0  0  0  0  0
  -28.1230  -26.2650   20.0930 O   0  0  0  0  0  0  0  0  0  0  0  0
  -24.5720  -31.9310   23.2140 C   0  0  0  0  0  0  0  0  0  0  0  0
  -27.0680  -27.2530   20.0560 C   0  0  0  0  0  0  0  0  0  0  0  0
  -23.3290  -30.5560   21.5890 C   0  0  0  0  0  3  0  0  0  0  0  0
  -24.7400  -29.0000   20.1040 C   0  0  0  0  0  0  0  0  0  0  0  0
  -25.8780  -30.8230   21.3600 C   0  0  0  0  0  2  0  0  0  0  0  0
  -25.9360  -29.4390   20.6880 C   0  0  0  0  0  0  0  0  0  0  0  0
  -27.0990  -28.5820   20.6470 C   0  0  0  0  0  3  0  0  0  0  0  0
  -25.8450  -26.9190   19.4320 C   0  0  0  0  0  3  0  0  0  0  0  0
  -24.7080  -27.7550   19.4600 C   0  0  0  0  0  3  0  0  0  0  0  0
  -23.5140  -29.8960   20.1960 C   0  0  0  0  0  2  0  0  0  0  0  0
  -24.6150  -31.1250   22.1080 N   0  0  0  0  0  0  0  0  0  0  0  0
  -23.5000  -32.2080   23.7730 O   0  0  0  0  0  0  0  0  0  0  0  0
  -22.6770  -29.5360   22.5560 C   0  0  0  0  0  0  0  0  0  0  0  0
  -21.3520  -29.3370   22.4360 N   0  0  0  0  0  0  0  0  0  0  0  0
  -23.3660  -28.9260   23.3780 O   0  0  0  0  0  0  0  0  0  0  0  0
  -20.8520  -29.8810   21.7460 H   0  0  0  0  0  0  0  0  0  0  0  0
  -18.0000  -28.0670   22.9570 C   0  0  0  0  0  0  0  0  0  0  0  0
  -20.5540  -28.3860   23.2130 C   0  0  0  0  0  3  0  0  0  0  0  0
  -20.6840  -26.9540   22.6420 C   0  0  0  0  0  2  0  0  0  0  0  0
  -19.5850  -26.6050   21.6330 C   0  0  0  0  0  2  0  0  0  0  0  0
  -18.2020  -26.7210   22.2820 C   0  0  0  0  0  2  0  0  0  0  0  0
  -19.1030  -28.8550   23.3800 C   0  0  0  0  0  0  0  0  0  0  0  0
  -18.8580  -30.1130   23.9720 C   0  0  0  0  0  3  0  0  0  0  0  0
  -17.5430  -30.5840   24.1450 C   0  0  0  0  0  3  0  0  0  0  0  0
  -16.4540  -29.7940   23.7370 C   0  0  0  0  0  3  0  0  0  0  0  0
  -16.6830  -28.5370   23.1490 C   0  0  0  0  0  3  0  0  0  0  0  0
  -25.8660  -32.5600   23.8140 C   0  0  0  0  0  3  0  0  0  0  0  0
  -26.3930  -31.7940   25.0900 C   0  0  1  0  0  0  0  0  0  0  0  0
  -25.3080  -31.5510   26.1650 C   0  0  0  0  0  1  0  0  0  0  0  0
  -26.9830  -30.4190   24.7010 C   0  0  0  0  0  1  0  0  0  0  0  0
  -27.5440  -32.5960   25.7450 C   0  0  0  0  0  1  0  0  0  0  0  0
  -25.5690  -33.9630   24.1460 N   0  0  0  0  0  0  0  0  0  0  0  0
  -25.8610  -35.0120   23.3660 C   0  0  0  0  0  0  0  0  0  0  0  0
  -26.4760  -34.9010   22.3020 O   0  0  0  0  0  0  0  0  0  0  0  0
  -25.0140  -34.1220   24.9740 H   0  0  0  0  0  0  0  0  0  0  0  0
  -24.1010  -36.7950   23.1170 C   0  0  0  0  0  1  0  0  0  0  0  0
  -25.4010  -36.4060   23.8390 C   0  0  0  0  0  3  0  0  0  0  0  0
  -27.5770  -37.3230   24.5140 C   0  0  0  0  0  1  0  0  0  0  0  0
  -26.4160  -37.4620   23.6380 N   0  0  0  0  0  0  0  0  0  0  0  0
  -26.0130  -38.3820   23.7910 H   0  0  0  0  0  0  0  0  0  0  0  0
  2  1  2  0
  2  7  1  0
  3  2  1  0
  4  3  2  0
  4  5  1  0
  5  6  2  0
  6  1  1  0
  6  9  1  0
  8  4  1  0
 10 18  1  0
 11 16  1  0
 12 13  1  0
 12 11  1  0
 14 13  1  0
 14 23  1  0
 14 15  1  0
 16 10  1  0
 16 15  1  0
 17 10  2  0
 18 19  1  0
 18  5  1  0
 20 21  2  0
 21 40  1  0
 22 21  1  0
 22 25  1  0
 23 24  1  0
 23 20  1  0
 24 22  2  0
 25 26  1  0
 26 27  2  0
 28 31  1  0
 28 27  1  0
 29 28  2  0
 30 29  1  0
 30 25  2  0
 31 32  1  0
 32 33  1  0
 33 34  2  0
 35 34  1  0
 35 39  1  0
 36 35  2  0
 37 32  2  0
 37 36  1  0
 38 37  1  0
 40 41  1  0
 41 44  1  0
 41 43  1  0
 42 40  2  0
 45 20  1  0
 45 46  1  0
 47 45  1  0
 48 49  1  0
 48  3  1  0
 50 51  1  0
 50 49  2  0
 52 63  2  0
 53 51  1  0
 53 58  1  0
 54 62  1  0
 54 64  1  0
 55 61  1  0
 55 57  1  0
 56 62  1  0
 57 56  1  0
 58 57  2  0
 59 60  1  0
 59 53  2  0
 60 55  2  0
 61 54  1  0
 62 52  1  0
 64 66  2  0
 65 64  1  0
 67 65  1  0
 68 77  2  0
 68 73  1  0
 69 65  1  0
 69 73  1  0
 70 69  1  0
 71 72  1  0
 71 70  1  0
 72 68  1  0
 73 74  2  0
 74 75  1  0
 76 75  2  0
 77 76  1  0
 78 52  1  0
 78 83  1  0
 78 79  1  0
 79 82  1  1
 79 80  1  0
 81 79  1  0
 83 86  1  0
 84 88  1  0
 84 83  1  0
 85 84  2  0
 88 87  1  0
 90 91  1  0
 90 88  1  0
 90 89  1  0
M  ISO  4  10 100  18 100  50 101  51 101
M  END
>  <TORSDO>  (42) 
F 19

>  <SCORE>  (42) 
-14.362

>  <name>  (42) 
41

>  <ligand_id>  (42) 
41

>  <original_smiles>  (42) 
[H]c1c([H])c([H])c2c(c1[H])C([H])([H])C([H])([H])C([H])([H])C2([H])N([H])C(=O)C1([H])N(C(=O)C([H])(N([H])C(=O)C([H])(N([H])C([H])([H])[H])C([H])([H])[H])C(C([H])([H])[H])(C([H])([H])[H])C([H])([H])[H])C([H])([H])c2c([H])c(OC([H])([H])C([H])([H])C([H])([H])c3c(C([H])([H])[H])c([H])c(Cl)c(N([H])C(=O)N4C([H])([H])C([H])([H])C([H])([H])C([H])(n5nc(-c6c([H])c([H])c(Oc7c([H])c([H])c(F)c([H])c7F)c([H])c6[H])c(C(=O)N([H])[H])c5N([H])[H])C4([H])[H])c3C([H])([H])[H])c([H])c([H])c2C1([H])[H]

>  <smiles>  (42) 
[H]c1c([H])c([H])c2c(c1[H])C([H])([H])C([H])([H])C([H])([H])C2([H])N([H])C(=O)C1([H])N(C(=O)C([H])(N([H])C(=O)C([H])(N([H])C([H])([H])[H])C([H])([H])[H])C(C([H])([H])[H])(C([H])([H])[H])C([H])([H])[H])C([H])([H])c2c([H])c(OC([H])([H])C([H])([H])C([H])([H])c3c(C([H])([H])[H])c([H])c(Cl)c(N([H])C(=O)N4C([H])([H])C([H])([H])C([H])([H])C([H])(n5nc(-c6c([H])c([H])c(Oc7c([H])c([H])c(F)c([H])c7F)c([H])c6[H])c(C(=O)N([H])[H])c5N([H])[H])C4([H])[H])c3C([H])([H])[H])c([H])c([H])c2C1([H])[H]

$$$$
42:0:0
     RDKit          3D

 89 97  0  0  1  0  0  0  0  0999 V2000
  -30.4740  -19.9580   17.7290 C   0  0  0  0  0  3  0  0  0  0  0  0
  -30.0530  -21.1700   18.3350 C   0  0  0  0  0  3  0  0  0  0  0  0
  -30.4910  -18.6710   18.3450 C   0  0  0  0  0  0  0  0  0  0  0  0
  -29.5890  -21.2480   19.6640 C   0  0  0  0  0  0  0  0  0  0  0  0
  -30.0660  -18.4560   19.6920 C   0  0  0  0  0  0  0  0  0  0  0  0
  -29.6170  -19.8220   20.2980 C   0  0  0  0  0  0  0  0  0  0  0  0
  -30.9540  -17.5190   17.4650 C   0  0  0  0  0  1  0  0  0  0  0  0
  -29.0830  -19.7480   21.9360 Cl  0  0  0  0  0  0  0  0  0  0  0  0
  -30.7670  -15.6110   20.1350 C   0  0  0  0  0  0  0  0  0  0  0  0
  -30.7830  -13.1120   19.4060 C   0  0  0  0  0  2  0  0  0  0  0  0
  -29.8840  -12.8050   18.1820 C   0  0  0  0  0  2  0  0  0  0  0  0
  -28.4410  -12.5170   18.6250 C   0  0  0  0  0  2  0  0  0  0  0  0
  -27.9510  -13.5440   19.6730 C   0  0  0  0  0  3  0  0  0  0  0  0
  -28.9770  -13.7940   20.8030 C   0  0  0  0  0  2  0  0  0  0  0  0
  -30.2100  -14.2910   20.1650 N   0  0  0  0  0  0  0  0  0  0  0  0
  -31.9870  -15.5790   19.9150 O   0  0  0  0  0  0  0  0  0  0  0  0
  -30.0180  -16.9050   20.2340 N   0  0  0  0  0  0  0  0  0  0  0  0
  -29.1440  -16.7320   20.7080 H   0  0  0  0  0  0  0  0  0  0  0  0
  -25.5710  -14.1070   20.3920 C   0  0  0  0  0  0  0  0  0  0  0  0
  -24.5030  -13.3340   20.7530 C   0  0  0  0  0  0  0  0  0  0  0  0
  -24.9710  -11.9830   20.7440 C   0  0  0  0  0  0  0  0  0  0  0  0
  -26.6180  -13.2320   20.1740 N   0  0  0  0  0  0  0  0  0  0  0  0
  -26.2670  -11.9480   20.4530 N   0  0  0  0  0  0  0  0  0  0  0  0
  -24.2420  -10.7220   20.9340 C   0  0  0  0  0  0  0  0  0  0  0  0
  -24.6290   -9.7810   21.9120 C   0  0  0  0  0  3  0  0  0  0  0  0
  -23.8940   -8.5890   22.0890 C   0  0  0  0  0  3  0  0  0  0  0  0
  -22.7590   -8.3260   21.2860 C   0  0  0  0  0  0  0  0  0  0  0  0
  -22.3920   -9.2560   20.2960 C   0  0  0  0  0  3  0  0  0  0  0  0
  -23.1270  -10.4400   20.1170 C   0  0  0  0  0  3  0  0  0  0  0  0
  -22.0030   -7.1810   21.3700 O   0  0  0  0  0  0  0  0  0  0  0  0
  -21.8620   -6.4950   22.5500 C   0  0  0  0  0  0  0  0  0  0  0  0
  -21.2830   -7.0900   23.6920 C   0  0  0  0  0  3  0  0  0  0  0  0
  -21.0960   -6.3280   24.8630 C   0  0  0  0  0  3  0  0  0  0  0  0
  -21.4760   -4.9740   24.8930 C   0  0  0  0  0  0  0  0  0  0  0  0
  -22.0470   -4.3780   23.7540 C   0  0  0  0  0  3  0  0  0  0  0  0
  -22.2360   -5.1370   22.5860 C   0  0  0  0  0  0  0  0  0  0  0  0
  -22.7680   -4.5520   21.4840 F   0  0  0  0  0  0  0  0  0  0  0  0
  -21.2880   -4.2390   26.0150 F   0  0  0  0  0  0  0  0  0  0  0  0
  -23.1020  -13.8120   20.9960 C   0  0  0  0  0  0  0  0  0  0  0  0
  -22.3590  -13.1230   21.8560 N   0  0  0  0  0  0  0  0  0  0  0  0
  -22.6750  -14.8330   20.4570 O   0  0  0  0  0  0  0  0  0  0  0  0
  -22.7170  -12.2980   22.3110 H   0  0  0  0  0  0  0  0  0  0  0  0
  -21.4180  -13.4290   22.0640 H   0  0  0  0  0  0  0  0  0  0  0  0
  -25.7370  -15.4750   20.2010 N   0  0  0  0  0  0  0  0  0  0  0  0
  -24.9700  -16.1330   20.2930 H   0  0  0  0  0  0  0  0  0  0  0  0
  -26.5860  -15.9070   19.8600 H   0  0  0  0  0  0  0  0  0  0  0  0
  -29.2570  -22.8810   20.2650 C   0  0  0  0  0  3  0  0  0  0  0  0
  -28.6450  -24.4620   19.5660 C   0  0  0  0  0  3  0  0  0  0  0  0
  -28.6090  -26.0750   20.0110 O   0  0  0  0  0  0  0  0  0  0  0  0
  -24.7950  -31.8160   23.1500 C   0  0  0  0  0  0  0  0  0  0  0  0
  -27.5460  -27.1350   19.9450 C   0  0  0  0  0  0  0  0  0  0  0  0
  -23.6520  -30.4270   21.4690 C   0  0  0  0  0  3  0  0  0  0  0  0
  -25.1590  -28.9300   19.9810 C   0  0  0  0  0  0  0  0  0  0  0  0
  -26.2070  -30.7430   21.3190 C   0  0  0  0  0  2  0  0  0  0  0  0
  -26.3330  -29.3590   20.6140 C   0  0  0  0  0  0  0  0  0  0  0  0
  -27.5110  -28.4810   20.5770 C   0  0  0  0  0  3  0  0  0  0  0  0
  -26.3350  -26.8680   19.2640 C   0  0  0  0  0  3  0  0  0  0  0  0
  -25.1870  -27.7070   19.2880 C   0  0  0  0  0  3  0  0  0  0  0  0
  -23.9040  -29.8020   20.0670 C   0  0  0  0  0  2  0  0  0  0  0  0
  -24.9060  -31.0240   22.0330 N   0  0  0  0  0  0  0  0  0  0  0  0
  -23.6970  -32.0410   23.6850 O   0  0  0  0  0  0  0  0  0  0  0  0
  -23.0020  -29.3710   22.4050 C   0  0  0  0  0  0  0  0  0  0  0  0
  -21.6830  -29.1440   22.2660 N   0  0  0  0  0  0  0  0  0  0  0  0
  -23.6930  -28.7630   23.2250 O   0  0  0  0  0  0  0  0  0  0  0  0
  -21.1780  -29.7000   21.5910 H   0  0  0  0  0  0  0  0  0  0  0  0
  -18.3690  -27.7250   22.6990 C   0  0  0  0  0  0  0  0  0  0  0  0
  -20.9040  -28.1430   23.0050 C   0  0  0  0  0  3  0  0  0  0  0  0
  -21.0990  -26.7300   22.4060 C   0  0  0  0  0  2  0  0  0  0  0  0
  -20.0340  -26.3650   21.3680 C   0  0  0  0  0  2  0  0  0  0  0  0
  -18.6370  -26.4060   21.9940 C   0  0  0  0  0  2  0  0  0  0  0  0
  -19.4330  -28.5480   23.1590 C   0  0  0  0  0  0  0  0  0  0  0  0
  -19.1260  -29.7770   23.7820 C   0  0  0  0  0  3  0  0  0  0  0  0
  -17.7910  -30.1870   23.9460 C   0  0  0  0  0  3  0  0  0  0  0  0
  -16.7420  -29.3650   23.5000 C   0  0  0  0  0  3  0  0  0  0  0  0
  -17.0310  -28.1340   22.8820 C   0  0  0  0  0  3  0  0  0  0  0  0
  -26.0380  -32.4910   23.8040 C   0  0  0  0  0  3  0  0  0  0  0  0
  -25.6730  -33.8770   24.1520 N   0  0  0  0  0  0  0  0  0  0  0  0
  -25.9940  -34.9620   23.4350 C   0  0  0  0  0  0  0  0  0  0  0  0
  -26.6890  -34.9020   22.4160 O   0  0  0  0  0  0  0  0  0  0  0  0
  -25.0540  -33.9920   24.9400 H   0  0  0  0  0  0  0  0  0  0  0  0
  -24.2430  -36.7390   23.0770 C   0  0  0  0  0  1  0  0  0  0  0  0
  -25.4640  -36.3280   23.9170 C   0  0  0  0  0  3  0  0  0  0  0  0
  -27.5440  -37.2380   24.8540 C   0  0  0  0  0  1  0  0  0  0  0  0
  -26.4780  -37.4050   23.8710 N   0  0  0  0  0  0  0  0  0  0  0  0
  -26.0480  -38.3140   24.0240 H   0  0  0  0  0  0  0  0  0  0  0  0
  -26.5530  -31.7290   25.0890 C   0  0  1  0  0  0  0  0  0  0  0  0
  -25.4470  -31.4580   26.1370 C   0  0  0  0  0  1  0  0  0  0  0  0
  -27.1830  -30.3700   24.7100 C   0  0  0  0  0  1  0  0  0  0  0  0
  -27.6690  -32.5550   25.7700 C   0  0  0  0  0  1  0  0  0  0  0  0
  1  2  2  0
  1  3  1  0
  2  4  1  0
  3  5  2  0
  4 47  1  0
  4  6  2  0
  5 17  1  0
  5  6  1  0
  6  8  1  0
  7  3  1  0
  9 15  1  0
  9 17  1  0
 10 15  1  0
 11 12  1  0
 11 10  1  0
 13 12  1  0
 13 22  1  0
 13 14  1  0
 15 14  1  0
 16  9  2  0
 17 18  1  0
 19 20  2  0
 20 39  1  0
 21 20  1  0
 21 24  1  0
 22 19  1  0
 22 23  1  0
 23 21  2  0
 24 25  1  0
 25 26  2  0
 27 30  1  0
 27 26  1  0
 28 27  2  0
 29 28  1  0
 29 24  2  0
 30 31  1  0
 31 36  2  0
 31 32  1  0
 32 33  2  0
 33 34  1  0
 34 38  1  0
 35 34  2  0
 36 35  1  0
 37 36  1  0
 39 40  1  0
 40 43  1  0
 40 42  1  0
 41 39  2  0
 44 45  1  0
 44 19  1  0
 46 44  1  0
 48 49  1  0
 48 47  2  0
 50 61  2  0
 51 49  1  0
 51 56  1  0
 52 60  1  0
 52 62  1  0
 53 59  1  0
 53 55  1  0
 54 60  1  0
 55 54  1  0
 56 55  2  0
 57 58  1  0
 57 51  2  0
 58 53  2  0
 59 52  1  0
 60 50  1  0
 62 64  2  0
 63 62  1  0
 65 63  1  0
 66 75  2  0
 66 71  1  0
 67 63  1  0
 67 71  1  0
 68 67  1  0
 69 70  1  0
 69 68  1  0
 70 66  1  0
 71 72  2  0
 72 73  1  0
 74 73  2  0
 75 74  1  0
 76 50  1  0
 76 77  1  0
 76 86  1  0
 77 80  1  0
 78 82  1  0
 78 77  1  0
 79 78  2  0
 82 81  1  0
 84 82  1  0
 84 85  1  0
 84 83  1  0
 86 89  1  1
 86 87  1  0
 88 86  1  0
M  ISO  4   9 100  17 100  48 101  49 101
M  END
>  <TORSDO>  (43) 
F 18

>  <SCORE>  (43) 
-14.305

>  <name>  (43) 
42

>  <ligand_id>  (43) 
42

>  <original_smiles>  (43) 
[H]c1c([H])c([H])c2c(c1[H])C([H])([H])C([H])([H])C([H])([H])C2([H])N([H])C(=O)C1([H])N(C(=O)C([H])(N([H])C(=O)C([H])(N([H])C([H])([H])[H])C([H])([H])[H])C(C([H])([H])[H])(C([H])([H])[H])C([H])([H])[H])C([H])([H])c2c([H])c(OC([H])([H])C([H])([H])c3c([H])c([H])c(C([H])([H])[H])c(N([H])C(=O)N4C([H])([H])C([H])([H])C([H])([H])C([H])(n5nc(-c6c([H])c([H])c(Oc7c([H])c([H])c(F)c([H])c7F)c([H])c6[H])c(C(=O)N([H])[H])c5N([H])[H])C4([H])[H])c3Cl)c([H])c([H])c2C1([H])[H]

>  <smiles>  (43) 
[H]c1c([H])c([H])c2c(c1[H])C([H])([H])C([H])([H])C([H])([H])C2([H])N([H])C(=O)C1([H])N(C(=O)C([H])(N([H])C(=O)C([H])(N([H])C([H])([H])[H])C([H])([H])[H])C(C([H])([H])[H])(C([H])([H])[H])C([H])([H])[H])C([H])([H])c2c([H])c(OC([H])([H])C([H])([H])c3c([H])c([H])c(C([H])([H])[H])c(N([H])C(=O)N4C([H])([H])C([H])([H])C([H])([H])C([H])(n5nc(-c6c([H])c([H])c(Oc7c([H])c([H])c(F)c([H])c7F)c([H])c6[H])c(C(=O)N([H])[H])c5N([H])[H])C4([H])[H])c3Cl)c([H])c([H])c2C1([H])[H]

$$$$
43:0:0
     RDKit          3D

 92100  0  0  1  0  0  0  0  0999 V2000
  -28.7080  -19.4830   19.5520 C   0  0  0  0  0  3  0  0  0  0  0  0
  -29.9340  -20.4450   21.3940 C   0  0  0  0  0  3  0  0  0  0  0  0
  -30.2280  -18.0530   20.8620 C   0  0  0  0  0  0  0  0  0  0  0  0
  -29.0390  -20.6200   20.3150 C   0  0  0  0  0  0  0  0  0  0  0  0
  -29.2910  -18.2190   19.8020 C   0  0  0  0  0  0  0  0  0  0  0  0
  -30.5240  -19.1940   21.6570 C   0  0  0  0  0  0  0  0  0  0  0  0
  -28.8530  -16.9330   18.7310 Cl  0  0  0  0  0  0  0  0  0  0  0  0
  -31.6580  -19.1310   22.9650 Cl  0  0  0  0  0  0  0  0  0  0  0  0
  -31.0380  -16.7570   21.1020 C   0  0  0  0  0  2  0  0  0  0  0  0
  -31.0310  -14.4660   20.1110 C   0  0  0  0  0  0  0  0  0  0  0  0
  -30.6260  -12.3290   18.9490 C   0  0  0  0  0  2  0  0  0  0  0  0
  -29.6530  -12.5630   17.7770 C   0  0  0  0  0  2  0  0  0  0  0  0
  -28.1930  -12.4620   18.2560 C   0  0  0  0  0  2  0  0  0  0  0  0
  -27.9210  -13.3090   19.5270 C   0  0  0  0  0  3  0  0  0  0  0  0
  -29.0000  -13.0550   20.6020 C   0  0  0  0  0  2  0  0  0  0  0  0
  -30.3140  -13.3190   19.9920 N   0  0  0  0  0  0  0  0  0  0  0  0
  -32.1230  -14.6350   19.5620 O   0  0  0  0  0  0  0  0  0  0  0  0
  -30.4340  -15.4500   20.8060 N   0  0  0  0  0  0  0  0  0  0  0  0
  -29.5400  -15.2400   21.2180 H   0  0  0  0  0  0  0  0  0  0  0  0
  -25.5600  -13.9850   20.2960 C   0  0  0  0  0  0  0  0  0  0  0  0
  -24.4840  -13.2410   20.7020 C   0  0  0  0  0  0  0  0  0  0  0  0
  -24.9100  -11.8780   20.6670 C   0  0  0  0  0  0  0  0  0  0  0  0
  -26.5760  -13.0750   20.0450 N   0  0  0  0  0  0  0  0  0  0  0  0
  -26.1890  -11.8050   20.3230 N   0  0  0  0  0  0  0  0  0  0  0  0
  -24.1600  -10.6350   20.8860 C   0  0  0  0  0  0  0  0  0  0  0  0
  -24.5860   -9.6700   21.8250 C   0  0  0  0  0  3  0  0  0  0  0  0
  -23.8380   -8.4920   22.0320 C   0  0  0  0  0  3  0  0  0  0  0  0
  -22.6490   -8.2680   21.3000 C   0  0  0  0  0  0  0  0  0  0  0  0
  -22.2410   -9.2200   20.3470 C   0  0  0  0  0  3  0  0  0  0  0  0
  -22.9900  -10.3900   20.1390 C   0  0  0  0  0  3  0  0  0  0  0  0
  -21.8720   -7.1420   21.4140 O   0  0  0  0  0  0  0  0  0  0  0  0
  -21.8060   -6.4290   22.5850 C   0  0  0  0  0  0  0  0  0  0  0  0
  -21.3730   -7.0200   23.7920 C   0  0  0  0  0  3  0  0  0  0  0  0
  -21.2550   -6.2340   24.9560 C   0  0  0  0  0  3  0  0  0  0  0  0
  -21.5580   -4.8590   24.9130 C   0  0  0  0  0  0  0  0  0  0  0  0
  -21.9820   -4.2700   23.7090 C   0  0  0  0  0  3  0  0  0  0  0  0
  -22.1040   -5.0520   22.5480 C   0  0  0  0  0  0  0  0  0  0  0  0
  -22.4920   -4.4750   21.3860 F   0  0  0  0  0  0  0  0  0  0  0  0
  -21.4360   -4.1030   26.0280 F   0  0  0  0  0  0  0  0  0  0  0  0
  -23.1070  -13.7540   21.0120 C   0  0  0  0  0  0  0  0  0  0  0  0
  -22.3940  -13.0820   21.9080 N   0  0  0  0  0  0  0  0  0  0  0  0
  -22.6750  -14.7850   20.4950 O   0  0  0  0  0  0  0  0  0  0  0  0
  -22.7570  -12.2480   22.3460 H   0  0  0  0  0  0  0  0  0  0  0  0
  -21.4720  -13.4080   22.1640 H   0  0  0  0  0  0  0  0  0  0  0  0
  -25.7550  -15.3500   20.1040 N   0  0  0  0  0  0  0  0  0  0  0  0
  -25.0060  -16.0230   20.2220 H   0  0  0  0  0  0  0  0  0  0  0  0
  -26.6040  -15.7610   19.7380 H   0  0  0  0  0  0  0  0  0  0  0  0
  -28.4880  -21.8380   19.9490 O   0  0  0  0  0  0  0  0  0  0  0  0
  -28.7810  -22.9950   20.7420 C   0  0  0  0  0  2  0  0  0  0  0  0
  -28.4110  -24.2940   19.9950 C   0  0  0  0  0  2  0  0  0  0  0  0
  -28.6010  -25.5540   20.8730 C   0  0  0  0  0  2  0  0  0  0  0  0
  -28.5890  -26.7890   20.1430 O   0  0  0  0  0  0  0  0  0  0  0  0
  -24.5750  -31.8170   23.1980 C   0  0  0  0  0  0  0  0  0  0  0  0
  -27.4010  -27.4790   20.1510 C   0  0  0  0  0  0  0  0  0  0  0  0
  -23.4450  -30.4020   21.5140 C   0  0  0  0  0  3  0  0  0  0  0  0
  -24.9700  -28.9130   20.1130 C   0  0  0  0  0  0  0  0  0  0  0  0
  -25.9620  -30.8320   21.3740 C   0  0  0  0  0  2  0  0  0  0  0  0
  -26.0990  -29.4660   20.7330 C   0  0  0  0  0  0  0  0  0  0  0  0
  -27.3200  -28.7580   20.7470 C   0  0  0  0  0  3  0  0  0  0  0  0
  -26.2590  -26.9350   19.5290 C   0  0  0  0  0  3  0  0  0  0  0  0
  -25.0440  -27.6460   19.5070 C   0  0  0  0  0  3  0  0  0  0  0  0
  -23.7050  -29.7390   20.1350 C   0  0  0  0  0  2  0  0  0  0  0  0
  -24.6780  -31.0320   22.0880 N   0  0  0  0  0  0  0  0  0  0  0  0
  -23.4760  -32.0540   23.7150 O   0  0  0  0  0  0  0  0  0  0  0  0
  -22.7980  -29.3540   22.4480 C   0  0  0  0  0  0  0  0  0  0  0  0
  -21.4810  -29.1480   22.2920 N   0  0  0  0  0  0  0  0  0  0  0  0
  -23.4770  -28.7300   23.2690 O   0  0  0  0  0  0  0  0  0  0  0  0
  -20.9960  -29.7060   21.6040 H   0  0  0  0  0  0  0  0  0  0  0  0
  -18.1160  -27.8960   22.7060 C   0  0  0  0  0  0  0  0  0  0  0  0
  -20.6640  -28.1850   23.0290 C   0  0  0  0  0  3  0  0  0  0  0  0
  -20.7990  -26.7680   22.4260 C   0  0  0  0  0  2  0  0  0  0  0  0
  -19.7180  -26.4470   21.3890 C   0  0  0  0  0  2  0  0  0  0  0  0
  -18.3230  -26.5610   22.0120 C   0  0  0  0  0  2  0  0  0  0  0  0
  -19.2150  -28.6650   23.1690 C   0  0  0  0  0  0  0  0  0  0  0  0
  -18.9670  -29.9160   23.7780 C   0  0  0  0  0  3  0  0  0  0  0  0
  -17.6530  -30.3960   23.9300 C   0  0  0  0  0  3  0  0  0  0  0  0
  -16.5670  -29.6200   23.4850 C   0  0  0  0  0  3  0  0  0  0  0  0
  -16.7990  -28.3740   22.8790 C   0  0  0  0  0  3  0  0  0  0  0  0
  -25.8300  -32.4710   23.8590 C   0  0  0  0  0  3  0  0  0  0  0  0
  -25.4850  -33.8630   24.1810 N   0  0  0  0  0  0  0  0  0  0  0  0
  -25.8130  -34.9180   23.4240 C   0  0  0  0  0  0  0  0  0  0  0  0
  -26.5100  -34.8230   22.4110 O   0  0  0  0  0  0  0  0  0  0  0  0
  -24.8760  -34.0100   24.9720 H   0  0  0  0  0  0  0  0  0  0  0  0
  -24.0610  -36.6720   23.0160 C   0  0  0  0  0  1  0  0  0  0  0  0
  -25.2870  -36.2990   23.8640 C   0  0  0  0  0  3  0  0  0  0  0  0
  -27.3790  -37.2290   24.7520 C   0  0  0  0  0  1  0  0  0  0  0  0
  -26.3000  -37.3720   23.7750 N   0  0  0  0  0  0  0  0  0  0  0  0
  -25.8730  -38.2870   23.9010 H   0  0  0  0  0  0  0  0  0  0  0  0
  -26.3220  -31.7030   25.1460 C   0  0  1  0  0  0  0  0  0  0  0  0
  -25.2030  -31.4440   26.1820 C   0  0  0  0  0  1  0  0  0  0  0  0
  -26.9380  -30.3380   24.7600 C   0  0  0  0  0  1  0  0  0  0  0  0
  -27.4410  -32.5130   25.8420 C   0  0  0  0  0  1  0  0  0  0  0  0
  1  5  2  0
  1  4  1  0
  2  6  1  0
  3  9  1  0
  3  6  2  0
  4  2  2  0
  5  3  1  0
  6  8  1  0
  7  5  1  0
 10 18  1  0
 11 16  1  0
 12 13  1  0
 12 11  1  0
 14 13  1  0
 14 23  1  0
 14 15  1  0
 16 10  1  0
 16 15  1  0
 17 10  2  0
 18  9  1  0
 18 19  1  0
 20 21  2  0
 21 40  1  0
 22 21  1  0
 22 25  1  0
 23 20  1  0
 23 24  1  0
 24 22  2  0
 25 26  1  0
 26 27  2  0
 28 31  1  0
 28 27  1  0
 29 28  2  0
 30 29  1  0
 30 25  2  0
 31 32  1  0
 32 33  1  0
 33 34  2  0
 35 34  1  0
 35 39  1  0
 36 35  2  0
 37 32  2  0
 37 36  1  0
 38 37  1  0
 40 41  1  0
 41 44  1  0
 41 43  1  0
 42 40  2  0
 45 46  1  0
 45 20  1  0
 47 45  1  0
 48  4  1  0
 48 49  1  0
 50 49  1  0
 50 51  1  0
 52 54  1  0
 52 51  1  0
 53 64  2  0
 54 59  1  0
 55 63  1  0
 55 65  1  0
 56 62  1  0
 56 58  1  0
 57 63  1  0
 58 59  2  0
 58 57  1  0
 60 54  2  0
 61 60  1  0
 61 56  2  0
 62 55  1  0
 63 53  1  0
 65 67  2  0
 66 65  1  0
 68 66  1  0
 69 78  2  0
 69 74  1  0
 70 66  1  0
 70 74  1  0
 71 70  1  0
 72 73  1  0
 72 71  1  0
 73 69  1  0
 74 75  2  0
 75 76  1  0
 77 76  2  0
 78 77  1  0
 79 53  1  0
 79 80  1  0
 79 89  1  0
 80 83  1  0
 81 85  1  0
 81 80  1  0
 82 81  2  0
 85 84  1  0
 87 85  1  0
 87 88  1  0
 87 86  1  0
 89 92  1  1
 89 90  1  0
 91 89  1  0
M  ISO  4  10 100  18 100  51 101  52 101
M  END
>  <TORSDO>  (44) 
F 21

>  <SCORE>  (44) 
-13.351

>  <name>  (44) 
43

>  <ligand_id>  (44) 
43

>  <original_smiles>  (44) 
[H]c1c([H])c([H])c2c(c1[H])C([H])([H])C([H])([H])C([H])([H])C2([H])N([H])C(=O)C1([H])N(C(=O)C([H])(N([H])C(=O)C([H])(N([H])C([H])([H])[H])C([H])([H])[H])C(C([H])([H])[H])(C([H])([H])[H])C([H])([H])[H])C([H])([H])c2c([H])c(OC([H])([H])C([H])([H])C([H])([H])Oc3c([H])c(Cl)c(C([H])([H])N([H])C(=O)N4C([H])([H])C([H])([H])C([H])([H])C([H])(n5nc(-c6c([H])c([H])c(Oc7c([H])c([H])c(F)c([H])c7F)c([H])c6[H])c(C(=O)N([H])[H])c5N([H])[H])C4([H])[H])c(Cl)c3[H])c([H])c([H])c2C1([H])[H]

>  <smiles>  (44) 
[H]c1c([H])c([H])c2c(c1[H])C([H])([H])C([H])([H])C([H])([H])C2([H])N([H])C(=O)C1([H])N(C(=O)C([H])(N([H])C(=O)C([H])(N([H])C([H])([H])[H])C([H])([H])[H])C(C([H])([H])[H])(C([H])([H])[H])C([H])([H])[H])C([H])([H])c2c([H])c(OC([H])([H])C([H])([H])C([H])([H])Oc3c([H])c(Cl)c(C([H])([H])N([H])C(=O)N4C([H])([H])C([H])([H])C([H])([H])C([H])(n5nc(-c6c([H])c([H])c(Oc7c([H])c([H])c(F)c([H])c7F)c([H])c6[H])c(C(=O)N([H])[H])c5N([H])[H])C4([H])[H])c(Cl)c3[H])c([H])c([H])c2C1([H])[H]

$$$$
44:0:0
     RDKit          3D

 92100  0  0  1  0  0  0  0  0999 V2000
  -28.4420  -19.4210   20.1010 C   0  0  0  0  0  3  0  0  0  0  0  0
  -30.5080  -19.1270   19.5560 C   0  0  0  0  0  3  0  0  0  0  0  0
  -29.4750  -18.2940   19.9390 C   0  0  0  0  0  0  0  0  0  0  0  0
  -28.8040  -20.8300   19.8590 C   0  0  0  0  0  0  0  0  0  0  0  0
  -30.1500  -20.5330   19.5080 N   0  0  0  0  0  0  0  0  0  0  0  0
  -30.3150  -15.4120   20.2020 C   0  0  0  0  0  0  0  0  0  0  0  0
  -30.4250  -12.8690   19.5850 C   0  0  0  0  0  2  0  0  0  0  0  0
  -29.5370  -12.4600   18.3810 C   0  0  0  0  0  2  0  0  0  0  0  0
  -28.0990  -12.1660   18.8390 C   0  0  0  0  0  2  0  0  0  0  0  0
  -27.5820  -13.2300   19.8350 C   0  0  0  0  0  3  0  0  0  0  0  0
  -28.6030  -13.5640   20.9460 C   0  0  0  0  0  2  0  0  0  0  0  0
  -29.8120  -14.0700   20.2730 N   0  0  0  0  0  0  0  0  0  0  0  0
  -31.5430  -15.4280   20.0190 O   0  0  0  0  0  0  0  0  0  0  0  0
  -29.4600  -16.6520   20.1480 N   0  0  0  0  0  0  0  0  0  0  0  0
  -28.5110  -16.3380   20.2830 H   0  0  0  0  0  0  0  0  0  0  0  0
  -25.2250  -13.7950   20.6280 C   0  0  0  0  0  0  0  0  0  0  0  0
  -24.1580  -13.0230   20.9950 C   0  0  0  0  0  0  0  0  0  0  0  0
  -24.6100  -11.6700   20.9340 C   0  0  0  0  0  0  0  0  0  0  0  0
  -26.2560  -12.9160   20.3580 N   0  0  0  0  0  0  0  0  0  0  0  0
  -25.9000  -11.6280   20.6100 N   0  0  0  0  0  0  0  0  0  0  0  0
  -23.8700  -10.4110   21.1040 C   0  0  0  0  0  0  0  0  0  0  0  0
  -24.2880   -9.4250   22.0250 C   0  0  0  0  0  3  0  0  0  0  0  0
  -23.5470   -8.2340   22.1840 C   0  0  0  0  0  3  0  0  0  0  0  0
  -22.3730   -8.0200   21.4220 C   0  0  0  0  0  0  0  0  0  0  0  0
  -21.9770   -8.9940   20.4880 C   0  0  0  0  0  3  0  0  0  0  0  0
  -22.7180  -10.1760   20.3270 C   0  0  0  0  0  3  0  0  0  0  0  0
  -21.6040   -6.8840   21.4940 O   0  0  0  0  0  0  0  0  0  0  0  0
  -21.5310   -6.1350   22.6420 C   0  0  0  0  0  0  0  0  0  0  0  0
  -21.0880   -6.6840   23.8650 C   0  0  0  0  0  3  0  0  0  0  0  0
  -20.9620   -5.8610   25.0030 C   0  0  0  0  0  3  0  0  0  0  0  0
  -21.2700   -4.4900   24.9180 C   0  0  0  0  0  0  0  0  0  0  0  0
  -21.7060   -3.9410   23.7010 C   0  0  0  0  0  3  0  0  0  0  0  0
  -21.8330   -4.7600   22.5650 C   0  0  0  0  0  0  0  0  0  0  0  0
  -22.2330   -4.2200   21.3880 F   0  0  0  0  0  0  0  0  0  0  0  0
  -21.1420   -3.6970   26.0080 F   0  0  0  0  0  0  0  0  0  0  0  0
  -22.7680  -13.5110   21.2810 C   0  0  0  0  0  0  0  0  0  0  0  0
  -22.0360  -12.8130   22.1450 N   0  0  0  0  0  0  0  0  0  0  0  0
  -22.3370  -14.5460   20.7710 O   0  0  0  0  0  0  0  0  0  0  0  0
  -22.3960  -11.9750   22.5780 H   0  0  0  0  0  0  0  0  0  0  0  0
  -21.1020  -13.1200   22.3770 H   0  0  0  0  0  0  0  0  0  0  0  0
  -25.4010  -15.1650   20.4700 N   0  0  0  0  0  0  0  0  0  0  0  0
  -24.6470  -15.8320   20.5970 H   0  0  0  0  0  0  0  0  0  0  0  0
  -26.2410  -15.5910   20.1000 H   0  0  0  0  0  0  0  0  0  0  0  0
  -27.9150  -22.6690   21.5790 C   0  0  0  0  0  1  0  0  0  0  0  0
  -26.6080  -22.1660   19.5670 C   0  0  0  0  0  1  0  0  0  0  0  0
  -28.0390  -22.4490   20.0610 C   0  0  2  0  0  0  0  0  0  0  0  0
  -28.2420  -24.1660   19.4060 C   0  0  0  0  0  2  0  0  0  0  0  0
  -28.1050  -25.7760   19.8750 O   0  0  0  0  0  0  0  0  0  0  0  0
  -24.6060  -31.7100   23.0220 C   0  0  0  0  0  0  0  0  0  0  0  0
  -27.0880  -26.8810   19.7980 C   0  0  0  0  0  0  0  0  0  0  0  0
  -23.3690  -30.3530   21.3820 C   0  0  0  0  0  3  0  0  0  0  0  0
  -24.7790  -28.7750   19.8730 C   0  0  0  0  0  0  0  0  0  0  0  0
  -25.9320  -30.5580   21.1720 C   0  0  0  0  0  2  0  0  0  0  0  0
  -25.9820  -29.1630   20.4720 C   0  0  0  0  0  0  0  0  0  0  0  0
  -27.1220  -28.2330   20.4180 C   0  0  0  0  0  3  0  0  0  0  0  0
  -25.8570  -26.6560   19.1490 C   0  0  0  0  0  3  0  0  0  0  0  0
  -24.7400  -27.5390   19.1960 C   0  0  0  0  0  3  0  0  0  0  0  0
  -23.5630  -29.6990   19.9830 C   0  0  0  0  0  2  0  0  0  0  0  0
  -24.6590  -30.9040   21.9100 N   0  0  0  0  0  0  0  0  0  0  0  0
  -23.5320  -31.9860   23.5820 O   0  0  0  0  0  0  0  0  0  0  0  0
  -22.7040  -29.3360   22.3460 C   0  0  0  0  0  0  0  0  0  0  0  0
  -21.3680  -29.1770   22.2710 N   0  0  0  0  0  0  0  0  0  0  0  0
  -23.3990  -28.6870   23.1320 O   0  0  0  0  0  0  0  0  0  0  0  0
  -20.8550  -29.7580   21.6230 H   0  0  0  0  0  0  0  0  0  0  0  0
  -18.0110  -27.9370   22.8680 C   0  0  0  0  0  0  0  0  0  0  0  0
  -20.5790  -28.2120   23.0480 C   0  0  0  0  0  3  0  0  0  0  0  0
  -20.6630  -26.7940   22.4360 C   0  0  0  0  0  2  0  0  0  0  0  0
  -19.5270  -26.4900   21.4540 C   0  0  0  0  0  2  0  0  0  0  0  0
  -18.1680  -26.6110   22.1470 C   0  0  0  0  0  2  0  0  0  0  0  0
  -19.1410  -28.6960   23.2790 C   0  0  0  0  0  0  0  0  0  0  0  0
  -18.9310  -29.9380   23.9170 C   0  0  0  0  0  3  0  0  0  0  0  0
  -17.6280  -30.4190   24.1480 C   0  0  0  0  0  3  0  0  0  0  0  0
  -16.5160  -29.6570   23.7490 C   0  0  0  0  0  3  0  0  0  0  0  0
  -16.7090  -28.4180   23.1150 C   0  0  0  0  0  3  0  0  0  0  0  0
  -25.8940  -32.3410   23.6330 C   0  0  0  0  0  3  0  0  0  0  0  0
  -25.5700  -33.7220   24.0380 N   0  0  0  0  0  0  0  0  0  0  0  0
  -25.8770  -34.8220   23.3370 C   0  0  0  0  0  0  0  0  0  0  0  0
  -26.5210  -34.7820   22.2860 O   0  0  0  0  0  0  0  0  0  0  0  0
  -24.9890  -33.8200   24.8570 H   0  0  0  0  0  0  0  0  0  0  0  0
  -24.1260  -36.6260   23.1440 C   0  0  0  0  0  1  0  0  0  0  0  0
  -25.3940  -36.1790   23.8880 C   0  0  0  0  0  3  0  0  0  0  0  0
  -27.5470  -37.0480   24.6970 C   0  0  0  0  0  1  0  0  0  0  0  0
  -26.4140  -37.2480   23.7980 N   0  0  0  0  0  0  0  0  0  0  0  0
  -26.0030  -38.1540   24.0060 H   0  0  0  0  0  0  0  0  0  0  0  0
  -26.4550  -31.5360   24.8690 C   0  0  1  0  0  0  0  0  0  0  0  0
  -25.3980  -31.2630   25.9660 C   0  0  0  0  0  1  0  0  0  0  0  0
  -27.0290  -30.1730   24.4260 C   0  0  0  0  0  1  0  0  0  0  0  0
  -27.6250  -32.3170   25.5140 C   0  0  0  0  0  1  0  0  0  0  0  0
  -31.1120  -21.5400   19.0870 C   0  0  0  0  0  2  0  0  0  0  0  0
  -31.9680  -22.0960   20.2490 C   0  0  0  0  0  2  0  0  0  0  0  0
  -31.6900  -24.6020   19.6830 C   0  0  0  0  0  1  0  0  0  0  0  0
  -31.5540  -23.4950   20.7400 C   0  0  0  0  0  2  0  0  0  0  0  0
  2  3  2  0
  3  1  1  0
  3 14  1  0
  4 46  1  0
  4  1  2  0
  5  2  1  0
  5  4  1  0
  6 12  1  0
  7 12  1  0
  8  9  1  0
  8  7  1  0
 10  9  1  0
 10 19  1  0
 10 11  1  0
 12 11  1  0
 13  6  2  0
 14  6  1  0
 14 15  1  0
 16 17  2  0
 17 36  1  0
 18 17  1  0
 18 21  1  0
 19 20  1  0
 19 16  1  0
 20 18  2  0
 21 22  1  0
 22 23  2  0
 24 27  1  0
 24 23  1  0
 25 24  2  0
 26 25  1  0
 26 21  2  0
 27 28  1  0
 28 29  1  0
 29 30  2  0
 31 30  1  0
 31 35  1  0
 32 31  2  0
 33 28  2  0
 33 32  1  0
 34 33  1  0
 36 37  1  0
 37 40  1  0
 37 39  1  0
 38 36  2  0
 41 42  1  0
 41 16  1  0
 43 41  1  0
 46 45  1  6
 46 44  1  0
 47 48  1  0
 47 46  1  0
 49 60  2  0
 50 48  1  0
 50 55  1  0
 51 59  1  0
 51 61  1  0
 52 58  1  0
 52 54  1  0
 53 59  1  0
 54 53  1  0
 55 54  2  0
 56 57  1  0
 56 50  2  0
 57 52  2  0
 58 51  1  0
 59 49  1  0
 61 63  2  0
 62 61  1  0
 64 62  1  0
 65 74  2  0
 65 70  1  0
 66 62  1  0
 66 70  1  0
 67 66  1  0
 68 69  1  0
 68 67  1  0
 69 65  1  0
 70 71  2  0
 71 72  1  0
 73 72  2  0
 74 73  1  0
 75 49  1  0
 75 76  1  0
 75 85  1  0
 76 79  1  0
 77 81  1  0
 77 76  1  0
 78 77  2  0
 81 80  1  0
 83 81  1  0
 83 84  1  0
 83 82  1  0
 85 88  1  1
 85 86  1  0
 87 85  1  0
 89  5  1  0
 89 90  1  0
 90 92  1  0
 91 92  1  0
M  ISO  4   6 100  14 100  47 101  48 101
M  END
>  <TORSDO>  (45) 
F 21

>  <SCORE>  (45) 
-14.363

>  <name>  (45) 
44

>  <ligand_id>  (45) 
44

>  <original_smiles>  (45) 
[H]c1c([H])c([H])c2c(c1[H])C([H])([H])C([H])([H])C([H])([H])C2([H])N([H])C(=O)C1([H])N(C(=O)C([H])(N([H])C(=O)C([H])(N([H])C([H])([H])[H])C([H])([H])[H])C(C([H])([H])[H])(C([H])([H])[H])C([H])([H])[H])C([H])([H])c2c([H])c(OC([H])([H])C(c3c([H])c(N([H])C(=O)N4C([H])([H])C([H])([H])C([H])([H])C([H])(n5nc(-c6c([H])c([H])c(Oc7c([H])c([H])c(F)c([H])c7F)c([H])c6[H])c(C(=O)N([H])[H])c5N([H])[H])C4([H])[H])c([H])n3C([H])([H])C([H])([H])C([H])([H])C([H])([H])[H])(C([H])([H])[H])C([H])([H])[H])c([H])c([H])c2C1([H])[H]

>  <smiles>  (45) 
[H]c1c([H])c([H])c2c(c1[H])C([H])([H])C([H])([H])C([H])([H])C2([H])N([H])C(=O)C1([H])N(C(=O)C([H])(N([H])C(=O)C([H])(N([H])C([H])([H])[H])C([H])([H])[H])C(C([H])([H])[H])(C([H])([H])[H])C([H])([H])[H])C([H])([H])c2c([H])c(OC([H])([H])C(c3c([H])c(N([H])C(=O)N4C([H])([H])C([H])([H])C([H])([H])C([H])(n5nc(-c6c([H])c([H])c(Oc7c([H])c([H])c(F)c([H])c7F)c([H])c6[H])c(C(=O)N([H])[H])c5N([H])[H])C4([H])[H])c([H])n3C([H])([H])C([H])([H])C([H])([H])C([H])([H])[H])(C([H])([H])[H])C([H])([H])[H])c([H])c([H])c2C1([H])[H]

$$$$
45:0:0
     RDKit          3D

107115  0  0  1  0  0  0  0  0999 V2000
  -28.8830  -21.5970   18.9260 C   0  0  0  0  0  0  0  0  0  0  0  0
  -27.4590  -21.3520   20.8380 C   0  0  0  0  0  1  0  0  0  0  0  0
  -27.8740  -22.1230   19.6540 N   0  0  0  0  0  0  0  0  0  0  0  0
  -29.7450  -22.3050   18.3980 O   0  0  0  0  0  0  0  0  0  0  0  0
  -28.3620  -19.9160   17.0870 C   0  0  0  0  0  2  0  0  0  0  0  0
  -30.7210  -19.4790   17.4270 C   0  0  0  0  0  2  0  0  0  0  0  0
  -28.7730  -20.0880   18.5630 C   0  0  0  0  0  3  0  0  0  0  0  0
  -29.6360  -19.5110   16.3320 C   0  0  1  0  0  0  0  0  0  0  0  0
  -29.4790  -18.1400   15.6380 C   0  0  0  0  0  1  0  0  0  0  0  0
  -30.0030  -20.5350   15.2540 C   0  0  0  0  0  1  0  0  0  0  0  0
  -30.0370  -19.3080   18.7430 N   0  0  1  0  0  4  0  0  0  0  0  0
  -30.6270  -19.7650   19.4190 H   0  0  0  0  0  0  0  0  0  0  0  0
  -28.8480  -17.7900   20.4270 C   0  0  0  0  0  1  0  0  0  0  0  0
  -29.7920  -17.8800   19.2050 C   0  0  0  0  0  3  0  0  0  0  0  0
  -31.0720  -17.0240   19.4850 C   0  0  0  0  0  3  0  0  0  0  0  0
  -31.1790  -14.5760   19.4700 C   0  0  0  0  0  0  0  0  0  0  0  0
  -30.7970  -12.2310   18.8790 C   0  0  0  0  0  2  0  0  0  0  0  0
  -29.8130  -12.1640   17.7000 C   0  0  0  0  0  2  0  0  0  0  0  0
  -28.3740  -12.0820   18.2370 C   0  0  0  0  0  2  0  0  0  0  0  0
  -28.0600  -13.1720   19.2980 C   0  0  0  0  0  3  0  0  0  0  0  0
  -29.1850  -13.2870   20.3620 C   0  0  0  0  0  2  0  0  0  0  0  0
  -30.4800  -13.4290   19.6720 N   0  0  0  0  0  0  0  0  0  0  0  0
  -32.1690  -14.6180   18.7320 O   0  0  0  0  0  0  0  0  0  0  0  0
  -30.7100  -15.6970   20.0250 N   0  0  0  0  0  0  0  0  0  0  0  0
  -29.9270  -15.6150   20.6520 H   0  0  0  0  0  0  0  0  0  0  0  0
  -25.8090  -13.8760   20.3270 C   0  0  0  0  0  0  0  0  0  0  0  0
  -24.7370  -13.1500   20.7640 C   0  0  0  0  0  0  0  0  0  0  0  0
  -25.0820  -11.7740   20.5740 C   0  0  0  0  0  0  0  0  0  0  0  0
  -26.7520  -12.9500   19.9080 N   0  0  0  0  0  0  0  0  0  0  0  0
  -26.3260  -11.6750   20.1110 N   0  0  0  0  0  0  0  0  0  0  0  0
  -24.2850  -10.5570   20.7550 C   0  0  0  0  0  0  0  0  0  0  0  0
  -24.6630   -9.5500   21.6730 C   0  0  0  0  0  3  0  0  0  0  0  0
  -23.8660   -8.3930   21.8330 C   0  0  0  0  0  3  0  0  0  0  0  0
  -22.6790   -8.2420   21.0780 C   0  0  0  0  0  0  0  0  0  0  0  0
  -22.3180   -9.2410   20.1520 C   0  0  0  0  0  3  0  0  0  0  0  0
  -23.1140  -10.3870   19.9900 C   0  0  0  0  0  3  0  0  0  0  0  0
  -21.8570   -7.1430   21.1560 O   0  0  0  0  0  0  0  0  0  0  0  0
  -21.7000   -6.4370   22.3230 C   0  0  0  0  0  0  0  0  0  0  0  0
  -21.1870   -7.0370   23.4960 C   0  0  0  0  0  3  0  0  0  0  0  0
  -20.9810   -6.2620   24.6540 C   0  0  0  0  0  3  0  0  0  0  0  0
  -21.2740   -4.8850   24.6410 C   0  0  0  0  0  0  0  0  0  0  0  0
  -21.7780   -4.2810   23.4760 C   0  0  0  0  0  3  0  0  0  0  0  0
  -21.9890   -5.0550   22.3210 C   0  0  0  0  0  0  0  0  0  0  0  0
  -22.4560   -4.4640   21.1940 F   0  0  0  0  0  0  0  0  0  0  0  0
  -21.0670   -4.1380   25.7510 F   0  0  0  0  0  0  0  0  0  0  0  0
  -23.4250  -13.7000   21.2420 C   0  0  0  0  0  0  0  0  0  0  0  0
  -22.7510  -13.0080   22.1500 N   0  0  0  0  0  0  0  0  0  0  0  0
  -23.0150  -14.7950   20.8550 O   0  0  0  0  0  0  0  0  0  0  0  0
  -23.0860  -12.1270   22.5060 H   0  0  0  0  0  0  0  0  0  0  0  0
  -21.8870  -13.3830   22.5160 H   0  0  0  0  0  0  0  0  0  0  0  0
  -26.0420  -15.2490   20.2310 N   0  0  0  0  0  0  0  0  0  0  0  0
  -25.2810  -15.8950   20.4100 H   0  0  0  0  0  0  0  0  0  0  0  0
  -26.8270  -15.6890   19.7710 H   0  0  0  0  0  0  0  0  0  0  0  0
  -32.2190  -17.4600   21.8020 C   0  0  0  0  0  1  0  0  0  0  0  0
  -33.6120  -17.2530   19.7380 C   0  0  0  0  0  1  0  0  0  0  0  0
  -32.2320  -17.6940   20.2760 C   0  0  0  0  0  3  0  0  0  0  0  0
  -26.8310  -23.0020   19.0310 C   0  0  0  0  0  3  0  0  0  0  0  0
  -26.5930  -22.7640   17.4690 C   0  0  0  0  0  0  0  0  0  0  0  0
  -27.3040  -23.6140   16.4210 C   0  0  0  0  0  1  0  0  0  0  0  0
  -25.8550  -21.8550   16.9730 N   0  0  0  0  0  0  0  0  0  0  0  0
  -25.0000  -20.6980   18.0260 Cl  0  0  0  0  0  0  0  0  0  0  0  0
  -25.2640  -24.9270   19.0260 C   0  0  0  0  0  1  0  0  0  0  0  0
  -26.6640  -24.4920   19.5860 C   0  0  1  0  0  0  0  0  0  0  0  0
  -25.2490  -24.0300   21.8110 C   0  0  0  0  0  1  0  0  0  0  0  0
  -26.5170  -24.6010   21.1340 C   0  0  0  0  0  2  0  0  0  0  0  0
  -27.9460  -25.4130   19.2920 C   0  0  0  0  0  2  0  0  0  0  0  0
  -28.1490  -26.7130   19.9290 O   0  0  0  0  0  0  0  0  0  0  0  0
  -24.7660  -31.9070   23.4290 C   0  0  0  0  0  0  0  0  0  0  0  0
  -27.1300  -27.6390   19.8780 C   0  0  0  0  0  0  0  0  0  0  0  0
  -23.4740  -30.6840   21.7090 C   0  0  0  0  0  3  0  0  0  0  0  0
  -24.8430  -29.2700   20.0740 C   0  0  0  0  0  0  0  0  0  0  0  0
  -26.0080  -30.9490   21.4950 C   0  0  0  0  0  2  0  0  0  0  0  0
  -26.0230  -29.6430   20.7320 C   0  0  0  0  0  0  0  0  0  0  0  0
  -27.1630  -28.8050   20.6780 C   0  0  0  0  0  3  0  0  0  0  0  0
  -26.0090  -27.4220   19.0630 C   0  0  0  0  0  3  0  0  0  0  0  0
  -24.8310  -28.1550   19.2320 C   0  0  0  0  0  3  0  0  0  0  0  0
  -23.6310  -30.1500   20.2580 C   0  0  0  0  0  2  0  0  0  0  0  0
  -24.7680  -31.1880   22.2700 N   0  0  0  0  0  0  0  0  0  0  0  0
  -23.7060  -32.1760   24.0110 O   0  0  0  0  0  0  0  0  0  0  0  0
  -22.8200  -29.5970   22.5950 C   0  0  0  0  0  0  0  0  0  0  0  0
  -21.4980  -29.4150   22.4420 N   0  0  0  0  0  0  0  0  0  0  0  0
  -23.4950  -28.9290   23.3810 O   0  0  0  0  0  0  0  0  0  0  0  0
  -21.0090  -30.0180   21.7930 H   0  0  0  0  0  0  0  0  0  0  0  0
  -18.1300  -28.1760   22.8020 C   0  0  0  0  0  0  0  0  0  0  0  0
  -20.6780  -28.4250   23.1420 C   0  0  0  0  0  3  0  0  0  0  0  0
  -20.7920  -27.0340   22.4810 C   0  0  0  0  0  2  0  0  0  0  0  0
  -19.7240  -26.7860   21.4150 C   0  0  0  0  0  2  0  0  0  0  0  0
  -18.3200  -26.8830   22.0210 C   0  0  0  0  0  2  0  0  0  0  0  0
  -19.2360  -28.9120   23.3050 C   0  0  0  0  0  0  0  0  0  0  0  0
  -19.0040  -30.1320   23.9750 C   0  0  0  0  0  3  0  0  0  0  0  0
  -17.6920  -30.6190   24.1430 C   0  0  0  0  0  3  0  0  0  0  0  0
  -16.6000  -29.8770   23.6630 C   0  0  0  0  0  3  0  0  0  0  0  0
  -16.8180  -28.6530   23.0010 C   0  0  0  0  0  3  0  0  0  0  0  0
  -26.0870  -32.4410   24.0660 C   0  0  0  0  0  3  0  0  0  0  0  0
  -26.5530  -31.6120   25.3220 C   0  0  1  0  0  0  0  0  0  0  0  0
  -25.4360  -31.3910   26.3690 C   0  0  0  0  0  1  0  0  0  0  0  0
  -27.0790  -30.2230   24.8970 C   0  0  0  0  0  1  0  0  0  0  0  0
  -27.7410  -32.3260   26.0090 C   0  0  0  0  0  1  0  0  0  0  0  0
  -25.8690  -33.8490   24.4230 N   0  0  0  0  0  0  0  0  0  0  0  0
  -26.2490  -34.8890   23.6710 C   0  0  0  0  0  0  0  0  0  0  0  0
  -26.8970  -34.7630   22.6280 O   0  0  0  0  0  0  0  0  0  0  0  0
  -25.2900  -34.0270   25.2330 H   0  0  0  0  0  0  0  0  0  0  0  0
  -24.6300  -36.7890   23.3490 C   0  0  0  0  0  1  0  0  0  0  0  0
  -25.8480  -36.2990   24.1510 C   0  0  0  0  0  3  0  0  0  0  0  0
  -28.0360  -37.0380   24.9860 C   0  0  0  0  0  1  0  0  0  0  0  0
  -26.9460  -37.2850   24.0450 N   0  0  0  0  0  0  0  0  0  0  0  0
  -26.6030  -38.2280   24.2040 H   0  0  0  0  0  0  0  0  0  0  0  0
  1  3  1  0
  3  2  1  0
  4  1  2  0
  5  7  1  0
  6 11  1  0
  7 11  1  0
  7  1  1  0
  8  5  1  0
  8  6  1  0
  8  9  1  6
 10  8  1  0
 11 14  1  0
 11 12  1  1
 14 15  1  0
 14 13  1  0
 15 24  1  0
 15 56  1  0
 16 22  1  0
 16 24  1  0
 17 22  1  0
 18 19  1  0
 18 17  1  0
 20 19  1  0
 20 29  1  0
 20 21  1  0
 22 21  1  0
 23 16  2  0
 24 25  1  0
 26 27  2  0
 27 46  1  0
 28 31  1  0
 28 27  1  0
 29 30  1  0
 29 26  1  0
 30 28  2  0
 31 32  1  0
 32 33  2  0
 34 37  1  0
 34 33  1  0
 35 34  2  0
 36 35  1  0
 36 31  2  0
 37 38  1  0
 38 39  1  0
 39 40  2  0
 41 40  1  0
 41 45  1  0
 42 41  2  0
 43 38  2  0
 43 42  1  0
 44 43  1  0
 46 47  1  0
 47 49  1  0
 47 50  1  0
 48 46  2  0
 51 26  1  0
 51 52  1  0
 53 51  1  0
 55 56  1  0
 56 54  1  0
 57 58  1  0
 57 63  1  0
 57  3  1  0
 59 58  1  0
 60 58  2  0
 60 61  1  0
 63 62  1  6
 63 65  1  0
 65 64  1  0
 66 63  1  0
 66 67  1  0
 68 79  2  0
 69 67  1  0
 69 74  1  0
 70 78  1  0
 70 80  1  0
 71 77  1  0
 71 73  1  0
 72 78  1  0
 73 72  1  0
 74 73  2  0
 75 76  1  0
 75 69  2  0
 76 71  2  0
 77 70  1  0
 78 68  1  0
 80 82  2  0
 81 80  1  0
 83 81  1  0
 84 93  2  0
 84 89  1  0
 85 81  1  0
 85 89  1  0
 86 85  1  0
 87 88  1  0
 87 86  1  0
 88 84  1  0
 89 90  2  0
 90 91  1  0
 92 91  2  0
 93 92  1  0
 94 68  1  0
 94 99  1  0
 94 95  1  0
 95 98  1  1
 95 96  1  0
 97 95  1  0
 99102  1  0
100104  1  0
100 99  1  0
101100  2  0
104103  1  0
106104  1  0
106107  1  0
106105  1  0
M  ISO  4  16 100  24 100  66 101  67 101
M  END
>  <TORSDO>  (46) 
F 25

>  <SCORE>  (46) 
-9.678

>  <name>  (46) 
45

>  <ligand_id>  (46) 
45

>  <original_smiles>  (46) 
[H]c1c([H])c([H])c2c(c1[H])C([H])([H])C([H])([H])C([H])([H])C2([H])N([H])C(=O)C1([H])N(C(=O)C([H])(N([H])C(=O)C([H])(N([H])C([H])([H])[H])C([H])([H])[H])C(C([H])([H])[H])(C([H])([H])[H])C([H])([H])[H])C([H])([H])c2c([H])c(OC([H])([H])C(C([H])([H])[H])(C([H])(C(=NCl)C([H])([H])[H])N(C(=O)C3([H])C([H])([H])C(C([H])([H])[H])(C([H])([H])[H])C([H])([H])[N+]3([H])C([H])(C([H])([H])[H])C([H])(N([H])C(=O)N3C([H])([H])C([H])([H])C([H])([H])C([H])(n4nc(-c5c([H])c([H])c(Oc6c([H])c([H])c(F)c([H])c6F)c([H])c5[H])c(C(=O)N([H])[H])c4N([H])[H])C3([H])[H])C([H])(C([H])([H])[H])C([H])([H])[H])C([H])([H])[H])C([H])([H])C([H])([H])[H])c([H])c([H])c2C1([H])[H]

>  <smiles>  (46) 
[H]c1c([H])c([H])c2c(c1[H])C([H])([H])C([H])([H])C([H])([H])C2([H])N([H])C(=O)C1([H])N(C(=O)C([H])(N([H])C(=O)C([H])(N([H])C([H])([H])[H])C([H])([H])[H])C(C([H])([H])[H])(C([H])([H])[H])C([H])([H])[H])C([H])([H])c2c([H])c(OC([H])([H])C(C([H])([H])[H])(C([H])(C(=NCl)C([H])([H])[H])N(C(=O)C3([H])C([H])([H])C(C([H])([H])[H])(C([H])([H])[H])C([H])([H])[N+]3([H])C([H])(C([H])([H])[H])C([H])(N([H])C(=O)N3C([H])([H])C([H])([H])C([H])([H])C([H])(n4nc(-c5c([H])c([H])c(Oc6c([H])c([H])c(F)c([H])c6F)c([H])c5[H])c(C(=O)N([H])[H])c4N([H])[H])C3([H])[H])C([H])(C([H])([H])[H])C([H])([H])[H])C([H])([H])[H])C([H])([H])C([H])([H])[H])c([H])c([H])c2C1([H])[H]

$$$$
46:0:0
     RDKit          3D

 91 99  0  0  1  0  0  0  0  0999 V2000
  -29.8560  -18.7650   21.0430 C   0  0  0  0  0  3  0  0  0  0  0  0
  -29.5470  -20.1660   20.8670 C   0  0  0  0  0  0  0  0  0  0  0  0
  -29.6560  -19.8640   18.5030 C   0  0  0  0  0  0  0  0  0  0  0  0
  -29.3890  -20.7850   19.5820 C   0  0  0  0  0  0  0  0  0  0  0  0
  -29.9600  -18.4440   18.6920 C   0  0  0  0  0  0  0  0  0  0  0  0
  -30.0540  -17.8230   19.9880 C   0  0  0  0  0  0  0  0  0  0  0  0
  -29.3110  -20.9750   22.1300 C   0  0  0  0  0  1  0  0  0  0  0  0
  -29.5320  -20.3910   17.0750 C   0  0  0  0  0  1  0  0  0  0  0  0
  -30.1040  -17.5680   17.4510 C   0  0  0  0  0  1  0  0  0  0  0  0
  -30.9360  -15.2380   20.1220 C   0  0  0  0  0  0  0  0  0  0  0  0
  -30.8860  -12.8260   19.3990 C   0  0  0  0  0  2  0  0  0  0  0  0
  -29.9650  -12.6980   18.1630 C   0  0  0  0  0  2  0  0  0  0  0  0
  -28.4940  -12.5180   18.5860 C   0  0  0  0  0  2  0  0  0  0  0  0
  -28.0670  -13.5300   19.6810 C   0  0  0  0  0  3  0  0  0  0  0  0
  -29.1040  -13.6070   20.8230 C   0  0  0  0  0  2  0  0  0  0  0  0
  -30.3940  -13.9660   20.2160 N   0  0  0  0  0  0  0  0  0  0  0  0
  -32.1150  -15.3550   19.7670 O   0  0  0  0  0  0  0  0  0  0  0  0
  -30.0780  -16.3370   20.3010 N   0  0  0  0  0  0  0  0  0  0  0  0
  -29.2210  -16.0300   20.7340 H   0  0  0  0  0  0  0  0  0  0  0  0
  -25.7050  -14.1650   20.4510 C   0  0  0  0  0  0  0  0  0  0  0  0
  -24.6210  -13.4130   20.8120 C   0  0  0  0  0  0  0  0  0  0  0  0
  -25.0430  -12.0500   20.7340 C   0  0  0  0  0  0  0  0  0  0  0  0
  -26.7200  -13.2620   20.1780 N   0  0  0  0  0  0  0  0  0  0  0  0
  -26.3290  -11.9820   20.4100 N   0  0  0  0  0  0  0  0  0  0  0  0
  -24.2800  -10.8050   20.8920 C   0  0  0  0  0  0  0  0  0  0  0  0
  -24.6540   -9.8210   21.8340 C   0  0  0  0  0  3  0  0  0  0  0  0
  -23.8930   -8.6420   21.9790 C   0  0  0  0  0  3  0  0  0  0  0  0
  -22.7410   -8.4390   21.1830 C   0  0  0  0  0  0  0  0  0  0  0  0
  -22.3880   -9.4090   20.2280 C   0  0  0  0  0  3  0  0  0  0  0  0
  -23.1500  -10.5800   20.0820 C   0  0  0  0  0  3  0  0  0  0  0  0
  -21.9560   -7.3130   21.2380 O   0  0  0  0  0  0  0  0  0  0  0  0
  -21.8030   -6.5980   22.3990 C   0  0  0  0  0  0  0  0  0  0  0  0
  -21.1960   -7.1580   23.5440 C   0  0  0  0  0  3  0  0  0  0  0  0
  -20.9970   -6.3660   24.6930 C   0  0  0  0  0  3  0  0  0  0  0  0
  -21.3940   -5.0150   24.6940 C   0  0  0  0  0  0  0  0  0  0  0  0
  -21.9920   -4.4540   23.5520 C   0  0  0  0  0  3  0  0  0  0  0  0
  -22.1930   -5.2440   22.4060 C   0  0  0  0  0  0  0  0  0  0  0  0
  -22.7520   -4.6930   21.3020 F   0  0  0  0  0  0  0  0  0  0  0  0
  -21.1930   -4.2520   25.7950 F   0  0  0  0  0  0  0  0  0  0  0  0
  -23.2410  -13.9230   21.1120 C   0  0  0  0  0  0  0  0  0  0  0  0
  -22.4910  -13.2140   21.9490 N   0  0  0  0  0  0  0  0  0  0  0  0
  -22.8390  -14.9860   20.6420 O   0  0  0  0  0  0  0  0  0  0  0  0
  -22.8310  -12.3540   22.3540 H   0  0  0  0  0  0  0  0  0  0  0  0
  -21.5660  -13.5400   22.1910 H   0  0  0  0  0  0  0  0  0  0  0  0
  -25.9040  -15.5350   20.3090 N   0  0  0  0  0  0  0  0  0  0  0  0
  -25.1440  -16.1960   20.4220 H   0  0  0  0  0  0  0  0  0  0  0  0
  -26.7410  -15.9570   19.9270 H   0  0  0  0  0  0  0  0  0  0  0  0
  -28.6620  -22.2430   19.3830 C   0  0  0  0  0  2  0  0  0  0  0  0
  -29.2780  -23.7740   19.4780 C   0  0  0  0  0  3  0  0  0  0  0  0
  -28.2580  -25.0700   19.2890 C   0  0  0  0  0  3  0  0  0  0  0  0
  -28.4910  -26.5440   19.6450 O   0  0  0  0  0  0  0  0  0  0  0  0
  -24.6180  -31.6790   23.1610 C   0  0  0  0  0  0  0  0  0  0  0  0
  -27.3830  -27.4510   19.6750 C   0  0  0  0  0  0  0  0  0  0  0  0
  -23.4710  -30.4070   21.3870 C   0  0  0  0  0  3  0  0  0  0  0  0
  -24.9780  -29.0530   19.8150 C   0  0  0  0  0  0  0  0  0  0  0  0
  -26.0090  -30.8060   21.2530 C   0  0  0  0  0  2  0  0  0  0  0  0
  -26.1380  -29.4970   20.4640 C   0  0  0  0  0  0  0  0  0  0  0  0
  -27.3430  -28.7130   20.3800 C   0  0  0  0  0  3  0  0  0  0  0  0
  -26.1900  -27.0970   19.0030 C   0  0  0  0  0  3  0  0  0  0  0  0
  -25.0140  -27.8650   19.0740 C   0  0  0  0  0  3  0  0  0  0  0  0
  -23.7140  -29.8830   19.9480 C   0  0  0  0  0  2  0  0  0  0  0  0
  -24.7180  -30.9820   21.9890 N   0  0  0  0  0  0  0  0  0  0  0  0
  -23.5230  -31.8620   23.7150 O   0  0  0  0  0  0  0  0  0  0  0  0
  -22.8410  -29.2790   22.2410 C   0  0  0  0  0  0  0  0  0  0  0  0
  -21.5200  -29.0730   22.1000 N   0  0  0  0  0  0  0  0  0  0  0  0
  -23.5420  -28.5950   22.9910 O   0  0  0  0  0  0  0  0  0  0  0  0
  -21.0110  -29.6810   21.4740 H   0  0  0  0  0  0  0  0  0  0  0  0
  -18.1740  -27.7570   22.5420 C   0  0  0  0  0  0  0  0  0  0  0  0
  -20.7350  -28.0340   22.7720 C   0  0  0  0  0  3  0  0  0  0  0  0
  -20.8450  -26.6830   22.0270 C   0  0  0  0  0  2  0  0  0  0  0  0
  -19.7200  -26.4630   21.0110 C   0  0  0  0  0  2  0  0  0  0  0  0
  -18.3540  -26.5030   21.7040 C   0  0  0  0  0  2  0  0  0  0  0  0
  -19.2920  -28.4850   23.0300 C   0  0  0  0  0  0  0  0  0  0  0  0
  -19.0670  -29.6610   23.7780 C   0  0  0  0  0  3  0  0  0  0  0  0
  -17.7600  -30.1110   24.0390 C   0  0  0  0  0  3  0  0  0  0  0  0
  -16.6570  -29.3790   23.5650 C   0  0  0  0  0  3  0  0  0  0  0  0
  -16.8660  -28.2030   22.8230 C   0  0  0  0  0  3  0  0  0  0  0  0
  -25.8730  -32.3000   23.8480 C   0  0  0  0  0  3  0  0  0  0  0  0
  -26.3280  -31.5080   25.1350 C   0  0  1  0  0  0  0  0  0  0  0  0
  -25.1900  -31.2630   26.1530 C   0  0  0  0  0  1  0  0  0  0  0  0
  -26.9210  -30.1310   24.7540 C   0  0  0  0  0  1  0  0  0  0  0  0
  -27.4500  -32.2880   25.8580 C   0  0  0  0  0  1  0  0  0  0  0  0
  -25.5500  -33.6920   24.1920 N   0  0  0  0  0  0  0  0  0  0  0  0
  -25.8490  -34.7550   23.4330 C   0  0  0  0  0  0  0  0  0  0  0  0
  -26.4940  -34.6660   22.3850 O   0  0  0  0  0  0  0  0  0  0  0  0
  -24.9770  -33.8310   25.0100 H   0  0  0  0  0  0  0  0  0  0  0  0
  -24.0660  -36.5120   23.1690 C   0  0  0  0  0  1  0  0  0  0  0  0
  -25.3570  -36.1350   23.9130 C   0  0  0  0  0  3  0  0  0  0  0  0
  -27.4990  -37.0870   24.6470 C   0  0  0  0  0  1  0  0  0  0  0  0
  -26.3590  -37.2100   23.7430 N   0  0  0  0  0  0  0  0  0  0  0  0
  -25.9350  -38.1230   23.8890 H   0  0  0  0  0  0  0  0  0  0  0  0
  2  1  1  0
  2  7  1  0
  3  5  2  0
  3  4  1  0
  4  2  2  0
  5  6  1  0
  6 18  1  0
  6  1  2  0
  8  3  1  0
  9  5  1  0
 10 16  1  0
 10 18  1  0
 11 16  1  0
 12 13  1  0
 12 11  1  0
 14 13  1  0
 14 23  1  0
 14 15  1  0
 16 15  1  0
 17 10  2  0
 18 19  1  0
 20 21  2  0
 21 40  1  0
 22 21  1  0
 22 25  1  0
 23 24  1  0
 23 20  1  0
 24 22  2  0
 25 26  1  0
 26 27  2  0
 28 31  1  0
 28 27  1  0
 29 28  2  0
 30 29  1  0
 30 25  2  0
 31 32  1  0
 32 37  2  0
 32 33  1  0
 33 34  2  0
 34 35  1  0
 35 39  1  0
 36 35  2  0
 37 36  1  0
 38 37  1  0
 40 41  1  0
 41 44  1  0
 41 43  1  0
 42 40  2  0
 45 46  1  0
 45 20  1  0
 47 45  1  0
 48 49  1  0
 48  4  1  0
 50 49  2  0
 50 51  1  0
 51 53  1  0
 52 63  2  0
 53 58  1  0
 54 62  1  0
 54 64  1  0
 55 61  1  0
 55 57  1  0
 56 62  1  0
 57 56  1  0
 58 57  2  0
 59 60  1  0
 59 53  2  0
 60 55  2  0
 61 54  1  0
 62 52  1  0
 64 66  2  0
 65 64  1  0
 67 65  1  0
 68 77  2  0
 68 73  1  0
 69 65  1  0
 69 73  1  0
 70 69  1  0
 71 72  1  0
 71 70  1  0
 72 68  1  0
 73 74  2  0
 74 75  1  0
 76 75  2  0
 77 76  1  0
 78 52  1  0
 78 83  1  0
 78 79  1  0
 79 82  1  1
 79 80  1  0
 81 79  1  0
 83 86  1  0
 84 88  1  0
 84 83  1  0
 85 84  2  0
 88 87  1  0
 90 91  1  0
 90 88  1  0
 90 89  1  0
M  ISO  4  10 100  18 100  50 101  51 101
M  END
>  <TORSDO>  (47) 
F 19

>  <SCORE>  (47) 
-12.851

>  <name>  (47) 
46

>  <ligand_id>  (47) 
46

>  <original_smiles>  (47) 
[H]c1c([H])c([H])c2c(c1[H])C([H])([H])C([H])([H])C([H])([H])C2([H])N([H])C(=O)C1([H])N(C(=O)C([H])(N([H])C(=O)C([H])(N([H])C([H])([H])[H])C([H])([H])[H])C(C([H])([H])[H])(C([H])([H])[H])C([H])([H])[H])C([H])([H])c2c([H])c(OC([H])([H])C([H])([H])C([H])([H])c3c(C([H])([H])[H])c([H])c(N([H])C(=O)N4C([H])([H])C([H])([H])C([H])([H])C([H])(n5nc(-c6c([H])c([H])c(Oc7c([H])c([H])c(F)c([H])c7F)c([H])c6[H])c(C(=O)N([H])[H])c5N([H])[H])C4([H])[H])c(C([H])([H])[H])c3C([H])([H])[H])c([H])c([H])c2C1([H])[H]

>  <smiles>  (47) 
[H]c1c([H])c([H])c2c(c1[H])C([H])([H])C([H])([H])C([H])([H])C2([H])N([H])C(=O)C1([H])N(C(=O)C([H])(N([H])C(=O)C([H])(N([H])C([H])([H])[H])C([H])([H])[H])C(C([H])([H])[H])(C([H])([H])[H])C([H])([H])[H])C([H])([H])c2c([H])c(OC([H])([H])C([H])([H])C([H])([H])c3c(C([H])([H])[H])c([H])c(N([H])C(=O)N4C([H])([H])C([H])([H])C([H])([H])C([H])(n5nc(-c6c([H])c([H])c(Oc7c([H])c([H])c(F)c([H])c7F)c([H])c6[H])c(C(=O)N([H])[H])c5N([H])[H])C4([H])[H])c(C([H])([H])[H])c3C([H])([H])[H])c([H])c([H])c2C1([H])[H]

$$$$
47:0:0
     RDKit          3D

 96104  0  0  1  0  0  0  0  0999 V2000
  -29.7600  -18.7770   19.8010 C   0  0  0  0  0  3  0  0  0  0  0  0
  -30.3220  -19.9400   19.2220 C   0  0  0  0  0  0  0  0  0  0  0  0
  -30.5490  -17.7540   20.3810 C   0  0  0  0  0  0  0  0  0  0  0  0
  -31.7350  -20.0690   19.1880 C   0  0  0  0  0  0  0  0  0  0  0  0
  -32.5410  -19.1020   19.8530 C   0  0  0  0  0  0  0  0  0  0  0  0
  -31.9530  -17.9570   20.4560 C   0  0  0  0  0  0  0  0  0  0  0  0
  -32.3980  -21.2310   18.4480 C   0  0  0  0  0  1  0  0  0  0  0  0
  -34.0570  -19.2910   19.9210 C   0  0  0  0  0  1  0  0  0  0  0  0
  -32.9790  -16.8490   21.3060 Cl  0  0  0  0  0  0  0  0  0  0  0  0
  -29.7820  -16.5420   20.9600 C   0  0  0  0  0  2  0  0  0  0  0  0
  -30.6660  -14.4610   19.8870 C   0  0  0  0  0  0  0  0  0  0  0  0
  -30.1340  -12.4620   18.5250 C   0  0  0  0  0  2  0  0  0  0  0  0
  -29.0750  -12.7890   17.4560 C   0  0  0  0  0  2  0  0  0  0  0  0
  -27.6550  -12.6280   18.0270 C   0  0  0  0  0  2  0  0  0  0  0  0
  -27.4760  -13.3570   19.3840 C   0  0  0  0  0  3  0  0  0  0  0  0
  -28.6340  -13.0270   20.3500 C   0  0  0  0  0  2  0  0  0  0  0  0
  -29.9150  -13.3400   19.6870 N   0  0  0  0  0  0  0  0  0  0  0  0
  -31.5660  -14.8030   19.1130 O   0  0  0  0  0  0  0  0  0  0  0  0
  -30.8330  -14.7080   22.3040 C   0  0  0  0  0  1  0  0  0  0  0  0
  -30.3740  -15.1850   20.9940 N   0  0  0  0  0  0  0  0  0  0  0  0
  -25.1410  -13.9230   20.3100 C   0  0  0  0  0  0  0  0  0  0  0  0
  -24.1290  -13.1310   20.7820 C   0  0  0  0  0  0  0  0  0  0  0  0
  -24.6100  -11.7880   20.7120 C   0  0  0  0  0  0  0  0  0  0  0  0
  -26.1780  -13.0610   19.9850 N   0  0  0  0  0  0  0  0  0  0  0  0
  -25.8660  -11.7720   20.2810 N   0  0  0  0  0  0  0  0  0  0  0  0
  -23.9290  -10.5140   20.9720 C   0  0  0  0  0  0  0  0  0  0  0  0
  -24.4210   -9.5930   21.9240 C   0  0  0  0  0  3  0  0  0  0  0  0
  -23.7380   -8.3830   22.1680 C   0  0  0  0  0  3  0  0  0  0  0  0
  -22.5470   -8.0860   21.4640 C   0  0  0  0  0  0  0  0  0  0  0  0
  -22.0750   -8.9950   20.5010 C   0  0  0  0  0  3  0  0  0  0  0  0
  -22.7600  -10.1960   20.2540 C   0  0  0  0  0  3  0  0  0  0  0  0
  -21.8290   -6.9240   21.6180 O   0  0  0  0  0  0  0  0  0  0  0  0
  -21.7910   -6.2560   22.8150 C   0  0  0  0  0  0  0  0  0  0  0  0
  -21.3220   -6.8690   23.9970 C   0  0  0  0  0  3  0  0  0  0  0  0
  -21.2340   -6.1230   25.1890 C   0  0  0  0  0  3  0  0  0  0  0  0
  -21.6050   -4.7650   25.2010 C   0  0  0  0  0  0  0  0  0  0  0  0
  -22.0670   -4.1520   24.0230 C   0  0  0  0  0  3  0  0  0  0  0  0
  -22.1560   -4.8950   22.8340 C   0  0  0  0  0  0  0  0  0  0  0  0
  -22.5810   -4.2920   21.6970 F   0  0  0  0  0  0  0  0  0  0  0  0
  -21.5120   -4.0470   26.3440 F   0  0  0  0  0  0  0  0  0  0  0  0
  -22.7540  -13.5850   21.1850 C   0  0  0  0  0  0  0  0  0  0  0  0
  -22.1330  -12.8940   22.1340 N   0  0  0  0  0  0  0  0  0  0  0  0
  -22.2410  -14.5860   20.6880 O   0  0  0  0  0  0  0  0  0  0  0  0
  -22.5600  -12.0820   22.5560 H   0  0  0  0  0  0  0  0  0  0  0  0
  -21.2160  -13.1820   22.4440 H   0  0  0  0  0  0  0  0  0  0  0  0
  -25.2600  -15.2950   20.1140 N   0  0  0  0  0  0  0  0  0  0  0  0
  -24.4950  -15.9360   20.2980 H   0  0  0  0  0  0  0  0  0  0  0  0
  -26.0630  -15.7480   19.6970 H   0  0  0  0  0  0  0  0  0  0  0  0
  -29.3760  -20.9880   18.6080 C   0  0  0  0  0  2  0  0  0  0  0  0
  -29.4500  -22.3330   19.2420 N   0  0  0  0  0  4  0  0  0  0  0  0
  -30.3810  -22.6850   19.1030 H   0  0  0  0  0  0  0  0  0  0  0  0
  -29.3050  -22.2270   20.2330 H   0  0  0  0  0  0  0  0  0  0  0  0
  -28.4660  -23.3080   18.6940 C   0  0  0  0  0  2  0  0  0  0  0  0
  -28.8280  -24.8100   18.8760 C   0  0  0  0  0  2  0  0  0  0  0  0
  -28.4490  -25.4460   20.2300 C   0  0  0  0  0  2  0  0  0  0  0  0
  -28.4760  -26.8840   20.1600 O   0  0  0  0  0  0  0  0  0  0  0  0
  -24.5750  -31.9710   23.2470 C   0  0  0  0  0  0  0  0  0  0  0  0
  -27.2760  -27.5720   20.1500 C   0  0  0  0  0  0  0  0  0  0  0  0
  -23.3830  -30.5550   21.6060 C   0  0  0  0  0  3  0  0  0  0  0  0
  -24.8540  -29.0400   20.1750 C   0  0  0  0  0  0  0  0  0  0  0  0
  -25.9020  -30.9520   21.3980 C   0  0  0  0  0  2  0  0  0  0  0  0
  -26.0060  -29.5830   20.7560 C   0  0  0  0  0  0  0  0  0  0  0  0
  -27.2190  -28.8570   20.7370 C   0  0  0  0  0  3  0  0  0  0  0  0
  -26.1060  -27.0450   19.5570 C   0  0  0  0  0  3  0  0  0  0  0  0
  -24.8980  -27.7700   19.5730 C   0  0  0  0  0  3  0  0  0  0  0  0
  -23.5980  -29.8790   20.2250 C   0  0  0  0  0  2  0  0  0  0  0  0
  -24.6380  -31.1750   22.1430 N   0  0  0  0  0  0  0  0  0  0  0  0
  -23.4920  -32.2280   23.7910 O   0  0  0  0  0  0  0  0  0  0  0  0
  -22.7490  -29.5250   22.5660 C   0  0  0  0  0  0  0  0  0  0  0  0
  -21.4360  -29.2880   22.4090 N   0  0  0  0  0  0  0  0  0  0  0  0
  -23.4350  -28.9400   23.4090 O   0  0  0  0  0  0  0  0  0  0  0  0
  -20.9440  -29.8140   21.7010 H   0  0  0  0  0  0  0  0  0  0  0  0
  -18.1090  -27.9400   22.8070 C   0  0  0  0  0  0  0  0  0  0  0  0
  -20.6370  -28.3310   23.1720 C   0  0  0  0  0  3  0  0  0  0  0  0
  -20.8320  -26.8920   22.6390 C   0  0  0  0  0  2  0  0  0  0  0  0
  -19.7890  -26.4910   21.5920 C   0  0  0  0  0  2  0  0  0  0  0  0
  -18.3780  -26.5840   22.1760 C   0  0  0  0  0  2  0  0  0  0  0  0
  -19.1710  -28.7660   23.2600 C   0  0  0  0  0  0  0  0  0  0  0  0
  -18.8680  -30.0330   23.8060 C   0  0  0  0  0  3  0  0  0  0  0  0
  -17.5350  -30.4740   23.9060 C   0  0  0  0  0  3  0  0  0  0  0  0
  -16.4860  -29.6450   23.4710 C   0  0  0  0  0  3  0  0  0  0  0  0
  -16.7740  -28.3790   22.9280 C   0  0  0  0  0  3  0  0  0  0  0  0
  -25.8550  -32.6180   23.8650 C   0  0  0  0  0  3  0  0  0  0  0  0
  -25.5400  -34.0210   24.1660 N   0  0  0  0  0  0  0  0  0  0  0  0
  -25.8670  -35.0580   23.3840 C   0  0  0  0  0  0  0  0  0  0  0  0
  -26.5350  -34.9360   22.3540 O   0  0  0  0  0  0  0  0  0  0  0  0
  -24.9470  -34.1900   24.9650 H   0  0  0  0  0  0  0  0  0  0  0  0
  -24.1190  -36.8270   23.0010 C   0  0  0  0  0  1  0  0  0  0  0  0
  -25.3720  -36.4530   23.8110 C   0  0  0  0  0  3  0  0  0  0  0  0
  -27.5050  -37.3750   24.6020 C   0  0  0  0  0  1  0  0  0  0  0  0
  -26.3940  -37.5120   23.6650 N   0  0  0  0  0  0  0  0  0  0  0  0
  -25.9800  -38.4310   23.7940 H   0  0  0  0  0  0  0  0  0  0  0  0
  -26.3690  -31.8710   25.1560 C   0  0  1  0  0  0  0  0  0  0  0  0
  -25.2660  -31.6200   26.2100 C   0  0  0  0  0  1  0  0  0  0  0  0
  -26.9850  -30.5030   24.7830 C   0  0  0  0  0  1  0  0  0  0  0  0
  -27.4920  -32.6960   25.8270 C   0  0  0  0  0  1  0  0  0  0  0  0
  1  3  1  0
  2  1  2  0
  3  6  2  0
  3 10  1  0
  4  2  1  0
  4  5  2  0
  5  8  1  0
  5  6  1  0
  6  9  1  0
  7  4  1  0
 10 20  1  0
 11 20  1  0
 12 17  1  0
 13 14  1  0
 13 12  1  0
 15 14  1  0
 15 24  1  0
 15 16  1  0
 17 11  1  0
 17 16  1  0
 18 11  2  0
 20 19  1  0
 21 22  2  0
 22 41  1  0
 23 22  1  0
 23 26  1  0
 24 25  1  0
 24 21  1  0
 25 23  2  0
 26 27  1  0
 27 28  2  0
 29 32  1  0
 29 28  1  0
 30 29  2  0
 31 30  1  0
 31 26  2  0
 32 33  1  0
 33 38  2  0
 33 34  1  0
 34 35  2  0
 35 36  1  0
 36 40  1  0
 37 36  2  0
 38 37  1  0
 39 38  1  0
 41 42  1  0
 42 45  1  0
 42 44  1  0
 43 41  2  0
 46 47  1  0
 46 21  1  0
 48 46  1  0
 49  2  1  0
 49 50  1  0
 50 52  1  0
 51 50  1  0
 53 54  1  0
 53 50  1  0
 54 55  1  0
 56 55  1  0
 57 68  2  0
 58 56  1  0
 58 63  1  0
 59 67  1  0
 59 69  1  0
 60 66  1  0
 60 62  1  0
 61 67  1  0
 62 61  1  0
 63 62  2  0
 64 65  1  0
 64 58  2  0
 65 60  2  0
 66 59  1  0
 67 57  1  0
 69 71  2  0
 70 69  1  0
 72 70  1  0
 73 82  2  0
 73 78  1  0
 74 70  1  0
 74 78  1  0
 75 74  1  0
 76 77  1  0
 76 75  1  0
 77 73  1  0
 78 79  2  0
 79 80  1  0
 81 80  2  0
 82 81  1  0
 83 57  1  0
 83 84  1  0
 83 93  1  0
 84 87  1  0
 85 89  1  0
 85 84  1  0
 86 85  2  0
 89 88  1  0
 91 92  1  0
 91 89  1  0
 91 90  1  0
 93 96  1  1
 93 94  1  0
 95 93  1  0
M  ISO  4  11 100  20 100  55 101  56 101
M  END
>  <TORSDO>  (48) 
F 22

>  <SCORE>  (48) 
-10.305

>  <name>  (48) 
47

>  <ligand_id>  (48) 
47

>  <original_smiles>  (48) 
[H]c1c([H])c([H])c2c(c1[H])C([H])([H])C([H])([H])C([H])([H])C2([H])N([H])C(=O)C1([H])N(C(=O)C([H])(N([H])C(=O)C([H])(N([H])C([H])([H])[H])C([H])([H])[H])C(C([H])([H])[H])(C([H])([H])[H])C([H])([H])[H])C([H])([H])c2c([H])c(OC([H])([H])C([H])([H])C([H])([H])[N+]([H])([H])C([H])([H])c3c([H])c(C([H])([H])N(C(=O)N4C([H])([H])C([H])([H])C([H])([H])C([H])(n5nc(-c6c([H])c([H])c(Oc7c([H])c([H])c(F)c([H])c7F)c([H])c6[H])c(C(=O)N([H])[H])c5N([H])[H])C4([H])[H])C([H])([H])[H])c(Cl)c(C([H])([H])[H])c3C([H])([H])[H])c([H])c([H])c2C1([H])[H]

>  <smiles>  (48) 
[H]c1c([H])c([H])c2c(c1[H])C([H])([H])C([H])([H])C([H])([H])C2([H])N([H])C(=O)C1([H])N(C(=O)C([H])(N([H])C(=O)C([H])(N([H])C([H])([H])[H])C([H])([H])[H])C(C([H])([H])[H])(C([H])([H])[H])C([H])([H])[H])C([H])([H])c2c([H])c(OC([H])([H])C([H])([H])C([H])([H])[N+]([H])([H])C([H])([H])c3c([H])c(C([H])([H])N(C(=O)N4C([H])([H])C([H])([H])C([H])([H])C([H])(n5nc(-c6c([H])c([H])c(Oc7c([H])c([H])c(F)c([H])c7F)c([H])c6[H])c(C(=O)N([H])[H])c5N([H])[H])C4([H])[H])C([H])([H])[H])c(Cl)c(C([H])([H])[H])c3C([H])([H])[H])c([H])c([H])c2C1([H])[H]

$$$$
48:0:0
     RDKit          3D

 99105  0  0  1  0  0  0  0  0999 V2000
  -21.4000  -25.7350   19.0510 C   0  0  0  0  0  3  0  0  0  0  0  0
  -22.1070  -24.4240   19.0010 C   0  0  0  0  0  0  0  0  0  0  0  0
  -20.5950  -23.0650   20.7510 C   0  0  0  0  0  3  0  0  0  0  0  0
  -21.8760  -23.1760   19.7830 C   0  0  0  0  0  3  0  0  0  0  0  0
  -19.5470  -24.3350   21.1770 C   0  0  0  0  0  2  0  0  0  0  0  0
  -20.1750  -26.1650   20.0120 C   0  0  0  0  0  3  0  0  0  0  0  0
  -23.2050  -24.4080   17.9510 C   0  0  0  0  0  1  0  0  0  0  0  0
  -20.3680  -21.6580   21.2930 C   0  0  0  0  0  1  0  0  0  0  0  0
  -18.6030  -23.7890   22.3290 C   0  0  0  0  0  1  0  0  0  0  0  0
  -21.7060  -27.7960   20.2360 C   0  0  0  0  0  1  0  0  0  0  0  0
  -20.4230  -27.6540   19.7310 N   0  0  0  0  0  0  0  0  0  0  0  0
  -21.2170  -28.4730   18.5140 C   0  0  0  0  0  2  0  0  0  0  0  0
  -23.0150  -28.7900   18.2410 C   0  0  0  0  0  2  0  0  0  0  0  0
  -24.5300  -27.9070   17.9060 C   0  0  0  0  0  2  0  0  0  0  0  0
  -26.1370  -28.0480   18.3450 O   0  0  0  0  0  0  0  0  0  0  0  0
  -25.4500  -30.8930   24.6180 C   0  0  0  0  0  0  0  0  0  0  0  0
  -26.7200  -27.7220   19.5760 C   0  0  0  0  0  3  0  0  0  0  0  0
  -24.0250  -30.6450   22.7260 C   0  0  0  0  0  3  0  0  0  0  0  0
  -25.0590  -29.4990   20.7550 C   0  0  0  0  0  3  0  0  0  0  0  0
  -26.6080  -30.4380   22.3980 C   0  0  0  0  0  2  0  0  0  0  0  0
  -26.3710  -29.5880   21.1350 C   0  0  0  0  0  0  0  0  0  0  0  0
  -27.2720  -28.7070   20.4700 C   0  0  0  0  0  3  0  0  0  0  0  0
  -25.6240  -27.1770   20.1270 C   0  0  0  0  0  2  0  0  0  0  0  0
  -24.7290  -28.1250   20.6190 C   0  0  0  0  0  2  0  0  0  0  0  0
  -24.2430  -30.7000   21.2230 C   0  0  0  0  0  2  0  0  0  0  0  0
  -25.3880  -30.6300   23.2940 N   0  0  0  0  0  0  0  0  0  0  0  0
  -24.4410  -31.1630   25.2970 O   0  0  0  0  0  0  0  0  0  0  0  0
  -23.2100  -29.4300   23.2730 C   0  0  0  0  0  0  0  0  0  0  0  0
  -21.8910  -29.5220   23.2680 N   0  0  0  0  0  0  0  0  0  0  0  0
  -23.7370  -28.3660   23.5960 O   0  0  0  0  0  0  0  0  0  0  0  0
  -21.4670  -30.3750   22.9360 H   0  0  0  0  0  0  0  0  0  0  0  0
  -18.1660  -29.0080   22.5940 C   0  0  0  0  0  0  0  0  0  0  0  0
  -21.0070  -28.3530   23.3570 C   0  0  0  0  0  2  0  0  0  0  0  0
  -21.4340  -26.6410   22.3930 C   0  0  0  0  0 15  0  0  0  0  0  0
  -18.6220  -26.3290   20.7320 C   0  0  0  0  0  2  0  0  0  0  0  0
  -17.7070  -27.8770   21.3290 C   0  0  0  0  0  2  0  0  0  0  0  0
  -19.4920  -29.2300   23.3650 C   0  0  0  0  0  0  0  0  0  0  0  0
  -19.4180  -30.1790   24.4600 C   0  0  0  0  0  3  0  0  0  0  0  0
  -18.2580  -30.8710   24.8780 C   0  0  0  0  0  3  0  0  0  0  0  0
  -17.0560  -30.6240   24.2150 C   0  0  0  0  0  3  0  0  0  0  0  0
  -17.0310  -29.7260   23.1220 C   0  0  0  0  0  3  0  0  0  0  0  0
  -26.8140  -30.8840   25.3190 C   0  0  0  0  0  3  0  0  0  0  0  0
  -26.9310  -29.7290   26.3760 C   0  0  1  0  0  0  0  0  0  0  0  0
  -25.7350  -29.6500   27.3520 C   0  0  0  0  0  1  0  0  0  0  0  0
  -27.0590  -28.3500   25.6800 C   0  0  0  0  0  1  0  0  0  0  0  0
  -28.2200  -29.9360   27.1990 C   0  0  0  0  0  1  0  0  0  0  0  0
  -26.9700  -32.2050   25.9280 N   0  0  0  0  0  0  0  0  0  0  0  0
  -27.6090  -33.2200   25.3360 C   0  0  0  0  0  0  0  0  0  0  0  0
  -28.2120  -33.1050   24.2660 O   0  0  0  0  0  0  0  0  0  0  0  0
  -26.4640  -32.3830   26.7840 H   0  0  0  0  0  0  0  0  0  0  0  0
  -26.5780  -35.5140   25.3740 C   0  0  0  0  0  1  0  0  0  0  0  0
  -27.5840  -34.5750   26.0600 C   0  0  0  0  0  3  0  0  0  0  0  0
  -29.8580  -34.5020   26.9780 C   0  0  0  0  0  1  0  0  0  0  0  0
  -28.9100  -35.2210   26.1310 N   0  0  0  0  0  0  0  0  0  0  0  0
  -28.8270  -36.1690   26.4860 H   0  0  0  0  0  0  0  0  0  0  0  0
  -23.2180  -22.0810   19.6910 C   0  0  0  0  0  2  0  0  0  0  0  0
  -24.1840  -21.2820   18.4180 C   0  0  0  0  0  2  0  0  0  0  0  0
  -25.8740  -20.8270   18.2680 C   0  0  0  0  0  3  0  0  0  0  0  0
  -26.6730  -19.2690   18.4640 C   0  0  0  0  0  3  0  0  0  0  0  0
  -28.3680  -18.8060   18.5620 C   0  0  0  0  0  3  0  0  0  0  0  0
  -29.2480  -17.7140   19.6310 C   0  0  0  0  0  3  0  0  0  0  0  0
  -31.6610  -16.0020   19.8500 C   0  0  0  0  0  0  0  0  0  0  0  0
  -32.0790  -13.4820   20.1060 C   0  0  0  0  0  2  0  0  0  0  0  0
  -31.3910  -12.7070   18.9520 C   0  0  0  0  0  2  0  0  0  0  0  0
  -29.8850  -12.5380   19.2360 C   0  0  0  0  0  2  0  0  0  0  0  0
  -29.2450  -13.8500   19.7650 C   0  0  0  0  0  3  0  0  0  0  0  0
  -30.0410  -14.4410   20.9300 C   0  0  0  0  0  2  0  0  0  0  0  0
  -31.3180  -14.7570   20.3510 N   0  0  0  0  0  0  0  0  0  0  0  0
  -32.8750  -16.0930   19.5740 O   0  0  0  0  0  0  0  0  0  0  0  0
  -30.7020  -17.0220   19.4000 N   0  0  0  0  0  0  0  0  0  0  0  0
  -31.2590  -17.6780   18.8680 H   0  0  0  0  0  0  0  0  0  0  0  0
  -26.9040  -14.6690   20.3410 C   0  0  0  0  0  0  0  0  0  0  0  0
  -25.7720  -14.0050   20.6950 C   0  0  0  0  0  0  0  0  0  0  0  0
  -26.1060  -12.6150   20.6730 C   0  0  0  0  0  0  0  0  0  0  0  0
  -27.8670  -13.6920   20.1590 N   0  0  0  0  0  0  0  0  0  0  0  0
  -27.3950  -12.4500   20.4160 N   0  0  0  0  0  0  0  0  0  0  0  0
  -25.2560  -11.4340   20.8060 C   0  0  0  0  0  0  0  0  0  0  0  0
  -25.4350  -10.5110   21.8580 C   0  0  0  0  0  3  0  0  0  0  0  0
  -24.5860   -9.3910   21.9710 C   0  0  0  0  0  3  0  0  0  0  0  0
  -23.5500   -9.1910   21.0280 C   0  0  0  0  0  0  0  0  0  0  0  0
  -23.3970  -10.0990   19.9680 C   0  0  0  0  0  3  0  0  0  0  0  0
  -24.2450  -11.2110   19.8530 C   0  0  0  0  0  3  0  0  0  0  0  0
  -22.6910   -8.1190   21.0440 O   0  0  0  0  0  0  0  0  0  0  0  0
  -22.2190   -7.5960   22.2210 C   0  0  0  0  0  0  0  0  0  0  0  0
  -21.5010   -8.3790   23.1510 C   0  0  0  0  0  3  0  0  0  0  0  0
  -20.9740   -7.7830   24.3130 C   0  0  0  0  0  3  0  0  0  0  0  0
  -21.1550   -6.4070   24.5440 C   0  0  0  0  0  0  0  0  0  0  0  0
  -21.8660   -5.6240   23.6160 C   0  0  0  0  0  3  0  0  0  0  0  0
  -22.3940   -6.2190   22.4560 C   0  0  0  0  0  0  0  0  0  0  0  0
  -23.0600   -5.4560   21.5550 F   0  0  0  0  0  0  0  0  0  0  0  0
  -20.6430   -5.8320   25.6560 F   0  0  0  0  0  0  0  0  0  0  0  0
  -24.4250  -14.6230   20.9180 C   0  0  0  0  0  0  0  0  0  0  0  0
  -23.6040  -14.0090   21.7590 N   0  0  0  0  0  0  0  0  0  0  0  0
  -24.1150  -15.6870   20.3830 O   0  0  0  0  0  0  0  0  0  0  0  0
  -23.8710  -13.1440   22.2050 H   0  0  0  0  0  0  0  0  0  0  0  0
  -22.6960  -14.4030   21.9570 H   0  0  0  0  0  0  0  0  0  0  0  0
  -27.1660  -16.0160   20.1200 N   0  0  0  0  0  0  0  0  0  0  0  0
  -26.4370  -16.7180   20.1750 H   0  0  0  0  0  0  0  0  0  0  0  0
  -28.0390  -16.3780   19.7600 H   0  0  0  0  0  0  0  0  0  0  0  0
  2  1  2  0
  2  4  1  0
  3  5  1  0
  3  8  1  0
  4 56  1  0
  4  3  1  0
  5  9  1  0
  6  1  1  0
  6 35  1  0
  7  2  1  0
 11  6  1  0
 11 10  1  0
 12 11  1  0
 13 12  1  0
 14 13  1  0
 14 15  1  0
 15 17  1  0
 16 27  2  0
 17 23  1  0
 17 22  1  0
 18 25  1  0
 18 28  1  0
 18 26  1  0
 19 24  1  0
 19 21  1  0
 19 25  1  0
 20 26  1  0
 21 20  1  0
 22 21  2  0
 23 24  1  0
 26 16  1  0
 28 30  2  0
 29 28  1  0
 29 33  1  0
 31 29  1  0
 32 41  2  0
 32 37  1  0
 33 37  1  0
 35 36  1  0
 36 32  1  0
 37 38  2  0
 38 39  1  0
 40 39  2  0
 41 40  1  0
 42 16  1  0
 42 47  1  0
 42 43  1  0
 43 46  1  1
 43 44  1  0
 45 43  1  0
 47 50  1  0
 48 47  1  0
 48 52  1  0
 49 48  2  0
 52 51  1  0
 52 54  1  0
 54 55  1  0
 54 53  1  0
 57 56  1  0
 58 57  1  0
 58 59  2  0
 59 60  1  0
 60 61  2  0
 62 68  1  0
 63 68  1  0
 64 65  1  0
 64 63  1  0
 66 65  1  0
 66 75  1  0
 66 67  1  0
 68 67  1  0
 69 62  2  0
 70 61  1  0
 70 62  1  0
 71 70  1  0
 72 73  2  0
 73 92  1  0
 74 73  1  0
 74 77  1  0
 75 72  1  0
 75 76  1  0
 76 74  2  0
 77 78  1  0
 78 79  2  0
 80 83  1  0
 80 79  1  0
 81 80  2  0
 82 81  1  0
 82 77  2  0
 83 84  1  0
 84 89  2  0
 84 85  1  0
 85 86  2  0
 86 87  1  0
 87 91  1  0
 88 87  2  0
 89 88  1  0
 90 89  1  0
 92 93  1  0
 93 96  1  0
 93 95  1  0
 94 92  2  0
 97 98  1  0
 97 72  1  0
 99 97  1  0
M  ISO  4  14 101  15 101  62 100  70 100
M  END
>  <TORSDO>  (49) 
F 26

>  <SCORE>  (49) 
-4.676

>  <name>  (49) 
48

>  <ligand_id>  (49) 
48

>  <original_smiles>  (49) 
[H]c1c([H])c([H])c2c(c1[H])C([H])([H])C([H])([H])C([H])([H])C2([H])N([H])C(=O)C1([H])N(C(=O)C([H])(N([H])C(=O)C([H])(N([H])C([H])([H])[H])C([H])([H])[H])C(C([H])([H])[H])(C([H])([H])[H])C([H])([H])[H])C([H])([H])c2c([H])c(OC([H])([H])C([H])([H])C([H])([H])N(c3c([H])c(C([H])([H])[H])c(C([H])([H])C([H])([H])C([H])([H])C([H])([H])C([H])([H])C([H])([H])N([H])C(=O)N4C([H])([H])C([H])([H])C([H])([H])C([H])(n5nc(-c6c([H])c([H])c(Oc7c([H])c([H])c(F)c([H])c7F)c([H])c6[H])c(C(=O)N([H])[H])c5N([H])[H])C4([H])[H])c(C([H])([H])[H])c3C([H])([H])[H])C([H])([H])[H])c([H])c([H])c2C1([H])[H]

>  <smiles>  (49) 
[H]c1c([H])c([H])c2c(c1[H])C([H])([H])C([H])([H])C([H])([H])C2([H])N([H])C(=O)C1([H])N(C(=O)C([H])(N([H])C(=O)C([H])(N([H])C([H])([H])[H])C([H])([H])[H])C(C([H])([H])[H])(C([H])([H])[H])C([H])([H])[H])C([H])([H])c2c([H])c(OC([H])([H])C([H])([H])C([H])([H])N(c3c([H])c(C([H])([H])[H])c(C([H])([H])C([H])([H])C([H])([H])C([H])([H])C([H])([H])C([H])([H])N([H])C(=O)N4C([H])([H])C([H])([H])C([H])([H])C([H])(n5nc(-c6c([H])c([H])c(Oc7c([H])c([H])c(F)c([H])c7F)c([H])c6[H])c(C(=O)N([H])[H])c5N([H])[H])C4([H])[H])c(C([H])([H])[H])c3C([H])([H])[H])C([H])([H])[H])c([H])c([H])c2C1([H])[H]

$$$$
49:0:0
     RDKit          3D

107115  0  0  1  0  0  0  0  0999 V2000
  -27.8270  -22.1770   22.7580 C   0  0  0  0  0  1  0  0  0  0  0  0
  -28.3490  -23.0700   21.6040 C   0  0  0  0  0  3  0  0  0  0  0  0
  -28.4500  -24.4940   22.0080 N   0  0  0  0  0  4  0  0  0  0  0  0
  -27.7750  -24.6240   22.7480 H   0  0  0  0  0  0  0  0  0  0  0  0
  -28.1440  -25.0570   21.2280 H   0  0  0  0  0  0  0  0  0  0  0  0
  -29.7140  -25.0700   22.5340 C   0  0  0  0  0  3  0  0  0  0  0  0
  -30.4240  -26.6660   24.4950 C   0  0  0  0  0  1  0  0  0  0  0  0
  -28.7490  -24.8980   24.8970 C   0  0  0  0  0  1  0  0  0  0  0  0
  -28.1480  -26.9040   23.5160 C   0  0  0  0  0  1  0  0  0  0  0  0
  -29.2760  -25.8840   23.8220 C   0  0  2  0  0  0  0  0  0  0  0  0
  -30.9450  -25.0470   20.2020 C   0  0  0  0  0  1  0  0  0  0  0  0
  -30.4430  -25.8800   21.4030 C   0  0  0  0  0  3  0  0  0  0  0  0
  -31.6420  -26.7690   21.8640 C   0  0  0  0  0  2  0  0  0  0  0  0
  -31.6280  -28.0680   21.2520 O   0  0  0  0  0  0  0  0  0  0  0  0
  -26.8260  -31.2040   25.4370 C   0  0  0  0  0  0  0  0  0  0  0  0
  -30.3970  -28.6640   21.3320 C   0  0  0  0  0  0  0  0  0  0  0  0
  -25.9930  -30.3500   23.2690 C   0  0  0  0  0  3  0  0  0  0  0  0
  -27.7840  -29.6770   21.5790 C   0  0  0  0  0  0  0  0  0  0  0  0
  -28.4230  -31.0970   23.5370 C   0  0  0  0  0  2  0  0  0  0  0  0
  -28.7850  -30.0930   22.4670 C   0  0  0  0  0  0  0  0  0  0  0  0
  -30.0940  -29.5800   22.3600 C   0  0  0  0  0  3  0  0  0  0  0  0
  -29.4000  -28.3020   20.4050 C   0  0  0  0  0  3  0  0  0  0  0  0
  -28.0840  -28.7730   20.5450 C   0  0  0  0  0  3  0  0  0  0  0  0
  -26.4040  -30.2580   21.7770 C   0  0  0  0  0  2  0  0  0  0  0  0
  -27.0910  -30.8790   24.1410 N   0  0  0  0  0  0  0  0  0  0  0  0
  -25.6810  -31.1100   25.8980 O   0  0  0  0  0  0  0  0  0  0  0  0
  -25.4680  -28.9710   23.7250 C   0  0  0  0  0  0  0  0  0  0  0  0
  -24.4000  -28.4890   23.0670 N   0  0  0  0  0  0  0  0  0  0  0  0
  -26.0270  -28.3520   24.6320 O   0  0  0  0  0  0  0  0  0  0  0  0
  -23.9910  -29.0610   22.3430 H   0  0  0  0  0  0  0  0  0  0  0  0
  -21.8070  -26.2700   21.8900 C   0  0  0  0  0  0  0  0  0  0  0  0
  -23.7600  -27.1960   23.3050 C   0  0  0  0  0  3  0  0  0  0  0  0
  -24.6010  -26.0460   22.7050 C   0  0  0  0  0  2  0  0  0  0  0  0
  -24.1860  -25.6850   21.2750 C   0  0  0  0  0  2  0  0  0  0  0  0
  -22.7200  -25.2440   21.2440 C   0  0  0  0  0  2  0  0  0  0  0  0
  -22.2980  -27.1980   22.8460 C   0  0  0  0  0  0  0  0  0  0  0  0
  -21.4140  -28.1560   23.3870 C   0  0  0  0  0  3  0  0  0  0  0  0
  -20.0640  -28.1970   22.9910 C   0  0  0  0  0  3  0  0  0  0  0  0
  -19.5780  -27.2670   22.0540 C   0  0  0  0  0  3  0  0  0  0  0  0
  -20.4490  -26.3030   21.5120 C   0  0  0  0  0  3  0  0  0  0  0  0
  -27.9440  -31.7350   26.3920 C   0  0  0  0  0  3  0  0  0  0  0  0
  -27.6890  -33.1640   26.6130 N   0  0  0  0  0  0  0  0  0  0  0  0
  -28.4050  -34.1560   26.0680 C   0  0  0  0  0  0  0  0  0  0  0  0
  -29.4040  -33.9590   25.3730 O   0  0  0  0  0  0  0  0  0  0  0  0
  -26.8480  -33.4010   27.1210 H   0  0  0  0  0  0  0  0  0  0  0  0
  -27.2590  -36.1670   25.0770 C   0  0  0  0  0  1  0  0  0  0  0  0
  -27.9360  -35.5990   26.3340 C   0  0  0  0  0  3  0  0  0  0  0  0
  -29.5620  -36.1790   28.0810 C   0  0  0  0  0  1  0  0  0  0  0  0
  -29.0270  -36.5020   26.7610 N   0  0  0  0  0  0  0  0  0  0  0  0
  -28.7110  -37.4670   26.7720 H   0  0  0  0  0  0  0  0  0  0  0  0
  -28.0170  -30.9600   27.7660 C   0  0  1  0  0  0  0  0  0  0  0  0
  -26.6540  -30.8490   28.4880 C   0  0  0  0  0  1  0  0  0  0  0  0
  -28.5560  -29.5270   27.5610 C   0  0  0  0  0  1  0  0  0  0  0  0
  -29.0090  -31.6710   28.7150 C   0  0  0  0  0  1  0  0  0  0  0  0
  -26.0080  -23.2910   20.6100 C   0  0  0  0  0  1  0  0  0  0  0  0
  -27.9590  -24.1280   19.3200 C   0  0  0  0  0  1  0  0  0  0  0  0
  -27.4960  -22.9840   20.2720 C   0  0  1  0  0  0  0  0  0  0  0  0
  -25.8020  -20.3740   19.2790 C   0  0  0  0  0  2  0  0  0  0  0  0
  -26.6010  -21.2990   18.3730 C   0  0  0  0  0  2  0  0  0  0  0  0
  -27.0460  -20.2850   20.1620 C   0  0  0  0  0  2  0  0  0  0  0  0
  -27.6160  -21.5920   19.5210 C   0  0  2  0  0  0  0  0  0  0  0  0
  -29.0560  -21.3830   18.9700 C   0  0  0  0  0  0  0  0  0  0  0  0
  -30.0130  -21.0200   19.8330 N   0  0  0  0  0  0  0  0  0  0  0  0
  -29.3020  -21.5780   17.7770 O   0  0  0  0  0  0  0  0  0  0  0  0
  -29.7460  -20.8290   20.7890 H   0  0  0  0  0  0  0  0  0  0  0  0
  -31.4290  -20.8820   19.5030 C   0  0  0  0  0  2  0  0  0  0  0  0
  -31.8630  -19.4090   19.4890 C   0  0  0  0  0  2  0  0  0  0  0  0
  -31.8990  -18.7840   20.8950 C   0  0  0  0  0  2  0  0  0  0  0  0
  -32.8810  -17.6090   21.0230 C   0  0  0  0  0  2  0  0  0  0  0  0
  -32.4810  -15.4270   19.8780 C   0  0  0  0  0  0  0  0  0  0  0  0
  -32.2440  -13.0540   19.2590 C   0  0  0  0  0  2  0  0  0  0  0  0
  -31.2640  -12.8310   18.0970 C   0  0  0  0  0  2  0  0  0  0  0  0
  -29.8230  -12.7000   18.6180 C   0  0  0  0  0  2  0  0  0  0  0  0
  -29.4390  -13.8490   19.5850 C   0  0  0  0  0  3  0  0  0  0  0  0
  -30.5220  -14.0530   20.6690 C   0  0  0  0  0  2  0  0  0  0  0  0
  -31.8290  -14.2460   20.0110 N   0  0  0  0  0  0  0  0  0  0  0  0
  -33.3600  -15.6270   19.0320 O   0  0  0  0  0  0  0  0  0  0  0  0
  -32.2160  -16.3200   20.8390 N   0  0  0  0  0  0  0  0  0  0  0  0
  -31.5390  -16.0450   21.5370 H   0  0  0  0  0  0  0  0  0  0  0  0
  -27.2080  -14.5410   20.6740 C   0  0  0  0  0  0  0  0  0  0  0  0
  -26.1090  -13.8160   21.0500 C   0  0  0  0  0  0  0  0  0  0  0  0
  -26.4060  -12.4560   20.7340 C   0  0  0  0  0  0  0  0  0  0  0  0
  -28.1190  -13.6220   20.1760 N   0  0  0  0  0  0  0  0  0  0  0  0
  -27.6420  -12.3530   20.2600 N   0  0  0  0  0  0  0  0  0  0  0  0
  -25.5660  -11.2530   20.8030 C   0  0  0  0  0  0  0  0  0  0  0  0
  -25.8780  -10.1830   21.6700 C   0  0  0  0  0  3  0  0  0  0  0  0
  -25.0450   -9.0450   21.7310 C   0  0  0  0  0  3  0  0  0  0  0  0
  -23.8850   -8.9700   20.9240 C   0  0  0  0  0  0  0  0  0  0  0  0
  -23.5920  -10.0280   20.0440 C   0  0  0  0  0  3  0  0  0  0  0  0
  -24.4250  -11.1580   19.9810 C   0  0  0  0  0  3  0  0  0  0  0  0
  -23.0320   -7.8950   20.8980 O   0  0  0  0  0  0  0  0  0  0  0  0
  -22.4870   -7.3790   22.0460 C   0  0  0  0  0  0  0  0  0  0  0  0
  -21.6030   -8.1300   22.8530 C   0  0  0  0  0  3  0  0  0  0  0  0
  -21.0120   -7.5390   23.9870 C   0  0  0  0  0  3  0  0  0  0  0  0
  -21.2940   -6.1990   24.3110 C   0  0  0  0  0  0  0  0  0  0  0  0
  -22.1710   -5.4480   23.5080 C   0  0  0  0  0  3  0  0  0  0  0  0
  -22.7630   -6.0370   22.3760 C   0  0  0  0  0  0  0  0  0  0  0  0
  -23.5900   -5.3030   21.5920 F   0  0  0  0  0  0  0  0  0  0  0  0
  -20.7220   -5.6280   25.3970 F   0  0  0  0  0  0  0  0  0  0  0  0
  -24.8160  -14.3660   21.5800 C   0  0  0  0  0  0  0  0  0  0  0  0
  -24.0750  -13.5600   22.3360 N   0  0  0  0  0  0  0  0  0  0  0  0
  -24.4780  -15.5290   21.3680 O   0  0  0  0  0  0  0  0  0  0  0  0
  -24.3600  -12.6110   22.5240 H   0  0  0  0  0  0  0  0  0  0  0  0
  -23.2070  -13.9000   22.7280 H   0  0  0  0  0  0  0  0  0  0  0  0
  -27.5030  -15.8980   20.6950 N   0  0  0  0  0  0  0  0  0  0  0  0
  -26.8310  -16.5910   20.9990 H   0  0  0  0  0  0  0  0  0  0  0  0
  -28.3680  -16.3080   20.3670 H   0  0  0  0  0  0  0  0  0  0  0  0
  2  3  1  0
  2  1  1  0
  3  6  1  0
  3  4  1  0
  5  3  1  0
  6 10  1  0
 10  9  1  6
 10  7  1  0
 10  8  1  0
 12 11  1  0
 12 13  1  0
 12  6  1  0
 14 16  1  0
 14 13  1  0
 15 26  2  0
 16 21  1  0
 17 27  1  0
 17 25  1  0
 18 24  1  0
 18 20  1  0
 19 25  1  0
 20 19  1  0
 21 20  2  0
 22 23  1  0
 22 16  2  0
 23 18  2  0
 24 17  1  0
 25 15  1  0
 27 29  2  0
 28 27  1  0
 30 28  1  0
 31 36  1  0
 32 28  1  0
 33 32  1  0
 34 33  1  0
 35 34  1  0
 35 31  1  0
 36 32  1  0
 36 37  2  0
 38 37  1  0
 39 38  2  0
 40 31  2  0
 40 39  1  0
 41 15  1  0
 41 42  1  0
 41 51  1  0
 42 45  1  0
 43 47  1  0
 43 42  1  0
 44 43  2  0
 47 46  1  0
 47 49  1  0
 49 50  1  0
 49 48  1  0
 51 52  1  1
 51 54  1  0
 53 51  1  0
 57 56  1  6
 57 55  1  0
 57  2  1  0
 58 60  1  0
 59 58  1  0
 59 61  1  0
 61 60  1  0
 61 57  1  0
 61 62  1  6
 62 63  1  0
 63 65  1  0
 64 62  2  0
 66 63  1  0
 67 66  1  0
 67 68  1  0
 68 69  1  0
 70 76  1  0
 70 78  1  0
 71 76  1  0
 72 73  1  0
 72 71  1  0
 74 73  1  0
 74 83  1  0
 74 75  1  0
 76 75  1  0
 77 70  2  0
 78 69  1  0
 78 79  1  0
 80105  1  0
 80 81  2  0
 81100  1  0
 82 85  1  0
 82 81  1  0
 83 84  1  0
 83 80  1  0
 84 82  2  0
 85 86  1  0
 86 87  2  0
 88 87  1  0
 89 88  2  0
 90 89  1  0
 90 85  2  0
 91 88  1  0
 91 92  1  0
 92 97  2  0
 92 93  1  0
 93 94  2  0
 94 95  1  0
 95 99  1  0
 96 95  2  0
 97 96  1  0
 98 97  1  0
100101  1  0
101103  1  0
101104  1  0
102100  2  0
105106  1  0
107105  1  0
M  ISO  4  13 101  14 101  70 100  78 100
M  END
>  <TORSDO>  (50) 
F 28

>  <SCORE>  (50) 
-2.014

>  <name>  (50) 
49

>  <ligand_id>  (50) 
49

>  <original_smiles>  (50) 
[H]c1c([H])c([H])c2c(c1[H])C([H])([H])C([H])([H])C([H])([H])C2([H])N([H])C(=O)C1([H])N(C(=O)C([H])(N([H])C(=O)C([H])(N([H])C([H])([H])[H])C([H])([H])[H])C(C([H])([H])[H])(C([H])([H])[H])C([H])([H])[H])C([H])([H])c2c([H])c(OC([H])([H])C([H])(C([H])([H])[H])C([H])(C(C([H])([H])[H])(C([H])([H])[H])C([H])([H])[H])[N+]([H])([H])C([H])(C([H])([H])[H])C(C([H])([H])[H])(C([H])([H])[H])C3(C(=O)N([H])C([H])([H])C([H])([H])C([H])([H])C([H])([H])N([H])C(=O)N4C([H])([H])C([H])([H])C([H])([H])C([H])(n5nc(-c6c([H])c([H])c(Oc7c([H])c([H])c(F)c([H])c7F)c([H])c6[H])c(C(=O)N([H])[H])c5N([H])[H])C4([H])[H])C([H])([H])C([H])([H])C3([H])[H])c([H])c([H])c2C1([H])[H]

>  <smiles>  (50) 
[H]c1c([H])c([H])c2c(c1[H])C([H])([H])C([H])([H])C([H])([H])C2([H])N([H])C(=O)C1([H])N(C(=O)C([H])(N([H])C(=O)C([H])(N([H])C([H])([H])[H])C([H])([H])[H])C(C([H])([H])[H])(C([H])([H])[H])C([H])([H])[H])C([H])([H])c2c([H])c(OC([H])([H])C([H])(C([H])([H])[H])C([H])(C(C([H])([H])[H])(C([H])([H])[H])C([H])([H])[H])[N+]([H])([H])C([H])(C([H])([H])[H])C(C([H])([H])[H])(C([H])([H])[H])C3(C(=O)N([H])C([H])([H])C([H])([H])C([H])([H])C([H])([H])N([H])C(=O)N4C([H])([H])C([H])([H])C([H])([H])C([H])(n5nc(-c6c([H])c([H])c(Oc7c([H])c([H])c(F)c([H])c7F)c([H])c6[H])c(C(=O)N([H])[H])c5N([H])[H])C4([H])[H])C([H])([H])C([H])([H])C3([H])[H])c([H])c([H])c2C1([H])[H]

$$$$
50:0:0
     RDKit          3D

 91 99  0  0  1  0  0  0  0  0999 V2000
  -29.4740  -20.9550   18.3840 C   0  0  0  0  0  3  0  0  0  0  0  0
  -29.2470  -21.0640   19.7700 C   0  0  0  0  0  0  0  0  0  0  0  0
  -29.3980  -19.6390   20.3870 C   0  0  0  0  0  0  0  0  0  0  0  0
  -29.8150  -19.7280   17.7500 C   0  0  0  0  0  0  0  0  0  0  0  0
  -29.7730  -18.3050   19.6760 C   0  0  0  0  0  0  0  0  0  0  0  0
  -30.0230  -19.7300   16.2480 C   0  0  0  0  0  1  0  0  0  0  0  0
  -29.9680  -18.5080   18.3480 N   0  0  0  0  0  0  0  0  0  0  0  0
  -29.1900  -19.5370   21.7220 F   0  0  0  0  0  0  0  0  0  0  0  0
  -30.5620  -15.4680   19.8920 C   0  0  0  0  0  0  0  0  0  0  0  0
  -30.5290  -12.9870   19.0860 C   0  0  0  0  0  2  0  0  0  0  0  0
  -29.5630  -12.7580   17.8930 C   0  0  0  0  0  2  0  0  0  0  0  0
  -28.1340  -12.4850   18.3920 C   0  0  0  0  0  2  0  0  0  0  0  0
  -27.7280  -13.4460   19.5360 C   0  0  0  0  0  3  0  0  0  0  0  0
  -28.8250  -13.6160   20.6130 C   0  0  0  0  0  2  0  0  0  0  0  0
  -30.0200  -14.1390   19.9300 N   0  0  0  0  0  0  0  0  0  0  0  0
  -31.7510  -15.4510   19.5330 O   0  0  0  0  0  0  0  0  0  0  0  0
  -29.8360  -16.7500   20.1780 N   0  0  0  0  0  0  0  0  0  0  0  0
  -29.0430  -16.5560   20.7700 H   0  0  0  0  0  0  0  0  0  0  0  0
  -25.4060  -13.9910   20.4280 C   0  0  0  0  0  0  0  0  0  0  0  0
  -24.3620  -13.2110   20.8390 C   0  0  0  0  0  0  0  0  0  0  0  0
  -24.8190  -11.8590   20.7570 C   0  0  0  0  0  0  0  0  0  0  0  0
  -26.4280  -13.1170   20.1080 N   0  0  0  0  0  0  0  0  0  0  0  0
  -26.0930  -11.8260   20.3730 N   0  0  0  0  0  0  0  0  0  0  0  0
  -24.0940  -10.5970   20.9580 C   0  0  0  0  0  0  0  0  0  0  0  0
  -24.5360   -9.6290   21.8850 C   0  0  0  0  0  3  0  0  0  0  0  0
  -23.8080   -8.4340   22.0760 C   0  0  0  0  0  3  0  0  0  0  0  0
  -22.6230   -8.2000   21.3410 C   0  0  0  0  0  0  0  0  0  0  0  0
  -22.1980   -9.1570   20.4010 C   0  0  0  0  0  3  0  0  0  0  0  0
  -22.9270  -10.3420   20.2070 C   0  0  0  0  0  3  0  0  0  0  0  0
  -21.8650   -7.0580   21.4410 O   0  0  0  0  0  0  0  0  0  0  0  0
  -21.7960   -6.3410   22.6090 C   0  0  0  0  0  0  0  0  0  0  0  0
  -21.2940   -6.9060   23.8010 C   0  0  0  0  0  3  0  0  0  0  0  0
  -21.1740   -6.1120   24.9590 C   0  0  0  0  0  3  0  0  0  0  0  0
  -21.5470   -4.7560   24.9280 C   0  0  0  0  0  0  0  0  0  0  0  0
  -22.0410   -4.1900   23.7400 C   0  0  0  0  0  3  0  0  0  0  0  0
  -22.1630   -4.9790   22.5820 C   0  0  0  0  0  0  0  0  0  0  0  0
  -22.6190   -4.4240   21.4340 F   0  0  0  0  0  0  0  0  0  0  0  0
  -21.4250   -3.9910   26.0390 F   0  0  0  0  0  0  0  0  0  0  0  0
  -22.9820  -13.6890   21.1870 C   0  0  0  0  0  0  0  0  0  0  0  0
  -22.2920  -12.9820   22.0740 N   0  0  0  0  0  0  0  0  0  0  0  0
  -22.5280  -14.7260   20.7060 O   0  0  0  0  0  0  0  0  0  0  0  0
  -22.6750  -12.1450   22.4870 H   0  0  0  0  0  0  0  0  0  0  0  0
  -21.3660  -13.2830   22.3460 H   0  0  0  0  0  0  0  0  0  0  0  0
  -25.5640  -15.3650   20.2710 N   0  0  0  0  0  0  0  0  0  0  0  0
  -24.8020  -16.0120   20.4390 H   0  0  0  0  0  0  0  0  0  0  0  0
  -26.3740  -15.8060   19.8530 H   0  0  0  0  0  0  0  0  0  0  0  0
  -30.4690  -23.1080   20.7920 C   0  0  0  0  0  1  0  0  0  0  0  0
  -28.2300  -22.5210   21.7180 C   0  0  0  0  0  1  0  0  0  0  0  0
  -29.0330  -22.7070   20.4210 C   0  0  2  0  0  0  0  0  0  0  0  0
  -28.3620  -24.2810   19.7510 C   0  0  0  0  0  2  0  0  0  0  0  0
  -28.3870  -25.8950   20.2130 O   0  0  0  0  0  0  0  0  0  0  0  0
  -24.6590  -31.7830   23.2080 C   0  0  0  0  0  0  0  0  0  0  0  0
  -27.3660  -26.9960   20.1170 C   0  0  0  0  0  0  0  0  0  0  0  0
  -23.5290  -30.4110   21.5050 C   0  0  0  0  0  3  0  0  0  0  0  0
  -25.0380  -28.8640   20.0720 C   0  0  0  0  0  0  0  0  0  0  0  0
  -26.0950  -30.6570   21.4300 C   0  0  0  0  0  2  0  0  0  0  0  0
  -26.2040  -29.2630   20.7360 C   0  0  0  0  0  0  0  0  0  0  0  0
  -27.3570  -28.3500   20.7350 C   0  0  0  0  0  3  0  0  0  0  0  0
  -26.1710  -26.7630   19.4000 C   0  0  0  0  0  3  0  0  0  0  0  0
  -25.0480  -27.6380   19.3850 C   0  0  0  0  0  3  0  0  0  0  0  0
  -23.8030  -29.7660   20.1170 C   0  0  0  0  0  2  0  0  0  0  0  0
  -24.7810  -30.9780   22.1020 N   0  0  0  0  0  0  0  0  0  0  0  0
  -23.5530  -32.0410   23.7090 O   0  0  0  0  0  0  0  0  0  0  0  0
  -22.8270  -29.3810   22.4300 C   0  0  0  0  0  0  0  0  0  0  0  0
  -21.5010  -29.2000   22.2720 N   0  0  0  0  0  0  0  0  0  0  0  0
  -23.4840  -28.7450   23.2580 O   0  0  0  0  0  0  0  0  0  0  0  0
  -21.0240  -29.7660   21.5830 H   0  0  0  0  0  0  0  0  0  0  0  0
  -18.1260  -27.9320   22.6900 C   0  0  0  0  0  0  0  0  0  0  0  0
  -20.6790  -28.2280   23.0010 C   0  0  0  0  0  3  0  0  0  0  0  0
  -20.8100  -26.8150   22.3840 C   0  0  0  0  0  2  0  0  0  0  0  0
  -19.7290  -26.5090   21.3430 C   0  0  0  0  0  2  0  0  0  0  0  0
  -18.3360  -26.6100   21.9700 C   0  0  0  0  0  2  0  0  0  0  0  0
  -19.2270  -28.6990   23.1590 C   0  0  0  0  0  0  0  0  0  0  0  0
  -18.9760  -29.9340   23.7950 C   0  0  0  0  0  3  0  0  0  0  0  0
  -17.6590  -30.4040   23.9630 C   0  0  0  0  0  3  0  0  0  0  0  0
  -16.5750  -29.6350   23.5070 C   0  0  0  0  0  3  0  0  0  0  0  0
  -16.8100  -28.4000   22.8760 C   0  0  0  0  0  3  0  0  0  0  0  0
  -25.9020  -32.4320   23.8890 C   0  0  0  0  0  3  0  0  0  0  0  0
  -25.5670  -33.8320   24.2070 N   0  0  0  0  0  0  0  0  0  0  0  0
  -25.9070  -34.8930   23.4640 C   0  0  0  0  0  0  0  0  0  0  0  0
  -26.5970  -34.7970   22.4460 O   0  0  0  0  0  0  0  0  0  0  0  0
  -24.9550  -33.9780   24.9970 H   0  0  0  0  0  0  0  0  0  0  0  0
  -24.1720  -36.6820   23.0960 C   0  0  0  0  0  1  0  0  0  0  0  0
  -25.4070  -36.2810   23.9200 C   0  0  0  0  0  3  0  0  0  0  0  0
  -27.5170  -37.1930   24.7860 C   0  0  0  0  0  1  0  0  0  0  0  0
  -26.4330  -37.3420   23.8180 N   0  0  0  0  0  0  0  0  0  0  0  0
  -26.0170  -38.2610   23.9460 H   0  0  0  0  0  0  0  0  0  0  0  0
  -26.3580  -31.6740   25.1970 C   0  0  1  0  0  0  0  0  0  0  0  0
  -25.2150  -31.4420   26.2130 C   0  0  0  0  0  1  0  0  0  0  0  0
  -26.9650  -30.2930   24.8560 C   0  0  0  0  0  1  0  0  0  0  0  0
  -27.4730  -32.4790   25.9060 C   0  0  0  0  0  1  0  0  0  0  0  0
  1  2  1  0
  2  3  2  0
  2 49  1  0
  3  8  1  0
  4  7  1  0
  4  1  2  0
  5 17  1  0
  5  3  1  0
  6  4  1  0
  7  5  2  0
  9 15  1  0
  9 17  1  0
 10 15  1  0
 11 12  1  0
 11 10  1  0
 13 12  1  0
 13 22  1  0
 13 14  1  0
 15 14  1  0
 16  9  2  0
 17 18  1  0
 19 20  2  0
 20 39  1  0
 21 20  1  0
 21 24  1  0
 22 23  1  0
 22 19  1  0
 23 21  2  0
 24 25  1  0
 25 26  2  0
 27 30  1  0
 27 26  1  0
 28 27  2  0
 29 28  1  0
 29 24  2  0
 30 31  1  0
 31 32  1  0
 32 33  2  0
 34 33  1  0
 34 38  1  0
 35 34  2  0
 36 31  2  0
 36 35  1  0
 37 36  1  0
 39 40  1  0
 40 43  1  0
 40 42  1  0
 41 39  2  0
 44 19  1  0
 44 45  1  0
 46 44  1  0
 49 47  1  1
 49 48  1  0
 50 51  1  0
 50 49  1  0
 52 63  2  0
 53 51  1  0
 53 58  1  0
 54 62  1  0
 54 64  1  0
 55 61  1  0
 55 57  1  0
 56 62  1  0
 57 56  1  0
 58 57  2  0
 59 53  2  0
 60 59  1  0
 60 55  2  0
 61 54  1  0
 62 52  1  0
 64 66  2  0
 65 64  1  0
 67 65  1  0
 68 77  2  0
 68 73  1  0
 69 65  1  0
 69 73  1  0
 70 69  1  0
 71 72  1  0
 71 70  1  0
 72 68  1  0
 73 74  2  0
 74 75  1  0
 76 75  2  0
 77 76  1  0
 78 52  1  0
 78 79  1  0
 78 88  1  0
 79 82  1  0
 80 84  1  0
 80 79  1  0
 81 80  2  0
 84 83  1  0
 86 84  1  0
 86 87  1  0
 86 85  1  0
 88 91  1  1
 88 89  1  0
 90 88  1  0
M  ISO  4   9 100  17 100  50 101  51 101
M  END
>  <TORSDO>  (51) 
F 18

>  <SCORE>  (51) 
-15.911

>  <name>  (51) 
50

>  <ligand_id>  (51) 
50

>  <original_smiles>  (51) 
[H]c1c([H])c([H])c2c(c1[H])C([H])([H])C([H])([H])C([H])([H])C2([H])N([H])C(=O)C1([H])N(C(=O)C([H])(N([H])C(=O)C([H])(N([H])C([H])([H])[H])C([H])([H])[H])C(C([H])([H])[H])(C([H])([H])[H])C([H])([H])[H])C([H])([H])c2c([H])c(OC([H])([H])C(c3c([H])c(C([H])([H])[H])nc(N([H])C(=O)N4C([H])([H])C([H])([H])C([H])([H])C([H])(n5nc(-c6c([H])c([H])c(Oc7c([H])c([H])c(F)c([H])c7F)c([H])c6[H])c(C(=O)N([H])[H])c5N([H])[H])C4([H])[H])c3F)(C([H])([H])[H])C([H])([H])[H])c([H])c([H])c2C1([H])[H]

>  <smiles>  (51) 
[H]c1c([H])c([H])c2c(c1[H])C([H])([H])C([H])([H])C([H])([H])C2([H])N([H])C(=O)C1([H])N(C(=O)C([H])(N([H])C(=O)C([H])(N([H])C([H])([H])[H])C([H])([H])[H])C(C([H])([H])[H])(C([H])([H])[H])C([H])([H])[H])C([H])([H])c2c([H])c(OC([H])([H])C(c3c([H])c(C([H])([H])[H])nc(N([H])C(=O)N4C([H])([H])C([H])([H])C([H])([H])C([H])(n5nc(-c6c([H])c([H])c(Oc7c([H])c([H])c(F)c([H])c7F)c([H])c6[H])c(C(=O)N([H])[H])c5N([H])[H])C4([H])[H])c3F)(C([H])([H])[H])C([H])([H])[H])c([H])c([H])c2C1([H])[H]

$$$$
51:0:0
     RDKit          3D

 89 97  0  0  1  0  0  0  0  0999 V2000
  -31.1080  -20.9680   20.9400 C   0  0  0  0  0  3  0  0  0  0  0  0
  -30.2670  -22.1010   20.6970 C   0  0  0  0  0  0  0  0  0  0  0  0
  -30.8370  -19.5700   20.7540 C   0  0  0  0  0  0  0  0  0  0  0  0
  -28.9290  -22.0130   20.2330 C   0  0  0  0  0  0  0  0  0  0  0  0
  -28.6880  -20.3950   20.0350 C   0  0  0  0  0  0  0  0  0  0  0  0
  -29.6030  -19.0490   20.2560 C   0  0  0  0  0  0  0  0  0  0  0  0
  -30.8780  -23.4670   20.9650 C   0  0  0  0  0  1  0  0  0  0  0  0
  -31.9670  -18.6340   21.1420 C   0  0  0  0  0  1  0  0  0  0  0  0
  -27.3050  -20.0570   19.5140 C   0  0  0  0  0  1  0  0  0  0  0  0
  -30.2380  -15.8880   20.0270 C   0  0  0  0  0  0  0  0  0  0  0  0
  -30.3450  -13.3320   19.1480 C   0  0  0  0  0  2  0  0  0  0  0  0
  -29.4140  -12.8690   17.9870 C   0  0  0  0  0  2  0  0  0  0  0  0
  -28.0350  -12.4570   18.5200 C   0  0  0  0  0  2  0  0  0  0  0  0
  -27.5440  -13.4490   19.5950 C   0  0  0  0  0  3  0  0  0  0  0  0
  -28.6170  -13.8150   20.6520 C   0  0  0  0  0  2  0  0  0  0  0  0
  -29.7210  -14.5030   19.9340 N   0  0  0  0  0  0  0  0  0  0  0  0
  -31.4660  -15.7890   19.8270 O   0  0  0  0  0  0  0  0  0  0  0  0
  -29.4760  -17.2880   20.1200 N   0  0  0  0  0  0  0  0  0  0  0  0
  -28.4950  -17.0430   20.1150 H   0  0  0  0  0  0  0  0  0  0  0  0
  -25.2230  -13.9300   20.4970 C   0  0  0  0  0  0  0  0  0  0  0  0
  -24.1900  -13.1300   20.8910 C   0  0  0  0  0  0  0  0  0  0  0  0
  -24.6700  -11.7860   20.7980 C   0  0  0  0  0  0  0  0  0  0  0  0
  -26.2620  -13.0760   20.1750 N   0  0  0  0  0  0  0  0  0  0  0  0
  -25.9470  -11.7760   20.4230 N   0  0  0  0  0  0  0  0  0  0  0  0
  -23.9620  -10.5110   20.9830 C   0  0  0  0  0  0  0  0  0  0  0  0
  -24.4120   -9.5420   21.9070 C   0  0  0  0  0  3  0  0  0  0  0  0
  -23.6990   -8.3370   22.0870 C   0  0  0  0  0  3  0  0  0  0  0  0
  -22.5200   -8.0920   21.3420 C   0  0  0  0  0  0  0  0  0  0  0  0
  -22.0870   -9.0510   20.4080 C   0  0  0  0  0  3  0  0  0  0  0  0
  -22.8020  -10.2470   20.2270 C   0  0  0  0  0  3  0  0  0  0  0  0
  -21.7760   -6.9410   21.4320 O   0  0  0  0  0  0  0  0  0  0  0  0
  -21.7070   -6.2160   22.5950 C   0  0  0  0  0  0  0  0  0  0  0  0
  -21.1970   -6.7720   23.7900 C   0  0  0  0  0  3  0  0  0  0  0  0
  -21.0780   -5.9730   24.9440 C   0  0  0  0  0  3  0  0  0  0  0  0
  -21.4590   -4.6180   24.9050 C   0  0  0  0  0  0  0  0  0  0  0  0
  -21.9620   -4.0620   23.7160 C   0  0  0  0  0  3  0  0  0  0  0  0
  -22.0810   -4.8570   22.5630 C   0  0  0  0  0  0  0  0  0  0  0  0
  -22.5460   -4.3110   21.4140 F   0  0  0  0  0  0  0  0  0  0  0  0
  -21.3380   -3.8470   26.0120 F   0  0  0  0  0  0  0  0  0  0  0  0
  -22.8010  -13.5850   21.2330 C   0  0  0  0  0  0  0  0  0  0  0  0
  -22.1190  -12.8680   22.1180 N   0  0  0  0  0  0  0  0  0  0  0  0
  -22.3320  -14.6140   20.7490 O   0  0  0  0  0  0  0  0  0  0  0  0
  -22.5130  -12.0370   22.5300 H   0  0  0  0  0  0  0  0  0  0  0  0
  -21.1900  -13.1570   22.3870 H   0  0  0  0  0  0  0  0  0  0  0  0
  -25.3600  -15.3080   20.3500 N   0  0  0  0  0  0  0  0  0  0  0  0
  -24.5900  -15.9480   20.5150 H   0  0  0  0  0  0  0  0  0  0  0  0
  -26.1860  -15.7630   19.9860 H   0  0  0  0  0  0  0  0  0  0  0  0
  -27.9870  -23.6740   20.0230 C   0  0  0  0  0  2  0  0  0  0  0  0
  -28.1800  -25.4590   20.2690 O   0  0  0  0  0  0  0  0  0  0  0  0
  -24.6710  -31.8400   23.2280 C   0  0  0  0  0  0  0  0  0  0  0  0
  -27.2320  -26.7250   20.2120 C   0  0  0  0  0  0  0  0  0  0  0  0
  -23.5110  -30.4740   21.5470 C   0  0  0  0  0  3  0  0  0  0  0  0
  -24.9810  -28.8270   20.1400 C   0  0  0  0  0  0  0  0  0  0  0  0
  -26.0950  -30.5860   21.4820 C   0  0  0  0  0  2  0  0  0  0  0  0
  -26.1680  -29.1520   20.8070 C   0  0  0  0  0  0  0  0  0  0  0  0
  -27.2730  -28.1330   20.8090 C   0  0  0  0  0  3  0  0  0  0  0  0
  -26.0090  -26.6360   19.4920 C   0  0  0  0  0  3  0  0  0  0  0  0
  -24.9480  -27.5970   19.4570 C   0  0  0  0  0  3  0  0  0  0  0  0
  -23.7790  -29.7910   20.1730 C   0  0  0  0  0  2  0  0  0  0  0  0
  -24.7840  -31.0020   22.1370 N   0  0  0  0  0  0  0  0  0  0  0  0
  -23.5680  -32.1370   23.7190 O   0  0  0  0  0  0  0  0  0  0  0  0
  -22.7650  -29.4910   22.4910 C   0  0  0  0  0  0  0  0  0  0  0  0
  -21.4330  -29.3580   22.3450 N   0  0  0  0  0  0  0  0  0  0  0  0
  -23.4000  -28.8440   23.3270 O   0  0  0  0  0  0  0  0  0  0  0  0
  -20.9730  -29.9260   21.6490 H   0  0  0  0  0  0  0  0  0  0  0  0
  -18.0200  -28.1970   22.8140 C   0  0  0  0  0  0  0  0  0  0  0  0
  -20.5840  -28.4170   23.0880 C   0  0  0  0  0  3  0  0  0  0  0  0
  -20.6610  -27.0000   22.4710 C   0  0  0  0  0  2  0  0  0  0  0  0
  -19.5560  -26.7300   21.4440 C   0  0  0  0  0  2  0  0  0  0  0  0
  -18.1750  -26.8710   22.0890 C   0  0  0  0  0  2  0  0  0  0  0  0
  -19.1480  -28.9310   23.2670 C   0  0  0  0  0  0  0  0  0  0  0  0
  -18.9450  -30.1700   23.9110 C   0  0  0  0  0  3  0  0  0  0  0  0
  -17.6440  -30.6770   24.1020 C   0  0  0  0  0  3  0  0  0  0  0  0
  -16.5320  -29.9430   23.6590 C   0  0  0  0  0  3  0  0  0  0  0  0
  -16.7180  -28.7040   23.0220 C   0  0  0  0  0  3  0  0  0  0  0  0
  -25.9210  -32.4770   23.9090 C   0  0  0  0  0  3  0  0  0  0  0  0
  -25.6020  -33.8800   24.2430 N   0  0  0  0  0  0  0  0  0  0  0  0
  -25.9210  -34.9460   23.4980 C   0  0  0  0  0  0  0  0  0  0  0  0
  -26.5720  -34.8510   22.4530 O   0  0  0  0  0  0  0  0  0  0  0  0
  -25.0220  -34.0230   25.0570 H   0  0  0  0  0  0  0  0  0  0  0  0
  -24.1690  -36.7370   23.2320 C   0  0  0  0  0  1  0  0  0  0  0  0
  -25.4510  -36.3350   23.9800 C   0  0  0  0  0  3  0  0  0  0  0  0
  -27.6110  -37.2470   24.7150 C   0  0  0  0  0  1  0  0  0  0  0  0
  -26.4680  -37.3980   23.8180 N   0  0  0  0  0  0  0  0  0  0  0  0
  -26.0610  -38.3150   23.9750 H   0  0  0  0  0  0  0  0  0  0  0  0
  -26.3690  -31.7080   25.2140 C   0  0  1  0  0  0  0  0  0  0  0  0
  -25.2260  -31.4970   26.2360 C   0  0  0  0  0  1  0  0  0  0  0  0
  -26.9510  -30.3190   24.8700 C   0  0  0  0  0  1  0  0  0  0  0  0
  -27.5000  -32.4910   25.9190 C   0  0  0  0  0  1  0  0  0  0  0  0
  2  1  2  0
  2  7  1  0
  3  1  1  0
  3  8  1  0
  4  2  1  0
  5  4  2  0
  5  6  1  0
  6  3  2  0
  9  5  1  0
 10 18  1  0
 11 16  1  0
 12 13  1  0
 12 11  1  0
 14 13  1  0
 14 23  1  0
 14 15  1  0
 16 10  1  0
 16 15  1  0
 17 10  2  0
 18  6  1  0
 19 18  1  0
 20 21  2  0
 21 40  1  0
 22 21  1  0
 22 25  1  0
 23 24  1  0
 23 20  1  0
 24 22  2  0
 25 26  1  0
 26 27  2  0
 28 31  1  0
 28 27  1  0
 29 28  2  0
 30 29  1  0
 30 25  2  0
 31 32  1  0
 32 33  1  0
 33 34  2  0
 35 34  1  0
 35 39  1  0
 36 35  2  0
 37 32  2  0
 37 36  1  0
 38 37  1  0
 40 41  1  0
 41 44  1  0
 41 43  1  0
 42 40  2  0
 45 20  1  0
 45 46  1  0
 47 45  1  0
 48  4  1  0
 48 49  1  0
 50 61  2  0
 51 49  1  0
 51 56  1  0
 52 60  1  0
 52 62  1  0
 53 59  1  0
 53 55  1  0
 54 60  1  0
 55 56  2  0
 55 54  1  0
 57 51  2  0
 58 57  1  0
 58 53  2  0
 59 52  1  0
 60 50  1  0
 62 64  2  0
 63 62  1  0
 65 63  1  0
 66 75  2  0
 66 71  1  0
 67 63  1  0
 67 71  1  0
 68 67  1  0
 69 70  1  0
 69 68  1  0
 70 66  1  0
 71 72  2  0
 72 73  1  0
 74 73  2  0
 75 74  1  0
 76 50  1  0
 76 77  1  0
 76 86  1  0
 77 80  1  0
 78 82  1  0
 78 77  1  0
 79 78  2  0
 82 81  1  0
 84 85  1  0
 84 82  1  0
 84 83  1  0
 86 89  1  1
 86 87  1  0
 88 86  1  0
M  ISO  4  10 100  18 100  48 101  49 101
M  END
>  <TORSDO>  (52) 
F 17

>  <SCORE>  (52) 
-16.752

>  <name>  (52) 
51

>  <ligand_id>  (52) 
51

>  <original_smiles>  (52) 
[H]c1c([H])c([H])c2c(c1[H])C([H])([H])C([H])([H])C([H])([H])C2([H])N([H])C(=O)C1([H])N(C(=O)C([H])(N([H])C(=O)C([H])(N([H])C([H])([H])[H])C([H])([H])[H])C(C([H])([H])[H])(C([H])([H])[H])C([H])([H])[H])C([H])([H])c2c([H])c(OC([H])([H])c3c(C([H])([H])[H])c([H])c(C([H])([H])[H])c(N([H])C(=O)N4C([H])([H])C([H])([H])C([H])([H])C([H])(n5nc(-c6c([H])c([H])c(Oc7c([H])c([H])c(F)c([H])c7F)c([H])c6[H])c(C(=O)N([H])[H])c5N([H])[H])C4([H])[H])c3C([H])([H])[H])c([H])c([H])c2C1([H])[H]

>  <smiles>  (52) 
[H]c1c([H])c([H])c2c(c1[H])C([H])([H])C([H])([H])C([H])([H])C2([H])N([H])C(=O)C1([H])N(C(=O)C([H])(N([H])C(=O)C([H])(N([H])C([H])([H])[H])C([H])([H])[H])C(C([H])([H])[H])(C([H])([H])[H])C([H])([H])[H])C([H])([H])c2c([H])c(OC([H])([H])c3c(C([H])([H])[H])c([H])c(C([H])([H])[H])c(N([H])C(=O)N4C([H])([H])C([H])([H])C([H])([H])C([H])(n5nc(-c6c([H])c([H])c(Oc7c([H])c([H])c(F)c([H])c7F)c([H])c6[H])c(C(=O)N([H])[H])c5N([H])[H])C4([H])[H])c3C([H])([H])[H])c([H])c([H])c2C1([H])[H]

$$$$
52:0:0
     RDKit          3D

 93101  0  0  1  0  0  0  0  0999 V2000
  -27.9540  -23.1810   19.2190 C   0  0  0  0  0  3  0  0  0  0  0  0
  -29.6210  -23.8850   20.8210 C   0  0  0  0  0  3  0  0  0  0  0  0
  -28.7100  -24.2210   19.8020 C   0  0  0  0  0  0  0  0  0  0  0  0
  -28.0880  -21.8320   19.6340 C   0  0  0  0  0  0  0  0  0  0  0  0
  -29.0220  -21.4920   20.6610 C   0  0  0  0  0  0  0  0  0  0  0  0
  -29.7750  -22.5470   21.2470 C   0  0  0  0  0  0  0  0  0  0  0  0
  -27.1990  -20.8090   18.9420 C   0  0  0  0  0  1  0  0  0  0  0  0
  -30.9250  -22.2080   22.4970 Cl  0  0  0  0  0  0  0  0  0  0  0  0
  -29.2580  -20.1890   21.1710 N   0  0  0  0  0  0  0  0  0  0  0  0
  -29.9170  -20.1580   21.9450 H   0  0  0  0  0  0  0  0  0  0  0  0
  -29.0690  -18.9340   20.4390 C   0  0  0  0  0  2  0  0  0  0  0  0
  -29.8720  -17.7640   21.0560 C   0  0  0  0  0  2  0  0  0  0  0  0
  -29.4860  -16.3790   20.4830 C   0  0  0  0  0  2  0  0  0  0  0  0
  -30.8370  -14.3680   20.1350 C   0  0  0  0  0  0  0  0  0  0  0  0
  -30.3980  -12.2490   18.9520 C   0  0  0  0  0  2  0  0  0  0  0  0
  -29.4000  -12.4610   17.7990 C   0  0  0  0  0  2  0  0  0  0  0  0
  -27.9530  -12.3350   18.3080 C   0  0  0  0  0  2  0  0  0  0  0  0
  -27.6910  -13.2040   19.5670 C   0  0  0  0  0  3  0  0  0  0  0  0
  -28.7910  -12.9740   20.6260 C   0  0  0  0  0  2  0  0  0  0  0  0
  -30.0960  -13.2380   19.9970 N   0  0  0  0  0  0  0  0  0  0  0  0
  -31.8970  -14.5600   19.5380 O   0  0  0  0  0  0  0  0  0  0  0  0
  -30.3640  -15.3040   20.9710 N   0  0  0  0  0  0  0  0  0  0  0  0
  -31.1160  -15.6910   21.5220 H   0  0  0  0  0  0  0  0  0  0  0  0
  -25.3560  -13.8770   20.4190 C   0  0  0  0  0  0  0  0  0  0  0  0
  -24.2860  -13.1320   20.8350 C   0  0  0  0  0  0  0  0  0  0  0  0
  -24.7020  -11.7680   20.7570 C   0  0  0  0  0  0  0  0  0  0  0  0
  -26.3580  -12.9680   20.1150 N   0  0  0  0  0  0  0  0  0  0  0  0
  -25.9710  -11.6930   20.3770 N   0  0  0  0  0  0  0  0  0  0  0  0
  -23.9480  -10.5250   20.9640 C   0  0  0  0  0  0  0  0  0  0  0  0
  -24.3870   -9.5390   21.8730 C   0  0  0  0  0  3  0  0  0  0  0  0
  -23.6360   -8.3590   22.0660 C   0  0  0  0  0  3  0  0  0  0  0  0
  -22.4320   -8.1600   21.3510 C   0  0  0  0  0  0  0  0  0  0  0  0
  -22.0130   -9.1350   20.4280 C   0  0  0  0  0  3  0  0  0  0  0  0
  -22.7630  -10.3050   20.2340 C   0  0  0  0  0  3  0  0  0  0  0  0
  -21.6510   -7.0340   21.4570 O   0  0  0  0  0  0  0  0  0  0  0  0
  -21.6080   -6.2940   22.6100 C   0  0  0  0  0  0  0  0  0  0  0  0
  -21.2070   -6.8540   23.8430 C   0  0  0  0  0  3  0  0  0  0  0  0
  -21.1100   -6.0380   24.9890 C   0  0  0  0  0  3  0  0  0  0  0  0
  -21.4060   -4.6650   24.9020 C   0  0  0  0  0  0  0  0  0  0  0  0
  -21.8000   -4.1050   23.6750 C   0  0  0  0  0  3  0  0  0  0  0  0
  -21.8990   -4.9170   22.5330 C   0  0  0  0  0  0  0  0  0  0  0  0
  -22.2590   -4.3660   21.3470 F   0  0  0  0  0  0  0  0  0  0  0  0
  -21.3060   -3.8800   26.0010 F   0  0  0  0  0  0  0  0  0  0  0  0
  -22.9220  -13.6470   21.1940 C   0  0  0  0  0  0  0  0  0  0  0  0
  -22.2200  -12.9540   22.0840 N   0  0  0  0  0  0  0  0  0  0  0  0
  -22.4890  -14.6980   20.7200 O   0  0  0  0  0  0  0  0  0  0  0  0
  -22.5860  -12.1040   22.4870 H   0  0  0  0  0  0  0  0  0  0  0  0
  -21.3050  -13.2740   22.3660 H   0  0  0  0  0  0  0  0  0  0  0  0
  -25.5530  -15.2460   20.2550 N   0  0  0  0  0  0  0  0  0  0  0  0
  -24.8050  -15.9140   20.4000 H   0  0  0  0  0  0  0  0  0  0  0  0
  -26.3900  -15.6610   19.8640 H   0  0  0  0  0  0  0  0  0  0  0  0
  -28.6400  -25.6500   19.2460 C   0  0  0  0  0  2  0  0  0  0  0  0
  -28.3810  -26.6900   20.2080 O   0  0  0  0  0  0  0  0  0  0  0  0
  -24.5470  -31.8800   23.2370 C   0  0  0  0  0  0  0  0  0  0  0  0
  -27.1900  -27.3960   20.1810 C   0  0  0  0  0  0  0  0  0  0  0  0
  -23.3420  -30.4780   21.5970 C   0  0  0  0  0  3  0  0  0  0  0  0
  -24.7940  -28.9220   20.1890 C   0  0  0  0  0  0  0  0  0  0  0  0
  -25.8720  -30.8200   21.4070 C   0  0  0  0  0  2  0  0  0  0  0  0
  -25.9530  -29.4420   20.7760 C   0  0  0  0  0  0  0  0  0  0  0  0
  -27.1490  -28.6860   20.7710 C   0  0  0  0  0  3  0  0  0  0  0  0
  -25.9990  -26.8850   19.6130 C   0  0  0  0  0  3  0  0  0  0  0  0
  -24.8110  -27.6410   19.6110 C   0  0  0  0  0  3  0  0  0  0  0  0
  -23.5560  -29.7910   20.2210 C   0  0  0  0  0  2  0  0  0  0  0  0
  -24.6060  -31.0750   22.1380 N   0  0  0  0  0  0  0  0  0  0  0  0
  -23.4640  -32.1590   23.7700 O   0  0  0  0  0  0  0  0  0  0  0  0
  -22.6810  -29.4650   22.5600 C   0  0  0  0  0  0  0  0  0  0  0  0
  -21.3560  -29.2900   22.4290 N   0  0  0  0  0  0  0  0  0  0  0  0
  -23.3560  -28.8400   23.3810 O   0  0  0  0  0  0  0  0  0  0  0  0
  -20.8750  -29.8490   21.7380 H   0  0  0  0  0  0  0  0  0  0  0  0
  -17.9750  -28.1030   22.9060 C   0  0  0  0  0  0  0  0  0  0  0  0
  -20.5320  -28.3540   23.1930 C   0  0  0  0  0  3  0  0  0  0  0  0
  -20.6340  -26.9220   22.6190 C   0  0  0  0  0  2  0  0  0  0  0  0
  -19.5350  -26.5970   21.6020 C   0  0  0  0  0  2  0  0  0  0  0  0
  -18.1510  -26.7480   22.2400 C   0  0  0  0  0  2  0  0  0  0  0  0
  -19.0930  -28.8640   23.3400 C   0  0  0  0  0  0  0  0  0  0  0  0
  -18.8750  -30.1310   23.9200 C   0  0  0  0  0  3  0  0  0  0  0  0
  -17.5710  -30.6380   24.0740 C   0  0  0  0  0  3  0  0  0  0  0  0
  -16.4670  -29.8740   23.6570 C   0  0  0  0  0  3  0  0  0  0  0  0
  -16.6700  -28.6090   23.0790 C   0  0  0  0  0  3  0  0  0  0  0  0
  -25.8320  -32.5080   23.8620 C   0  0  0  0  0  3  0  0  0  0  0  0
  -25.5220  -33.9040   24.2010 N   0  0  0  0  0  0  0  0  0  0  0  0
  -25.8520  -34.9610   23.4470 C   0  0  0  0  0  0  0  0  0  0  0  0
  -26.5210  -34.8640   22.4140 O   0  0  0  0  0  0  0  0  0  0  0  0
  -24.9300  -34.0550   25.0050 H   0  0  0  0  0  0  0  0  0  0  0  0
  -24.1250  -36.7550   23.0990 C   0  0  0  0  0  1  0  0  0  0  0  0
  -25.3630  -36.3460   23.9130 C   0  0  0  0  0  3  0  0  0  0  0  0
  -27.4920  -37.2270   24.7620 C   0  0  0  0  0  1  0  0  0  0  0  0
  -26.3960  -37.3990   23.8110 N   0  0  0  0  0  0  0  0  0  0  0  0
  -25.9890  -38.3190   23.9570 H   0  0  0  0  0  0  0  0  0  0  0  0
  -26.3540  -31.7280   25.1310 C   0  0  1  0  0  0  0  0  0  0  0  0
  -25.2650  -31.4760   26.1990 C   0  0  0  0  0  1  0  0  0  0  0  0
  -26.9410  -30.3570   24.7220 C   0  0  0  0  0  1  0  0  0  0  0  0
  -27.5020  -32.5210   25.7960 C   0  0  0  0  0  1  0  0  0  0  0  0
  1  4  2  0
  1  3  1  0
  2  6  1  0
  3  2  2  0
  4  5  1  0
  5  9  1  0
  5  6  2  0
  6  8  1  0
  7  4  1  0
  9 10  1  0
 11 12  1  0
 11  9  1  0
 13 22  1  0
 13 12  1  0
 14 22  1  0
 15 20  1  0
 16 17  1  0
 16 15  1  0
 18 17  1  0
 18 27  1  0
 18 19  1  0
 20 14  1  0
 20 19  1  0
 21 14  2  0
 22 23  1  0
 24 25  2  0
 25 44  1  0
 26 25  1  0
 26 29  1  0
 27 28  1  0
 27 24  1  0
 28 26  2  0
 29 30  1  0
 30 31  2  0
 32 35  1  0
 32 31  1  0
 33 32  2  0
 34 33  1  0
 34 29  2  0
 35 36  1  0
 36 37  1  0
 37 38  2  0
 39 38  1  0
 39 43  1  0
 40 39  2  0
 41 36  2  0
 41 40  1  0
 42 41  1  0
 44 45  1  0
 45 48  1  0
 45 47  1  0
 46 44  2  0
 49 50  1  0
 49 24  1  0
 51 49  1  0
 52  3  1  0
 52 53  1  0
 54 65  2  0
 55 53  1  0
 55 60  1  0
 56 64  1  0
 56 66  1  0
 57 63  1  0
 57 59  1  0
 58 64  1  0
 59 58  1  0
 60 59  2  0
 61 55  2  0
 62 61  1  0
 62 57  2  0
 63 56  1  0
 64 54  1  0
 66 68  2  0
 67 66  1  0
 69 67  1  0
 70 79  2  0
 70 75  1  0
 71 67  1  0
 71 75  1  0
 72 71  1  0
 73 74  1  0
 73 72  1  0
 74 70  1  0
 75 76  2  0
 76 77  1  0
 78 77  2  0
 79 78  1  0
 80 54  1  0
 80 81  1  0
 80 90  1  0
 81 84  1  0
 82 86  1  0
 82 81  1  0
 83 82  2  0
 86 85  1  0
 88 86  1  0
 88 89  1  0
 88 87  1  0
 90 93  1  1
 90 91  1  0
 92 90  1  0
M  ISO  4  14 100  22 100  52 101  53 101
M  END
>  <TORSDO>  (53) 
F 21

>  <SCORE>  (53) 
-13.700

>  <name>  (53) 
52

>  <ligand_id>  (53) 
52

>  <original_smiles>  (53) 
[H]c1c([H])c([H])c2c(c1[H])C([H])([H])C([H])([H])C([H])([H])C2([H])N([H])C(=O)C1([H])N(C(=O)C([H])(N([H])C(=O)C([H])(N([H])C([H])([H])[H])C([H])([H])[H])C(C([H])([H])[H])(C([H])([H])[H])C([H])([H])[H])C([H])([H])c2c([H])c(OC([H])([H])c3c([H])c(Cl)c(N([H])C([H])([H])C([H])([H])C([H])([H])N([H])C(=O)N4C([H])([H])C([H])([H])C([H])([H])C([H])(n5nc(-c6c([H])c([H])c(Oc7c([H])c([H])c(F)c([H])c7F)c([H])c6[H])c(C(=O)N([H])[H])c5N([H])[H])C4([H])[H])c(C([H])([H])[H])c3[H])c([H])c([H])c2C1([H])[H]

>  <smiles>  (53) 
[H]c1c([H])c([H])c2c(c1[H])C([H])([H])C([H])([H])C([H])([H])C2([H])N([H])C(=O)C1([H])N(C(=O)C([H])(N([H])C(=O)C([H])(N([H])C([H])([H])[H])C([H])([H])[H])C(C([H])([H])[H])(C([H])([H])[H])C([H])([H])[H])C([H])([H])c2c([H])c(OC([H])([H])c3c([H])c(Cl)c(N([H])C([H])([H])C([H])([H])C([H])([H])N([H])C(=O)N4C([H])([H])C([H])([H])C([H])([H])C([H])(n5nc(-c6c([H])c([H])c(Oc7c([H])c([H])c(F)c([H])c7F)c([H])c6[H])c(C(=O)N([H])[H])c5N([H])[H])C4([H])[H])c(C([H])([H])[H])c3[H])c([H])c([H])c2C1([H])[H]

$$$$
53:0:0
     RDKit          3D

 92100  0  0  1  0  0  0  0  0999 V2000
  -29.8400  -19.0440   17.7970 C   0  0  0  0  0  3  0  0  0  0  0  0
  -29.5500  -20.2400   18.4900 C   0  0  0  0  0  0  0  0  0  0  0  0
  -30.0360  -17.7930   18.4170 C   0  0  0  0  0  0  0  0  0  0  0  0
  -29.5710  -20.3060   19.9110 C   0  0  0  0  0  0  0  0  0  0  0  0
  -30.0440  -17.6610   19.8330 C   0  0  0  0  0  0  0  0  0  0  0  0
  -29.7920  -18.9600   20.5430 C   0  0  0  0  0  0  0  0  0  0  0  0
  -29.0940  -21.4020   17.6210 C   0  0  0  0  0  1  0  0  0  0  0  0
  -30.0820  -16.5930   17.4810 C   0  0  0  0  0  1  0  0  0  0  0  0
  -29.6540  -18.8770   22.2650 Cl  0  0  0  0  0  0  0  0  0  0  0  0
  -30.8890  -15.0640   20.1370 C   0  0  0  0  0  0  0  0  0  0  0  0
  -30.7620  -12.7100   19.1990 C   0  0  0  0  0  2  0  0  0  0  0  0
  -29.7940  -12.6480   17.9920 C   0  0  0  0  0  2  0  0  0  0  0  0
  -28.3320  -12.4930   18.4540 C   0  0  0  0  0  2  0  0  0  0  0  0
  -27.9760  -13.3990   19.6600 C   0  0  0  0  0  3  0  0  0  0  0  0
  -29.0570  -13.3730   20.7580 C   0  0  0  0  0  2  0  0  0  0  0  0
  -30.3110  -13.7940   20.1240 N   0  0  0  0  0  0  0  0  0  0  0  0
  -32.0670  -15.1390   19.7690 O   0  0  0  0  0  0  0  0  0  0  0  0
  -30.1180  -16.2330   20.4260 N   0  0  0  0  0  0  0  0  0  0  0  0
  -29.3410  -16.0330   21.0420 H   0  0  0  0  0  0  0  0  0  0  0  0
  -25.6350  -13.9900   20.5020 C   0  0  0  0  0  0  0  0  0  0  0  0
  -24.5730  -13.2170   20.8880 C   0  0  0  0  0  0  0  0  0  0  0  0
  -25.0140  -11.8620   20.7900 C   0  0  0  0  0  0  0  0  0  0  0  0
  -26.6510  -13.1030   20.1910 N   0  0  0  0  0  0  0  0  0  0  0  0
  -26.2900  -11.8180   20.4300 N   0  0  0  0  0  0  0  0  0  0  0  0
  -24.2770  -10.6020   20.9580 C   0  0  0  0  0  0  0  0  0  0  0  0
  -24.6640   -9.6410   21.9170 C   0  0  0  0  0  3  0  0  0  0  0  0
  -23.9250   -8.4490   22.0790 C   0  0  0  0  0  3  0  0  0  0  0  0
  -22.7820   -8.2100   21.2790 C   0  0  0  0  0  0  0  0  0  0  0  0
  -22.4150   -9.1570   20.3060 C   0  0  0  0  0  3  0  0  0  0  0  0
  -23.1560  -10.3400   20.1440 C   0  0  0  0  0  3  0  0  0  0  0  0
  -22.0180   -7.0700   21.3480 O   0  0  0  0  0  0  0  0  0  0  0  0
  -21.8180   -6.4110   22.5350 C   0  0  0  0  0  0  0  0  0  0  0  0
  -21.2150   -7.0400   23.6470 C   0  0  0  0  0  3  0  0  0  0  0  0
  -20.9650   -6.3040   24.8220 C   0  0  0  0  0  3  0  0  0  0  0  0
  -21.3090   -4.9400   24.8870 C   0  0  0  0  0  0  0  0  0  0  0  0
  -21.9070   -4.3130   23.7800 C   0  0  0  0  0  3  0  0  0  0  0  0
  -22.1580   -5.0450   22.6070 C   0  0  0  0  0  0  0  0  0  0  0  0
  -22.7130   -4.4290   21.5360 F   0  0  0  0  0  0  0  0  0  0  0  0
  -21.0630   -4.2320   26.0140 F   0  0  0  0  0  0  0  0  0  0  0  0
  -23.1950  -13.7030   21.2300 C   0  0  0  0  0  0  0  0  0  0  0  0
  -22.4900  -12.9910   22.1060 N   0  0  0  0  0  0  0  0  0  0  0  0
  -22.7510  -14.7460   20.7530 O   0  0  0  0  0  0  0  0  0  0  0  0
  -22.8560  -12.1440   22.5150 H   0  0  0  0  0  0  0  0  0  0  0  0
  -21.5700  -13.3040   22.3790 H   0  0  0  0  0  0  0  0  0  0  0  0
  -25.8260  -15.3620   20.3640 N   0  0  0  0  0  0  0  0  0  0  0  0
  -25.1000  -16.0460   20.5460 H   0  0  0  0  0  0  0  0  0  0  0  0
  -26.6750  -15.7740   19.9980 H   0  0  0  0  0  0  0  0  0  0  0  0
  -27.6790  -21.6340   21.0760 C   0  0  0  0  0  1  0  0  0  0  0  0
  -29.1560  -21.7500   20.6560 C   0  0  0  0  0  3  0  0  0  0  0  0
  -29.4400  -23.3570   20.1130 C   0  0  0  0  0  3  0  0  0  0  0  0
  -28.5470  -24.7500   20.5110 C   0  0  0  0  0  3  0  0  0  0  0  0
  -28.7730  -26.2550   20.1220 O   0  0  0  0  0  0  0  0  0  0  0  0
  -24.8350  -31.7350   23.1420 C   0  0  0  0  0  0  0  0  0  0  0  0
  -27.6810  -27.2030   20.0800 C   0  0  0  0  0  0  0  0  0  0  0  0
  -23.7340  -30.3170   21.4530 C   0  0  0  0  0  3  0  0  0  0  0  0
  -25.2800  -28.8440   20.0250 C   0  0  0  0  0  0  0  0  0  0  0  0
  -26.2760  -30.7050   21.3430 C   0  0  0  0  0  2  0  0  0  0  0  0
  -26.4240  -29.3310   20.6680 C   0  0  0  0  0  0  0  0  0  0  0  0
  -27.6300  -28.5280   20.6780 C   0  0  0  0  0  3  0  0  0  0  0  0
  -26.5150  -26.8330   19.3780 C   0  0  0  0  0  3  0  0  0  0  0  0
  -25.3390  -27.6110   19.3560 C   0  0  0  0  0  3  0  0  0  0  0  0
  -24.0100  -29.6810   20.0640 C   0  0  0  0  0  2  0  0  0  0  0  0
  -24.9660  -30.9430   22.0340 N   0  0  0  0  0  0  0  0  0  0  0  0
  -23.7260  -31.9540   23.6570 O   0  0  0  0  0  0  0  0  0  0  0  0
  -23.0900  -29.2590   22.3870 C   0  0  0  0  0  0  0  0  0  0  0  0
  -21.7740  -29.0310   22.2370 N   0  0  0  0  0  0  0  0  0  0  0  0
  -23.7790  -28.6490   23.2070 O   0  0  0  0  0  0  0  0  0  0  0  0
  -21.2740  -29.5820   21.5530 H   0  0  0  0  0  0  0  0  0  0  0  0
  -18.4380  -27.6810   22.6820 C   0  0  0  0  0  0  0  0  0  0  0  0
  -20.9830  -28.0420   22.9740 C   0  0  0  0  0  3  0  0  0  0  0  0
  -21.1460  -26.6310   22.3600 C   0  0  0  0  0  2  0  0  0  0  0  0
  -20.0640  -26.2900   21.3290 C   0  0  0  0  0  2  0  0  0  0  0  0
  -18.6750  -26.3610   21.9680 C   0  0  0  0  0  2  0  0  0  0  0  0
  -19.5230  -28.4770   23.1390 C   0  0  0  0  0  0  0  0  0  0  0  0
  -19.2480  -29.7110   23.7680 C   0  0  0  0  0  3  0  0  0  0  0  0
  -17.9230  -30.1510   23.9440 C   0  0  0  0  0  3  0  0  0  0  0  0
  -16.8520  -29.3560   23.4980 C   0  0  0  0  0  3  0  0  0  0  0  0
  -17.1110  -28.1220   22.8750 C   0  0  0  0  0  3  0  0  0  0  0  0
  -26.0690  -32.4180   23.8090 C   0  0  0  0  0  3  0  0  0  0  0  0
  -26.5960  -31.6430   25.0800 C   0  0  1  0  0  0  0  0  0  0  0  0
  -25.4970  -31.3240   26.1220 C   0  0  0  0  0  1  0  0  0  0  0  0
  -27.2520  -30.3060   24.6710 C   0  0  0  0  0  1  0  0  0  0  0  0
  -27.6990  -32.4750   25.7770 C   0  0  0  0  0  1  0  0  0  0  0  0
  -25.6790  -33.7900   24.1730 N   0  0  0  0  0  0  0  0  0  0  0  0
  -25.9400  -34.8800   23.4380 C   0  0  0  0  0  0  0  0  0  0  0  0
  -26.5990  -34.8400   22.3970 O   0  0  0  0  0  0  0  0  0  0  0  0
  -25.0930  -33.8900   24.9880 H   0  0  0  0  0  0  0  0  0  0  0  0
  -24.0920  -36.5670   23.1700 C   0  0  0  0  0  1  0  0  0  0  0  0
  -25.3810  -36.2290   23.9360 C   0  0  0  0  0  3  0  0  0  0  0  0
  -27.4770  -37.2360   24.7230 C   0  0  0  0  0  1  0  0  0  0  0  0
  -26.3410  -37.3480   23.8110 N   0  0  0  0  0  0  0  0  0  0  0  0
  -25.8820  -38.2390   23.9810 H   0  0  0  0  0  0  0  0  0  0  0  0
  1  3  2  0
  1  2  1  0
  2  4  2  0
  3  5  1  0
  4  6  1  0
  4 49  1  0
  5 18  1  0
  5  6  2  0
  6  9  1  0
  7  2  1  0
  8  3  1  0
 10 18  1  0
 11 16  1  0
 12 13  1  0
 12 11  1  0
 14 13  1  0
 14 23  1  0
 14 15  1  0
 16 10  1  0
 16 15  1  0
 17 10  2  0
 18 19  1  0
 20 21  2  0
 21 40  1  0
 22 21  1  0
 22 25  1  0
 23 24  1  0
 23 20  1  0
 24 22  2  0
 25 26  1  0
 26 27  2  0
 28 31  1  0
 28 27  1  0
 29 28  2  0
 30 29  1  0
 30 25  2  0
 31 32  1  0
 32 37  2  0
 32 33  1  0
 33 34  2  0
 34 35  1  0
 35 39  1  0
 36 35  2  0
 37 36  1  0
 38 37  1  0
 40 41  1  0
 41 44  1  0
 41 43  1  0
 42 40  2  0
 45 20  1  0
 45 46  1  0
 47 45  1  0
 49 48  1  0
 50 51  2  0
 50 49  1  0
 52 51  1  0
 53 64  2  0
 54 52  1  0
 54 59  1  0
 55 63  1  0
 55 65  1  0
 56 62  1  0
 56 58  1  0
 57 63  1  0
 58 59  2  0
 58 57  1  0
 60 54  2  0
 61 60  1  0
 61 56  2  0
 62 55  1  0
 63 53  1  0
 65 67  2  0
 66 65  1  0
 68 66  1  0
 69 78  2  0
 69 74  1  0
 70 66  1  0
 70 74  1  0
 71 70  1  0
 72 73  1  0
 72 71  1  0
 73 69  1  0
 74 75  2  0
 75 76  1  0
 77 76  2  0
 78 77  1  0
 79 53  1  0
 79 84  1  0
 79 80  1  0
 80 83  1  1
 80 81  1  0
 82 80  1  0
 84 87  1  0
 85 89  1  0
 85 84  1  0
 86 85  2  0
 89 88  1  0
 91 89  1  0
 91 92  1  0
 91 90  1  0
M  ISO  4  10 100  18 100  51 101  52 101
M  END
>  <TORSDO>  (54) 
F 19

>  <SCORE>  (54) 
-12.191

>  <name>  (54) 
53

>  <ligand_id>  (54) 
53

>  <original_smiles>  (54) 
[H]c1c([H])c([H])c2c(c1[H])C([H])([H])C([H])([H])C([H])([H])C2([H])N([H])C(=O)C1([H])N(C(=O)C([H])(N([H])C(=O)C([H])(N([H])C([H])([H])[H])C([H])([H])[H])C(C([H])([H])[H])(C([H])([H])[H])C([H])([H])[H])C([H])([H])c2c([H])c(OC([H])([H])C([H])([H])C([H])(c3c(Cl)c(N([H])C(=O)N4C([H])([H])C([H])([H])C([H])([H])C([H])(n5nc(-c6c([H])c([H])c(Oc7c([H])c([H])c(F)c([H])c7F)c([H])c6[H])c(C(=O)N([H])[H])c5N([H])[H])C4([H])[H])c(C([H])([H])[H])c([H])c3C([H])([H])[H])C([H])([H])[H])c([H])c([H])c2C1([H])[H]

>  <smiles>  (54) 
[H]c1c([H])c([H])c2c(c1[H])C([H])([H])C([H])([H])C([H])([H])C2([H])N([H])C(=O)C1([H])N(C(=O)C([H])(N([H])C(=O)C([H])(N([H])C([H])([H])[H])C([H])([H])[H])C(C([H])([H])[H])(C([H])([H])[H])C([H])([H])[H])C([H])([H])c2c([H])c(OC([H])([H])C([H])([H])C([H])(c3c(Cl)c(N([H])C(=O)N4C([H])([H])C([H])([H])C([H])([H])C([H])(n5nc(-c6c([H])c([H])c(Oc7c([H])c([H])c(F)c([H])c7F)c([H])c6[H])c(C(=O)N([H])[H])c5N([H])[H])C4([H])[H])c(C([H])([H])[H])c([H])c3C([H])([H])[H])C([H])([H])[H])c([H])c([H])c2C1([H])[H]

$$$$
54:0:0
     RDKit          3D

 92100  0  0  1  0  0  0  0  0999 V2000
  -30.3410  -18.3860   21.5670 C   0  0  0  0  0  3  0  0  0  0  0  0
  -30.3170  -19.8020   21.3780 C   0  0  0  0  0  0  0  0  0  0  0  0
  -30.3830  -18.0410   19.1690 C   0  0  0  0  0  0  0  0  0  0  0  0
  -30.4360  -19.4660   18.9800 C   0  0  0  0  0  0  0  0  0  0  0  0
  -30.3870  -17.4650   20.4810 C   0  0  0  0  0  0  0  0  0  0  0  0
  -30.3300  -20.3670   20.0790 C   0  0  0  0  0  0  0  0  0  0  0  0
  -30.3670  -20.7330   22.5820 C   0  0  0  0  0  1  0  0  0  0  0  0
  -30.2480  -17.1150   17.9670 C   0  0  0  0  0  1  0  0  0  0  0  0
  -30.6760  -20.0800   17.6010 C   0  0  0  0  0  1  0  0  0  0  0  0
  -31.0740  -14.9440   20.3820 C   0  0  0  0  0  0  0  0  0  0  0  0
  -30.8950  -12.6400   19.4570 C   0  0  0  0  0  2  0  0  0  0  0  0
  -29.9760  -12.6600   18.2150 C   0  0  0  0  0  2  0  0  0  0  0  0
  -28.4980  -12.5020   18.6250 C   0  0  0  0  0  2  0  0  0  0  0  0
  -28.1050  -13.4470   19.7910 C   0  0  0  0  0  3  0  0  0  0  0  0
  -29.1380  -13.3940   20.9370 C   0  0  0  0  0  2  0  0  0  0  0  0
  -30.4580  -13.7160   20.3720 N   0  0  0  0  0  0  0  0  0  0  0  0
  -32.2270  -15.0740   19.9620 O   0  0  0  0  0  0  0  0  0  0  0  0
  -30.3060  -16.0220   20.7670 N   0  0  0  0  0  0  0  0  0  0  0  0
  -29.4930  -15.7560   21.3000 H   0  0  0  0  0  0  0  0  0  0  0  0
  -25.7200  -14.0810   20.5100 C   0  0  0  0  0  0  0  0  0  0  0  0
  -24.6390  -13.3270   20.8700 C   0  0  0  0  0  0  0  0  0  0  0  0
  -25.0740  -11.9650   20.8200 C   0  0  0  0  0  0  0  0  0  0  0  0
  -26.7500  -13.1850   20.2660 N   0  0  0  0  0  0  0  0  0  0  0  0
  -26.3650  -11.9050   20.5100 N   0  0  0  0  0  0  0  0  0  0  0  0
  -24.3220  -10.7160   20.9960 C   0  0  0  0  0  0  0  0  0  0  0  0
  -24.6930   -9.7590   21.9680 C   0  0  0  0  0  3  0  0  0  0  0  0
  -23.9450   -8.5720   22.1280 C   0  0  0  0  0  3  0  0  0  0  0  0
  -22.8110   -8.3350   21.3140 C   0  0  0  0  0  0  0  0  0  0  0  0
  -22.4590   -9.2800   20.3330 C   0  0  0  0  0  3  0  0  0  0  0  0
  -23.2080  -10.4570   20.1730 C   0  0  0  0  0  3  0  0  0  0  0  0
  -22.0370   -7.2010   21.3820 O   0  0  0  0  0  0  0  0  0  0  0  0
  -21.8730   -6.5100   22.5550 C   0  0  0  0  0  0  0  0  0  0  0  0
  -21.2170   -7.0800   23.6680 C   0  0  0  0  0  3  0  0  0  0  0  0
  -21.0070   -6.3120   24.8310 C   0  0  0  0  0  3  0  0  0  0  0  0
  -21.4440   -4.9750   24.8800 C   0  0  0  0  0  0  0  0  0  0  0  0
  -22.0910   -4.4030   23.7700 C   0  0  0  0  0  3  0  0  0  0  0  0
  -22.3030   -5.1700   22.6110 C   0  0  0  0  0  0  0  0  0  0  0  0
  -22.9080   -4.6080   21.5370 F   0  0  0  0  0  0  0  0  0  0  0  0
  -21.2360   -4.2350   25.9930 F   0  0  0  0  0  0  0  0  0  0  0  0
  -23.2520  -13.8260   21.1550 C   0  0  0  0  0  0  0  0  0  0  0  0
  -22.5100  -13.1310   22.0070 N   0  0  0  0  0  0  0  0  0  0  0  0
  -22.8350  -14.8740   20.6590 O   0  0  0  0  0  0  0  0  0  0  0  0
  -22.8580  -12.2840   22.4340 H   0  0  0  0  0  0  0  0  0  0  0  0
  -21.5800  -13.4490   22.2390 H   0  0  0  0  0  0  0  0  0  0  0  0
  -25.9150  -15.4500   20.3450 N   0  0  0  0  0  0  0  0  0  0  0  0
  -25.1600  -16.1210   20.4440 H   0  0  0  0  0  0  0  0  0  0  0  0
  -26.7650  -15.8660   19.9920 H   0  0  0  0  0  0  0  0  0  0  0  0
  -30.4440  -21.7560   19.9080 O   0  0  0  0  0  0  0  0  0  0  0  0
  -29.2800  -22.5950   19.6280 C   0  0  0  0  0  2  0  0  0  0  0  0
  -29.5630  -24.1320   19.9490 C   0  0  0  0  0  3  0  0  0  0  0  0
  -28.4310  -25.2230   19.6880 C   0  0  0  0  0  3  0  0  0  0  0  0
  -28.6040  -26.6400   20.1170 O   0  0  0  0  0  0  0  0  0  0  0  0
  -24.6160  -31.7440   23.3570 C   0  0  0  0  0  0  0  0  0  0  0  0
  -27.4740  -27.4810   20.0860 C   0  0  0  0  0  0  0  0  0  0  0  0
  -23.5180  -30.4440   21.5660 C   0  0  0  0  0  3  0  0  0  0  0  0
  -25.0690  -29.0430   20.0970 C   0  0  0  0  0  0  0  0  0  0  0  0
  -26.0580  -30.8320   21.5230 C   0  0  0  0  0  2  0  0  0  0  0  0
  -26.2020  -29.5090   20.7770 C   0  0  0  0  0  0  0  0  0  0  0  0
  -27.4090  -28.7410   20.7610 C   0  0  0  0  0  3  0  0  0  0  0  0
  -26.3080  -27.0740   19.3900 C   0  0  0  0  0  3  0  0  0  0  0  0
  -25.1240  -27.8280   19.4000 C   0  0  0  0  0  3  0  0  0  0  0  0
  -23.8110  -29.8840   20.1510 C   0  0  0  0  0  2  0  0  0  0  0  0
  -24.7450  -31.0230   22.2050 N   0  0  0  0  0  0  0  0  0  0  0  0
  -23.5040  -31.9520   23.8640 O   0  0  0  0  0  0  0  0  0  0  0  0
  -22.8450  -29.3420   22.4170 C   0  0  0  0  0  0  0  0  0  0  0  0
  -21.5300  -29.1420   22.2200 N   0  0  0  0  0  0  0  0  0  0  0  0
  -23.5060  -28.6720   23.2150 O   0  0  0  0  0  0  0  0  0  0  0  0
  -21.0520  -29.7350   21.5560 H   0  0  0  0  0  0  0  0  0  0  0  0
  -18.1540  -27.8750   22.5440 C   0  0  0  0  0  0  0  0  0  0  0  0
  -20.7050  -28.1300   22.8860 C   0  0  0  0  0  3  0  0  0  0  0  0
  -20.8300  -26.7570   22.1840 C   0  0  0  0  0  2  0  0  0  0  0  0
  -19.7500  -26.5220   21.1210 C   0  0  0  0  0  2  0  0  0  0  0  0
  -18.3550  -26.5970   21.7480 C   0  0  0  0  0  2  0  0  0  0  0  0
  -19.2580  -28.6030   23.0650 C   0  0  0  0  0  0  0  0  0  0  0  0
  -19.0150  -29.8030   23.7680 C   0  0  0  0  0  3  0  0  0  0  0  0
  -17.7030  -30.2780   23.9540 C   0  0  0  0  0  3  0  0  0  0  0  0
  -16.6140  -29.5460   23.4500 C   0  0  0  0  0  3  0  0  0  0  0  0
  -16.8390  -28.3460   22.7510 C   0  0  0  0  0  3  0  0  0  0  0  0
  -25.8550  -32.3570   24.0790 C   0  0  0  0  0  3  0  0  0  0  0  0
  -26.2400  -31.6010   25.4090 C   0  0  1  0  0  0  0  0  0  0  0  0
  -25.0500  -31.4000   26.3750 C   0  0  0  0  0  1  0  0  0  0  0  0
  -26.8310  -30.2040   25.0970 C   0  0  0  0  0  1  0  0  0  0  0  0
  -27.3400  -32.3880   26.1610 C   0  0  0  0  0  1  0  0  0  0  0  0
  -25.5560  -33.7690   24.3530 N   0  0  0  0  0  0  0  0  0  0  0  0
  -25.9230  -34.7930   23.5680 C   0  0  0  0  0  0  0  0  0  0  0  0
  -26.6200  -34.6480   22.5610 O   0  0  0  0  0  0  0  0  0  0  0  0
  -24.9550  -33.9580   25.1420 H   0  0  0  0  0  0  0  0  0  0  0  0
  -24.2050  -36.5750   23.1330 C   0  0  0  0  0  1  0  0  0  0  0  0
  -25.4400  -36.2010   23.9670 C   0  0  0  0  0  3  0  0  0  0  0  0
  -27.5540  -37.1310   24.8010 C   0  0  0  0  0  1  0  0  0  0  0  0
  -26.4770  -37.2430   23.8180 N   0  0  0  0  0  0  0  0  0  0  0  0
  -26.0710  -38.1710   23.9020 H   0  0  0  0  0  0  0  0  0  0  0  0
  2  1  1  0
  2  7  1  0
  3  5  1  0
  4  3  2  0
  4  6  1  0
  5 18  1  0
  5  1  2  0
  6  2  2  0
  8  3  1  0
  9  4  1  0
 10 18  1  0
 11 16  1  0
 12 13  1  0
 12 11  1  0
 14 13  1  0
 14 23  1  0
 14 15  1  0
 16 10  1  0
 16 15  1  0
 17 10  2  0
 18 19  1  0
 20 21  2  0
 21 40  1  0
 22 21  1  0
 22 25  1  0
 23 24  1  0
 23 20  1  0
 24 22  2  0
 25 26  1  0
 26 27  2  0
 28 31  1  0
 28 27  1  0
 29 28  2  0
 30 29  1  0
 30 25  2  0
 31 32  1  0
 32 37  2  0
 32 33  1  0
 33 34  2  0
 34 35  1  0
 35 39  1  0
 36 35  2  0
 37 36  1  0
 38 37  1  0
 40 41  1  0
 41 44  1  0
 41 43  1  0
 42 40  2  0
 45 46  1  0
 45 20  1  0
 47 45  1  0
 48  6  1  0
 49 48  1  0
 49 50  1  0
 51 50  2  0
 51 52  1  0
 53 64  2  0
 54 52  1  0
 54 59  1  0
 55 63  1  0
 55 65  1  0
 56 62  1  0
 56 58  1  0
 57 63  1  0
 58 57  1  0
 59 58  2  0
 60 61  1  0
 60 54  2  0
 61 56  2  0
 62 55  1  0
 63 53  1  0
 65 67  2  0
 66 65  1  0
 68 66  1  0
 69 78  2  0
 69 74  1  0
 70 66  1  0
 70 74  1  0
 71 70  1  0
 72 73  1  0
 72 71  1  0
 73 69  1  0
 74 75  2  0
 75 76  1  0
 77 76  2  0
 78 77  1  0
 79 53  1  0
 79 84  1  0
 79 80  1  0
 80 83  1  1
 80 81  1  0
 82 80  1  0
 84 87  1  0
 85 89  1  0
 85 84  1  0
 86 85  2  0
 89 88  1  0
 91 92  1  0
 91 89  1  0
 91 90  1  0
M  ISO  4  10 100  18 100  51 101  52 101
M  END
>  <TORSDO>  (55) 
F 20

>  <SCORE>  (55) 
-12.924

>  <name>  (55) 
54

>  <ligand_id>  (55) 
54

>  <original_smiles>  (55) 
[H]c1c([H])c([H])c2c(c1[H])C([H])([H])C([H])([H])C([H])([H])C2([H])N([H])C(=O)C1([H])N(C(=O)C([H])(N([H])C(=O)C([H])(N([H])C([H])([H])[H])C([H])([H])[H])C(C([H])([H])[H])(C([H])([H])[H])C([H])([H])[H])C([H])([H])c2c([H])c(OC([H])([H])C([H])([H])C([H])([H])Oc3c(C([H])([H])[H])c([H])c(N([H])C(=O)N4C([H])([H])C([H])([H])C([H])([H])C([H])(n5nc(-c6c([H])c([H])c(Oc7c([H])c([H])c(F)c([H])c7F)c([H])c6[H])c(C(=O)N([H])[H])c5N([H])[H])C4([H])[H])c(C([H])([H])[H])c3C([H])([H])[H])c([H])c([H])c2C1([H])[H]

>  <smiles>  (55) 
[H]c1c([H])c([H])c2c(c1[H])C([H])([H])C([H])([H])C([H])([H])C2([H])N([H])C(=O)C1([H])N(C(=O)C([H])(N([H])C(=O)C([H])(N([H])C([H])([H])[H])C([H])([H])[H])C(C([H])([H])[H])(C([H])([H])[H])C([H])([H])[H])C([H])([H])c2c([H])c(OC([H])([H])C([H])([H])C([H])([H])Oc3c(C([H])([H])[H])c([H])c(N([H])C(=O)N4C([H])([H])C([H])([H])C([H])([H])C([H])(n5nc(-c6c([H])c([H])c(Oc7c([H])c([H])c(F)c([H])c7F)c([H])c6[H])c(C(=O)N([H])[H])c5N([H])[H])C4([H])[H])c(C([H])([H])[H])c3C([H])([H])[H])c([H])c([H])c2C1([H])[H]

$$$$
55:0:0
     RDKit          3D

 91 99  0  0  1  0  0  0  0  0999 V2000
  -28.7610  -20.9990   20.7960 C   0  0  0  0  0  3  0  0  0  0  0  0
  -29.0350  -19.5760   20.6420 C   0  0  0  0  0  0  0  0  0  0  0  0
  -29.4050  -22.0580   20.0610 C   0  0  0  0  0  0  0  0  0  0  0  0
  -30.0100  -19.0630   19.7210 C   0  0  0  0  0  0  0  0  0  0  0  0
  -30.3640  -21.5320   19.1370 C   0  0  0  0  0  0  0  0  0  0  0  0
  -30.6480  -20.1170   18.9790 C   0  0  0  0  0  0  0  0  0  0  0  0
  -28.2730  -18.5810   21.5050 C   0  0  0  0  0  1  0  0  0  0  0  0
  -31.2750  -22.6680   18.1920 Cl  0  0  0  0  0  0  0  0  0  0  0  0
  -31.8660  -19.6570   17.8350 Cl  0  0  0  0  0  0  0  0  0  0  0  0
  -29.3060  -23.6700   20.4060 C   0  0  0  0  0  3  0  0  0  0  0  0
  -28.1850  -24.7950   19.9340 C   0  0  0  0  0  3  0  0  0  0  0  0
  -28.3490  -26.3120   20.1830 O   0  0  0  0  0  0  0  0  0  0  0  0
  -24.6200  -31.8500   23.1970 C   0  0  0  0  0  0  0  0  0  0  0  0
  -27.2480  -27.2330   20.1200 C   0  0  0  0  0  0  0  0  0  0  0  0
  -23.4220  -30.4510   21.5600 C   0  0  0  0  0  3  0  0  0  0  0  0
  -24.8820  -28.9040   20.1170 C   0  0  0  0  0  0  0  0  0  0  0  0
  -25.9680  -30.7630   21.3710 C   0  0  0  0  0  2  0  0  0  0  0  0
  -26.0600  -29.3810   20.7140 C   0  0  0  0  0  0  0  0  0  0  0  0
  -27.2390  -28.5620   20.6950 C   0  0  0  0  0  3  0  0  0  0  0  0
  -26.0450  -26.8380   19.4930 C   0  0  0  0  0  3  0  0  0  0  0  0
  -24.8860  -27.6460   19.4940 C   0  0  0  0  0  3  0  0  0  0  0  0
  -23.6430  -29.7830   20.1750 C   0  0  0  0  0  2  0  0  0  0  0  0
  -24.6910  -31.0420   22.0990 N   0  0  0  0  0  0  0  0  0  0  0  0
  -23.5360  -32.1210   23.7390 O   0  0  0  0  0  0  0  0  0  0  0  0
  -22.7690  -29.4320   22.5260 C   0  0  0  0  0  0  0  0  0  0  0  0
  -21.4430  -29.2410   22.4060 N   0  0  0  0  0  0  0  0  0  0  0  0
  -23.4540  -28.8120   23.3420 O   0  0  0  0  0  0  0  0  0  0  0  0
  -20.9490  -29.7930   21.7180 H   0  0  0  0  0  0  0  0  0  0  0  0
  -18.0840  -27.9980   22.9270 C   0  0  0  0  0  0  0  0  0  0  0  0
  -20.6410  -28.2920   23.1850 C   0  0  0  0  0  3  0  0  0  0  0  0
  -20.7560  -26.8610   22.6090 C   0  0  0  0  0  2  0  0  0  0  0  0
  -19.6580  -26.5310   21.5930 C   0  0  0  0  0  2  0  0  0  0  0  0
  -18.2720  -26.6590   22.2380 C   0  0  0  0  0  2  0  0  0  0  0  0
  -19.1970  -28.7720   23.3550 C   0  0  0  0  0  0  0  0  0  0  0  0
  -18.9650  -30.0270   23.9570 C   0  0  0  0  0  3  0  0  0  0  0  0
  -17.6530  -30.5060   24.1350 C   0  0  0  0  0  3  0  0  0  0  0  0
  -16.5560  -29.7300   23.7250 C   0  0  0  0  0  3  0  0  0  0  0  0
  -16.7730  -28.4770   23.1260 C   0  0  0  0  0  3  0  0  0  0  0  0
  -25.8980  -32.5000   23.8170 C   0  0  0  0  0  3  0  0  0  0  0  0
  -26.4310  -31.7310   25.0900 C   0  0  1  0  0  0  0  0  0  0  0  0
  -25.3470  -31.4740   26.1620 C   0  0  0  0  0  1  0  0  0  0  0  0
  -27.0310  -30.3610   24.6930 C   0  0  0  0  0  1  0  0  0  0  0  0
  -27.5730  -32.5400   25.7490 C   0  0  0  0  0  1  0  0  0  0  0  0
  -25.5750  -33.8950   24.1570 N   0  0  0  0  0  0  0  0  0  0  0  0
  -25.8740  -34.9570   23.3960 C   0  0  0  0  0  0  0  0  0  0  0  0
  -26.5220  -34.8660   22.3500 O   0  0  0  0  0  0  0  0  0  0  0  0
  -25.0010  -34.0350   24.9750 H   0  0  0  0  0  0  0  0  0  0  0  0
  -24.1050  -36.7210   23.1100 C   0  0  0  0  0  1  0  0  0  0  0  0
  -25.3820  -36.3380   23.8740 C   0  0  0  0  0  3  0  0  0  0  0  0
  -27.5270  -37.2620   24.6330 C   0  0  0  0  0  1  0  0  0  0  0  0
  -26.3920  -37.4070   23.7240 N   0  0  0  0  0  0  0  0  0  0  0  0
  -25.9760  -38.3210   23.8800 H   0  0  0  0  0  0  0  0  0  0  0  0
  -30.4840  -17.5120   19.4200 C   0  0  0  0  0  2  0  0  0  0  0  0
  -30.7670  -14.9270   19.9080 C   0  0  0  0  0  0  0  0  0  0  0  0
  -30.4800  -12.6480   18.9120 C   0  0  0  0  0  2  0  0  0  0  0  0
  -29.4820  -12.7420   17.7360 C   0  0  0  0  0  2  0  0  0  0  0  0
  -28.0340  -12.5720   18.2380 C   0  0  0  0  0  2  0  0  0  0  0  0
  -27.7310  -13.4290   19.4940 C   0  0  0  0  0  3  0  0  0  0  0  0
  -28.8510  -13.3450   20.5500 C   0  0  0  0  0  2  0  0  0  0  0  0
  -30.1070  -13.7070   19.8820 N   0  0  0  0  0  0  0  0  0  0  0  0
  -31.9620  -14.9510   19.5960 O   0  0  0  0  0  0  0  0  0  0  0  0
  -30.0560  -16.1330   20.0000 N   0  0  0  0  0  0  0  0  0  0  0  0
  -29.0650  -16.0220   20.1550 H   0  0  0  0  0  0  0  0  0  0  0  0
  -25.4000  -14.0140   20.3780 C   0  0  0  0  0  0  0  0  0  0  0  0
  -24.3480  -13.2380   20.7810 C   0  0  0  0  0  0  0  0  0  0  0  0
  -24.7980  -11.8830   20.6910 C   0  0  0  0  0  0  0  0  0  0  0  0
  -26.4200  -13.1360   20.0560 N   0  0  0  0  0  0  0  0  0  0  0  0
  -26.0710  -11.8460   20.3110 N   0  0  0  0  0  0  0  0  0  0  0  0
  -24.0670  -10.6230   20.8860 C   0  0  0  0  0  0  0  0  0  0  0  0
  -24.4910   -9.6640   21.8310 C   0  0  0  0  0  3  0  0  0  0  0  0
  -23.7620   -8.4700   22.0150 C   0  0  0  0  0  3  0  0  0  0  0  0
  -22.5940   -8.2250   21.2520 C   0  0  0  0  0  0  0  0  0  0  0  0
  -22.1930   -9.1720   20.2930 C   0  0  0  0  0  3  0  0  0  0  0  0
  -22.9240  -10.3580   20.1080 C   0  0  0  0  0  3  0  0  0  0  0  0
  -21.8380   -7.0820   21.3430 O   0  0  0  0  0  0  0  0  0  0  0  0
  -21.7090   -6.3970   22.5230 C   0  0  0  0  0  0  0  0  0  0  0  0
  -21.1950   -7.0080   23.6890 C   0  0  0  0  0  3  0  0  0  0  0  0
  -21.0150   -6.2480   24.8620 C   0  0  0  0  0  3  0  0  0  0  0  0
  -21.3400   -4.8780   24.8710 C   0  0  0  0  0  0  0  0  0  0  0  0
  -21.8460   -4.2670   23.7110 C   0  0  0  0  0  3  0  0  0  0  0  0
  -22.0280   -5.0230   22.5410 C   0  0  0  0  0  0  0  0  0  0  0  0
  -22.4970   -4.4240   21.4190 F   0  0  0  0  0  0  0  0  0  0  0  0
  -21.1590   -4.1460   25.9950 F   0  0  0  0  0  0  0  0  0  0  0  0
  -22.9690  -13.7220   21.1340 C   0  0  0  0  0  0  0  0  0  0  0  0
  -22.2830  -13.0120   22.0240 N   0  0  0  0  0  0  0  0  0  0  0  0
  -22.5120  -14.7590   20.6560 O   0  0  0  0  0  0  0  0  0  0  0  0
  -22.6660  -12.1720   22.4290 H   0  0  0  0  0  0  0  0  0  0  0  0
  -21.3610  -13.3130   22.3040 H   0  0  0  0  0  0  0  0  0  0  0  0
  -25.5690  -15.3900   20.2280 N   0  0  0  0  0  0  0  0  0  0  0  0
  -24.8260  -16.0480   20.4250 H   0  0  0  0  0  0  0  0  0  0  0  0
  -26.4090  -15.8320   19.8830 H   0  0  0  0  0  0  0  0  0  0  0  0
  2  1  1  0
  2  7  1  0
  3 10  1  0
  3  1  2  0
  4  2  2  0
  5  3  1  0
  6  5  2  0
  6  4  1  0
  8  5  1  0
  9  6  1  0
 11 12  1  0
 11 10  2  0
 13 24  2  0
 14 12  1  0
 14 19  1  0
 15 23  1  0
 15 25  1  0
 16 22  1  0
 16 18  1  0
 17 23  1  0
 18 17  1  0
 19 18  2  0
 20 21  1  0
 20 14  2  0
 21 16  2  0
 22 15  1  0
 23 13  1  0
 25 27  2  0
 26 25  1  0
 28 26  1  0
 29 38  2  0
 29 34  1  0
 30 26  1  0
 30 34  1  0
 31 30  1  0
 32 33  1  0
 32 31  1  0
 33 29  1  0
 34 35  2  0
 35 36  1  0
 37 36  2  0
 38 37  1  0
 39 13  1  0
 39 44  1  0
 39 40  1  0
 40 43  1  1
 40 41  1  0
 42 40  1  0
 44 47  1  0
 45 49  1  0
 45 44  1  0
 46 45  2  0
 49 48  1  0
 51 49  1  0
 51 52  1  0
 51 50  1  0
 53  4  1  0
 53 62  1  0
 54 62  1  0
 55 60  1  0
 56 57  1  0
 56 55  1  0
 58 57  1  0
 58 67  1  0
 58 59  1  0
 60 54  1  0
 60 59  1  0
 61 54  2  0
 62 63  1  0
 64 65  2  0
 65 84  1  0
 66 65  1  0
 66 69  1  0
 67 68  1  0
 67 64  1  0
 68 66  2  0
 69 70  1  0
 70 71  2  0
 72 75  1  0
 72 71  1  0
 73 72  2  0
 74 73  1  0
 74 69  2  0
 75 76  1  0
 76 81  2  0
 76 77  1  0
 77 78  2  0
 78 79  1  0
 79 83  1  0
 80 79  2  0
 81 80  1  0
 82 81  1  0
 84 85  1  0
 85 88  1  0
 85 87  1  0
 86 84  2  0
 89 64  1  0
 89 90  1  0
 91 89  1  0
M  ISO  4  11 101  12 101  54 100  62 100
M  END
>  <TORSDO>  (56) 
F 19

>  <SCORE>  (56) 
-12.399

>  <name>  (56) 
55

>  <ligand_id>  (56) 
55

>  <original_smiles>  (56) 
[H]c1c([H])c([H])c2c(c1[H])C([H])([H])C([H])([H])C([H])([H])C2([H])N([H])C(=O)C1([H])N(C(=O)C([H])(N([H])C(=O)C([H])(N([H])C([H])([H])[H])C([H])([H])[H])C(C([H])([H])[H])(C([H])([H])[H])C([H])([H])[H])C([H])([H])c2c([H])c(OC([H])([H])C([H])([H])c3c([H])c(C([H])([H])[H])c(C([H])([H])N([H])C(=O)N4C([H])([H])C([H])([H])C([H])([H])C([H])(n5nc(-c6c([H])c([H])c(Oc7c([H])c([H])c(F)c([H])c7F)c([H])c6[H])c(C(=O)N([H])[H])c5N([H])[H])C4([H])[H])c(Cl)c3Cl)c([H])c([H])c2C1([H])[H]

>  <smiles>  (56) 
[H]c1c([H])c([H])c2c(c1[H])C([H])([H])C([H])([H])C([H])([H])C2([H])N([H])C(=O)C1([H])N(C(=O)C([H])(N([H])C(=O)C([H])(N([H])C([H])([H])[H])C([H])([H])[H])C(C([H])([H])[H])(C([H])([H])[H])C([H])([H])[H])C([H])([H])c2c([H])c(OC([H])([H])C([H])([H])c3c([H])c(C([H])([H])[H])c(C([H])([H])N([H])C(=O)N4C([H])([H])C([H])([H])C([H])([H])C([H])(n5nc(-c6c([H])c([H])c(Oc7c([H])c([H])c(F)c([H])c7F)c([H])c6[H])c(C(=O)N([H])[H])c5N([H])[H])C4([H])[H])c(Cl)c3Cl)c([H])c([H])c2C1([H])[H]

$$$$
56:0:0
     RDKit          3D

 94102  0  0  1  0  0  0  0  0999 V2000
  -28.9330  -21.3490   21.3220 C   0  0  0  0  0  2  0  0  0  0  0  0
  -28.2910  -21.5670   18.9270 C   0  0  0  0  0  2  0  0  0  0  0  0
  -28.7770  -19.8040   21.3690 C   0  0  0  0  0  2  0  0  0  0  0  0
  -28.7740  -20.0940   18.8110 C   0  0  0  0  0  2  0  0  0  0  0  0
  -27.9090  -21.9810   20.3570 C   0  0  0  0  0  3  0  0  0  0  0  0
  -28.4550  -19.1340   19.9960 C   0  0  0  0  0  3  0  0  0  0  0  0
  -29.6230  -16.8430   20.4540 C   0  0  0  0  0  0  0  0  0  0  0  0
  -29.2280  -17.9090   19.7220 N   0  0  0  0  0  0  0  0  0  0  0  0
  -29.0930  -16.5160   21.5150 O   0  0  0  0  0  0  0  0  0  0  0  0
  -29.7280  -17.9620   18.8460 H   0  0  0  0  0  0  0  0  0  0  0  0
  -31.0330  -16.2700   18.3740 C   0  0  0  0  0  1  0  0  0  0  0  0
  -32.0380  -17.2470   20.4390 C   0  0  0  0  0  1  0  0  0  0  0  0
  -30.9590  -16.2360   19.9250 C   0  0  1  0  0  0  0  0  0  0  0  0
  -31.3590  -14.7720   20.4010 C   0  0  0  0  0  0  0  0  0  0  0  0
  -30.9440  -12.5620   19.4210 C   0  0  0  0  0  2  0  0  0  0  0  0
  -30.0600  -12.6850   18.1640 C   0  0  0  0  0  2  0  0  0  0  0  0
  -28.5670  -12.6380   18.5420 C   0  0  0  0  0  2  0  0  0  0  0  0
  -28.2040  -13.5470   19.7490 C   0  0  0  0  0  3  0  0  0  0  0  0
  -29.2310  -13.4370   20.8940 C   0  0  0  0  0  2  0  0  0  0  0  0
  -30.5660  -13.6590   20.3310 N   0  0  0  0  0  0  0  0  0  0  0  0
  -32.5780  -14.6120   20.3900 O   0  0  0  0  0  0  0  0  0  0  0  0
  -25.8130  -14.2060   20.4110 C   0  0  0  0  0  0  0  0  0  0  0  0
  -24.7150  -13.4610   20.7440 C   0  0  0  0  0  0  0  0  0  0  0  0
  -25.1460  -12.0970   20.7430 C   0  0  0  0  0  0  0  0  0  0  0  0
  -26.8430  -13.2990   20.2150 N   0  0  0  0  0  0  0  0  0  0  0  0
  -26.4470  -12.0280   20.4850 N   0  0  0  0  0  0  0  0  0  0  0  0
  -24.3850  -10.8530   20.9150 C   0  0  0  0  0  0  0  0  0  0  0  0
  -24.7340   -9.9000   21.8980 C   0  0  0  0  0  3  0  0  0  0  0  0
  -23.9730   -8.7240   22.0600 C   0  0  0  0  0  3  0  0  0  0  0  0
  -22.8460   -8.4890   21.2370 C   0  0  0  0  0  0  0  0  0  0  0  0
  -22.5120   -9.4300   20.2480 C   0  0  0  0  0  3  0  0  0  0  0  0
  -23.2750  -10.5990   20.0840 C   0  0  0  0  0  3  0  0  0  0  0  0
  -22.0630   -7.3610   21.3020 O   0  0  0  0  0  0  0  0  0  0  0  0
  -21.8850   -6.6760   22.4770 C   0  0  0  0  0  0  0  0  0  0  0  0
  -21.3380   -7.2930   23.6230 C   0  0  0  0  0  3  0  0  0  0  0  0
  -21.1080   -6.5360   24.7890 C   0  0  0  0  0  3  0  0  0  0  0  0
  -21.4140   -5.1620   24.8080 C   0  0  0  0  0  0  0  0  0  0  0  0
  -21.9540   -4.5450   23.6660 C   0  0  0  0  0  3  0  0  0  0  0  0
  -22.1860   -5.3000   22.5040 C   0  0  0  0  0  0  0  0  0  0  0  0
  -22.6880   -4.6960   21.4000 F   0  0  0  0  0  0  0  0  0  0  0  0
  -21.1870   -4.4320   25.9250 F   0  0  0  0  0  0  0  0  0  0  0  0
  -23.3210  -13.9720   20.9590 C   0  0  0  0  0  0  0  0  0  0  0  0
  -22.5500  -13.3100   21.8130 N   0  0  0  0  0  0  0  0  0  0  0  0
  -22.9220  -14.9980   20.4060 O   0  0  0  0  0  0  0  0  0  0  0  0
  -22.8800  -12.4810   22.2840 H   0  0  0  0  0  0  0  0  0  0  0  0
  -21.6160  -13.6430   22.0040 H   0  0  0  0  0  0  0  0  0  0  0  0
  -26.0250  -15.5700   20.2390 N   0  0  0  0  0  0  0  0  0  0  0  0
  -25.2970  -16.2530   20.4160 H   0  0  0  0  0  0  0  0  0  0  0  0
  -26.9330  -15.9910   20.0890 H   0  0  0  0  0  0  0  0  0  0  0  0
  -26.5970  -23.7180   21.6680 C   0  0  0  0  0  1  0  0  0  0  0  0
  -27.6230  -23.5170   20.5310 C   0  0  0  0  0  3  0  0  0  0  0  0
  -28.8900  -24.4060   20.7260 C   0  0  0  0  0  2  0  0  0  0  0  0
  -28.6980  -25.9040   21.1280 C   0  0  0  0  0  2  0  0  0  0  0  0
  -28.4580  -26.8090   20.0430 O   0  0  0  0  0  0  0  0  0  0  0  0
  -24.6060  -31.9440   23.2380 C   0  0  0  0  0  0  0  0  0  0  0  0
  -27.3020  -27.5490   20.1240 C   0  0  0  0  0  0  0  0  0  0  0  0
  -23.4220  -30.5450   21.5800 C   0  0  0  0  0  3  0  0  0  0  0  0
  -24.8970  -29.0330   20.1490 C   0  0  0  0  0  0  0  0  0  0  0  0
  -25.9450  -30.9310   21.3910 C   0  0  0  0  0  2  0  0  0  0  0  0
  -26.0480  -29.5610   20.7470 C   0  0  0  0  0  0  0  0  0  0  0  0
  -27.2570  -28.8240   20.7380 C   0  0  0  0  0  3  0  0  0  0  0  0
  -26.1380  -27.0340   19.5230 C   0  0  0  0  0  3  0  0  0  0  0  0
  -24.9350  -27.7650   19.5390 C   0  0  0  0  0  3  0  0  0  0  0  0
  -23.6460  -29.8820   20.1950 C   0  0  0  0  0  2  0  0  0  0  0  0
  -24.6770  -31.1560   22.1280 N   0  0  0  0  0  0  0  0  0  0  0  0
  -23.5190  -32.1970   23.7780 O   0  0  0  0  0  0  0  0  0  0  0  0
  -22.7810  -29.5070   22.5280 C   0  0  0  0  0  0  0  0  0  0  0  0
  -21.4580  -29.3170   22.3980 N   0  0  0  0  0  0  0  0  0  0  0  0
  -23.4700  -28.8760   23.3340 O   0  0  0  0  0  0  0  0  0  0  0  0
  -20.9630  -29.8760   21.7180 H   0  0  0  0  0  0  0  0  0  0  0  0
  -18.0910  -28.1050   22.9030 C   0  0  0  0  0  0  0  0  0  0  0  0
  -20.6510  -28.3610   23.1550 C   0  0  0  0  0  3  0  0  0  0  0  0
  -20.7500  -26.9420   22.5480 C   0  0  0  0  0  2  0  0  0  0  0  0
  -19.6390  -26.6400   21.5370 C   0  0  0  0  0  2  0  0  0  0  0  0
  -18.2630  -26.7710   22.1970 C   0  0  0  0  0  2  0  0  0  0  0  0
  -19.2120  -28.8580   23.3390 C   0  0  0  0  0  0  0  0  0  0  0  0
  -18.9980  -30.1100   23.9570 C   0  0  0  0  0  3  0  0  0  0  0  0
  -17.6950  -30.6070   24.1430 C   0  0  0  0  0  3  0  0  0  0  0  0
  -16.5890  -29.8500   23.7250 C   0  0  0  0  0  3  0  0  0  0  0  0
  -16.7860  -28.6010   23.1120 C   0  0  0  0  0  3  0  0  0  0  0  0
  -25.8830  -32.5840   23.8680 C   0  0  0  0  0  3  0  0  0  0  0  0
  -25.5650  -33.9820   24.1870 N   0  0  0  0  0  0  0  0  0  0  0  0
  -25.9100  -35.0320   23.4300 C   0  0  0  0  0  0  0  0  0  0  0  0
  -26.6010  -34.9260   22.4120 O   0  0  0  0  0  0  0  0  0  0  0  0
  -24.9550  -34.1370   24.9760 H   0  0  0  0  0  0  0  0  0  0  0  0
  -24.1870  -36.8180   23.0310 C   0  0  0  0  0  1  0  0  0  0  0  0
  -25.4110  -36.4210   23.8720 C   0  0  0  0  0  3  0  0  0  0  0  0
  -27.5220  -37.3130   24.7510 C   0  0  0  0  0  1  0  0  0  0  0  0
  -26.4440  -37.4750   23.7800 N   0  0  0  0  0  0  0  0  0  0  0  0
  -26.0330  -38.3950   23.9120 H   0  0  0  0  0  0  0  0  0  0  0  0
  -26.3930  -31.8200   25.1500 C   0  0  1  0  0  0  0  0  0  0  0  0
  -25.2880  -31.5770   26.2060 C   0  0  0  0  0  1  0  0  0  0  0  0
  -26.9910  -30.4470   24.7640 C   0  0  0  0  0  1  0  0  0  0  0  0
  -27.5280  -32.6250   25.8240 C   0  0  0  0  0  1  0  0  0  0  0  0
  1  3  1  0
  2  5  1  0
  4  2  1  0
  4  6  1  0
  5 51  1  0
  5  1  1  0
  6  8  1  0
  6  3  1  0
  7  9  2  0
  8  7  1  0
 10  8  1  0
 13 11  1  6
 13 14  1  0
 13 12  1  0
 13  7  1  0
 15 20  1  0
 16 17  1  0
 16 15  1  0
 18 17  1  0
 18 25  1  0
 18 19  1  0
 20 14  1  0
 20 19  1  0
 21 14  2  0
 22 23  2  0
 23 42  1  0
 24 23  1  0
 24 27  1  0
 25 22  1  0
 25 26  1  0
 26 24  2  0
 27 28  1  0
 28 29  2  0
 30 33  1  0
 30 29  1  0
 31 30  2  0
 32 31  1  0
 32 27  2  0
 33 34  1  0
 34 39  2  0
 34 35  1  0
 35 36  2  0
 36 37  1  0
 37 41  1  0
 38 37  2  0
 39 38  1  0
 40 39  1  0
 42 43  1  0
 43 46  1  0
 43 45  1  0
 44 42  2  0
 47 22  1  0
 47 48  1  0
 49 47  1  0
 51 52  1  0
 51 50  1  0
 52 53  1  0
 54 56  1  0
 54 53  1  0
 55 66  2  0
 56 61  1  0
 57 65  1  0
 57 67  1  0
 58 64  1  0
 58 60  1  0
 59 65  1  0
 60 59  1  0
 61 60  2  0
 62 63  1  0
 62 56  2  0
 63 58  2  0
 64 57  1  0
 65 55  1  0
 67 69  2  0
 68 67  1  0
 70 68  1  0
 71 80  2  0
 71 76  1  0
 72 68  1  0
 72 76  1  0
 73 72  1  0
 74 75  1  0
 74 73  1  0
 75 71  1  0
 76 77  2  0
 77 78  1  0
 79 78  2  0
 80 79  1  0
 81 55  1  0
 81 82  1  0
 81 91  1  0
 82 85  1  0
 83 87  1  0
 83 82  1  0
 84 83  2  0
 87 86  1  0
 89 87  1  0
 89 90  1  0
 89 88  1  0
 91 94  1  1
 91 92  1  0
 93 91  1  0
M  ISO  4  13 100  14 100  53 101  54 101
M  END
>  <TORSDO>  (57) 
F 21

>  <SCORE>  (57) 
-12.913

>  <name>  (57) 
56

>  <ligand_id>  (57) 
56

>  <original_smiles>  (57) 
[H]c1c([H])c([H])c2c(c1[H])C([H])([H])C([H])([H])C([H])([H])C2([H])N([H])C(=O)C1([H])N(C(=O)C([H])(N([H])C(=O)C([H])(N([H])C([H])([H])[H])C([H])([H])[H])C(C([H])([H])[H])(C([H])([H])[H])C([H])([H])[H])C([H])([H])c2c([H])c(OC([H])([H])C([H])([H])C([H])(C([H])([H])[H])C3([H])C([H])([H])C([H])([H])C([H])(N([H])C(=O)C(C(=O)N4C([H])([H])C([H])([H])C([H])([H])C([H])(n5nc(-c6c([H])c([H])c(Oc7c([H])c([H])c(F)c([H])c7F)c([H])c6[H])c(C(=O)N([H])[H])c5N([H])[H])C4([H])[H])(C([H])([H])[H])C([H])([H])[H])C([H])([H])C3([H])[H])c([H])c([H])c2C1([H])[H]

>  <smiles>  (57) 
[H]c1c([H])c([H])c2c(c1[H])C([H])([H])C([H])([H])C([H])([H])C2([H])N([H])C(=O)C1([H])N(C(=O)C([H])(N([H])C(=O)C([H])(N([H])C([H])([H])[H])C([H])([H])[H])C(C([H])([H])[H])(C([H])([H])[H])C([H])([H])[H])C([H])([H])c2c([H])c(OC([H])([H])C([H])([H])C([H])(C([H])([H])[H])C3([H])C([H])([H])C([H])([H])C([H])(N([H])C(=O)C(C(=O)N4C([H])([H])C([H])([H])C([H])([H])C([H])(n5nc(-c6c([H])c([H])c(Oc7c([H])c([H])c(F)c([H])c7F)c([H])c6[H])c(C(=O)N([H])[H])c5N([H])[H])C4([H])[H])(C([H])([H])[H])C([H])([H])[H])C([H])([H])C3([H])[H])c([H])c([H])c2C1([H])[H]

$$$$
57:0:0
     RDKit          3D

 93102  0  0  1  0  0  0  0  0999 V2000
  -29.2120  -21.4330   19.2650 C   0  0  0  0  0  3  0  0  0  0  0  0
  -29.9150  -21.0790   20.4400 C   0  0  0  0  0  0  0  0  0  0  0  0
  -30.0430  -22.1230   21.4140 C   0  0  0  0  0  0  0  0  0  0  0  0
  -28.8050  -23.7650   20.0140 C   0  0  0  0  0  0  0  0  0  0  0  0
  -28.6790  -22.7260   19.0560 C   0  0  0  0  0  0  0  0  0  0  0  0
  -29.4940  -23.4340   21.2070 C   0  0  0  0  0  0  0  0  0  0  0  0
  -30.7790  -21.8480   22.7160 C   0  0  0  0  0  1  0  0  0  0  0  0
  -27.9870  -22.9420   17.9100 F   0  0  0  0  0  0  0  0  0  0  0  0
  -29.6020  -24.3680   22.1840 F   0  0  0  0  0  0  0  0  0  0  0  0
  -30.8100  -18.7910   19.3760 C   0  0  0  0  0  2  0  0  0  0  0  0
  -30.5780  -19.6730   20.5890 C   0  0  0  0  0  3  0  0  0  0  0  0
  -29.9370  -18.2510   20.4820 C   0  0  0  0  0  3  0  0  0  0  0  0
  -30.4450  -17.0060   21.2740 C   0  0  0  0  0  2  0  0  0  0  0  0
  -30.6360  -14.5670   20.4820 C   0  0  0  0  0  0  0  0  0  0  0  0
  -30.3520  -12.3730   19.3560 C   0  0  0  0  0  2  0  0  0  0  0  0
  -29.4060  -12.5270   18.1480 C   0  0  0  0  0  2  0  0  0  0  0  0
  -27.9350  -12.3730   18.5840 C   0  0  0  0  0  2  0  0  0  0  0  0
  -27.5880  -13.2280   19.8330 C   0  0  0  0  0  3  0  0  0  0  0  0
  -28.6510  -13.0600   20.9430 C   0  0  0  0  0  2  0  0  0  0  0  0
  -29.9620  -13.3830   20.3580 N   0  0  0  0  0  0  0  0  0  0  0  0
  -31.7870  -14.7050   20.0620 O   0  0  0  0  0  0  0  0  0  0  0  0
  -29.9370  -15.6350   20.9550 N   0  0  0  0  0  0  0  0  0  0  0  0
  -28.9810  -15.4420   21.2140 H   0  0  0  0  0  0  0  0  0  0  0  0
  -25.1940  -13.8240   20.5520 C   0  0  0  0  0  0  0  0  0  0  0  0
  -24.1280  -13.0490   20.9240 C   0  0  0  0  0  0  0  0  0  0  0  0
  -24.5920  -11.6980   20.8930 C   0  0  0  0  0  0  0  0  0  0  0  0
  -26.2400  -12.9450   20.3190 N   0  0  0  0  0  0  0  0  0  0  0  0
  -25.8830  -11.6620   20.5850 N   0  0  0  0  0  0  0  0  0  0  0  0
  -23.8680  -10.4360   21.0840 C   0  0  0  0  0  0  0  0  0  0  0  0
  -24.3160   -9.4580   22.0010 C   0  0  0  0  0  3  0  0  0  0  0  0
  -23.5910   -8.2600   22.1810 C   0  0  0  0  0  3  0  0  0  0  0  0
  -22.4050   -8.0300   21.4440 C   0  0  0  0  0  0  0  0  0  0  0  0
  -21.9760   -8.9950   20.5160 C   0  0  0  0  0  3  0  0  0  0  0  0
  -22.7010  -10.1850   20.3340 C   0  0  0  0  0  3  0  0  0  0  0  0
  -21.6510   -6.8850   21.5340 O   0  0  0  0  0  0  0  0  0  0  0  0
  -21.6350   -6.1220   22.6740 C   0  0  0  0  0  0  0  0  0  0  0  0
  -21.2520   -6.6570   23.9240 C   0  0  0  0  0  3  0  0  0  0  0  0
  -21.1830   -5.8200   25.0560 C   0  0  0  0  0  3  0  0  0  0  0  0
  -21.4850   -4.4500   24.9390 C   0  0  0  0  0  0  0  0  0  0  0  0
  -21.8600   -3.9140   23.6950 C   0  0  0  0  0  3  0  0  0  0  0  0
  -21.9310   -4.7480   22.5650 C   0  0  0  0  0  0  0  0  0  0  0  0
  -22.2730   -4.2230   21.3640 F   0  0  0  0  0  0  0  0  0  0  0  0
  -21.4100   -3.6450   26.0260 F   0  0  0  0  0  0  0  0  0  0  0  0
  -22.7300  -13.5240   21.1960 C   0  0  0  0  0  0  0  0  0  0  0  0
  -22.0040  -12.8270   22.0630 N   0  0  0  0  0  0  0  0  0  0  0  0
  -22.2900  -14.5490   20.6770 O   0  0  0  0  0  0  0  0  0  0  0  0
  -22.3720  -11.9980   22.5050 H   0  0  0  0  0  0  0  0  0  0  0  0
  -21.0660  -13.1270   22.2890 H   0  0  0  0  0  0  0  0  0  0  0  0
  -25.3560  -15.1940   20.3700 N   0  0  0  0  0  0  0  0  0  0  0  0
  -24.5850  -15.8470   20.4720 H   0  0  0  0  0  0  0  0  0  0  0  0
  -26.1990  -15.6310   20.0210 H   0  0  0  0  0  0  0  0  0  0  0  0
  -27.9510  -25.0520   19.7830 C   0  0  0  0  0  2  0  0  0  0  0  0
  -28.2670  -26.4280   20.2220 O   0  0  0  0  0  0  0  0  0  0  0  0
  -24.6000  -31.8760   23.2520 C   0  0  0  0  0  0  0  0  0  0  0  0
  -27.1720  -27.3170   20.1620 C   0  0  0  0  0  0  0  0  0  0  0  0
  -23.3830  -30.4890   21.6180 C   0  0  0  0  0  3  0  0  0  0  0  0
  -24.8180  -28.9510   20.1790 C   0  0  0  0  0  0  0  0  0  0  0  0
  -25.9260  -30.7940   21.4270 C   0  0  0  0  0  2  0  0  0  0  0  0
  -25.9950  -29.4200   20.7760 C   0  0  0  0  0  0  0  0  0  0  0  0
  -27.1740  -28.6120   20.7680 C   0  0  0  0  0  3  0  0  0  0  0  0
  -25.9650  -26.9270   19.5210 C   0  0  0  0  0  3  0  0  0  0  0  0
  -24.8040  -27.7090   19.5450 C   0  0  0  0  0  3  0  0  0  0  0  0
  -23.5860  -29.8280   20.2340 C   0  0  0  0  0  2  0  0  0  0  0  0
  -24.6560  -31.0680   22.1550 N   0  0  0  0  0  0  0  0  0  0  0  0
  -23.5210  -32.1590   23.7910 O   0  0  0  0  0  0  0  0  0  0  0  0
  -22.7220  -29.4660   22.5740 C   0  0  0  0  0  0  0  0  0  0  0  0
  -21.3940  -29.2940   22.4510 N   0  0  0  0  0  0  0  0  0  0  0  0
  -23.4010  -28.8350   23.3870 O   0  0  0  0  0  0  0  0  0  0  0  0
  -20.9060  -29.8570   21.7690 H   0  0  0  0  0  0  0  0  0  0  0  0
  -18.0120  -28.1180   22.9620 C   0  0  0  0  0  0  0  0  0  0  0  0
  -20.5730  -28.3620   23.2250 C   0  0  0  0  0  3  0  0  0  0  0  0
  -20.6640  -26.9290   22.6500 C   0  0  0  0  0  2  0  0  0  0  0  0
  -19.5570  -26.6110   21.6400 C   0  0  0  0  0  2  0  0  0  0  0  0
  -18.1780  -26.7670   22.2890 C   0  0  0  0  0  2  0  0  0  0  0  0
  -19.1360  -28.8730   23.3880 C   0  0  0  0  0  0  0  0  0  0  0  0
  -18.9270  -30.1380   23.9780 C   0  0  0  0  0  3  0  0  0  0  0  0
  -17.6250  -30.6490   24.1470 C   0  0  0  0  0  3  0  0  0  0  0  0
  -16.5160  -29.8890   23.7370 C   0  0  0  0  0  3  0  0  0  0  0  0
  -16.7100  -28.6260   23.1500 C   0  0  0  0  0  3  0  0  0  0  0  0
  -25.8910  -32.5000   23.8670 C   0  0  0  0  0  3  0  0  0  0  0  0
  -26.4080  -31.7250   25.1390 C   0  0  1  0  0  0  0  0  0  0  0  0
  -25.3180  -31.4920   26.2120 C   0  0  0  0  0  1  0  0  0  0  0  0
  -26.9820  -30.3440   24.7440 C   0  0  0  0  0  1  0  0  0  0  0  0
  -27.5650  -32.5120   25.7970 C   0  0  0  0  0  1  0  0  0  0  0  0
  -25.5890  -33.9000   24.2000 N   0  0  0  0  0  0  0  0  0  0  0  0
  -25.9140  -34.9510   23.4350 C   0  0  0  0  0  0  0  0  0  0  0  0
  -26.5710  -34.8440   22.3960 O   0  0  0  0  0  0  0  0  0  0  0  0
  -25.0080  -34.0570   25.0100 H   0  0  0  0  0  0  0  0  0  0  0  0
  -24.1850  -36.7460   23.0990 C   0  0  0  0  0  1  0  0  0  0  0  0
  -25.4350  -36.3410   23.8960 C   0  0  0  0  0  3  0  0  0  0  0  0
  -27.5830  -37.2210   24.6970 C   0  0  0  0  0  1  0  0  0  0  0  0
  -26.4680  -37.3910   23.7690 N   0  0  0  0  0  0  0  0  0  0  0  0
  -26.0670  -38.3120   23.9220 H   0  0  0  0  0  0  0  0  0  0  0  0
  1  2  1  0
  2  3  2  0
  3  7  1  0
  4  6  2  0
  5  1  2  0
  5  4  1  0
  6  3  1  0
  6  9  1  0
  8  5  1  0
 10 12  1  0
 10 11  1  0
 11  2  1  0
 12 11  1  0
 12 13  1  0
 14 22  1  0
 15 20  1  0
 16 17  1  0
 16 15  1  0
 18 17  1  0
 18 27  1  0
 18 19  1  0
 20 14  1  0
 20 19  1  0
 21 14  2  0
 22 23  1  0
 22 13  1  0
 24 25  2  0
 25 44  1  0
 26 25  1  0
 26 29  1  0
 27 24  1  0
 27 28  1  0
 28 26  2  0
 29 30  1  0
 30 31  2  0
 32 35  1  0
 32 31  1  0
 33 32  2  0
 34 33  1  0
 34 29  2  0
 35 36  1  0
 36 37  1  0
 37 38  2  0
 39 38  1  0
 39 43  1  0
 40 39  2  0
 41 36  2  0
 41 40  1  0
 42 41  1  0
 44 45  1  0
 45 48  1  0
 45 47  1  0
 46 44  2  0
 49 50  1  0
 49 24  1  0
 51 49  1  0
 52  4  1  0
 52 53  1  0
 54 65  2  0
 55 53  1  0
 55 60  1  0
 56 64  1  0
 56 66  1  0
 57 63  1  0
 57 59  1  0
 58 64  1  0
 59 58  1  0
 60 59  2  0
 61 62  1  0
 61 55  2  0
 62 57  2  0
 63 56  1  0
 64 54  1  0
 66 68  2  0
 67 66  1  0
 69 67  1  0
 70 79  2  0
 70 75  1  0
 71 67  1  0
 71 75  1  0
 72 71  1  0
 73 74  1  0
 73 72  1  0
 74 70  1  0
 75 76  2  0
 76 77  1  0
 78 77  2  0
 79 78  1  0
 80 54  1  0
 80 85  1  0
 80 81  1  0
 81 84  1  1
 81 82  1  0
 83 81  1  0
 85 88  1  0
 86 90  1  0
 86 85  1  0
 87 86  2  0
 90 89  1  0
 92 90  1  0
 92 93  1  0
 92 91  1  0
M  ISO  4  14 100  22 100  52 101  53 101
M  END
>  <TORSDO>  (58) 
F 19

>  <SCORE>  (58) 
-14.552

>  <name>  (58) 
57

>  <ligand_id>  (58) 
57

>  <original_smiles>  (58) 
[H]c1c([H])c([H])c2c(c1[H])C([H])([H])C([H])([H])C([H])([H])C2([H])N([H])C(=O)C1([H])N(C(=O)C([H])(N([H])C(=O)C([H])(N([H])C([H])([H])[H])C([H])([H])[H])C(C([H])([H])[H])(C([H])([H])[H])C([H])([H])[H])C([H])([H])c2c([H])c(OC([H])([H])c3c(F)c([H])c(C4([H])C([H])([H])C4([H])C([H])([H])N([H])C(=O)N4C([H])([H])C([H])([H])C([H])([H])C([H])(n5nc(-c6c([H])c([H])c(Oc7c([H])c([H])c(F)c([H])c7F)c([H])c6[H])c(C(=O)N([H])[H])c5N([H])[H])C4([H])[H])c(C([H])([H])[H])c3F)c([H])c([H])c2C1([H])[H]

>  <smiles>  (58) 
[H]c1c([H])c([H])c2c(c1[H])C([H])([H])C([H])([H])C([H])([H])C2([H])N([H])C(=O)C1([H])N(C(=O)C([H])(N([H])C(=O)C([H])(N([H])C([H])([H])[H])C([H])([H])[H])C(C([H])([H])[H])(C([H])([H])[H])C([H])([H])[H])C([H])([H])c2c([H])c(OC([H])([H])c3c(F)c([H])c(C4([H])C([H])([H])C4([H])C([H])([H])N([H])C(=O)N4C([H])([H])C([H])([H])C([H])([H])C([H])(n5nc(-c6c([H])c([H])c(Oc7c([H])c([H])c(F)c([H])c7F)c([H])c6[H])c(C(=O)N([H])[H])c5N([H])[H])C4([H])[H])c(C([H])([H])[H])c3F)c([H])c([H])c2C1([H])[H]

$$$$
58:0:0
     RDKit          3D

102111  0  0  1  0  0  0  0  0999 V2000
  -25.3770  -27.9900   22.8510 C   0  0  0  0  0  2  0  0  0  0  0  0
  -24.6890  -27.9130   21.6110 C   0  0  0  0  0  2  0  0  0  0  0  0
  -24.9320  -26.3560   21.6930 C   0  0  0  0  0  3  0  0  0  0  0  0
  -26.0730  -25.8440   22.3580 C   0  0  0  0  0  3  0  0  0  0  0  0
  -26.1320  -26.8560   23.3220 N   0  0  0  0  0  0  0  0  0  0  0  0
  -23.9450  -25.0440   21.0870 Cl  0  0  0  0  0  0  0  0  0  0  0  0
  -26.8120  -28.0600   25.4510 C   0  0  0  0  0  1  0  0  0  0  0  0
  -28.0480  -26.0360   24.7950 C   0  0  0  0  0  1  0  0  0  0  0  0
  -25.6330  -25.8670   25.5030 C   0  0  0  0  0  1  0  0  0  0  0  0
  -26.6560  -26.7110   24.7160 C   0  0  2  0  0  0  0  0  0  0  0  0
  -22.5810  -29.8620   18.4930 C   0  0  0  0  0  2  0  0  0  0  0  0
  -23.9680  -31.4460   19.3430 C   0  0  0  0  0  1  0  0  0  0  0  0
  -24.0150  -29.7990   19.3070 C   0  0  2  0  0  0  0  0  0  0  0  0
  -24.8800  -29.7150   17.7230 C   0  0  0  0  0  1  0  0  0  0  0  0
  -26.4020  -29.2030   17.2120 C   0  0  0  0  0  2  0  0  0  0  0  0
  -27.4930  -27.9450   17.2260 C   0  0  0  0  0  2  0  0  0  0  0  0
  -27.9300  -27.1130   18.4290 O   0  0  0  0  0  0  0  0  0  0  0  0
  -24.4380  -31.7210   22.7970 C   0  0  0  0  0  0  0  0  0  0  0  0
  -26.9200  -26.9410   19.2720 C   0  0  0  0  0  3  0  0  0  0  0  0
  -22.8660  -30.0900   21.4030 C   0  0  0  0  0  3  0  0  0  0  0  0
  -24.4660  -28.1520   19.3420 C   0  0  2  0  0  0  0  0  0  0  0  0
  -25.9250  -30.1240   21.2160 C   0  0  0  0  0  2  0  0  0  0  0  0
  -25.8930  -28.7710   20.0070 C   0  0  0  0  0  3  0  0  0  0  0  0
  -26.9850  -28.0110   20.1130 C   0  0  0  0  0  2  0  0  0  0  0  0
  -25.7640  -26.3350   18.7290 C   0  0  0  0  0  2  0  0  0  0  0  0
  -24.5220  -26.9670   18.6930 C   0  0  0  0  0  2  0  0  0  0  0  0
  -22.8000  -28.7320   20.0270 C   0  0  1  0  0  0  0  0  0  0  0  0
  -24.4290  -30.6750   21.9370 N   0  0  0  0  0  0  0  0  0  0  0  0
  -23.3930  -32.1590   23.2930 O   0  0  0  0  0  0  0  0  0  0  0  0
  -22.1610  -29.4920   22.6030 C   0  0  0  0  0  0  0  0  0  0  0  0
  -20.9120  -29.1290   22.4350 N   0  0  0  0  0  0  0  0  0  0  0  0
  -22.7820  -29.1900   23.6170 O   0  0  0  0  0  0  0  0  0  0  0  0
  -20.4170  -29.3550   21.5840 H   0  0  0  0  0  0  0  0  0  0  0  0
  -17.8240  -27.6830   23.1080 C   0  0  0  0  0  0  0  0  0  0  0  0
  -20.2710  -28.2690   23.3960 C   0  0  0  0  0  3  0  0  0  0  0  0
  -20.5910  -26.8020   23.0920 C   0  0  0  0  0  2  0  0  0  0  0  0
  -19.6170  -26.1910   22.0880 C   0  0  0  0  0  2  0  0  0  0  0  0
  -18.1930  -26.2800   22.6480 C   0  0  0  0  0  2  0  0  0  0  0  0
  -18.8150  -28.6280   23.4460 C   0  0  0  0  0  0  0  0  0  0  0  0
  -18.4650  -29.9450   23.8090 C   0  0  0  0  0  3  0  0  0  0  0  0
  -17.1130  -30.3210   23.8590 C   0  0  0  0  0  3  0  0  0  0  0  0
  -16.1180  -29.3730   23.5600 C   0  0  0  0  0  3  0  0  0  0  0  0
  -16.4720  -28.0640   23.1860 C   0  0  0  0  0  3  0  0  0  0  0  0
  -25.7730  -32.4350   23.1350 C   0  0  0  0  0  3  0  0  0  0  0  0
  -25.4290  -33.7570   23.6860 N   0  0  0  0  0  0  0  0  0  0  0  0
  -25.8010  -34.9420   23.1850 C   0  0  0  0  0  0  0  0  0  0  0  0
  -26.5320  -35.0530   22.1980 O   0  0  0  0  0  0  0  0  0  0  0  0
  -24.7780  -33.7560   24.4560 H   0  0  0  0  0  0  0  0  0  0  0  0
  -24.0970  -36.8040   23.1440 C   0  0  0  0  0  1  0  0  0  0  0  0
  -25.2870  -36.2040   23.9110 C   0  0  0  0  0  3  0  0  0  0  0  0
  -27.3630  -36.8520   25.0600 C   0  0  0  0  0  1  0  0  0  0  0  0
  -26.3260  -37.2370   24.1060 N   0  0  0  0  0  0  0  0  0  0  0  0
  -25.9120  -38.1130   24.4180 H   0  0  0  0  0  0  0  0  0  0  0  0
  -26.6740  -31.6330   24.1530 C   0  0  1  0  0  0  0  0  0  0  0  0
  -25.8560  -30.7160   25.0910 C   0  0  0  0  0  1  0  0  0  0  0  0
  -27.7910  -30.8030   23.5000 C   0  0  0  0  0  1  0  0  0  0  0  0
  -27.5010  -32.6160   25.0040 C   0  0  0  0  0  1  0  0  0  0  0  0
  -26.6240  -24.4130   22.4820 N   0  0  0  0  0  0  0  0  0  0  0  0
  -26.8750  -24.2860   23.4570 H   0  0  0  0  0  0  0  0  0  0  0  0
  -27.5630  -23.5050   21.5680 C   0  0  0  0  0  3  0  0  0  0  0  0
  -27.9180  -21.8110   21.8410 C   0  0  0  0  0  3  0  0  0  0  0  0
  -28.6950  -20.6040   20.8400 C   0  0  0  0  0  2  0  0  0  0  0  0
  -28.7450  -18.8520   20.9500 C   0  0  0  0  0  3  0  0  0  0  0  0
  -29.7510  -17.6740   20.1250 C   0  0  0  0  0  3  0  0  0  0  0  0
  -30.6630  -14.9470   19.9050 C   0  0  0  0  0  0  0  0  0  0  0  0
  -30.6800  -12.5490   18.9580 C   0  0  0  0  0  2  0  0  0  0  0  0
  -29.6890  -12.4520   17.7680 C   0  0  0  0  0  2  0  0  0  0  0  0
  -28.2360  -12.2520   18.2470 C   0  0  0  0  0  2  0  0  0  0  0  0
  -27.8930  -13.1700   19.4450 C   0  0  0  0  0  3  0  0  0  0  0  0
  -28.9790  -13.1520   20.5340 C   0  0  0  0  0  2  0  0  0  0  0  0
  -30.1960  -13.6290   19.8840 N   0  0  0  0  0  0  0  0  0  0  0  0
  -31.8220  -15.0940   19.4770 O   0  0  0  0  0  0  0  0  0  0  0  0
  -29.7760  -16.0490   20.2450 N   0  0  0  0  0  0  0  0  0  0  0  0
  -28.8950  -15.6860   20.5780 H   0  0  0  0  0  0  0  0  0  0  0  0
  -25.5920  -13.7910   20.3490 C   0  0  0  0  0  0  0  0  0  0  0  0
  -24.5370  -13.0320   20.7710 C   0  0  0  0  0  0  0  0  0  0  0  0
  -24.9580  -11.6690   20.6640 C   0  0  0  0  0  0  0  0  0  0  0  0
  -26.5840  -12.8920   20.0070 N   0  0  0  0  0  0  0  0  0  0  0  0
  -26.2200  -11.6080   20.2560 N   0  0  0  0  0  0  0  0  0  0  0  0
  -24.2080  -10.4230   20.8610 C   0  0  0  0  0  0  0  0  0  0  0  0
  -24.6070   -9.4660   21.8200 C   0  0  0  0  0  3  0  0  0  0  0  0
  -23.8590   -8.2820   22.0040 C   0  0  0  0  0  3  0  0  0  0  0  0
  -22.6980   -8.0490   21.2280 C   0  0  0  0  0  0  0  0  0  0  0  0
  -22.3220   -8.9930   20.2550 C   0  0  0  0  0  3  0  0  0  0  0  0
  -23.0720  -10.1670   20.0700 C   0  0  0  0  0  3  0  0  0  0  0  0
  -21.9240   -6.9190   21.3220 O   0  0  0  0  0  0  0  0  0  0  0  0
  -21.7260   -6.2800   22.5210 C   0  0  0  0  0  0  0  0  0  0  0  0
  -21.1190   -6.9280   23.6180 C   0  0  0  0  0  3  0  0  0  0  0  0
  -20.8650   -6.2140   24.8060 C   0  0  0  0  0  3  0  0  0  0  0  0
  -21.2150   -4.8530   24.8960 C   0  0  0  0  0  0  0  0  0  0  0  0
  -21.8150   -4.2040   23.8020 C   0  0  0  0  0  3  0  0  0  0  0  0
  -22.0670   -4.9170   22.6170 C   0  0  0  0  0  0  0  0  0  0  0  0
  -22.6260   -4.2840   21.5570 F   0  0  0  0  0  0  0  0  0  0  0  0
  -20.9690   -4.1620   26.0330 F   0  0  0  0  0  0  0  0  0  0  0  0
  -23.1770  -13.5370   21.1540 C   0  0  0  0  0  0  0  0  0  0  0  0
  -22.5240  -12.8620   22.0940 N   0  0  0  0  0  0  0  0  0  0  0  0
  -22.7090  -14.5620   20.6580 O   0  0  0  0  0  0  0  0  0  0  0  0
  -22.9220  -12.0340   22.5120 H   0  0  0  0  0  0  0  0  0  0  0  0
  -21.6120  -13.1720   22.3990 H   0  0  0  0  0  0  0  0  0  0  0  0
  -25.7820  -15.1620   20.1940 N   0  0  0  0  0  0  0  0  0  0  0  0
  -25.0200  -15.8150   20.3220 H   0  0  0  0  0  0  0  0  0  0  0  0
  -26.5480  -15.5630   19.6670 H   0  0  0  0  0  0  0  0  0  0  0  0
  1  5  1  0
  2  3  1  0
  2  1  1  0
  3  6  1  0
  3  4  1  0
  4 58  1  0
  4  5  1  0
  5 10  1  0
 10  8  1  6
 10  7  1  0
 10  9  1  0
 11 13  1  0
 13 21  1  0
 13 12  1  1
 13 27  1  0
 15 16  1  0
 15 14  1  0
 16 17  1  0
 18 29  2  0
 19 17  1  0
 19 24  1  0
 20 28  1  0
 20 30  1  0
 21 26  1  6
 21 23  1  0
 21 27  1  0
 22 28  1  0
 23 24  1  0
 23 22  1  0
 25 19  1  0
 26 25  1  0
 27 11  1  6
 27 20  1  0
 28 18  1  0
 30 32  2  0
 31 30  1  0
 33 31  1  0
 34 43  2  0
 34 39  1  0
 35 31  1  0
 35 39  1  0
 36 35  1  0
 37 38  1  0
 37 36  1  0
 38 34  1  0
 39 40  2  0
 40 41  1  0
 42 41  2  0
 43 42  1  0
 44 18  1  0
 44 45  1  0
 44 54  1  0
 45 48  1  0
 46 45  1  0
 46 50  1  0
 47 46  2  0
 50 49  1  0
 50 52  1  0
 52 53  1  0
 52 51  1  0
 54 57  1  1
 54 55  1  0
 56 54  1  0
 58 59  1  0
 60 61  2  0
 60 58  1  0
 62 63  1  0
 62 61  1  0
 64 73  1  0
 64 63  2  0
 65 73  1  0
 66 71  1  0
 67 68  1  0
 67 66  1  0
 69 68  1  0
 69 78  1  0
 69 70  1  0
 71 65  1  0
 71 70  1  0
 72 65  2  0
 73 74  1  0
 75 76  2  0
 76 95  1  0
 77 76  1  0
 77 80  1  0
 78 79  1  0
 78 75  1  0
 79 77  2  0
 80 81  1  0
 81 82  2  0
 83 86  1  0
 83 82  1  0
 84 83  2  0
 85 84  1  0
 85 80  2  0
 86 87  1  0
 87 92  2  0
 87 88  1  0
 88 89  2  0
 89 90  1  0
 90 94  1  0
 91 90  2  0
 92 91  1  0
 93 92  1  0
 95 96  1  0
 96 99  1  0
 96 98  1  0
 97 95  2  0
100101  1  0
100 75  1  0
102100  1  0
M  ISO  4  16 101  17 101  65 100  73 100
M  END
>  <TORSDO>  (59) 
F 27

>  <SCORE>  (59) 
-11.051

>  <name>  (59) 
58

>  <ligand_id>  (59) 
58

>  <original_smiles>  (59) 
[H]c1c([H])c([H])c2c(c1[H])C([H])([H])C([H])([H])C([H])([H])C2([H])N([H])C(=O)C1([H])N(C(=O)C([H])(N([H])C(=O)C([H])(N([H])C([H])([H])[H])C([H])([H])[H])C(C([H])([H])[H])(C([H])([H])[H])C([H])([H])[H])C([H])([H])c2c([H])c(OC([H])([H])C([H])([H])C([H])([H])C(c3c(Cl)c(N([H])C([H])([H])C([H])([H])C([H])([H])C([H])([H])C([H])([H])N([H])C(=O)N4C([H])([H])C([H])([H])C([H])([H])C([H])(n5nc(-c6c([H])c([H])c(Oc7c([H])c([H])c(F)c([H])c7F)c([H])c6[H])c(C(=O)N([H])[H])c5N([H])[H])C4([H])[H])n(C(C([H])([H])[H])(C([H])([H])[H])C([H])([H])[H])c3[H])(C([H])([H])[H])C([H])([H])[H])c([H])c([H])c2C1([H])[H]

>  <smiles>  (59) 
[H]c1c([H])c([H])c2c(c1[H])C([H])([H])C([H])([H])C([H])([H])C2([H])N([H])C(=O)C1([H])N(C(=O)C([H])(N([H])C(=O)C([H])(N([H])C([H])([H])[H])C([H])([H])[H])C(C([H])([H])[H])(C([H])([H])[H])C([H])([H])[H])C([H])([H])c2c([H])c(OC([H])([H])C([H])([H])C([H])([H])C(c3c(Cl)c(N([H])C([H])([H])C([H])([H])C([H])([H])C([H])([H])C([H])([H])N([H])C(=O)N4C([H])([H])C([H])([H])C([H])([H])C([H])(n5nc(-c6c([H])c([H])c(Oc7c([H])c([H])c(F)c([H])c7F)c([H])c6[H])c(C(=O)N([H])[H])c5N([H])[H])C4([H])[H])n(C(C([H])([H])[H])(C([H])([H])[H])C([H])([H])[H])c3[H])(C([H])([H])[H])C([H])([H])[H])c([H])c([H])c2C1([H])[H]

$$$$
59:0:0
     RDKit          3D

 89 97  0  0  1  0  0  0  0  0999 V2000
  -29.5150  -19.7930   21.2500 C   0  0  0  0  0  3  0  0  0  0  0  0
  -29.1740  -21.2930   21.2730 C   0  0  0  0  0  0  0  0  0  0  0  0
  -28.5840  -22.1760   20.2190 C   0  0  0  0  0  0  0  0  0  0  0  0
  -28.4530  -21.1340   19.1490 C   0  0  0  0  0  0  0  0  0  0  0  0
  -29.3640  -18.7450   20.2000 C   0  0  0  0  0  0  0  0  0  0  0  0
  -28.7750  -19.6250   19.1520 C   0  0  0  0  0  0  0  0  0  0  0  0
  -29.4230  -21.9890   22.5970 C   0  0  0  0  0  1  0  0  0  0  0  0
  -27.8520  -21.6610   17.8500 C   0  0  0  0  0  1  0  0  0  0  0  0
  -28.3380  -18.7340   17.7330 Cl  0  0  0  0  0  0  0  0  0  0  0  0
  -30.2670  -15.7150   20.1360 C   0  0  0  0  0  0  0  0  0  0  0  0
  -30.3680  -13.1840   19.2900 C   0  0  0  0  0  2  0  0  0  0  0  0
  -29.4420  -12.8080   18.0990 C   0  0  0  0  0  2  0  0  0  0  0  0
  -28.0280  -12.4530   18.5860 C   0  0  0  0  0  2  0  0  0  0  0  0
  -27.5480  -13.4290   19.6850 C   0  0  0  0  0  3  0  0  0  0  0  0
  -28.6140  -13.7140   20.7700 C   0  0  0  0  0  2  0  0  0  0  0  0
  -29.7660  -14.3440   20.0860 N   0  0  0  0  0  0  0  0  0  0  0  0
  -31.4940  -15.6910   19.9190 O   0  0  0  0  0  0  0  0  0  0  0  0
  -29.4430  -17.0240   20.2500 N   0  0  0  0  0  0  0  0  0  0  0  0
  -28.4930  -16.6930   20.3320 H   0  0  0  0  0  0  0  0  0  0  0  0
  -25.2070  -13.9290   20.5370 C   0  0  0  0  0  0  0  0  0  0  0  0
  -24.1660  -13.1330   20.9230 C   0  0  0  0  0  0  0  0  0  0  0  0
  -24.6450  -11.7890   20.8490 C   0  0  0  0  0  0  0  0  0  0  0  0
  -26.2500  -13.0710   20.2400 N   0  0  0  0  0  0  0  0  0  0  0  0
  -25.9280  -11.7750   20.4960 N   0  0  0  0  0  0  0  0  0  0  0  0
  -23.9320  -10.5180   21.0360 C   0  0  0  0  0  0  0  0  0  0  0  0
  -24.3810   -9.5430   21.9540 C   0  0  0  0  0  3  0  0  0  0  0  0
  -23.6630   -8.3400   22.1310 C   0  0  0  0  0  3  0  0  0  0  0  0
  -22.4810   -8.1030   21.3900 C   0  0  0  0  0  0  0  0  0  0  0  0
  -22.0500   -9.0660   20.4610 C   0  0  0  0  0  3  0  0  0  0  0  0
  -22.7680  -10.2600   20.2830 C   0  0  0  0  0  3  0  0  0  0  0  0
  -21.7330   -6.9520   21.4770 O   0  0  0  0  0  0  0  0  0  0  0  0
  -21.6860   -6.2110   22.6300 C   0  0  0  0  0  0  0  0  0  0  0  0
  -21.2220   -6.7560   23.8480 C   0  0  0  0  0  3  0  0  0  0  0  0
  -21.1240   -5.9380   24.9930 C   0  0  0  0  0  3  0  0  0  0  0  0
  -21.4790   -4.5790   24.9210 C   0  0  0  0  0  0  0  0  0  0  0  0
  -21.9360   -4.0330   23.7070 C   0  0  0  0  0  3  0  0  0  0  0  0
  -22.0360   -4.8470   22.5650 C   0  0  0  0  0  0  0  0  0  0  0  0
  -22.4570   -4.3110   21.3940 F   0  0  0  0  0  0  0  0  0  0  0  0
  -21.3780   -3.7910   26.0180 F   0  0  0  0  0  0  0  0  0  0  0  0
  -22.7740  -13.5950   21.2370 C   0  0  0  0  0  0  0  0  0  0  0  0
  -22.0740  -12.8850   22.1140 N   0  0  0  0  0  0  0  0  0  0  0  0
  -22.3170  -14.6230   20.7400 O   0  0  0  0  0  0  0  0  0  0  0  0
  -22.4570  -12.0550   22.5400 H   0  0  0  0  0  0  0  0  0  0  0  0
  -21.1400  -13.1790   22.3630 H   0  0  0  0  0  0  0  0  0  0  0  0
  -25.3470  -15.3050   20.3790 N   0  0  0  0  0  0  0  0  0  0  0  0
  -24.5670  -15.9380   20.5160 H   0  0  0  0  0  0  0  0  0  0  0  0
  -26.1550  -15.7540   19.9710 H   0  0  0  0  0  0  0  0  0  0  0  0
  -27.8100  -23.8860   20.2910 C   0  0  0  0  0  2  0  0  0  0  0  0
  -28.1380  -25.6030   20.3470 O   0  0  0  0  0  0  0  0  0  0  0  0
  -24.6690  -31.9180   23.2670 C   0  0  0  0  0  0  0  0  0  0  0  0
  -27.1790  -26.8240   20.3020 C   0  0  0  0  0  0  0  0  0  0  0  0
  -23.4750  -30.5180   21.6370 C   0  0  0  0  0  3  0  0  0  0  0  0
  -24.9170  -28.8610   20.2340 C   0  0  0  0  0  0  0  0  0  0  0  0
  -26.0550  -30.6520   21.5160 C   0  0  0  0  0  2  0  0  0  0  0  0
  -26.1150  -29.2170   20.8660 C   0  0  0  0  0  0  0  0  0  0  0  0
  -27.2320  -28.2280   20.8660 C   0  0  0  0  0  3  0  0  0  0  0  0
  -25.9460  -26.6770   19.6160 C   0  0  0  0  0  3  0  0  0  0  0  0
  -24.8710  -27.6150   19.5850 C   0  0  0  0  0  3  0  0  0  0  0  0
  -23.7130  -29.8140   20.2710 C   0  0  0  0  0  2  0  0  0  0  0  0
  -24.7570  -31.0630   22.1930 N   0  0  0  0  0  0  0  0  0  0  0  0
  -23.5770  -32.2270   23.7740 O   0  0  0  0  0  0  0  0  0  0  0  0
  -22.7540  -29.5490   22.6130 C   0  0  0  0  0  0  0  0  0  0  0  0
  -21.4230  -29.3890   22.4770 N   0  0  0  0  0  0  0  0  0  0  0  0
  -23.4040  -28.9370   23.4640 O   0  0  0  0  0  0  0  0  0  0  0  0
  -20.9500  -29.9340   21.7680 H   0  0  0  0  0  0  0  0  0  0  0  0
  -18.0350  -28.1690   22.9670 C   0  0  0  0  0  0  0  0  0  0  0  0
  -20.5910  -28.4600   23.2520 C   0  0  0  0  0  3  0  0  0  0  0  0
  -20.7080  -27.0200   22.7010 C   0  0  0  0  0  2  0  0  0  0  0  0
  -19.6190  -26.6740   21.6800 C   0  0  0  0  0  2  0  0  0  0  0  0
  -18.2290  -26.8150   22.3060 C   0  0  0  0  0  2  0  0  0  0  0  0
  -19.1420  -28.9490   23.3970 C   0  0  0  0  0  0  0  0  0  0  0  0
  -18.9040  -30.2110   23.9790 C   0  0  0  0  0  3  0  0  0  0  0  0
  -17.5910  -30.6970   24.1340 C   0  0  0  0  0  3  0  0  0  0  0  0
  -16.4990  -29.9180   23.7170 C   0  0  0  0  0  3  0  0  0  0  0  0
  -16.7220  -28.6550   23.1400 C   0  0  0  0  0  3  0  0  0  0  0  0
  -25.9350  -32.5660   23.9070 C   0  0  0  0  0  3  0  0  0  0  0  0
  -25.6210  -33.9730   24.2260 N   0  0  0  0  0  0  0  0  0  0  0  0
  -25.9410  -35.0270   23.4630 C   0  0  0  0  0  0  0  0  0  0  0  0
  -26.5870  -34.9180   22.4180 O   0  0  0  0  0  0  0  0  0  0  0  0
  -25.0410  -34.1310   25.0370 H   0  0  0  0  0  0  0  0  0  0  0  0
  -24.1990  -36.8260   23.1690 C   0  0  0  0  0  1  0  0  0  0  0  0
  -25.4730  -36.4230   23.9290 C   0  0  0  0  0  3  0  0  0  0  0  0
  -27.6360  -37.3270   24.6680 C   0  0  0  0  0  1  0  0  0  0  0  0
  -26.5000  -37.4760   23.7620 N   0  0  0  0  0  0  0  0  0  0  0  0
  -26.0980  -38.3990   23.9060 H   0  0  0  0  0  0  0  0  0  0  0  0
  -26.4180  -31.8180   25.2120 C   0  0  1  0  0  0  0  0  0  0  0  0
  -25.3030  -31.6150   26.2660 C   0  0  0  0  0  1  0  0  0  0  0  0
  -26.9950  -30.4250   24.8720 C   0  0  0  0  0  1  0  0  0  0  0  0
  -27.5650  -32.6150   25.8770 C   0  0  0  0  0  1  0  0  0  0  0  0
  1  2  1  0
  2  7  1  0
  3 48  1  0
  3  2  2  0
  4  6  2  0
  4  3  1  0
  5 18  1  0
  5  1  2  0
  6  5  1  0
  8  4  1  0
  9  6  1  0
 10 18  1  0
 11 16  1  0
 12 13  1  0
 12 11  1  0
 14 13  1  0
 14 23  1  0
 14 15  1  0
 16 10  1  0
 16 15  1  0
 17 10  2  0
 18 19  1  0
 20 21  2  0
 21 40  1  0
 22 21  1  0
 22 25  1  0
 23 24  1  0
 23 20  1  0
 24 22  2  0
 25 26  1  0
 26 27  2  0
 28 31  1  0
 28 27  1  0
 29 28  2  0
 30 29  1  0
 30 25  2  0
 31 32  1  0
 32 33  1  0
 33 34  2  0
 35 34  1  0
 35 39  1  0
 36 35  2  0
 37 32  2  0
 37 36  1  0
 38 37  1  0
 40 41  1  0
 41 44  1  0
 41 43  1  0
 42 40  2  0
 45 46  1  0
 45 20  1  0
 47 45  1  0
 48 49  1  0
 50 61  2  0
 51 49  1  0
 51 56  1  0
 52 60  1  0
 52 62  1  0
 53 59  1  0
 53 55  1  0
 54 60  1  0
 55 56  2  0
 55 54  1  0
 57 51  2  0
 58 57  1  0
 58 53  2  0
 59 52  1  0
 60 50  1  0
 62 64  2  0
 63 62  1  0
 65 63  1  0
 66 75  2  0
 66 71  1  0
 67 63  1  0
 67 71  1  0
 68 67  1  0
 69 70  1  0
 69 68  1  0
 70 66  1  0
 71 72  2  0
 72 73  1  0
 74 73  2  0
 75 74  1  0
 76 50  1  0
 76 77  1  0
 76 86  1  0
 77 80  1  0
 78 82  1  0
 78 77  1  0
 79 78  2  0
 82 81  1  0
 84 85  1  0
 84 82  1  0
 84 83  1  0
 86 89  1  1
 86 87  1  0
 88 86  1  0
M  ISO  4  10 100  18 100  48 101  49 101
M  END
>  <TORSDO>  (60) 
F 17

>  <SCORE>  (60) 
-16.867

>  <name>  (60) 
59

>  <ligand_id>  (60) 
59

>  <original_smiles>  (60) 
[H]c1c([H])c([H])c2c(c1[H])C([H])([H])C([H])([H])C([H])([H])C2([H])N([H])C(=O)C1([H])N(C(=O)C([H])(N([H])C(=O)C([H])(N([H])C([H])([H])[H])C([H])([H])[H])C(C([H])([H])[H])(C([H])([H])[H])C([H])([H])[H])C([H])([H])c2c([H])c(OC([H])([H])c3c(C([H])([H])[H])c([H])c(N([H])C(=O)N4C([H])([H])C([H])([H])C([H])([H])C([H])(n5nc(-c6c([H])c([H])c(Oc7c([H])c([H])c(F)c([H])c7F)c([H])c6[H])c(C(=O)N([H])[H])c5N([H])[H])C4([H])[H])c(Cl)c3C([H])([H])[H])c([H])c([H])c2C1([H])[H]

>  <smiles>  (60) 
[H]c1c([H])c([H])c2c(c1[H])C([H])([H])C([H])([H])C([H])([H])C2([H])N([H])C(=O)C1([H])N(C(=O)C([H])(N([H])C(=O)C([H])(N([H])C([H])([H])[H])C([H])([H])[H])C(C([H])([H])[H])(C([H])([H])[H])C([H])([H])[H])C([H])([H])c2c([H])c(OC([H])([H])c3c(C([H])([H])[H])c([H])c(N([H])C(=O)N4C([H])([H])C([H])([H])C([H])([H])C([H])(n5nc(-c6c([H])c([H])c(Oc7c([H])c([H])c(F)c([H])c7F)c([H])c6[H])c(C(=O)N([H])[H])c5N([H])[H])C4([H])[H])c(Cl)c3C([H])([H])[H])c([H])c([H])c2C1([H])[H]

$$$$
60:0:0
     RDKit          3D

 90 98  0  0  1  0  0  0  0  0999 V2000
  -29.9870  -18.5100   20.9190 C   0  0  0  0  0  0  0  0  0  0  0  0
  -30.1460  -17.9210   19.6220 C   0  0  0  0  0  0  0  0  0  0  0  0
  -29.7460  -19.8790   20.8050 C   0  0  0  0  0  0  0  0  0  0  0  0
  -29.9490  -19.0450   18.7580 C   0  0  0  0  0  0  0  0  0  0  0  0
  -30.0620  -17.7540   22.2240 C   0  0  0  0  0  1  0  0  0  0  0  0
  -29.5630  -20.8740   21.9100 C   0  0  0  0  0  1  0  0  0  0  0  0
  -29.9570  -19.0530   17.2660 C   0  0  0  0  0  1  0  0  0  0  0  0
  -29.7190  -20.3170   19.4730 N   0  0  0  0  0  0  0  0  0  0  0  0
  -31.0520  -15.2340   19.5180 C   0  0  0  0  0  0  0  0  0  0  0  0
  -30.9730  -12.7730   18.8220 C   0  0  0  0  0  2  0  0  0  0  0  0
  -29.9680  -12.5520   17.6660 C   0  0  0  0  0  2  0  0  0  0  0  0
  -28.5380  -12.3550   18.2090 C   0  0  0  0  0  2  0  0  0  0  0  0
  -28.1710  -13.4030   19.2920 C   0  0  0  0  0  3  0  0  0  0  0  0
  -29.2880  -13.5570   20.3440 C   0  0  0  0  0  2  0  0  0  0  0  0
  -30.5030  -13.9480   19.6140 N   0  0  0  0  0  0  0  0  0  0  0  0
  -32.2550  -15.2960   19.2360 O   0  0  0  0  0  0  0  0  0  0  0  0
  -30.1720  -16.3710   19.4400 N   0  0  0  0  0  0  0  0  0  0  0  0
  -29.2370  -16.0060   19.5220 H   0  0  0  0  0  0  0  0  0  0  0  0
  -25.8900  -14.0590   20.2460 C   0  0  0  0  0  0  0  0  0  0  0  0
  -24.8250  -13.3200   20.6810 C   0  0  0  0  0  0  0  0  0  0  0  0
  -25.2240  -11.9530   20.5790 C   0  0  0  0  0  0  0  0  0  0  0  0
  -26.8680  -13.1460   19.8970 N   0  0  0  0  0  0  0  0  0  0  0  0
  -26.4830  -11.8700   20.1620 N   0  0  0  0  0  0  0  0  0  0  0  0
  -24.4560  -10.7190   20.7920 C   0  0  0  0  0  0  0  0  0  0  0  0
  -24.8610   -9.7550   21.7420 C   0  0  0  0  0  3  0  0  0  0  0  0
  -24.0970   -8.5860   21.9440 C   0  0  0  0  0  3  0  0  0  0  0  0
  -22.9140   -8.3720   21.1980 C   0  0  0  0  0  0  0  0  0  0  0  0
  -22.5290   -9.3240   20.2370 C   0  0  0  0  0  3  0  0  0  0  0  0
  -23.2940  -10.4850   20.0330 C   0  0  0  0  0  3  0  0  0  0  0  0
  -22.1220   -7.2530   21.3090 O   0  0  0  0  0  0  0  0  0  0  0  0
  -21.9890   -6.5830   22.4990 C   0  0  0  0  0  0  0  0  0  0  0  0
  -21.4570   -7.2050   23.6500 C   0  0  0  0  0  3  0  0  0  0  0  0
  -21.2710   -6.4590   24.8300 C   0  0  0  0  0  3  0  0  0  0  0  0
  -21.6050   -5.0910   24.8600 C   0  0  0  0  0  0  0  0  0  0  0  0
  -22.1300   -4.4690   23.7140 C   0  0  0  0  0  3  0  0  0  0  0  0
  -22.3170   -5.2120   22.5360 C   0  0  0  0  0  0  0  0  0  0  0  0
  -22.8030   -4.6040   21.4270 F   0  0  0  0  0  0  0  0  0  0  0  0
  -21.4210   -4.3720   25.9920 F   0  0  0  0  0  0  0  0  0  0  0  0
  -23.4760  -13.8510   21.0720 C   0  0  0  0  0  0  0  0  0  0  0  0
  -22.7900  -13.1730   21.9860 N   0  0  0  0  0  0  0  0  0  0  0  0
  -23.0420  -14.9020   20.6020 O   0  0  0  0  0  0  0  0  0  0  0  0
  -23.1540  -12.3250   22.3940 H   0  0  0  0  0  0  0  0  0  0  0  0
  -21.8870  -13.5140   22.2860 H   0  0  0  0  0  0  0  0  0  0  0  0
  -26.0930  -15.4270   20.0920 N   0  0  0  0  0  0  0  0  0  0  0  0
  -25.3590  -16.0980   20.2930 H   0  0  0  0  0  0  0  0  0  0  0  0
  -26.9170  -15.8550   19.6910 H   0  0  0  0  0  0  0  0  0  0  0  0
  -29.6860  -21.8820   19.0280 C   0  0  0  0  0  2  0  0  0  0  0  0
  -28.4600  -23.0860   19.1240 C   0  0  0  0  0  2  0  0  0  0  0  0
  -28.4570  -24.6560   19.8580 C   0  0  0  0  0  2  0  0  0  0  0  0
  -28.4460  -26.1640   19.3740 O   0  0  0  0  0  0  0  0  0  0  0  0
  -24.6930  -31.5010   22.9870 C   0  0  0  0  0  0  0  0  0  0  0  0
  -27.3460  -27.1050   19.5230 C   0  0  0  0  0  0  0  0  0  0  0  0
  -23.5010  -30.2080   21.2600 C   0  0  0  0  0  3  0  0  0  0  0  0
  -24.9660  -28.7940   19.6840 C   0  0  0  0  0  0  0  0  0  0  0  0
  -26.0440  -30.5610   21.0670 C   0  0  0  0  0  2  0  0  0  0  0  0
  -26.1480  -29.2250   20.3000 C   0  0  0  0  0  0  0  0  0  0  0  0
  -27.3390  -28.4030   20.1930 C   0  0  0  0  0  3  0  0  0  0  0  0
  -26.1290  -26.7790   18.8900 C   0  0  0  0  0  3  0  0  0  0  0  0
  -24.9700  -27.5880   18.9650 C   0  0  0  0  0  3  0  0  0  0  0  0
  -23.7140  -29.6510   19.8270 C   0  0  0  0  0  2  0  0  0  0  0  0
  -24.7660  -30.7760   21.8280 N   0  0  0  0  0  0  0  0  0  0  0  0
  -23.6100  -31.7030   23.5600 O   0  0  0  0  0  0  0  0  0  0  0  0
  -22.8750  -29.1040   22.1490 C   0  0  0  0  0  0  0  0  0  0  0  0
  -21.5550  -28.8820   22.0190 N   0  0  0  0  0  0  0  0  0  0  0  0
  -23.5800  -28.4510   22.9220 O   0  0  0  0  0  0  0  0  0  0  0  0
  -21.0380  -29.4620   21.3730 H   0  0  0  0  0  0  0  0  0  0  0  0
  -18.2420  -27.4680   22.4310 C   0  0  0  0  0  0  0  0  0  0  0  0
  -20.7840  -27.8520   22.7220 C   0  0  0  0  0  3  0  0  0  0  0  0
  -20.9630  -26.4690   22.0540 C   0  0  0  0  0  2  0  0  0  0  0  0
  -19.8810  -26.1570   21.0160 C   0  0  0  0  0  2  0  0  0  0  0  0
  -18.4930  -26.1810   21.6620 C   0  0  0  0  0  2  0  0  0  0  0  0
  -19.3180  -28.2610   22.9150 C   0  0  0  0  0  0  0  0  0  0  0  0
  -19.0300  -29.4630   23.5950 C   0  0  0  0  0  3  0  0  0  0  0  0
  -17.6990  -29.8770   23.7960 C   0  0  0  0  0  3  0  0  0  0  0  0
  -16.6390  -29.0820   23.3270 C   0  0  0  0  0  3  0  0  0  0  0  0
  -16.9110  -27.8790   22.6500 C   0  0  0  0  0  3  0  0  0  0  0  0
  -25.9620  -32.1290   23.6400 C   0  0  0  0  0  3  0  0  0  0  0  0
  -26.4760  -31.3190   24.8940 C   0  0  1  0  0  0  0  0  0  0  0  0
  -25.3830  -31.0540   25.9570 C   0  0  0  0  0  1  0  0  0  0  0  0
  -27.0550  -29.9500   24.4680 C   0  0  0  0  0  1  0  0  0  0  0  0
  -27.6280  -32.0910   25.5800 C   0  0  0  0  0  1  0  0  0  0  0  0
  -25.6340  -33.5110   24.0250 N   0  0  0  0  0  0  0  0  0  0  0  0
  -25.9800  -34.6030   23.3300 C   0  0  0  0  0  0  0  0  0  0  0  0
  -26.6740  -34.5500   22.3110 O   0  0  0  0  0  0  0  0  0  0  0  0
  -25.0190  -33.6240   24.8180 H   0  0  0  0  0  0  0  0  0  0  0  0
  -24.2560  -36.4120   23.0240 C   0  0  0  0  0  1  0  0  0  0  0  0
  -25.4790  -35.9680   23.8430 C   0  0  0  0  0  3  0  0  0  0  0  0
  -27.5810  -36.8270   24.7800 C   0  0  0  0  0  1  0  0  0  0  0  0
  -26.5110  -37.0270   23.8060 N   0  0  0  0  0  0  0  0  0  0  0  0
  -26.0960  -37.9390   23.9740 H   0  0  0  0  0  0  0  0  0  0  0  0
  1  5  1  0
  2  1  1  0
  3  1  2  0
  3  6  1  0
  4  8  1  0
  4  2  2  0
  7  4  1  0
  8  3  1  0
  9 15  1  0
 10 15  1  0
 11 12  1  0
 11 10  1  0
 13 12  1  0
 13 22  1  0
 13 14  1  0
 15 14  1  0
 16  9  2  0
 17  9  1  0
 17 18  1  0
 17  2  1  0
 19 20  2  0
 20 39  1  0
 21 20  1  0
 21 24  1  0
 22 23  1  0
 22 19  1  0
 23 21  2  0
 24 25  1  0
 25 26  2  0
 27 30  1  0
 27 26  1  0
 28 27  2  0
 29 28  1  0
 29 24  2  0
 30 31  1  0
 31 36  2  0
 31 32  1  0
 32 33  2  0
 33 34  1  0
 34 38  1  0
 35 34  2  0
 36 35  1  0
 37 36  1  0
 39 40  1  0
 40 43  1  0
 40 42  1  0
 41 39  2  0
 44 19  1  0
 44 45  1  0
 46 44  1  0
 47 48  1  0
 47  8  1  0
 48 49  1  0
 50 52  1  0
 50 49  1  0
 51 62  2  0
 52 57  1  0
 53 61  1  0
 53 63  1  0
 54 60  1  0
 54 56  1  0
 55 61  1  0
 56 55  1  0
 57 56  2  0
 58 59  1  0
 58 52  2  0
 59 54  2  0
 60 53  1  0
 61 51  1  0
 63 65  2  0
 64 63  1  0
 66 64  1  0
 67 76  2  0
 67 72  1  0
 68 64  1  0
 68 72  1  0
 69 68  1  0
 70 71  1  0
 70 69  1  0
 71 67  1  0
 72 73  2  0
 73 74  1  0
 75 74  2  0
 76 75  1  0
 77 51  1  0
 77 82  1  0
 77 78  1  0
 78 81  1  1
 78 79  1  0
 80 78  1  0
 82 85  1  0
 83 87  1  0
 83 82  1  0
 84 83  2  0
 87 86  1  0
 89 87  1  0
 89 90  1  0
 89 88  1  0
M  ISO  4   9 100  17 100  49 101  50 101
M  END
>  <TORSDO>  (61) 
F 19

>  <SCORE>  (61) 
-13.466

>  <name>  (61) 
60

>  <ligand_id>  (61) 
60

>  <original_smiles>  (61) 
[H]c1c([H])c([H])c2c(c1[H])C([H])([H])C([H])([H])C([H])([H])C2([H])N([H])C(=O)C1([H])N(C(=O)C([H])(N([H])C(=O)C([H])(N([H])C([H])([H])[H])C([H])([H])[H])C(C([H])([H])[H])(C([H])([H])[H])C([H])([H])[H])C([H])([H])c2c([H])c(OC([H])([H])C([H])([H])C([H])([H])n3c(C([H])([H])[H])c(N([H])C(=O)N4C([H])([H])C([H])([H])C([H])([H])C([H])(n5nc(-c6c([H])c([H])c(Oc7c([H])c([H])c(F)c([H])c7F)c([H])c6[H])c(C(=O)N([H])[H])c5N([H])[H])C4([H])[H])c(C([H])([H])[H])c3C([H])([H])[H])c([H])c([H])c2C1([H])[H]

>  <smiles>  (61) 
[H]c1c([H])c([H])c2c(c1[H])C([H])([H])C([H])([H])C([H])([H])C2([H])N([H])C(=O)C1([H])N(C(=O)C([H])(N([H])C(=O)C([H])(N([H])C([H])([H])[H])C([H])([H])[H])C(C([H])([H])[H])(C([H])([H])[H])C([H])([H])[H])C([H])([H])c2c([H])c(OC([H])([H])C([H])([H])C([H])([H])n3c(C([H])([H])[H])c(N([H])C(=O)N4C([H])([H])C([H])([H])C([H])([H])C([H])(n5nc(-c6c([H])c([H])c(Oc7c([H])c([H])c(F)c([H])c7F)c([H])c6[H])c(C(=O)N([H])[H])c5N([H])[H])C4([H])[H])c(C([H])([H])[H])c3C([H])([H])[H])c([H])c([H])c2C1([H])[H]

$$$$
61:0:0
     RDKit          3D

 92100  0  0  1  0  0  0  0  0999 V2000
  -30.6190  -20.5060   19.8590 C   0  0  0  0  0  3  0  0  0  0  0  0
  -28.6350  -18.6780   19.6890 C   0  0  0  0  0  3  0  0  0  0  0  0
  -29.3390  -21.2030   19.8220 C   0  0  0  0  0  0  0  0  0  0  0  0
  -30.9070  -19.0490   19.8490 C   0  0  0  0  0  0  0  0  0  0  0  0
  -28.3520  -20.1410   19.7040 C   0  0  0  0  0  0  0  0  0  0  0  0
  -29.9190  -17.9780   19.7890 C   0  0  0  0  0  0  0  0  0  0  0  0
  -26.8940  -20.5550   19.6410 C   0  0  0  0  0  1  0  0  0  0  0  0
  -30.6240  -15.1880   19.3890 C   0  0  0  0  0  0  0  0  0  0  0  0
  -30.3270  -12.8280   18.3480 C   0  0  0  0  0  2  0  0  0  0  0  0
  -29.2250  -12.7850   17.2570 C   0  0  0  0  0  2  0  0  0  0  0  0
  -27.8340  -12.5680   17.8790 C   0  0  0  0  0  2  0  0  0  0  0  0
  -27.6250  -13.4490   19.1340 C   0  0  0  0  0  3  0  0  0  0  0  0
  -28.8280  -13.4000   20.0940 C   0  0  0  0  0  2  0  0  0  0  0  0
  -29.9970  -13.9080   19.3510 N   0  0  0  0  0  0  0  0  0  0  0  0
  -31.7100  -15.2030   18.7920 O   0  0  0  0  0  0  0  0  0  0  0  0
  -30.0880  -16.3920   20.0780 N   0  0  0  0  0  0  0  0  0  0  0  0
  -25.4370  -14.0750   20.2870 C   0  0  0  0  0  0  0  0  0  0  0  0
  -24.3930  -13.3280   20.7560 C   0  0  0  0  0  0  0  0  0  0  0  0
  -24.7560  -11.9620   20.5410 C   0  0  0  0  0  0  0  0  0  0  0  0
  -26.3670  -13.1680   19.8110 N   0  0  0  0  0  0  0  0  0  0  0  0
  -25.9780  -11.8850   20.0270 N   0  0  0  0  0  0  0  0  0  0  0  0
  -23.9800  -10.7300   20.7400 C   0  0  0  0  0  0  0  0  0  0  0  0
  -24.4300   -9.7030   21.5990 C   0  0  0  0  0  3  0  0  0  0  0  0
  -23.6570   -8.5380   21.7900 C   0  0  0  0  0  3  0  0  0  0  0  0
  -22.4160   -8.3930   21.1230 C   0  0  0  0  0  0  0  0  0  0  0  0
  -21.9850   -9.4070   20.2500 C   0  0  0  0  0  3  0  0  0  0  0  0
  -22.7600  -10.5630   20.0580 C   0  0  0  0  0  3  0  0  0  0  0  0
  -21.6090   -7.2860   21.2290 O   0  0  0  0  0  0  0  0  0  0  0  0
  -21.5320   -6.5590   22.3890 C   0  0  0  0  0  0  0  0  0  0  0  0
  -21.1490   -7.1490   23.6140 C   0  0  0  0  0  3  0  0  0  0  0  0
  -21.0160   -6.3500   24.7680 C   0  0  0  0  0  3  0  0  0  0  0  0
  -21.2540   -4.9640   24.6980 C   0  0  0  0  0  0  0  0  0  0  0  0
  -21.6290   -4.3750   23.4760 C   0  0  0  0  0  3  0  0  0  0  0  0
  -21.7640   -5.1700   22.3250 C   0  0  0  0  0  0  0  0  0  0  0  0
  -22.1050   -4.5940   21.1470 F   0  0  0  0  0  0  0  0  0  0  0  0
  -21.1170   -4.1960   25.8020 F   0  0  0  0  0  0  0  0  0  0  0  0
  -23.0910  -13.8550   21.2830 C   0  0  0  0  0  0  0  0  0  0  0  0
  -22.4720  -13.1370   22.2140 N   0  0  0  0  0  0  0  0  0  0  0  0
  -22.6390  -14.9350   20.9040 O   0  0  0  0  0  0  0  0  0  0  0  0
  -22.8560  -12.2620   22.5390 H   0  0  0  0  0  0  0  0  0  0  0  0
  -21.6020  -13.4660   22.6070 H   0  0  0  0  0  0  0  0  0  0  0  0
  -25.6640  -15.4450   20.1940 N   0  0  0  0  0  0  0  0  0  0  0  0
  -24.9750  -16.1310   20.4810 H   0  0  0  0  0  0  0  0  0  0  0  0
  -26.4840  -15.8590   19.7710 H   0  0  0  0  0  0  0  0  0  0  0  0
  -31.1990  -17.0060   22.2520 C   0  0  0  0  0  1  0  0  0  0  0  0
  -28.7670  -16.3100   22.2630 C   0  0  0  0  0  1  0  0  0  0  0  0
  -30.1270  -16.1440   21.5530 C   0  0  0  0  0  3  0  0  0  0  0  0
  -33.0690  -18.6230   18.6050 C   0  0  0  0  0  1  0  0  0  0  0  0
  -32.3730  -18.6730   19.9710 C   0  0  0  0  0  2  0  0  0  0  0  0
  -29.1800  -22.9100   20.1340 C   0  0  0  0  0  3  0  0  0  0  0  0
  -28.1930  -24.2930   19.6280 C   0  0  0  0  0  3  0  0  0  0  0  0
  -28.3320  -25.8870   19.9590 O   0  0  0  0  0  0  0  0  0  0  0  0
  -24.6030  -31.6300   23.0260 C   0  0  0  0  0  0  0  0  0  0  0  0
  -27.2800  -26.9260   19.8990 C   0  0  0  0  0  0  0  0  0  0  0  0
  -23.4410  -30.2360   21.3610 C   0  0  0  0  0  3  0  0  0  0  0  0
  -24.9270  -28.7100   19.8970 C   0  0  0  0  0  0  0  0  0  0  0  0
  -25.9950  -30.5330   21.2070 C   0  0  0  0  0  2  0  0  0  0  0  0
  -26.1020  -29.1450   20.5220 C   0  0  0  0  0  0  0  0  0  0  0  0
  -27.2740  -28.2710   20.5030 C   0  0  0  0  0  3  0  0  0  0  0  0
  -26.0760  -26.6320   19.2250 C   0  0  0  0  0  3  0  0  0  0  0  0
  -24.9350  -27.4740   19.2280 C   0  0  0  0  0  3  0  0  0  0  0  0
  -23.6810  -29.5900   19.9680 C   0  0  0  0  0  2  0  0  0  0  0  0
  -24.7000  -30.8250   21.9190 N   0  0  0  0  0  0  0  0  0  0  0  0
  -23.5100  -31.8780   23.5580 O   0  0  0  0  0  0  0  0  0  0  0  0
  -22.7820  -29.1990   22.3070 C   0  0  0  0  0  0  0  0  0  0  0  0
  -21.4540  -29.0110   22.1940 N   0  0  0  0  0  0  0  0  0  0  0  0
  -23.4700  -28.5650   23.1100 O   0  0  0  0  0  0  0  0  0  0  0  0
  -20.9520  -29.5730   21.5200 H   0  0  0  0  0  0  0  0  0  0  0  0
  -18.0980  -27.7460   22.7350 C   0  0  0  0  0  0  0  0  0  0  0  0
  -20.6600  -28.0380   22.9500 C   0  0  0  0  0  3  0  0  0  0  0  0
  -20.7690  -26.6280   22.3250 C   0  0  0  0  0  2  0  0  0  0  0  0
  -19.6490  -26.3250   21.3250 C   0  0  0  0  0  2  0  0  0  0  0  0
  -18.2790  -26.4250   22.0030 C   0  0  0  0  0  2  0  0  0  0  0  0
  -19.2160  -28.5090   23.1640 C   0  0  0  0  0  0  0  0  0  0  0  0
  -18.9920  -29.7440   23.8130 C   0  0  0  0  0  3  0  0  0  0  0  0
  -17.6840  -30.2160   24.0310 C   0  0  0  0  0  3  0  0  0  0  0  0
  -16.5810  -29.4500   23.6150 C   0  0  0  0  0  3  0  0  0  0  0  0
  -16.7890  -28.2150   22.9730 C   0  0  0  0  0  3  0  0  0  0  0  0
  -25.8600  -32.2950   23.6660 C   0  0  0  0  0  3  0  0  0  0  0  0
  -26.4010  -31.5090   24.9250 C   0  0  1  0  0  0  0  0  0  0  0  0
  -25.3190  -31.2090   25.9880 C   0  0  0  0  0  1  0  0  0  0  0  0
  -27.0290  -30.1590   24.5060 C   0  0  0  0  0  1  0  0  0  0  0  0
  -27.5280  -32.3230   25.6040 C   0  0  0  0  0  1  0  0  0  0  0  0
  -25.5000  -33.6720   24.0430 N   0  0  0  0  0  0  0  0  0  0  0  0
  -25.7850  -34.7640   23.3220 C   0  0  0  0  0  0  0  0  0  0  0  0
  -26.4410  -34.7200   22.2770 O   0  0  0  0  0  0  0  0  0  0  0  0
  -24.9120  -33.7780   24.8570 H   0  0  0  0  0  0  0  0  0  0  0  0
  -23.9900  -36.5140   23.0720 C   0  0  0  0  0  1  0  0  0  0  0  0
  -25.2630  -36.1220   23.8370 C   0  0  0  0  0  3  0  0  0  0  0  0
  -27.3850  -37.0580   24.6490 C   0  0  0  0  0  1  0  0  0  0  0  0
  -26.2570  -37.2140   23.7350 N   0  0  0  0  0  0  0  0  0  0  0  0
  -25.8220  -38.1140   23.9190 H   0  0  0  0  0  0  0  0  0  0  0  0
  2  5  2  0
  2  6  1  0
  3  1  2  0
  3 50  1  0
  4  1  1  0
  4 49  1  0
  5  3  1  0
  6  4  2  0
  6 16  1  0
  7  5  1  0
  8 16  1  0
  9 14  1  0
 10 11  1  0
 10  9  1  0
 12 11  1  0
 12 20  1  0
 12 13  1  0
 14  8  1  0
 14 13  1  0
 15  8  2  0
 16 47  1  0
 17 18  2  0
 18 37  1  0
 19 22  1  0
 19 18  1  0
 20 21  1  0
 20 17  1  0
 21 19  2  0
 22 23  1  0
 23 24  2  0
 25 28  1  0
 25 24  1  0
 26 25  2  0
 27 26  1  0
 27 22  2  0
 28 29  1  0
 29 30  1  0
 30 31  2  0
 32 31  1  0
 32 36  1  0
 33 32  2  0
 34 29  2  0
 34 33  1  0
 35 34  1  0
 37 38  1  0
 38 40  1  0
 38 41  1  0
 39 37  2  0
 42 17  1  0
 42 43  1  0
 44 42  1  0
 47 45  1  0
 47 46  1  0
 48 49  1  0
 51 52  1  0
 51 50  2  0
 53 64  2  0
 54 52  1  0
 54 59  1  0
 55 63  1  0
 55 65  1  0
 56 62  1  0
 56 58  1  0
 57 63  1  0
 58 57  1  0
 59 58  2  0
 60 61  1  0
 60 54  2  0
 61 56  2  0
 62 55  1  0
 63 53  1  0
 65 67  2  0
 66 65  1  0
 68 66  1  0
 69 78  2  0
 69 74  1  0
 70 66  1  0
 70 74  1  0
 71 70  1  0
 72 73  1  0
 72 71  1  0
 73 69  1  0
 74 75  2  0
 75 76  1  0
 77 76  2  0
 78 77  1  0
 79 53  1  0
 79 84  1  0
 79 80  1  0
 80 83  1  1
 80 81  1  0
 82 80  1  0
 84 87  1  0
 85 89  1  0
 85 84  1  0
 86 85  2  0
 89 88  1  0
 91 89  1  0
 91 92  1  0
 91 90  1  0
M  ISO  4   8 100  16 100  51 101  52 101
M  END
>  <TORSDO>  (62) 
F 20

>  <SCORE>  (62) 
-10.226

>  <name>  (62) 
61

>  <ligand_id>  (62) 
61

>  <original_smiles>  (62) 
[H]c1c([H])c([H])c2c(c1[H])C([H])([H])C([H])([H])C([H])([H])C2([H])N([H])C(=O)C1([H])N(C(=O)C([H])(N([H])C(=O)C([H])(N([H])C([H])([H])[H])C([H])([H])[H])C(C([H])([H])[H])(C([H])([H])[H])C([H])([H])[H])C([H])([H])c2c([H])c(OC([H])([H])C([H])([H])c3c([H])c(C([H])([H])C([H])([H])[H])c(N(C(=O)N4C([H])([H])C([H])([H])C([H])([H])C([H])(n5nc(-c6c([H])c([H])c(Oc7c([H])c([H])c(F)c([H])c7F)c([H])c6[H])c(C(=O)N([H])[H])c5N([H])[H])C4([H])[H])C([H])(C([H])([H])[H])C([H])([H])[H])c([H])c3C([H])([H])[H])c([H])c([H])c2C1([H])[H]

>  <smiles>  (62) 
[H]c1c([H])c([H])c2c(c1[H])C([H])([H])C([H])([H])C([H])([H])C2([H])N([H])C(=O)C1([H])N(C(=O)C([H])(N([H])C(=O)C([H])(N([H])C([H])([H])[H])C([H])([H])[H])C(C([H])([H])[H])(C([H])([H])[H])C([H])([H])[H])C([H])([H])c2c([H])c(OC([H])([H])C([H])([H])c3c([H])c(C([H])([H])C([H])([H])[H])c(N(C(=O)N4C([H])([H])C([H])([H])C([H])([H])C([H])(n5nc(-c6c([H])c([H])c(Oc7c([H])c([H])c(F)c([H])c7F)c([H])c6[H])c(C(=O)N([H])[H])c5N([H])[H])C4([H])[H])C([H])(C([H])([H])[H])C([H])([H])[H])c([H])c3C([H])([H])[H])c([H])c([H])c2C1([H])[H]

$$$$
62:0:0
     RDKit          3D

 89 97  0  0  1  0  0  0  0  0999 V2000
  -29.9490  -19.3400   21.5670 C   0  0  0  0  0  3  0  0  0  0  0  0
  -29.7940  -18.7230   20.2730 C   0  0  0  0  0  0  0  0  0  0  0  0
  -29.6820  -20.7300   21.5900 C   0  0  0  0  0  0  0  0  0  0  0  0
  -29.4090  -19.9730   19.5620 C   0  0  0  0  0  0  0  0  0  0  0  0
  -29.7770  -21.6530   22.7620 C   0  0  0  0  0  1  0  0  0  0  0  0
  -29.0860  -20.1930   18.1130 C   0  0  0  0  0  1  0  0  0  0  0  0
  -29.3300  -21.2770   20.3380 N   0  0  0  0  0  0  0  0  0  0  0  0
  -30.6400  -15.8060   20.2810 C   0  0  0  0  0  0  0  0  0  0  0  0
  -30.7030  -13.3100   19.4580 C   0  0  0  0  0  2  0  0  0  0  0  0
  -29.8200  -12.9720   18.2300 C   0  0  0  0  0  2  0  0  0  0  0  0
  -28.3690  -12.6720   18.6530 C   0  0  0  0  0  2  0  0  0  0  0  0
  -27.8570  -13.6540   19.7360 C   0  0  0  0  0  3  0  0  0  0  0  0
  -28.8870  -13.9130   20.8560 C   0  0  0  0  0  2  0  0  0  0  0  0
  -30.0880  -14.4760   20.2030 N   0  0  0  0  0  0  0  0  0  0  0  0
  -31.8830  -15.7560   20.2940 O   0  0  0  0  0  0  0  0  0  0  0  0
  -29.9210  -17.0970   19.8890 N   0  0  0  0  0  0  0  0  0  0  0  0
  -25.4840  -14.2070   20.4620 C   0  0  0  0  0  0  0  0  0  0  0  0
  -24.4140  -13.4250   20.7940 C   0  0  0  0  0  0  0  0  0  0  0  0
  -24.8850  -12.0760   20.7610 C   0  0  0  0  0  0  0  0  0  0  0  0
  -26.5300  -13.3310   20.2330 N   0  0  0  0  0  0  0  0  0  0  0  0
  -26.1830  -12.0430   20.4800 N   0  0  0  0  0  0  0  0  0  0  0  0
  -24.1580  -10.8110   20.9180 C   0  0  0  0  0  0  0  0  0  0  0  0
  -24.5590   -9.8420   21.8640 C   0  0  0  0  0  3  0  0  0  0  0  0
  -23.8290   -8.6430   22.0130 C   0  0  0  0  0  3  0  0  0  0  0  0
  -22.6840   -8.4060   21.2160 C   0  0  0  0  0  0  0  0  0  0  0  0
  -22.3040   -9.3640   20.2600 C   0  0  0  0  0  3  0  0  0  0  0  0
  -23.0350  -10.5540   20.1090 C   0  0  0  0  0  3  0  0  0  0  0  0
  -21.9290   -7.2600   21.2740 O   0  0  0  0  0  0  0  0  0  0  0  0
  -21.8240   -6.5270   22.4290 C   0  0  0  0  0  0  0  0  0  0  0  0
  -21.2830   -7.0730   23.6130 C   0  0  0  0  0  3  0  0  0  0  0  0
  -21.1280   -6.2650   24.7560 C   0  0  0  0  0  3  0  0  0  0  0  0
  -21.5080   -4.9090   24.7170 C   0  0  0  0  0  0  0  0  0  0  0  0
  -22.0440   -4.3620   23.5380 C   0  0  0  0  0  3  0  0  0  0  0  0
  -22.2010   -5.1690   22.3970 C   0  0  0  0  0  0  0  0  0  0  0  0
  -22.6980   -4.6320   21.2580 F   0  0  0  0  0  0  0  0  0  0  0  0
  -21.3540   -4.1300   25.8130 F   0  0  0  0  0  0  0  0  0  0  0  0
  -23.0100  -13.8990   21.0300 C   0  0  0  0  0  0  0  0  0  0  0  0
  -22.2680  -13.2110   21.8900 N   0  0  0  0  0  0  0  0  0  0  0  0
  -22.5800  -14.9160   20.4880 O   0  0  0  0  0  0  0  0  0  0  0  0
  -22.6330  -12.3940   22.3550 H   0  0  0  0  0  0  0  0  0  0  0  0
  -21.3230  -13.5080   22.0900 H   0  0  0  0  0  0  0  0  0  0  0  0
  -25.6500  -15.5800   20.3040 N   0  0  0  0  0  0  0  0  0  0  0  0
  -24.8870  -16.2390   20.4210 H   0  0  0  0  0  0  0  0  0  0  0  0
  -26.5190  -16.0240   20.0330 H   0  0  0  0  0  0  0  0  0  0  0  0
  -30.4620  -17.1300   17.4430 C   0  0  0  0  0  1  0  0  0  0  0  0
  -29.3940  -16.8920   18.5310 C   0  0  0  0  0  2  0  0  0  0  0  0
  -29.1860  -22.9490   19.9170 C   0  0  0  0  0  3  0  0  0  0  0  0
  -28.2030  -24.4410   20.3800 C   0  0  0  0  0  3  0  0  0  0  0  0
  -28.3340  -26.1120   20.1740 O   0  0  0  0  0  0  0  0  0  0  0  0
  -24.6300  -32.0390   23.2570 C   0  0  0  0  0  0  0  0  0  0  0  0
  -27.2840  -27.1960   20.1900 C   0  0  0  0  0  0  0  0  0  0  0  0
  -23.4600  -30.6230   21.6200 C   0  0  0  0  0  3  0  0  0  0  0  0
  -24.9380  -29.0520   20.1810 C   0  0  0  0  0  0  0  0  0  0  0  0
  -26.0220  -30.8840   21.4590 C   0  0  0  0  0  2  0  0  0  0  0  0
  -26.1240  -29.4730   20.7940 C   0  0  0  0  0  0  0  0  0  0  0  0
  -27.2890  -28.5710   20.7660 C   0  0  0  0  0  3  0  0  0  0  0  0
  -26.0550  -26.9380   19.5370 C   0  0  0  0  0  3  0  0  0  0  0  0
  -24.9310  -27.8080   19.5330 C   0  0  0  0  0  3  0  0  0  0  0  0
  -23.6990  -29.9500   20.2400 C   0  0  0  0  0  2  0  0  0  0  0  0
  -24.7260  -31.2090   22.1660 N   0  0  0  0  0  0  0  0  0  0  0  0
  -23.5370  -32.3010   23.7860 O   0  0  0  0  0  0  0  0  0  0  0  0
  -22.7960  -29.6070   22.5860 C   0  0  0  0  0  0  0  0  0  0  0  0
  -21.4760  -29.3840   22.4470 N   0  0  0  0  0  0  0  0  0  0  0  0
  -23.4770  -29.0190   23.4310 O   0  0  0  0  0  0  0  0  0  0  0  0
  -20.9750  -29.9110   21.7460 H   0  0  0  0  0  0  0  0  0  0  0  0
  -18.1440  -28.0340   22.9400 C   0  0  0  0  0  0  0  0  0  0  0  0
  -20.6880  -28.4150   23.2180 C   0  0  0  0  0  3  0  0  0  0  0  0
  -20.8550  -26.9860   22.6500 C   0  0  0  0  0  2  0  0  0  0  0  0
  -19.7750  -26.6120   21.6300 C   0  0  0  0  0  2  0  0  0  0  0  0
  -18.3850  -26.6950   22.2650 C   0  0  0  0  0  2  0  0  0  0  0  0
  -19.2240  -28.8490   23.3730 C   0  0  0  0  0  0  0  0  0  0  0  0
  -18.9410  -30.0990   23.9660 C   0  0  0  0  0  3  0  0  0  0  0  0
  -17.6120  -30.5350   24.1300 C   0  0  0  0  0  3  0  0  0  0  0  0
  -16.5470  -29.7190   23.7110 C   0  0  0  0  0  3  0  0  0  0  0  0
  -16.8140  -28.4700   23.1210 C   0  0  0  0  0  3  0  0  0  0  0  0
  -25.8870  -32.7140   23.8840 C   0  0  0  0  0  3  0  0  0  0  0  0
  -26.3840  -31.9910   25.1980 C   0  0  1  0  0  0  0  0  0  0  0  0
  -25.2700  -31.7660   26.2460 C   0  0  0  0  0  1  0  0  0  0  0  0
  -27.0010  -30.6110   24.8700 C   0  0  0  0  0  1  0  0  0  0  0  0
  -27.5050  -32.8260   25.8620 C   0  0  0  0  0  1  0  0  0  0  0  0
  -25.5520  -34.1190   24.1800 N   0  0  0  0  0  0  0  0  0  0  0  0
  -25.8910  -35.1670   23.4190 C   0  0  0  0  0  0  0  0  0  0  0  0
  -26.5810  -35.0540   22.4030 O   0  0  0  0  0  0  0  0  0  0  0  0
  -24.9390  -34.2780   24.9670 H   0  0  0  0  0  0  0  0  0  0  0  0
  -24.1770  -36.9630   22.9930 C   0  0  0  0  0  1  0  0  0  0  0  0
  -25.3890  -36.5620   23.8490 C   0  0  0  0  0  3  0  0  0  0  0  0
  -27.4870  -37.4670   24.7530 C   0  0  0  0  0  1  0  0  0  0  0  0
  -26.4240  -37.6170   23.7620 N   0  0  0  0  0  0  0  0  0  0  0  0
  -26.0100  -38.5370   23.8800 H   0  0  0  0  0  0  0  0  0  0  0  0
  1  3  2  0
  2  1  1  0
  3  5  1  0
  4  2  2  0
  4  7  1  0
  6  4  1  0
  7  3  1  0
  8 15  2  0
  9 14  1  0
 10 11  1  0
 10  9  1  0
 12 11  1  0
 12 20  1  0
 12 13  1  0
 14  8  1  0
 14 13  1  0
 16  2  1  0
 16  8  1  0
 17 18  2  0
 18 37  1  0
 19 18  1  0
 19 22  1  0
 20 17  1  0
 20 21  1  0
 21 19  2  0
 22 23  1  0
 23 24  2  0
 25 28  1  0
 25 24  1  0
 26 25  2  0
 27 26  1  0
 27 22  2  0
 28 29  1  0
 29 30  1  0
 30 31  2  0
 32 31  1  0
 32 36  1  0
 33 32  2  0
 34 29  2  0
 34 33  1  0
 35 34  1  0
 37 38  1  0
 38 41  1  0
 38 40  1  0
 39 37  2  0
 42 43  1  0
 42 17  1  0
 44 42  1  0
 45 46  1  0
 46 16  1  0
 47  7  1  0
 47 48  2  0
 49 51  1  0
 49 48  1  0
 50 61  2  0
 51 56  1  0
 52 60  1  0
 52 62  1  0
 53 59  1  0
 53 55  1  0
 54 60  1  0
 55 54  1  0
 56 55  2  0
 57 51  2  0
 58 57  1  0
 58 53  2  0
 59 52  1  0
 60 50  1  0
 62 64  2  0
 63 62  1  0
 65 63  1  0
 66 75  2  0
 66 71  1  0
 67 63  1  0
 67 71  1  0
 68 67  1  0
 69 70  1  0
 69 68  1  0
 70 66  1  0
 71 72  2  0
 72 73  1  0
 74 73  2  0
 75 74  1  0
 76 50  1  0
 76 81  1  0
 76 77  1  0
 77 80  1  1
 77 78  1  0
 79 77  1  0
 81 84  1  0
 82 86  1  0
 82 81  1  0
 83 82  2  0
 86 85  1  0
 88 86  1  0
 88 89  1  0
 88 87  1  0
M  ISO  4   8 100  16 100  48 101  49 101
M  END
>  <TORSDO>  (63) 
F 19

>  <SCORE>  (63) 
-14.914

>  <name>  (63) 
62

>  <ligand_id>  (63) 
62

>  <original_smiles>  (63) 
[H]c1c([H])c([H])c2c(c1[H])C([H])([H])C([H])([H])C([H])([H])C2([H])N([H])C(=O)C1([H])N(C(=O)C([H])(N([H])C(=O)C([H])(N([H])C([H])([H])[H])C([H])([H])[H])C(C([H])([H])[H])(C([H])([H])[H])C([H])([H])[H])C([H])([H])c2c([H])c(OC([H])([H])C([H])([H])n3c(C([H])([H])[H])c([H])c(N(C(=O)N4C([H])([H])C([H])([H])C([H])([H])C([H])(n5nc(-c6c([H])c([H])c(Oc7c([H])c([H])c(F)c([H])c7F)c([H])c6[H])c(C(=O)N([H])[H])c5N([H])[H])C4([H])[H])C([H])([H])C([H])([H])[H])c3C([H])([H])[H])c([H])c([H])c2C1([H])[H]

>  <smiles>  (63) 
[H]c1c([H])c([H])c2c(c1[H])C([H])([H])C([H])([H])C([H])([H])C2([H])N([H])C(=O)C1([H])N(C(=O)C([H])(N([H])C(=O)C([H])(N([H])C([H])([H])[H])C([H])([H])[H])C(C([H])([H])[H])(C([H])([H])[H])C([H])([H])[H])C([H])([H])c2c([H])c(OC([H])([H])C([H])([H])n3c(C([H])([H])[H])c([H])c(N(C(=O)N4C([H])([H])C([H])([H])C([H])([H])C([H])(n5nc(-c6c([H])c([H])c(Oc7c([H])c([H])c(F)c([H])c7F)c([H])c6[H])c(C(=O)N([H])[H])c5N([H])[H])C4([H])[H])C([H])([H])C([H])([H])[H])c3C([H])([H])[H])c([H])c([H])c2C1([H])[H]

$$$$
63:0:0
     RDKit          3D

 98106  0  0  1  0  0  0  0  0999 V2000
  -29.4350  -18.8130   21.1460 C   0  0  0  0  0  3  0  0  0  0  0  0
  -29.8190  -17.9750   20.0800 C   0  0  0  0  0  0  0  0  0  0  0  0
  -31.1430  -19.8430   19.1510 C   0  0  0  0  0  0  0  0  0  0  0  0
  -30.7600  -20.6700   20.2460 C   0  0  0  0  0  0  0  0  0  0  0  0
  -29.8940  -20.1400   21.2340 C   0  0  0  0  0  0  0  0  0  0  0  0
  -30.6720  -18.5010   19.0760 C   0  0  0  0  0  0  0  0  0  0  0  0
  -32.0720  -20.3750   18.0530 C   0  0  0  0  0  1  0  0  0  0  0  0
  -29.3530  -21.0970   22.5670 Cl  0  0  0  0  0  0  0  0  0  0  0  0
  -31.1140  -17.5060   17.7310 Cl  0  0  0  0  0  0  0  0  0  0  0  0
  -29.2210  -16.5580   20.0010 C   0  0  0  0  0  2  0  0  0  0  0  0
  -30.4900  -14.5220   19.6120 C   0  0  0  0  0  0  0  0  0  0  0  0
  -29.8870  -12.5560   18.2390 C   0  0  0  0  0  2  0  0  0  0  0  0
  -28.7670  -12.9280   17.2460 C   0  0  0  0  0  2  0  0  0  0  0  0
  -27.3780  -12.7610   17.8960 C   0  0  0  0  0  2  0  0  0  0  0  0
  -27.2860  -13.4370   19.2880 C   0  0  0  0  0  3  0  0  0  0  0  0
  -28.5000  -13.0630   20.1610 C   0  0  0  0  0  2  0  0  0  0  0  0
  -29.7270  -13.4070   19.4260 N   0  0  0  0  0  0  0  0  0  0  0  0
  -31.4910  -14.7580   18.9270 O   0  0  0  0  0  0  0  0  0  0  0  0
  -30.0250  -15.4230   20.5120 N   0  0  0  0  0  0  0  0  0  0  0  0
  -25.0450  -13.9860   20.4320 C   0  0  0  0  0  0  0  0  0  0  0  0
  -24.0460  -13.1840   20.9180 C   0  0  0  0  0  0  0  0  0  0  0  0
  -24.4840  -11.8400   20.7160 C   0  0  0  0  0  0  0  0  0  0  0  0
  -26.0280  -13.1270   19.9640 N   0  0  0  0  0  0  0  0  0  0  0  0
  -25.7040  -11.8280   20.1950 N   0  0  0  0  0  0  0  0  0  0  0  0
  -23.7900  -10.5650   20.9350 C   0  0  0  0  0  0  0  0  0  0  0  0
  -24.3480   -9.5500   21.7420 C   0  0  0  0  0  3  0  0  0  0  0  0
  -23.6550   -8.3390   21.9510 C   0  0  0  0  0  3  0  0  0  0  0  0
  -22.3890   -8.1350   21.3510 C   0  0  0  0  0  0  0  0  0  0  0  0
  -21.8490   -9.1390   20.5270 C   0  0  0  0  0  3  0  0  0  0  0  0
  -22.5440  -10.3410   20.3180 C   0  0  0  0  0  3  0  0  0  0  0  0
  -21.6530   -6.9820   21.4750 O   0  0  0  0  0  0  0  0  0  0  0  0
  -21.7460   -6.1850   22.5890 C   0  0  0  0  0  0  0  0  0  0  0  0
  -21.4970   -6.6830   23.8870 C   0  0  0  0  0  3  0  0  0  0  0  0
  -21.5350   -5.8120   24.9940 C   0  0  0  0  0  3  0  0  0  0  0  0
  -21.8140   -4.4460   24.8070 C   0  0  0  0  0  0  0  0  0  0  0  0
  -22.0560   -3.9470   23.5150 C   0  0  0  0  0  3  0  0  0  0  0  0
  -22.0190   -4.8140   22.4090 C   0  0  0  0  0  0  0  0  0  0  0  0
  -22.2330   -4.3250   21.1650 F   0  0  0  0  0  0  0  0  0  0  0  0
  -21.8430   -3.6080   25.8700 F   0  0  0  0  0  0  0  0  0  0  0  0
  -22.7150  -13.6360   21.4470 C   0  0  0  0  0  0  0  0  0  0  0  0
  -22.1420  -12.8940   22.3880 N   0  0  0  0  0  0  0  0  0  0  0  0
  -22.1970  -14.6830   21.0610 O   0  0  0  0  0  0  0  0  0  0  0  0
  -22.5790  -12.0500   22.7280 H   0  0  0  0  0  0  0  0  0  0  0  0
  -21.2540  -13.1780   22.7780 H   0  0  0  0  0  0  0  0  0  0  0  0
  -25.1860  -15.3680   20.3270 N   0  0  0  0  0  0  0  0  0  0  0  0
  -24.4490  -16.0050   20.6080 H   0  0  0  0  0  0  0  0  0  0  0  0
  -25.9580  -15.8330   19.8670 H   0  0  0  0  0  0  0  0  0  0  0  0
  -30.7230  -14.2370   22.6250 C   0  0  0  0  0  1  0  0  0  0  0  0
  -31.9870  -16.2820   21.8290 C   0  0  0  0  0  1  0  0  0  0  0  0
  -30.6160  -15.5770   21.8640 C   0  0  0  0  0  3  0  0  0  0  0  0
  -31.2810  -22.1080   20.3920 C   0  0  0  0  0  2  0  0  0  0  0  0
  -30.5180  -23.0780   19.5710 N   0  0  0  0  0  4  0  0  0  0  0  0
  -29.5330  -22.9350   19.7320 H   0  0  0  0  0  0  0  0  0  0  0  0
  -30.7070  -22.8770   18.6050 H   0  0  0  0  0  0  0  0  0  0  0  0
  -30.8600  -24.4990   19.8320 C   0  0  0  0  0  2  0  0  0  0  0  0
  -30.3110  -25.4660   18.7590 C   0  0  0  0  0  2  0  0  0  0  0  0
  -28.8300  -25.8550   18.9190 C   0  0  0  0  0  2  0  0  0  0  0  0
  -28.6680  -26.8640   19.9210 O   0  0  0  0  0  0  0  0  0  0  0  0
  -24.7620  -31.8350   23.2100 C   0  0  0  0  0  0  0  0  0  0  0  0
  -27.4500  -27.5150   19.9850 C   0  0  0  0  0  0  0  0  0  0  0  0
  -23.5530  -30.4350   21.5680 C   0  0  0  0  0  3  0  0  0  0  0  0
  -25.0090  -28.9480   20.0960 C   0  0  0  0  0  0  0  0  0  0  0  0
  -26.0660  -30.8480   21.3300 C   0  0  0  0  0  2  0  0  0  0  0  0
  -26.1660  -29.4890   20.6690 C   0  0  0  0  0  0  0  0  0  0  0  0
  -27.3830  -28.7740   20.6230 C   0  0  0  0  0  3  0  0  0  0  0  0
  -26.2630  -26.9750   19.4300 C   0  0  0  0  0  3  0  0  0  0  0  0
  -25.0500  -27.6840   19.4850 C   0  0  0  0  0  3  0  0  0  0  0  0
  -23.7500  -29.7800   20.1730 C   0  0  0  0  0  2  0  0  0  0  0  0
  -24.8130  -31.0530   22.0940 N   0  0  0  0  0  0  0  0  0  0  0  0
  -23.6870  -32.0770   23.7750 O   0  0  0  0  0  0  0  0  0  0  0  0
  -22.9410  -29.3860   22.5240 C   0  0  0  0  0  0  0  0  0  0  0  0
  -21.6220  -29.1660   22.4030 N   0  0  0  0  0  0  0  0  0  0  0  0
  -23.6480  -28.7740   23.3270 O   0  0  0  0  0  0  0  0  0  0  0  0
  -21.1110  -29.7130   21.7250 H   0  0  0  0  0  0  0  0  0  0  0  0
  -18.2920  -27.8500   22.8930 C   0  0  0  0  0  0  0  0  0  0  0  0
  -20.8380  -28.1970   23.1700 C   0  0  0  0  0  3  0  0  0  0  0  0
  -20.9940  -26.7730   22.5880 C   0  0  0  0  0  2  0  0  0  0  0  0
  -19.9050  -26.4150   21.5710 C   0  0  0  0  0  2  0  0  0  0  0  0
  -18.5190  -26.5080   22.2140 C   0  0  0  0  0  2  0  0  0  0  0  0
  -19.3820  -28.6490   23.3280 C   0  0  0  0  0  0  0  0  0  0  0  0
  -19.1200  -29.9020   23.9220 C   0  0  0  0  0  3  0  0  0  0  0  0
  -17.7990  -30.3590   24.0840 C   0  0  0  0  0  3  0  0  0  0  0  0
  -16.7230  -29.5560   23.6700 C   0  0  0  0  0  3  0  0  0  0  0  0
  -16.9700  -28.3030   23.0790 C   0  0  0  0  0  3  0  0  0  0  0  0
  -26.0490  -32.4810   23.8150 C   0  0  0  0  0  3  0  0  0  0  0  0
  -25.7200  -33.8670   24.1710 N   0  0  0  0  0  0  0  0  0  0  0  0
  -26.0170  -34.9350   23.4200 C   0  0  0  0  0  0  0  0  0  0  0  0
  -26.6680  -34.8610   22.3750 O   0  0  0  0  0  0  0  0  0  0  0  0
  -25.1420  -33.9990   24.9880 H   0  0  0  0  0  0  0  0  0  0  0  0
  -24.2450  -36.6950   23.1230 C   0  0  0  0  0  1  0  0  0  0  0  0
  -25.5090  -36.3090   23.9050 C   0  0  0  0  0  3  0  0  0  0  0  0
  -27.6450  -37.2220   24.7020 C   0  0  0  0  0  1  0  0  0  0  0  0
  -26.5190  -37.3840   23.7850 N   0  0  0  0  0  0  0  0  0  0  0  0
  -26.0990  -38.2930   23.9600 H   0  0  0  0  0  0  0  0  0  0  0  0
  -26.6070  -31.7010   25.0660 C   0  0  1  0  0  0  0  0  0  0  0  0
  -25.5380  -31.4060   26.1440 C   0  0  0  0  0  1  0  0  0  0  0  0
  -27.2300  -30.3530   24.6350 C   0  0  0  0  0  1  0  0  0  0  0  0
  -27.7410  -32.5190   25.7300 C   0  0  0  0  0  1  0  0  0  0  0  0
  1  5  1  0
  2  1  2  0
  3  4  1  0
  4 51  1  0
  4  5  2  0
  5  8  1  0
  6  3  2  0
  6  2  1  0
  7  3  1  0
  9  6  1  0
 10  2  1  0
 10 19  1  0
 11 19  1  0
 12 17  1  0
 13 14  1  0
 13 12  1  0
 15 14  1  0
 15 23  1  0
 15 16  1  0
 17 11  1  0
 17 16  1  0
 18 11  2  0
 19 50  1  0
 20 21  2  0
 21 40  1  0
 22 21  1  0
 22 25  1  0
 23 24  1  0
 23 20  1  0
 24 22  2  0
 25 26  1  0
 26 27  2  0
 28 31  1  0
 28 27  1  0
 29 28  2  0
 30 29  1  0
 30 25  2  0
 31 32  1  0
 32 33  1  0
 33 34  2  0
 35 34  1  0
 35 39  1  0
 36 35  2  0
 37 32  2  0
 37 36  1  0
 38 37  1  0
 40 41  1  0
 41 43  1  0
 41 44  1  0
 42 40  2  0
 45 20  1  0
 45 46  1  0
 47 45  1  0
 49 50  1  0
 50 48  1  0
 52 53  1  0
 52 55  1  0
 52 51  1  0
 54 52  1  0
 56 57  1  0
 56 55  1  0
 57 58  1  0
 58 60  1  0
 59 70  2  0
 60 65  1  0
 61 69  1  0
 61 71  1  0
 62 68  1  0
 62 64  1  0
 63 69  1  0
 64 63  1  0
 65 64  2  0
 66 67  1  0
 66 60  2  0
 67 62  2  0
 68 61  1  0
 69 59  1  0
 71 73  2  0
 72 71  1  0
 74 72  1  0
 75 84  2  0
 75 80  1  0
 76 72  1  0
 76 80  1  0
 77 76  1  0
 78 79  1  0
 78 77  1  0
 79 75  1  0
 80 81  2  0
 81 82  1  0
 83 82  2  0
 84 83  1  0
 85 59  1  0
 85 86  1  0
 85 95  1  0
 86 89  1  0
 87 91  1  0
 87 86  1  0
 88 87  2  0
 91 90  1  0
 93 91  1  0
 93 94  1  0
 93 92  1  0
 95 98  1  1
 95 96  1  0
 97 95  1  0
M  ISO  4  11 100  19 100  57 101  58 101
M  END
>  <TORSDO>  (64) 
F 23

>  <SCORE>  (64) 
-8.164

>  <name>  (64) 
63

>  <ligand_id>  (64) 
63

>  <original_smiles>  (64) 
[H]c1c([H])c([H])c2c(c1[H])C([H])([H])C([H])([H])C([H])([H])C2([H])N([H])C(=O)C1([H])N(C(=O)C([H])(N([H])C(=O)C([H])(N([H])C([H])([H])[H])C([H])([H])[H])C(C([H])([H])[H])(C([H])([H])[H])C([H])([H])[H])C([H])([H])c2c([H])c(OC([H])([H])C([H])([H])C([H])([H])[N+]([H])([H])C([H])([H])c3c(Cl)c([H])c(C([H])([H])N(C(=O)N4C([H])([H])C([H])([H])C([H])([H])C([H])(n5nc(-c6c([H])c([H])c(Oc7c([H])c([H])c(F)c([H])c7F)c([H])c6[H])c(C(=O)N([H])[H])c5N([H])[H])C4([H])[H])C([H])(C([H])([H])[H])C([H])([H])[H])c(Cl)c3C([H])([H])[H])c([H])c([H])c2C1([H])[H]

>  <smiles>  (64) 
[H]c1c([H])c([H])c2c(c1[H])C([H])([H])C([H])([H])C([H])([H])C2([H])N([H])C(=O)C1([H])N(C(=O)C([H])(N([H])C(=O)C([H])(N([H])C([H])([H])[H])C([H])([H])[H])C(C([H])([H])[H])(C([H])([H])[H])C([H])([H])[H])C([H])([H])c2c([H])c(OC([H])([H])C([H])([H])C([H])([H])[N+]([H])([H])C([H])([H])c3c(Cl)c([H])c(C([H])([H])N(C(=O)N4C([H])([H])C([H])([H])C([H])([H])C([H])(n5nc(-c6c([H])c([H])c(Oc7c([H])c([H])c(F)c([H])c7F)c([H])c6[H])c(C(=O)N([H])[H])c5N([H])[H])C4([H])[H])C([H])(C([H])([H])[H])C([H])([H])[H])c(Cl)c3C([H])([H])[H])c([H])c([H])c2C1([H])[H]

$$$$
64:0:0
     RDKit          3D

 92100  0  0  1  0  0  0  0  0999 V2000
  -27.1430  -22.9900   19.9820 C   0  0  0  0  0  2  0  0  0  0  0  0
  -28.4660  -23.1610   19.5200 C   0  0  0  0  0  3  0  0  0  0  0  0
  -29.2660  -21.9280   20.0760 C   0  0  0  0  0  3  0  0  0  0  0  0
  -27.0300  -22.6200   21.3460 C   0  0  0  0  0  3  0  0  0  0  0  0
  -29.2900  -22.1230   21.4650 C   0  0  0  0  0  0  0  0  0  0  0  0
  -28.1220  -22.3480   22.1080 N   0  0  0  0  0  0  0  0  0  0  0  0
  -25.4310  -24.2070   22.4720 C   0  0  0  0  0  1  0  0  0  0  0  0
  -25.7200  -22.7500   22.0990 C   0  0  0  0  0  2  0  0  0  0  0  0
  -30.8210  -21.1130   23.2640 C   0  0  0  0  0  1  0  0  0  0  0  0
  -30.5710  -22.2560   22.2720 C   0  0  0  0  0  2  0  0  0  0  0  0
  -29.1020  -20.1940   19.8370 C   0  0  0  0  0  3  0  0  0  0  0  0
  -29.9680  -18.7610   20.5330 C   0  0  0  0  0  3  0  0  0  0  0  0
  -30.5910  -15.8510   20.5680 C   0  0  0  0  0  0  0  0  0  0  0  0
  -30.7350  -13.3370   19.9280 C   0  0  0  0  0  2  0  0  0  0  0  0
  -29.9550  -12.9510   18.6460 C   0  0  0  0  0  2  0  0  0  0  0  0
  -28.4720  -12.6800   18.9520 C   0  0  0  0  0  2  0  0  0  0  0  0
  -27.8750  -13.7290   19.9250 C   0  0  0  0  0  3  0  0  0  0  0  0
  -28.7970  -14.0310   21.1260 C   0  0  0  0  0  2  0  0  0  0  0  0
  -30.0650  -14.5280   20.5660 N   0  0  0  0  0  0  0  0  0  0  0  0
  -31.8280  -15.8740   20.5290 O   0  0  0  0  0  0  0  0  0  0  0  0
  -29.7910  -17.0970   20.4180 N   0  0  0  0  0  0  0  0  0  0  0  0
  -28.8160  -16.8540   20.3170 H   0  0  0  0  0  0  0  0  0  0  0  0
  -25.4550  -14.2900   20.4960 C   0  0  0  0  0  0  0  0  0  0  0  0
  -24.3640  -13.5150   20.7690 C   0  0  0  0  0  0  0  0  0  0  0  0
  -24.8260  -12.1630   20.7610 C   0  0  0  0  0  0  0  0  0  0  0  0
  -26.5110  -13.4120   20.3260 N   0  0  0  0  0  0  0  0  0  0  0  0
  -26.1390  -12.1250   20.5550 N   0  0  0  0  0  0  0  0  0  0  0  0
  -24.0780  -10.9030   20.8740 C   0  0  0  0  0  0  0  0  0  0  0  0
  -24.4060   -9.9340   21.8480 C   0  0  0  0  0  3  0  0  0  0  0  0
  -23.6580   -8.7410   21.9510 C   0  0  0  0  0  3  0  0  0  0  0  0
  -22.5670   -8.5100   21.0810 C   0  0  0  0  0  0  0  0  0  0  0  0
  -22.2590   -9.4680   20.0980 C   0  0  0  0  0  3  0  0  0  0  0  0
  -23.0080  -10.6510   19.9920 C   0  0  0  0  0  3  0  0  0  0  0  0
  -21.7990   -7.3700   21.0940 O   0  0  0  0  0  0  0  0  0  0  0  0
  -21.5790   -6.6610   22.2480 C   0  0  0  0  0  0  0  0  0  0  0  0
  -20.9870   -7.2520   23.3860 C   0  0  0  0  0  3  0  0  0  0  0  0
  -20.7170   -6.4700   24.5260 C   0  0  0  0  0  3  0  0  0  0  0  0
  -21.0280   -5.0970   24.5280 C   0  0  0  0  0  0  0  0  0  0  0  0
  -21.6120   -4.5050   23.3940 C   0  0  0  0  0  3  0  0  0  0  0  0
  -21.8840   -5.2850   22.2570 C   0  0  0  0  0  0  0  0  0  0  0  0
  -22.4280   -4.7050   21.1600 F   0  0  0  0  0  0  0  0  0  0  0  0
  -20.7620   -4.3430   25.6200 F   0  0  0  0  0  0  0  0  0  0  0  0
  -22.9500  -13.9990   20.9230 C   0  0  0  0  0  0  0  0  0  0  0  0
  -22.1550  -13.3210   21.7420 N   0  0  0  0  0  0  0  0  0  0  0  0
  -22.5580  -15.0160   20.3490 O   0  0  0  0  0  0  0  0  0  0  0  0
  -22.4830  -12.5020   22.2320 H   0  0  0  0  0  0  0  0  0  0  0  0
  -21.2020  -13.6250   21.8820 H   0  0  0  0  0  0  0  0  0  0  0  0
  -25.6340  -15.6600   20.3430 N   0  0  0  0  0  0  0  0  0  0  0  0
  -24.8550  -16.3090   20.3960 H   0  0  0  0  0  0  0  0  0  0  0  0
  -26.4930  -16.1000   20.0410 H   0  0  0  0  0  0  0  0  0  0  0  0
  -28.7680  -24.8880   19.6180 C   0  0  0  0  0  2  0  0  0  0  0  0
  -28.2320  -26.2750   18.8890 O   0  0  0  0  0  0  0  0  0  0  0  0
  -24.7880  -31.6440   23.0510 C   0  0  0  0  0  0  0  0  0  0  0  0
  -27.1850  -27.2870   19.2170 C   0  0  0  0  0  0  0  0  0  0  0  0
  -23.5050  -30.4850   21.3000 C   0  0  0  0  0  3  0  0  0  0  0  0
  -24.8720  -29.1200   19.5850 C   0  0  0  0  0  0  0  0  0  0  0  0
  -26.0580  -30.7560   21.0290 C   0  0  0  0  0  2  0  0  0  0  0  0
  -26.0950  -29.4510   20.1820 C   0  0  0  0  0  0  0  0  0  0  0  0
  -27.2480  -28.5650   19.9670 C   0  0  0  0  0  3  0  0  0  0  0  0
  -25.9220  -27.1100   18.6070 C   0  0  0  0  0  3  0  0  0  0  0  0
  -24.8070  -27.9720   18.7800 C   0  0  0  0  0  3  0  0  0  0  0  0
  -23.6550  -30.0130   19.8290 C   0  0  0  0  0  2  0  0  0  0  0  0
  -24.8090  -30.9830   21.8480 N   0  0  0  0  0  0  0  0  0  0  0  0
  -23.7300  -31.8320   23.6730 O   0  0  0  0  0  0  0  0  0  0  0  0
  -22.8820  -29.3450   22.1490 C   0  0  0  0  0  0  0  0  0  0  0  0
  -21.5500  -29.1630   22.0660 N   0  0  0  0  0  0  0  0  0  0  0  0
  -23.6010  -28.6270   22.8460 O   0  0  0  0  0  0  0  0  0  0  0  0
  -21.0210  -29.7950   21.4820 H   0  0  0  0  0  0  0  0  0  0  0  0
  -18.2320  -27.7610   22.5050 C   0  0  0  0  0  0  0  0  0  0  0  0
  -20.7870  -28.1030   22.7350 C   0  0  0  0  0  3  0  0  0  0  0  0
  -20.9260  -26.7570   21.9860 C   0  0  0  0  0  2  0  0  0  0  0  0
  -19.8070  -26.5120   20.9690 C   0  0  0  0  0  2  0  0  0  0  0  0
  -18.4410  -26.5150   21.6600 C   0  0  0  0  0  2  0  0  0  0  0  0
  -19.3320  -28.5150   22.9970 C   0  0  0  0  0  0  0  0  0  0  0  0
  -19.0770  -29.6810   23.7530 C   0  0  0  0  0  3  0  0  0  0  0  0
  -17.7580  -30.0920   24.0190 C   0  0  0  0  0  3  0  0  0  0  0  0
  -16.6740  -29.3360   23.5400 C   0  0  0  0  0  3  0  0  0  0  0  0
  -16.9130  -28.1710   22.7900 C   0  0  0  0  0  3  0  0  0  0  0  0
  -26.0890  -32.2100   23.6950 C   0  0  0  0  0  3  0  0  0  0  0  0
  -25.7900  -33.5600   24.2080 N   0  0  0  0  0  0  0  0  0  0  0  0
  -26.1510  -34.7050   23.6130 C   0  0  0  0  0  0  0  0  0  0  0  0
  -26.8290  -34.7340   22.5830 O   0  0  0  0  0  0  0  0  0  0  0  0
  -25.1900  -33.6110   25.0180 H   0  0  0  0  0  0  0  0  0  0  0  0
  -24.4760  -36.5820   23.4950 C   0  0  0  0  0  1  0  0  0  0  0  0
  -25.6890  -36.0260   24.2590 C   0  0  0  0  0  3  0  0  0  0  0  0
  -27.8230  -36.7280   25.2530 C   0  0  0  0  0  1  0  0  0  0  0  0
  -26.7480  -37.0580   24.3210 N   0  0  0  0  0  0  0  0  0  0  0  0
  -26.3570  -37.9570   24.5890 H   0  0  0  0  0  0  0  0  0  0  0  0
  -26.6490  -31.3020   24.8590 C   0  0  1  0  0  0  0  0  0  0  0  0
  -25.5990  -30.9610   25.9430 C   0  0  0  0  0  1  0  0  0  0  0  0
  -27.1980  -29.9690   24.3040 C   0  0  0  0  0  1  0  0  0  0  0  0
  -27.8350  -32.0120   25.5520 C   0  0  0  0  0  1  0  0  0  0  0  0
  1  4  1  0
  2 51  1  0
  2  1  1  0
  2  3  1  0
  3 11  1  0
  3  5  1  0
  4  8  1  0
  4  6  1  0
  5  6  2  0
  5 10  1  0
  8  7  1  0
 10  9  1  0
 11 12  2  0
 14 19  1  0
 15 16  1  0
 15 14  1  0
 17 16  1  0
 17 26  1  0
 17 18  1  0
 19 13  1  0
 19 18  1  0
 20 13  2  0
 21 12  1  0
 21 13  1  0
 22 21  1  0
 23 24  2  0
 24 43  1  0
 25 24  1  0
 25 28  1  0
 26 23  1  0
 26 27  1  0
 27 25  2  0
 28 29  1  0
 29 30  2  0
 31 34  1  0
 31 30  1  0
 32 31  2  0
 33 32  1  0
 33 28  2  0
 34 35  1  0
 35 40  2  0
 35 36  1  0
 36 37  2  0
 37 38  1  0
 38 42  1  0
 39 38  2  0
 40 39  1  0
 41 40  1  0
 43 44  1  0
 44 47  1  0
 44 46  1  0
 45 43  2  0
 48 49  1  0
 48 23  1  0
 50 48  1  0
 52 54  1  0
 52 51  1  0
 53 64  2  0
 54 59  1  0
 55 63  1  0
 55 65  1  0
 56 62  1  0
 56 58  1  0
 57 63  1  0
 58 57  1  0
 59 58  2  0
 60 61  1  0
 60 54  2  0
 61 56  2  0
 62 55  1  0
 63 53  1  0
 65 67  2  0
 66 65  1  0
 68 66  1  0
 69 78  2  0
 69 74  1  0
 70 66  1  0
 70 74  1  0
 71 70  1  0
 72 73  1  0
 72 71  1  0
 73 69  1  0
 74 75  2  0
 75 76  1  0
 77 76  2  0
 78 77  1  0
 79 53  1  0
 79 80  1  0
 79 89  1  0
 80 83  1  0
 81 80  1  0
 81 85  1  0
 82 81  2  0
 85 84  1  0
 85 87  1  0
 87 88  1  0
 87 86  1  0
 89 92  1  1
 89 90  1  0
 91 89  1  0
M  ISO  4  13 100  21 100  51 101  52 101
M  END
>  <TORSDO>  (65) 
F 21

>  <SCORE>  (65) 
-12.975

>  <name>  (65) 
64

>  <ligand_id>  (65) 
64

>  <original_smiles>  (65) 
[H]c1c([H])c([H])c2c(c1[H])C([H])([H])C([H])([H])C([H])([H])C2([H])N([H])C(=O)C1([H])N(C(=O)C([H])(N([H])C(=O)C([H])(N([H])C([H])([H])[H])C([H])([H])[H])C(C([H])([H])[H])(C([H])([H])[H])C([H])([H])[H])C([H])([H])c2c([H])c(OC([H])([H])c3c([H])c(C([H])([H])C([H])([H])[H])nc(C([H])([H])C([H])([H])[H])c3C([H])([H])C([H])([H])N([H])C(=O)N3C([H])([H])C([H])([H])C([H])([H])C([H])(n4nc(-c5c([H])c([H])c(Oc6c([H])c([H])c(F)c([H])c6F)c([H])c5[H])c(C(=O)N([H])[H])c4N([H])[H])C3([H])[H])c([H])c([H])c2C1([H])[H]

>  <smiles>  (65) 
[H]c1c([H])c([H])c2c(c1[H])C([H])([H])C([H])([H])C([H])([H])C2([H])N([H])C(=O)C1([H])N(C(=O)C([H])(N([H])C(=O)C([H])(N([H])C([H])([H])[H])C([H])([H])[H])C(C([H])([H])[H])(C([H])([H])[H])C([H])([H])[H])C([H])([H])c2c([H])c(OC([H])([H])c3c([H])c(C([H])([H])C([H])([H])[H])nc(C([H])([H])C([H])([H])[H])c3C([H])([H])C([H])([H])N([H])C(=O)N3C([H])([H])C([H])([H])C([H])([H])C([H])(n4nc(-c5c([H])c([H])c(Oc6c([H])c([H])c(F)c([H])c6F)c([H])c5[H])c(C(=O)N([H])[H])c4N([H])[H])C3([H])[H])c([H])c([H])c2C1([H])[H]

$$$$
65:0:0
     RDKit          3D

 90 98  0  0  1  0  0  0  0  0999 V2000
  -28.9180  -21.9730   20.2370 C   0  0  0  0  0  0  0  0  0  0  0  0
  -31.2360  -21.0180   19.9010 C   0  0  0  0  0  0  0  0  0  0  0  0
  -29.6470  -19.0340   20.1900 C   0  0  0  0  0  0  0  0  0  0  0  0
  -30.3050  -22.1090   20.0220 C   0  0  0  0  0  0  0  0  0  0  0  0
  -28.6800  -20.3490   20.3080 C   0  0  0  0  0  0  0  0  0  0  0  0
  -30.9400  -19.6030   19.9580 C   0  0  0  0  0  0  0  0  0  0  0  0
  -32.6910  -21.4240   19.6690 C   0  0  0  0  0  1  0  0  0  0  0  0
  -30.7780  -23.3760   19.9080 F   0  0  0  0  0  0  0  0  0  0  0  0
  -27.3810  -20.0140   20.5070 F   0  0  0  0  0  0  0  0  0  0  0  0
  -32.2680  -18.5310   19.6760 Cl  0  0  0  0  0  0  0  0  0  0  0  0
  -30.2630  -15.8550   20.1310 C   0  0  0  0  0  0  0  0  0  0  0  0
  -30.3730  -13.2930   19.2750 C   0  0  0  0  0  2  0  0  0  0  0  0
  -29.4650  -12.8360   18.0930 C   0  0  0  0  0  2  0  0  0  0  0  0
  -28.0570  -12.4570   18.5740 C   0  0  0  0  0  2  0  0  0  0  0  0
  -27.5630  -13.4300   19.6680 C   0  0  0  0  0  3  0  0  0  0  0  0
  -28.6230  -13.7800   20.7450 C   0  0  0  0  0  2  0  0  0  0  0  0
  -29.7430  -14.4720   20.0480 N   0  0  0  0  0  0  0  0  0  0  0  0
  -31.4940  -15.7360   19.9540 O   0  0  0  0  0  0  0  0  0  0  0  0
  -29.5170  -17.2650   20.2320 N   0  0  0  0  0  0  0  0  0  0  0  0
  -28.5400  -17.0370   20.3530 H   0  0  0  0  0  0  0  0  0  0  0  0
  -25.2280  -13.9110   20.5370 C   0  0  0  0  0  0  0  0  0  0  0  0
  -24.1890  -13.1120   20.9210 C   0  0  0  0  0  0  0  0  0  0  0  0
  -24.6710  -11.7690   20.8370 C   0  0  0  0  0  0  0  0  0  0  0  0
  -26.2720  -13.0580   20.2300 N   0  0  0  0  0  0  0  0  0  0  0  0
  -25.9530  -11.7600   20.4790 N   0  0  0  0  0  0  0  0  0  0  0  0
  -23.9570  -10.4950   21.0170 C   0  0  0  0  0  0  0  0  0  0  0  0
  -24.3920   -9.5280   21.9500 C   0  0  0  0  0  3  0  0  0  0  0  0
  -23.6720   -8.3250   22.1260 C   0  0  0  0  0  3  0  0  0  0  0  0
  -22.5050   -8.0790   21.3650 C   0  0  0  0  0  0  0  0  0  0  0  0
  -22.0880   -9.0340   20.4220 C   0  0  0  0  0  3  0  0  0  0  0  0
  -22.8080  -10.2280   20.2460 C   0  0  0  0  0  3  0  0  0  0  0  0
  -21.7610   -6.9250   21.4450 O   0  0  0  0  0  0  0  0  0  0  0  0
  -21.6700   -6.2070   22.6100 C   0  0  0  0  0  0  0  0  0  0  0  0
  -21.1410   -6.7680   23.7930 C   0  0  0  0  0  3  0  0  0  0  0  0
  -21.0010   -5.9730   24.9470 C   0  0  0  0  0  3  0  0  0  0  0  0
  -21.3840   -4.6180   24.9220 C   0  0  0  0  0  0  0  0  0  0  0  0
  -21.9060   -4.0570   23.7430 C   0  0  0  0  0  3  0  0  0  0  0  0
  -22.0470   -4.8490   22.5900 C   0  0  0  0  0  0  0  0  0  0  0  0
  -22.5320   -4.2980   21.4510 F   0  0  0  0  0  0  0  0  0  0  0  0
  -21.2410   -3.8520   26.0280 F   0  0  0  0  0  0  0  0  0  0  0  0
  -22.7950  -13.5700   21.2330 C   0  0  0  0  0  0  0  0  0  0  0  0
  -22.0980  -12.8620   22.1120 N   0  0  0  0  0  0  0  0  0  0  0  0
  -22.3340  -14.5960   20.7350 O   0  0  0  0  0  0  0  0  0  0  0  0
  -22.4850  -12.0370   22.5460 H   0  0  0  0  0  0  0  0  0  0  0  0
  -21.1630  -13.1530   22.3580 H   0  0  0  0  0  0  0  0  0  0  0  0
  -25.3620  -15.2880   20.3890 N   0  0  0  0  0  0  0  0  0  0  0  0
  -24.5810  -15.9130   20.5570 H   0  0  0  0  0  0  0  0  0  0  0  0
  -26.1630  -15.7540   19.9870 H   0  0  0  0  0  0  0  0  0  0  0  0
  -27.9340  -23.6170   20.3040 C   0  0  0  0  0  2  0  0  0  0  0  0
  -28.1550  -25.4170   20.3270 O   0  0  0  0  0  0  0  0  0  0  0  0
  -24.6760  -31.8660   23.2240 C   0  0  0  0  0  0  0  0  0  0  0  0
  -27.1980  -26.6810   20.2850 C   0  0  0  0  0  0  0  0  0  0  0  0
  -23.4980  -30.4610   21.5880 C   0  0  0  0  0  3  0  0  0  0  0  0
  -24.9480  -28.7830   20.1990 C   0  0  0  0  0  0  0  0  0  0  0  0
  -26.0820  -30.5660   21.4930 C   0  0  0  0  0  2  0  0  0  0  0  0
  -26.1450  -29.1210   20.8430 C   0  0  0  0  0  0  0  0  0  0  0  0
  -27.2500  -28.1010   20.8470 C   0  0  0  0  0  3  0  0  0  0  0  0
  -25.9670  -26.5800   19.5810 C   0  0  0  0  0  3  0  0  0  0  0  0
  -24.9040  -27.5420   19.5420 C   0  0  0  0  0  3  0  0  0  0  0  0
  -23.7500  -29.7520   20.2260 C   0  0  0  0  0  2  0  0  0  0  0  0
  -24.7770  -31.0000   22.1530 N   0  0  0  0  0  0  0  0  0  0  0  0
  -23.5790  -32.1760   23.7200 O   0  0  0  0  0  0  0  0  0  0  0  0
  -22.7630  -29.4990   22.5620 C   0  0  0  0  0  0  0  0  0  0  0  0
  -21.4300  -29.3530   22.4290 N   0  0  0  0  0  0  0  0  0  0  0  0
  -23.4060  -28.8790   23.4130 O   0  0  0  0  0  0  0  0  0  0  0  0
  -20.9620  -29.9010   21.7200 H   0  0  0  0  0  0  0  0  0  0  0  0
  -18.0290  -28.1640   22.9390 C   0  0  0  0  0  0  0  0  0  0  0  0
  -20.5910  -28.4260   23.2010 C   0  0  0  0  0  3  0  0  0  0  0  0
  -20.6860  -26.9900   22.6330 C   0  0  0  0  0  2  0  0  0  0  0  0
  -19.5860  -26.6690   21.6170 C   0  0  0  0  0  2  0  0  0  0  0  0
  -18.2040  -26.8160   22.2600 C   0  0  0  0  0  2  0  0  0  0  0  0
  -19.1490  -28.9260   23.3660 C   0  0  0  0  0  0  0  0  0  0  0  0
  -18.9310  -30.1820   23.9730 C   0  0  0  0  0  3  0  0  0  0  0  0
  -17.6250  -30.6810   24.1450 C   0  0  0  0  0  3  0  0  0  0  0  0
  -16.5190  -29.9160   23.7310 C   0  0  0  0  0  3  0  0  0  0  0  0
  -16.7230  -28.6590   23.1350 C   0  0  0  0  0  3  0  0  0  0  0  0
  -25.9330  -32.5190   23.8730 C   0  0  0  0  0  3  0  0  0  0  0  0
  -25.6090  -33.9240   24.1970 N   0  0  0  0  0  0  0  0  0  0  0  0
  -25.9260  -34.9850   23.4420 C   0  0  0  0  0  0  0  0  0  0  0  0
  -26.5730  -34.8860   22.3980 O   0  0  0  0  0  0  0  0  0  0  0  0
  -25.0270  -34.0730   25.0080 H   0  0  0  0  0  0  0  0  0  0  0  0
  -24.1790  -36.7800   23.1510 C   0  0  0  0  0  1  0  0  0  0  0  0
  -25.4500  -36.3760   23.9170 C   0  0  0  0  0  3  0  0  0  0  0  0
  -27.6030  -37.2880   24.6730 C   0  0  0  0  0  1  0  0  0  0  0  0
  -26.4730  -37.4360   23.7590 N   0  0  0  0  0  0  0  0  0  0  0  0
  -26.0660  -38.3560   23.9050 H   0  0  0  0  0  0  0  0  0  0  0  0
  -26.4130  -31.7710   25.1810 C   0  0  1  0  0  0  0  0  0  0  0  0
  -25.2950  -31.5580   26.2290 C   0  0  0  0  0  1  0  0  0  0  0  0
  -26.9980  -30.3830   24.8430 C   0  0  0  0  0  1  0  0  0  0  0  0
  -27.5550  -32.5720   25.8520 C   0  0  0  0  0  1  0  0  0  0  0  0
  1 49  1  0
  1  5  1  0
  2  6  2  0
  2  4  1  0
  3 19  1  0
  3  5  2  0
  4  1  2  0
  5  9  1  0
  6  3  1  0
  7  2  1  0
  8  4  1  0
 10  6  1  0
 11 19  1  0
 12 17  1  0
 13 14  1  0
 13 12  1  0
 15 14  1  0
 15 24  1  0
 15 16  1  0
 17 11  1  0
 17 16  1  0
 18 11  2  0
 19 20  1  0
 21 22  2  0
 22 41  1  0
 23 22  1  0
 23 26  1  0
 24 25  1  0
 24 21  1  0
 25 23  2  0
 26 27  1  0
 27 28  2  0
 29 32  1  0
 29 28  1  0
 30 29  2  0
 31 30  1  0
 31 26  2  0
 32 33  1  0
 33 34  1  0
 34 35  2  0
 36 35  1  0
 36 40  1  0
 37 36  2  0
 38 33  2  0
 38 37  1  0
 39 38  1  0
 41 42  1  0
 42 45  1  0
 42 44  1  0
 43 41  2  0
 46 21  1  0
 46 47  1  0
 48 46  1  0
 49 50  1  0
 51 62  2  0
 52 50  1  0
 52 57  1  0
 53 61  1  0
 53 63  1  0
 54 60  1  0
 54 56  1  0
 55 61  1  0
 56 57  2  0
 56 55  1  0
 58 52  2  0
 59 58  1  0
 59 54  2  0
 60 53  1  0
 61 51  1  0
 63 65  2  0
 64 63  1  0
 66 64  1  0
 67 76  2  0
 67 72  1  0
 68 64  1  0
 68 72  1  0
 69 68  1  0
 70 71  1  0
 70 69  1  0
 71 67  1  0
 72 73  2  0
 73 74  1  0
 75 74  2  0
 76 75  1  0
 77 51  1  0
 77 78  1  0
 77 87  1  0
 78 81  1  0
 79 83  1  0
 79 78  1  0
 80 79  2  0
 83 82  1  0
 85 86  1  0
 85 83  1  0
 85 84  1  0
 87 90  1  1
 87 88  1  0
 89 87  1  0
M  ISO  4  11 100  19 100  49 101  50 101
M  END
>  <TORSDO>  (66) 
F 17

>  <SCORE>  (66) 
-16.616

>  <name>  (66) 
65

>  <ligand_id>  (66) 
65

>  <original_smiles>  (66) 
[H]c1c([H])c([H])c2c(c1[H])C([H])([H])C([H])([H])C([H])([H])C2([H])N([H])C(=O)C1([H])N(C(=O)C([H])(N([H])C(=O)C([H])(N([H])C([H])([H])[H])C([H])([H])[H])C(C([H])([H])[H])(C([H])([H])[H])C([H])([H])[H])C([H])([H])c2c([H])c(OC([H])([H])c3c(F)c(N([H])C(=O)N4C([H])([H])C([H])([H])C([H])([H])C([H])(n5nc(-c6c([H])c([H])c(Oc7c([H])c([H])c(F)c([H])c7F)c([H])c6[H])c(C(=O)N([H])[H])c5N([H])[H])C4([H])[H])c(Cl)c(C([H])([H])[H])c3F)c([H])c([H])c2C1([H])[H]

>  <smiles>  (66) 
[H]c1c([H])c([H])c2c(c1[H])C([H])([H])C([H])([H])C([H])([H])C2([H])N([H])C(=O)C1([H])N(C(=O)C([H])(N([H])C(=O)C([H])(N([H])C([H])([H])[H])C([H])([H])[H])C(C([H])([H])[H])(C([H])([H])[H])C([H])([H])[H])C([H])([H])c2c([H])c(OC([H])([H])c3c(F)c(N([H])C(=O)N4C([H])([H])C([H])([H])C([H])([H])C([H])(n5nc(-c6c([H])c([H])c(Oc7c([H])c([H])c(F)c([H])c7F)c([H])c6[H])c(C(=O)N([H])[H])c5N([H])[H])C4([H])[H])c(Cl)c(C([H])([H])[H])c3F)c([H])c([H])c2C1([H])[H]

$$$$
66:0:0
     RDKit          3D

 90 98  0  0  1  0  0  0  0  0999 V2000
  -28.7420  -20.2990   19.2110 C   0  0  0  0  0  3  0  0  0  0  0  0
  -29.2420  -21.2650   20.1760 C   0  0  0  0  0  0  0  0  0  0  0  0
  -28.9380  -18.8270   19.1950 C   0  0  0  0  0  0  0  0  0  0  0  0
  -29.9940  -20.4710   21.1510 C   0  0  0  0  0  0  0  0  0  0  0  0
  -30.2120  -18.9870   21.1370 C   0  0  0  0  0  0  0  0  0  0  0  0
  -29.7280  -18.0420   20.1330 C   0  0  0  0  0  0  0  0  0  0  0  0
  -28.2370  -18.0430   18.1010 C   0  0  0  0  0  1  0  0  0  0  0  0
  -30.6280  -21.2760   22.2810 C   0  0  0  0  0  1  0  0  0  0  0  0
  -30.9920  -18.3710   22.2910 C   0  0  0  0  0  1  0  0  0  0  0  0
  -30.5900  -15.2620   19.9770 C   0  0  0  0  0  0  0  0  0  0  0  0
  -30.5440  -12.8510   19.0460 C   0  0  0  0  0  2  0  0  0  0  0  0
  -29.5500  -12.7060   17.8650 C   0  0  0  0  0  2  0  0  0  0  0  0
  -28.1210  -12.4430   18.3750 C   0  0  0  0  0  2  0  0  0  0  0  0
  -27.7450  -13.3700   19.5590 C   0  0  0  0  0  3  0  0  0  0  0  0
  -28.8550  -13.4470   20.6270 C   0  0  0  0  0  2  0  0  0  0  0  0
  -30.0590  -13.9510   19.9480 N   0  0  0  0  0  0  0  0  0  0  0  0
  -31.7840  -15.3330   19.6500 O   0  0  0  0  0  0  0  0  0  0  0  0
  -29.7430  -16.4380   20.1950 N   0  0  0  0  0  0  0  0  0  0  0  0
  -28.8160  -16.0950   20.3960 H   0  0  0  0  0  0  0  0  0  0  0  0
  -25.4220  -13.9130   20.4660 C   0  0  0  0  0  0  0  0  0  0  0  0
  -24.3810  -13.1250   20.8740 C   0  0  0  0  0  0  0  0  0  0  0  0
  -24.8420  -11.7760   20.7700 C   0  0  0  0  0  0  0  0  0  0  0  0
  -26.4450  -13.0450   20.1290 N   0  0  0  0  0  0  0  0  0  0  0  0
  -26.1120  -11.7520   20.3790 N   0  0  0  0  0  0  0  0  0  0  0  0
  -24.1240  -10.5080   20.9580 C   0  0  0  0  0  0  0  0  0  0  0  0
  -24.5680   -9.5360   21.8820 C   0  0  0  0  0  3  0  0  0  0  0  0
  -23.8470   -8.3360   22.0600 C   0  0  0  0  0  3  0  0  0  0  0  0
  -22.6680   -8.1000   21.3140 C   0  0  0  0  0  0  0  0  0  0  0  0
  -22.2430   -9.0590   20.3790 C   0  0  0  0  0  3  0  0  0  0  0  0
  -22.9650  -10.2510   20.1990 C   0  0  0  0  0  3  0  0  0  0  0  0
  -21.9160   -6.9520   21.4020 O   0  0  0  0  0  0  0  0  0  0  0  0
  -21.8180   -6.2440   22.5740 C   0  0  0  0  0  0  0  0  0  0  0  0
  -21.3020   -6.8240   23.7540 C   0  0  0  0  0  3  0  0  0  0  0  0
  -21.1540   -6.0420   24.9170 C   0  0  0  0  0  3  0  0  0  0  0  0
  -21.5120   -4.6800   24.8990 C   0  0  0  0  0  0  0  0  0  0  0  0
  -22.0210   -4.1000   23.7240 C   0  0  0  0  0  3  0  0  0  0  0  0
  -22.1700   -4.8800   22.5640 C   0  0  0  0  0  0  0  0  0  0  0  0
  -22.6410   -4.3110   21.4280 F   0  0  0  0  0  0  0  0  0  0  0  0
  -21.3640   -3.9250   26.0130 F   0  0  0  0  0  0  0  0  0  0  0  0
  -23.0040  -13.5930   21.2420 C   0  0  0  0  0  0  0  0  0  0  0  0
  -22.3290  -12.8750   22.1320 N   0  0  0  0  0  0  0  0  0  0  0  0
  -22.5380  -14.6330   20.7750 O   0  0  0  0  0  0  0  0  0  0  0  0
  -22.7210  -12.0330   22.5280 H   0  0  0  0  0  0  0  0  0  0  0  0
  -21.4080  -13.1690   22.4200 H   0  0  0  0  0  0  0  0  0  0  0  0
  -25.5740  -15.2890   20.3210 N   0  0  0  0  0  0  0  0  0  0  0  0
  -24.8060  -15.9300   20.4900 H   0  0  0  0  0  0  0  0  0  0  0  0
  -26.3700  -15.7350   19.8870 H   0  0  0  0  0  0  0  0  0  0  0  0
  -29.2470  -23.0020   20.0080 C   0  0  0  0  0  3  0  0  0  0  0  0
  -28.1700  -24.3760   20.3320 C   0  0  0  0  0  3  0  0  0  0  0  0
  -28.3920  -25.9930   20.2210 O   0  0  0  0  0  0  0  0  0  0  0  0
  -24.7210  -31.8490   23.1970 C   0  0  0  0  0  0  0  0  0  0  0  0
  -27.3510  -27.0470   20.1840 C   0  0  0  0  0  0  0  0  0  0  0  0
  -23.5560  -30.4530   21.5380 C   0  0  0  0  0  3  0  0  0  0  0  0
  -25.0320  -28.8760   20.1240 C   0  0  0  0  0  0  0  0  0  0  0  0
  -26.1180  -30.7020   21.4140 C   0  0  0  0  0  2  0  0  0  0  0  0
  -26.2090  -29.2990   20.7540 C   0  0  0  0  0  0  0  0  0  0  0  0
  -27.3660  -28.4060   20.7580 C   0  0  0  0  0  3  0  0  0  0  0  0
  -26.1420  -26.7640   19.5110 C   0  0  0  0  0  3  0  0  0  0  0  0
  -25.0200  -27.6290   19.4820 C   0  0  0  0  0  3  0  0  0  0  0  0
  -23.8040  -29.7830   20.1600 C   0  0  0  0  0  2  0  0  0  0  0  0
  -24.8190  -31.0260   22.1040 N   0  0  0  0  0  0  0  0  0  0  0  0
  -23.6260  -32.1250   23.7110 O   0  0  0  0  0  0  0  0  0  0  0  0
  -22.8650  -29.4400   22.4890 C   0  0  0  0  0  0  0  0  0  0  0  0
  -21.5340  -29.2780   22.3640 N   0  0  0  0  0  0  0  0  0  0  0  0
  -23.5320  -28.8040   23.3080 O   0  0  0  0  0  0  0  0  0  0  0  0
  -21.0500  -29.8450   21.6810 H   0  0  0  0  0  0  0  0  0  0  0  0
  -18.1460  -28.0960   22.8840 C   0  0  0  0  0  0  0  0  0  0  0  0
  -20.7120  -28.3320   23.1240 C   0  0  0  0  0  3  0  0  0  0  0  0
  -20.7920  -26.9120   22.5180 C   0  0  0  0  0  2  0  0  0  0  0  0
  -19.6750  -26.6220   21.5100 C   0  0  0  0  0  2  0  0  0  0  0  0
  -18.3020  -26.7620   22.1740 C   0  0  0  0  0  2  0  0  0  0  0  0
  -19.2770  -28.8400   23.3160 C   0  0  0  0  0  0  0  0  0  0  0  0
  -19.0730  -30.0870   23.9450 C   0  0  0  0  0  3  0  0  0  0  0  0
  -17.7740  -30.5920   24.1450 C   0  0  0  0  0  3  0  0  0  0  0  0
  -16.6590  -29.8450   23.7270 C   0  0  0  0  0  3  0  0  0  0  0  0
  -16.8460  -28.6000   23.1020 C   0  0  0  0  0  3  0  0  0  0  0  0
  -25.9820  -32.4990   23.8430 C   0  0  0  0  0  3  0  0  0  0  0  0
  -25.6460  -33.8900   24.1890 N   0  0  0  0  0  0  0  0  0  0  0  0
  -25.9420  -34.9610   23.4400 C   0  0  0  0  0  0  0  0  0  0  0  0
  -26.5890  -34.8820   22.3920 O   0  0  0  0  0  0  0  0  0  0  0  0
  -25.0690  -34.0240   25.0070 H   0  0  0  0  0  0  0  0  0  0  0  0
  -24.1570  -36.7180   23.1710 C   0  0  0  0  0  1  0  0  0  0  0  0
  -25.4420  -36.3370   23.9260 C   0  0  0  0  0  3  0  0  0  0  0  0
  -27.5820  -37.2760   24.6780 C   0  0  0  0  0  1  0  0  0  0  0  0
  -26.4430  -37.4160   23.7760 N   0  0  0  0  0  0  0  0  0  0  0  0
  -26.0190  -38.3250   23.9400 H   0  0  0  0  0  0  0  0  0  0  0  0
  -26.4870  -31.7260   25.1240 C   0  0  1  0  0  0  0  0  0  0  0  0
  -25.3810  -31.4740   26.1750 C   0  0  0  0  0  1  0  0  0  0  0  0
  -27.0900  -30.3550   24.7410 C   0  0  0  0  0  1  0  0  0  0  0  0
  -27.6210  -32.5280   25.8080 C   0  0  0  0  0  1  0  0  0  0  0  0
  1  2  1  0
  2  4  2  0
  3  1  2  0
  3  6  1  0
  4  8  1  0
  5  4  1  0
  5  9  1  0
  6 18  1  0
  6  5  2  0
  7  3  1  0
 10 18  1  0
 11 16  1  0
 12 13  1  0
 12 11  1  0
 14 13  1  0
 14 23  1  0
 14 15  1  0
 16 10  1  0
 16 15  1  0
 17 10  2  0
 18 19  1  0
 20 21  2  0
 21 40  1  0
 22 21  1  0
 22 25  1  0
 23 24  1  0
 23 20  1  0
 24 22  2  0
 25 26  1  0
 26 27  2  0
 28 31  1  0
 28 27  1  0
 29 28  2  0
 30 29  1  0
 30 25  2  0
 31 32  1  0
 32 33  1  0
 33 34  2  0
 35 34  1  0
 35 39  1  0
 36 35  2  0
 37 32  2  0
 37 36  1  0
 38 37  1  0
 40 41  1  0
 41 44  1  0
 41 43  1  0
 42 40  2  0
 45 20  1  0
 45 46  1  0
 47 45  1  0
 48  2  1  0
 48 49  2  0
 50 49  1  0
 51 62  2  0
 52 50  1  0
 52 57  1  0
 53 61  1  0
 53 63  1  0
 54 60  1  0
 54 56  1  0
 55 61  1  0
 56 57  2  0
 56 55  1  0
 58 52  2  0
 59 58  1  0
 59 54  2  0
 60 53  1  0
 61 51  1  0
 63 65  2  0
 64 63  1  0
 66 64  1  0
 67 76  2  0
 67 72  1  0
 68 64  1  0
 68 72  1  0
 69 68  1  0
 70 71  1  0
 70 69  1  0
 71 67  1  0
 72 73  2  0
 73 74  1  0
 75 74  2  0
 76 75  1  0
 77 51  1  0
 77 78  1  0
 77 87  1  0
 78 81  1  0
 79 83  1  0
 79 78  1  0
 80 79  2  0
 83 82  1  0
 85 83  1  0
 85 86  1  0
 85 84  1  0
 87 90  1  1
 87 88  1  0
 89 87  1  0
M  ISO  4  10 100  18 100  49 101  50 101
M  END
>  <TORSDO>  (67) 
F 18

>  <SCORE>  (67) 
-15.744

>  <name>  (67) 
66

>  <ligand_id>  (67) 
66

>  <original_smiles>  (67) 
[H]c1c([H])c([H])c2c(c1[H])C([H])([H])C([H])([H])C([H])([H])C2([H])N([H])C(=O)C1([H])N(C(=O)C([H])(N([H])C(=O)C([H])(N([H])C([H])([H])[H])C([H])([H])[H])C(C([H])([H])[H])(C([H])([H])[H])C([H])([H])[H])C([H])([H])c2c([H])c(OC([H])([H])C([H])([H])c3c([H])c(C([H])([H])[H])c(N([H])C(=O)N4C([H])([H])C([H])([H])C([H])([H])C([H])(n5nc(-c6c([H])c([H])c(Oc7c([H])c([H])c(F)c([H])c7F)c([H])c6[H])c(C(=O)N([H])[H])c5N([H])[H])C4([H])[H])c(C([H])([H])[H])c3C([H])([H])[H])c([H])c([H])c2C1([H])[H]

>  <smiles>  (67) 
[H]c1c([H])c([H])c2c(c1[H])C([H])([H])C([H])([H])C([H])([H])C2([H])N([H])C(=O)C1([H])N(C(=O)C([H])(N([H])C(=O)C([H])(N([H])C([H])([H])[H])C([H])([H])[H])C(C([H])([H])[H])(C([H])([H])[H])C([H])([H])[H])C([H])([H])c2c([H])c(OC([H])([H])C([H])([H])c3c([H])c(C([H])([H])[H])c(N([H])C(=O)N4C([H])([H])C([H])([H])C([H])([H])C([H])(n5nc(-c6c([H])c([H])c(Oc7c([H])c([H])c(F)c([H])c7F)c([H])c6[H])c(C(=O)N([H])[H])c5N([H])[H])C4([H])[H])c(C([H])([H])[H])c3C([H])([H])[H])c([H])c([H])c2C1([H])[H]

$$$$
67:0:0
     RDKit          3D

 98106  0  0  1  0  0  0  0  0999 V2000
  -26.0140  -21.8530   18.0310 C   0  0  0  0  0  3  0  0  0  0  0  0
  -25.0090  -20.8460   17.9440 C   0  0  0  0  0  0  0  0  0  0  0  0
  -27.2460  -21.6120   18.7090 C   0  0  0  0  0  0  0  0  0  0  0  0
  -25.3930  -19.4960   18.1850 C   0  0  0  0  0  0  0  0  0  0  0  0
  -27.3820  -20.3280   19.2840 C   0  0  0  0  0  0  0  0  0  0  0  0
  -26.6820  -19.2430   18.7350 C   0  0  0  0  0  0  0  0  0  0  0  0
  -23.5710  -21.2100   17.5950 C   0  0  0  0  0  1  0  0  0  0  0  0
  -24.4190  -18.3500   17.9640 C   0  0  0  0  0  1  0  0  0  0  0  0
  -27.9320  -20.2440   20.7070 C   0  0  0  0  0  1  0  0  0  0  0  0
  -26.6320  -16.9740   19.5930 C   0  0  0  0  0  1  0  0  0  0  0  0
  -27.2530  -17.9660   18.7110 N   0  0  0  0  0  0  0  0  0  0  0  0
  -28.6980  -17.9730   18.4130 C   0  0  0  0  0  2  0  0  0  0  0  0
  -29.5300  -17.3340   19.5620 C   0  0  0  0  0  2  0  0  0  0  0  0
  -30.6410  -16.3200   19.2640 C   0  0  0  0  0  2  0  0  0  0  0  0
  -31.7930  -14.6950   20.7370 C   0  0  0  0  0  0  0  0  0  0  0  0
  -31.8460  -12.2620   21.0880 C   0  0  0  0  0  2  0  0  0  0  0  0
  -31.1800  -11.6310   19.8430 C   0  0  0  0  0  2  0  0  0  0  0  0
  -29.6510  -11.5360   20.0500 C   0  0  0  0  0  2  0  0  0  0  0  0
  -29.0360  -12.8800   20.5440 C   0  0  0  0  0  3  0  0  0  0  0  0
  -29.8460  -13.4360   21.7450 C   0  0  0  0  0  2  0  0  0  0  0  0
  -31.2490  -13.5840   21.3100 N   0  0  0  0  0  0  0  0  0  0  0  0
  -32.9320  -14.7580   20.2720 O   0  0  0  0  0  0  0  0  0  0  0  0
  -30.9190  -15.6810   20.5560 N   0  0  0  0  0  0  0  0  0  0  0  0
  -30.1070  -15.6610   21.1570 H   0  0  0  0  0  0  0  0  0  0  0  0
  -26.6850  -13.7100   21.1560 C   0  0  0  0  0  0  0  0  0  0  0  0
  -25.4930  -13.0590   21.3500 C   0  0  0  0  0  0  0  0  0  0  0  0
  -25.7830  -11.6780   21.1420 C   0  0  0  0  0  0  0  0  0  0  0  0
  -27.6210  -12.7340   20.8740 N   0  0  0  0  0  0  0  0  0  0  0  0
  -27.0760  -11.4970   20.9090 N   0  0  0  0  0  0  0  0  0  0  0  0
  -24.8910  -10.5170   21.1000 C   0  0  0  0  0  0  0  0  0  0  0  0
  -24.9480   -9.5120   22.0890 C   0  0  0  0  0  3  0  0  0  0  0  0
  -24.0750   -8.4060   22.0310 C   0  0  0  0  0  3  0  0  0  0  0  0
  -23.1250   -8.3100   20.9840 C   0  0  0  0  0  0  0  0  0  0  0  0
  -23.0900   -9.3040   19.9900 C   0  0  0  0  0  3  0  0  0  0  0  0
  -23.9660  -10.4000   20.0480 C   0  0  0  0  0  3  0  0  0  0  0  0
  -22.2490   -7.2600   20.8350 O   0  0  0  0  0  0  0  0  0  0  0  0
  -21.6150   -6.7000   21.9110 C   0  0  0  0  0  0  0  0  0  0  0  0
  -20.8110   -7.4640   22.7830 C   0  0  0  0  0  3  0  0  0  0  0  0
  -20.1220   -6.8360   23.8390 C   0  0  0  0  0  3  0  0  0  0  0  0
  -20.2270   -5.4440   24.0170 C   0  0  0  0  0  0  0  0  0  0  0  0
  -21.0280   -4.6790   23.1470 C   0  0  0  0  0  3  0  0  0  0  0  0
  -21.7190   -5.3070   22.0980 C   0  0  0  0  0  0  0  0  0  0  0  0
  -22.4740   -4.5650   21.2520 F   0  0  0  0  0  0  0  0  0  0  0  0
  -19.5580   -4.8330   25.0250 F   0  0  0  0  0  0  0  0  0  0  0  0
  -24.1550  -13.6940   21.5930 C   0  0  0  0  0  0  0  0  0  0  0  0
  -23.2900  -13.0120   22.3450 N   0  0  0  0  0  0  0  0  0  0  0  0
  -23.8660  -14.8020   21.1510 O   0  0  0  0  0  0  0  0  0  0  0  0
  -23.5220  -12.1060   22.7190 H   0  0  0  0  0  0  0  0  0  0  0  0
  -22.3870  -13.4140   22.5480 H   0  0  0  0  0  0  0  0  0  0  0  0
  -27.0600  -15.0390   21.1840 N   0  0  0  0  0  0  0  0  0  0  0  0
  -26.4780  -15.7850   21.5350 H   0  0  0  0  0  0  0  0  0  0  0  0
  -28.0170  -15.3490   21.0810 H   0  0  0  0  0  0  0  0  0  0  0  0
  -28.4180  -22.6230   18.9430 C   0  0  0  0  0  2  0  0  0  0  0  0
  -28.6980  -23.6830   16.6590 C   0  0  0  0  0  1  0  0  0  0  0  0
  -27.0200  -24.5770   18.3990 C   0  0  0  0  0  1  0  0  0  0  0  0
  -28.4540  -23.9980   18.1710 C   0  0  1  0  0  0  0  0  0  0  0  0
  -29.7000  -24.9230   18.7230 C   0  0  0  0  0  2  0  0  0  0  0  0
  -30.1240  -26.3540   18.8950 O   0  0  0  0  0  0  0  0  0  0  0  0
  -25.7650  -29.6700   23.5450 C   0  0  0  0  0  0  0  0  0  0  0  0
  -29.1330  -27.3030   19.1040 C   0  0  0  0  0  0  0  0  0  0  0  0
  -24.9580  -29.2500   21.2480 C   0  0  0  0  0  3  0  0  0  0  0  0
  -26.7400  -28.7090   19.5030 C   0  0  0  0  0  0  0  0  0  0  0  0
  -27.4470  -29.6290   21.7070 C   0  0  0  0  0  2  0  0  0  0  0  0
  -27.7340  -28.7640   20.4880 C   0  0  0  0  0  0  0  0  0  0  0  0
  -28.9320  -28.0170   20.3240 C   0  0  0  0  0  3  0  0  0  0  0  0
  -28.2470  -27.5230   18.0520 C   0  0  0  0  0  3  0  0  0  0  0  0
  -26.9980  -28.1060   18.2790 C   0  0  0  0  0  3  0  0  0  0  0  0
  -25.4100  -29.3670   19.7610 C   0  0  0  0  0  2  0  0  0  0  0  0
  -26.0650  -29.5080   22.2220 N   0  0  0  0  0  0  0  0  0  0  0  0
  -24.5930  -29.6520   23.9420 O   0  0  0  0  0  0  0  0  0  0  0  0
  -24.2850  -27.8800   21.4560 C   0  0  0  0  0  0  0  0  0  0  0  0
  -23.0710  -27.7130   20.8980 N   0  0  0  0  0  0  0  0  0  0  0  0
  -24.8570  -26.9780   22.0720 O   0  0  0  0  0  0  0  0  0  0  0  0
  -22.6490  -28.5270   20.4750 H   0  0  0  0  0  0  0  0  0  0  0  0
  -19.9980  -26.2240   19.6200 C   0  0  0  0  0  0  0  0  0  0  0  0
  -22.2220  -26.5050   20.8960 C   0  0  0  0  0  3  0  0  0  0  0  0
  -22.7770  -25.4030   19.9580 C   0  0  0  0  0  2  0  0  0  0  0  0
  -22.1240  -25.3610   18.5790 C   0  0  0  0  0  2  0  0  0  0  0  0
  -20.6110  -25.1760   18.7070 C   0  0  0  0  0  2  0  0  0  0  0  0
  -20.7550  -26.8410   20.6440 C   0  0  0  0  0  0  0  0  0  0  0  0
  -20.1250  -27.7990   21.4650 C   0  0  0  0  0  3  0  0  0  0  0  0
  -18.7700  -28.1440   21.2850 C   0  0  0  0  0  3  0  0  0  0  0  0
  -18.0210  -27.5310   20.2790 C   0  0  0  0  0  3  0  0  0  0  0  0
  -18.6400  -26.5680   19.4460 C   0  0  0  0  0  3  0  0  0  0  0  0
  -26.8740  -29.9050   24.6130 C   0  0  0  0  0  3  0  0  0  0  0  0
  -26.5330  -31.1160   25.3740 N   0  0  0  0  0  0  0  0  0  0  0  0
  -27.1090  -32.3140   25.1880 C   0  0  0  0  0  0  0  0  0  0  0  0
  -28.0340  -32.5040   24.3970 O   0  0  0  0  0  0  0  0  0  0  0  0
  -25.7630  -31.0480   26.0230 H   0  0  0  0  0  0  0  0  0  0  0  0
  -25.6130  -34.3300   25.1090 C   0  0  0  0  0  1  0  0  0  0  0  0
  -26.5500  -33.4950   25.9970 C   0  0  0  0  0  3  0  0  0  0  0  0
  -28.3750  -33.7090   27.6320 C   0  0  0  0  0  1  0  0  0  0  0  0
  -27.6080  -34.3550   26.5680 N   0  0  0  0  0  0  0  0  0  0  0  0
  -27.2070  -35.2050   26.9540 H   0  0  0  0  0  0  0  0  0  0  0  0
  -27.1080  -28.6740   25.5730 C   0  0  1  0  0  0  0  0  0  0  0  0
  -25.8230  -28.1530   26.2510 C   0  0  0  0  0  1  0  0  0  0  0  0
  -27.7360  -27.4890   24.8040 C   0  0  0  0  0  1  0  0  0  0  0  0
  -28.1240  -29.0550   26.6710 C   0  0  0  0  0  1  0  0  0  0  0  0
  1  3  1  0
  2  1  2  0
  2  4  1  0
  3 53  1  0
  3  5  2  0
  4  6  2  0
  5  9  1  0
  6  5  1  0
  7  2  1  0
  8  4  1  0
 11  6  1  0
 11 10  1  0
 12 11  1  0
 12 13  1  0
 14 13  1  0
 14 23  1  0
 15 21  1  0
 16 21  1  0
 17 18  1  0
 17 16  1  0
 19 18  1  0
 19 28  1  0
 19 20  1  0
 21 20  1  0
 22 15  2  0
 23 15  1  0
 23 24  1  0
 25 50  1  0
 25 26  2  0
 26 45  1  0
 27 26  1  0
 28 29  1  0
 28 25  1  0
 29 27  2  0
 30 27  1  0
 30 31  1  0
 32 31  2  0
 33 32  1  0
 34 35  1  0
 34 33  2  0
 35 30  2  0
 36 33  1  0
 36 37  1  0
 37 42  2  0
 37 38  1  0
 38 39  2  0
 39 40  1  0
 40 44  1  0
 41 40  2  0
 42 41  1  0
 43 42  1  0
 45 46  1  0
 46 49  1  0
 46 48  1  0
 47 45  2  0
 50 51  1  0
 52 50  1  0
 56 54  1  6
 56 55  1  0
 56 57  1  0
 56 53  1  0
 57 58  1  0
 58 60  1  0
 59 70  2  0
 60 65  1  0
 61 71  1  0
 61 69  1  0
 62 68  1  0
 62 64  1  0
 63 69  1  0
 64 63  1  0
 65 64  2  0
 66 67  1  0
 66 60  2  0
 67 62  2  0
 68 61  1  0
 69 59  1  0
 71 73  2  0
 72 71  1  0
 74 72  1  0
 75 80  1  0
 76 72  1  0
 77 76  1  0
 78 79  1  0
 78 77  1  0
 79 75  1  0
 80 76  1  0
 80 81  2  0
 82 81  1  0
 83 82  2  0
 84 75  2  0
 84 83  1  0
 85 59  1  0
 85 86  1  0
 85 95  1  0
 86 89  1  0
 87 86  1  0
 87 91  1  0
 88 87  2  0
 91 90  1  0
 91 93  1  0
 93 94  1  0
 93 92  1  0
 95 96  1  1
 95 98  1  0
 97 95  1  0
M  ISO  4  15 100  23 100  57 101  58 101
M  END
>  <TORSDO>  (68) 
F 23

>  <SCORE>  (68) 
-2.215

>  <name>  (68) 
67

>  <ligand_id>  (68) 
67

>  <original_smiles>  (68) 
[H]c1c([H])c([H])c2c(c1[H])C([H])([H])C([H])([H])C([H])([H])C2([H])N([H])C(=O)C1([H])N(C(=O)C([H])(N([H])C(=O)C([H])(N([H])C([H])([H])[H])C([H])([H])[H])C(C([H])([H])[H])(C([H])([H])[H])C([H])([H])[H])C([H])([H])c2c([H])c(OC([H])([H])C(C([H])([H])[H])(C([H])([H])[H])C([H])([H])c3c([H])c(C([H])([H])[H])c(C([H])([H])[H])c(N(C([H])([H])[H])C([H])([H])C([H])([H])C([H])([H])N([H])C(=O)N4C([H])([H])C([H])([H])C([H])([H])C([H])(n5nc(-c6c([H])c([H])c(Oc7c([H])c([H])c(F)c([H])c7F)c([H])c6[H])c(C(=O)N([H])[H])c5N([H])[H])C4([H])[H])c3C([H])([H])[H])c([H])c([H])c2C1([H])[H]

>  <smiles>  (68) 
[H]c1c([H])c([H])c2c(c1[H])C([H])([H])C([H])([H])C([H])([H])C2([H])N([H])C(=O)C1([H])N(C(=O)C([H])(N([H])C(=O)C([H])(N([H])C([H])([H])[H])C([H])([H])[H])C(C([H])([H])[H])(C([H])([H])[H])C([H])([H])[H])C([H])([H])c2c([H])c(OC([H])([H])C(C([H])([H])[H])(C([H])([H])[H])C([H])([H])c3c([H])c(C([H])([H])[H])c(C([H])([H])[H])c(N(C([H])([H])[H])C([H])([H])C([H])([H])C([H])([H])N([H])C(=O)N4C([H])([H])C([H])([H])C([H])([H])C([H])(n5nc(-c6c([H])c([H])c(Oc7c([H])c([H])c(F)c([H])c7F)c([H])c6[H])c(C(=O)N([H])[H])c5N([H])[H])C4([H])[H])c3C([H])([H])[H])c([H])c([H])c2C1([H])[H]

$$$$
68:0:0
     RDKit          3D

 90 98  0  0  1  0  0  0  0  0999 V2000
  -29.4340  -21.5660   22.1160 C   0  0  0  0  0  3  0  0  0  0  0  0
  -29.5930  -20.1250   20.0920 C   0  0  0  0  0  0  0  0  0  0  0  0
  -28.8990  -22.8730   20.0580 C   0  0  0  0  0  0  0  0  0  0  0  0
  -29.6800  -20.3150   21.4870 C   0  0  0  0  0  0  0  0  0  0  0  0
  -29.0670  -22.7760   21.4610 C   0  0  0  0  0  0  0  0  0  0  0  0
  -29.1850  -21.4750   19.4240 C   0  0  0  0  0  0  0  0  0  0  0  0
  -30.0370  -19.2650   22.2650 F   0  0  0  0  0  0  0  0  0  0  0  0
  -28.7810  -24.1620   22.4540 Cl  0  0  0  0  0  0  0  0  0  0  0  0
  -29.0110  -21.4090   17.7080 Cl  0  0  0  0  0  0  0  0  0  0  0  0
  -30.0780  -18.5330   19.4760 C   0  0  0  0  0  2  0  0  0  0  0  0
  -30.7540  -15.6260   19.7950 C   0  0  0  0  0  0  0  0  0  0  0  0
  -30.7220  -13.1440   18.9900 C   0  0  0  0  0  2  0  0  0  0  0  0
  -29.7500  -12.8920   17.8070 C   0  0  0  0  0  2  0  0  0  0  0  0
  -28.3270  -12.6110   18.3210 C   0  0  0  0  0  2  0  0  0  0  0  0
  -27.9210  -13.5910   19.4490 C   0  0  0  0  0  3  0  0  0  0  0  0
  -29.0190  -13.7840   20.5180 C   0  0  0  0  0  2  0  0  0  0  0  0
  -30.2090  -14.3020   19.8210 N   0  0  0  0  0  0  0  0  0  0  0  0
  -31.9440  -15.6220   19.4460 O   0  0  0  0  0  0  0  0  0  0  0  0
  -29.9950  -16.9080   19.9580 N   0  0  0  0  0  0  0  0  0  0  0  0
  -29.0760  -16.7030   20.3210 H   0  0  0  0  0  0  0  0  0  0  0  0
  -25.6080  -14.1470   20.3610 C   0  0  0  0  0  0  0  0  0  0  0  0
  -24.5620  -13.3700   20.7720 C   0  0  0  0  0  0  0  0  0  0  0  0
  -25.0110  -12.0160   20.6730 C   0  0  0  0  0  0  0  0  0  0  0  0
  -26.6230  -13.2700   20.0280 N   0  0  0  0  0  0  0  0  0  0  0  0
  -26.2820  -11.9800   20.2830 N   0  0  0  0  0  0  0  0  0  0  0  0
  -24.2810  -10.7570   20.8690 C   0  0  0  0  0  0  0  0  0  0  0  0
  -24.6800   -9.8130   21.8410 C   0  0  0  0  0  3  0  0  0  0  0  0
  -23.9470   -8.6200   22.0240 C   0  0  0  0  0  3  0  0  0  0  0  0
  -22.8000   -8.3630   21.2360 C   0  0  0  0  0  0  0  0  0  0  0  0
  -22.4200   -9.2950   20.2550 C   0  0  0  0  0  3  0  0  0  0  0  0
  -23.1540  -10.4780   20.0690 C   0  0  0  0  0  3  0  0  0  0  0  0
  -22.0420   -7.2200   21.3270 O   0  0  0  0  0  0  0  0  0  0  0  0
  -21.8570   -6.5730   22.5220 C   0  0  0  0  0  0  0  0  0  0  0  0
  -21.2280   -7.1990   23.6200 C   0  0  0  0  0  3  0  0  0  0  0  0
  -20.9950   -6.4730   24.8050 C   0  0  0  0  0  3  0  0  0  0  0  0
  -21.3820   -5.1230   24.8920 C   0  0  0  0  0  0  0  0  0  0  0  0
  -22.0040   -4.4960   23.7990 C   0  0  0  0  0  3  0  0  0  0  0  0
  -22.2370   -5.2190   22.6150 C   0  0  0  0  0  0  0  0  0  0  0  0
  -22.8170   -4.6040   21.5570 F   0  0  0  0  0  0  0  0  0  0  0  0
  -21.1530   -4.4240   26.0290 F   0  0  0  0  0  0  0  0  0  0  0  0
  -23.1900  -13.8540   21.1360 C   0  0  0  0  0  0  0  0  0  0  0  0
  -22.5120  -13.1510   22.0360 N   0  0  0  0  0  0  0  0  0  0  0  0
  -22.7310  -14.8900   20.6550 O   0  0  0  0  0  0  0  0  0  0  0  0
  -22.8980  -12.3130   22.4430 H   0  0  0  0  0  0  0  0  0  0  0  0
  -21.5930  -13.4580   22.3240 H   0  0  0  0  0  0  0  0  0  0  0  0
  -25.7740  -15.5210   20.2110 N   0  0  0  0  0  0  0  0  0  0  0  0
  -25.0150  -16.1730   20.3740 H   0  0  0  0  0  0  0  0  0  0  0  0
  -26.5840  -15.9570   19.7910 H   0  0  0  0  0  0  0  0  0  0  0  0
  -28.2580  -24.4030   19.4250 C   0  0  0  0  0  2  0  0  0  0  0  0
  -28.3830  -26.0180   19.8430 O   0  0  0  0  0  0  0  0  0  0  0  0
  -24.7490  -31.8570   23.0310 C   0  0  0  0  0  0  0  0  0  0  0  0
  -27.3570  -27.1190   19.7900 C   0  0  0  0  0  0  0  0  0  0  0  0
  -23.5510  -30.4710   21.3870 C   0  0  0  0  0  3  0  0  0  0  0  0
  -25.0040  -28.9540   19.8680 C   0  0  0  0  0  0  0  0  0  0  0  0
  -26.1060  -30.7570   21.1750 C   0  0  0  0  0  2  0  0  0  0  0  0
  -26.1980  -29.3670   20.4730 C   0  0  0  0  0  0  0  0  0  0  0  0
  -27.3620  -28.4690   20.4140 C   0  0  0  0  0  3  0  0  0  0  0  0
  -26.1320  -26.8770   19.1260 C   0  0  0  0  0  3  0  0  0  0  0  0
  -24.9980  -27.7320   19.1750 C   0  0  0  0  0  3  0  0  0  0  0  0
  -23.7600  -29.8360   19.9840 C   0  0  0  0  0  2  0  0  0  0  0  0
  -24.8250  -31.0560   21.9180 N   0  0  0  0  0  0  0  0  0  0  0  0
  -23.6690  -32.0970   23.5930 O   0  0  0  0  0  0  0  0  0  0  0  0
  -22.9160  -29.4280   22.3450 C   0  0  0  0  0  0  0  0  0  0  0  0
  -21.5880  -29.2240   22.2550 N   0  0  0  0  0  0  0  0  0  0  0  0
  -23.6240  -28.8040   23.1380 O   0  0  0  0  0  0  0  0  0  0  0  0
  -21.0650  -29.7820   21.5940 H   0  0  0  0  0  0  0  0  0  0  0  0
  -18.2640  -27.8860   22.8310 C   0  0  0  0  0  0  0  0  0  0  0  0
  -20.8200  -28.2370   23.0240 C   0  0  0  0  0  3  0  0  0  0  0  0
  -20.9530  -26.8260   22.4060 C   0  0  0  0  0  2  0  0  0  0  0  0
  -19.8310  -26.4930   21.4170 C   0  0  0  0  0  2  0  0  0  0  0  0
  -18.4660  -26.5660   22.1060 C   0  0  0  0  0  2  0  0  0  0  0  0
  -19.3670  -28.6780   23.2480 C   0  0  0  0  0  0  0  0  0  0  0  0
  -19.1200  -29.9090   23.8930 C   0  0  0  0  0  3  0  0  0  0  0  0
  -17.8040  -30.3510   24.1200 C   0  0  0  0  0  3  0  0  0  0  0  0
  -16.7150  -29.5580   23.7160 C   0  0  0  0  0  3  0  0  0  0  0  0
  -16.9470  -28.3280   23.0780 C   0  0  0  0  0  3  0  0  0  0  0  0
  -26.0180  -32.5230   23.6450 C   0  0  0  0  0  3  0  0  0  0  0  0
  -25.6580  -33.8930   24.0560 N   0  0  0  0  0  0  0  0  0  0  0  0
  -25.9220  -35.0020   23.3500 C   0  0  0  0  0  0  0  0  0  0  0  0
  -26.5540  -34.9800   22.2910 O   0  0  0  0  0  0  0  0  0  0  0  0
  -25.0890  -33.9800   24.8850 H   0  0  0  0  0  0  0  0  0  0  0  0
  -24.1180  -36.7500   23.1660 C   0  0  0  0  0  1  0  0  0  0  0  0
  -25.4040  -36.3460   23.9040 C   0  0  0  0  0  3  0  0  0  0  0  0
  -27.5280  -37.2780   24.7130 C   0  0  0  0  0  1  0  0  0  0  0  0
  -26.3930  -37.4430   23.8090 N   0  0  0  0  0  0  0  0  0  0  0  0
  -25.9570  -38.3400   24.0090 H   0  0  0  0  0  0  0  0  0  0  0  0
  -26.6010  -31.7260   24.8780 C   0  0  1  0  0  0  0  0  0  0  0  0
  -25.5440  -31.3840   25.9550 C   0  0  0  0  0  1  0  0  0  0  0  0
  -27.2480  -30.3990   24.4230 C   0  0  0  0  0  1  0  0  0  0  0  0
  -27.7210  -32.5520   25.5530 C   0  0  0  0  0  1  0  0  0  0  0  0
  2  4  2  0
  3  5  1  0
  4  1  1  0
  4  7  1  0
  5  1  2  0
  5  8  1  0
  6  3  2  0
  6  2  1  0
  9  6  1  0
 10 19  1  0
 10  2  1  0
 11 17  1  0
 11 19  1  0
 12 17  1  0
 13 14  1  0
 13 12  1  0
 15 14  1  0
 15 24  1  0
 15 16  1  0
 17 16  1  0
 18 11  2  0
 19 20  1  0
 21 22  2  0
 22 41  1  0
 23 22  1  0
 23 26  1  0
 24 25  1  0
 24 21  1  0
 25 23  2  0
 26 27  1  0
 27 28  2  0
 29 32  1  0
 29 28  1  0
 30 29  2  0
 31 30  1  0
 31 26  2  0
 32 33  1  0
 33 38  2  0
 33 34  1  0
 34 35  2  0
 35 36  1  0
 36 40  1  0
 37 36  2  0
 38 37  1  0
 39 38  1  0
 41 42  1  0
 42 45  1  0
 42 44  1  0
 43 41  2  0
 46 21  1  0
 46 47  1  0
 48 46  1  0
 49 50  1  0
 49  3  1  0
 51 62  2  0
 52 50  1  0
 52 57  1  0
 53 61  1  0
 53 63  1  0
 54 60  1  0
 54 56  1  0
 55 61  1  0
 56 55  1  0
 57 56  2  0
 58 59  1  0
 58 52  2  0
 59 54  2  0
 60 53  1  0
 61 51  1  0
 63 65  2  0
 64 63  1  0
 66 64  1  0
 67 76  2  0
 67 72  1  0
 68 64  1  0
 68 72  1  0
 69 68  1  0
 70 71  1  0
 70 69  1  0
 71 67  1  0
 72 73  2  0
 73 74  1  0
 75 74  2  0
 76 75  1  0
 77 51  1  0
 77 78  1  0
 77 87  1  0
 78 81  1  0
 79 83  1  0
 79 78  1  0
 80 79  2  0
 83 82  1  0
 85 83  1  0
 85 86  1  0
 85 84  1  0
 87 90  1  1
 87 88  1  0
 89 87  1  0
M  ISO  4  11 100  19 100  49 101  50 101
M  END
>  <TORSDO>  (69) 
F 18

>  <SCORE>  (69) 
-15.617

>  <name>  (69) 
68

>  <ligand_id>  (69) 
68

>  <original_smiles>  (69) 
[H]c1c([H])c([H])c2c(c1[H])C([H])([H])C([H])([H])C([H])([H])C2([H])N([H])C(=O)C1([H])N(C(=O)C([H])(N([H])C(=O)C([H])(N([H])C([H])([H])[H])C([H])([H])[H])C(C([H])([H])[H])(C([H])([H])[H])C([H])([H])[H])C([H])([H])c2c([H])c(OC([H])([H])c3c(Cl)c([H])c(F)c(C([H])([H])N([H])C(=O)N4C([H])([H])C([H])([H])C([H])([H])C([H])(n5nc(-c6c([H])c([H])c(Oc7c([H])c([H])c(F)c([H])c7F)c([H])c6[H])c(C(=O)N([H])[H])c5N([H])[H])C4([H])[H])c3Cl)c([H])c([H])c2C1([H])[H]

>  <smiles>  (69) 
[H]c1c([H])c([H])c2c(c1[H])C([H])([H])C([H])([H])C([H])([H])C2([H])N([H])C(=O)C1([H])N(C(=O)C([H])(N([H])C(=O)C([H])(N([H])C([H])([H])[H])C([H])([H])[H])C(C([H])([H])[H])(C([H])([H])[H])C([H])([H])[H])C([H])([H])c2c([H])c(OC([H])([H])c3c(Cl)c([H])c(F)c(C([H])([H])N([H])C(=O)N4C([H])([H])C([H])([H])C([H])([H])C([H])(n5nc(-c6c([H])c([H])c(Oc7c([H])c([H])c(F)c([H])c7F)c([H])c6[H])c(C(=O)N([H])[H])c5N([H])[H])C4([H])[H])c3Cl)c([H])c([H])c2C1([H])[H]

$$$$
69:0:0
     RDKit          3D

 97105  0  0  1  0  0  0  0  0999 V2000
  -29.2640  -21.9770   20.1180 N   0  0  1  0  0  4  0  0  0  0  0  0
  -29.7760  -22.5610   19.4730 H   0  0  0  0  0  0  0  0  0  0  0  0
  -31.6200  -21.3590   20.5390 C   0  0  0  0  0  2  0  0  0  0  0  0
  -30.3250  -21.0120   20.6610 C   0  0  0  0  0  0  0  0  0  0  0  0
  -29.8410  -19.6730   21.2890 C   0  0  0  0  0  2  0  0  0  0  0  0
  -30.6050  -18.4280   20.7100 C   0  0  0  0  0  3  0  0  0  0  0  0
  -30.1250  -16.9670   21.0410 C   0  0  0  0  0  3  0  0  0  0  0  0
  -31.3470  -14.7390   21.0230 C   0  0  0  0  0  0  0  0  0  0  0  0
  -31.0330  -12.5940   19.8680 C   0  0  0  0  0  2  0  0  0  0  0  0
  -30.2300  -12.7650   18.5620 C   0  0  0  0  0  2  0  0  0  0  0  0
  -28.7170  -12.7400   18.8370 C   0  0  0  0  0  2  0  0  0  0  0  0
  -28.2820  -13.6040   20.0510 C   0  0  0  0  0  3  0  0  0  0  0  0
  -29.2110  -13.4070   21.2660 C   0  0  0  0  0  2  0  0  0  0  0  0
  -30.5850  -13.6340   20.8050 N   0  0  0  0  0  0  0  0  0  0  0  0
  -32.5710  -14.6430   21.1200 O   0  0  0  0  0  0  0  0  0  0  0  0
  -30.8970  -15.8640   20.3760 N   0  0  0  0  0  0  0  0  0  0  0  0
  -32.6990  -17.0660   16.5180 C   0  0  0  0  0  2  0  0  0  0  0  0
  -33.5900  -16.5570   17.6660 C   0  0  0  0  0  2  0  0  0  0  0  0
  -31.2690  -16.4830   16.5730 C   0  0  0  0  0  2  0  0  0  0  0  0
  -32.9280  -16.8010   19.0340 C   0  0  0  0  0  2  0  0  0  0  0  0
  -30.6070  -16.6830   17.9540 C   0  0  0  0  0  2  0  0  0  0  0  0
  -31.5330  -16.1310   19.0520 C   0  0  0  0  0  3  0  0  0  0  0  0
  -25.8490  -14.2990   20.4890 C   0  0  0  0  0  0  0  0  0  0  0  0
  -24.7150  -13.5660   20.7200 C   0  0  0  0  0  0  0  0  0  0  0  0
  -25.1270  -12.1980   20.7480 C   0  0  0  0  0  0  0  0  0  0  0  0
  -26.8790  -13.3790   20.3850 N   0  0  0  0  0  0  0  0  0  0  0  0
  -26.4440  -12.1120   20.6060 N   0  0  0  0  0  0  0  0  0  0  0  0
  -24.3380  -10.9630   20.8450 C   0  0  0  0  0  0  0  0  0  0  0  0
  -24.7090   -9.9210   21.7220 C   0  0  0  0  0  3  0  0  0  0  0  0
  -23.9270   -8.7490   21.8130 C   0  0  0  0  0  3  0  0  0  0  0  0
  -22.7600   -8.6120   21.0230 C   0  0  0  0  0  0  0  0  0  0  0  0
  -22.4080   -9.6440   20.1330 C   0  0  0  0  0  3  0  0  0  0  0  0
  -23.1900  -10.8080   20.0430 C   0  0  0  0  0  3  0  0  0  0  0  0
  -21.9530   -7.5000   21.0250 O   0  0  0  0  0  0  0  0  0  0  0  0
  -21.8740   -6.6680   22.1120 C   0  0  0  0  0  0  0  0  0  0  0  0
  -21.4830   -7.1360   23.3850 C   0  0  0  0  0  3  0  0  0  0  0  0
  -21.3530   -6.2340   24.4600 C   0  0  0  0  0  3  0  0  0  0  0  0
  -21.5980   -4.8620   24.2600 C   0  0  0  0  0  0  0  0  0  0  0  0
  -21.9800   -4.3920   22.9910 C   0  0  0  0  0  3  0  0  0  0  0  0
  -22.1140   -5.2910   21.9200 C   0  0  0  0  0  0  0  0  0  0  0  0
  -22.4630   -4.8300   20.6950 F   0  0  0  0  0  0  0  0  0  0  0  0
  -21.4640   -3.9920   25.2880 F   0  0  0  0  0  0  0  0  0  0  0  0
  -23.3140  -14.0920   20.8150 C   0  0  0  0  0  0  0  0  0  0  0  0
  -22.4740  -13.4410   21.6090 N   0  0  0  0  0  0  0  0  0  0  0  0
  -22.9700  -15.1150   20.2220 O   0  0  0  0  0  0  0  0  0  0  0  0
  -22.7680  -12.6170   22.1110 H   0  0  0  0  0  0  0  0  0  0  0  0
  -21.5260  -13.7690   21.7200 H   0  0  0  0  0  0  0  0  0  0  0  0
  -26.0930  -15.6590   20.3290 N   0  0  0  0  0  0  0  0  0  0  0  0
  -25.3520  -16.3500   20.3320 H   0  0  0  0  0  0  0  0  0  0  0  0
  -27.0050  -16.0500   20.1290 H   0  0  0  0  0  0  0  0  0  0  0  0
  -28.2940  -21.9720   17.8090 C   0  0  0  0  0  1  0  0  0  0  0  0
  -28.2690  -21.3460   19.2090 C   0  0  0  0  0  2  0  0  0  0  0  0
  -29.7500  -23.5550   22.0560 C   0  0  0  0  0  1  0  0  0  0  0  0
  -28.6890  -22.9920   21.0850 C   0  0  0  0  0  3  0  0  0  0  0  0
  -27.8070  -24.1770   20.5010 C   0  0  0  0  0  2  0  0  0  0  0  0
  -28.4670  -25.3460   19.6870 C   0  0  0  0  0  2  0  0  0  0  0  0
  -28.3580  -26.6950   20.2150 O   0  0  0  0  0  0  0  0  0  0  0  0
  -24.5500  -31.8810   23.2480 C   0  0  0  0  0  0  0  0  0  0  0  0
  -27.1820  -27.4260   20.1480 C   0  0  0  0  0  0  0  0  0  0  0  0
  -23.3370  -30.4920   21.5990 C   0  0  0  0  0  3  0  0  0  0  0  0
  -24.7890  -28.9620   20.1540 C   0  0  0  0  0  0  0  0  0  0  0  0
  -25.8640  -30.8450   21.3980 C   0  0  0  0  0  2  0  0  0  0  0  0
  -25.9470  -29.4760   20.7480 C   0  0  0  0  0  0  0  0  0  0  0  0
  -27.1400  -28.7140   20.7420 C   0  0  0  0  0  3  0  0  0  0  0  0
  -26.0030  -26.9380   19.5380 C   0  0  0  0  0  3  0  0  0  0  0  0
  -24.8140  -27.6950   19.5480 C   0  0  0  0  0  3  0  0  0  0  0  0
  -23.5440  -29.8200   20.2140 C   0  0  0  0  0  2  0  0  0  0  0  0
  -24.6010  -31.0900   22.1390 N   0  0  0  0  0  0  0  0  0  0  0  0
  -23.4700  -32.1480   23.7940 O   0  0  0  0  0  0  0  0  0  0  0  0
  -22.6900  -29.4650   22.5550 C   0  0  0  0  0  0  0  0  0  0  0  0
  -21.3620  -29.2900   22.4390 N   0  0  0  0  0  0  0  0  0  0  0  0
  -23.3780  -28.8280   23.3570 O   0  0  0  0  0  0  0  0  0  0  0  0
  -20.8660  -29.8560   21.7640 H   0  0  0  0  0  0  0  0  0  0  0  0
  -17.9900  -28.1000   22.9550 C   0  0  0  0  0  0  0  0  0  0  0  0
  -20.5520  -28.3450   23.2060 C   0  0  0  0  0  3  0  0  0  0  0  0
  -20.6440  -26.9220   22.6110 C   0  0  0  0  0  2  0  0  0  0  0  0
  -19.5320  -26.6160   21.6040 C   0  0  0  0  0  2  0  0  0  0  0  0
  -18.1560  -26.7590   22.2610 C   0  0  0  0  0  2  0  0  0  0  0  0
  -19.1150  -28.8520   23.3850 C   0  0  0  0  0  0  0  0  0  0  0  0
  -18.9080  -30.1100   23.9920 C   0  0  0  0  0  3  0  0  0  0  0  0
  -17.6070  -30.6140   24.1760 C   0  0  0  0  0  3  0  0  0  0  0  0
  -16.4960  -29.8580   23.7640 C   0  0  0  0  0  3  0  0  0  0  0  0
  -16.6880  -28.6040   23.1580 C   0  0  0  0  0  3  0  0  0  0  0  0
  -25.8370  -32.5080   23.8690 C   0  0  0  0  0  3  0  0  0  0  0  0
  -26.3480  -31.7420   25.1510 C   0  0  1  0  0  0  0  0  0  0  0  0
  -25.2520  -31.5240   26.2210 C   0  0  0  0  0  1  0  0  0  0  0  0
  -26.9180  -30.3560   24.7710 C   0  0  0  0  0  1  0  0  0  0  0  0
  -27.5050  -32.5310   25.8070 C   0  0  0  0  0  1  0  0  0  0  0  0
  -25.5370  -33.9110   24.1870 N   0  0  0  0  0  0  0  0  0  0  0  0
  -25.8840  -34.9540   23.4210 C   0  0  0  0  0  0  0  0  0  0  0  0
  -26.5590  -34.8390   22.3960 O   0  0  0  0  0  0  0  0  0  0  0  0
  -24.9420  -34.0780   24.9840 H   0  0  0  0  0  0  0  0  0  0  0  0
  -24.1760  -36.7580   23.0380 C   0  0  0  0  0  1  0  0  0  0  0  0
  -25.4050  -36.3500   23.8660 C   0  0  0  0  0  3  0  0  0  0  0  0
  -27.5340  -37.2260   24.7200 C   0  0  0  0  0  1  0  0  0  0  0  0
  -26.4480  -37.3940   23.7570 N   0  0  0  0  0  0  0  0  0  0  0  0
  -26.0460  -38.3180   23.8880 H   0  0  0  0  0  0  0  0  0  0  0  0
  1  4  1  0
  1 54  1  0
  1  2  1  6
  3  4  2  0
  4  5  1  0
  6  7  2  0
  6  5  1  0
  8 15  2  0
  9 14  1  0
 10 11  1  0
 10  9  1  0
 12 11  1  0
 12 26  1  0
 12 13  1  0
 14  8  1  0
 14 13  1  0
 16  8  1  0
 16  7  1  0
 17 19  1  0
 17 18  1  0
 18 20  1  0
 19 21  1  0
 20 22  1  0
 21 22  1  0
 22 16  1  0
 23 24  2  0
 24 25  1  0
 24 43  1  0
 25 28  1  0
 26 23  1  0
 26 27  1  0
 27 25  2  0
 28 29  1  0
 29 30  2  0
 31 34  1  0
 31 30  1  0
 32 31  2  0
 33 32  1  0
 33 28  2  0
 34 35  1  0
 35 36  1  0
 36 37  2  0
 38 37  1  0
 38 42  1  0
 39 38  2  0
 40 35  2  0
 40 39  1  0
 41 40  1  0
 43 44  1  0
 44 47  1  0
 44 46  1  0
 45 43  2  0
 48 49  1  0
 48 23  1  0
 50 48  1  0
 51 52  1  0
 52  1  1  0
 54 53  1  0
 55 54  1  0
 56 57  1  0
 56 55  1  0
 58 69  2  0
 59 57  1  0
 59 64  1  0
 60 68  1  0
 60 70  1  0
 61 67  1  0
 61 63  1  0
 62 68  1  0
 63 62  1  0
 64 63  2  0
 65 66  1  0
 65 59  2  0
 66 61  2  0
 67 60  1  0
 68 58  1  0
 70 72  2  0
 71 70  1  0
 73 71  1  0
 74 83  2  0
 74 79  1  0
 75 71  1  0
 75 79  1  0
 76 75  1  0
 77 78  1  0
 77 76  1  0
 78 74  1  0
 79 80  2  0
 80 81  1  0
 82 81  2  0
 83 82  1  0
 84 58  1  0
 84 89  1  0
 84 85  1  0
 85 88  1  1
 85 86  1  0
 87 85  1  0
 89 92  1  0
 90 94  1  0
 90 89  1  0
 91 90  2  0
 94 93  1  0
 96 94  1  0
 96 97  1  0
 96 95  1  0
M  ISO  4   8 100  16 100  56 101  57 101
M  END
>  <TORSDO>  (70) 
F 25

>  <SCORE>  (70) 
-10.810

>  <name>  (70) 
69

>  <ligand_id>  (70) 
69

>  <original_smiles>  (70) 
[H]C([H])=C(C([H])([H])C([H])([H])C([H])([H])N(C(=O)N1C([H])([H])C([H])([H])C([H])([H])C([H])(n2nc(-c3c([H])c([H])c(Oc4c([H])c([H])c(F)c([H])c4F)c([H])c3[H])c(C(=O)N([H])[H])c2N([H])[H])C1([H])[H])C1([H])C([H])([H])C([H])([H])C([H])([H])C([H])([H])C1([H])[H])[N+]([H])(C([H])([H])C([H])([H])[H])C([H])(C([H])([H])[H])C([H])([H])C([H])([H])Oc1c([H])c([H])c2c(c1[H])C([H])([H])N(C(=O)C([H])(N([H])C(=O)C([H])(N([H])C([H])([H])[H])C([H])([H])[H])C(C([H])([H])[H])(C([H])([H])[H])C([H])([H])[H])C([H])(C(=O)N([H])C1([H])c3c([H])c([H])c([H])c([H])c3C([H])([H])C([H])([H])C1([H])[H])C2([H])[H]

>  <smiles>  (70) 
[H]C([H])=C(C([H])([H])C([H])([H])C([H])([H])N(C(=O)N1C([H])([H])C([H])([H])C([H])([H])C([H])(n2nc(-c3c([H])c([H])c(Oc4c([H])c([H])c(F)c([H])c4F)c([H])c3[H])c(C(=O)N([H])[H])c2N([H])[H])C1([H])[H])C1([H])C([H])([H])C([H])([H])C([H])([H])C([H])([H])C1([H])[H])[N+]([H])(C([H])([H])C([H])([H])[H])C([H])(C([H])([H])[H])C([H])([H])C([H])([H])Oc1c([H])c([H])c2c(c1[H])C([H])([H])N(C(=O)C([H])(N([H])C(=O)C([H])(N([H])C([H])([H])[H])C([H])([H])[H])C(C([H])([H])[H])(C([H])([H])[H])C([H])([H])[H])C([H])(C(=O)N([H])C1([H])c3c([H])c([H])c([H])c([H])c3C([H])([H])C([H])([H])C1([H])[H])C2([H])[H]

$$$$
70:0:0
     RDKit          3D

 89 97  0  0  1  0  0  0  0  0999 V2000
  -29.0130  -20.3290   19.1340 C   0  0  0  0  0  3  0  0  0  0  0  0
  -30.1110  -19.0370   21.2610 C   0  0  0  0  0  3  0  0  0  0  0  0
  -29.3010  -21.2940   20.1940 C   0  0  0  0  0  0  0  0  0  0  0  0
  -29.2260  -18.8520   19.1370 C   0  0  0  0  0  0  0  0  0  0  0  0
  -29.8850  -20.5010   21.2660 C   0  0  0  0  0  0  0  0  0  0  0  0
  -29.8170  -18.0650   20.2150 C   0  0  0  0  0  0  0  0  0  0  0  0
  -28.7520  -18.0760   17.9240 C   0  0  0  0  0  1  0  0  0  0  0  0
  -30.3260  -21.2480   22.5110 C   0  0  0  0  0  1  0  0  0  0  0  0
  -30.5610  -15.2630   19.9600 C   0  0  0  0  0  0  0  0  0  0  0  0
  -30.5140  -12.8850   18.9150 C   0  0  0  0  0  2  0  0  0  0  0  0
  -29.4900  -12.7570   17.7540 C   0  0  0  0  0  2  0  0  0  0  0  0
  -28.0670  -12.4710   18.2750 C   0  0  0  0  0  2  0  0  0  0  0  0
  -27.7230  -13.3410   19.5080 C   0  0  0  0  0  3  0  0  0  0  0  0
  -28.8620  -13.3010   20.5420 C   0  0  0  0  0  2  0  0  0  0  0  0
  -30.0350  -13.9320   19.8920 N   0  0  0  0  0  0  0  0  0  0  0  0
  -31.7070  -15.3450   19.4870 O   0  0  0  0  0  0  0  0  0  0  0  0
  -29.0360  -16.1880   21.6400 C   0  0  0  0  0  1  0  0  0  0  0  0
  -29.8220  -16.4680   20.4300 N   0  0  0  0  0  0  0  0  0  0  0  0
  -25.4000  -13.8670   20.4340 C   0  0  0  0  0  0  0  0  0  0  0  0
  -24.3710  -13.0720   20.8550 C   0  0  0  0  0  0  0  0  0  0  0  0
  -24.8390  -11.7260   20.7410 C   0  0  0  0  0  0  0  0  0  0  0  0
  -26.4270  -13.0070   20.0890 N   0  0  0  0  0  0  0  0  0  0  0  0
  -26.1040  -11.7100   20.3340 N   0  0  0  0  0  0  0  0  0  0  0  0
  -24.1340  -10.4530   20.9390 C   0  0  0  0  0  0  0  0  0  0  0  0
  -24.5810   -9.4980   21.8780 C   0  0  0  0  0  3  0  0  0  0  0  0
  -23.8720   -8.2900   22.0640 C   0  0  0  0  0  3  0  0  0  0  0  0
  -22.7030   -8.0320   21.3090 C   0  0  0  0  0  0  0  0  0  0  0  0
  -22.2760   -8.9760   20.3600 C   0  0  0  0  0  3  0  0  0  0  0  0
  -22.9850  -10.1730   20.1720 C   0  0  0  0  0  3  0  0  0  0  0  0
  -21.9650   -6.8760   21.4040 O   0  0  0  0  0  0  0  0  0  0  0  0
  -21.8390   -6.1970   22.5880 C   0  0  0  0  0  0  0  0  0  0  0  0
  -21.3030   -6.8060   23.7440 C   0  0  0  0  0  3  0  0  0  0  0  0
  -21.1270   -6.0530   24.9210 C   0  0  0  0  0  3  0  0  0  0  0  0
  -21.4780   -4.6890   24.9440 C   0  0  0  0  0  0  0  0  0  0  0  0
  -22.0070   -4.0780   23.7920 C   0  0  0  0  0  3  0  0  0  0  0  0
  -22.1840   -4.8300   22.6180 C   0  0  0  0  0  0  0  0  0  0  0  0
  -22.6750   -4.2320   21.5050 F   0  0  0  0  0  0  0  0  0  0  0  0
  -21.3010   -3.9630   26.0720 F   0  0  0  0  0  0  0  0  0  0  0  0
  -22.9950  -13.5300   21.2430 C   0  0  0  0  0  0  0  0  0  0  0  0
  -22.3410  -12.8080   22.1470 N   0  0  0  0  0  0  0  0  0  0  0  0
  -22.5120  -14.5630   20.7820 O   0  0  0  0  0  0  0  0  0  0  0  0
  -22.7470  -11.9730   22.5420 H   0  0  0  0  0  0  0  0  0  0  0  0
  -21.4220  -13.0980   22.4490 H   0  0  0  0  0  0  0  0  0  0  0  0
  -25.5360  -15.2450   20.2900 N   0  0  0  0  0  0  0  0  0  0  0  0
  -24.7740  -15.8860   20.4860 H   0  0  0  0  0  0  0  0  0  0  0  0
  -26.3530  -15.7050   19.9110 H   0  0  0  0  0  0  0  0  0  0  0  0
  -29.3020  -23.0320   20.0880 C   0  0  0  0  0  3  0  0  0  0  0  0
  -28.1620  -24.3700   20.2890 C   0  0  0  0  0  3  0  0  0  0  0  0
  -28.3710  -25.9870   20.2400 O   0  0  0  0  0  0  0  0  0  0  0  0
  -24.6900  -31.8430   23.1830 C   0  0  0  0  0  0  0  0  0  0  0  0
  -27.3230  -27.0310   20.1910 C   0  0  0  0  0  0  0  0  0  0  0  0
  -23.5240  -30.4460   21.5240 C   0  0  0  0  0  3  0  0  0  0  0  0
  -25.0020  -28.8590   20.1200 C   0  0  0  0  0  0  0  0  0  0  0  0
  -26.0880  -30.6880   21.4070 C   0  0  0  0  0  2  0  0  0  0  0  0
  -26.1770  -29.2840   20.7510 C   0  0  0  0  0  0  0  0  0  0  0  0
  -27.3350  -28.3920   20.7590 C   0  0  0  0  0  3  0  0  0  0  0  0
  -26.1150  -26.7420   19.5190 C   0  0  0  0  0  3  0  0  0  0  0  0
  -24.9910  -27.6060   19.4850 C   0  0  0  0  0  3  0  0  0  0  0  0
  -23.7740  -29.7660   20.1500 C   0  0  0  0  0  2  0  0  0  0  0  0
  -24.7880  -31.0170   22.0920 N   0  0  0  0  0  0  0  0  0  0  0  0
  -23.5930  -32.1240   23.6910 O   0  0  0  0  0  0  0  0  0  0  0  0
  -22.8260  -29.4410   22.4780 C   0  0  0  0  0  0  0  0  0  0  0  0
  -21.4980  -29.2680   22.3330 N   0  0  0  0  0  0  0  0  0  0  0  0
  -23.4840  -28.8180   23.3140 O   0  0  0  0  0  0  0  0  0  0  0  0
  -21.0210  -29.8210   21.6350 H   0  0  0  0  0  0  0  0  0  0  0  0
  -18.1140  -28.0490   22.7960 C   0  0  0  0  0  0  0  0  0  0  0  0
  -20.6700  -28.3260   23.0910 C   0  0  0  0  0  3  0  0  0  0  0  0
  -20.7850  -26.8950   22.5130 C   0  0  0  0  0  2  0  0  0  0  0  0
  -19.6960  -26.5710   21.4840 C   0  0  0  0  0  2  0  0  0  0  0  0
  -18.3060  -26.7040   22.1130 C   0  0  0  0  0  2  0  0  0  0  0  0
  -19.2240  -28.8160   23.2400 C   0  0  0  0  0  0  0  0  0  0  0  0
  -18.9890  -30.0710   23.8420 C   0  0  0  0  0  3  0  0  0  0  0  0
  -17.6790  -30.5610   23.9990 C   0  0  0  0  0  3  0  0  0  0  0  0
  -16.5840  -29.7920   23.5690 C   0  0  0  0  0  3  0  0  0  0  0  0
  -16.8030  -28.5360   22.9750 C   0  0  0  0  0  3  0  0  0  0  0  0
  -25.9500  -32.4900   23.8330 C   0  0  0  0  0  3  0  0  0  0  0  0
  -25.6170  -33.8820   24.1800 N   0  0  0  0  0  0  0  0  0  0  0  0
  -25.9270  -34.9520   23.4370 C   0  0  0  0  0  0  0  0  0  0  0  0
  -26.5860  -34.8730   22.3970 O   0  0  0  0  0  0  0  0  0  0  0  0
  -25.0280  -34.0150   24.9890 H   0  0  0  0  0  0  0  0  0  0  0  0
  -24.1600  -36.7240   23.1500 C   0  0  0  0  0  1  0  0  0  0  0  0
  -25.4280  -36.3300   23.9220 C   0  0  0  0  0  3  0  0  0  0  0  0
  -27.5670  -37.2500   24.7070 C   0  0  0  0  0  1  0  0  0  0  0  0
  -26.4390  -37.4020   23.7910 N   0  0  0  0  0  0  0  0  0  0  0  0
  -26.0210  -38.3150   23.9510 H   0  0  0  0  0  0  0  0  0  0  0  0
  -26.4510  -31.7140   25.1150 C   0  0  1  0  0  0  0  0  0  0  0  0
  -25.3430  -31.4640   26.1650 C   0  0  0  0  0  1  0  0  0  0  0  0
  -27.0510  -30.3430   24.7310 C   0  0  0  0  0  1  0  0  0  0  0  0
  -27.5860  -32.5130   25.8000 C   0  0  0  0  0  1  0  0  0  0  0  0
  1  4  2  0
  1  3  1  0
  2  5  1  0
  3  5  2  0
  4  6  1  0
  5  8  1  0
  6 18  1  0
  6  2  2  0
  7  4  1  0
  9 18  1  0
 10 15  1  0
 11 12  1  0
 11 10  1  0
 13 12  1  0
 13 22  1  0
 13 14  1  0
 15  9  1  0
 15 14  1  0
 16  9  2  0
 18 17  1  0
 19 20  2  0
 20 39  1  0
 21 20  1  0
 21 24  1  0
 22 23  1  0
 22 19  1  0
 23 21  2  0
 24 25  1  0
 25 26  2  0
 27 30  1  0
 27 26  1  0
 28 27  2  0
 29 28  1  0
 29 24  2  0
 30 31  1  0
 31 36  2  0
 31 32  1  0
 32 33  2  0
 33 34  1  0
 34 38  1  0
 35 34  2  0
 36 35  1  0
 37 36  1  0
 39 40  1  0
 40 43  1  0
 40 42  1  0
 41 39  2  0
 44 19  1  0
 44 45  1  0
 46 44  1  0
 47  3  1  0
 47 48  2  0
 49 48  1  0
 50 61  2  0
 51 49  1  0
 51 56  1  0
 52 60  1  0
 52 62  1  0
 53 59  1  0
 53 55  1  0
 54 60  1  0
 55 56  2  0
 55 54  1  0
 57 51  2  0
 58 57  1  0
 58 53  2  0
 59 52  1  0
 60 50  1  0
 62 64  2  0
 63 62  1  0
 65 63  1  0
 66 75  2  0
 66 71  1  0
 67 63  1  0
 67 71  1  0
 68 67  1  0
 69 70  1  0
 69 68  1  0
 70 66  1  0
 71 72  2  0
 72 73  1  0
 74 73  2  0
 75 74  1  0
 76 50  1  0
 76 77  1  0
 76 86  1  0
 77 80  1  0
 78 82  1  0
 78 77  1  0
 79 78  2  0
 82 81  1  0
 84 82  1  0
 84 85  1  0
 84 83  1  0
 86 89  1  1
 86 87  1  0
 88 86  1  0
M  ISO  4   9 100  18 100  48 101  49 101
M  END
>  <TORSDO>  (71) 
F 18

>  <SCORE>  (71) 
-14.871

>  <name>  (71) 
70

>  <ligand_id>  (71) 
70

>  <original_smiles>  (71) 
[H]c1c([H])c([H])c2c(c1[H])C([H])([H])C([H])([H])C([H])([H])C2([H])N([H])C(=O)C1([H])N(C(=O)C([H])(N([H])C(=O)C([H])(N([H])C([H])([H])[H])C([H])([H])[H])C(C([H])([H])[H])(C([H])([H])[H])C([H])([H])[H])C([H])([H])c2c([H])c(OC([H])([H])C([H])([H])c3c([H])c(C([H])([H])[H])c(N(C(=O)N4C([H])([H])C([H])([H])C([H])([H])C([H])(n5nc(-c6c([H])c([H])c(Oc7c([H])c([H])c(F)c([H])c7F)c([H])c6[H])c(C(=O)N([H])[H])c5N([H])[H])C4([H])[H])C([H])([H])[H])c([H])c3C([H])([H])[H])c([H])c([H])c2C1([H])[H]

>  <smiles>  (71) 
[H]c1c([H])c([H])c2c(c1[H])C([H])([H])C([H])([H])C([H])([H])C2([H])N([H])C(=O)C1([H])N(C(=O)C([H])(N([H])C(=O)C([H])(N([H])C([H])([H])[H])C([H])([H])[H])C(C([H])([H])[H])(C([H])([H])[H])C([H])([H])[H])C([H])([H])c2c([H])c(OC([H])([H])C([H])([H])c3c([H])c(C([H])([H])[H])c(N(C(=O)N4C([H])([H])C([H])([H])C([H])([H])C([H])(n5nc(-c6c([H])c([H])c(Oc7c([H])c([H])c(F)c([H])c7F)c([H])c6[H])c(C(=O)N([H])[H])c5N([H])[H])C4([H])[H])C([H])([H])[H])c([H])c3C([H])([H])[H])c([H])c([H])c2C1([H])[H]

$$$$
71:0:0
     RDKit          3D

 95100  0  0  1  0  0  0  0  0999 V2000
  -24.4910  -23.3060   22.7310 C   0  0  0  0  0  3  0  0  0  0  0  0
  -23.7750  -23.8210   20.5620 C   0  0  0  0  0  0  0  0  0  0  0  0
  -25.9470  -22.3980   20.8360 C   0  0  0  0  0  0  0  0  0  0  0  0
  -23.4490  -23.9570   21.9740 C   0  0  0  0  0  0  0  0  0  0  0  0
  -25.6310  -22.5700   22.2230 C   0  0  0  0  0  0  0  0  0  0  0  0
  -24.9600  -23.0960   20.0390 C   0  0  0  0  0  0  0  0  0  0  0  0
  -22.8290  -24.4590   19.5610 C   0  0  0  0  0  1  0  0  0  0  0  0
  -26.4720  -22.0290   23.1350 F   0  0  0  0  0  0  0  0  0  0  0  0
  -25.2420  -23.0800   18.3310 Cl  0  0  0  0  0  0  0  0  0  0  0  0
  -22.1760  -23.8890   24.0170 C   0  0  0  0  0  1  0  0  0  0  0  0
  -22.2270  -24.5160   22.6820 N   0  0  0  0  0  0  0  0  0  0  0  0
  -20.7820  -25.1420   22.3960 C   0  0  0  0  0  3  0  0  0  0  0  0
  -20.2270  -26.8340   22.2310 C   0  0  0  0  0  3  0  0  0  0  0  0
  -21.8610  -28.4930   20.0370 C   0  0  0  0  0 15  0  0  0  0  0  0
  -23.8600  -28.3620   19.8350 O   0  0  0  0  0  1  0  0  0  0  0  0
  -24.5110  -32.2630   23.3930 C   0  0  0  0  0  0  0  0  0  0  0  0
  -25.1940  -28.7750   19.2080 C   0  0  0  0  0  3  0  0  0  0  0  0
  -23.1340  -31.5770   21.5200 C   0  0  0  0  0  3  0  0  0  0  0  0
  -24.2440  -31.0490   19.2540 C   0  0  0  0  0  3  0  0  0  0  0  0
  -25.6140  -31.9230   21.1670 C   0  0  0  0  0  2  0  0  0  0  0  0
  -25.4090  -30.9460   20.0270 C   0  0  0  0  0  3  0  0  0  0  0  0
  -26.0650  -29.7140   19.8850 C   0  0  0  0  0  2  0  0  0  0  0  0
  -24.9990  -29.1720   17.9100 C   0  0  0  0  0  2  0  0  0  0  0  0
  -24.1170  -30.2460   18.0780 C   0  0  0  0  0  2  0  0  0  0  0  0
  -23.0860  -31.6960   19.9450 C   0  0  0  0  0  2  0  0  0  0  0  0
  -24.4450  -31.9870   22.0630 N   0  0  0  0  0  0  0  0  0  0  0  0
  -23.4960  -32.2670   24.1060 O   0  0  0  0  0  0  0  0  0  0  0  0
  -22.8690  -30.1940   22.1480 C   0  0  0  0  0  0  0  0  0  0  0  0
  -21.6340  -29.8180   22.2750 N   0  0  0  0  0  0  0  0  0  0  0  0
  -23.7530  -29.4300   22.5320 O   0  0  0  0  0  0  0  0  0  0  0  0
  -20.8740  -30.4420   22.0380 H   0  0  0  0  0  0  0  0  0  0  0  0
  -18.6090  -28.4400   21.6310 C   0  0  0  0  0  0  0  0  0  0  0  0
  -21.3320  -28.4160   22.4680 C   0  0  0  0  0  3  0  0  0  0  0  0
  -22.2810  -26.9190   21.4010 C   0  0  0  0  0 15  0  0  0  0  0  0
  -20.6060  -26.7240   19.6080 C   0  0  0  0  0  1  0  0  0  0  0  0
  -19.0270  -27.7350   20.0920 C   0  0  0  0  0  2  0  0  0  0  0  0
  -19.6640  -28.7980   22.6010 C   0  0  0  0  0  0  0  0  0  0  0  0
  -19.2420  -29.5920   23.7460 C   0  0  0  0  0  3  0  0  0  0  0  0
  -17.9020  -29.9040   24.0920 C   0  0  0  0  0  3  0  0  0  0  0  0
  -16.8780  -29.3460   23.3160 C   0  0  0  0  0  3  0  0  0  0  0  0
  -17.2330  -28.6370   22.1220 C   0  0  0  0  0  3  0  0  0  0  0  0
  -25.8570  -32.6160   24.0590 C   0  0  0  0  0  3  0  0  0  0  0  0
  -25.6420  -33.9130   24.7020 N   0  0  0  0  0  0  0  0  0  0  0  0
  -25.9630  -35.0870   24.1460 C   0  0  0  0  0  0  0  0  0  0  0  0
  -26.5710  -35.1760   23.0750 O   0  0  0  0  0  0  0  0  0  0  0  0
  -25.0960  -33.9140   25.5500 H   0  0  0  0  0  0  0  0  0  0  0  0
  -24.3360  -37.0030   24.2360 C   0  0  0  0  0  1  0  0  0  0  0  0
  -25.5600  -36.3610   24.9100 C   0  0  0  0  0  3  0  0  0  0  0  0
  -27.7590  -36.8980   25.8520 C   0  0  0  0  0  1  0  0  0  0  0  0
  -26.6540  -37.3490   25.0100 N   0  0  0  0  0  0  0  0  0  0  0  0
  -26.3120  -38.2300   25.3830 H   0  0  0  0  0  0  0  0  0  0  0  0
  -26.3390  -31.5390   25.1020 C   0  0  1  0  0  0  0  0  0  0  0  0
  -25.2580  -31.1240   26.1260 C   0  0  0  0  0  1  0  0  0  0  0  0
  -26.8290  -30.2590   24.3880 C   0  0  0  0  0  1  0  0  0  0  0  0
  -27.5510  -32.1030   25.8750 C   0  0  0  0  0  1  0  0  0  0  0  0
  -27.4250  -21.7750   20.3290 C   0  0  0  0  0  3  0  0  0  0  0  0
  -27.9600  -20.2020   19.9740 C   0  0  0  0  0  3  0  0  0  0  0  0
  -29.5810  -19.6210   19.9160 C   0  0  0  0  0  3  0  0  0  0  0  0
  -30.0190  -17.9810   19.9970 C   0  0  0  0  0  3  0  0  0  0  0  0
  -31.4310  -17.0170   20.0810 C   0  0  0  0  0  0  0  0  0  0  0  0
  -32.1110  -14.5470   19.8220 C   0  0  0  0  0  2  0  0  0  0  0  0
  -31.3970  -13.9530   18.5750 C   0  0  0  0  0  2  0  0  0  0  0  0
  -29.9070  -13.6250   18.8400 C   0  0  0  0  0  2  0  0  0  0  0  0
  -29.2150  -14.7660   19.6130 C   0  0  0  0  0  3  0  0  0  0  0  0
  -30.0360  -15.1210   20.8580 C   0  0  0  0  0  2  0  0  0  0  0  0
  -31.2850  -15.6670   20.3620 N   0  0  0  0  0  0  0  0  0  0  0  0
  -32.5860  -17.3770   19.7790 O   0  0  0  0  0  0  0  0  0  0  0  0
  -26.7870  -15.3990   20.0980 C   0  0  0  0  0  0  0  0  0  0  0  0
  -25.7010  -14.6320   20.4170 C   0  0  0  0  0  0  0  0  0  0  0  0
  -26.1740  -13.2860   20.4760 C   0  0  0  0  0  0  0  0  0  0  0  0
  -27.8400  -14.5060   19.9690 N   0  0  0  0  0  0  0  0  0  0  0  0
  -27.4790  -13.2390   20.2660 N   0  0  0  0  0  0  0  0  0  0  0  0
  -25.4560  -12.0250   20.6540 C   0  0  0  0  0  0  0  0  0  0  0  0
  -25.6950  -11.1920   21.7660 C   0  0  0  0  0  3  0  0  0  0  0  0
  -24.9810   -9.9860   21.9170 C   0  0  0  0  0  3  0  0  0  0  0  0
  -24.0170   -9.6080   20.9520 C   0  0  0  0  0  0  0  0  0  0  0  0
  -23.8050  -10.4310   19.8320 C   0  0  0  0  0  3  0  0  0  0  0  0
  -24.5200  -11.6290   19.6810 C   0  0  0  0  0  3  0  0  0  0  0  0
  -23.2900   -8.4440   21.0050 O   0  0  0  0  0  0  0  0  0  0  0  0
  -22.7270   -8.0040   22.1760 C   0  0  0  0  0  0  0  0  0  0  0  0
  -21.8780   -8.8230   22.9530 C   0  0  0  0  0  3  0  0  0  0  0  0
  -21.2680   -8.3020   24.1110 C   0  0  0  0  0  3  0  0  0  0  0  0
  -21.4960   -6.9650   24.4890 C   0  0  0  0  0  0  0  0  0  0  0  0
  -22.3380   -6.1470   23.7120 C   0  0  0  0  0  3  0  0  0  0  0  0
  -22.9490   -6.6660   22.5580 C   0  0  0  0  0  0  0  0  0  0  0  0
  -23.7420   -5.8680   21.8010 F   0  0  0  0  0  0  0  0  0  0  0  0
  -20.9020   -6.4610   25.5950 F   0  0  0  0  0  0  0  0  0  0  0  0
  -24.2840  -15.1050   20.5550 C   0  0  0  0  0  0  0  0  0  0  0  0
  -23.5030  -14.4490   21.4060 N   0  0  0  0  0  0  0  0  0  0  0  0
  -23.8760  -16.0900   19.9430 O   0  0  0  0  0  0  0  0  0  0  0  0
  -23.8450  -13.6530   21.9250 H   0  0  0  0  0  0  0  0  0  0  0  0
  -22.5470  -14.7450   21.5380 H   0  0  0  0  0  0  0  0  0  0  0  0
  -26.9600  -16.7640   19.8830 N   0  0  0  0  0  0  0  0  0  0  0  0
  -26.1800  -17.4130   19.9090 H   0  0  0  0  0  0  0  0  0  0  0  0
  -27.8260  -17.1980   19.5910 H   0  0  0  0  0  0  0  0  0  0  0  0
  2  4  1  0
  3  5  2  0
  4 11  1  0
  4  1  2  0
  5  1  1  0
  5  8  1  0
  6  2  2  0
  6  3  1  0
  7  2  1  0
  9  6  1  0
 11 10  1  0
 12 11  1  0
 13 12  2  0
 16 27  2  0
 17 15  1  0
 17 22  1  0
 18 26  1  0
 18 28  1  0
 19 24  1  0
 19 25  1  0
 19 21  1  0
 20 26  1  0
 21 22  1  0
 21 20  1  0
 23 24  1  0
 23 17  1  0
 25 18  1  0
 26 16  1  0
 28 29  1  0
 28 30  2  0
 29 33  1  0
 31 29  1  0
 32 41  2  0
 32 37  1  0
 33 13  1  0
 33 37  1  0
 35 36  1  0
 36 32  1  0
 37 38  2  0
 38 39  1  0
 40 39  2  0
 41 40  1  0
 42 16  1  0
 42 43  1  0
 42 52  1  0
 43 46  1  0
 44 43  1  0
 44 48  1  0
 45 44  2  0
 48 47  1  0
 48 50  1  0
 50 51  1  0
 50 49  1  0
 52 55  1  1
 52 53  1  0
 54 52  1  0
 56  3  1  0
 57 56  2  0
 58 57  1  0
 58 59  2  0
 59 60  1  0
 60 66  1  0
 61 66  1  0
 62 63  1  0
 62 61  1  0
 64 63  1  0
 64 71  1  0
 64 65  1  0
 66 65  1  0
 67 60  2  0
 68 69  2  0
 69 70  1  0
 69 88  1  0
 70 73  1  0
 71 68  1  0
 71 72  1  0
 72 70  2  0
 73 74  1  0
 74 75  2  0
 76 79  1  0
 76 75  1  0
 77 76  2  0
 78 77  1  0
 78 73  2  0
 79 80  1  0
 80 85  2  0
 80 81  1  0
 81 82  2  0
 82 83  1  0
 83 87  1  0
 84 83  2  0
 85 84  1  0
 86 85  1  0
 88 89  1  0
 89 92  1  0
 89 91  1  0
 90 88  2  0
 93 94  1  0
 93 68  1  0
 95 93  1  0
M  ISO  4  14 101  15 101  59 100  60 100
M  END
>  <TORSDO>  (72) 
F 24

>  <SCORE>  (72) 
5.359

>  <name>  (72) 
71

>  <ligand_id>  (72) 
71

>  <original_smiles>  (72) 
[H]c1c([H])c([H])c2c(c1[H])C([H])([H])C([H])([H])C([H])([H])C2([H])N([H])C(=O)C1([H])N(C(=O)C([H])(N([H])C(=O)C([H])(N([H])C([H])([H])[H])C([H])([H])[H])C(C([H])([H])[H])(C([H])([H])[H])C([H])([H])[H])C([H])([H])c2c([H])c(OC([H])([H])C([H])([H])C([H])([H])N(c3c([H])c(F)c(C([H])([H])C([H])([H])C([H])([H])C([H])([H])C(=O)N4C([H])([H])C([H])([H])C([H])([H])C([H])(n5nc(-c6c([H])c([H])c(Oc7c([H])c([H])c(F)c([H])c7F)c([H])c6[H])c(C(=O)N([H])[H])c5N([H])[H])C4([H])[H])c(Cl)c3C([H])([H])[H])C([H])([H])[H])c([H])c([H])c2C1([H])[H]

>  <smiles>  (72) 
[H]c1c([H])c([H])c2c(c1[H])C([H])([H])C([H])([H])C([H])([H])C2([H])N([H])C(=O)C1([H])N(C(=O)C([H])(N([H])C(=O)C([H])(N([H])C([H])([H])[H])C([H])([H])[H])C(C([H])([H])[H])(C([H])([H])[H])C([H])([H])[H])C([H])([H])c2c([H])c(OC([H])([H])C([H])([H])C([H])([H])N(c3c([H])c(F)c(C([H])([H])C([H])([H])C([H])([H])C([H])([H])C(=O)N4C([H])([H])C([H])([H])C([H])([H])C([H])(n5nc(-c6c([H])c([H])c(Oc7c([H])c([H])c(F)c([H])c7F)c([H])c6[H])c(C(=O)N([H])[H])c5N([H])[H])C4([H])[H])c(Cl)c3C([H])([H])[H])C([H])([H])[H])c([H])c([H])c2C1([H])[H]

$$$$
72:0:0
     RDKit          3D

 89 97  0  0  1  0  0  0  0  0999 V2000
  -28.0290  -20.9420   19.4590 C   0  0  0  0  0  3  0  0  0  0  0  0
  -28.6620  -22.1220   20.1000 C   0  0  0  0  0  0  0  0  0  0  0  0
  -28.3710  -19.4600   19.4250 C   0  0  0  0  0  0  0  0  0  0  0  0
  -29.8120  -21.3910   20.7240 C   0  0  0  0  0  0  0  0  0  0  0  0
  -30.1810  -19.8800   20.6940 C   0  0  0  0  0  0  0  0  0  0  0  0
  -29.5040  -18.7130   20.0310 C   0  0  0  0  0  0  0  0  0  0  0  0
  -27.3630  -18.5940   18.6900 C   0  0  0  0  0  1  0  0  0  0  0  0
  -30.7200  -22.3010   21.5380 C   0  0  0  0  0  1  0  0  0  0  0  0
  -31.4100  -19.4730   21.4960 C   0  0  0  0  0  1  0  0  0  0  0  0
  -30.4010  -15.6840   19.8730 C   0  0  0  0  0  0  0  0  0  0  0  0
  -30.4800  -13.1750   18.9320 C   0  0  0  0  0  2  0  0  0  0  0  0
  -29.4900  -12.8200   17.7810 C   0  0  0  0  0  2  0  0  0  0  0  0
  -28.0990  -12.4440   18.3180 C   0  0  0  0  0  2  0  0  0  0  0  0
  -27.6820  -13.3760   19.4780 C   0  0  0  0  0  3  0  0  0  0  0  0
  -28.8090  -13.5770   20.5180 C   0  0  0  0  0  2  0  0  0  0  0  0
  -29.9140  -14.2940   19.8200 N   0  0  0  0  0  0  0  0  0  0  0  0
  -31.5820  -15.6770   19.4760 O   0  0  0  0  0  0  0  0  0  0  0  0
  -28.7040  -16.6980   21.3200 C   0  0  0  0  0  1  0  0  0  0  0  0
  -29.6290  -17.0050   20.2320 N   0  0  0  0  0  0  0  0  0  0  0  0
  -25.3700  -13.8500   20.4290 C   0  0  0  0  0  0  0  0  0  0  0  0
  -24.3540  -13.0440   20.8520 C   0  0  0  0  0  0  0  0  0  0  0  0
  -24.8340  -11.7040   20.7270 C   0  0  0  0  0  0  0  0  0  0  0  0
  -26.4060  -13.0050   20.0760 N   0  0  0  0  0  0  0  0  0  0  0  0
  -26.1000  -11.7020   20.3170 N   0  0  0  0  0  0  0  0  0  0  0  0
  -24.1340  -10.4260   20.9170 C   0  0  0  0  0  0  0  0  0  0  0  0
  -24.5840   -9.4660   21.8500 C   0  0  0  0  0  3  0  0  0  0  0  0
  -23.8770   -8.2570   22.0310 C   0  0  0  0  0  3  0  0  0  0  0  0
  -22.7070   -7.9990   21.2790 C   0  0  0  0  0  0  0  0  0  0  0  0
  -22.2760   -8.9470   20.3350 C   0  0  0  0  0  3  0  0  0  0  0  0
  -22.9830  -10.1480   20.1520 C   0  0  0  0  0  3  0  0  0  0  0  0
  -21.9710   -6.8420   21.3700 O   0  0  0  0  0  0  0  0  0  0  0  0
  -21.8530   -6.1560   22.5510 C   0  0  0  0  0  0  0  0  0  0  0  0
  -21.3090   -6.7550   23.7100 C   0  0  0  0  0  3  0  0  0  0  0  0
  -21.1400   -5.9930   24.8830 C   0  0  0  0  0  3  0  0  0  0  0  0
  -21.5040   -4.6330   24.8980 C   0  0  0  0  0  0  0  0  0  0  0  0
  -22.0400   -4.0340   23.7450 C   0  0  0  0  0  3  0  0  0  0  0  0
  -22.2100   -4.7930   22.5740 C   0  0  0  0  0  0  0  0  0  0  0  0
  -22.7070   -4.2050   21.4590 F   0  0  0  0  0  0  0  0  0  0  0  0
  -21.3360   -3.8990   26.0230 F   0  0  0  0  0  0  0  0  0  0  0  0
  -22.9760  -13.4920   21.2440 C   0  0  0  0  0  0  0  0  0  0  0  0
  -22.3260  -12.7600   22.1420 N   0  0  0  0  0  0  0  0  0  0  0  0
  -22.4880  -14.5270   20.7910 O   0  0  0  0  0  0  0  0  0  0  0  0
  -22.7380  -11.9230   22.5290 H   0  0  0  0  0  0  0  0  0  0  0  0
  -21.4050  -13.0400   22.4460 H   0  0  0  0  0  0  0  0  0  0  0  0
  -25.4860  -15.2280   20.2840 N   0  0  0  0  0  0  0  0  0  0  0  0
  -24.7120  -15.8550   20.4680 H   0  0  0  0  0  0  0  0  0  0  0  0
  -26.2860  -15.6930   19.8770 H   0  0  0  0  0  0  0  0  0  0  0  0
  -27.9050  -23.8350   20.1410 C   0  0  0  0  0  2  0  0  0  0  0  0
  -28.2160  -25.5450   20.3220 O   0  0  0  0  0  0  0  0  0  0  0  0
  -24.7160  -31.8280   23.2510 C   0  0  0  0  0  0  0  0  0  0  0  0
  -27.2510  -26.7610   20.2660 C   0  0  0  0  0  0  0  0  0  0  0  0
  -23.5300  -30.4310   21.6130 C   0  0  0  0  0  3  0  0  0  0  0  0
  -24.9800  -28.7840   20.2050 C   0  0  0  0  0  0  0  0  0  0  0  0
  -26.1090  -30.5740   21.4970 C   0  0  0  0  0  2  0  0  0  0  0  0
  -26.1740  -29.1430   20.8400 C   0  0  0  0  0  0  0  0  0  0  0  0
  -27.2960  -28.1590   20.8390 C   0  0  0  0  0  3  0  0  0  0  0  0
  -26.0210  -26.6090   19.5760 C   0  0  0  0  0  3  0  0  0  0  0  0
  -24.9400  -27.5420   19.5490 C   0  0  0  0  0  3  0  0  0  0  0  0
  -23.7710  -29.7320   20.2440 C   0  0  0  0  0  2  0  0  0  0  0  0
  -24.8080  -30.9760   22.1730 N   0  0  0  0  0  0  0  0  0  0  0  0
  -23.6220  -32.1320   23.7580 O   0  0  0  0  0  0  0  0  0  0  0  0
  -22.8100  -29.4550   22.5830 C   0  0  0  0  0  0  0  0  0  0  0  0
  -21.4780  -29.2990   22.4500 N   0  0  0  0  0  0  0  0  0  0  0  0
  -23.4600  -28.8360   23.4270 O   0  0  0  0  0  0  0  0  0  0  0  0
  -21.0020  -29.8520   21.7500 H   0  0  0  0  0  0  0  0  0  0  0  0
  -18.0880  -28.0880   22.9480 C   0  0  0  0  0  0  0  0  0  0  0  0
  -20.6460  -28.3650   23.2190 C   0  0  0  0  0  3  0  0  0  0  0  0
  -20.7530  -26.9310   22.6520 C   0  0  0  0  0  2  0  0  0  0  0  0
  -19.6570  -26.6010   21.6340 C   0  0  0  0  0  2  0  0  0  0  0  0
  -18.2720  -26.7410   22.2700 C   0  0  0  0  0  2  0  0  0  0  0  0
  -19.2010  -28.8590   23.3780 C   0  0  0  0  0  0  0  0  0  0  0  0
  -18.9710  -30.1160   23.9760 C   0  0  0  0  0  3  0  0  0  0  0  0
  -17.6630  -30.6070   24.1440 C   0  0  0  0  0  3  0  0  0  0  0  0
  -16.5640  -29.8360   23.7270 C   0  0  0  0  0  3  0  0  0  0  0  0
  -16.7780  -28.5780   23.1350 C   0  0  0  0  0  3  0  0  0  0  0  0
  -25.9800  -32.4760   23.8960 C   0  0  0  0  0  3  0  0  0  0  0  0
  -25.6630  -33.8810   24.2200 N   0  0  0  0  0  0  0  0  0  0  0  0
  -25.9830  -34.9390   23.4620 C   0  0  0  0  0  0  0  0  0  0  0  0
  -26.6350  -34.8340   22.4200 O   0  0  0  0  0  0  0  0  0  0  0  0
  -25.0820  -34.0350   25.0310 H   0  0  0  0  0  0  0  0  0  0  0  0
  -24.2370  -36.7340   23.1690 C   0  0  0  0  0  1  0  0  0  0  0  0
  -25.5110  -36.3330   23.9320 C   0  0  0  0  0  3  0  0  0  0  0  0
  -27.6720  -37.2360   24.6760 C   0  0  0  0  0  1  0  0  0  0  0  0
  -26.5350  -37.3890   23.7720 N   0  0  0  0  0  0  0  0  0  0  0  0
  -26.1300  -38.3090   23.9250 H   0  0  0  0  0  0  0  0  0  0  0  0
  -26.4620  -31.7240   25.1990 C   0  0  1  0  0  0  0  0  0  0  0  0
  -25.3450  -31.5160   26.2500 C   0  0  0  0  0  1  0  0  0  0  0  0
  -27.0410  -30.3340   24.8550 C   0  0  0  0  0  1  0  0  0  0  0  0
  -27.6070  -32.5210   25.8680 C   0  0  0  0  0  1  0  0  0  0  0  0
  1  2  1  0
  2 48  1  0
  2  4  2  0
  3  1  2  0
  3  6  1  0
  4  8  1  0
  5  4  1  0
  5  9  1  0
  6 19  1  0
  6  5  2  0
  7  3  1  0
 10 19  1  0
 11 16  1  0
 12 13  1  0
 12 11  1  0
 14 13  1  0
 14 23  1  0
 14 15  1  0
 16 10  1  0
 16 15  1  0
 17 10  2  0
 19 18  1  0
 20 21  2  0
 21 40  1  0
 22 21  1  0
 22 25  1  0
 23 24  1  0
 23 20  1  0
 24 22  2  0
 25 26  1  0
 26 27  2  0
 28 31  1  0
 28 27  1  0
 29 28  2  0
 30 29  1  0
 30 25  2  0
 31 32  1  0
 32 37  2  0
 32 33  1  0
 33 34  2  0
 34 35  1  0
 35 39  1  0
 36 35  2  0
 37 36  1  0
 38 37  1  0
 40 41  1  0
 41 44  1  0
 41 43  1  0
 42 40  2  0
 45 20  1  0
 45 46  1  0
 47 45  1  0
 48 49  1  0
 50 61  2  0
 51 49  1  0
 51 56  1  0
 52 60  1  0
 52 62  1  0
 53 59  1  0
 53 55  1  0
 54 60  1  0
 55 54  1  0
 56 55  2  0
 57 51  2  0
 58 57  1  0
 58 53  2  0
 59 52  1  0
 60 50  1  0
 62 64  2  0
 63 62  1  0
 65 63  1  0
 66 75  2  0
 66 71  1  0
 67 63  1  0
 67 71  1  0
 68 67  1  0
 69 70  1  0
 69 68  1  0
 70 66  1  0
 71 72  2  0
 72 73  1  0
 74 73  2  0
 75 74  1  0
 76 50  1  0
 76 77  1  0
 76 86  1  0
 77 80  1  0
 78 82  1  0
 78 77  1  0
 79 78  2  0
 82 81  1  0
 84 85  1  0
 84 82  1  0
 84 83  1  0
 86 89  1  1
 86 87  1  0
 88 86  1  0
M  ISO  4  10 100  19 100  48 101  49 101
M  END
>  <TORSDO>  (73) 
F 17

>  <SCORE>  (73) 
-16.171

>  <name>  (73) 
72

>  <ligand_id>  (73) 
72

>  <original_smiles>  (73) 
[H]c1c([H])c([H])c2c(c1[H])C([H])([H])C([H])([H])C([H])([H])C2([H])N([H])C(=O)C1([H])N(C(=O)C([H])(N([H])C(=O)C([H])(N([H])C([H])([H])[H])C([H])([H])[H])C(C([H])([H])[H])(C([H])([H])[H])C([H])([H])[H])C([H])([H])c2c([H])c(OC([H])([H])c3c([H])c(C([H])([H])[H])c(N(C(=O)N4C([H])([H])C([H])([H])C([H])([H])C([H])(n5nc(-c6c([H])c([H])c(Oc7c([H])c([H])c(F)c([H])c7F)c([H])c6[H])c(C(=O)N([H])[H])c5N([H])[H])C4([H])[H])C([H])([H])[H])c(C([H])([H])[H])c3C([H])([H])[H])c([H])c([H])c2C1([H])[H]

>  <smiles>  (73) 
[H]c1c([H])c([H])c2c(c1[H])C([H])([H])C([H])([H])C([H])([H])C2([H])N([H])C(=O)C1([H])N(C(=O)C([H])(N([H])C(=O)C([H])(N([H])C([H])([H])[H])C([H])([H])[H])C(C([H])([H])[H])(C([H])([H])[H])C([H])([H])[H])C([H])([H])c2c([H])c(OC([H])([H])c3c([H])c(C([H])([H])[H])c(N(C(=O)N4C([H])([H])C([H])([H])C([H])([H])C([H])(n5nc(-c6c([H])c([H])c(Oc7c([H])c([H])c(F)c([H])c7F)c([H])c6[H])c(C(=O)N([H])[H])c5N([H])[H])C4([H])[H])C([H])([H])[H])c(C([H])([H])[H])c3C([H])([H])[H])c([H])c([H])c2C1([H])[H]

$$$$
73:0:0
     RDKit          3D

 91 99  0  0  1  0  0  0  0  0999 V2000
  -29.6480  -19.7320   20.8790 C   0  0  0  0  0  0  0  0  0  0  0  0
  -29.3280  -21.0870   20.1840 C   0  0  0  0  0  0  0  0  0  0  0  0
  -29.7380  -18.5180   20.0570 C   0  0  0  0  0  0  0  0  0  0  0  0
  -29.2600  -20.5950   18.9190 N   0  0  0  0  0  0  0  0  0  0  0  0
  -29.4300  -19.1830   18.8410 N   0  0  0  0  0  0  0  0  0  0  0  0
  -29.9420  -19.5980   22.5790 Cl  0  0  0  0  0  0  0  0  0  0  0  0
  -30.5860  -15.7400   20.0580 C   0  0  0  0  0  0  0  0  0  0  0  0
  -30.6240  -13.2430   19.2560 C   0  0  0  0  0  2  0  0  0  0  0  0
  -29.6830  -12.9620   18.0530 C   0  0  0  0  0  2  0  0  0  0  0  0
  -28.2690  -12.6240   18.5460 C   0  0  0  0  0  2  0  0  0  0  0  0
  -27.8100  -13.6010   19.6500 C   0  0  0  0  0  3  0  0  0  0  0  0
  -28.8770  -13.8440   20.7450 C   0  0  0  0  0  2  0  0  0  0  0  0
  -30.0720  -14.3950   20.0790 N   0  0  0  0  0  0  0  0  0  0  0  0
  -31.7770  -15.7490   19.7070 O   0  0  0  0  0  0  0  0  0  0  0  0
  -29.8210  -17.0150   20.3450 N   0  0  0  0  0  0  0  0  0  0  0  0
  -29.0430  -16.7560   20.9320 H   0  0  0  0  0  0  0  0  0  0  0  0
  -25.4870  -14.1390   20.5400 C   0  0  0  0  0  0  0  0  0  0  0  0
  -24.4330  -13.3530   20.9140 C   0  0  0  0  0  0  0  0  0  0  0  0
  -24.8920  -12.0010   20.8160 C   0  0  0  0  0  0  0  0  0  0  0  0
  -26.5050  -13.2660   20.2020 N   0  0  0  0  0  0  0  0  0  0  0  0
  -26.1680  -11.9730   20.4410 N   0  0  0  0  0  0  0  0  0  0  0  0
  -24.1650  -10.7350   20.9920 C   0  0  0  0  0  0  0  0  0  0  0  0
  -24.5670   -9.7740   21.9480 C   0  0  0  0  0  3  0  0  0  0  0  0
  -23.8370   -8.5760   22.1080 C   0  0  0  0  0  3  0  0  0  0  0  0
  -22.6910   -8.3300   21.3150 C   0  0  0  0  0  0  0  0  0  0  0  0
  -22.3090   -9.2800   20.3500 C   0  0  0  0  0  3  0  0  0  0  0  0
  -23.0390  -10.4680   20.1880 C   0  0  0  0  0  3  0  0  0  0  0  0
  -21.9350   -7.1840   21.3860 O   0  0  0  0  0  0  0  0  0  0  0  0
  -21.7710   -6.5010   22.5650 C   0  0  0  0  0  0  0  0  0  0  0  0
  -21.1580   -7.0950   23.6900 C   0  0  0  0  0  3  0  0  0  0  0  0
  -20.9450   -6.3380   24.8590 C   0  0  0  0  0  3  0  0  0  0  0  0
  -21.3360   -4.9870   24.9030 C   0  0  0  0  0  0  0  0  0  0  0  0
  -21.9430   -4.3910   23.7850 C   0  0  0  0  0  3  0  0  0  0  0  0
  -22.1590   -5.1460   22.6180 C   0  0  0  0  0  0  0  0  0  0  0  0
  -22.7250   -4.5650   21.5330 F   0  0  0  0  0  0  0  0  0  0  0  0
  -21.1260   -4.2540   26.0220 F   0  0  0  0  0  0  0  0  0  0  0  0
  -23.0460  -13.8260   21.2450 C   0  0  0  0  0  0  0  0  0  0  0  0
  -22.3390  -13.1070   22.1090 N   0  0  0  0  0  0  0  0  0  0  0  0
  -22.5990  -14.8690   20.7700 O   0  0  0  0  0  0  0  0  0  0  0  0
  -22.7000  -12.2520   22.5120 H   0  0  0  0  0  0  0  0  0  0  0  0
  -21.4160  -13.4210   22.3770 H   0  0  0  0  0  0  0  0  0  0  0  0
  -25.6680  -15.5160   20.4240 N   0  0  0  0  0  0  0  0  0  0  0  0
  -24.9900  -16.1890   20.7610 H   0  0  0  0  0  0  0  0  0  0  0  0
  -26.4720  -15.9570   19.9980 H   0  0  0  0  0  0  0  0  0  0  0  0
  -30.8010  -23.2670   20.2140 C   0  0  0  0  0  1  0  0  0  0  0  0
  -29.1470  -22.9870   22.0950 C   0  0  0  0  0  1  0  0  0  0  0  0
  -29.3350  -22.8770   20.5520 C   0  0  2  0  0  0  0  0  0  0  0  0
  -28.3650  -24.3780   20.0440 C   0  0  0  0  0  2  0  0  0  0  0  0
  -28.4250  -26.0310   20.4080 O   0  0  0  0  0  0  0  0  0  0  0  0
  -24.7340  -31.9820   23.3840 C   0  0  0  0  0  0  0  0  0  0  0  0
  -27.3970  -27.1390   20.3170 C   0  0  0  0  0  0  0  0  0  0  0  0
  -23.5820  -30.6040   21.7020 C   0  0  0  0  0  3  0  0  0  0  0  0
  -25.0750  -29.0360   20.2600 C   0  0  0  0  0  0  0  0  0  0  0  0
  -26.1480  -30.8230   21.6100 C   0  0  0  0  0  2  0  0  0  0  0  0
  -26.2430  -29.4230   20.9250 C   0  0  0  0  0  0  0  0  0  0  0  0
  -27.3880  -28.4930   20.9340 C   0  0  0  0  0  3  0  0  0  0  0  0
  -26.2050  -26.9280   19.5790 C   0  0  0  0  0  3  0  0  0  0  0  0
  -25.0890  -27.8170   19.5570 C   0  0  0  0  0  3  0  0  0  0  0  0
  -23.8480  -29.9550   20.3110 C   0  0  0  0  0  2  0  0  0  0  0  0
  -24.8410  -31.1640   22.2860 N   0  0  0  0  0  0  0  0  0  0  0  0
  -23.6340  -32.2540   23.8960 O   0  0  0  0  0  0  0  0  0  0  0  0
  -22.8870  -29.5860   22.6440 C   0  0  0  0  0  0  0  0  0  0  0  0
  -21.5630  -29.3900   22.4830 N   0  0  0  0  0  0  0  0  0  0  0  0
  -23.5450  -28.9760   23.4920 O   0  0  0  0  0  0  0  0  0  0  0  0
  -21.0790  -29.9590   21.8050 H   0  0  0  0  0  0  0  0  0  0  0  0
  -18.2070  -28.0430   22.8710 C   0  0  0  0  0  0  0  0  0  0  0  0
  -20.7480  -28.4030   23.2020 C   0  0  0  0  0  3  0  0  0  0  0  0
  -20.9280  -26.9940   22.5910 C   0  0  0  0  0  2  0  0  0  0  0  0
  -19.8450  -26.6240   21.5710 C   0  0  0  0  0  2  0  0  0  0  0  0
  -18.4550  -26.7000   22.2040 C   0  0  0  0  0  2  0  0  0  0  0  0
  -19.2860  -28.8410   23.3400 C   0  0  0  0  0  0  0  0  0  0  0  0
  -19.0020  -30.0790   23.9570 C   0  0  0  0  0  3  0  0  0  0  0  0
  -17.6740  -30.5250   24.0970 C   0  0  0  0  0  3  0  0  0  0  0  0
  -16.6130  -29.7330   23.6300 C   0  0  0  0  0  3  0  0  0  0  0  0
  -16.8800  -28.4910   23.0240 C   0  0  0  0  0  3  0  0  0  0  0  0
  -25.9910  -32.6250   24.0470 C   0  0  0  0  0  3  0  0  0  0  0  0
  -26.4370  -31.8890   25.3730 C   0  0  1  0  0  0  0  0  0  0  0  0
  -25.2950  -31.6790   26.3950 C   0  0  0  0  0  1  0  0  0  0  0  0
  -27.0430  -30.5020   25.0620 C   0  0  0  0  0  1  0  0  0  0  0  0
  -27.5510  -32.7020   26.0700 C   0  0  0  0  0  1  0  0  0  0  0  0
  -25.6810  -34.0360   24.3340 N   0  0  0  0  0  0  0  0  0  0  0  0
  -25.9990  -35.0710   23.5430 C   0  0  0  0  0  0  0  0  0  0  0  0
  -26.6570  -34.9390   22.5080 O   0  0  0  0  0  0  0  0  0  0  0  0
  -25.1100  -34.2070   25.1490 H   0  0  0  0  0  0  0  0  0  0  0  0
  -24.2540  -36.8510   23.1820 C   0  0  0  0  0  1  0  0  0  0  0  0
  -25.5220  -36.4760   23.9660 C   0  0  0  0  0  3  0  0  0  0  0  0
  -27.6690  -37.4190   24.7100 C   0  0  0  0  0  1  0  0  0  0  0  0
  -26.5450  -37.5320   23.7820 N   0  0  0  0  0  0  0  0  0  0  0  0
  -26.1330  -38.4550   23.8940 H   0  0  0  0  0  0  0  0  0  0  0  0
  -27.6660  -18.5360   17.2060 C   0  0  0  0  0  1  0  0  0  0  0  0
  -29.1720  -18.5830   17.5310 C   0  0  0  0  0  2  0  0  0  0  0  0
  1  6  1  0
  2 47  1  0
  2  1  1  0
  3 15  1  0
  3  1  2  0
  4  2  2  0
  5  4  1  0
  5  3  1  0
  7 13  1  0
  7 15  1  0
  8 13  1  0
  9 10  1  0
  9  8  1  0
 11 10  1  0
 11 20  1  0
 11 12  1  0
 13 12  1  0
 14  7  2  0
 15 16  1  0
 17 18  2  0
 18 37  1  0
 19 18  1  0
 19 22  1  0
 20 21  1  0
 20 17  1  0
 21 19  2  0
 22 23  1  0
 23 24  2  0
 25 28  1  0
 25 24  1  0
 26 25  2  0
 27 26  1  0
 27 22  2  0
 28 29  1  0
 29 34  2  0
 29 30  1  0
 30 31  2  0
 31 32  1  0
 32 36  1  0
 33 32  2  0
 34 33  1  0
 35 34  1  0
 37 38  1  0
 38 41  1  0
 38 40  1  0
 39 37  2  0
 42 17  1  0
 42 43  1  0
 44 42  1  0
 47 45  1  1
 47 46  1  0
 48 49  1  0
 48 47  1  0
 50 61  2  0
 51 49  1  0
 51 56  1  0
 52 60  1  0
 52 62  1  0
 53 59  1  0
 53 55  1  0
 54 60  1  0
 55 56  2  0
 55 54  1  0
 57 51  2  0
 58 57  1  0
 58 53  2  0
 59 52  1  0
 60 50  1  0
 62 64  2  0
 63 62  1  0
 65 63  1  0
 66 75  2  0
 66 71  1  0
 67 63  1  0
 67 71  1  0
 68 67  1  0
 69 70  1  0
 69 68  1  0
 70 66  1  0
 71 72  2  0
 72 73  1  0
 74 73  2  0
 75 74  1  0
 76 50  1  0
 76 81  1  0
 76 77  1  0
 77 80  1  1
 77 78  1  0
 79 77  1  0
 81 84  1  0
 82 86  1  0
 82 81  1  0
 83 82  2  0
 86 85  1  0
 88 89  1  0
 88 86  1  0
 88 87  1  0
 90 91  1  0
 91  5  1  0
M  ISO  4   7 100  15 100  48 101  49 101
M  END
>  <TORSDO>  (74) 
F 19

>  <SCORE>  (74) 
-14.512

>  <name>  (74) 
73

>  <ligand_id>  (74) 
73

>  <original_smiles>  (74) 
[H]c1c([H])c([H])c2c(c1[H])C([H])([H])C([H])([H])C([H])([H])C2([H])N([H])C(=O)C1([H])N(C(=O)C([H])(N([H])C(=O)C([H])(N([H])C([H])([H])[H])C([H])([H])[H])C(C([H])([H])[H])(C([H])([H])[H])C([H])([H])[H])C([H])([H])c2c([H])c(OC([H])([H])C(c3nn(C([H])([H])C([H])([H])[H])c(N([H])C(=O)N4C([H])([H])C([H])([H])C([H])([H])C([H])(n5nc(-c6c([H])c([H])c(Oc7c([H])c([H])c(F)c([H])c7F)c([H])c6[H])c(C(=O)N([H])[H])c5N([H])[H])C4([H])[H])c3Cl)(C([H])([H])[H])C([H])([H])[H])c([H])c([H])c2C1([H])[H]

>  <smiles>  (74) 
[H]c1c([H])c([H])c2c(c1[H])C([H])([H])C([H])([H])C([H])([H])C2([H])N([H])C(=O)C1([H])N(C(=O)C([H])(N([H])C(=O)C([H])(N([H])C([H])([H])[H])C([H])([H])[H])C(C([H])([H])[H])(C([H])([H])[H])C([H])([H])[H])C([H])([H])c2c([H])c(OC([H])([H])C(c3nn(C([H])([H])C([H])([H])[H])c(N([H])C(=O)N4C([H])([H])C([H])([H])C([H])([H])C([H])(n5nc(-c6c([H])c([H])c(Oc7c([H])c([H])c(F)c([H])c7F)c([H])c6[H])c(C(=O)N([H])[H])c5N([H])[H])C4([H])[H])c3Cl)(C([H])([H])[H])C([H])([H])[H])c([H])c([H])c2C1([H])[H]

$$$$
74:0:0
     RDKit          3D

 95103  0  0  1  0  0  0  0  0999 V2000
  -30.1650  -21.4340   20.3950 N   0  0  0  0  0  4  0  0  0  0  0  0
  -31.0520  -21.8390   20.6580 H   0  0  0  0  0  0  0  0  0  0  0  0
  -29.7140  -21.1720   21.2590 H   0  0  0  0  0  0  0  0  0  0  0  0
  -31.8380  -18.9670   17.8730 C   0  0  0  0  0  2  0  0  0  0  0  0
  -31.7130  -17.5770   18.5640 C   0  0  0  0  0  2  0  0  0  0  0  0
  -30.4130  -18.7850   20.4100 C   0  0  0  0  0  2  0  0  0  0  0  0
  -31.8350  -20.1670   18.8600 C   0  0  0  0  0  3  0  0  0  0  0  0
  -30.5120  -17.4300   19.5480 C   0  0  0  0  0  3  0  0  0  0  0  0
  -30.4620  -20.1570   19.5970 C   0  0  0  0  0  3  0  0  0  0  0  0
  -30.8930  -14.8000   19.8660 C   0  0  0  0  0  0  0  0  0  0  0  0
  -30.4210  -12.6060   18.7420 C   0  0  0  0  0  2  0  0  0  0  0  0
  -29.4040  -12.7490   17.5910 C   0  0  0  0  0  2  0  0  0  0  0  0
  -27.9710  -12.5940   18.1250 C   0  0  0  0  0  2  0  0  0  0  0  0
  -27.7160  -13.4120   19.4170 C   0  0  0  0  0  3  0  0  0  0  0  0
  -28.8630  -13.2880   20.4450 C   0  0  0  0  0  2  0  0  0  0  0  0
  -30.1210  -13.6500   19.7590 N   0  0  0  0  0  0  0  0  0  0  0  0
  -32.0250  -14.7760   19.3770 O   0  0  0  0  0  0  0  0  0  0  0  0
  -30.3460  -16.0450   20.2420 N   0  0  0  0  0  0  0  0  0  0  0  0
  -25.3880  -13.9840   20.3290 C   0  0  0  0  0  0  0  0  0  0  0  0
  -24.3440  -13.2020   20.7370 C   0  0  0  0  0  0  0  0  0  0  0  0
  -24.7890  -11.8520   20.6090 C   0  0  0  0  0  0  0  0  0  0  0  0
  -26.4100  -13.1120   19.9940 N   0  0  0  0  0  0  0  0  0  0  0  0
  -26.0570  -11.8180   20.2210 N   0  0  0  0  0  0  0  0  0  0  0  0
  -24.0500  -10.5960   20.7830 C   0  0  0  0  0  0  0  0  0  0  0  0
  -24.5020   -9.5820   21.6590 C   0  0  0  0  0  3  0  0  0  0  0  0
  -23.7550   -8.3970   21.8220 C   0  0  0  0  0  3  0  0  0  0  0  0
  -22.5430   -8.2150   21.1150 C   0  0  0  0  0  0  0  0  0  0  0  0
  -22.1080   -9.2200   20.2330 C   0  0  0  0  0  3  0  0  0  0  0  0
  -22.8530  -10.3970   20.0660 C   0  0  0  0  0  3  0  0  0  0  0  0
  -21.7640   -7.0890   21.1980 O   0  0  0  0  0  0  0  0  0  0  0  0
  -21.7330   -6.3170   22.3330 C   0  0  0  0  0  0  0  0  0  0  0  0
  -21.3680   -6.8500   23.5870 C   0  0  0  0  0  3  0  0  0  0  0  0
  -21.2730   -6.0040   24.7110 C   0  0  0  0  0  3  0  0  0  0  0  0
  -21.5410   -4.6280   24.5810 C   0  0  0  0  0  0  0  0  0  0  0  0
  -21.9030   -4.0980   23.3320 C   0  0  0  0  0  3  0  0  0  0  0  0
  -21.9940   -4.9390   22.2070 C   0  0  0  0  0  0  0  0  0  0  0  0
  -22.3230   -4.4170   21.0020 F   0  0  0  0  0  0  0  0  0  0  0  0
  -21.4500   -3.8110   25.6590 F   0  0  0  0  0  0  0  0  0  0  0  0
  -22.9760  -13.6820   21.1140 C   0  0  0  0  0  0  0  0  0  0  0  0
  -22.3100  -12.9730   22.0160 N   0  0  0  0  0  0  0  0  0  0  0  0
  -22.5110  -14.7230   20.6480 O   0  0  0  0  0  0  0  0  0  0  0  0
  -22.7040  -12.1300   22.4070 H   0  0  0  0  0  0  0  0  0  0  0  0
  -21.3980  -13.2790   22.3240 H   0  0  0  0  0  0  0  0  0  0  0  0
  -25.5150  -15.3590   20.1830 N   0  0  0  0  0  0  0  0  0  0  0  0
  -24.7150  -15.9640   20.3360 H   0  0  0  0  0  0  0  0  0  0  0  0
  -26.2750  -15.8340   19.7130 H   0  0  0  0  0  0  0  0  0  0  0  0
  -28.3610  -16.5100   21.7060 C   0  0  0  0  0  1  0  0  0  0  0  0
  -29.8690  -16.1900   21.6360 C   0  0  0  0  0  2  0  0  0  0  0  0
  -33.6730  -21.5890   17.7210 C   0  0  0  0  0  1  0  0  0  0  0  0
  -32.2080  -21.5120   18.1750 C   0  0  0  0  0  2  0  0  0  0  0  0
  -27.8740  -22.0330   19.4930 C   0  0  0  0  0  1  0  0  0  0  0  0
  -29.3120  -22.5330   19.7520 C   0  0  0  0  0  3  0  0  0  0  0  0
  -29.2800  -23.9660   20.4840 C   0  0  0  0  0  3  0  0  0  0  0  0
  -28.2470  -25.0490   19.9270 C   0  0  0  0  0  3  0  0  0  0  0  0
  -28.3680  -26.4840   20.2560 O   0  0  0  0  0  0  0  0  0  0  0  0
  -24.6140  -31.8520   23.2280 C   0  0  0  0  0  0  0  0  0  0  0  0
  -27.2280  -27.3040   20.1740 C   0  0  0  0  0  0  0  0  0  0  0  0
  -23.4010  -30.4590   21.5880 C   0  0  0  0  0  3  0  0  0  0  0  0
  -24.8460  -28.9010   20.1630 C   0  0  0  0  0  0  0  0  0  0  0  0
  -25.9390  -30.7730   21.4020 C   0  0  0  0  0  2  0  0  0  0  0  0
  -26.0150  -29.3960   20.7560 C   0  0  0  0  0  0  0  0  0  0  0  0
  -27.2040  -28.6110   20.7500 C   0  0  0  0  0  3  0  0  0  0  0  0
  -26.0370  -26.8630   19.5450 C   0  0  0  0  0  3  0  0  0  0  0  0
  -24.8590  -27.6380   19.5490 C   0  0  0  0  0  3  0  0  0  0  0  0
  -23.6070  -29.7720   20.2110 C   0  0  0  0  0  2  0  0  0  0  0  0
  -24.6700  -31.0430   22.1310 N   0  0  0  0  0  0  0  0  0  0  0  0
  -23.5320  -32.1370   23.7620 O   0  0  0  0  0  0  0  0  0  0  0  0
  -22.7320  -29.4500   22.5500 C   0  0  0  0  0  0  0  0  0  0  0  0
  -21.4070  -29.2770   22.4150 N   0  0  0  0  0  0  0  0  0  0  0  0
  -23.4060  -28.8260   23.3740 O   0  0  0  0  0  0  0  0  0  0  0  0
  -20.9250  -29.8300   21.7190 H   0  0  0  0  0  0  0  0  0  0  0  0
  -18.0270  -28.0940   22.9110 C   0  0  0  0  0  0  0  0  0  0  0  0
  -20.5830  -28.3450   23.1860 C   0  0  0  0  0  3  0  0  0  0  0  0
  -20.6820  -26.9130   22.6150 C   0  0  0  0  0  2  0  0  0  0  0  0
  -19.5830  -26.5900   21.5970 C   0  0  0  0  0  2  0  0  0  0  0  0
  -18.1990  -26.7440   22.2350 C   0  0  0  0  0  2  0  0  0  0  0  0
  -19.1460  -28.8540   23.3410 C   0  0  0  0  0  0  0  0  0  0  0  0
  -18.9320  -30.1180   23.9310 C   0  0  0  0  0  3  0  0  0  0  0  0
  -17.6290  -30.6240   24.0940 C   0  0  0  0  0  3  0  0  0  0  0  0
  -16.5220  -29.8620   23.6770 C   0  0  0  0  0  3  0  0  0  0  0  0
  -16.7230  -28.5990   23.0930 C   0  0  0  0  0  3  0  0  0  0  0  0
  -25.9010  -32.4790   23.8510 C   0  0  0  0  0  3  0  0  0  0  0  0
  -25.5900  -33.8730   24.1980 N   0  0  0  0  0  0  0  0  0  0  0  0
  -25.9160  -34.9370   23.4510 C   0  0  0  0  0  0  0  0  0  0  0  0
  -26.5790  -34.8460   22.4150 O   0  0  0  0  0  0  0  0  0  0  0  0
  -24.9980  -34.0150   25.0040 H   0  0  0  0  0  0  0  0  0  0  0  0
  -24.1810  -36.7320   23.1290 C   0  0  0  0  0  1  0  0  0  0  0  0
  -25.4270  -36.3180   23.9280 C   0  0  0  0  0  3  0  0  0  0  0  0
  -27.5720  -37.1870   24.7530 C   0  0  0  0  0  1  0  0  0  0  0  0
  -26.4550  -37.3780   23.8320 N   0  0  0  0  0  0  0  0  0  0  0  0
  -26.0450  -38.2910   24.0140 H   0  0  0  0  0  0  0  0  0  0  0  0
  -26.4200  -31.6950   25.1190 C   0  0  1  0  0  0  0  0  0  0  0  0
  -25.3300  -31.4430   26.1880 C   0  0  0  0  0  1  0  0  0  0  0  0
  -27.0050  -30.3210   24.7140 C   0  0  0  0  0  1  0  0  0  0  0  0
  -27.5710  -32.4850   25.7850 C   0  0  0  0  0  1  0  0  0  0  0  0
  1  2  1  0
  1  3  1  0
  4  5  1  0
  4  7  1  0
  5  8  1  0
  7 50  1  0
  7  9  1  0
  8 18  1  0
  8  6  1  0
  9  1  1  0
  9  6  1  0
 10 18  1  0
 11 16  1  0
 12 13  1  0
 12 11  1  0
 14 13  1  0
 14 22  1  0
 14 15  1  0
 16 10  1  0
 16 15  1  0
 17 10  2  0
 18 48  1  0
 19 20  2  0
 20 39  1  0
 21 20  1  0
 21 24  1  0
 22 23  1  0
 22 19  1  0
 23 21  2  0
 24 25  1  0
 25 26  2  0
 27 30  1  0
 27 26  1  0
 28 27  2  0
 29 28  1  0
 29 24  2  0
 30 31  1  0
 31 32  1  0
 32 33  2  0
 34 33  1  0
 34 38  1  0
 35 34  2  0
 36 31  2  0
 36 35  1  0
 37 36  1  0
 39 40  1  0
 40 43  1  0
 40 42  1  0
 41 39  2  0
 44 19  1  0
 44 45  1  0
 46 44  1  0
 48 47  1  0
 49 50  1  0
 52 51  1  0
 52  1  1  0
 52 53  1  0
 54 55  1  0
 54 53  2  0
 56 67  2  0
 57 55  1  0
 57 62  1  0
 58 66  1  0
 58 68  1  0
 59 65  1  0
 59 61  1  0
 60 66  1  0
 61 60  1  0
 62 61  2  0
 63 64  1  0
 63 57  2  0
 64 59  2  0
 65 58  1  0
 66 56  1  0
 68 70  2  0
 69 68  1  0
 71 69  1  0
 72 81  2  0
 72 77  1  0
 73 69  1  0
 73 77  1  0
 74 73  1  0
 75 76  1  0
 75 74  1  0
 76 72  1  0
 77 78  2  0
 78 79  1  0
 80 79  2  0
 81 80  1  0
 82 56  1  0
 82 83  1  0
 82 92  1  0
 83 86  1  0
 84 88  1  0
 84 83  1  0
 85 84  2  0
 88 87  1  0
 90 88  1  0
 90 91  1  0
 90 89  1  0
 92 95  1  1
 92 93  1  0
 94 92  1  0
M  ISO  4  10 100  18 100  54 101  55 101
M  END
>  <TORSDO>  (75) 
F 22

>  <SCORE>  (75) 
-11.313

>  <name>  (75) 
74

>  <ligand_id>  (75) 
74

>  <original_smiles>  (75) 
[H]c1c([H])c([H])c2c(c1[H])C([H])([H])C([H])([H])C([H])([H])C2([H])N([H])C(=O)C1([H])N(C(=O)C([H])(N([H])C(=O)C([H])(N([H])C([H])([H])[H])C([H])([H])[H])C(C([H])([H])[H])(C([H])([H])[H])C([H])([H])[H])C([H])([H])c2c([H])c(OC([H])([H])C([H])([H])C([H])(C([H])([H])[H])[N+]([H])([H])C3([H])C([H])([H])C([H])(N(C(=O)N4C([H])([H])C([H])([H])C([H])([H])C([H])(n5nc(-c6c([H])c([H])c(Oc7c([H])c([H])c(F)c([H])c7F)c([H])c6[H])c(C(=O)N([H])[H])c5N([H])[H])C4([H])[H])C([H])([H])C([H])([H])[H])C([H])([H])C([H])([H])C3([H])C([H])([H])C([H])([H])[H])c([H])c([H])c2C1([H])[H]

>  <smiles>  (75) 
[H]c1c([H])c([H])c2c(c1[H])C([H])([H])C([H])([H])C([H])([H])C2([H])N([H])C(=O)C1([H])N(C(=O)C([H])(N([H])C(=O)C([H])(N([H])C([H])([H])[H])C([H])([H])[H])C(C([H])([H])[H])(C([H])([H])[H])C([H])([H])[H])C([H])([H])c2c([H])c(OC([H])([H])C([H])([H])C([H])(C([H])([H])[H])[N+]([H])([H])C3([H])C([H])([H])C([H])(N(C(=O)N4C([H])([H])C([H])([H])C([H])([H])C([H])(n5nc(-c6c([H])c([H])c(Oc7c([H])c([H])c(F)c([H])c7F)c([H])c6[H])c(C(=O)N([H])[H])c5N([H])[H])C4([H])[H])C([H])([H])C([H])([H])[H])C([H])([H])C([H])([H])C3([H])C([H])([H])C([H])([H])[H])c([H])c([H])c2C1([H])[H]

$$$$
75:0:0
     RDKit          3D

 94102  0  0  1  0  0  0  0  0999 V2000
  -29.3970  -20.3740   20.9670 C   0  0  0  0  0  3  0  0  0  0  0  0
  -28.5740  -19.0660   19.1190 C   0  0  0  0  0  3  0  0  0  0  0  0
  -30.0330  -17.9950   20.7850 C   0  0  0  0  0  0  0  0  0  0  0  0
  -28.6310  -20.3080   19.7840 C   0  0  0  0  0  0  0  0  0  0  0  0
  -30.0910  -19.2480   21.4570 C   0  0  0  0  0  0  0  0  0  0  0  0
  -29.2560  -17.9290   19.5910 C   0  0  0  0  0  0  0  0  0  0  0  0
  -31.0430  -19.4710   22.8860 Cl  0  0  0  0  0  0  0  0  0  0  0  0
  -29.1100  -16.5210   18.5970 Cl  0  0  0  0  0  0  0  0  0  0  0  0
  -27.4870  -21.4060   17.8960 C   0  0  0  0  0  1  0  0  0  0  0  0
  -27.9590  -21.4510   19.2840 N   0  0  0  0  0  0  0  0  0  0  0  0
  -27.1350  -22.2020   20.2360 C   0  0  0  0  0  2  0  0  0  0  0  0
  -27.2860  -23.7330   20.1130 C   0  0  0  0  0  2  0  0  0  0  0  0
  -28.6020  -24.2880   20.6880 C   0  0  0  0  0  2  0  0  0  0  0  0
  -28.5240  -25.7330   21.2290 C   0  0  0  0  0  2  0  0  0  0  0  0
  -28.5190  -26.7450   20.2140 O   0  0  0  0  0  0  0  0  0  0  0  0
  -24.6710  -31.9370   23.2060 C   0  0  0  0  0  0  0  0  0  0  0  0
  -27.3710  -27.4970   20.1920 C   0  0  0  0  0  0  0  0  0  0  0  0
  -23.4900  -30.5090   21.5660 C   0  0  0  0  0  3  0  0  0  0  0  0
  -24.9670  -28.9710   20.1700 C   0  0  0  0  0  0  0  0  0  0  0  0
  -26.0150  -30.8880   21.3900 C   0  0  0  0  0  2  0  0  0  0  0  0
  -26.1160  -29.5130   20.7640 C   0  0  0  0  0  0  0  0  0  0  0  0
  -27.3240  -28.7830   20.7740 C   0  0  0  0  0  3  0  0  0  0  0  0
  -26.2140  -26.9690   19.5860 C   0  0  0  0  0  3  0  0  0  0  0  0
  -25.0100  -27.6980   19.5750 C   0  0  0  0  0  3  0  0  0  0  0  0
  -23.7160  -29.8180   20.1940 C   0  0  0  0  0  2  0  0  0  0  0  0
  -24.7420  -31.1280   22.1110 N   0  0  0  0  0  0  0  0  0  0  0  0
  -23.5830  -32.2050   23.7350 O   0  0  0  0  0  0  0  0  0  0  0  0
  -22.8380  -29.4920   22.5310 C   0  0  0  0  0  0  0  0  0  0  0  0
  -21.5190  -29.2870   22.3870 N   0  0  0  0  0  0  0  0  0  0  0  0
  -23.5190  -28.8890   23.3660 O   0  0  0  0  0  0  0  0  0  0  0  0
  -21.0320  -29.8280   21.6880 H   0  0  0  0  0  0  0  0  0  0  0  0
  -18.1540  -28.0550   22.8500 C   0  0  0  0  0  0  0  0  0  0  0  0
  -20.7030  -28.3480   23.1570 C   0  0  0  0  0  3  0  0  0  0  0  0
  -20.8330  -26.9110   22.6000 C   0  0  0  0  0  2  0  0  0  0  0  0
  -19.7500  -26.5610   21.5750 C   0  0  0  0  0  2  0  0  0  0  0  0
  -18.3560  -26.6990   22.1950 C   0  0  0  0  0  2  0  0  0  0  0  0
  -19.2560  -28.8360   23.2870 C   0  0  0  0  0  0  0  0  0  0  0  0
  -19.0130  -30.1050   23.8560 C   0  0  0  0  0  3  0  0  0  0  0  0
  -17.7000  -30.5940   23.9940 C   0  0  0  0  0  3  0  0  0  0  0  0
  -16.6130  -29.8080   23.5740 C   0  0  0  0  0  3  0  0  0  0  0  0
  -16.8390  -28.5420   23.0090 C   0  0  0  0  0  3  0  0  0  0  0  0
  -25.9500  -32.5840   23.8290 C   0  0  0  0  0  3  0  0  0  0  0  0
  -25.6230  -33.9720   24.1770 N   0  0  0  0  0  0  0  0  0  0  0  0
  -25.9320  -35.0360   23.4240 C   0  0  0  0  0  0  0  0  0  0  0  0
  -26.5980  -34.9530   22.3890 O   0  0  0  0  0  0  0  0  0  0  0  0
  -25.0450  -34.1120   24.9930 H   0  0  0  0  0  0  0  0  0  0  0  0
  -24.1890  -36.8120   23.0630 C   0  0  0  0  0  1  0  0  0  0  0  0
  -25.4210  -36.4130   23.8930 C   0  0  0  0  0  3  0  0  0  0  0  0
  -27.5220  -37.3150   24.7830 C   0  0  0  0  0  1  0  0  0  0  0  0
  -26.4420  -37.4790   23.8120 N   0  0  0  0  0  0  0  0  0  0  0  0
  -26.0220  -38.3930   23.9570 H   0  0  0  0  0  0  0  0  0  0  0  0
  -26.4860  -31.8050   25.0930 C   0  0  1  0  0  0  0  0  0  0  0  0
  -25.4000  -31.5200   26.1560 C   0  0  0  0  0  1  0  0  0  0  0  0
  -27.1090  -30.4510   24.6790 C   0  0  0  0  0  1  0  0  0  0  0  0
  -27.6160  -32.6160   25.7700 C   0  0  0  0  0  1  0  0  0  0  0  0
  -30.8780  -16.8290   21.3360 C   0  0  0  0  0  2  0  0  0  0  0  0
  -31.1180  -14.5040   20.4490 C   0  0  0  0  0  0  0  0  0  0  0  0
  -30.8380  -12.3570   19.2740 C   0  0  0  0  0  2  0  0  0  0  0  0
  -29.9030  -12.5430   18.0610 C   0  0  0  0  0  2  0  0  0  0  0  0
  -28.4210  -12.4130   18.4680 C   0  0  0  0  0  2  0  0  0  0  0  0
  -28.0740  -13.2580   19.7230 C   0  0  0  0  0  3  0  0  0  0  0  0
  -29.1140  -13.0310   20.8410 C   0  0  0  0  0  2  0  0  0  0  0  0
  -30.4470  -13.3360   20.2970 N   0  0  0  0  0  0  0  0  0  0  0  0
  -32.2260  -14.7230   19.9560 O   0  0  0  0  0  0  0  0  0  0  0  0
  -30.4270  -15.4600   21.0860 N   0  0  0  0  0  0  0  0  0  0  0  0
  -29.5130  -15.2040   21.4250 H   0  0  0  0  0  0  0  0  0  0  0  0
  -25.6730  -13.8810   20.4140 C   0  0  0  0  0  0  0  0  0  0  0  0
  -24.5990  -13.1130   20.7790 C   0  0  0  0  0  0  0  0  0  0  0  0
  -25.0530  -11.7590   20.7480 C   0  0  0  0  0  0  0  0  0  0  0  0
  -26.7150  -12.9940   20.1900 N   0  0  0  0  0  0  0  0  0  0  0  0
  -26.3440  -11.7130   20.4470 N   0  0  0  0  0  0  0  0  0  0  0  0
  -24.3220  -10.4990   20.9310 C   0  0  0  0  0  0  0  0  0  0  0  0
  -24.6980   -9.5670   21.9230 C   0  0  0  0  0  3  0  0  0  0  0  0
  -23.9720   -8.3700   22.0920 C   0  0  0  0  0  3  0  0  0  0  0  0
  -22.8550   -8.0950   21.2680 C   0  0  0  0  0  0  0  0  0  0  0  0
  -22.5000   -9.0140   20.2660 C   0  0  0  0  0  3  0  0  0  0  0  0
  -23.2270  -10.2030   20.0950 C   0  0  0  0  0  3  0  0  0  0  0  0
  -22.1050   -6.9460   21.3460 O   0  0  0  0  0  0  0  0  0  0  0  0
  -21.9210   -6.2830   22.5330 C   0  0  0  0  0  0  0  0  0  0  0  0
  -21.2790   -6.8900   23.6350 C   0  0  0  0  0  3  0  0  0  0  0  0
  -21.0490   -6.1480   24.8110 C   0  0  0  0  0  3  0  0  0  0  0  0
  -21.4500   -4.8000   24.8840 C   0  0  0  0  0  0  0  0  0  0  0  0
  -22.0850   -4.1930   23.7870 C   0  0  0  0  0  3  0  0  0  0  0  0
  -22.3170   -4.9330   22.6130 C   0  0  0  0  0  0  0  0  0  0  0  0
  -22.9110   -4.3360   21.5510 F   0  0  0  0  0  0  0  0  0  0  0  0
  -21.2210   -4.0860   26.0110 F   0  0  0  0  0  0  0  0  0  0  0  0
  -23.2010  -13.5950   21.0430 C   0  0  0  0  0  0  0  0  0  0  0  0
  -22.4580  -12.8960   21.8940 N   0  0  0  0  0  0  0  0  0  0  0  0
  -22.7720  -14.6250   20.5240 O   0  0  0  0  0  0  0  0  0  0  0  0
  -22.8130  -12.0640   22.3400 H   0  0  0  0  0  0  0  0  0  0  0  0
  -21.5180  -13.2010   22.1040 H   0  0  0  0  0  0  0  0  0  0  0  0
  -25.8520  -15.2500   20.2310 N   0  0  0  0  0  0  0  0  0  0  0  0
  -25.0980  -15.9230   20.3190 H   0  0  0  0  0  0  0  0  0  0  0  0
  -26.7080  -15.6550   19.8710 H   0  0  0  0  0  0  0  0  0  0  0  0
  1  5  1  0
  2  6  2  0
  2  4  1  0
  3 56  1  0
  3  5  2  0
  4  1  2  0
  5  7  1  0
  6  3  1  0
  8  6  1  0
  9 10  1  0
 10  4  1  0
 10 11  1  0
 12 11  1  0
 12 13  1  0
 13 14  1  0
 15 14  1  0
 16 27  2  0
 17 15  1  0
 17 22  1  0
 18 26  1  0
 18 28  1  0
 19 25  1  0
 19 21  1  0
 20 26  1  0
 21 22  2  0
 21 20  1  0
 23 17  2  0
 24 23  1  0
 24 19  2  0
 25 18  1  0
 26 16  1  0
 28 30  2  0
 29 28  1  0
 31 29  1  0
 32 41  2  0
 32 37  1  0
 33 29  1  0
 33 37  1  0
 34 33  1  0
 35 36  1  0
 35 34  1  0
 36 32  1  0
 37 38  2  0
 38 39  1  0
 40 39  2  0
 41 40  1  0
 42 16  1  0
 42 43  1  0
 42 52  1  0
 43 46  1  0
 44 48  1  0
 44 43  1  0
 45 44  2  0
 48 47  1  0
 50 48  1  0
 50 51  1  0
 50 49  1  0
 52 55  1  1
 52 53  1  0
 54 52  1  0
 57 65  1  0
 58 63  1  0
 59 60  1  0
 59 58  1  0
 61 60  1  0
 61 70  1  0
 61 62  1  0
 63 57  1  0
 63 62  1  0
 64 57  2  0
 65 56  1  0
 65 66  1  0
 67 68  2  0
 68 87  1  0
 69 68  1  0
 69 72  1  0
 70 67  1  0
 70 71  1  0
 71 69  2  0
 72 73  1  0
 73 74  2  0
 75 78  1  0
 75 74  1  0
 76 75  2  0
 77 76  1  0
 77 72  2  0
 78 79  1  0
 79 84  2  0
 79 80  1  0
 80 81  2  0
 81 82  1  0
 82 86  1  0
 83 82  2  0
 84 83  1  0
 85 84  1  0
 87 88  1  0
 88 91  1  0
 88 90  1  0
 89 87  2  0
 92 93  1  0
 92 67  1  0
 94 92  1  0
M  ISO  4  14 101  15 101  57 100  65 100
M  END
>  <TORSDO>  (76) 
F 22

>  <SCORE>  (76) 
-12.758

>  <name>  (76) 
75

>  <ligand_id>  (76) 
75

>  <original_smiles>  (76) 
[H]c1c([H])c([H])c2c(c1[H])C([H])([H])C([H])([H])C([H])([H])C2([H])N([H])C(=O)C1([H])N(C(=O)C([H])(N([H])C(=O)C([H])(N([H])C([H])([H])[H])C([H])([H])[H])C(C([H])([H])[H])(C([H])([H])[H])C([H])([H])[H])C([H])([H])c2c([H])c(OC([H])([H])C([H])([H])C([H])([H])C([H])([H])N(c3c([H])c(Cl)c(C([H])([H])N([H])C(=O)N4C([H])([H])C([H])([H])C([H])([H])C([H])(n5nc(-c6c([H])c([H])c(Oc7c([H])c([H])c(F)c([H])c7F)c([H])c6[H])c(C(=O)N([H])[H])c5N([H])[H])C4([H])[H])c(Cl)c3[H])C([H])([H])[H])c([H])c([H])c2C1([H])[H]

>  <smiles>  (76) 
[H]c1c([H])c([H])c2c(c1[H])C([H])([H])C([H])([H])C([H])([H])C2([H])N([H])C(=O)C1([H])N(C(=O)C([H])(N([H])C(=O)C([H])(N([H])C([H])([H])[H])C([H])([H])[H])C(C([H])([H])[H])(C([H])([H])[H])C([H])([H])[H])C([H])([H])c2c([H])c(OC([H])([H])C([H])([H])C([H])([H])C([H])([H])N(c3c([H])c(Cl)c(C([H])([H])N([H])C(=O)N4C([H])([H])C([H])([H])C([H])([H])C([H])(n5nc(-c6c([H])c([H])c(Oc7c([H])c([H])c(F)c([H])c7F)c([H])c6[H])c(C(=O)N([H])[H])c5N([H])[H])C4([H])[H])c(Cl)c3[H])C([H])([H])[H])c([H])c([H])c2C1([H])[H]

$$$$
76:0:0
     RDKit          3D

101109  0  0  1  0  0  0  0  0999 V2000
  -31.3850  -18.0210   20.0080 C   0  0  0  0  0  0  0  0  0  0  0  0
  -30.9980  -21.4600   18.8980 C   0  0  0  0  0  2  0  0  0  0  0  0
  -29.8710  -19.3820   18.5140 C   0  0  0  0  0  2  0  0  0  0  0  0
  -31.3480  -20.5150   20.0630 C   0  0  0  0  0  3  0  0  0  0  0  0
  -29.7390  -20.8900   18.2360 C   0  0  1  0  0  0  0  0  0  0  0  0
  -28.4410  -21.4670   18.8420 C   0  0  0  0  0  1  0  0  0  0  0  0
  -29.7660  -21.1880   16.7260 C   0  0  0  0  0  1  0  0  0  0  0  0
  -30.8750  -19.2080   19.5810 N   0  0  0  0  0  0  0  0  0  0  0  0
  -32.1030  -17.9420   21.0090 O   0  0  0  0  0  0  0  0  0  0  0  0
  -30.6430  -20.9640   21.3610 C   0  0  0  0  0  0  0  0  0  0  0  0
  -30.9110  -22.2080   21.7860 N   0  0  0  0  0  0  0  0  0  0  0  0
  -29.8410  -20.2280   21.9400 O   0  0  0  0  0  0  0  0  0  0  0  0
  -31.6080  -22.7310   21.2720 H   0  0  0  0  0  0  0  0  0  0  0  0
  -30.1870  -22.9260   22.8300 C   0  0  0  0  0  2  0  0  0  0  0  0
  -28.9230  -23.6100   22.2700 C   0  0  0  0  0  2  0  0  0  0  0  0
  -29.1800  -24.7390   21.2460 C   0  0  0  0  0  2  0  0  0  0  0  0
  -27.8590  -25.3310   20.7280 C   0  0  0  0  0  2  0  0  0  0  0  0
  -28.0500  -26.5610   20.0230 O   0  0  0  0  0  0  0  0  0  0  0  0
  -24.4920  -31.8170   23.1870 C   0  0  0  0  0  0  0  0  0  0  0  0
  -26.9160  -27.3400   20.0140 C   0  0  0  0  0  0  0  0  0  0  0  0
  -23.1930  -30.4540   21.5790 C   0  0  0  0  0  3  0  0  0  0  0  0
  -24.5580  -28.8880   20.1000 C   0  0  0  0  0  0  0  0  0  0  0  0
  -25.7160  -30.7580   21.2930 C   0  0  0  0  0  2  0  0  0  0  0  0
  -25.7480  -29.3890   20.6460 C   0  0  0  0  0  0  0  0  0  0  0  0
  -26.9330  -28.6250   20.5950 C   0  0  0  0  0  3  0  0  0  0  0  0
  -25.7150  -26.8480   19.4600 C   0  0  0  0  0  3  0  0  0  0  0  0
  -24.5370  -27.6160   19.5000 C   0  0  0  0  0  3  0  0  0  0  0  0
  -23.3350  -29.7710   20.1900 C   0  0  0  0  0  2  0  0  0  0  0  0
  -24.4880  -31.0230   22.0780 N   0  0  0  0  0  0  0  0  0  0  0  0
  -23.4380  -32.1130   23.7660 O   0  0  0  0  0  0  0  0  0  0  0  0
  -22.5490  -29.4460   22.5580 C   0  0  0  0  0  0  0  0  0  0  0  0
  -21.2330  -29.2240   22.4050 N   0  0  0  0  0  0  0  0  0  0  0  0
  -23.2310  -28.8680   23.4070 O   0  0  0  0  0  0  0  0  0  0  0  0
  -20.7450  -29.7440   21.6900 H   0  0  0  0  0  0  0  0  0  0  0  0
  -17.8940  -27.9130   22.8170 C   0  0  0  0  0  0  0  0  0  0  0  0
  -20.4240  -28.2890   23.1850 C   0  0  0  0  0  3  0  0  0  0  0  0
  -20.6110  -26.8380   22.6830 C   0  0  0  0  0  2  0  0  0  0  0  0
  -19.5690  -26.4210   21.6410 C   0  0  0  0  0  2  0  0  0  0  0  0
  -18.1550  -26.5410   22.2160 C   0  0  0  0  0  2  0  0  0  0  0  0
  -18.9600  -28.7380   23.2570 C   0  0  0  0  0  0  0  0  0  0  0  0
  -18.6660  -30.0190   23.7730 C   0  0  0  0  0  3  0  0  0  0  0  0
  -17.3370  -30.4750   23.8560 C   0  0  0  0  0  3  0  0  0  0  0  0
  -16.2830  -29.6450   23.4350 C   0  0  0  0  0  3  0  0  0  0  0  0
  -16.5620  -28.3650   22.9210 C   0  0  0  0  0  3  0  0  0  0  0  0
  -25.8150  -32.4080   23.7660 C   0  0  0  0  0  3  0  0  0  0  0  0
  -25.5510  -33.8050   24.1350 N   0  0  0  0  0  0  0  0  0  0  0  0
  -25.8770  -34.8640   23.3820 C   0  0  0  0  0  0  0  0  0  0  0  0
  -26.5050  -34.7670   22.3240 O   0  0  0  0  0  0  0  0  0  0  0  0
  -24.9960  -33.9570   24.9640 H   0  0  0  0  0  0  0  0  0  0  0  0
  -24.1860  -36.7030   23.1100 C   0  0  0  0  0  1  0  0  0  0  0  0
  -25.4350  -36.2510   23.8840 C   0  0  0  0  0  3  0  0  0  0  0  0
  -27.6040  -37.0700   24.6920 C   0  0  0  0  0  1  0  0  0  0  0  0
  -26.4900  -37.2830   23.7710 N   0  0  0  0  0  0  0  0  0  0  0  0
  -26.1090  -38.2090   23.9450 H   0  0  0  0  0  0  0  0  0  0  0  0
  -26.3700  -31.6000   25.0010 C   0  0  1  0  0  0  0  0  0  0  0  0
  -25.3160  -31.3530   26.1050 C   0  0  0  0  0  1  0  0  0  0  0  0
  -26.9180  -30.2270   24.5490 C   0  0  0  0  0  1  0  0  0  0  0  0
  -27.5560  -32.3630   25.6390 C   0  0  0  0  0  1  0  0  0  0  0  0
  -31.1410  -16.7470   19.1540 C   0  0  0  0  0  0  0  0  0  0  0  0
  -31.3590  -14.5250   20.4310 C   0  0  0  0  0  0  0  0  0  0  0  0
  -30.9620  -12.3430   19.4510 C   0  0  0  0  0  2  0  0  0  0  0  0
  -30.0820  -12.5890   18.2060 C   0  0  0  0  0  2  0  0  0  0  0  0
  -28.5860  -12.5900   18.5770 C   0  0  0  0  0  2  0  0  0  0  0  0
  -28.2510  -13.4500   19.8260 C   0  0  0  0  0  3  0  0  0  0  0  0
  -29.2710  -13.2250   20.9680 C   0  0  0  0  0  2  0  0  0  0  0  0
  -30.6250  -13.3870   20.4210 N   0  0  0  0  0  0  0  0  0  0  0  0
  -32.5850  -14.5430   20.4720 O   0  0  0  0  0  0  0  0  0  0  0  0
  -30.6800  -15.5790   19.9480 N   0  0  0  0  0  4  0  0  0  0  0  0
  -29.6840  -15.4370   19.9240 H   0  0  0  0  0  0  0  0  0  0  0  0
  -25.8550  -14.1610   20.4470 C   0  0  0  0  0  0  0  0  0  0  0  0
  -24.7400  -13.4350   20.7670 C   0  0  0  0  0  0  0  0  0  0  0  0
  -25.1470  -12.0650   20.7620 C   0  0  0  0  0  0  0  0  0  0  0  0
  -26.8730  -13.2360   20.2640 N   0  0  0  0  0  0  0  0  0  0  0  0
  -26.4480  -11.9730   20.5180 N   0  0  0  0  0  0  0  0  0  0  0  0
  -24.3630  -10.8340   20.9160 C   0  0  0  0  0  0  0  0  0  0  0  0
  -24.7170   -9.8480   21.8620 C   0  0  0  0  0  3  0  0  0  0  0  0
  -23.9370   -8.6810   22.0060 C   0  0  0  0  0  3  0  0  0  0  0  0
  -22.7870   -8.4930   21.2020 C   0  0  0  0  0  0  0  0  0  0  0  0
  -22.4530   -9.4660   20.2450 C   0  0  0  0  0  3  0  0  0  0  0  0
  -23.2340  -10.6250   20.0990 C   0  0  0  0  0  3  0  0  0  0  0  0
  -21.9840   -7.3800   21.2560 O   0  0  0  0  0  0  0  0  0  0  0  0
  -21.8430   -6.6490   22.4060 C   0  0  0  0  0  0  0  0  0  0  0  0
  -21.3660   -7.2260   23.6040 C   0  0  0  0  0  3  0  0  0  0  0  0
  -21.1720   -6.4210   24.7450 C   0  0  0  0  0  3  0  0  0  0  0  0
  -21.4430   -5.0420   24.6890 C   0  0  0  0  0  0  0  0  0  0  0  0
  -21.9110   -4.4630   23.4960 C   0  0  0  0  0  3  0  0  0  0  0  0
  -22.1070   -5.2650   22.3570 C   0  0  0  0  0  0  0  0  0  0  0  0
  -22.5390   -4.6990   21.2050 F   0  0  0  0  0  0  0  0  0  0  0  0
  -21.2490   -4.2660   25.7820 F   0  0  0  0  0  0  0  0  0  0  0  0
  -23.3520  -13.9700   20.9740 C   0  0  0  0  0  0  0  0  0  0  0  0
  -22.5700  -13.3310   21.8380 N   0  0  0  0  0  0  0  0  0  0  0  0
  -22.9690  -14.9900   20.4020 O   0  0  0  0  0  0  0  0  0  0  0  0
  -22.8870  -12.5060   22.3220 H   0  0  0  0  0  0  0  0  0  0  0  0
  -21.6370  -13.6750   22.0190 H   0  0  0  0  0  0  0  0  0  0  0  0
  -26.0800  -15.5240   20.2720 N   0  0  0  0  0  0  0  0  0  0  0  0
  -25.3270  -16.2000   20.3530 H   0  0  0  0  0  0  0  0  0  0  0  0
  -26.9600  -15.9460   20.0090 H   0  0  0  0  0  0  0  0  0  0  0  0
  -33.1520  -17.6270   17.6690 C   0  0  0  0  0  1  0  0  0  0  0  0
  -33.0710  -15.2460   18.0470 C   0  0  0  0  0  1  0  0  0  0  0  0
  -31.3160  -16.3270   16.6240 C   0  0  0  0  0  1  0  0  0  0  0  0
  -32.1400  -16.4730   17.9240 C   0  0  1  0  0  0  0  0  0  0  0  0
  1  9  2  0
  2  4  1  0
  3  8  1  0
  4 10  1  0
  5  3  1  0
  5  6  1  1
  5  2  1  0
  7  5  1  0
  8  1  1  0
  8  4  1  0
 10 11  1  0
 10 12  2  0
 11 14  1  0
 13 11  1  0
 15 14  1  0
 16 15  1  0
 17 16  1  0
 18 17  1  0
 19 30  2  0
 20 18  1  0
 20 25  1  0
 21 29  1  0
 21 31  1  0
 22 28  1  0
 22 24  1  0
 23 29  1  0
 24 23  1  0
 25 24  2  0
 26 27  1  0
 26 20  2  0
 27 22  2  0
 28 21  1  0
 29 19  1  0
 31 33  2  0
 32 31  1  0
 34 32  1  0
 35 44  2  0
 35 40  1  0
 36 32  1  0
 36 40  1  0
 37 36  1  0
 38 39  1  0
 38 37  1  0
 39 35  1  0
 40 41  2  0
 41 42  1  0
 43 42  2  0
 44 43  1  0
 45 19  1  0
 45 46  1  0
 45 55  1  0
 46 49  1  0
 47 51  1  0
 47 46  1  0
 48 47  2  0
 51 50  1  0
 53 51  1  0
 53 54  1  0
 53 52  1  0
 55 58  1  1
 55 56  1  0
 57 55  1  0
 59 68  2  3
 59  1  1  0
 60 67  2  0
 61 66  1  0
 62 63  1  0
 62 61  1  0
 64 63  1  0
 64 73  1  0
 64 65  1  0
 66 60  1  0
 66 65  1  0
 68 60  1  0
 69 68  1  0
 70 71  2  0
 71 90  1  0
 72 71  1  0
 72 75  1  0
 73 70  1  0
 73 74  1  0
 74 72  2  0
 75 76  1  0
 76 77  2  0
 78 81  1  0
 78 77  1  0
 79 78  2  0
 80 79  1  0
 80 75  2  0
 81 82  1  0
 82 83  1  0
 83 84  2  0
 85 84  1  0
 85 89  1  0
 86 85  2  0
 87 82  2  0
 87 86  1  0
 88 87  1  0
 90 91  1  0
 91 94  1  0
 91 93  1  0
 92 90  2  0
 95 96  1  0
 95 70  1  0
 97 95  1  0
101 98  1  6
100101  1  0
101 99  1  0
101 59  1  0
M  ISO  4  17 101  18 101  60 100  68 100
M  END
>  <TORSDO>  (77) 
F 23

>  <SCORE>  (77) 
-12.250

>  <name>  (77) 
76

>  <ligand_id>  (77) 
76

>  <original_smiles>  (77) 
[H]c1c([H])c([H])c2c(c1[H])C([H])([H])C([H])([H])C([H])([H])C2([H])N([H])C(=O)C1([H])N(C(=O)C([H])(N([H])C(=O)C([H])(N([H])C([H])([H])[H])C([H])([H])[H])C(C([H])([H])[H])(C([H])([H])[H])C([H])([H])[H])C([H])([H])c2c([H])c(OC([H])([H])C([H])([H])C([H])([H])C([H])([H])N([H])C(=O)C3([H])N(C(=O)C([H])(N([H])C(=O)N4C([H])([H])C([H])([H])C([H])([H])C([H])(n5nc(-c6c([H])c([H])c(Oc7c([H])c([H])c(F)c([H])c7F)c([H])c6[H])c(C(=O)N([H])[H])c5N([H])[H])C4([H])[H])C(C([H])([H])[H])(C([H])([H])[H])C([H])([H])[H])C([H])([H])C(C([H])([H])[H])(C([H])([H])[H])C3([H])[H])c([H])c([H])c2C1([H])[H]

>  <smiles>  (77) 
[H]c1c([H])c([H])c2c(c1[H])C([H])([H])C([H])([H])C([H])([H])C2([H])N([H])C(=O)C1([H])N(C(=O)C([H])(N([H])C(=O)C([H])(N([H])C([H])([H])[H])C([H])([H])[H])C(C([H])([H])[H])(C([H])([H])[H])C([H])([H])[H])C([H])([H])c2c([H])c(OC([H])([H])C([H])([H])C([H])([H])C([H])([H])N([H])C(=O)C3([H])N(C(=O)C([H])(N([H])C(=O)N4C([H])([H])C([H])([H])C([H])([H])C([H])(n5nc(-c6c([H])c([H])c(Oc7c([H])c([H])c(F)c([H])c7F)c([H])c6[H])c(C(=O)N([H])[H])c5N([H])[H])C4([H])[H])C(C([H])([H])[H])(C([H])([H])[H])C([H])([H])[H])C([H])([H])C(C([H])([H])[H])(C([H])([H])[H])C3([H])[H])c([H])c([H])c2C1([H])[H]

$$$$
77:0:0
     RDKit          3D

108112  0  0  1  0  0  0  0  0999 V2000
  -29.7120  -15.2100   19.1810 C   0  0  0  0  0  1  0  0  0  0  0  0
  -28.1830  -18.2340   18.5540 C   0  0  0  0  0  3  0  0  0  0  0  0
  -28.9980  -18.3850   20.4630 C   0  0  0  0  0  3  0  0  0  0  0  0
  -28.8730  -17.1650   19.4530 C   0  0  0  0  0  3  0  0  0  0  0  0
  -27.8270  -19.8070   18.6170 C   0  0  0  0  0  0  0  0  0  0  0  0
  -28.8130  -19.9770   20.4820 C   0  0  0  0  0  0  0  0  0  0  0  0
  -28.1520  -21.0070   19.5520 C   0  0  0  0  0  3  0  0  0  0  0  0
  -26.8780  -20.2560   17.5150 C   0  0  0  0  0  1  0  0  0  0  0  0
  -29.5250  -20.6560   21.6440 C   0  0  0  0  0  1  0  0  0  0  0  0
  -27.7400  -23.0270   19.3900 C   0  0  0  0  0 15  0  0  0  0  0  0
  -28.0110  -24.8900   19.8560 O   0  0  0  0  0  1  0  0  0  0  0  0
  -24.5150  -31.5280   23.0290 C   0  0  0  0  0  0  0  0  0  0  0  0
  -27.1570  -26.3030   19.8850 C   0  0  0  0  0  0  0  0  0  0  0  0
  -23.4160  -30.1190   21.3570 C   0  0  0  0  0  3  0  0  0  0  0  0
  -24.9290  -28.5210   19.9090 C   0  0  0  0  0  0  0  0  0  0  0  0
  -26.0080  -30.2510   21.3000 C   0  0  0  0  0  2  0  0  0  0  0  0
  -26.1160  -28.8070   20.5840 C   0  0  0  0  0  0  0  0  0  0  0  0
  -27.2070  -27.7310   20.5390 C   0  0  0  0  0  3  0  0  0  0  0  0
  -25.9420  -26.3410   19.1480 C   0  0  0  0  0  3  0  0  0  0  0  0
  -24.9010  -27.3300   19.1680 C   0  0  0  0  0  3  0  0  0  0  0  0
  -23.7040  -29.4630   19.9750 C   0  0  0  0  0  2  0  0  0  0  0  0
  -24.6760  -30.6740   21.9480 N   0  0  0  0  0  0  0  0  0  0  0  0
  -23.4000  -31.7770   23.5190 O   0  0  0  0  0  0  0  0  0  0  0  0
  -22.7220  -29.0960   22.2990 C   0  0  0  0  0  0  0  0  0  0  0  0
  -21.3880  -28.9270   22.1960 N   0  0  0  0  0  0  0  0  0  0  0  0
  -23.4010  -28.4510   23.1010 O   0  0  0  0  0  0  0  0  0  0  0  0
  -20.8860  -29.4920   21.5260 H   0  0  0  0  0  0  0  0  0  0  0  0
  -18.0370  -27.6090   22.7290 C   0  0  0  0  0  0  0  0  0  0  0  0
  -20.5980  -27.9350   22.9410 C   0  0  0  0  0  3  0  0  0  0  0  0
  -20.7180  -26.5300   22.3040 C   0  0  0  0  0  2  0  0  0  0  0  0
  -19.6020  -26.2290   21.2980 C   0  0  0  0  0  2  0  0  0  0  0  0
  -18.2330  -26.3030   21.9790 C   0  0  0  0  0  2  0  0  0  0  0  0
  -19.1460  -28.3830   23.1670 C   0  0  0  0  0  0  0  0  0  0  0  0
  -18.9050  -29.6020   23.8360 C   0  0  0  0  0  3  0  0  0  0  0  0
  -17.5900  -30.0500   24.0660 C   0  0  0  0  0  3  0  0  0  0  0  0
  -16.4980  -29.2730   23.6430 C   0  0  0  0  0  3  0  0  0  0  0  0
  -16.7220  -28.0550   22.9800 C   0  0  0  0  0  3  0  0  0  0  0  0
  -25.7200  -32.2450   23.7070 C   0  0  0  0  0  3  0  0  0  0  0  0
  -25.3470  -33.6550   23.9690 N   0  0  0  0  0  0  0  0  0  0  0  0
  -25.7800  -34.7200   23.2790 C   0  0  0  0  0  0  0  0  0  0  0  0
  -26.5870  -34.6230   22.3530 O   0  0  0  0  0  0  0  0  0  0  0  0
  -24.6420  -33.8000   24.6770 H   0  0  0  0  0  0  0  0  0  0  0  0
  -24.1020  -36.5200   22.7260 C   0  0  0  0  0  1  0  0  0  0  0  0
  -25.2390  -36.1130   23.6770 C   0  0  0  0  0  3  0  0  0  0  0  0
  -27.2520  -37.0200   24.7580 C   0  0  0  0  0  1  0  0  0  0  0  0
  -26.2740  -37.1710   23.6860 N   0  0  0  0  0  0  0  0  0  0  0  0
  -25.8490  -38.0900   23.7750 H   0  0  0  0  0  0  0  0  0  0  0  0
  -26.1600  -31.5610   25.0610 C   0  0  1  0  0  0  0  0  0  0  0  0
  -25.0070  -31.3880   26.0780 C   0  0  0  0  0  1  0  0  0  0  0  0
  -26.7660  -30.1640   24.8120 C   0  0  0  0  0  1  0  0  0  0  0  0
  -27.2680  -32.4010   25.7390 C   0  0  0  0  0  1  0  0  0  0  0  0
  -32.2710  -15.4100   17.4420 C   0  0  0  0  0  2  0  0  0  0  0  0
  -33.3170  -16.0610   18.3990 C   0  0  0  0  0  2  0  0  0  0  0  0
  -31.3950  -17.2620   18.2080 C   0  0  0  0  0  2  0  0  0  0  0  0
  -30.8170  -15.8360   17.9710 C   0  0  0  0  0  3  0  0  0  0  0  0
  -32.4960  -17.0260   19.2760 C   0  0  0  0  0  3  0  0  0  0  0  0
  -31.9880  -15.2270   21.0450 C   0  0  0  0  0  0  0  0  0  0  0  0
  -31.4100  -13.6370   19.3190 C   0  0  0  0  0  3  0  0  0  0  0  0
  -30.0630  -13.3260   17.9650 C   0  0  0  0  0  3  0  0  0  0  0  0
  -28.2290  -13.5380   18.3270 C   0  0  0  0  0  2  0  0  0  0  0  0
  -27.6970  -14.2770   20.0250 C   0  0  0  0  0  2  0  0  0  0  0  0
  -29.1200  -14.7500   21.4020 C   0  0  0  0  0  1  0  0  0  0  0  0
  -30.9350  -14.4850   20.8540 N   0  0  0  0  0  0  0  0  0  0  0  0
  -33.0790  -14.7270   21.0150 O   0  0  0  0  0  0  0  0  0  0  0  0
  -31.8420  -16.4210   20.4760 N   0  0  0  0  0  0  0  0  0  0  0  0
  -30.8740  -16.7060   20.5300 H   0  0  0  0  0  0  0  0  0  0  0  0
  -25.4330  -14.4860   20.7290 C   0  0  0  0  0  0  0  0  0  0  0  0
  -24.4170  -13.6240   20.9230 C   0  0  0  0  0  0  0  0  0  0  0  0
  -24.9300  -12.3030   20.8540 C   0  0  0  0  0  0  0  0  0  0  0  0
  -26.4930  -13.7100   20.4760 N   0  0  0  0  0  0  0  0  0  0  0  0
  -26.1740  -12.4020   20.4450 N   0  0  0  0  0  0  0  0  0  0  0  0
  -24.2560  -11.0010   21.0040 C   0  0  0  0  0  0  0  0  0  0  0  0
  -24.6280  -10.0380   21.9710 C   0  0  0  0  0  3  0  0  0  0  0  0
  -23.8690   -8.8550   22.1380 C   0  0  0  0  0  3  0  0  0  0  0  0
  -22.7240   -8.6250   21.3380 C   0  0  0  0  0  0  0  0  0  0  0  0
  -22.3820   -9.5720   20.3570 C   0  0  0  0  0  3  0  0  0  0  0  0
  -23.1440  -10.7380   20.1840 C   0  0  0  0  0  3  0  0  0  0  0  0
  -21.9360   -7.4990   21.4030 O   0  0  0  0  0  0  0  0  0  0  0  0
  -21.8490   -6.7320   22.5380 C   0  0  0  0  0  0  0  0  0  0  0  0
  -21.3610   -7.2550   23.7550 C   0  0  0  0  0  3  0  0  0  0  0  0
  -21.2140   -6.4100   24.8780 C   0  0  0  0  0  3  0  0  0  0  0  0
  -21.5560   -5.0470   24.7810 C   0  0  0  0  0  0  0  0  0  0  0  0
  -22.0330   -4.5250   23.5680 C   0  0  0  0  0  3  0  0  0  0  0  0
  -22.1730   -5.3640   22.4500 C   0  0  0  0  0  0  0  0  0  0  0  0
  -22.6090   -4.8470   21.2730 F   0  0  0  0  0  0  0  0  0  0  0  0
  -21.4160   -4.2350   25.8570 F   0  0  0  0  0  0  0  0  0  0  0  0
  -23.0170  -14.0670   21.0410 C   0  0  0  0  0  0  0  0  0  0  0  0
  -22.2450  -13.4170   21.8930 N   0  0  0  0  0  0  0  0  0  0  0  0
  -22.6310  -15.0440   20.4030 O   0  0  0  0  0  0  0  0  0  0  0  0
  -22.5970  -12.6240   22.4080 H   0  0  0  0  0  0  0  0  0  0  0  0
  -21.2840  -13.7040   22.0160 H   0  0  0  0  0  0  0  0  0  0  0  0
  -25.5170  -15.8780   20.6910 N   0  0  0  0  0  0  0  0  0  0  0  0
  -24.6850  -16.4170   20.8860 H   0  0  0  0  0  0  0  0  0  0  0  0
  -26.3430  -16.4550   20.6050 H   0  0  0  0  0  0  0  0  0  0  0  0
  -29.9290  -12.8220   20.5230 N   0  0  0  0  0  0  0  0  0  0  0  0
  -30.5650  -12.6130   19.7610 H   0  0  0  0  0  0  0  0  0  0  0  0
  -32.0280  -13.1490   22.6610 C   0  0  0  0  0  1  0  0  0  0  0  0
  -32.0020  -11.1950   21.3240 C   0  0  0  0  0  1  0  0  0  0  0  0
  -31.0070  -12.3480   21.7130 C   0  0  0  0  0  3  0  0  0  0  0  0
  -29.2670  -10.2160   19.7090 C   0  0  0  0  0  3  0  0  0  0  0  0
  -29.1610  -11.2980   20.5680 C   0  0  0  0  0  3  0  0  0  0  0  0
  -30.5880   -9.8050   19.0300 C   0  0  0  0  0  1  0  0  0  0  0  0
  -27.9120   -9.0070   17.8940 C   0  0  0  0  0  1  0  0  0  0  0  0
  -26.7090   -9.4960   19.9590 C   0  0  0  0  0  1  0  0  0  0  0  0
  -28.4980   -7.7400   19.9380 C   0  0  0  0  0  1  0  0  0  0  0  0
  -28.1360   -9.1470   19.4250 C   0  0  2  0  0  0  0  0  0  0  0  0
  -29.0910   -9.8090   22.8160 C   0  0  0  0  0  1  0  0  0  0  0  0
  -28.4470  -10.9090   21.9380 C   0  0  0  0  0  2  0  0  0  0  0  0
  2  5  2  0
  2  4  1  0
  3  6  1  0
  4  3  2  0
  5  7  1  0
  6  9  1  0
  7  6  2  0
  8  5  1  0
 11 13  1  0
 12 23  2  0
 13 18  1  0
 14 22  1  0
 14 24  1  0
 15 21  1  0
 15 17  1  0
 16 22  1  0
 17 16  1  0
 18 17  2  0
 19 20  1  0
 19 13  2  0
 20 15  2  0
 21 14  1  0
 22 12  1  0
 24 26  2  0
 25 24  1  0
 27 25  1  0
 28 37  2  0
 28 33  1  0
 29 25  1  0
 29 33  1  0
 30 29  1  0
 31 32  1  0
 31 30  1  0
 32 28  1  0
 33 34  2  0
 34 35  1  0
 36 35  2  0
 37 36  1  0
 38 12  1  0
 38 39  1  0
 38 48  1  0
 39 42  1  0
 40 44  1  0
 40 39  1  0
 41 40  2  0
 44 43  1  0
 44 46  1  0
 46 47  1  0
 46 45  1  0
 48 51  1  1
 48 49  1  0
 50 48  1  0
 52 55  1  0
 52 53  1  0
 53 56  1  0
 54 56  1  0
 55 54  1  0
 55  1  1  0
 56 65  1  0
 58 63  1  0
 59 60  1  0
 59 58  2  0
 60 61  1  0
 61 70  1  0
 63 57  1  0
 63 62  1  0
 64 57  2  0
 65 66  1  0
 65 57  1  0
 67 68  2  0
 68 87  1  0
 69 68  1  0
 69 72  1  0
 70 67  1  0
 71 70  1  0
 71 69  2  0
 72 73  1  0
 73 74  2  0
 75 78  1  0
 75 74  1  0
 76 75  2  0
 77 76  1  0
 77 72  2  0
 78 79  1  0
 79 80  1  0
 80 81  2  0
 82 81  1  0
 82 86  1  0
 83 82  2  0
 84 79  2  0
 84 83  1  0
 85 84  1  0
 87 88  1  0
 88 91  1  0
 88 90  1  0
 89 87  2  0
 92 67  1  0
 92 93  1  0
 94 92  1  0
 95101  1  0
 95 99  1  0
 96 95  1  0
 98 99  1  0
 99 97  1  0
100102  1  0
100101  1  0
101108  1  0
106103  1  6
106100  1  0
106105  1  0
106104  1  0
108107  1  0
M  ISO  4  10 101  11 101  57 100  65 100
M  END
>  <TORSDO>  (78) 
F 24

>  <SCORE>  (78) 
-10.894

>  <name>  (78) 
77

>  <ligand_id>  (78) 
77

>  <original_smiles>  (78) 
[H]c1c([H])c([H])c2c(c1[H])C([H])([H])C([H])([H])C([H])([H])C2([H])N([H])C(=O)C1([H])N(C(=O)C([H])(N([H])C(=O)C([H])(N([H])C([H])([H])[H])C([H])([H])[H])C(C([H])([H])[H])(C([H])([H])[H])C([H])([H])[H])C([H])([H])c2c([H])c(OC([H])([H])c3c(C([H])([H])[H])c([H])c(C([H])(C4([H])C([H])([H])C([H])([H])C([H])(N([H])C(=O)N5C([H])([H])C([H])([H])C([H])([H])C([H])(n6nc(-c7c([H])c([H])c(Oc8c([H])c([H])c(F)c([H])c8F)c([H])c7[H])c(C(=O)N([H])[H])c6N([H])[H])C5([H])[H])C4([H])[H])[N+]([H])(C(=C(C([H])([H])[H])C(C([H])([H])[H])(C([H])([H])[H])C([H])([H])[H])C([H])([H])C([H])([H])[H])C([H])(C([H])([H])[H])C([H])([H])[H])c([H])c3C([H])([H])[H])c([H])c([H])c2C1([H])[H]

>  <smiles>  (78) 
[H]c1c([H])c([H])c2c(c1[H])C([H])([H])C([H])([H])C([H])([H])C2([H])N([H])C(=O)C1([H])N(C(=O)C([H])(N([H])C(=O)C([H])(N([H])C([H])([H])[H])C([H])([H])[H])C(C([H])([H])[H])(C([H])([H])[H])C([H])([H])[H])C([H])([H])c2c([H])c(OC([H])([H])c3c(C([H])([H])[H])c([H])c(C([H])(C4([H])C([H])([H])C([H])([H])C([H])(N([H])C(=O)N5C([H])([H])C([H])([H])C([H])([H])C([H])(n6nc(-c7c([H])c([H])c(Oc8c([H])c([H])c(F)c([H])c8F)c([H])c7[H])c(C(=O)N([H])[H])c6N([H])[H])C5([H])[H])C4([H])[H])[N+]([H])(C(=C(C([H])([H])[H])C(C([H])([H])[H])(C([H])([H])[H])C([H])([H])[H])C([H])([H])C([H])([H])[H])C([H])(C([H])([H])[H])C([H])([H])[H])c([H])c3C([H])([H])[H])c([H])c([H])c2C1([H])[H]

$$$$
78:0:0
     RDKit          3D

 89 97  0  0  1  0  0  0  0  0999 V2000
  -29.9000  -21.5470   18.5060 C   0  0  0  0  0  3  0  0  0  0  0  0
  -30.2390  -20.0470   18.5730 C   0  0  0  0  0  0  0  0  0  0  0  0
  -29.0660  -22.4370   19.3710 C   0  0  0  0  0  0  0  0  0  0  0  0
  -28.9790  -19.8910   20.4310 C   0  0  0  0  0  0  0  0  0  0  0  0
  -29.8110  -19.0060   19.5550 C   0  0  0  0  0  0  0  0  0  0  0  0
  -28.6480  -21.3910   20.3440 C   0  0  0  0  0  0  0  0  0  0  0  0
  -31.0950  -19.5470   17.4210 C   0  0  0  0  0  1  0  0  0  0  0  0
  -28.3380  -19.1650   21.6090 C   0  0  0  0  0  1  0  0  0  0  0  0
  -27.5520  -22.0090   21.5360 Cl  0  0  0  0  0  0  0  0  0  0  0  0
  -30.7480  -15.9670   19.4650 C   0  0  0  0  0  0  0  0  0  0  0  0
  -30.8130  -13.4000   18.7330 C   0  0  0  0  0  2  0  0  0  0  0  0
  -29.8230  -12.9760   17.6080 C   0  0  0  0  0  2  0  0  0  0  0  0
  -28.4430  -12.6310   18.1880 C   0  0  0  0  0  2  0  0  0  0  0  0
  -28.0180  -13.6550   19.2650 C   0  0  0  0  0  3  0  0  0  0  0  0
  -29.1370  -13.9910   20.2820 C   0  0  0  0  0  2  0  0  0  0  0  0
  -30.2560  -14.5900   19.5180 N   0  0  0  0  0  0  0  0  0  0  0  0
  -31.9490  -15.9340   19.1310 O   0  0  0  0  0  0  0  0  0  0  0  0
  -29.9420  -17.2830   19.6500 N   0  0  0  0  0  0  0  0  0  0  0  0
  -29.0760  -16.9460   20.0430 H   0  0  0  0  0  0  0  0  0  0  0  0
  -25.7730  -14.2060   20.3200 C   0  0  0  0  0  0  0  0  0  0  0  0
  -24.7320  -13.4330   20.7530 C   0  0  0  0  0  0  0  0  0  0  0  0
  -25.1470  -12.0770   20.5830 C   0  0  0  0  0  0  0  0  0  0  0  0
  -26.7520  -13.3230   19.9040 N   0  0  0  0  0  0  0  0  0  0  0  0
  -26.3970  -12.0300   20.1260 N   0  0  0  0  0  0  0  0  0  0  0  0
  -24.3970  -10.8270   20.7700 C   0  0  0  0  0  0  0  0  0  0  0  0
  -24.8050   -9.8530   21.7060 C   0  0  0  0  0  3  0  0  0  0  0  0
  -24.0560   -8.6700   21.8840 C   0  0  0  0  0  3  0  0  0  0  0  0
  -22.8820   -8.4520   21.1230 C   0  0  0  0  0  0  0  0  0  0  0  0
  -22.4930   -9.4130   20.1730 C   0  0  0  0  0  3  0  0  0  0  0  0
  -23.2440  -10.5870   19.9940 C   0  0  0  0  0  3  0  0  0  0  0  0
  -22.1060   -7.3220   21.2090 O   0  0  0  0  0  0  0  0  0  0  0  0
  -21.8910   -6.6840   22.4040 C   0  0  0  0  0  0  0  0  0  0  0  0
  -21.2800   -7.3360   23.4970 C   0  0  0  0  0  3  0  0  0  0  0  0
  -21.0160   -6.6240   24.6830 C   0  0  0  0  0  3  0  0  0  0  0  0
  -21.3510   -5.2590   24.7760 C   0  0  0  0  0  0  0  0  0  0  0  0
  -21.9540   -4.6060   23.6870 C   0  0  0  0  0  3  0  0  0  0  0  0
  -22.2190   -5.3160   22.5030 C   0  0  0  0  0  0  0  0  0  0  0  0
  -22.7820   -4.6760   21.4490 F   0  0  0  0  0  0  0  0  0  0  0  0
  -21.0880   -4.5720   25.9120 F   0  0  0  0  0  0  0  0  0  0  0  0
  -23.3890  -13.9320   21.1980 C   0  0  0  0  0  0  0  0  0  0  0  0
  -22.7400  -13.2170   22.1090 N   0  0  0  0  0  0  0  0  0  0  0  0
  -22.9310  -14.9920   20.7730 O   0  0  0  0  0  0  0  0  0  0  0  0
  -23.1280  -12.3610   22.4750 H   0  0  0  0  0  0  0  0  0  0  0  0
  -21.8410  -13.5320   22.4460 H   0  0  0  0  0  0  0  0  0  0  0  0
  -25.9610  -15.5810   20.2150 N   0  0  0  0  0  0  0  0  0  0  0  0
  -25.2200  -16.2380   20.4380 H   0  0  0  0  0  0  0  0  0  0  0  0
  -26.7580  -16.0180   19.7750 H   0  0  0  0  0  0  0  0  0  0  0  0
  -28.3490  -24.1470   19.1060 C   0  0  0  0  0  2  0  0  0  0  0  0
  -28.5210  -25.8380   19.5160 O   0  0  0  0  0  0  0  0  0  0  0  0
  -24.7010  -31.6070   23.0210 C   0  0  0  0  0  0  0  0  0  0  0  0
  -27.4920  -26.9980   19.5580 C   0  0  0  0  0  0  0  0  0  0  0  0
  -23.5770  -30.2930   21.2730 C   0  0  0  0  0  3  0  0  0  0  0  0
  -25.1010  -28.8730   19.7070 C   0  0  0  0  0  0  0  0  0  0  0  0
  -26.1400  -30.6080   21.1430 C   0  0  0  0  0  2  0  0  0  0  0  0
  -26.2820  -29.2470   20.3590 C   0  0  0  0  0  0  0  0  0  0  0  0
  -27.4580  -28.3380   20.2590 C   0  0  0  0  0  3  0  0  0  0  0  0
  -26.2640  -26.8340   18.8660 C   0  0  0  0  0  3  0  0  0  0  0  0
  -25.1280  -27.6960   18.9390 C   0  0  0  0  0  3  0  0  0  0  0  0
  -23.8380  -29.7410   19.8430 C   0  0  0  0  0  2  0  0  0  0  0  0
  -24.8280  -30.8650   21.8680 N   0  0  0  0  0  0  0  0  0  0  0  0
  -23.5990  -31.7940   23.5660 O   0  0  0  0  0  0  0  0  0  0  0  0
  -22.9340  -29.1910   22.1580 C   0  0  0  0  0  0  0  0  0  0  0  0
  -21.6080  -28.9830   22.0430 N   0  0  0  0  0  0  0  0  0  0  0  0
  -23.6390  -28.5230   22.9180 O   0  0  0  0  0  0  0  0  0  0  0  0
  -21.0860  -29.5760   21.4140 H   0  0  0  0  0  0  0  0  0  0  0  0
  -18.2830  -27.6080   22.5500 C   0  0  0  0  0  0  0  0  0  0  0  0
  -20.8440  -27.9380   22.7370 C   0  0  0  0  0  3  0  0  0  0  0  0
  -20.9630  -26.5830   22.0020 C   0  0  0  0  0  2  0  0  0  0  0  0
  -19.8290  -26.3380   21.0010 C   0  0  0  0  0  2  0  0  0  0  0  0
  -18.4730  -26.3550   21.7120 C   0  0  0  0  0  2  0  0  0  0  0  0
  -19.3940  -28.3600   23.0170 C   0  0  0  0  0  0  0  0  0  0  0  0
  -19.1570  -29.5320   23.7680 C   0  0  0  0  0  3  0  0  0  0  0  0
  -17.8430  -29.9530   24.0520 C   0  0  0  0  0  3  0  0  0  0  0  0
  -16.7490  -29.1970   23.5960 C   0  0  0  0  0  3  0  0  0  0  0  0
  -16.9710  -28.0260   22.8500 C   0  0  0  0  0  3  0  0  0  0  0  0
  -25.9330  -32.2710   23.7090 C   0  0  0  0  0  3  0  0  0  0  0  0
  -25.5560  -33.6410   24.1060 N   0  0  0  0  0  0  0  0  0  0  0  0
  -25.8200  -34.7510   23.4000 C   0  0  0  0  0  0  0  0  0  0  0  0
  -26.4670  -34.7320   22.3510 O   0  0  0  0  0  0  0  0  0  0  0  0
  -24.9780  -33.7240   24.9280 H   0  0  0  0  0  0  0  0  0  0  0  0
  -23.9850  -36.4670   23.2160 C   0  0  0  0  0  1  0  0  0  0  0  0
  -25.2870  -36.0940   23.9450 C   0  0  0  0  0  3  0  0  0  0  0  0
  -27.4040  -37.0740   24.7140 C   0  0  0  0  0  1  0  0  0  0  0  0
  -26.2540  -37.2080   23.8240 N   0  0  0  0  0  0  0  0  0  0  0  0
  -25.8050  -38.0990   24.0170 H   0  0  0  0  0  0  0  0  0  0  0  0
  -26.4420  -31.4690   24.9700 C   0  0  1  0  0  0  0  0  0  0  0  0
  -25.3340  -31.1640   26.0040 C   0  0  0  0  0  1  0  0  0  0  0  0
  -27.0720  -30.1210   24.5540 C   0  0  0  0  0  1  0  0  0  0  0  0
  -27.5530  -32.2720   25.6880 C   0  0  0  0  0  1  0  0  0  0  0  0
  1  2  2  0
  1  3  1  0
  2  5  1  0
  3  6  2  0
  4  8  1  0
  5 18  1  0
  5  4  2  0
  6  4  1  0
  6  9  1  0
  7  2  1  0
 10 16  1  0
 10 18  1  0
 11 16  1  0
 12 13  1  0
 12 11  1  0
 14 13  1  0
 14 23  1  0
 14 15  1  0
 16 15  1  0
 17 10  2  0
 18 19  1  0
 20 21  2  0
 21 40  1  0
 22 21  1  0
 22 25  1  0
 23 24  1  0
 23 20  1  0
 24 22  2  0
 25 26  1  0
 26 27  2  0
 28 31  1  0
 28 27  1  0
 29 28  2  0
 30 29  1  0
 30 25  2  0
 31 32  1  0
 32 37  2  0
 32 33  1  0
 33 34  2  0
 34 35  1  0
 35 39  1  0
 36 35  2  0
 37 36  1  0
 38 37  1  0
 40 41  1  0
 41 44  1  0
 41 43  1  0
 42 40  2  0
 45 20  1  0
 45 46  1  0
 47 45  1  0
 48  3  1  0
 48 49  1  0
 49 51  1  0
 50 61  2  0
 51 56  1  0
 52 60  1  0
 52 62  1  0
 53 59  1  0
 53 55  1  0
 54 60  1  0
 55 54  1  0
 56 55  2  0
 57 58  1  0
 57 51  2  0
 58 53  2  0
 59 52  1  0
 60 50  1  0
 62 64  2  0
 63 62  1  0
 65 63  1  0
 66 75  2  0
 66 71  1  0
 67 63  1  0
 67 71  1  0
 68 67  1  0
 69 70  1  0
 69 68  1  0
 70 66  1  0
 71 72  2  0
 72 73  1  0
 74 73  2  0
 75 74  1  0
 76 50  1  0
 76 77  1  0
 76 86  1  0
 77 80  1  0
 78 82  1  0
 78 77  1  0
 79 78  2  0
 82 81  1  0
 84 82  1  0
 84 85  1  0
 84 83  1  0
 86 89  1  1
 86 87  1  0
 88 86  1  0
M  ISO  4  10 100  18 100  48 101  49 101
M  END
>  <TORSDO>  (79) 
F 17

>  <SCORE>  (79) 
-12.860

>  <name>  (79) 
78

>  <ligand_id>  (79) 
78

>  <original_smiles>  (79) 
[H]c1c([H])c([H])c2c(c1[H])C([H])([H])C([H])([H])C([H])([H])C2([H])N([H])C(=O)C1([H])N(C(=O)C([H])(N([H])C(=O)C([H])(N([H])C([H])([H])[H])C([H])([H])[H])C(C([H])([H])[H])(C([H])([H])[H])C([H])([H])[H])C([H])([H])c2c([H])c(OC([H])([H])c3c([H])c(C([H])([H])[H])c(N([H])C(=O)N4C([H])([H])C([H])([H])C([H])([H])C([H])(n5nc(-c6c([H])c([H])c(Oc7c([H])c([H])c(F)c([H])c7F)c([H])c6[H])c(C(=O)N([H])[H])c5N([H])[H])C4([H])[H])c(C([H])([H])[H])c3Cl)c([H])c([H])c2C1([H])[H]

>  <smiles>  (79) 
[H]c1c([H])c([H])c2c(c1[H])C([H])([H])C([H])([H])C([H])([H])C2([H])N([H])C(=O)C1([H])N(C(=O)C([H])(N([H])C(=O)C([H])(N([H])C([H])([H])[H])C([H])([H])[H])C(C([H])([H])[H])(C([H])([H])[H])C([H])([H])[H])C([H])([H])c2c([H])c(OC([H])([H])c3c([H])c(C([H])([H])[H])c(N([H])C(=O)N4C([H])([H])C([H])([H])C([H])([H])C([H])(n5nc(-c6c([H])c([H])c(Oc7c([H])c([H])c(F)c([H])c7F)c([H])c6[H])c(C(=O)N([H])[H])c5N([H])[H])C4([H])[H])c(C([H])([H])[H])c3Cl)c([H])c([H])c2C1([H])[H]

$$$$
79:0:0
     RDKit          3D

 94102  0  0  1  0  0  0  0  0999 V2000
  -28.6240  -18.2630   19.8010 C   0  0  0  0  0  2  0  0  0  0  0  0
  -28.4600  -19.7470   19.2670 C   0  0  0  0  0  2  0  0  0  0  0  0
  -30.3830  -20.4500   20.6170 C   0  0  0  0  0  2  0  0  0  0  0  0
  -30.1090  -17.8210   20.0460 C   0  0  0  0  0  3  0  0  0  0  0  0
  -30.6430  -18.8990   21.0900 C   0  0  2  0  0  0  0  0  0  0  0  0
  -30.0210  -18.6530   22.4840 C   0  0  0  0  0  1  0  0  0  0  0  0
  -32.1650  -18.7280   21.2380 C   0  0  0  0  0  1  0  0  0  0  0  0
  -28.9700  -20.7960   20.2110 N   0  0  1  0  0  4  0  0  0  0  0  0
  -28.4890  -20.5010   21.0450 H   0  0  0  0  0  0  0  0  0  0  0  0
  -30.9360  -15.2900   20.9260 C   0  0  0  0  0  0  0  0  0  0  0  0
  -30.9320  -12.8320   20.3840 C   0  0  0  0  0  2  0  0  0  0  0  0
  -30.1630  -12.4780   19.0840 C   0  0  0  0  0  2  0  0  0  0  0  0
  -28.6500  -12.3920   19.3320 C   0  0  0  0  0  2  0  0  0  0  0  0
  -28.0880  -13.4890   20.2770 C   0  0  0  0  0  3  0  0  0  0  0  0
  -28.9890  -13.7290   21.5040 C   0  0  0  0  0  2  0  0  0  0  0  0
  -30.3210  -14.0460   20.9760 N   0  0  0  0  0  0  0  0  0  0  0  0
  -32.1470  -15.3290   21.1590 O   0  0  0  0  0  0  0  0  0  0  0  0
  -30.4170  -16.2580   20.0150 N   0  0  0  0  0  0  0  0  0  0  0  0
  -25.6440  -14.1110   20.7210 C   0  0  0  0  0  0  0  0  0  0  0  0
  -24.5320  -13.3470   20.9520 C   0  0  0  0  0  0  0  0  0  0  0  0
  -24.9830  -11.9940   20.9940 C   0  0  0  0  0  0  0  0  0  0  0  0
  -26.6990  -13.2200   20.6300 N   0  0  0  0  0  0  0  0  0  0  0  0
  -26.3010  -11.9430   20.8630 N   0  0  0  0  0  0  0  0  0  0  0  0
  -24.2280  -10.7370   21.0870 C   0  0  0  0  0  0  0  0  0  0  0  0
  -24.5470   -9.7520   22.0470 C   0  0  0  0  0  3  0  0  0  0  0  0
  -23.7920   -8.5620   22.1320 C   0  0  0  0  0  3  0  0  0  0  0  0
  -22.7020   -8.3510   21.2530 C   0  0  0  0  0  0  0  0  0  0  0  0
  -22.4050   -9.3220   20.2800 C   0  0  0  0  0  3  0  0  0  0  0  0
  -23.1630  -10.5030   20.1950 C   0  0  0  0  0  3  0  0  0  0  0  0
  -21.9250   -7.2180   21.2480 O   0  0  0  0  0  0  0  0  0  0  0  0
  -21.7580   -6.4540   22.3750 C   0  0  0  0  0  0  0  0  0  0  0  0
  -21.2160   -6.9890   23.5630 C   0  0  0  0  0  3  0  0  0  0  0  0
  -20.9980   -6.1530   24.6770 C   0  0  0  0  0  3  0  0  0  0  0  0
  -21.3130   -4.7830   24.6010 C   0  0  0  0  0  0  0  0  0  0  0  0
  -21.8480   -4.2470   23.4160 C   0  0  0  0  0  3  0  0  0  0  0  0
  -22.0660   -5.0810   22.3050 C   0  0  0  0  0  0  0  0  0  0  0  0
  -22.5620   -4.5560   21.1590 F   0  0  0  0  0  0  0  0  0  0  0  0
  -21.0960   -3.9770   25.6660 F   0  0  0  0  0  0  0  0  0  0  0  0
  -23.1150  -13.8380   21.0330 C   0  0  0  0  0  0  0  0  0  0  0  0
  -22.2780  -13.1610   21.8140 N   0  0  0  0  0  0  0  0  0  0  0  0
  -22.7530  -14.8550   20.4440 O   0  0  0  0  0  0  0  0  0  0  0  0
  -22.5790  -12.3360   22.3100 H   0  0  0  0  0  0  0  0  0  0  0  0
  -21.3230  -13.4730   21.9180 H   0  0  0  0  0  0  0  0  0  0  0  0
  -25.8470  -15.4780   20.5530 N   0  0  0  0  0  0  0  0  0  0  0  0
  -25.0880  -16.1520   20.5540 H   0  0  0  0  0  0  0  0  0  0  0  0
  -26.7450  -15.8950   20.3550 H   0  0  0  0  0  0  0  0  0  0  0  0
  -29.7760  -16.0040   17.5290 C   0  0  0  0  0  1  0  0  0  0  0  0
  -32.2210  -16.4960   18.1190 C   0  0  0  0  0  1  0  0  0  0  0  0
  -30.8710  -15.9100   18.6090 C   0  0  0  0  0  3  0  0  0  0  0  0
  -27.6960  -22.4690   21.5230 C   0  0  0  0  0  1  0  0  0  0  0  0
  -28.3310  -22.2370   20.1400 C   0  0  0  0  0  3  0  0  0  0  0  0
  -28.9970  -23.6670   19.6350 C   0  0  0  0  0  2  0  0  0  0  0  0
  -27.9900  -24.9790   19.4550 C   0  0  0  0  0  2  0  0  0  0  0  0
  -28.2950  -26.4820   19.5040 O   0  0  0  0  0  0  0  0  0  0  0  0
  -24.6640  -31.7480   23.0910 C   0  0  0  0  0  0  0  0  0  0  0  0
  -27.2030  -27.4070   19.5740 C   0  0  0  0  0  0  0  0  0  0  0  0
  -23.4150  -30.4530   21.4080 C   0  0  0  0  0  3  0  0  0  0  0  0
  -24.8260  -29.0450   19.7970 C   0  0  0  0  0  0  0  0  0  0  0  0
  -25.9480  -30.8150   21.1360 C   0  0  0  0  0  2  0  0  0  0  0  0
  -26.0230  -29.4880   20.3750 C   0  0  0  0  0  0  0  0  0  0  0  0
  -27.2120  -28.6850   20.2510 C   0  0  0  0  0  3  0  0  0  0  0  0
  -25.9740  -27.0580   18.9660 C   0  0  0  0  0  3  0  0  0  0  0  0
  -24.8090  -27.8410   19.0810 C   0  0  0  0  0  3  0  0  0  0  0  0
  -23.5800  -29.8960   19.9720 C   0  0  0  0  0  2  0  0  0  0  0  0
  -24.6980  -31.0210   21.9340 N   0  0  0  0  0  0  0  0  0  0  0  0
  -23.6000  -31.9610   23.6900 O   0  0  0  0  0  0  0  0  0  0  0  0
  -22.8110  -29.3510   22.3140 C   0  0  0  0  0  0  0  0  0  0  0  0
  -21.4900  -29.1250   22.2050 N   0  0  0  0  0  0  0  0  0  0  0  0
  -23.5310  -28.7060   23.0800 O   0  0  0  0  0  0  0  0  0  0  0  0
  -20.9590  -29.7050   21.5680 H   0  0  0  0  0  0  0  0  0  0  0  0
  -18.1930  -27.7010   22.6600 C   0  0  0  0  0  0  0  0  0  0  0  0
  -20.7320  -28.1050   22.9310 C   0  0  0  0  0  3  0  0  0  0  0  0
  -20.9160  -26.7080   22.2930 C   0  0  0  0  0  2  0  0  0  0  0  0
  -19.8300  -26.3650   21.2680 C   0  0  0  0  0  2  0  0  0  0  0  0
  -18.4460  -26.3980   21.9200 C   0  0  0  0  0  2  0  0  0  0  0  0
  -19.2650  -28.5110   23.1220 C   0  0  0  0  0  0  0  0  0  0  0  0
  -18.9730  -29.7290   23.7730 C   0  0  0  0  0  3  0  0  0  0  0  0
  -17.6400  -30.1400   23.9650 C   0  0  0  0  0  3  0  0  0  0  0  0
  -16.5820  -29.3300   23.5170 C   0  0  0  0  0  3  0  0  0  0  0  0
  -16.8590  -28.1110   22.8720 C   0  0  0  0  0  3  0  0  0  0  0  0
  -25.9580  -32.3640   23.7030 C   0  0  0  0  0  3  0  0  0  0  0  0
  -26.5300  -31.5290   24.9140 C   0  0  1  0  0  0  0  0  0  0  0  0
  -25.4830  -31.2210   26.0120 C   0  0  0  0  0  1  0  0  0  0  0  0
  -27.1120  -30.1810   24.4250 C   0  0  0  0  0  1  0  0  0  0  0  0
  -27.6980  -32.3010   25.5760 C   0  0  0  0  0  1  0  0  0  0  0  0
  -25.6380  -33.7340   24.1310 N   0  0  0  0  0  0  0  0  0  0  0  0
  -25.9400  -34.8390   23.4350 C   0  0  0  0  0  0  0  0  0  0  0  0
  -26.5850  -34.8110   22.3840 O   0  0  0  0  0  0  0  0  0  0  0  0
  -25.0640  -33.8300   24.9560 H   0  0  0  0  0  0  0  0  0  0  0  0
  -24.1880  -36.6360   23.2420 C   0  0  0  0  0  1  0  0  0  0  0  0
  -25.4510  -36.1890   23.9960 C   0  0  0  0  0  3  0  0  0  0  0  0
  -27.5960  -37.0410   24.8350 C   0  0  0  0  0  1  0  0  0  0  0  0
  -26.4700  -37.2610   23.9320 N   0  0  0  0  0  0  0  0  0  0  0  0
  -26.0570  -38.1630   24.1570 H   0  0  0  0  0  0  0  0  0  0  0  0
  1  4  1  0
  2  1  1  0
  2  8  1  0
  3  5  1  0
  4 18  1  0
  4  5  1  0
  5  7  1  1
  5  6  1  0
  8  3  1  0
  8  9  1  1
 10 16  1  0
 10 17  2  0
 11 16  1  0
 12 13  1  0
 12 11  1  0
 14 13  1  0
 14 22  1  0
 14 15  1  0
 16 15  1  0
 18 10  1  0
 19 20  2  0
 20 21  1  0
 20 39  1  0
 21 24  1  0
 22 19  1  0
 22 23  1  0
 23 21  2  0
 24 25  1  0
 25 26  2  0
 27 26  1  0
 28 27  2  0
 29 28  1  0
 29 24  2  0
 30 27  1  0
 30 31  1  0
 31 32  1  0
 32 33  2  0
 34 33  1  0
 34 38  1  0
 35 34  2  0
 36 31  2  0
 36 35  1  0
 37 36  1  0
 39 40  1  0
 40 43  1  0
 40 42  1  0
 41 39  2  0
 44 45  1  0
 44 19  1  0
 46 44  1  0
 47 49  1  0
 48 49  1  0
 49 18  1  0
 51  8  1  0
 51 50  1  0
 52 51  1  0
 53 54  1  0
 53 52  1  0
 54 56  1  0
 55 66  2  0
 56 61  1  0
 57 65  1  0
 57 67  1  0
 58 64  1  0
 58 60  1  0
 59 65  1  0
 60 59  1  0
 61 60  2  0
 62 63  1  0
 62 56  2  0
 63 58  2  0
 64 57  1  0
 65 55  1  0
 67 69  2  0
 68 67  1  0
 70 68  1  0
 71 80  2  0
 71 76  1  0
 72 68  1  0
 72 76  1  0
 73 72  1  0
 74 75  1  0
 74 73  1  0
 75 71  1  0
 76 77  2  0
 77 78  1  0
 79 78  2  0
 80 79  1  0
 81 55  1  0
 81 86  1  0
 81 82  1  0
 82 85  1  1
 82 83  1  0
 84 82  1  0
 86 89  1  0
 87 91  1  0
 87 86  1  0
 88 87  2  0
 91 90  1  0
 93 91  1  0
 93 94  1  0
 93 92  1  0
M  ISO  4  10 100  18 100  53 101  54 101
M  END
>  <TORSDO>  (80) 
F 20

>  <SCORE>  (80) 
-10.385

>  <name>  (80) 
79

>  <ligand_id>  (80) 
79

>  <original_smiles>  (80) 
[H]c1c([H])c([H])c2c(c1[H])C([H])([H])C([H])([H])C([H])([H])C2([H])N([H])C(=O)C1([H])N(C(=O)C([H])(N([H])C(=O)C([H])(N([H])C([H])([H])[H])C([H])([H])[H])C(C([H])([H])[H])(C([H])([H])[H])C([H])([H])[H])C([H])([H])c2c([H])c(OC([H])([H])C([H])([H])C([H])(C([H])([H])[H])[N+]3([H])C([H])([H])C([H])([H])C([H])(N(C(=O)N4C([H])([H])C([H])([H])C([H])([H])C([H])(n5nc(-c6c([H])c([H])c(Oc7c([H])c([H])c(F)c([H])c7F)c([H])c6[H])c(C(=O)N([H])[H])c5N([H])[H])C4([H])[H])C([H])(C([H])([H])[H])C([H])([H])[H])C(C([H])([H])[H])(C([H])([H])[H])C3([H])[H])c([H])c([H])c2C1([H])[H]

>  <smiles>  (80) 
[H]c1c([H])c([H])c2c(c1[H])C([H])([H])C([H])([H])C([H])([H])C2([H])N([H])C(=O)C1([H])N(C(=O)C([H])(N([H])C(=O)C([H])(N([H])C([H])([H])[H])C([H])([H])[H])C(C([H])([H])[H])(C([H])([H])[H])C([H])([H])[H])C([H])([H])c2c([H])c(OC([H])([H])C([H])([H])C([H])(C([H])([H])[H])[N+]3([H])C([H])([H])C([H])([H])C([H])(N(C(=O)N4C([H])([H])C([H])([H])C([H])([H])C([H])(n5nc(-c6c([H])c([H])c(Oc7c([H])c([H])c(F)c([H])c7F)c([H])c6[H])c(C(=O)N([H])[H])c5N([H])[H])C4([H])[H])C([H])(C([H])([H])[H])C([H])([H])[H])C(C([H])([H])[H])(C([H])([H])[H])C3([H])[H])c([H])c([H])c2C1([H])[H]

$$$$
80:0:0
     RDKit          3D

 90 98  0  0  1  0  0  0  0  0999 V2000
  -29.0730  -21.3780   20.8020 C   0  0  0  0  0  0  0  0  0  0  0  0
  -28.7500  -21.3060   18.5730 C   0  0  0  0  0  0  0  0  0  0  0  0
  -28.6690  -22.2930   19.6960 C   0  0  0  0  0  0  0  0  0  0  0  0
  -29.4310  -19.8770   20.7940 C   0  0  0  0  0  0  0  0  0  0  0  0
  -29.1080  -19.8020   18.5630 C   0  0  0  0  0  0  0  0  0  0  0  0
  -29.5040  -18.8860   19.6750 C   0  0  0  0  0  0  0  0  0  0  0  0
  -29.0770  -22.0690   22.1610 C   0  0  0  0  0  1  0  0  0  0  0  0
  -28.3510  -21.9160   17.2320 C   0  0  0  0  0  1  0  0  0  0  0  0
  -29.7400  -19.2620   22.1550 C   0  0  0  0  0  1  0  0  0  0  0  0
  -28.9900  -19.0910   17.2220 C   0  0  0  0  0  1  0  0  0  0  0  0
  -30.5020  -15.8740   19.6150 C   0  0  0  0  0  0  0  0  0  0  0  0
  -30.6360  -13.3060   18.8880 C   0  0  0  0  0  2  0  0  0  0  0  0
  -29.6570  -12.8580   17.7660 C   0  0  0  0  0  2  0  0  0  0  0  0
  -28.2880  -12.4770   18.3480 C   0  0  0  0  0  2  0  0  0  0  0  0
  -27.8400  -13.4880   19.4270 C   0  0  0  0  0  3  0  0  0  0  0  0
  -28.9510  -13.8560   20.4380 C   0  0  0  0  0  2  0  0  0  0  0  0
  -30.0480  -14.4850   19.6670 N   0  0  0  0  0  0  0  0  0  0  0  0
  -31.7070  -15.8750   19.2930 O   0  0  0  0  0  0  0  0  0  0  0  0
  -29.6510  -17.1670   19.7670 N   0  0  0  0  0  0  0  0  0  0  0  0
  -28.7600  -16.8100   20.0830 H   0  0  0  0  0  0  0  0  0  0  0  0
  -25.5910  -13.9750   20.5040 C   0  0  0  0  0  0  0  0  0  0  0  0
  -24.5710  -13.1740   20.9330 C   0  0  0  0  0  0  0  0  0  0  0  0
  -25.0140  -11.8290   20.7420 C   0  0  0  0  0  0  0  0  0  0  0  0
  -26.5860  -13.1190   20.0690 N   0  0  0  0  0  0  0  0  0  0  0  0
  -26.2610  -11.8150   20.2770 N   0  0  0  0  0  0  0  0  0  0  0  0
  -24.2940  -10.5600   20.9160 C   0  0  0  0  0  0  0  0  0  0  0  0
  -24.7040   -9.6000   21.8680 C   0  0  0  0  0  3  0  0  0  0  0  0
  -23.9800   -8.3990   22.0320 C   0  0  0  0  0  3  0  0  0  0  0  0
  -22.8300   -8.1510   21.2450 C   0  0  0  0  0  0  0  0  0  0  0  0
  -22.4400   -9.0990   20.2820 C   0  0  0  0  0  3  0  0  0  0  0  0
  -23.1650  -10.2900   20.1160 C   0  0  0  0  0  3  0  0  0  0  0  0
  -22.0790   -7.0020   21.3180 O   0  0  0  0  0  0  0  0  0  0  0  0
  -21.8300   -6.3790   22.5140 C   0  0  0  0  0  0  0  0  0  0  0  0
  -21.1500   -7.0310   23.5660 C   0  0  0  0  0  3  0  0  0  0  0  0
  -20.8530   -6.3330   24.7530 C   0  0  0  0  0  3  0  0  0  0  0  0
  -21.2270   -4.9820   24.8880 C   0  0  0  0  0  0  0  0  0  0  0  0
  -21.8980   -4.3280   23.8380 C   0  0  0  0  0  3  0  0  0  0  0  0
  -22.1960   -5.0250   22.6540 C   0  0  0  0  0  0  0  0  0  0  0  0
  -22.8250   -4.3860   21.6390 F   0  0  0  0  0  0  0  0  0  0  0  0
  -20.9350   -4.3070   26.0230 F   0  0  0  0  0  0  0  0  0  0  0  0
  -23.2200  -13.6380   21.3930 C   0  0  0  0  0  0  0  0  0  0  0  0
  -22.5870  -12.8870   22.2880 N   0  0  0  0  0  0  0  0  0  0  0  0
  -22.7400  -14.6990   20.9970 O   0  0  0  0  0  0  0  0  0  0  0  0
  -22.9910  -12.0270   22.6270 H   0  0  0  0  0  0  0  0  0  0  0  0
  -21.6860  -13.1780   22.6390 H   0  0  0  0  0  0  0  0  0  0  0  0
  -25.7480  -15.3560   20.4110 N   0  0  0  0  0  0  0  0  0  0  0  0
  -24.9970  -15.9980   20.6420 H   0  0  0  0  0  0  0  0  0  0  0  0
  -26.5300  -15.8110   19.9590 H   0  0  0  0  0  0  0  0  0  0  0  0
  -27.8630  -23.9870   19.7590 C   0  0  0  0  0  2  0  0  0  0  0  0
  -28.1710  -25.7050   19.8660 O   0  0  0  0  0  0  0  0  0  0  0  0
  -24.6990  -31.8240   23.1480 C   0  0  0  0  0  0  0  0  0  0  0  0
  -27.2010  -26.9180   19.8810 C   0  0  0  0  0  0  0  0  0  0  0  0
  -23.4860  -30.4900   21.4770 C   0  0  0  0  0  3  0  0  0  0  0  0
  -24.9150  -28.9230   19.9610 C   0  0  0  0  0  0  0  0  0  0  0  0
  -26.0580  -30.6650   21.3040 C   0  0  0  0  0  2  0  0  0  0  0  0
  -26.1200  -29.2630   20.5850 C   0  0  0  0  0  0  0  0  0  0  0  0
  -27.2490  -28.2910   20.5140 C   0  0  0  0  0  3  0  0  0  0  0  0
  -25.9580  -26.7870   19.2100 C   0  0  0  0  0  3  0  0  0  0  0  0
  -24.8710  -27.7120   19.2510 C   0  0  0  0  0  3  0  0  0  0  0  0
  -23.7000  -29.8570   20.0720 C   0  0  0  0  0  2  0  0  0  0  0  0
  -24.7730  -31.0220   22.0300 N   0  0  0  0  0  0  0  0  0  0  0  0
  -23.6160  -32.0900   23.6960 O   0  0  0  0  0  0  0  0  0  0  0  0
  -22.8000  -29.4630   22.4190 C   0  0  0  0  0  0  0  0  0  0  0  0
  -21.4760  -29.2570   22.2760 N   0  0  0  0  0  0  0  0  0  0  0  0
  -23.4710  -28.8490   23.2530 O   0  0  0  0  0  0  0  0  0  0  0  0
  -20.9810  -29.8070   21.5880 H   0  0  0  0  0  0  0  0  0  0  0  0
  -18.1410  -27.8760   22.7010 C   0  0  0  0  0  0  0  0  0  0  0  0
  -20.6790  -28.2730   23.0200 C   0  0  0  0  0  3  0  0  0  0  0  0
  -20.8640  -26.8520   22.4360 C   0  0  0  0  0  2  0  0  0  0  0  0
  -19.8030  -26.4850   21.3940 C   0  0  0  0  0  2  0  0  0  0  0  0
  -18.4010  -26.5490   22.0080 C   0  0  0  0  0  2  0  0  0  0  0  0
  -19.2090  -28.6930   23.1600 C   0  0  0  0  0  0  0  0  0  0  0  0
  -18.9080  -29.9300   23.7700 C   0  0  0  0  0  3  0  0  0  0  0  0
  -17.5740  -30.3550   23.9210 C   0  0  0  0  0  3  0  0  0  0  0  0
  -16.5220  -29.5370   23.4750 C   0  0  0  0  0  3  0  0  0  0  0  0
  -16.8060  -28.3000   22.8710 C   0  0  0  0  0  3  0  0  0  0  0  0
  -25.9720  -32.4570   23.7870 C   0  0  0  0  0  3  0  0  0  0  0  0
  -25.6560  -33.8500   24.1600 N   0  0  0  0  0  0  0  0  0  0  0  0
  -25.9490  -34.9310   23.4240 C   0  0  0  0  0  0  0  0  0  0  0  0
  -26.5710  -34.8620   22.3610 O   0  0  0  0  0  0  0  0  0  0  0  0
  -25.0990  -33.9760   24.9930 H   0  0  0  0  0  0  0  0  0  0  0  0
  -24.1780  -36.7150   23.2430 C   0  0  0  0  0  1  0  0  0  0  0  0
  -25.4820  -36.3060   23.9470 C   0  0  0  0  0  3  0  0  0  0  0  0
  -27.6550  -37.2160   24.6450 C   0  0  0  0  0  1  0  0  0  0  0  0
  -26.4900  -37.3780   23.7800 N   0  0  0  0  0  0  0  0  0  0  0  0
  -26.0800  -38.2890   23.9680 H   0  0  0  0  0  0  0  0  0  0  0  0
  -26.4810  -31.6690   25.0580 C   0  0  1  0  0  0  0  0  0  0  0  0
  -25.3840  -31.4170   26.1190 C   0  0  0  0  0  1  0  0  0  0  0  0
  -27.0670  -30.2960   24.6600 C   0  0  0  0  0  1  0  0  0  0  0  0
  -27.6300  -32.4530   25.7350 C   0  0  0  0  0  1  0  0  0  0  0  0
  1  7  1  0
  2  3  1  0
  3 49  1  0
  3  1  2  0
  4  1  1  0
  4  9  1  0
  5  2  2  0
  5  6  1  0
  6 19  1  0
  6  4  2  0
  8  2  1  0
 10  5  1  0
 11 17  1  0
 11 19  1  0
 12 17  1  0
 13 14  1  0
 13 12  1  0
 15 14  1  0
 15 24  1  0
 15 16  1  0
 17 16  1  0
 18 11  2  0
 19 20  1  0
 21 22  2  0
 22 41  1  0
 23 26  1  0
 23 22  1  0
 24 25  1  0
 24 21  1  0
 25 23  2  0
 26 27  1  0
 27 28  2  0
 29 32  1  0
 29 28  1  0
 30 29  2  0
 31 30  1  0
 31 26  2  0
 32 33  1  0
 33 38  2  0
 33 34  1  0
 34 35  2  0
 35 36  1  0
 36 40  1  0
 37 36  2  0
 38 37  1  0
 39 38  1  0
 41 42  1  0
 42 44  1  0
 42 45  1  0
 43 41  2  0
 46 21  1  0
 46 47  1  0
 48 46  1  0
 49 50  1  0
 50 52  1  0
 51 62  2  0
 52 57  1  0
 53 61  1  0
 53 63  1  0
 54 60  1  0
 54 56  1  0
 55 61  1  0
 56 55  1  0
 57 56  2  0
 58 59  1  0
 58 52  2  0
 59 54  2  0
 60 53  1  0
 61 51  1  0
 63 65  2  0
 64 63  1  0
 66 64  1  0
 67 76  2  0
 67 72  1  0
 68 64  1  0
 68 72  1  0
 69 68  1  0
 70 71  1  0
 70 69  1  0
 71 67  1  0
 72 73  2  0
 73 74  1  0
 75 74  2  0
 76 75  1  0
 77 51  1  0
 77 78  1  0
 77 87  1  0
 78 81  1  0
 79 83  1  0
 79 78  1  0
 80 79  2  0
 83 82  1  0
 85 83  1  0
 85 86  1  0
 85 84  1  0
 87 90  1  1
 87 88  1  0
 89 87  1  0
M  ISO  4  11 100  19 100  49 101  50 101
M  END
>  <TORSDO>  (81) 
F 17

>  <SCORE>  (81) 
-14.789

>  <name>  (81) 
80

>  <ligand_id>  (81) 
80

>  <original_smiles>  (81) 
[H]c1c([H])c([H])c2c(c1[H])C([H])([H])C([H])([H])C([H])([H])C2([H])N([H])C(=O)C1([H])N(C(=O)C([H])(N([H])C(=O)C([H])(N([H])C([H])([H])[H])C([H])([H])[H])C(C([H])([H])[H])(C([H])([H])[H])C([H])([H])[H])C([H])([H])c2c([H])c(OC([H])([H])c3c(C([H])([H])[H])c(C([H])([H])[H])c(N([H])C(=O)N4C([H])([H])C([H])([H])C([H])([H])C([H])(n5nc(-c6c([H])c([H])c(Oc7c([H])c([H])c(F)c([H])c7F)c([H])c6[H])c(C(=O)N([H])[H])c5N([H])[H])C4([H])[H])c(C([H])([H])[H])c3C([H])([H])[H])c([H])c([H])c2C1([H])[H]

>  <smiles>  (81) 
[H]c1c([H])c([H])c2c(c1[H])C([H])([H])C([H])([H])C([H])([H])C2([H])N([H])C(=O)C1([H])N(C(=O)C([H])(N([H])C(=O)C([H])(N([H])C([H])([H])[H])C([H])([H])[H])C(C([H])([H])[H])(C([H])([H])[H])C([H])([H])[H])C([H])([H])c2c([H])c(OC([H])([H])c3c(C([H])([H])[H])c(C([H])([H])[H])c(N([H])C(=O)N4C([H])([H])C([H])([H])C([H])([H])C([H])(n5nc(-c6c([H])c([H])c(Oc7c([H])c([H])c(F)c([H])c7F)c([H])c6[H])c(C(=O)N([H])[H])c5N([H])[H])C4([H])[H])c(C([H])([H])[H])c3C([H])([H])[H])c([H])c([H])c2C1([H])[H]

$$$$
81:0:0
     RDKit          3D

 93 98  0  0  1  0  0  0  0  0999 V2000
  -29.2050  -21.6010   19.4540 C   0  0  0  0  0  3  0  0  0  0  0  0
  -29.0790  -20.3800   20.4270 C   0  0  0  0  0  1  0  0  0  0  0  0
  -28.1810  -22.4930   20.2960 C   0  0  0  0  0  1  0  0  0  0  0  0
  -29.9190  -16.6740   20.1880 C   0  0  0  0  0  0  0  0  0  0  0  0
  -30.3130  -13.9160   19.3980 C   0  0  0  0  0  2  0  0  0  0  0  0
  -29.5510  -13.0510   18.3070 C   0  0  0  0  0  2  0  0  0  0  0  0
  -28.2490  -12.4520   18.8400 C   0  0  0  0  0  2  0  0  0  0  0  0
  -27.5880  -13.4920   19.7510 C   0  0  0  0  0  3  0  0  0  0  0  0
  -28.5400  -14.2140   20.7760 C   0  0  0  0  0  2  0  0  0  0  0  0
  -29.5090  -15.1440   20.0420 N   0  0  0  0  0  0  0  0  0  0  0  0
  -31.1650  -16.4550   20.2090 O   0  0  0  0  0  0  0  0  0  0  0  0
  -29.1540  -18.2970   20.1340 N   0  0  0  0  0  2  0  0  0  0  0  0
  -28.2060  -18.0510   19.8700 H   0  0  0  0  0  0  0  0  0  0  0  0
  -25.2360  -13.8820   20.5550 C   0  0  0  0  0  0  0  0  0  0  0  0
  -24.2070  -13.0690   20.9220 C   0  0  0  0  0  0  0  0  0  0  0  0
  -24.7170  -11.7340   20.8740 C   0  0  0  0  0  0  0  0  0  0  0  0
  -26.3110  -13.0550   20.3070 N   0  0  0  0  0  0  0  0  0  0  0  0
  -26.0120  -11.7470   20.5500 N   0  0  0  0  0  0  0  0  0  0  0  0
  -24.0060  -10.4540   21.0550 C   0  0  0  0  0  0  0  0  0  0  0  0
  -24.4390   -9.4910   21.9930 C   0  0  0  0  0  3  0  0  0  0  0  0
  -23.7220   -8.2910   22.1800 C   0  0  0  0  0  3  0  0  0  0  0  0
  -22.5530   -8.0370   21.4250 C   0  0  0  0  0  0  0  0  0  0  0  0
  -22.1320   -8.9910   20.4830 C   0  0  0  0  0  3  0  0  0  0  0  0
  -22.8500  -10.1850   20.2960 C   0  0  0  0  0  3  0  0  0  0  0  0
  -21.8140   -6.8810   21.5100 O   0  0  0  0  0  0  0  0  0  0  0  0
  -21.7660   -6.1390   22.6630 C   0  0  0  0  0  0  0  0  0  0  0  0
  -21.2940   -6.6830   23.8790 C   0  0  0  0  0  3  0  0  0  0  0  0
  -21.1950   -5.8710   25.0250 C   0  0  0  0  0  3  0  0  0  0  0  0
  -21.5590   -4.5120   24.9560 C   0  0  0  0  0  0  0  0  0  0  0  0
  -22.0280   -3.9680   23.7500 C   0  0  0  0  0  3  0  0  0  0  0  0
  -22.1290   -4.7800   22.6050 C   0  0  0  0  0  0  0  0  0  0  0  0
  -22.5560   -4.2430   21.4380 F   0  0  0  0  0  0  0  0  0  0  0  0
  -21.4620   -3.7300   26.0560 F   0  0  0  0  0  0  0  0  0  0  0  0
  -22.7990  -13.5120   21.1890 C   0  0  0  0  0  0  0  0  0  0  0  0
  -22.0920  -12.8140   22.0670 N   0  0  0  0  0  0  0  0  0  0  0  0
  -22.3400  -14.5240   20.6600 O   0  0  0  0  0  0  0  0  0  0  0  0
  -22.4750  -11.9930   22.5090 H   0  0  0  0  0  0  0  0  0  0  0  0
  -21.1500  -13.1010   22.2940 H   0  0  0  0  0  0  0  0  0  0  0  0
  -25.3470  -15.2560   20.3660 N   0  0  0  0  0  0  0  0  0  0  0  0
  -24.5500  -15.8680   20.4860 H   0  0  0  0  0  0  0  0  0  0  0  0
  -26.1770  -15.7360   20.0390 H   0  0  0  0  0  0  0  0  0  0  0  0
  -30.6400  -22.0990   19.3700 C   0  0  0  0  0  0  0  0  0  0  0  0
  -31.5920  -21.3420   19.5940 O   0  0  0  0  0  0  0  0  0  0  0  0
  -30.9370  -23.5500   18.9640 C   0  0  0  0  0  2  0  0  0  0  0  0
  -30.8120  -23.8380   17.4480 C   0  0  0  0  0  2  0  0  0  0  0  0
  -32.0360  -23.3920   16.6270 C   0  0  0  0  0  2  0  0  0  0  0  0
  -31.7640  -23.3520   15.1080 C   0  0  0  0  0  2  0  0  0  0  0  0
  -32.7830  -22.4500   14.3800 C   0  0  0  0  0  2  0  0  0  0  0  0
  -33.7620  -21.6570   12.2980 C   0  0  0  0  0  1  0  0  0  0  0  0
  -31.3270  -21.5610   12.5620 C   0  0  0  0  0  1  0  0  0  0  0  0
  -32.5720  -22.2870   12.9160 N   0  0  1  0  0  4  0  0  0  0  0  0
  -32.5050  -23.2080   12.5070 H   0  0  0  0  0  0  0  0  0  0  0  0
  -28.1290  -24.6110   20.3110 O   0  0  0  0  0  1  0  0  0  0  0  0
  -24.6760  -31.7610   23.1690 C   0  0  0  0  0  0  0  0  0  0  0  0
  -27.2070  -26.1040   20.2970 C   0  0  0  0  0  0  0  0  0  0  0  0
  -23.5270  -30.3230   21.5510 C   0  0  0  0  0  3  0  0  0  0  0  0
  -24.9870  -28.5380   20.2020 C   0  0  0  0  0  0  0  0  0  0  0  0
  -26.1290  -30.2910   21.5120 C   0  0  0  0  0  2  0  0  0  0  0  0
  -26.1930  -28.7790   20.8700 C   0  0  0  0  0  0  0  0  0  0  0  0
  -27.2490  -27.6150   20.8640 C   0  0  0  0  0  3  0  0  0  0  0  0
  -25.9570  -26.2400   19.5720 C   0  0  0  0  0  3  0  0  0  0  0  0
  -24.9450  -27.2970   19.5280 C   0  0  0  0  0  3  0  0  0  0  0  0
  -23.8080  -29.5640   20.2110 C   0  0  0  0  0  2  0  0  0  0  0  0
  -24.8100  -30.8420   22.1320 N   0  0  0  0  0  0  0  0  0  0  0  0
  -23.5650  -32.0870   23.6370 O   0  0  0  0  0  0  0  0  0  0  0  0
  -22.7440  -29.4160   22.5430 C   0  0  0  0  0  0  0  0  0  0  0  0
  -21.4060  -29.2910   22.4110 N   0  0  0  0  0  0  0  0  0  0  0  0
  -23.3630  -28.8090   23.4180 O   0  0  0  0  0  0  0  0  0  0  0  0
  -20.9450  -29.8290   21.6920 H   0  0  0  0  0  0  0  0  0  0  0  0
  -17.9920  -28.0990   22.9480 C   0  0  0  0  0  0  0  0  0  0  0  0
  -20.5590  -28.3720   23.1930 C   0  0  0  0  0  3  0  0  0  0  0  0
  -20.6480  -26.9320   22.6360 C   0  0  0  0  0  2  0  0  0  0  0  0
  -19.5470  -26.6090   21.6220 C   0  0  0  0  0  2  0  0  0  0  0  0
  -18.1660  -26.7500   22.2710 C   0  0  0  0  0  2  0  0  0  0  0  0
  -19.1140  -28.8690   23.3650 C   0  0  0  0  0  0  0  0  0  0  0  0
  -18.8910  -30.1200   23.9720 C   0  0  0  0  0  3  0  0  0  0  0  0
  -17.5840  -30.6130   24.1550 C   0  0  0  0  0  3  0  0  0  0  0  0
  -16.4780  -29.8460   23.7470 C   0  0  0  0  0  3  0  0  0  0  0  0
  -16.6850  -28.5890   23.1520 C   0  0  0  0  0  3  0  0  0  0  0  0
  -25.9030  -32.4610   23.8340 C   0  0  0  0  0  3  0  0  0  0  0  0
  -25.5530  -33.8670   24.1550 N   0  0  0  0  0  0  0  0  0  0  0  0
  -25.8910  -34.9450   23.4320 C   0  0  0  0  0  0  0  0  0  0  0  0
  -26.5720  -34.8590   22.4080 O   0  0  0  0  0  0  0  0  0  0  0  0
  -24.9430  -34.0060   24.9470 H   0  0  0  0  0  0  0  0  0  0  0  0
  -24.1600  -36.7550   23.1130 C   0  0  0  0  0  1  0  0  0  0  0  0
  -25.4040  -36.3340   23.9120 C   0  0  0  0  0  3  0  0  0  0  0  0
  -27.5330  -37.2340   24.7520 C   0  0  0  0  0  1  0  0  0  0  0  0
  -26.4320  -37.3970   23.8070 N   0  0  0  0  0  0  0  0  0  0  0  0
  -26.0230  -38.3130   23.9560 H   0  0  0  0  0  0  0  0  0  0  0  0
  -26.3790  -31.7340   25.1540 C   0  0  1  0  0  0  0  0  0  0  0  0
  -25.2540  -31.5260   26.2010 C   0  0  0  0  0  1  0  0  0  0  0  0
  -26.9710  -30.3440   24.8390 C   0  0  0  0  0  1  0  0  0  0  0  0
  -27.5100  -32.5410   25.8310 C   0  0  0  0  0  1  0  0  0  0  0  0
  1  3  1  0
  1  2  1  0
  4 11  2  0
  5 10  1  0
  6  7  1  0
  6  5  1  0
  8  7  1  0
  8 17  1  0
  8  9  1  0
 10  4  1  0
 10  9  1  0
 12  4  1  0
 13 12  1  0
 14 15  2  0
 15 34  1  0
 16 15  1  0
 16 19  1  0
 17 18  1  0
 17 14  1  0
 18 16  2  0
 19 20  1  0
 20 21  2  0
 22 25  1  0
 22 21  1  0
 23 22  2  0
 24 23  1  0
 24 19  2  0
 25 26  1  0
 26 27  1  0
 27 28  2  0
 29 28  1  0
 29 33  1  0
 30 29  2  0
 31 26  2  0
 31 30  1  0
 32 31  1  0
 34 35  1  0
 35 38  1  0
 35 37  1  0
 36 34  2  0
 39 40  1  0
 39 14  1  0
 41 39  1  0
 42  1  1  0
 42 43  2  0
 44 42  1  0
 45 44  1  0
 46 45  1  0
 47 46  1  0
 48 47  1  0
 49 51  1  0
 50 51  1  0
 51 48  1  0
 51 52  1  6
 54 65  2  0
 55 53  1  0
 55 60  1  0
 56 64  1  0
 56 66  1  0
 57 63  1  0
 57 59  1  0
 58 64  1  0
 59 58  1  0
 60 59  2  0
 61 55  2  0
 62 61  1  0
 62 57  2  0
 63 56  1  0
 64 54  1  0
 66 68  2  0
 67 66  1  0
 69 67  1  0
 70 79  2  0
 70 75  1  0
 71 67  1  0
 71 75  1  0
 72 71  1  0
 73 74  1  0
 73 72  1  0
 74 70  1  0
 75 76  2  0
 76 77  1  0
 78 77  2  0
 79 78  1  0
 80 54  1  0
 80 81  1  0
 80 90  1  0
 81 84  1  0
 82 86  1  0
 82 81  1  0
 83 82  2  0
 86 85  1  0
 88 86  1  0
 88 89  1  0
 88 87  1  0
 90 93  1  1
 90 91  1  0
 92 90  1  0
M  ISO  4   3 101   4 100  12 100  53 101
M  END
>  <TORSDO>  (82) 
F 23

>  <SCORE>  (82) 
-13.271

>  <name>  (82) 
81

>  <ligand_id>  (82) 
81

>  <original_smiles>  (82) 
[H]c1c([H])c([H])c2c(c1[H])C([H])([H])C([H])([H])C([H])([H])C2([H])N([H])C(=O)C1([H])N(C(=O)C([H])(N([H])C(=O)C([H])(N([H])C([H])([H])[H])C([H])([H])[H])C(C([H])([H])[H])(C([H])([H])[H])C([H])([H])[H])C([H])([H])c2c([H])c(OC3([H])C([H])(C(=O)C([H])([H])C([H])([H])C([H])([H])C([H])([H])C([H])([H])[N+]([H])(C([H])([H])[H])C([H])([H])[H])C3([H])N([H])C(=O)N3C([H])([H])C([H])([H])C([H])([H])C([H])(n4nc(-c5c([H])c([H])c(Oc6c([H])c([H])c(F)c([H])c6F)c([H])c5[H])c(C(=O)N([H])[H])c4N([H])[H])C3([H])[H])c([H])c([H])c2C1([H])[H]

>  <smiles>  (82) 
[H]c1c([H])c([H])c2c(c1[H])C([H])([H])C([H])([H])C([H])([H])C2([H])N([H])C(=O)C1([H])N(C(=O)C([H])(N([H])C(=O)C([H])(N([H])C([H])([H])[H])C([H])([H])[H])C(C([H])([H])[H])(C([H])([H])[H])C([H])([H])[H])C([H])([H])c2c([H])c(OC3([H])C([H])(C(=O)C([H])([H])C([H])([H])C([H])([H])C([H])([H])C([H])([H])[N+]([H])(C([H])([H])[H])C([H])([H])[H])C3([H])N([H])C(=O)N3C([H])([H])C([H])([H])C([H])([H])C([H])(n4nc(-c5c([H])c([H])c(Oc6c([H])c([H])c(F)c([H])c6F)c([H])c5[H])c(C(=O)N([H])[H])c4N([H])[H])C3([H])[H])c([H])c([H])c2C1([H])[H]

$$$$
82:0:0
     RDKit          3D

 83 87  0  0  1  0  0  0  0  0999 V2000
  -28.3660  -23.3740   20.5320 C   0  0  0  0  0 15  0  0  0  0  0  0
  -28.2690  -25.2480   20.2460 O   0  0  0  0  0  1  0  0  0  0  0  0
  -24.6340  -31.8050   23.1670 C   0  0  0  0  0  0  0  0  0  0  0  0
  -27.2600  -26.5270   20.2870 C   0  0  0  0  0  0  0  0  0  0  0  0
  -23.4770  -30.3740   21.5390 C   0  0  0  0  0  3  0  0  0  0  0  0
  -24.9590  -28.6650   20.1840 C   0  0  0  0  0  0  0  0  0  0  0  0
  -26.0710  -30.4720   21.4620 C   0  0  0  0  0  2  0  0  0  0  0  0
  -26.1550  -29.0080   20.8260 C   0  0  0  0  0  0  0  0  0  0  0  0
  -27.2750  -27.9820   20.8290 C   0  0  0  0  0  3  0  0  0  0  0  0
  -26.0120  -26.4530   19.5920 C   0  0  0  0  0  3  0  0  0  0  0  0
  -24.9390  -27.4130   19.5400 C   0  0  0  0  0  3  0  0  0  0  0  0
  -23.7480  -29.6300   20.1940 C   0  0  0  0  0  2  0  0  0  0  0  0
  -24.7520  -30.9260   22.1060 N   0  0  0  0  0  0  0  0  0  0  0  0
  -23.5300  -32.1130   23.6550 O   0  0  0  0  0  0  0  0  0  0  0  0
  -22.7330  -29.4290   22.5270 C   0  0  0  0  0  0  0  0  0  0  0  0
  -21.3990  -29.2860   22.4060 N   0  0  0  0  0  0  0  0  0  0  0  0
  -23.3780  -28.8170   23.3800 O   0  0  0  0  0  0  0  0  0  0  0  0
  -20.9250  -29.8300   21.6990 H   0  0  0  0  0  0  0  0  0  0  0  0
  -18.0050  -28.0800   22.9420 C   0  0  0  0  0  0  0  0  0  0  0  0
  -20.5670  -28.3590   23.1850 C   0  0  0  0  0  3  0  0  0  0  0  0
  -20.6660  -26.9210   22.6240 C   0  0  0  0  0  2  0  0  0  0  0  0
  -19.5620  -26.5900   21.6150 C   0  0  0  0  0  2  0  0  0  0  0  0
  -18.1830  -26.7300   22.2660 C   0  0  0  0  0  2  0  0  0  0  0  0
  -19.1240  -28.8520   23.3580 C   0  0  0  0  0  0  0  0  0  0  0  0
  -18.8990  -30.1110   23.9600 C   0  0  0  0  0  3  0  0  0  0  0  0
  -17.5910  -30.5980   24.1440 C   0  0  0  0  0  3  0  0  0  0  0  0
  -16.4880  -29.8250   23.7420 C   0  0  0  0  0  3  0  0  0  0  0  0
  -16.6960  -28.5670   23.1460 C   0  0  0  0  0  3  0  0  0  0  0  0
  -25.8780  -32.4840   23.8190 C   0  0  0  0  0  3  0  0  0  0  0  0
  -25.5330  -33.8840   24.1490 N   0  0  0  0  0  0  0  0  0  0  0  0
  -25.8510  -34.9600   23.4100 C   0  0  0  0  0  0  0  0  0  0  0  0
  -26.5200  -34.8770   22.3780 O   0  0  0  0  0  0  0  0  0  0  0  0
  -24.9350  -34.0190   24.9510 H   0  0  0  0  0  0  0  0  0  0  0  0
  -24.1020  -36.7510   23.1070 C   0  0  0  0  0  1  0  0  0  0  0  0
  -25.3580  -36.3420   23.8930 C   0  0  0  0  0  3  0  0  0  0  0  0
  -27.4940  -37.2540   24.6980 C   0  0  0  0  0  1  0  0  0  0  0  0
  -26.3740  -37.4110   23.7730 N   0  0  0  0  0  0  0  0  0  0  0  0
  -25.9570  -38.3240   23.9290 H   0  0  0  0  0  0  0  0  0  0  0  0
  -26.3710  -31.7460   25.1260 C   0  0  1  0  0  0  0  0  0  0  0  0
  -25.2610  -31.5250   26.1830 C   0  0  0  0  0  1  0  0  0  0  0  0
  -26.9690  -30.3600   24.8000 C   0  0  0  0  0  1  0  0  0  0  0  0
  -27.5040  -32.5660   25.7890 C   0  0  0  0  0  1  0  0  0  0  0  0
  -28.9350  -21.4180   19.9750 C   0  0  0  0  0 15  0  0  0  0  0  0
  -31.1650  -19.7020   20.7430 C   0  0  0  0  0  1  0  0  0  0  0  0
  -29.6480  -19.4950   20.4780 C   0  0  0  0  0  2  0  0  0  0  0  0
  -30.2020  -16.1040   20.1300 C   0  0  0  0  0  0  0  0  0  0  0  0
  -30.3170  -13.4560   19.3270 C   0  0  0  0  0  2  0  0  0  0  0  0
  -29.4510  -12.9050   18.1470 C   0  0  0  0  0  2  0  0  0  0  0  0
  -28.0370  -12.5030   18.5920 C   0  0  0  0  0  2  0  0  0  0  0  0
  -27.5100  -13.4780   19.6690 C   0  0  0  0  0  3  0  0  0  0  0  0
  -28.5540  -13.9590   20.7240 C   0  0  0  0  0  2  0  0  0  0  0  0
  -29.6590  -14.6910   20.0120 N   0  0  0  0  0  0  0  0  0  0  0  0
  -31.4430  -15.9090   20.0740 O   0  0  0  0  0  0  0  0  0  0  0  0
  -28.1380  -17.5150   19.6840 C   0  0  0  0  0  1  0  0  0  0  0  0
  -29.5170  -17.6170   20.1350 N   0  0  0  0  0  0  0  0  0  0  0  0
  -25.1560  -13.9390   20.4900 C   0  0  0  0  0  0  0  0  0  0  0  0
  -24.1140  -13.1450   20.8770 C   0  0  0  0  0  0  0  0  0  0  0  0
  -24.5950  -11.8020   20.8210 C   0  0  0  0  0  0  0  0  0  0  0  0
  -26.2120  -13.0890   20.2270 N   0  0  0  0  0  0  0  0  0  0  0  0
  -25.8890  -11.7880   20.4850 N   0  0  0  0  0  0  0  0  0  0  0  0
  -23.8680  -10.5330   21.0120 C   0  0  0  0  0  0  0  0  0  0  0  0
  -24.3080   -9.5570   21.9330 C   0  0  0  0  0  3  0  0  0  0  0  0
  -23.5770   -8.3640   22.1200 C   0  0  0  0  0  3  0  0  0  0  0  0
  -22.3880   -8.1320   21.3860 C   0  0  0  0  0  0  0  0  0  0  0  0
  -21.9620   -9.0990   20.4580 C   0  0  0  0  0  3  0  0  0  0  0  0
  -22.6960  -10.2840   20.2700 C   0  0  0  0  0  3  0  0  0  0  0  0
  -21.6320   -6.9880   21.4800 O   0  0  0  0  0  0  0  0  0  0  0  0
  -21.6020   -6.2330   22.6260 C   0  0  0  0  0  0  0  0  0  0  0  0
  -21.1950   -6.7770   23.8650 C   0  0  0  0  0  3  0  0  0  0  0  0
  -21.1120   -5.9510   25.0060 C   0  0  0  0  0  3  0  0  0  0  0  0
  -21.4260   -4.5820   24.9070 C   0  0  0  0  0  0  0  0  0  0  0  0
  -21.8280   -4.0370   23.6750 C   0  0  0  0  0  3  0  0  0  0  0  0
  -21.9100   -4.8590   22.5380 C   0  0  0  0  0  0  0  0  0  0  0  0
  -22.2720   -4.3220   21.3470 F   0  0  0  0  0  0  0  0  0  0  0  0
  -21.3410   -3.7880   26.0000 F   0  0  0  0  0  0  0  0  0  0  0  0
  -22.7190  -13.6110   21.1660 C   0  0  0  0  0  0  0  0  0  0  0  0
  -22.0020  -12.9180   22.0380 N   0  0  0  0  0  0  0  0  0  0  0  0
  -22.2700  -14.6370   20.6540 O   0  0  0  0  0  0  0  0  0  0  0  0
  -22.3660  -12.0910   22.4820 H   0  0  0  0  0  0  0  0  0  0  0  0
  -21.0660  -13.2260   22.2710 H   0  0  0  0  0  0  0  0  0  0  0  0
  -25.2860  -15.3110   20.2960 N   0  0  0  0  0  0  0  0  0  0  0  0
  -24.5010  -15.9480   20.3650 H   0  0  0  0  0  0  0  0  0  0  0  0
  -26.0880  -15.7220   19.8340 H   0  0  0  0  0  0  0  0  0  0  0  0
  2  4  1  0
  3 14  2  0
  4  9  1  0
  5 13  1  0
  5 15  1  0
  6 12  1  0
  6  8  1  0
  7 13  1  0
  8  9  2  0
  8  7  1  0
 10  4  2  0
 11 10  1  0
 11  6  2  0
 12  5  1  0
 13  3  1  0
 15 17  2  0
 16 15  1  0
 18 16  1  0
 19 28  2  0
 19 24  1  0
 20 16  1  0
 20 24  1  0
 21 20  1  0
 22 23  1  0
 22 21  1  0
 23 19  1  0
 24 25  2  0
 25 26  1  0
 27 26  2  0
 28 27  1  0
 29  3  1  0
 29 30  1  0
 29 39  1  0
 30 33  1  0
 31 35  1  0
 31 30  1  0
 32 31  2  0
 35 34  1  0
 37 35  1  0
 37 38  1  0
 37 36  1  0
 39 42  1  1
 39 40  1  0
 41 39  1  0
 45 44  1  0
 46 55  1  0
 47 52  1  0
 48 49  1  0
 48 47  1  0
 50 49  1  0
 50 59  1  0
 50 51  1  0
 52 46  1  0
 52 51  1  0
 53 46  2  0
 54 55  1  0
 55 45  1  0
 56 57  2  0
 57 76  1  0
 58 57  1  0
 58 61  1  0
 59 60  1  0
 59 56  1  0
 60 58  2  0
 61 62  1  0
 62 63  2  0
 64 67  1  0
 64 63  1  0
 65 64  2  0
 66 65  1  0
 66 61  2  0
 67 68  1  0
 68 69  1  0
 69 70  2  0
 71 70  1  0
 71 75  1  0
 72 71  2  0
 73 68  2  0
 73 72  1  0
 74 73  1  0
 76 77  1  0
 77 80  1  0
 77 79  1  0
 78 76  2  0
 81 82  1  0
 81 56  1  0
 83 81  1  0
M  ISO  4   1 101   2 101  46 100  55 100
M  END
>  <TORSDO>  (83) 
F 18

>  <SCORE>  (83) 
-16.312

>  <name>  (83) 
82

>  <ligand_id>  (83) 
82

>  <original_smiles>  (83) 
[H]c1c([H])c([H])c2c(c1[H])C([H])([H])C([H])([H])C([H])([H])C2([H])N([H])C(=O)C1([H])N(C(=O)C([H])(N([H])C(=O)C([H])(N([H])C([H])([H])[H])C([H])([H])[H])C(C([H])([H])[H])(C([H])([H])[H])C([H])([H])[H])C([H])([H])c2c([H])c(OC([H])([H])C([H])([H])C([H])(N(C(=O)N3C([H])([H])C([H])([H])C([H])([H])C([H])(n4nc(-c5c([H])c([H])c(Oc6c([H])c([H])c(F)c([H])c6F)c([H])c5[H])c(C(=O)N([H])[H])c4N([H])[H])C3([H])[H])C([H])([H])[H])C([H])([H])[H])c([H])c([H])c2C1([H])[H]

>  <smiles>  (83) 
[H]c1c([H])c([H])c2c(c1[H])C([H])([H])C([H])([H])C([H])([H])C2([H])N([H])C(=O)C1([H])N(C(=O)C([H])(N([H])C(=O)C([H])(N([H])C([H])([H])[H])C([H])([H])[H])C(C([H])([H])[H])(C([H])([H])[H])C([H])([H])[H])C([H])([H])c2c([H])c(OC([H])([H])C([H])([H])C([H])(N(C(=O)N3C([H])([H])C([H])([H])C([H])([H])C([H])(n4nc(-c5c([H])c([H])c(Oc6c([H])c([H])c(F)c([H])c6F)c([H])c5[H])c(C(=O)N([H])[H])c4N([H])[H])C3([H])[H])C([H])([H])[H])C([H])([H])[H])c([H])c([H])c2C1([H])[H]

$$$$
83:0:0
     RDKit          3D

 96104  0  0  1  0  0  0  0  0999 V2000
  -29.2450  -20.5950   20.4230 C   0  0  0  0  0  0  0  0  0  0  0  0
  -29.4020  -21.9530   19.8040 C   0  0  0  0  0  0  0  0  0  0  0  0
  -29.8010  -19.3000   19.8920 C   0  0  0  0  0  0  0  0  0  0  0  0
  -30.1890  -21.9460   18.6170 C   0  0  0  0  0  0  0  0  0  0  0  0
  -30.4750  -19.4420   18.6560 C   0  0  0  0  0  0  0  0  0  0  0  0
  -30.7360  -20.7310   18.0890 C   0  0  0  0  0  0  0  0  0  0  0  0
  -28.4470  -20.5630   21.7190 C   0  0  0  0  0  1  0  0  0  0  0  0
  -30.4990  -23.2800   17.9190 C   0  0  0  0  0  1  0  0  0  0  0  0
  -30.9780  -18.1800   17.9530 C   0  0  0  0  0  1  0  0  0  0  0  0
  -31.6590  -20.8140   17.0330 N   0  0  0  0  0  0  0  0  0  0  0  0
  -31.5900  -21.6900   16.5270 H   0  0  0  0  0  0  0  0  0  0  0  0
  -33.6900  -21.7520   18.0990 C   0  0  0  0  0  1  0  0  0  0  0  0
  -33.8710  -20.0020   16.2740 C   0  0  0  0  0  1  0  0  0  0  0  0
  -33.0340  -20.5260   17.4510 C   0  0  0  0  0  3  0  0  0  0  0  0
  -29.0150  -23.4450   20.4730 C   0  0  0  0  0  2  0  0  0  0  0  0
  -28.2060  -24.7920   19.8130 C   0  0  0  0  0  2  0  0  0  0  0  0
  -28.3350  -26.3020   20.2290 O   0  0  0  0  0  0  0  0  0  0  0  0
  -24.6510  -31.9450   23.2510 C   0  0  0  0  0  0  0  0  0  0  0  0
  -27.2710  -27.2820   20.1490 C   0  0  0  0  0  0  0  0  0  0  0  0
  -23.4650  -30.5580   21.5940 C   0  0  0  0  0  3  0  0  0  0  0  0
  -24.9260  -29.0160   20.1420 C   0  0  0  0  0  0  0  0  0  0  0  0
  -26.0160  -30.8420   21.4340 C   0  0  0  0  0  2  0  0  0  0  0  0
  -26.0980  -29.4580   20.7660 C   0  0  0  0  0  0  0  0  0  0  0  0
  -27.2690  -28.6050   20.7570 C   0  0  0  0  0  3  0  0  0  0  0  0
  -26.0750  -26.9530   19.4760 C   0  0  0  0  0  3  0  0  0  0  0  0
  -24.9250  -27.7760   19.4840 C   0  0  0  0  0  3  0  0  0  0  0  0
  -23.6900  -29.9030   20.2050 C   0  0  0  0  0  2  0  0  0  0  0  0
  -24.7300  -31.1370   22.1490 N   0  0  0  0  0  0  0  0  0  0  0  0
  -23.5600  -32.2090   23.7830 O   0  0  0  0  0  0  0  0  0  0  0  0
  -22.7950  -29.5320   22.5430 C   0  0  0  0  0  0  0  0  0  0  0  0
  -21.4720  -29.3420   22.4070 N   0  0  0  0  0  0  0  0  0  0  0  0
  -23.4710  -28.9110   23.3680 O   0  0  0  0  0  0  0  0  0  0  0  0
  -20.9830  -29.9000   21.7210 H   0  0  0  0  0  0  0  0  0  0  0  0
  -18.1100  -28.0630   22.8730 C   0  0  0  0  0  0  0  0  0  0  0  0
  -20.6610  -28.3850   23.1660 C   0  0  0  0  0  3  0  0  0  0  0  0
  -20.8000  -26.9550   22.5940 C   0  0  0  0  0  2  0  0  0  0  0  0
  -19.7180  -26.6080   21.5660 C   0  0  0  0  0  2  0  0  0  0  0  0
  -18.3260  -26.7190   22.1940 C   0  0  0  0  0  2  0  0  0  0  0  0
  -19.2060  -28.8510   23.3150 C   0  0  0  0  0  0  0  0  0  0  0  0
  -18.9500  -30.1020   23.9160 C   0  0  0  0  0  3  0  0  0  0  0  0
  -17.6320  -30.5720   24.0710 C   0  0  0  0  0  3  0  0  0  0  0  0
  -16.5510  -29.7830   23.6410 C   0  0  0  0  0  3  0  0  0  0  0  0
  -16.7900  -28.5290   23.0490 C   0  0  0  0  0  3  0  0  0  0  0  0
  -25.9190  -32.5900   23.8830 C   0  0  0  0  0  3  0  0  0  0  0  0
  -25.6030  -33.9960   24.1900 N   0  0  0  0  0  0  0  0  0  0  0  0
  -25.9330  -35.0420   23.4200 C   0  0  0  0  0  0  0  0  0  0  0  0
  -26.6010  -34.9260   22.3890 O   0  0  0  0  0  0  0  0  0  0  0  0
  -25.0110  -34.1540   24.9910 H   0  0  0  0  0  0  0  0  0  0  0  0
  -24.2050  -36.8380   23.0470 C   0  0  0  0  0  1  0  0  0  0  0  0
  -25.4490  -36.4400   23.8610 C   0  0  0  0  0  3  0  0  0  0  0  0
  -27.5810  -37.3450   24.6820 C   0  0  0  0  0  1  0  0  0  0  0  0
  -26.4830  -37.4920   23.7300 N   0  0  0  0  0  0  0  0  0  0  0  0
  -26.0780  -38.4160   23.8550 H   0  0  0  0  0  0  0  0  0  0  0  0
  -26.4110  -31.8430   25.1850 C   0  0  1  0  0  0  0  0  0  0  0  0
  -25.2980  -31.6240   26.2380 C   0  0  0  0  0  1  0  0  0  0  0  0
  -26.9990  -30.4580   24.8340 C   0  0  0  0  0  1  0  0  0  0  0  0
  -27.5520  -32.6480   25.8540 C   0  0  0  0  0  1  0  0  0  0  0  0
  -29.9720  -17.8260   20.6700 C   0  0  0  0  0  2  0  0  0  0  0  0
  -30.5710  -15.1630   20.0580 C   0  0  0  0  0  0  0  0  0  0  0  0
  -30.4480  -12.8240   19.0680 C   0  0  0  0  0  2  0  0  0  0  0  0
  -29.4590  -12.7830   17.8800 C   0  0  0  0  0  2  0  0  0  0  0  0
  -28.0180  -12.5520   18.3760 C   0  0  0  0  0  2  0  0  0  0  0  0
  -27.6520  -13.4620   19.5790 C   0  0  0  0  0  3  0  0  0  0  0  0
  -28.7560  -13.4590   20.6570 C   0  0  0  0  0  2  0  0  0  0  0  0
  -29.9890  -13.8970   19.9910 N   0  0  0  0  0  0  0  0  0  0  0  0
  -31.7790  -15.2430   19.8130 O   0  0  0  0  0  0  0  0  0  0  0  0
  -29.7580  -16.3250   20.1980 N   0  0  0  0  0  0  0  0  0  0  0  0
  -28.7790  -16.0820   20.2050 H   0  0  0  0  0  0  0  0  0  0  0  0
  -25.3020  -14.0180   20.4240 C   0  0  0  0  0  0  0  0  0  0  0  0
  -24.2580  -13.2290   20.8280 C   0  0  0  0  0  0  0  0  0  0  0  0
  -24.7320  -11.8820   20.7640 C   0  0  0  0  0  0  0  0  0  0  0  0
  -26.3390  -13.1490   20.1310 N   0  0  0  0  0  0  0  0  0  0  0  0
  -26.0090  -11.8590   20.4020 N   0  0  0  0  0  0  0  0  0  0  0  0
  -24.0210  -10.6130   20.9650 C   0  0  0  0  0  0  0  0  0  0  0  0
  -24.4670   -9.6500   21.8970 C   0  0  0  0  0  3  0  0  0  0  0  0
  -23.7520   -8.4470   22.0830 C   0  0  0  0  0  3  0  0  0  0  0  0
  -22.5760   -8.1980   21.3360 C   0  0  0  0  0  0  0  0  0  0  0  0
  -22.1500   -9.1480   20.3910 C   0  0  0  0  0  3  0  0  0  0  0  0
  -22.8670  -10.3420   20.2030 C   0  0  0  0  0  3  0  0  0  0  0  0
  -21.8310   -7.0480   21.4340 O   0  0  0  0  0  0  0  0  0  0  0  0
  -21.7690   -6.3270   22.6010 C   0  0  0  0  0  0  0  0  0  0  0  0
  -21.2710   -6.8850   23.7980 C   0  0  0  0  0  3  0  0  0  0  0  0
  -21.1600   -6.0880   24.9540 C   0  0  0  0  0  3  0  0  0  0  0  0
  -21.5410   -4.7320   24.9150 C   0  0  0  0  0  0  0  0  0  0  0  0
  -22.0310   -4.1730   23.7230 C   0  0  0  0  0  3  0  0  0  0  0  0
  -22.1440   -4.9680   22.5680 C   0  0  0  0  0  0  0  0  0  0  0  0
  -22.5980   -4.4170   21.4170 F   0  0  0  0  0  0  0  0  0  0  0  0
  -21.4280   -3.9640   26.0240 F   0  0  0  0  0  0  0  0  0  0  0  0
  -22.8680  -13.6940   21.1540 C   0  0  0  0  0  0  0  0  0  0  0  0
  -22.1730  -12.9810   22.0320 N   0  0  0  0  0  0  0  0  0  0  0  0
  -22.4090  -14.7250   20.6670 O   0  0  0  0  0  0  0  0  0  0  0  0
  -22.5530  -12.1430   22.4450 H   0  0  0  0  0  0  0  0  0  0  0  0
  -21.2420  -13.2750   22.2940 H   0  0  0  0  0  0  0  0  0  0  0  0
  -25.4470  -15.3910   20.2530 N   0  0  0  0  0  0  0  0  0  0  0  0
  -24.6750  -16.0350   20.3940 H   0  0  0  0  0  0  0  0  0  0  0  0
  -26.2570  -15.8340   19.8400 H   0  0  0  0  0  0  0  0  0  0  0  0
  1  7  1  0
  2  1  2  0
  2 15  1  0
  3  1  1  0
  3 58  1  0
  4  2  1  0
  5  3  2  0
  6  4  2  0
  6  5  1  0
  8  4  1  0
  9  5  1  0
 10 14  1  0
 10  6  1  0
 11 10  1  0
 13 14  1  0
 14 12  1  0
 16 17  1  0
 16 15  1  0
 18 29  2  0
 19 17  1  0
 19 24  1  0
 20 28  1  0
 20 30  1  0
 21 27  1  0
 21 23  1  0
 22 28  1  0
 23 22  1  0
 24 23  2  0
 25 26  1  0
 25 19  2  0
 26 21  2  0
 27 20  1  0
 28 18  1  0
 30 32  2  0
 31 30  1  0
 33 31  1  0
 34 43  2  0
 34 39  1  0
 35 31  1  0
 35 39  1  0
 36 35  1  0
 37 38  1  0
 37 36  1  0
 38 34  1  0
 39 40  2  0
 40 41  1  0
 42 41  2  0
 43 42  1  0
 44 18  1  0
 44 45  1  0
 44 54  1  0
 45 48  1  0
 46 50  1  0
 46 45  1  0
 47 46  2  0
 50 49  1  0
 52 53  1  0
 52 50  1  0
 52 51  1  0
 54 57  1  1
 54 55  1  0
 56 54  1  0
 59 67  1  0
 60 65  1  0
 61 62  1  0
 61 60  1  0
 63 62  1  0
 63 72  1  0
 63 64  1  0
 65 59  1  0
 65 64  1  0
 66 59  2  0
 67 68  1  0
 67 58  1  0
 69 70  2  0
 70 89  1  0
 71 70  1  0
 71 74  1  0
 72 73  1  0
 72 69  1  0
 73 71  2  0
 74 75  1  0
 75 76  2  0
 77 80  1  0
 77 76  1  0
 78 77  2  0
 79 78  1  0
 79 74  2  0
 80 81  1  0
 81 82  1  0
 82 83  2  0
 84 83  1  0
 84 88  1  0
 85 84  2  0
 86 81  2  0
 86 85  1  0
 87 86  1  0
 89 90  1  0
 90 93  1  0
 90 92  1  0
 91 89  2  0
 94 95  1  0
 94 69  1  0
 96 94  1  0
M  ISO  4  16 101  17 101  59 100  67 100
M  END
>  <TORSDO>  (84) 
F 21

>  <SCORE>  (84) 
-13.538

>  <name>  (84) 
83

>  <ligand_id>  (84) 
83

>  <original_smiles>  (84) 
[H]c1c([H])c([H])c2c(c1[H])C([H])([H])C([H])([H])C([H])([H])C2([H])N([H])C(=O)C1([H])N(C(=O)C([H])(N([H])C(=O)C([H])(N([H])C([H])([H])[H])C([H])([H])[H])C(C([H])([H])[H])(C([H])([H])[H])C([H])([H])[H])C([H])([H])c2c([H])c(OC([H])([H])C([H])([H])c3c(C([H])([H])[H])c(N([H])C([H])(C([H])([H])[H])C([H])([H])[H])c(C([H])([H])[H])c(C([H])([H])N([H])C(=O)N4C([H])([H])C([H])([H])C([H])([H])C([H])(n5nc(-c6c([H])c([H])c(Oc7c([H])c([H])c(F)c([H])c7F)c([H])c6[H])c(C(=O)N([H])[H])c5N([H])[H])C4([H])[H])c3C([H])([H])[H])c([H])c([H])c2C1([H])[H]

>  <smiles>  (84) 
[H]c1c([H])c([H])c2c(c1[H])C([H])([H])C([H])([H])C([H])([H])C2([H])N([H])C(=O)C1([H])N(C(=O)C([H])(N([H])C(=O)C([H])(N([H])C([H])([H])[H])C([H])([H])[H])C(C([H])([H])[H])(C([H])([H])[H])C([H])([H])[H])C([H])([H])c2c([H])c(OC([H])([H])C([H])([H])c3c(C([H])([H])[H])c(N([H])C([H])(C([H])([H])[H])C([H])([H])[H])c(C([H])([H])[H])c(C([H])([H])N([H])C(=O)N4C([H])([H])C([H])([H])C([H])([H])C([H])(n5nc(-c6c([H])c([H])c(Oc7c([H])c([H])c(F)c([H])c7F)c([H])c6[H])c(C(=O)N([H])[H])c5N([H])[H])C4([H])[H])c3C([H])([H])[H])c([H])c([H])c2C1([H])[H]

$$$$
84:0:0
     RDKit          3D

 94102  0  0  1  0  0  0  0  0999 V2000
  -31.6720  -20.5160   19.8890 C   0  0  0  0  0  3  0  0  0  0  0  0
  -30.7340  -21.5740   19.9350 C   0  0  0  0  0  0  0  0  0  0  0  0
  -31.4130  -19.1250   20.0530 C   0  0  0  0  0  0  0  0  0  0  0  0
  -29.3550  -21.3480   20.1540 C   0  0  0  0  0  0  0  0  0  0  0  0
  -30.0790  -18.5970   20.1250 C   0  0  0  0  0  0  0  0  0  0  0  0
  -29.0900  -19.8070   20.2150 C   0  0  0  0  0  0  0  0  0  0  0  0
  -31.2830  -22.9880   19.8230 C   0  0  0  0  0  1  0  0  0  0  0  0
  -27.4410  -19.3640   20.4550 Cl  0  0  0  0  0  0  0  0  0  0  0  0
  -30.5910  -15.6500   20.0370 C   0  0  0  0  0  0  0  0  0  0  0  0
  -30.5920  -13.1730   19.2140 C   0  0  0  0  0  2  0  0  0  0  0  0
  -29.6600  -12.9000   18.0070 C   0  0  0  0  0  2  0  0  0  0  0  0
  -28.2350  -12.5850   18.4880 C   0  0  0  0  0  2  0  0  0  0  0  0
  -27.7760  -13.5580   19.6020 C   0  0  0  0  0  3  0  0  0  0  0  0
  -28.8410  -13.7920   20.6960 C   0  0  0  0  0  2  0  0  0  0  0  0
  -30.0330  -14.3310   20.0200 N   0  0  0  0  0  0  0  0  0  0  0  0
  -31.7960  -15.5950   19.7570 O   0  0  0  0  0  0  0  0  0  0  0  0
  -29.8480  -16.9570   20.1660 N   0  0  0  0  0  0  0  0  0  0  0  0
  -28.8700  -16.7470   20.2980 H   0  0  0  0  0  0  0  0  0  0  0  0
  -25.4260  -14.0510   20.4520 C   0  0  0  0  0  0  0  0  0  0  0  0
  -24.3910  -13.2470   20.8390 C   0  0  0  0  0  0  0  0  0  0  0  0
  -24.8810  -11.9060   20.7640 C   0  0  0  0  0  0  0  0  0  0  0  0
  -26.4750  -13.2020   20.1530 N   0  0  0  0  0  0  0  0  0  0  0  0
  -26.1630  -11.9030   20.4090 N   0  0  0  0  0  0  0  0  0  0  0  0
  -24.1830  -10.6280   20.9490 C   0  0  0  0  0  0  0  0  0  0  0  0
  -24.6140   -9.6790   21.9030 C   0  0  0  0  0  3  0  0  0  0  0  0
  -23.9100   -8.4690   22.0780 C   0  0  0  0  0  3  0  0  0  0  0  0
  -22.7600   -8.1970   21.2980 C   0  0  0  0  0  0  0  0  0  0  0  0
  -22.3490   -9.1330   20.3340 C   0  0  0  0  0  3  0  0  0  0  0  0
  -23.0540  -10.3350   20.1580 C   0  0  0  0  0  3  0  0  0  0  0  0
  -22.0290   -7.0350   21.3810 O   0  0  0  0  0  0  0  0  0  0  0  0
  -21.8930   -6.3530   22.5640 C   0  0  0  0  0  0  0  0  0  0  0  0
  -21.3230   -6.9510   23.7080 C   0  0  0  0  0  3  0  0  0  0  0  0
  -21.1380   -6.1920   24.8810 C   0  0  0  0  0  3  0  0  0  0  0  0
  -21.5150   -4.8360   24.9090 C   0  0  0  0  0  0  0  0  0  0  0  0
  -22.0770   -4.2360   23.7690 C   0  0  0  0  0  3  0  0  0  0  0  0
  -22.2620   -4.9930   22.5980 C   0  0  0  0  0  0  0  0  0  0  0  0
  -22.7860   -4.4060   21.4950 F   0  0  0  0  0  0  0  0  0  0  0  0
  -21.3300   -4.1050   26.0330 F   0  0  0  0  0  0  0  0  0  0  0  0
  -22.9960  -13.6940   21.1600 C   0  0  0  0  0  0  0  0  0  0  0  0
  -22.3100  -12.9770   22.0430 N   0  0  0  0  0  0  0  0  0  0  0  0
  -22.5230  -14.7160   20.6640 O   0  0  0  0  0  0  0  0  0  0  0  0
  -22.7060  -12.1520   22.4680 H   0  0  0  0  0  0  0  0  0  0  0  0
  -21.3750  -13.2590   22.2990 H   0  0  0  0  0  0  0  0  0  0  0  0
  -25.5560  -15.4280   20.2970 N   0  0  0  0  0  0  0  0  0  0  0  0
  -24.7800  -16.0620   20.4500 H   0  0  0  0  0  0  0  0  0  0  0  0
  -26.3740  -15.8910   19.9240 H   0  0  0  0  0  0  0  0  0  0  0  0
  -32.6420  -18.2260   20.2120 C   0  0  0  0  0  2  0  0  0  0  0  0
  -35.1580  -17.8300   20.3640 C   0  0  0  0  0  1  0  0  0  0  0  0
  -34.0510  -18.8650   20.1150 C   0  0  1  0  0  0  0  0  0  0  0  0
  -34.2600  -19.3740   18.9000 F   0  0  0  0  0  0  0  0  0  0  0  0
  -34.2000  -19.8230   21.0310 F   0  0  0  0  0  0  0  0  0  0  0  0
  -28.4080  -22.8070   20.4990 C   0  0  0  0  0  2  0  0  0  0  0  0
  -28.2050  -24.4870   19.8020 C   0  0  0  0  0  2  0  0  0  0  0  0
  -28.1520  -26.0800   20.3010 O   0  0  0  0  0  0  0  0  0  0  0  0
  -24.7100  -32.1000   23.2890 C   0  0  0  0  0  0  0  0  0  0  0  0
  -27.1490  -27.1890   20.1940 C   0  0  0  0  0  0  0  0  0  0  0  0
  -23.4690  -30.7270   21.6650 C   0  0  0  0  0  3  0  0  0  0  0  0
  -24.8710  -29.1090   20.1990 C   0  0  0  0  0  0  0  0  0  0  0  0
  -26.0340  -30.9010   21.4740 C   0  0  0  0  0  2  0  0  0  0  0  0
  -26.0720  -29.4920   20.8060 C   0  0  0  0  0  0  0  0  0  0  0  0
  -27.1990  -28.5510   20.7820 C   0  0  0  0  0  3  0  0  0  0  0  0
  -25.9220  -26.9660   19.5280 C   0  0  0  0  0  3  0  0  0  0  0  0
  -24.8220  -27.8690   19.5390 C   0  0  0  0  0  3  0  0  0  0  0  0
  -23.6640  -30.0470   20.2790 C   0  0  0  0  0  2  0  0  0  0  0  0
  -24.7610  -31.2710   22.1950 N   0  0  0  0  0  0  0  0  0  0  0  0
  -23.6340  -32.3990   23.8330 O   0  0  0  0  0  0  0  0  0  0  0  0
  -22.7800  -29.7360   22.6400 C   0  0  0  0  0  0  0  0  0  0  0  0
  -21.4580  -29.5340   22.4930 N   0  0  0  0  0  0  0  0  0  0  0  0
  -23.4440  -29.1490   23.4990 O   0  0  0  0  0  0  0  0  0  0  0  0
  -20.9740  -30.0600   21.7780 H   0  0  0  0  0  0  0  0  0  0  0  0
  -18.1110  -28.1930   22.9140 C   0  0  0  0  0  0  0  0  0  0  0  0
  -20.6440  -28.5900   23.2680 C   0  0  0  0  0  3  0  0  0  0  0  0
  -20.8340  -27.1430   22.7580 C   0  0  0  0  0  2  0  0  0  0  0  0
  -19.7910  -26.7290   21.7140 C   0  0  0  0  0  2  0  0  0  0  0  0
  -18.3780  -26.8310   22.2960 C   0  0  0  0  0  2  0  0  0  0  0  0
  -19.1740  -29.0250   23.3560 C   0  0  0  0  0  0  0  0  0  0  0  0
  -18.8710  -30.2940   23.8940 C   0  0  0  0  0  3  0  0  0  0  0  0
  -17.5370  -30.7330   23.9960 C   0  0  0  0  0  3  0  0  0  0  0  0
  -16.4880  -29.9000   23.5690 C   0  0  0  0  0  3  0  0  0  0  0  0
  -16.7760  -28.6310   23.0340 C   0  0  0  0  0  3  0  0  0  0  0  0
  -26.0000  -32.7240   23.9030 C   0  0  0  0  0  3  0  0  0  0  0  0
  -26.4930  -31.9740   25.2030 C   0  0  1  0  0  0  0  0  0  0  0  0
  -25.3860  -31.7710   26.2650 C   0  0  0  0  0  1  0  0  0  0  0  0
  -27.0660  -30.5820   24.8550 C   0  0  0  0  0  1  0  0  0  0  0  0
  -27.6450  -32.7710   25.8620 C   0  0  0  0  0  1  0  0  0  0  0  0
  -25.7170  -34.1370   24.2130 N   0  0  0  0  0  0  0  0  0  0  0  0
  -26.0730  -35.1790   23.4490 C   0  0  0  0  0  0  0  0  0  0  0  0
  -26.7360  -35.0490   22.4160 O   0  0  0  0  0  0  0  0  0  0  0  0
  -25.1280  -34.3130   25.0130 H   0  0  0  0  0  0  0  0  0  0  0  0
  -24.3840  -37.0160   23.1030 C   0  0  0  0  0  1  0  0  0  0  0  0
  -25.6280  -36.5860   23.8980 C   0  0  0  0  0  3  0  0  0  0  0  0
  -27.7930  -37.4360   24.6880 C   0  0  0  0  0  1  0  0  0  0  0  0
  -26.6830  -37.6140   23.7560 N   0  0  0  0  0  0  0  0  0  0  0  0
  -26.3000  -38.5450   23.8930 H   0  0  0  0  0  0  0  0  0  0  0  0
  1  2  2  0
  1  3  1  0
  2  4  1  0
  3  5  2  0
  3 47  1  0
  4  6  2  0
  4 52  1  0
  5 17  1  0
  5  6  1  0
  6  8  1  0
  7  2  1  0
  9 17  1  0
 10 15  1  0
 11 12  1  0
 11 10  1  0
 13 12  1  0
 13 22  1  0
 13 14  1  0
 15  9  1  0
 15 14  1  0
 16  9  2  0
 17 18  1  0
 19 20  2  0
 20 39  1  0
 21 20  1  0
 21 24  1  0
 22 23  1  0
 22 19  1  0
 23 21  2  0
 24 25  1  0
 25 26  2  0
 27 30  1  0
 27 26  1  0
 28 27  2  0
 29 28  1  0
 29 24  2  0
 30 31  1  0
 31 36  2  0
 31 32  1  0
 32 33  2  0
 33 34  1  0
 34 38  1  0
 35 34  2  0
 36 35  1  0
 37 36  1  0
 39 40  1  0
 40 43  1  0
 40 42  1  0
 41 39  2  0
 44 45  1  0
 44 19  1  0
 46 44  1  0
 49 47  1  0
 49 48  1  1
 49 51  1  0
 50 49  1  0
 53 54  1  0
 53 52  1  0
 55 66  2  0
 56 54  1  0
 56 61  1  0
 57 65  1  0
 57 67  1  0
 58 64  1  0
 58 60  1  0
 59 65  1  0
 60 59  1  0
 61 60  2  0
 62 63  1  0
 62 56  2  0
 63 58  2  0
 64 57  1  0
 65 55  1  0
 67 69  2  0
 68 67  1  0
 70 68  1  0
 71 80  2  0
 71 76  1  0
 72 68  1  0
 72 76  1  0
 73 72  1  0
 74 75  1  0
 74 73  1  0
 75 71  1  0
 76 77  2  0
 77 78  1  0
 79 78  2  0
 80 79  1  0
 81 55  1  0
 81 86  1  0
 81 82  1  0
 82 85  1  1
 82 83  1  0
 84 82  1  0
 86 89  1  0
 87 91  1  0
 87 86  1  0
 88 87  2  0
 91 90  1  0
 93 94  1  0
 93 91  1  0
 93 92  1  0
M  ISO  4   9 100  17 100  53 101  54 101
M  END
>  <TORSDO>  (85) 
F 20

>  <SCORE>  (85) 
-14.402

>  <name>  (85) 
84

>  <ligand_id>  (85) 
84

>  <original_smiles>  (85) 
[H]c1c([H])c([H])c2c(c1[H])C([H])([H])C([H])([H])C([H])([H])C2([H])N([H])C(=O)C1([H])N(C(=O)C([H])(N([H])C(=O)C([H])(N([H])C([H])([H])[H])C([H])([H])[H])C(C([H])([H])[H])(C([H])([H])[H])C([H])([H])[H])C([H])([H])c2c([H])c(OC([H])([H])C([H])([H])c3c(Cl)c(N([H])C(=O)N4C([H])([H])C([H])([H])C([H])([H])C([H])(n5nc(-c6c([H])c([H])c(Oc7c([H])c([H])c(F)c([H])c7F)c([H])c6[H])c(C(=O)N([H])[H])c5N([H])[H])C4([H])[H])c(C([H])([H])C(F)(F)C([H])([H])[H])c([H])c3C([H])([H])[H])c([H])c([H])c2C1([H])[H]

>  <smiles>  (85) 
[H]c1c([H])c([H])c2c(c1[H])C([H])([H])C([H])([H])C([H])([H])C2([H])N([H])C(=O)C1([H])N(C(=O)C([H])(N([H])C(=O)C([H])(N([H])C([H])([H])[H])C([H])([H])[H])C(C([H])([H])[H])(C([H])([H])[H])C([H])([H])[H])C([H])([H])c2c([H])c(OC([H])([H])C([H])([H])c3c(Cl)c(N([H])C(=O)N4C([H])([H])C([H])([H])C([H])([H])C([H])(n5nc(-c6c([H])c([H])c(Oc7c([H])c([H])c(F)c([H])c7F)c([H])c6[H])c(C(=O)N([H])[H])c5N([H])[H])C4([H])[H])c(C([H])([H])C(F)(F)C([H])([H])[H])c([H])c3C([H])([H])[H])c([H])c([H])c2C1([H])[H]

$$$$
85:0:0
     RDKit          3D

 99105  0  0  1  0  0  0  0  0999 V2000
  -22.8100  -26.5990   20.6990 C   0  0  0  0  0  2  0  0  0  0  0  0
  -21.6070  -25.6460   19.2480 C   0  0  0  0  0  2  0  0  0  0  0  0
  -24.2530  -25.3630   20.7330 C   0  0  0  0  0  3  0  0  0  0  0  0
  -24.3280  -24.0080   19.7310 C   0  0  0  0  0  3  0  0  0  0  0  0
  -22.7170  -24.1980   19.2020 C   0  0  2  0  0  0  0  0  0  0  0  0
  -22.8900  -24.1060   17.6600 C   0  0  0  0  0  1  0  0  0  0  0  0
  -22.1140  -22.8070   19.5530 C   0  0  0  0  0  1  0  0  0  0  0  0
  -21.0160  -26.5790   20.5220 N   0  0  0  0  0  0  0  0  0  0  0  0
  -21.0100  -25.6600   20.9580 H   0  0  0  0  0  0  0  0  0  0  0  0
  -17.5770  -25.4930   22.2030 C   0  0  0  0  0  1  0  0  0  0  0  0
  -18.8920  -26.7190   23.8570 C   0  0  0  0  0  1  0  0  0  0  0  0
  -19.0870  -26.1960   22.3000 C   0  0  1  0  0  0  0  0  0  0  0  0
  -25.1550  -22.4770   20.1070 N   0  0  0  0  0  4  0  0  0  0  0  0
  -24.3850  -21.8430   20.2470 H   0  0  0  0  0  0  0  0  0  0  0  0
  -25.5070  -22.6220   21.0420 H   0  0  0  0  0  0  0  0  0  0  0  0
  -25.9600  -21.2360   17.9580 C   0  0  0  0  0  1  0  0  0  0  0  0
  -26.3990  -21.4350   19.4160 C   0  0  0  0  0  3  0  0  0  0  0  0
  -27.2360  -19.7410   19.8800 C   0  0  0  0  0  3  0  0  0  0  0  0
  -28.5620  -18.4820   19.2100 C   0  0  0  0  0  3  0  0  0  0  0  0
  -30.3280  -15.7950   19.2320 C   0  0  0  0  0  0  0  0  0  0  0  0
  -30.7720  -13.2730   18.4900 C   0  0  0  0  0  2  0  0  0  0  0  0
  -29.7520  -12.8400   17.3970 C   0  0  0  0  0  2  0  0  0  0  0  0
  -28.3790  -12.5170   18.0190 C   0  0  0  0  0  2  0  0  0  0  0  0
  -28.0190  -13.5430   19.1190 C   0  0  0  0  0  3  0  0  0  0  0  0
  -29.1400  -13.7360   20.1360 C   0  0  0  0  0  2  0  0  0  0  0  0
  -30.1640  -14.3770   19.3520 N   0  0  0  0  0  0  0  0  0  0  0  0
  -31.4710  -15.9920   18.7440 O   0  0  0  0  0  0  0  0  0  0  0  0
  -29.2070  -16.8490   19.5200 N   0  0  0  0  0  0  0  0  0  0  0  0
  -28.4930  -16.3420   20.0250 H   0  0  0  0  0  0  0  0  0  0  0  0
  -25.9430  -14.1970   20.3900 C   0  0  0  0  0  0  0  0  0  0  0  0
  -24.9000  -13.4640   20.8700 C   0  0  0  0  0  0  0  0  0  0  0  0
  -25.2020  -12.0980   20.5680 C   0  0  0  0  0  0  0  0  0  0  0  0
  -26.7890  -13.2760   19.8080 N   0  0  0  0  0  0  0  0  0  0  0  0
  -26.3850  -12.0000   19.9850 N   0  0  0  0  0  0  0  0  0  0  0  0
  -24.4010  -10.8870   20.7300 C   0  0  0  0  0  0  0  0  0  0  0  0
  -24.8240   -9.8260   21.5630 C   0  0  0  0  0  3  0  0  0  0  0  0
  -24.0210   -8.6760   21.7120 C   0  0  0  0  0  3  0  0  0  0  0  0
  -22.7830   -8.5830   21.0330 C   0  0  0  0  0  0  0  0  0  0  0  0
  -22.3820   -9.6310   20.1860 C   0  0  0  0  0  3  0  0  0  0  0  0
  -23.1830  -10.7720   20.0330 C   0  0  0  0  0  3  0  0  0  0  0  0
  -21.9480   -7.4960   21.1010 O   0  0  0  0  0  0  0  0  0  0  0  0
  -21.7960   -6.7790   22.2590 C   0  0  0  0  0  0  0  0  0  0  0  0
  -21.3580   -7.3830   23.4580 C   0  0  0  0  0  3  0  0  0  0  0  0
  -21.1490   -6.5950   24.6070 C   0  0  0  0  0  3  0  0  0  0  0  0
  -21.3690   -5.2040   24.5570 C   0  0  0  0  0  0  0  0  0  0  0  0
  -21.8000   -4.6010   23.3630 C   0  0  0  0  0  3  0  0  0  0  0  0
  -22.0110   -5.3870   22.2160 C   0  0  0  0  0  0  0  0  0  0  0  0
  -22.4060   -4.7980   21.0620 F   0  0  0  0  0  0  0  0  0  0  0  0
  -21.1600   -4.4460   25.6580 F   0  0  0  0  0  0  0  0  0  0  0  0
  -23.6420  -14.0100   21.4710 C   0  0  0  0  0  0  0  0  0  0  0  0
  -23.0310  -13.2690   22.3860 N   0  0  0  0  0  0  0  0  0  0  0  0
  -23.2230  -15.1260   21.1630 O   0  0  0  0  0  0  0  0  0  0  0  0
  -23.3900  -12.3640   22.6500 H   0  0  0  0  0  0  0  0  0  0  0  0
  -22.1910  -13.6090   22.8320 H   0  0  0  0  0  0  0  0  0  0  0  0
  -26.2290  -15.5600   20.3620 N   0  0  0  0  0  0  0  0  0  0  0  0
  -25.5340  -16.2270   20.6860 H   0  0  0  0  0  0  0  0  0  0  0  0
  -26.8760  -15.9660   19.6990 H   0  0  0  0  0  0  0  0  0  0  0  0
  -25.9910  -25.5640   20.9640 C   0  0  0  0  0  2  0  0  0  0  0  0
  -27.2340  -26.5370   21.0490 O   0  0  0  0  0  0  0  0  0  0  0  0
  -24.8380  -32.0220   23.8330 C   0  0  0  0  0  0  0  0  0  0  0  0
  -27.1230  -27.7290   20.4360 C   0  0  0  0  0  0  0  0  0  0  0  0
  -23.7040  -30.8790   21.9930 C   0  0  0  0  0  3  0  0  0  0  0  0
  -25.1240  -29.5660   20.3460 C   0  0  0  0  0  0  0  0  0  0  0  0
  -26.2370  -31.1140   21.9690 C   0  0  0  0  0  2  0  0  0  0  0  0
  -26.2520  -29.8500   21.1320 C   0  0  0  0  0  0  0  0  0  0  0  0
  -27.3030  -28.9100   21.1880 C   0  0  0  0  0  3  0  0  0  0  0  0
  -26.2160  -27.6420   19.3910 C   0  0  0  0  0  3  0  0  0  0  0  0
  -25.1310  -28.5060   19.4290 C   0  0  0  0  0  3  0  0  0  0  0  0
  -23.9190  -30.4470   20.5170 C   0  0  0  0  0  2  0  0  0  0  0  0
  -24.9430  -31.3820   22.6340 N   0  0  0  0  0  0  0  0  0  0  0  0
  -23.7320  -32.2570   24.3440 O   0  0  0  0  0  0  0  0  0  0  0  0
  -23.1740  -29.7130   22.8300 C   0  0  0  0  0  0  0  0  0  0  0  0
  -21.9700  -29.2810   22.5750 N   0  0  0  0  0  0  0  0  0  0  0  0
  -23.8420  -29.1370   23.6850 O   0  0  0  0  0  0  0  0  0  0  0  0
  -21.4210  -29.7540   21.8710 H   0  0  0  0  0  0  0  0  0  0  0  0
  -18.5540  -28.5030   22.0750 C   0  0  0  0  0  0  0  0  0  0  0  0
  -21.2760  -28.2940   23.3920 C   0  0  0  0  0  2  0  0  0  0  0  0
  -21.4800  -26.0640   23.3490 C   0  0  0  0  0 15  0  0  0  0  0  0
  -19.7430  -25.2450   22.0810 C   0  0  0  0  0  1  0  0  0  0  0  0
  -18.5320  -26.7990   21.3740 C   0  0  0  0  0  2  0  0  0  0  0  0
  -19.7360  -29.1290   22.9080 C   0  0  0  0  0  0  0  0  0  0  0  0
  -19.4100  -30.2490   23.7610 C   0  0  0  0  0  3  0  0  0  0  0  0
  -18.1070  -30.7390   24.0010 C   0  0  0  0  0  3  0  0  0  0  0  0
  -17.0250  -30.1380   23.3420 C   0  0  0  0  0  3  0  0  0  0  0  0
  -17.2610  -29.0900   22.4020 C   0  0  0  0  0  3  0  0  0  0  0  0
  -26.1000  -32.4900   24.6030 C   0  0  0  0  0  3  0  0  0  0  0  0
  -25.9290  -33.9260   24.8430 N   0  0  0  0  0  0  0  0  0  0  0  0
  -26.4320  -34.8820   24.0550 C   0  0  0  0  0  0  0  0  0  0  0  0
  -27.1670  -34.6420   23.0940 O   0  0  0  0  0  0  0  0  0  0  0  0
  -25.2930  -34.1900   25.5810 H   0  0  0  0  0  0  0  0  0  0  0  0
  -24.9420  -36.8170   23.4590 C   0  0  0  0  0  1  0  0  0  0  0  0
  -26.0660  -36.3410   24.3920 C   0  0  0  0  0  3  0  0  0  0  0  0
  -28.2310  -37.0210   25.3260 C   0  0  0  0  0  1  0  0  0  0  0  0
  -27.2160  -37.2650   24.3040 N   0  0  0  0  0  0  0  0  0  0  0  0
  -26.9100  -38.2310   24.3850 H   0  0  0  0  0  0  0  0  0  0  0  0
  -26.3320  -31.7160   25.9570 C   0  0  1  0  0  0  0  0  0  0  0  0
  -25.0620  -31.5890   26.8330 C   0  0  0  0  0  1  0  0  0  0  0  0
  -26.8620  -30.2890   25.6920 C   0  0  0  0  0  1  0  0  0  0  0  0
  -27.4180  -32.4410   26.7810 C   0  0  0  0  0  1  0  0  0  0  0  0
  1  3  1  0
  2  8  1  0
  3 58  1  0
  4 13  1  0
  4  3  1  0
  5  2  1  0
  5  7  1  1
  5  4  1  0
  6  5  1  0
  8  1  1  0
  8  9  1  0
 12 10  1  1
 12 11  1  0
 13 14  1  0
 13 15  1  0
 17 16  1  0
 17 18  1  0
 17 13  1  0
 19 28  1  0
 19 18  2  0
 20 26  1  0
 20 28  1  0
 21 26  1  0
 22 23  1  0
 22 21  1  0
 24 23  1  0
 24 33  1  0
 24 25  1  0
 26 25  1  0
 27 20  2  0
 28 29  1  0
 30 31  2  0
 31 50  1  0
 32 35  1  0
 32 31  1  0
 33 34  1  0
 33 30  1  0
 34 32  2  0
 35 36  1  0
 36 37  2  0
 38 41  1  0
 38 37  1  0
 39 38  2  0
 40 39  1  0
 40 35  2  0
 41 42  1  0
 42 43  1  0
 43 44  2  0
 45 44  1  0
 45 49  1  0
 46 45  2  0
 47 42  2  0
 47 46  1  0
 48 47  1  0
 50 51  1  0
 51 53  1  0
 51 54  1  0
 52 50  2  0
 55 30  1  0
 55 56  1  0
 57 55  1  0
 58 59  1  0
 60 71  2  0
 61 59  1  0
 61 66  1  0
 62 70  1  0
 62 72  1  0
 63 69  1  0
 63 65  1  0
 64 70  1  0
 65 66  2  0
 65 64  1  0
 67 68  1  0
 67 61  2  0
 68 63  2  0
 69 62  1  0
 70 60  1  0
 72 74  2  0
 73 72  1  0
 73 77  1  0
 75 73  1  0
 76 85  2  0
 76 81  1  0
 79 12  1  0
 80 76  1  0
 80 12  1  0
 81 77  1  0
 81 82  2  0
 82 83  1  0
 84 83  2  0
 85 84  1  0
 86 60  1  0
 86 87  1  0
 86 96  1  0
 87 90  1  0
 88 92  1  0
 88 87  1  0
 89 88  2  0
 92 91  1  0
 94 95  1  0
 94 92  1  0
 94 93  1  0
 96 99  1  1
 96 97  1  0
 98 96  1  0
M  ISO  4  20 100  28 100  58 101  59 101
M  END
>  <TORSDO>  (86) 
F 22

>  <SCORE>  (86) 
-10.275

>  <name>  (86) 
85

>  <ligand_id>  (86) 
85

>  <original_smiles>  (86) 
[H]c1c([H])c([H])c2c(c1[H])C([H])([H])C([H])([H])C([H])([H])C2([H])N([H])C(=O)C1([H])N(C(=O)C([H])(N([H])C(=O)C([H])(N([H])C([H])([H])[H])C([H])([H])[H])C(C([H])([H])[H])(C([H])([H])[H])C([H])([H])[H])C([H])([H])c2c([H])c(OC([H])([H])C3([H])C([H])([N+]([H])([H])C([H])(C([H])([H])[H])C([H])([H])C([H])([H])N([H])C(=O)N4C([H])([H])C([H])([H])C([H])([H])C([H])(n5nc(-c6c([H])c([H])c(Oc7c([H])c([H])c(F)c([H])c7F)c([H])c6[H])c(C(=O)N([H])[H])c5N([H])[H])C4([H])[H])C(C([H])([H])[H])(C([H])([H])[H])C([H])([H])[N+]([H])(C([H])(C([H])([H])[H])C([H])([H])[H])C3([H])[H])c([H])c([H])c2C1([H])[H]

>  <smiles>  (86) 
[H]c1c([H])c([H])c2c(c1[H])C([H])([H])C([H])([H])C([H])([H])C2([H])N([H])C(=O)C1([H])N(C(=O)C([H])(N([H])C(=O)C([H])(N([H])C([H])([H])[H])C([H])([H])[H])C(C([H])([H])[H])(C([H])([H])[H])C([H])([H])[H])C([H])([H])c2c([H])c(OC([H])([H])C3([H])C([H])([N+]([H])([H])C([H])(C([H])([H])[H])C([H])([H])C([H])([H])N([H])C(=O)N4C([H])([H])C([H])([H])C([H])([H])C([H])(n5nc(-c6c([H])c([H])c(Oc7c([H])c([H])c(F)c([H])c7F)c([H])c6[H])c(C(=O)N([H])[H])c5N([H])[H])C4([H])[H])C(C([H])([H])[H])(C([H])([H])[H])C([H])([H])[N+]([H])(C([H])(C([H])([H])[H])C([H])([H])[H])C3([H])[H])c([H])c([H])c2C1([H])[H]

$$$$
86:0:0
     RDKit          3D

 91 99  0  0  1  0  0  0  0  0999 V2000
  -28.1880  -20.3450   19.9250 C   0  0  0  0  0  0  0  0  0  0  0  0
  -29.1730  -21.3180   20.3660 C   0  0  0  0  0  0  0  0  0  0  0  0
  -28.3640  -18.8590   19.8910 C   0  0  0  0  0  0  0  0  0  0  0  0
  -30.3580  -20.5400   20.7560 C   0  0  0  0  0  0  0  0  0  0  0  0
  -29.5360  -18.0830   20.3190 C   0  0  0  0  0  0  0  0  0  0  0  0
  -30.5270  -19.0540   20.7370 C   0  0  0  0  0  0  0  0  0  0  0  0
  -26.8630  -20.9250   19.4460 C   0  0  0  0  0  1  0  0  0  0  0  0
  -27.2010  -18.0550   19.3140 C   0  0  0  0  0  1  0  0  0  0  0  0
  -31.5640  -21.3620   21.2140 C   0  0  0  0  0  1  0  0  0  0  0  0
  -32.0340  -18.3840   21.2620 Cl  0  0  0  0  0  0  0  0  0  0  0  0
  -30.4480  -15.2930   20.2620 C   0  0  0  0  0  0  0  0  0  0  0  0
  -30.4440  -12.8740   19.3550 C   0  0  0  0  0  2  0  0  0  0  0  0
  -29.5020  -12.7200   18.1350 C   0  0  0  0  0  2  0  0  0  0  0  0
  -28.0560  -12.4470   18.5890 C   0  0  0  0  0  2  0  0  0  0  0  0
  -27.6220  -13.3810   19.7480 C   0  0  0  0  0  3  0  0  0  0  0  0
  -28.6880  -13.4780   20.8590 C   0  0  0  0  0  2  0  0  0  0  0  0
  -29.9160  -13.9810   20.2220 N   0  0  0  0  0  0  0  0  0  0  0  0
  -31.6580  -15.3490   20.0080 O   0  0  0  0  0  0  0  0  0  0  0  0
  -29.5820  -16.4730   20.3630 N   0  0  0  0  0  0  0  0  0  0  0  0
  -28.6440  -16.1200   20.4560 H   0  0  0  0  0  0  0  0  0  0  0  0
  -25.2520  -13.9160   20.5380 C   0  0  0  0  0  0  0  0  0  0  0  0
  -24.2000  -13.1290   20.9130 C   0  0  0  0  0  0  0  0  0  0  0  0
  -24.6780  -11.7840   20.8580 C   0  0  0  0  0  0  0  0  0  0  0  0
  -26.2990  -13.0540   20.2680 N   0  0  0  0  0  0  0  0  0  0  0  0
  -25.9660  -11.7620   20.5300 N   0  0  0  0  0  0  0  0  0  0  0  0
  -23.9620  -10.5150   21.0410 C   0  0  0  0  0  0  0  0  0  0  0  0
  -24.3980   -9.5460   21.9710 C   0  0  0  0  0  3  0  0  0  0  0  0
  -23.6780   -8.3440   22.1420 C   0  0  0  0  0  3  0  0  0  0  0  0
  -22.5070   -8.1040   21.3850 C   0  0  0  0  0  0  0  0  0  0  0  0
  -22.0900   -9.0620   20.4430 C   0  0  0  0  0  3  0  0  0  0  0  0
  -22.8110  -10.2540   20.2690 C   0  0  0  0  0  3  0  0  0  0  0  0
  -21.7590   -6.9530   21.4660 O   0  0  0  0  0  0  0  0  0  0  0  0
  -21.6950   -6.2180   22.6210 C   0  0  0  0  0  0  0  0  0  0  0  0
  -21.2000   -6.7650   23.8250 C   0  0  0  0  0  3  0  0  0  0  0  0
  -21.0820   -5.9540   24.9710 C   0  0  0  0  0  3  0  0  0  0  0  0
  -21.4520   -4.5960   24.9160 C   0  0  0  0  0  0  0  0  0  0  0  0
  -21.9400   -4.0480   23.7160 C   0  0  0  0  0  3  0  0  0  0  0  0
  -22.0580   -4.8570   22.5720 C   0  0  0  0  0  0  0  0  0  0  0  0
  -22.5080   -4.3180   21.4140 F   0  0  0  0  0  0  0  0  0  0  0  0
  -21.3320   -3.8150   26.0140 F   0  0  0  0  0  0  0  0  0  0  0  0
  -22.8030  -13.5950   21.1990 C   0  0  0  0  0  0  0  0  0  0  0  0
  -22.0860  -12.8900   22.0670 N   0  0  0  0  0  0  0  0  0  0  0  0
  -22.3550  -14.6200   20.6880 O   0  0  0  0  0  0  0  0  0  0  0  0
  -22.4620  -12.0620   22.5050 H   0  0  0  0  0  0  0  0  0  0  0  0
  -21.1480  -13.1860   22.2970 H   0  0  0  0  0  0  0  0  0  0  0  0
  -25.3920  -15.2890   20.3780 N   0  0  0  0  0  0  0  0  0  0  0  0
  -24.6090  -15.9190   20.5090 H   0  0  0  0  0  0  0  0  0  0  0  0
  -26.2030  -15.7420   19.9850 H   0  0  0  0  0  0  0  0  0  0  0  0
  -29.1240  -23.0640   20.4550 C   0  0  0  0  0  3  0  0  0  0  0  0
  -28.0140  -24.4130   20.1730 C   0  0  0  0  0  3  0  0  0  0  0  0
  -28.2250  -26.0200   20.3560 O   0  0  0  0  0  0  0  0  0  0  0  0
  -24.6320  -31.9200   23.3050 C   0  0  0  0  0  0  0  0  0  0  0  0
  -27.1940  -27.0780   20.2950 C   0  0  0  0  0  0  0  0  0  0  0  0
  -23.4350  -30.5260   21.6650 C   0  0  0  0  0  3  0  0  0  0  0  0
  -24.8840  -28.9200   20.2470 C   0  0  0  0  0  0  0  0  0  0  0  0
  -26.0000  -30.7450   21.5180 C   0  0  0  0  0  2  0  0  0  0  0  0
  -26.0700  -29.3390   20.8630 C   0  0  0  0  0  0  0  0  0  0  0  0
  -27.2220  -28.4400   20.8600 C   0  0  0  0  0  3  0  0  0  0  0  0
  -25.9770  -26.7930   19.6400 C   0  0  0  0  0  3  0  0  0  0  0  0
  -24.8590  -27.6650   19.6170 C   0  0  0  0  0  3  0  0  0  0  0  0
  -23.6630  -29.8380   20.2910 C   0  0  0  0  0  2  0  0  0  0  0  0
  -24.7110  -31.0900   22.2160 N   0  0  0  0  0  0  0  0  0  0  0  0
  -23.5440  -32.2100   23.8260 O   0  0  0  0  0  0  0  0  0  0  0  0
  -22.7420  -29.5280   22.6290 C   0  0  0  0  0  0  0  0  0  0  0  0
  -21.4160  -29.3510   22.4890 N   0  0  0  0  0  0  0  0  0  0  0  0
  -23.4040  -28.9160   23.4700 O   0  0  0  0  0  0  0  0  0  0  0  0
  -20.9360  -29.9000   21.7890 H   0  0  0  0  0  0  0  0  0  0  0  0
  -18.0390  -28.1170   22.9630 C   0  0  0  0  0  0  0  0  0  0  0  0
  -20.5920  -28.4130   23.2560 C   0  0  0  0  0  3  0  0  0  0  0  0
  -20.7150  -26.9760   22.6990 C   0  0  0  0  0  2  0  0  0  0  0  0
  -19.6310  -26.6310   21.6730 C   0  0  0  0  0  2  0  0  0  0  0  0
  -18.2390  -26.7650   22.2980 C   0  0  0  0  0  2  0  0  0  0  0  0
  -19.1430  -28.8980   23.3980 C   0  0  0  0  0  0  0  0  0  0  0  0
  -18.9000  -30.1600   23.9810 C   0  0  0  0  0  3  0  0  0  0  0  0
  -17.5870  -30.6440   24.1300 C   0  0  0  0  0  3  0  0  0  0  0  0
  -16.4980  -29.8630   23.7070 C   0  0  0  0  0  3  0  0  0  0  0  0
  -16.7240  -28.6000   23.1310 C   0  0  0  0  0  3  0  0  0  0  0  0
  -25.9050  -32.5590   23.9390 C   0  0  0  0  0  3  0  0  0  0  0  0
  -25.5970  -33.9670   24.2460 N   0  0  0  0  0  0  0  0  0  0  0  0
  -25.9210  -35.0100   23.4710 C   0  0  0  0  0  0  0  0  0  0  0  0
  -26.5750  -34.8880   22.4320 O   0  0  0  0  0  0  0  0  0  0  0  0
  -25.0110  -34.1350   25.0510 H   0  0  0  0  0  0  0  0  0  0  0  0
  -24.1880  -36.8060   23.1330 C   0  0  0  0  0  1  0  0  0  0  0  0
  -25.4500  -36.4090   23.9170 C   0  0  0  0  0  3  0  0  0  0  0  0
  -27.6020  -37.3140   24.6810 C   0  0  0  0  0  1  0  0  0  0  0  0
  -26.4800  -37.4590   23.7580 N   0  0  0  0  0  0  0  0  0  0  0  0
  -26.0770  -38.3830   23.8890 H   0  0  0  0  0  0  0  0  0  0  0  0
  -26.3880  -31.8120   25.2440 C   0  0  1  0  0  0  0  0  0  0  0  0
  -25.2720  -31.6070   26.2970 C   0  0  0  0  0  1  0  0  0  0  0  0
  -26.9670  -30.4200   24.9030 C   0  0  0  0  0  1  0  0  0  0  0  0
  -27.5320  -32.6140   25.9120 C   0  0  0  0  0  1  0  0  0  0  0  0
  1  2  1  0
  2 49  1  0
  2  4  2  0
  3  1  2  0
  3  5  1  0
  4  9  1  0
  5 19  1  0
  5  6  2  0
  6  4  1  0
  6 10  1  0
  7  1  1  0
  8  3  1  0
 11 19  1  0
 12 17  1  0
 13 14  1  0
 13 12  1  0
 15 14  1  0
 15 24  1  0
 15 16  1  0
 17 11  1  0
 17 16  1  0
 18 11  2  0
 19 20  1  0
 21 22  2  0
 22 41  1  0
 23 22  1  0
 23 26  1  0
 24 25  1  0
 24 21  1  0
 25 23  2  0
 26 27  1  0
 27 28  2  0
 29 32  1  0
 29 28  1  0
 30 29  2  0
 31 30  1  0
 31 26  2  0
 32 33  1  0
 33 34  1  0
 34 35  2  0
 36 35  1  0
 36 40  1  0
 37 36  2  0
 38 33  2  0
 38 37  1  0
 39 38  1  0
 41 42  1  0
 42 45  1  0
 42 44  1  0
 43 41  2  0
 46 47  1  0
 46 21  1  0
 48 46  1  0
 50 51  1  0
 50 49  2  0
 52 63  2  0
 53 51  1  0
 53 58  1  0
 54 62  1  0
 54 64  1  0
 55 61  1  0
 55 57  1  0
 56 62  1  0
 57 56  1  0
 58 57  2  0
 59 53  2  0
 60 59  1  0
 60 55  2  0
 61 54  1  0
 62 52  1  0
 64 66  2  0
 65 64  1  0
 67 65  1  0
 68 77  2  0
 68 73  1  0
 69 65  1  0
 69 73  1  0
 70 69  1  0
 71 72  1  0
 71 70  1  0
 72 68  1  0
 73 74  2  0
 74 75  1  0
 76 75  2  0
 77 76  1  0
 78 52  1  0
 78 79  1  0
 78 88  1  0
 79 82  1  0
 80 84  1  0
 80 79  1  0
 81 80  2  0
 84 83  1  0
 86 87  1  0
 86 84  1  0
 86 85  1  0
 88 91  1  1
 88 89  1  0
 90 88  1  0
M  ISO  4  11 100  19 100  50 101  51 101
M  END
>  <TORSDO>  (87) 
F 18

>  <SCORE>  (87) 
-15.834

>  <name>  (87) 
86

>  <ligand_id>  (87) 
86

>  <original_smiles>  (87) 
[H]c1c([H])c([H])c2c(c1[H])C([H])([H])C([H])([H])C([H])([H])C2([H])N([H])C(=O)C1([H])N(C(=O)C([H])(N([H])C(=O)C([H])(N([H])C([H])([H])[H])C([H])([H])[H])C(C([H])([H])[H])(C([H])([H])[H])C([H])([H])[H])C([H])([H])c2c([H])c(OC([H])([H])C([H])([H])c3c(C([H])([H])[H])c(Cl)c(N([H])C(=O)N4C([H])([H])C([H])([H])C([H])([H])C([H])(n5nc(-c6c([H])c([H])c(Oc7c([H])c([H])c(F)c([H])c7F)c([H])c6[H])c(C(=O)N([H])[H])c5N([H])[H])C4([H])[H])c(C([H])([H])[H])c3C([H])([H])[H])c([H])c([H])c2C1([H])[H]

>  <smiles>  (87) 
[H]c1c([H])c([H])c2c(c1[H])C([H])([H])C([H])([H])C([H])([H])C2([H])N([H])C(=O)C1([H])N(C(=O)C([H])(N([H])C(=O)C([H])(N([H])C([H])([H])[H])C([H])([H])[H])C(C([H])([H])[H])(C([H])([H])[H])C([H])([H])[H])C([H])([H])c2c([H])c(OC([H])([H])C([H])([H])c3c(C([H])([H])[H])c(Cl)c(N([H])C(=O)N4C([H])([H])C([H])([H])C([H])([H])C([H])(n5nc(-c6c([H])c([H])c(Oc7c([H])c([H])c(F)c([H])c7F)c([H])c6[H])c(C(=O)N([H])[H])c5N([H])[H])C4([H])[H])c(C([H])([H])[H])c3C([H])([H])[H])c([H])c([H])c2C1([H])[H]

$$$$
87:0:0
     RDKit          3D

 99105  0  0  1  0  0  0  0  0999 V2000
  -29.5740  -17.2090   23.3680 C   0  0  0  0  0  1  0  0  0  0  0  0
  -29.7250  -17.0820   21.8470 C   0  0  0  0  0  3  0  0  0  0  0  0
  -30.5340  -15.6910   19.8490 C   0  0  0  0  0  3  0  0  0  0  0  0
  -30.2120  -15.5440   21.4260 C   0  0  0  0  0  0  0  0  0  0  0  0
  -30.6590  -14.5210   18.7370 C   0  0  0  0  0  3  0  0  0  0  0  0
  -29.9320  -14.0090   22.2230 C   0  0  0  0  0  3  0  0  0  0  0  0
  -29.8590  -12.4780   21.2730 C   0  0  0  0  0  2  0  0  0  0  0  0
  -30.3140  -12.9220   19.0630 C   0  0  0  0  0  2  0  0  0  0  0  0
  -29.6620  -13.9730   23.7140 C   0  0  0  0  0  1  0  0  0  0  0  0
  -29.5920  -11.2560   22.2050 C   0  0  0  0  0  1  0  0  0  0  0  0
  -29.7190  -12.6550   16.7360 C   0  0  0  0  0  1  0  0  0  0  0  0
  -30.4560  -12.1990   17.8700 O   0  0  0  0  0  0  0  0  0  0  0  0
  -32.0120  -14.7130   18.1080 C   0  0  0  0  0  2  0  0  0  0  0  0
  -32.7530  -13.7720   20.3470 C   0  0  0  0  0  0  0  0  0  0  0  0
  -31.8630  -11.5380   19.9230 C   0  0  0  0  0  3  0  0  0  0  0  0
  -30.5440  -10.5280   19.1070 C   0  0  0  0  0  3  0  0  0  0  0  0
  -28.7480  -10.9420   18.9020 C   0  0  0  0  0  2  0  0  0  0  0  0
  -27.9150  -12.5070   19.3960 C   0  0  0  0  0  3  0  0  0  0  0  0
  -28.8040  -13.9420   20.1440 C   0  0  0  0  0  1  0  0  0  0  0  0
  -31.5840  -13.2170   20.4770 N   0  0  0  0  0  2  0  0  0  0  0  0
  -33.6460  -13.4650   21.0690 O   0  0  0  0  0  0  0  0  0  0  0  0
  -32.9930  -14.4150   19.1740 N   0  0  0  0  0  0  0  0  0  0  0  0
  -33.9430  -14.7180   19.0110 H   0  0  0  0  0  0  0  0  0  0  0  0
  -25.8040  -13.2280   20.2890 C   0  0  0  0  0  0  0  0  0  0  0  0
  -24.7610  -12.4880   20.6940 C   0  0  0  0  0  0  0  0  0  0  0  0
  -25.2370  -11.1530   20.8650 C   0  0  0  0  0  0  0  0  0  0  0  0
  -26.8060  -12.3100   20.1840 N   0  0  0  0  0  0  0  0  0  0  0  0
  -26.5230  -11.0830   20.6440 N   0  0  0  0  0  0  0  0  0  0  0  0
  -24.5250   -9.9110   21.0800 C   0  0  0  0  0  0  0  0  0  0  0  0
  -24.8610   -9.0450   22.1410 C   0  0  0  0  0  3  0  0  0  0  0  0
  -24.1120   -7.8720   22.3470 C   0  0  0  0  0  3  0  0  0  0  0  0
  -23.0290   -7.5660   21.4870 C   0  0  0  0  0  0  0  0  0  0  0  0
  -22.7380   -8.4110   20.4030 C   0  0  0  0  0  3  0  0  0  0  0  0
  -23.4880   -9.5750   20.1940 C   0  0  0  0  0  3  0  0  0  0  0  0
  -22.2450   -6.4500   21.6110 O   0  0  0  0  0  0  0  0  0  0  0  0
  -22.0250   -5.8680   22.8320 C   0  0  0  0  0  0  0  0  0  0  0  0
  -21.4540   -6.5780   23.9090 C   0  0  0  0  0  3  0  0  0  0  0  0
  -21.1850   -5.9150   25.1230 C   0  0  0  0  0  3  0  0  0  0  0  0
  -21.4790   -4.5440   25.2550 C   0  0  0  0  0  0  0  0  0  0  0  0
  -22.0470   -3.8370   24.1810 C   0  0  0  0  0  3  0  0  0  0  0  0
  -22.3170   -4.4980   22.9710 C   0  0  0  0  0  0  0  0  0  0  0  0
  -22.8460   -3.8100   21.9310 F   0  0  0  0  0  0  0  0  0  0  0  0
  -21.2120   -3.9040   26.4170 F   0  0  0  0  0  0  0  0  0  0  0  0
  -23.3670  -12.9870   20.7130 C   0  0  0  0  0  0  0  0  0  0  0  0
  -22.5430  -12.4140   21.5710 N   0  0  0  0  0  0  0  0  0  0  0  0
  -23.0260  -13.9320   19.9990 O   0  0  0  0  0  0  0  0  0  0  0  0
  -22.8500  -11.6560   22.1640 H   0  0  0  0  0  0  0  0  0  0  0  0
  -21.5890  -12.7360   21.6420 H   0  0  0  0  0  0  0  0  0  0  0  0
  -25.9040  -14.5560   19.8740 N   0  0  0  0  0  0  0  0  0  0  0  0
  -25.0890  -15.1620   19.8400 H   0  0  0  0  0  0  0  0  0  0  0  0
  -26.7240  -14.9630   19.4470 H   0  0  0  0  0  0  0  0  0  0  0  0
  -30.3440  -18.4600   21.3000 N   0  0  0  0  0  4  0  0  0  0  0  0
  -30.6230  -18.9130   22.1540 H   0  0  0  0  0  0  0  0  0  0  0  0
  -31.2120  -18.2460   20.8380 H   0  0  0  0  0  0  0  0  0  0  0  0
  -29.6300  -19.6410   20.4900 C   0  0  0  0  0  3  0  0  0  0  0  0
  -29.7020  -21.3020   20.9070 C   0  0  0  0  0  3  0  0  0  0  0  0
  -29.3480  -22.6790   19.9530 C   0  0  0  0  0  2  0  0  0  0  0  0
  -28.8680  -24.2310   20.4750 C   0  0  0  0  0  2  0  0  0  0  0  0
  -29.0400  -25.6480   19.8220 O   0  0  0  0  0  0  0  0  0  0  0  0
  -25.1670  -31.0480   22.9850 C   0  0  0  0  0  0  0  0  0  0  0  0
  -27.9890  -26.6340   19.7840 C   0  0  0  0  0  0  0  0  0  0  0  0
  -24.0960  -29.7920   21.1530 C   0  0  0  0  0  3  0  0  0  0  0  0
  -25.6600  -28.3690   19.6890 C   0  0  0  0  0  0  0  0  0  0  0  0
  -26.6470  -30.1100   21.1710 C   0  0  0  0  0  2  0  0  0  0  0  0
  -26.7860  -28.7770   20.4150 C   0  0  0  0  0  0  0  0  0  0  0  0
  -27.9590  -27.9320   20.4370 C   0  0  0  0  0  3  0  0  0  0  0  0
  -26.8490  -26.3360   19.0100 C   0  0  0  0  0  3  0  0  0  0  0  0
  -25.7080  -27.1690   18.9620 C   0  0  0  0  0  3  0  0  0  0  0  0
  -24.4140  -29.2440   19.7350 C   0  0  0  0  0  2  0  0  0  0  0  0
  -25.3190  -30.3330   21.8280 N   0  0  0  0  0  0  0  0  0  0  0  0
  -24.0460  -31.2670   23.4700 O   0  0  0  0  0  0  0  0  0  0  0  0
  -23.3800  -28.6920   21.9790 C   0  0  0  0  0  0  0  0  0  0  0  0
  -22.0550  -28.5530   21.7980 N   0  0  0  0  0  0  0  0  0  0  0  0
  -24.0230  -27.9680   22.7440 O   0  0  0  0  0  0  0  0  0  0  0  0
  -21.5940  -29.1890   21.1630 H   0  0  0  0  0  0  0  0  0  0  0  0
  -18.6460  -27.3630   22.0940 C   0  0  0  0  0  0  0  0  0  0  0  0
  -21.2030  -27.5460   22.4370 C   0  0  0  0  0  3  0  0  0  0  0  0
  -21.2930  -26.1910   21.6970 C   0  0  0  0  0  2  0  0  0  0  0  0
  -20.2070  -26.0120   20.6320 C   0  0  0  0  0  2  0  0  0  0  0  0
  -18.8150  -26.1030   21.2630 C   0  0  0  0  0  2  0  0  0  0  0  0
  -19.7670  -28.0500   22.6320 C   0  0  0  0  0  0  0  0  0  0  0  0
  -19.5550  -29.2340   23.3710 C   0  0  0  0  0  3  0  0  0  0  0  0
  -18.2540  -29.7320   23.5740 C   0  0  0  0  0  3  0  0  0  0  0  0
  -17.1480  -29.0420   23.0500 C   0  0  0  0  0  3  0  0  0  0  0  0
  -17.3440  -27.8590   22.3160 C   0  0  0  0  0  3  0  0  0  0  0  0
  -26.3920  -31.6400   23.7460 C   0  0  0  0  0  3  0  0  0  0  0  0
  -26.0230  -32.9860   24.2120 N   0  0  0  0  0  0  0  0  0  0  0  0
  -26.3960  -34.1290   23.6190 C   0  0  0  0  0  0  0  0  0  0  0  0
  -27.1510  -34.1590   22.6450 O   0  0  0  0  0  0  0  0  0  0  0  0
  -25.3590  -33.0350   24.9700 H   0  0  0  0  0  0  0  0  0  0  0  0
  -24.6820  -35.9490   23.3300 C   0  0  0  0  0  1  0  0  0  0  0  0
  -25.8460  -35.4460   24.2000 C   0  0  0  0  0  3  0  0  0  0  0  0
  -27.8760  -36.2270   25.3390 C   0  0  0  0  0  1  0  0  0  0  0  0
  -26.8670  -36.5090   24.3210 N   0  0  0  0  0  0  0  0  0  0  0  0
  -26.4330  -37.4020   24.5430 H   0  0  0  0  0  0  0  0  0  0  0  0
  -26.8600  -30.7470   24.9610 C   0  0  1  0  0  0  0  0  0  0  0  0
  -25.7190  -30.3830   25.9410 C   0  0  0  0  0  1  0  0  0  0  0  0
  -27.4890  -29.4260   24.4640 C   0  0  0  0  0  1  0  0  0  0  0  0
  -27.9580  -31.4850   25.7610 C   0  0  0  0  0  1  0  0  0  0  0  0
  2  1  1  0
  3  4  2  0
  4  2  1  0
  4  6  1  0
  5 13  1  0
  5  8  1  0
  5  3  1  0
  6  9  1  0
  7 10  1  0
  7  6  1  0
 11 12  1  0
 12  8  1  0
 13 22  1  0
 14 20  1  0
 14 21  2  0
 15 20  1  0
 16 15  2  0
 17 16  1  0
 17 18  1  0
 18 19  1  0
 18 27  1  0
 22 14  1  0
 23 22  1  0
 24 25  2  0
 25 44  1  0
 25 26  1  0
 26 29  1  0
 27 24  1  0
 27 28  1  0
 28 26  2  0
 29 30  1  0
 30 31  2  0
 32 35  1  0
 32 31  1  0
 33 32  2  0
 34 33  1  0
 34 29  2  0
 35 36  1  0
 36 41  2  0
 36 37  1  0
 37 38  2  0
 38 39  1  0
 39 43  1  0
 40 39  2  0
 41 40  1  0
 42 41  1  0
 44 45  1  0
 45 48  1  0
 45 47  1  0
 46 44  2  0
 49 24  1  0
 50 49  1  0
 51 49  1  0
 52  2  1  0
 52 53  1  0
 54 52  1  0
 55 56  2  0
 55 52  1  0
 57 58  1  0
 57 56  1  0
 59 58  1  0
 60 71  2  0
 61 59  1  0
 61 66  1  0
 62 70  1  0
 62 72  1  0
 63 69  1  0
 63 65  1  0
 64 70  1  0
 65 66  2  0
 65 64  1  0
 67 61  2  0
 68 67  1  0
 68 63  2  0
 69 62  1  0
 70 60  1  0
 72 74  2  0
 73 72  1  0
 75 73  1  0
 76 85  2  0
 76 81  1  0
 77 73  1  0
 77 81  1  0
 78 77  1  0
 79 80  1  0
 79 78  1  0
 80 76  1  0
 81 82  2  0
 82 83  1  0
 84 83  2  0
 85 84  1  0
 86 60  1  0
 86 87  1  0
 86 96  1  0
 87 90  1  0
 88 92  1  0
 88 87  1  0
 89 88  2  0
 92 91  1  0
 92 94  1  0
 94 95  1  0
 94 93  1  0
 96 99  1  1
 96 97  1  0
 98 96  1  0
M  ISO  4  14 100  22 100  58 101  59 101
M  END
>  <TORSDO>  (88) 
F 24

>  <SCORE>  (88) 
1.674

>  <name>  (88) 
87

>  <ligand_id>  (88) 
87

>  <original_smiles>  (88) 
[H]c1c([H])c([H])c2c(c1[H])C([H])([H])C([H])([H])C([H])([H])C2([H])N([H])C(=O)C1([H])N(C(=O)C([H])(N([H])C(=O)C([H])(N([H])C([H])([H])[H])C([H])([H])[H])C(C([H])([H])[H])(C([H])([H])[H])C([H])([H])[H])C([H])([H])c2c([H])c(OC([H])([H])C([H])([H])C([H])([H])C([H])([H])[N+]([H])([H])C([H])(c3c([H])c(C([H])([H])N([H])C(=O)N4C([H])([H])C([H])([H])C([H])([H])C([H])(n5nc(-c6c([H])c([H])c(Oc7c([H])c([H])c(F)c([H])c7F)c([H])c6[H])c(C(=O)N([H])[H])c5N([H])[H])C4([H])[H])c(OC([H])([H])[H])c(C([H])([H])[H])c3C([H])([H])[H])C([H])([H])[H])c([H])c([H])c2C1([H])[H]

>  <smiles>  (88) 
[H]c1c([H])c([H])c2c(c1[H])C([H])([H])C([H])([H])C([H])([H])C2([H])N([H])C(=O)C1([H])N(C(=O)C([H])(N([H])C(=O)C([H])(N([H])C([H])([H])[H])C([H])([H])[H])C(C([H])([H])[H])(C([H])([H])[H])C([H])([H])[H])C([H])([H])c2c([H])c(OC([H])([H])C([H])([H])C([H])([H])C([H])([H])[N+]([H])([H])C([H])(c3c([H])c(C([H])([H])N([H])C(=O)N4C([H])([H])C([H])([H])C([H])([H])C([H])(n5nc(-c6c([H])c([H])c(Oc7c([H])c([H])c(F)c([H])c7F)c([H])c6[H])c(C(=O)N([H])[H])c5N([H])[H])C4([H])[H])c(OC([H])([H])[H])c(C([H])([H])[H])c3C([H])([H])[H])C([H])([H])[H])c([H])c([H])c2C1([H])[H]

$$$$
88:0:0
     RDKit          3D

 89 97  0  0  1  0  0  0  0  0999 V2000
  -29.9630  -20.2470   21.6310 C   0  0  0  0  0  3  0  0  0  0  0  0
  -29.8630  -21.5150   22.2690 C   0  0  0  0  0  3  0  0  0  0  0  0
  -29.5780  -20.0200   20.2950 C   0  0  0  0  0  0  0  0  0  0  0  0
  -28.8720  -22.7630   20.3490 C   0  0  0  0  0  0  0  0  0  0  0  0
  -29.3530  -22.7060   21.6800 C   0  0  0  0  0  0  0  0  0  0  0  0
  -29.0220  -21.3510   19.7000 C   0  0  0  0  0  0  0  0  0  0  0  0
  -29.3050  -24.1220   22.6700 Cl  0  0  0  0  0  0  0  0  0  0  0  0
  -28.4870  -21.2400   18.0640 Cl  0  0  0  0  0  0  0  0  0  0  0  0
  -29.9700  -18.4160   19.6420 C   0  0  0  0  0  2  0  0  0  0  0  0
  -30.6380  -15.5010   19.9090 C   0  0  0  0  0  0  0  0  0  0  0  0
  -30.5770  -13.0620   18.9510 C   0  0  0  0  0  2  0  0  0  0  0  0
  -29.5900  -12.8720   17.7680 C   0  0  0  0  0  2  0  0  0  0  0  0
  -28.1690  -12.5760   18.2760 C   0  0  0  0  0  2  0  0  0  0  0  0
  -27.7820  -13.4960   19.4580 C   0  0  0  0  0  3  0  0  0  0  0  0
  -28.8950  -13.5820   20.5250 C   0  0  0  0  0  2  0  0  0  0  0  0
  -30.0750  -14.1750   19.8570 N   0  0  0  0  0  0  0  0  0  0  0  0
  -31.8120  -15.4930   19.5000 O   0  0  0  0  0  0  0  0  0  0  0  0
  -28.9070  -16.7640   21.2220 C   0  0  0  0  0  1  0  0  0  0  0  0
  -29.9200  -16.8080   20.1750 N   0  0  0  0  0  0  0  0  0  0  0  0
  -25.4410  -14.0290   20.3230 C   0  0  0  0  0  0  0  0  0  0  0  0
  -24.4040  -13.2410   20.7360 C   0  0  0  0  0  0  0  0  0  0  0  0
  -24.8780  -11.8960   20.6640 C   0  0  0  0  0  0  0  0  0  0  0  0
  -26.4790  -13.1650   20.0230 N   0  0  0  0  0  0  0  0  0  0  0  0
  -26.1540  -11.8740   20.2940 N   0  0  0  0  0  0  0  0  0  0  0  0
  -24.1640  -10.6280   20.8690 C   0  0  0  0  0  0  0  0  0  0  0  0
  -24.5880   -9.6880   21.8350 C   0  0  0  0  0  3  0  0  0  0  0  0
  -23.8710   -8.4890   22.0280 C   0  0  0  0  0  3  0  0  0  0  0  0
  -22.7160   -8.2180   21.2570 C   0  0  0  0  0  0  0  0  0  0  0  0
  -22.3120   -9.1460   20.2810 C   0  0  0  0  0  3  0  0  0  0  0  0
  -23.0290  -10.3380   20.0860 C   0  0  0  0  0  3  0  0  0  0  0  0
  -21.9720   -7.0680   21.3590 O   0  0  0  0  0  0  0  0  0  0  0  0
  -21.8420   -6.3970   22.5490 C   0  0  0  0  0  0  0  0  0  0  0  0
  -21.2670   -7.0040   23.6860 C   0  0  0  0  0  3  0  0  0  0  0  0
  -21.0890   -6.2580   24.8690 C   0  0  0  0  0  3  0  0  0  0  0  0
  -21.4750   -4.9050   24.9130 C   0  0  0  0  0  0  0  0  0  0  0  0
  -22.0420   -4.2970   23.7790 C   0  0  0  0  0  3  0  0  0  0  0  0
  -22.2220   -5.0400   22.5990 C   0  0  0  0  0  0  0  0  0  0  0  0
  -22.7500   -4.4440   21.5030 F   0  0  0  0  0  0  0  0  0  0  0  0
  -21.2980   -4.1860   26.0450 F   0  0  0  0  0  0  0  0  0  0  0  0
  -23.0200  -13.7090   21.0760 C   0  0  0  0  0  0  0  0  0  0  0  0
  -22.3410  -13.0110   21.9780 N   0  0  0  0  0  0  0  0  0  0  0  0
  -22.5520  -14.7320   20.5760 O   0  0  0  0  0  0  0  0  0  0  0  0
  -22.7340  -12.1850   22.4040 H   0  0  0  0  0  0  0  0  0  0  0  0
  -21.4120  -13.3050   22.2460 H   0  0  0  0  0  0  0  0  0  0  0  0
  -25.5720  -15.4020   20.1440 N   0  0  0  0  0  0  0  0  0  0  0  0
  -24.7960  -16.0360   20.2990 H   0  0  0  0  0  0  0  0  0  0  0  0
  -26.3840  -15.8590   19.7530 H   0  0  0  0  0  0  0  0  0  0  0  0
  -28.1230  -24.2810   19.8230 C   0  0  0  0  0  2  0  0  0  0  0  0
  -28.2860  -25.8920   20.2420 O   0  0  0  0  0  0  0  0  0  0  0  0
  -24.6830  -31.8940   23.1650 C   0  0  0  0  0  0  0  0  0  0  0  0
  -27.2830  -27.0080   20.1460 C   0  0  0  0  0  0  0  0  0  0  0  0
  -23.5040  -30.4890   21.5250 C   0  0  0  0  0  3  0  0  0  0  0  0
  -24.9690  -28.8930   20.0990 C   0  0  0  0  0  0  0  0  0  0  0  0
  -26.0700  -30.7110   21.3840 C   0  0  0  0  0  2  0  0  0  0  0  0
  -26.1530  -29.2990   20.7250 C   0  0  0  0  0  0  0  0  0  0  0  0
  -27.2990  -28.3770   20.7270 C   0  0  0  0  0  3  0  0  0  0  0  0
  -26.0680  -26.7680   19.4630 C   0  0  0  0  0  3  0  0  0  0  0  0
  -24.9540  -27.6490   19.4470 C   0  0  0  0  0  3  0  0  0  0  0  0
  -23.7430  -29.8070   20.1480 C   0  0  0  0  0  2  0  0  0  0  0  0
  -24.7740  -31.0590   22.0780 N   0  0  0  0  0  0  0  0  0  0  0  0
  -23.5900  -32.1760   23.6830 O   0  0  0  0  0  0  0  0  0  0  0  0
  -22.8130  -29.4880   22.4900 C   0  0  0  0  0  0  0  0  0  0  0  0
  -21.4830  -29.3220   22.3700 N   0  0  0  0  0  0  0  0  0  0  0  0
  -23.4820  -28.8620   23.3160 O   0  0  0  0  0  0  0  0  0  0  0  0
  -20.9960  -29.8810   21.6820 H   0  0  0  0  0  0  0  0  0  0  0  0
  -18.1020  -28.1130   22.9010 C   0  0  0  0  0  0  0  0  0  0  0  0
  -20.6660  -28.3780   23.1410 C   0  0  0  0  0  3  0  0  0  0  0  0
  -20.7610  -26.9510   22.5540 C   0  0  0  0  0  2  0  0  0  0  0  0
  -19.6500  -26.6370   21.5470 C   0  0  0  0  0  2  0  0  0  0  0  0
  -18.2740  -26.7720   22.2060 C   0  0  0  0  0  2  0  0  0  0  0  0
  -19.2250  -28.8740   23.3260 C   0  0  0  0  0  0  0  0  0  0  0  0
  -19.0090  -30.1260   23.9410 C   0  0  0  0  0  3  0  0  0  0  0  0
  -17.7040  -30.6190   24.1330 C   0  0  0  0  0  3  0  0  0  0  0  0
  -16.5970  -29.8560   23.7220 C   0  0  0  0  0  3  0  0  0  0  0  0
  -16.7970  -28.6050   23.1130 C   0  0  0  0  0  3  0  0  0  0  0  0
  -25.9460  -32.5480   23.8020 C   0  0  0  0  0  3  0  0  0  0  0  0
  -25.6160  -33.9460   24.1350 N   0  0  0  0  0  0  0  0  0  0  0  0
  -25.9310  -35.0100   23.3850 C   0  0  0  0  0  0  0  0  0  0  0  0
  -26.5920  -34.9210   22.3470 O   0  0  0  0  0  0  0  0  0  0  0  0
  -25.0270  -34.0890   24.9420 H   0  0  0  0  0  0  0  0  0  0  0  0
  -24.1850  -36.7990   23.0660 C   0  0  0  0  0  1  0  0  0  0  0  0
  -25.4380  -36.3940   23.8590 C   0  0  0  0  0  3  0  0  0  0  0  0
  -27.5660  -37.3010   24.6840 C   0  0  0  0  0  1  0  0  0  0  0  0
  -26.4600  -37.4570   23.7430 N   0  0  0  0  0  0  0  0  0  0  0  0
  -26.0450  -38.3720   23.8920 H   0  0  0  0  0  0  0  0  0  0  0  0
  -26.4530  -31.7890   25.0920 C   0  0  1  0  0  0  0  0  0  0  0  0
  -25.3470  -31.5480   26.1460 C   0  0  0  0  0  1  0  0  0  0  0  0
  -27.0560  -30.4130   24.7230 C   0  0  0  0  0  1  0  0  0  0  0  0
  -27.5850  -32.6000   25.7640 C   0  0  0  0  0  1  0  0  0  0  0  0
  1  2  1  0
  3  1  2  0
  4  5  1  0
  5  2  2  0
  5  7  1  0
  6  3  1  0
  6  4  2  0
  8  6  1  0
  9 19  1  0
  9  3  1  0
 10 19  1  0
 11 16  1  0
 12 13  1  0
 12 11  1  0
 14 13  1  0
 14 23  1  0
 14 15  1  0
 16 10  1  0
 16 15  1  0
 17 10  2  0
 19 18  1  0
 20 21  2  0
 21 40  1  0
 22 21  1  0
 22 25  1  0
 23 24  1  0
 23 20  1  0
 24 22  2  0
 25 26  1  0
 26 27  2  0
 28 31  1  0
 28 27  1  0
 29 28  2  0
 30 29  1  0
 30 25  2  0
 31 32  1  0
 32 37  2  0
 32 33  1  0
 33 34  2  0
 34 35  1  0
 35 39  1  0
 36 35  2  0
 37 36  1  0
 38 37  1  0
 40 41  1  0
 41 44  1  0
 41 43  1  0
 42 40  2  0
 45 46  1  0
 45 20  1  0
 47 45  1  0
 48 49  1  0
 48  4  1  0
 50 61  2  0
 51 49  1  0
 51 56  1  0
 52 60  1  0
 52 62  1  0
 53 59  1  0
 53 55  1  0
 54 60  1  0
 55 56  2  0
 55 54  1  0
 57 51  2  0
 58 57  1  0
 58 53  2  0
 59 52  1  0
 60 50  1  0
 62 64  2  0
 63 62  1  0
 65 63  1  0
 66 75  2  0
 66 71  1  0
 67 63  1  0
 67 71  1  0
 68 67  1  0
 69 70  1  0
 69 68  1  0
 70 66  1  0
 71 72  2  0
 72 73  1  0
 74 73  2  0
 75 74  1  0
 76 50  1  0
 76 77  1  0
 76 86  1  0
 77 80  1  0
 78 82  1  0
 78 77  1  0
 79 78  2  0
 82 81  1  0
 84 82  1  0
 84 85  1  0
 84 83  1  0
 86 89  1  1
 86 87  1  0
 88 86  1  0
M  ISO  4  10 100  19 100  48 101  49 101
M  END
>  <TORSDO>  (89) 
F 18

>  <SCORE>  (89) 
-16.351

>  <name>  (89) 
88

>  <ligand_id>  (89) 
88

>  <original_smiles>  (89) 
[H]c1c([H])c([H])c2c(c1[H])C([H])([H])C([H])([H])C([H])([H])C2([H])N([H])C(=O)C1([H])N(C(=O)C([H])(N([H])C(=O)C([H])(N([H])C([H])([H])[H])C([H])([H])[H])C(C([H])([H])[H])(C([H])([H])[H])C([H])([H])[H])C([H])([H])c2c([H])c(OC([H])([H])c3c(Cl)c([H])c([H])c(C([H])([H])N(C(=O)N4C([H])([H])C([H])([H])C([H])([H])C([H])(n5nc(-c6c([H])c([H])c(Oc7c([H])c([H])c(F)c([H])c7F)c([H])c6[H])c(C(=O)N([H])[H])c5N([H])[H])C4([H])[H])C([H])([H])[H])c3Cl)c([H])c([H])c2C1([H])[H]

>  <smiles>  (89) 
[H]c1c([H])c([H])c2c(c1[H])C([H])([H])C([H])([H])C([H])([H])C2([H])N([H])C(=O)C1([H])N(C(=O)C([H])(N([H])C(=O)C([H])(N([H])C([H])([H])[H])C([H])([H])[H])C(C([H])([H])[H])(C([H])([H])[H])C([H])([H])[H])C([H])([H])c2c([H])c(OC([H])([H])c3c(Cl)c([H])c([H])c(C([H])([H])N(C(=O)N4C([H])([H])C([H])([H])C([H])([H])C([H])(n5nc(-c6c([H])c([H])c(Oc7c([H])c([H])c(F)c([H])c7F)c([H])c6[H])c(C(=O)N([H])[H])c5N([H])[H])C4([H])[H])C([H])([H])[H])c3Cl)c([H])c([H])c2C1([H])[H]

$$$$
89:0:0
     RDKit          3D

 92101  0  0  1  0  0  0  0  0999 V2000
  -29.5640  -20.3590   19.9660 C   0  0  0  0  0  0  0  0  0  0  0  0
  -28.7860  -21.5630   20.5400 C   0  0  0  0  0  0  0  0  0  0  0  0
  -28.7600  -22.8930   19.8980 C   0  0  0  0  0  0  0  0  0  0  0  0
  -30.0140  -21.1290   18.9040 C   0  0  0  0  0  0  0  0  0  0  0  0
  -29.5640  -22.5030   18.8020 N   0  0  0  0  0  0  0  0  0  0  0  0
  -27.9220  -21.3570   22.0200 Cl  0  0  0  0  0  0  0  0  0  0  0  0
  -31.1590  -20.4880   17.7850 Cl  0  0  0  0  0  0  0  0  0  0  0  0
  -29.8180  -24.3390   15.8290 C   0  0  0  0  0  2  0  0  0  0  0  0
  -30.4650  -23.0660   16.3740 C   0  0  0  0  0  2  0  0  0  0  0  0
  -28.8430  -24.2340   17.0020 C   0  0  0  0  0  2  0  0  0  0  0  0
  -29.9290  -23.4510   17.7690 C   0  0  0  0  0  3  0  0  0  0  0  0
  -30.1110  -18.6990   20.4510 C   0  0  0  0  0  2  0  0  0  0  0  0
  -30.6790  -15.7540   20.1190 C   0  0  0  0  0  0  0  0  0  0  0  0
  -30.7150  -13.2540   19.3410 C   0  0  0  0  0  2  0  0  0  0  0  0
  -29.7960  -12.8690   18.1530 C   0  0  0  0  0  2  0  0  0  0  0  0
  -28.3750  -12.5570   18.6480 C   0  0  0  0  0  2  0  0  0  0  0  0
  -27.8810  -13.6140   19.6620 C   0  0  0  0  0  3  0  0  0  0  0  0
  -28.9230  -13.9140   20.7610 C   0  0  0  0  0  2  0  0  0  0  0  0
  -30.1190  -14.4370   20.0750 N   0  0  0  0  0  0  0  0  0  0  0  0
  -31.9140  -15.7280   20.0020 O   0  0  0  0  0  0  0  0  0  0  0  0
  -29.9120  -17.0500   20.0930 N   0  0  0  0  0  0  0  0  0  0  0  0
  -28.9310  -16.8470   19.9810 H   0  0  0  0  0  0  0  0  0  0  0  0
  -25.5380  -14.1930   20.4820 C   0  0  0  0  0  0  0  0  0  0  0  0
  -24.4720  -13.4230   20.8540 C   0  0  0  0  0  0  0  0  0  0  0  0
  -24.9200  -12.0670   20.7880 C   0  0  0  0  0  0  0  0  0  0  0  0
  -26.5630  -13.3070   20.1990 N   0  0  0  0  0  0  0  0  0  0  0  0
  -26.2060  -12.0210   20.4540 N   0  0  0  0  0  0  0  0  0  0  0  0
  -24.1790  -10.8110   20.9600 C   0  0  0  0  0  0  0  0  0  0  0  0
  -24.5730   -9.8460   21.9120 C   0  0  0  0  0  3  0  0  0  0  0  0
  -23.8300   -8.6580   22.0760 C   0  0  0  0  0  3  0  0  0  0  0  0
  -22.6780   -8.4270   21.2850 C   0  0  0  0  0  0  0  0  0  0  0  0
  -22.3040   -9.3800   20.3220 C   0  0  0  0  0  3  0  0  0  0  0  0
  -23.0480  -10.5600   20.1580 C   0  0  0  0  0  3  0  0  0  0  0  0
  -21.9100   -7.2900   21.3560 O   0  0  0  0  0  0  0  0  0  0  0  0
  -21.7700   -6.5880   22.5270 C   0  0  0  0  0  0  0  0  0  0  0  0
  -21.1650   -7.1580   23.6700 C   0  0  0  0  0  3  0  0  0  0  0  0
  -20.9780   -6.3780   24.8290 C   0  0  0  0  0  3  0  0  0  0  0  0
  -21.3860   -5.0300   24.8450 C   0  0  0  0  0  0  0  0  0  0  0  0
  -21.9830   -4.4610   23.7060 C   0  0  0  0  0  3  0  0  0  0  0  0
  -22.1710   -5.2370   22.5510 C   0  0  0  0  0  0  0  0  0  0  0  0
  -22.7270   -4.6780   21.4480 F   0  0  0  0  0  0  0  0  0  0  0  0
  -21.2000   -4.2790   25.9550 F   0  0  0  0  0  0  0  0  0  0  0  0
  -23.0860  -13.9130   21.1530 C   0  0  0  0  0  0  0  0  0  0  0  0
  -22.3630  -13.2120   22.0180 N   0  0  0  0  0  0  0  0  0  0  0  0
  -22.6550  -14.9540   20.6560 O   0  0  0  0  0  0  0  0  0  0  0  0
  -22.7260  -12.3700   22.4400 H   0  0  0  0  0  0  0  0  0  0  0  0
  -21.4330  -13.5200   22.2630 H   0  0  0  0  0  0  0  0  0  0  0  0
  -25.7150  -15.5650   20.3270 N   0  0  0  0  0  0  0  0  0  0  0  0
  -24.9580  -16.2260   20.4640 H   0  0  0  0  0  0  0  0  0  0  0  0
  -26.5570  -15.9950   19.9680 H   0  0  0  0  0  0  0  0  0  0  0  0
  -27.8730  -24.4320   20.0710 C   0  0  0  0  0  2  0  0  0  0  0  0
  -28.2350  -26.0580   19.8970 O   0  0  0  0  0  0  0  0  0  0  0  0
  -24.6820  -31.9370   23.1980 C   0  0  0  0  0  0  0  0  0  0  0  0
  -27.2350  -27.1890   19.9260 C   0  0  0  0  0  0  0  0  0  0  0  0
  -23.4790  -30.6080   21.5130 C   0  0  0  0  0  3  0  0  0  0  0  0
  -24.9220  -29.0860   19.9930 C   0  0  0  0  0  0  0  0  0  0  0  0
  -26.0420  -30.8460   21.3360 C   0  0  0  0  0  2  0  0  0  0  0  0
  -26.1180  -29.4610   20.6190 C   0  0  0  0  0  0  0  0  0  0  0  0
  -27.2660  -28.5390   20.5590 C   0  0  0  0  0  3  0  0  0  0  0  0
  -26.0060  -26.9900   19.2520 C   0  0  0  0  0  3  0  0  0  0  0  0
  -24.8960  -27.8750   19.2840 C   0  0  0  0  0  3  0  0  0  0  0  0
  -23.6970  -29.9960   20.1000 C   0  0  0  0  0  2  0  0  0  0  0  0
  -24.7580  -31.1550   22.0720 N   0  0  0  0  0  0  0  0  0  0  0  0
  -23.5970  -32.1840   23.7510 O   0  0  0  0  0  0  0  0  0  0  0  0
  -22.8080  -29.5580   22.4410 C   0  0  0  0  0  0  0  0  0  0  0  0
  -21.4850  -29.3520   22.2970 N   0  0  0  0  0  0  0  0  0  0  0  0
  -23.4860  -28.9330   23.2600 O   0  0  0  0  0  0  0  0  0  0  0  0
  -20.9870  -29.9110   21.6190 H   0  0  0  0  0  0  0  0  0  0  0  0
  -18.1420  -28.0130   22.7470 C   0  0  0  0  0  0  0  0  0  0  0  0
  -20.6900  -28.3610   23.0330 C   0  0  0  0  0  3  0  0  0  0  0  0
  -20.8440  -26.9540   22.4100 C   0  0  0  0  0  2  0  0  0  0  0  0
  -19.7570  -26.6280   21.3810 C   0  0  0  0  0  2  0  0  0  0  0  0
  -18.3670  -26.6990   22.0190 C   0  0  0  0  0  2  0  0  0  0  0  0
  -19.2300  -28.8010   23.2080 C   0  0  0  0  0  0  0  0  0  0  0  0
  -18.9590  -30.0290   23.8490 C   0  0  0  0  0  3  0  0  0  0  0  0
  -17.6360  -30.4730   24.0310 C   0  0  0  0  0  3  0  0  0  0  0  0
  -16.5630  -29.6830   23.5840 C   0  0  0  0  0  3  0  0  0  0  0  0
  -16.8170  -28.4550   22.9480 C   0  0  0  0  0  3  0  0  0  0  0  0
  -25.9530  -32.5690   23.8410 C   0  0  0  0  0  3  0  0  0  0  0  0
  -26.4530  -31.7830   25.1150 C   0  0  1  0  0  0  0  0  0  0  0  0
  -25.3500  -31.5380   26.1730 C   0  0  0  0  0  1  0  0  0  0  0  0
  -27.0350  -30.4080   24.7180 C   0  0  0  0  0  1  0  0  0  0  0  0
  -27.5960  -32.5670   25.8000 C   0  0  0  0  0  1  0  0  0  0  0  0
  -25.6370  -33.9620   24.2030 N   0  0  0  0  0  0  0  0  0  0  0  0
  -25.9370  -35.0370   23.4620 C   0  0  0  0  0  0  0  0  0  0  0  0
  -26.5720  -34.9610   22.4070 O   0  0  0  0  0  0  0  0  0  0  0  0
  -25.0740  -34.0950   25.0290 H   0  0  0  0  0  0  0  0  0  0  0  0
  -24.1890  -36.8330   23.2080 C   0  0  0  0  0  1  0  0  0  0  0  0
  -25.4590  -36.4130   23.9680 C   0  0  0  0  0  3  0  0  0  0  0  0
  -27.6070  -37.3040   24.7600 C   0  0  0  0  0  1  0  0  0  0  0  0
  -26.4780  -37.4780   23.8470 N   0  0  0  0  0  0  0  0  0  0  0  0
  -26.0670  -38.3930   24.0190 H   0  0  0  0  0  0  0  0  0  0  0  0
  1 12  1  0
  1  2  1  0
  2  6  1  0
  3 51  1  0
  3  2  2  0
  4  1  2  0
  5  4  1  0
  5  3  1  0
  7  4  1  0
  8  9  1  0
  8 10  1  0
  9 11  1  0
 10 11  1  0
 11  5  1  0
 14 19  1  0
 15 16  1  0
 15 14  1  0
 17 16  1  0
 17 26  1  0
 17 18  1  0
 19 13  1  0
 19 18  1  0
 20 13  2  0
 21 13  1  0
 21 12  1  0
 22 21  1  0
 23 24  2  0
 24 43  1  0
 25 24  1  0
 25 28  1  0
 26 27  1  0
 26 23  1  0
 27 25  2  0
 28 29  1  0
 29 30  2  0
 31 34  1  0
 31 30  1  0
 32 31  2  0
 33 32  1  0
 33 28  2  0
 34 35  1  0
 35 40  2  0
 35 36  1  0
 36 37  2  0
 37 38  1  0
 38 42  1  0
 39 38  2  0
 40 39  1  0
 41 40  1  0
 43 44  1  0
 44 47  1  0
 44 46  1  0
 45 43  2  0
 48 49  1  0
 48 23  1  0
 50 48  1  0
 52 54  1  0
 52 51  1  0
 53 64  2  0
 54 59  1  0
 55 63  1  0
 55 65  1  0
 56 62  1  0
 56 58  1  0
 57 63  1  0
 58 57  1  0
 59 58  2  0
 60 61  1  0
 60 54  2  0
 61 56  2  0
 62 55  1  0
 63 53  1  0
 65 67  2  0
 66 65  1  0
 68 66  1  0
 69 78  2  0
 69 74  1  0
 70 66  1  0
 70 74  1  0
 71 70  1  0
 72 73  1  0
 72 71  1  0
 73 69  1  0
 74 75  2  0
 75 76  1  0
 77 76  2  0
 78 77  1  0
 79 53  1  0
 79 84  1  0
 79 80  1  0
 80 83  1  1
 80 81  1  0
 82 80  1  0
 84 87  1  0
 85 89  1  0
 85 84  1  0
 86 85  2  0
 89 88  1  0
 91 89  1  0
 91 92  1  0
 91 90  1  0
M  ISO  4  13 100  21 100  51 101  52 101
M  END
>  <TORSDO>  (90) 
F 19

>  <SCORE>  (90) 
-15.225

>  <name>  (90) 
89

>  <ligand_id>  (90) 
89

>  <original_smiles>  (90) 
[H]c1c([H])c([H])c2c(c1[H])C([H])([H])C([H])([H])C([H])([H])C2([H])N([H])C(=O)C1([H])N(C(=O)C([H])(N([H])C(=O)C([H])(N([H])C([H])([H])[H])C([H])([H])[H])C(C([H])([H])[H])(C([H])([H])[H])C([H])([H])[H])C([H])([H])c2c([H])c(OC([H])([H])c3c(Cl)c(C([H])([H])N([H])C(=O)N4C([H])([H])C([H])([H])C([H])([H])C([H])(n5nc(-c6c([H])c([H])c(Oc7c([H])c([H])c(F)c([H])c7F)c([H])c6[H])c(C(=O)N([H])[H])c5N([H])[H])C4([H])[H])c(Cl)n3C3([H])C([H])([H])C([H])([H])C3([H])[H])c([H])c([H])c2C1([H])[H]

>  <smiles>  (90) 
[H]c1c([H])c([H])c2c(c1[H])C([H])([H])C([H])([H])C([H])([H])C2([H])N([H])C(=O)C1([H])N(C(=O)C([H])(N([H])C(=O)C([H])(N([H])C([H])([H])[H])C([H])([H])[H])C(C([H])([H])[H])(C([H])([H])[H])C([H])([H])[H])C([H])([H])c2c([H])c(OC([H])([H])c3c(Cl)c(C([H])([H])N([H])C(=O)N4C([H])([H])C([H])([H])C([H])([H])C([H])(n5nc(-c6c([H])c([H])c(Oc7c([H])c([H])c(F)c([H])c7F)c([H])c6[H])c(C(=O)N([H])[H])c5N([H])[H])C4([H])[H])c(Cl)n3C3([H])C([H])([H])C([H])([H])C3([H])[H])c([H])c([H])c2C1([H])[H]

$$$$
90:0:0
     RDKit          3D

 89 97  0  0  1  0  0  0  0  0999 V2000
  -30.2000  -15.8520   20.3050 C   0  0  0  0  0  0  0  0  0  0  0  0
  -30.3790  -13.2630   19.5250 C   0  0  0  0  0  2  0  0  0  0  0  0
  -29.5260  -12.7470   18.3260 C   0  0  0  0  0  2  0  0  0  0  0  0
  -28.1180  -12.3440   18.7810 C   0  0  0  0  0  2  0  0  0  0  0  0
  -27.5510  -13.3740   19.7820 C   0  0  0  0  0  3  0  0  0  0  0  0
  -28.5510  -13.7810   20.8940 C   0  0  0  0  0  2  0  0  0  0  0  0
  -29.7020  -14.4550   20.2370 N   0  0  0  0  0  0  0  0  0  0  0  0
  -31.4400  -15.7500   20.1730 O   0  0  0  0  0  0  0  0  0  0  0  0
  -30.3780  -21.9030   20.0290 C   0  0  0  0  0  0  0  0  0  0  0  0
  -28.9670  -21.8590   20.2410 C   0  0  0  0  0  0  0  0  0  0  0  0
  -29.5380  -19.0130   20.2720 C   0  0  0  0  0  0  0  0  0  0  0  0
  -30.8580  -19.4870   20.0480 C   0  0  0  0  0  0  0  0  0  0  0  0
  -31.0970  -23.2300   19.8690 C   0  0  0  0  0  1  0  0  0  0  0  0
  -28.6440  -20.3160   20.3460 N   0  0  0  0  0  0  0  0  0  0  0  0
  -31.2190  -20.8140   19.9450 N   0  0  0  0  0  0  0  0  0  0  0  0
  -29.4220  -17.2460   20.3470 N   0  0  0  0  0  0  0  0  0  0  0  0
  -28.4480  -17.0010   20.4360 H   0  0  0  0  0  0  0  0  0  0  0  0
  -25.1800  -13.8760   20.5240 C   0  0  0  0  0  0  0  0  0  0  0  0
  -24.1250  -13.0840   20.8800 C   0  0  0  0  0  0  0  0  0  0  0  0
  -24.6110  -11.7400   20.8580 C   0  0  0  0  0  0  0  0  0  0  0  0
  -26.2370  -13.0170   20.2940 N   0  0  0  0  0  0  0  0  0  0  0  0
  -25.9090  -11.7250   20.5630 N   0  0  0  0  0  0  0  0  0  0  0  0
  -23.8930  -10.4710   21.0390 C   0  0  0  0  0  0  0  0  0  0  0  0
  -24.3120   -9.5140   21.9900 C   0  0  0  0  0  3  0  0  0  0  0  0
  -23.5910   -8.3120   22.1600 C   0  0  0  0  0  3  0  0  0  0  0  0
  -22.4400   -8.0570   21.3800 C   0  0  0  0  0  0  0  0  0  0  0  0
  -22.0400   -9.0020   20.4190 C   0  0  0  0  0  3  0  0  0  0  0  0
  -22.7610  -10.1950   20.2470 C   0  0  0  0  0  3  0  0  0  0  0  0
  -21.6910   -6.9060   21.4600 O   0  0  0  0  0  0  0  0  0  0  0  0
  -21.6070   -6.1810   22.6220 C   0  0  0  0  0  0  0  0  0  0  0  0
  -21.1240   -6.7500   23.8210 C   0  0  0  0  0  3  0  0  0  0  0  0
  -20.9860   -5.9500   24.9740 C   0  0  0  0  0  3  0  0  0  0  0  0
  -21.3250   -4.5840   24.9290 C   0  0  0  0  0  0  0  0  0  0  0  0
  -21.8030   -4.0150   23.7350 C   0  0  0  0  0  3  0  0  0  0  0  0
  -21.9400   -4.8120   22.5850 C   0  0  0  0  0  0  0  0  0  0  0  0
  -22.3800   -4.2540   21.4310 F   0  0  0  0  0  0  0  0  0  0  0  0
  -21.1860   -3.8150   26.0340 F   0  0  0  0  0  0  0  0  0  0  0  0
  -22.7180  -13.5470   21.1210 C   0  0  0  0  0  0  0  0  0  0  0  0
  -21.9830  -12.8570   21.9850 N   0  0  0  0  0  0  0  0  0  0  0  0
  -22.2790  -14.5600   20.5760 O   0  0  0  0  0  0  0  0  0  0  0  0
  -22.3480  -12.0430   22.4550 H   0  0  0  0  0  0  0  0  0  0  0  0
  -21.0390  -13.1560   22.1870 H   0  0  0  0  0  0  0  0  0  0  0  0
  -25.3250  -15.2480   20.3350 N   0  0  0  0  0  0  0  0  0  0  0  0
  -24.5440  -15.8900   20.4150 H   0  0  0  0  0  0  0  0  0  0  0  0
  -26.1550  -15.6780   19.9500 H   0  0  0  0  0  0  0  0  0  0  0  0
  -33.1500  -18.9800   19.4700 C   0  0  0  0  0  1  0  0  0  0  0  0
  -31.8660  -18.5550   19.9170 O   0  0  0  0  0  0  0  0  0  0  0  0
  -28.0280  -23.5570   20.2620 C   0  0  0  0  0  2  0  0  0  0  0  0
  -28.1430  -25.3820   20.3260 O   0  0  0  0  0  0  0  0  0  0  0  0
  -24.6550  -31.8530   23.2090 C   0  0  0  0  0  0  0  0  0  0  0  0
  -27.1720  -26.6410   20.2770 C   0  0  0  0  0  0  0  0  0  0  0  0
  -23.4700  -30.4380   21.5860 C   0  0  0  0  0  3  0  0  0  0  0  0
  -24.9160  -28.7510   20.1990 C   0  0  0  0  0  0  0  0  0  0  0  0
  -26.0560  -30.5360   21.4860 C   0  0  0  0  0  2  0  0  0  0  0  0
  -26.1150  -29.0880   20.8370 C   0  0  0  0  0  0  0  0  0  0  0  0
  -27.2210  -28.0670   20.8380 C   0  0  0  0  0  3  0  0  0  0  0  0
  -25.9350  -26.5430   19.5820 C   0  0  0  0  0  3  0  0  0  0  0  0
  -24.8710  -27.5040   19.5480 C   0  0  0  0  0  3  0  0  0  0  0  0
  -23.7160  -29.7190   20.2270 C   0  0  0  0  0  2  0  0  0  0  0  0
  -24.7520  -30.9800   22.1440 N   0  0  0  0  0  0  0  0  0  0  0  0
  -23.5600  -32.1690   23.7080 O   0  0  0  0  0  0  0  0  0  0  0  0
  -22.7390  -29.4830   22.5690 C   0  0  0  0  0  0  0  0  0  0  0  0
  -21.4060  -29.3380   22.4440 N   0  0  0  0  0  0  0  0  0  0  0  0
  -23.3870  -28.8690   23.4210 O   0  0  0  0  0  0  0  0  0  0  0  0
  -20.9320  -29.8800   21.7340 H   0  0  0  0  0  0  0  0  0  0  0  0
  -18.0110  -28.1440   22.9650 C   0  0  0  0  0  0  0  0  0  0  0  0
  -20.5710  -28.4170   23.2260 C   0  0  0  0  0  3  0  0  0  0  0  0
  -20.6710  -26.9750   22.6730 C   0  0  0  0  0  2  0  0  0  0  0  0
  -19.5720  -26.6400   21.6590 C   0  0  0  0  0  2  0  0  0  0  0  0
  -18.1880  -26.7900   22.2990 C   0  0  0  0  0  2  0  0  0  0  0  0
  -19.1280  -28.9140   23.3850 C   0  0  0  0  0  0  0  0  0  0  0  0
  -18.9030  -30.1760   23.9760 C   0  0  0  0  0  3  0  0  0  0  0  0
  -17.5960  -30.6710   24.1460 C   0  0  0  0  0  3  0  0  0  0  0  0
  -16.4930  -29.8990   23.7400 C   0  0  0  0  0  3  0  0  0  0  0  0
  -16.7020  -28.6370   23.1550 C   0  0  0  0  0  3  0  0  0  0  0  0
  -25.9150  -32.5120   23.8490 C   0  0  0  0  0  3  0  0  0  0  0  0
  -25.5880  -33.9140   24.1800 N   0  0  0  0  0  0  0  0  0  0  0  0
  -25.9140  -34.9820   23.4390 C   0  0  0  0  0  0  0  0  0  0  0  0
  -26.5750  -34.8910   22.4020 O   0  0  0  0  0  0  0  0  0  0  0  0
  -24.9930  -34.0560   24.9820 H   0  0  0  0  0  0  0  0  0  0  0  0
  -24.1760  -36.7840   23.1450 C   0  0  0  0  0  1  0  0  0  0  0  0
  -25.4360  -36.3690   23.9210 C   0  0  0  0  0  3  0  0  0  0  0  0
  -27.5840  -37.2630   24.7100 C   0  0  0  0  0  1  0  0  0  0  0  0
  -26.4630  -37.4270   23.7900 N   0  0  0  0  0  0  0  0  0  0  0  0
  -26.0560  -38.3460   23.9470 H   0  0  0  0  0  0  0  0  0  0  0  0
  -26.4100  -31.7620   25.1500 C   0  0  1  0  0  0  0  0  0  0  0  0
  -25.3000  -31.5540   26.2090 C   0  0  0  0  0  1  0  0  0  0  0  0
  -26.9900  -30.3710   24.8090 C   0  0  0  0  0  1  0  0  0  0  0  0
  -27.5570  -32.5620   25.8100 C   0  0  0  0  0  1  0  0  0  0  0  0
  1 16  1  0
  2  7  1  0
  3  4  1  0
  3  2  1  0
  5  4  1  0
  5 21  1  0
  5  6  1  0
  7  1  1  0
  7  6  1  0
  8  1  2  0
  9 10  2  0
 10 48  1  0
 10 14  1  0
 11 14  2  0
 11 16  1  0
 12 11  1  0
 13  9  1  0
 15  9  1  0
 15 12  2  0
 16 17  1  0
 18 19  2  0
 19 38  1  0
 20 19  1  0
 20 23  1  0
 21 18  1  0
 21 22  1  0
 22 20  2  0
 23 24  1  0
 24 25  2  0
 26 29  1  0
 26 25  1  0
 27 26  2  0
 28 27  1  0
 28 23  2  0
 29 30  1  0
 30 31  1  0
 31 32  2  0
 33 32  1  0
 33 37  1  0
 34 33  2  0
 35 30  2  0
 35 34  1  0
 36 35  1  0
 38 39  1  0
 39 42  1  0
 39 41  1  0
 40 38  2  0
 43 44  1  0
 43 18  1  0
 45 43  1  0
 46 47  1  0
 47 12  1  0
 48 49  1  0
 50 61  2  0
 51 49  1  0
 51 56  1  0
 52 60  1  0
 52 62  1  0
 53 59  1  0
 53 55  1  0
 54 60  1  0
 55 56  2  0
 55 54  1  0
 57 51  2  0
 58 57  1  0
 58 53  2  0
 59 52  1  0
 60 50  1  0
 62 64  2  0
 63 62  1  0
 65 63  1  0
 66 75  2  0
 66 71  1  0
 67 63  1  0
 67 71  1  0
 68 67  1  0
 69 70  1  0
 69 68  1  0
 70 66  1  0
 71 72  2  0
 72 73  1  0
 74 73  2  0
 75 74  1  0
 76 50  1  0
 76 77  1  0
 76 86  1  0
 77 80  1  0
 78 82  1  0
 78 77  1  0
 79 78  2  0
 82 81  1  0
 84 82  1  0
 84 85  1  0
 84 83  1  0
 86 89  1  1
 86 87  1  0
 88 86  1  0
M  ISO  4   1 100  16 100  48 101  49 101
M  END
>  <TORSDO>  (91) 
F 17

>  <SCORE>  (91) 
-16.066

>  <name>  (91) 
90

>  <ligand_id>  (91) 
90

>  <original_smiles>  (91) 
[H]c1c([H])c([H])c2c(c1[H])C([H])([H])C([H])([H])C([H])([H])C2([H])N([H])C(=O)C1([H])N(C(=O)C([H])(N([H])C(=O)C([H])(N([H])C([H])([H])[H])C([H])([H])[H])C(C([H])([H])[H])(C([H])([H])[H])C([H])([H])[H])C([H])([H])c2c([H])c(OC([H])([H])c3nc(N([H])C(=O)N4C([H])([H])C([H])([H])C([H])([H])C([H])(n5nc(-c6c([H])c([H])c(Oc7c([H])c([H])c(F)c([H])c7F)c([H])c6[H])c(C(=O)N([H])[H])c5N([H])[H])C4([H])[H])c(OC([H])([H])[H])nc3C([H])([H])[H])c([H])c([H])c2C1([H])[H]

>  <smiles>  (91) 
[H]c1c([H])c([H])c2c(c1[H])C([H])([H])C([H])([H])C([H])([H])C2([H])N([H])C(=O)C1([H])N(C(=O)C([H])(N([H])C(=O)C([H])(N([H])C([H])([H])[H])C([H])([H])[H])C(C([H])([H])[H])(C([H])([H])[H])C([H])([H])[H])C([H])([H])c2c([H])c(OC([H])([H])c3nc(N([H])C(=O)N4C([H])([H])C([H])([H])C([H])([H])C([H])(n5nc(-c6c([H])c([H])c(Oc7c([H])c([H])c(F)c([H])c7F)c([H])c6[H])c(C(=O)N([H])[H])c5N([H])[H])C4([H])[H])c(OC([H])([H])[H])nc3C([H])([H])[H])c([H])c([H])c2C1([H])[H]

$$$$
91:0:0
     RDKit          3D

 90 98  0  0  1  0  0  0  0  0999 V2000
  -30.5580  -20.5740   20.2110 C   0  0  0  0  0  3  0  0  0  0  0  0
  -29.3430  -21.3460   19.9660 C   0  0  0  0  0  0  0  0  0  0  0  0
  -28.3000  -20.3550   19.7680 C   0  0  0  0  0  0  0  0  0  0  0  0
  -28.4860  -18.8670   19.7830 C   0  0  0  0  0  0  0  0  0  0  0  0
  -29.7130  -18.1070   20.0610 C   0  0  0  0  0  0  0  0  0  0  0  0
  -30.7480  -19.1050   20.2670 C   0  0  0  0  0  0  0  0  0  0  0  0
  -26.9000  -20.9180   19.5630 C   0  0  0  0  0  1  0  0  0  0  0  0
  -27.2800  -17.9960   19.4690 C   0  0  0  0  0  1  0  0  0  0  0  0
  -32.3410  -18.5520   20.6320 Cl  0  0  0  0  0  0  0  0  0  0  0  0
  -30.5700  -15.2930   19.9760 C   0  0  0  0  0  0  0  0  0  0  0  0
  -30.4980  -12.8590   19.1030 C   0  0  0  0  0  2  0  0  0  0  0  0
  -29.5250  -12.6940   17.9080 C   0  0  0  0  0  2  0  0  0  0  0  0
  -28.0870  -12.4470   18.4000 C   0  0  0  0  0  2  0  0  0  0  0  0
  -27.6940  -13.4040   19.5530 C   0  0  0  0  0  3  0  0  0  0  0  0
  -28.7890  -13.5130   20.6360 C   0  0  0  0  0  2  0  0  0  0  0  0
  -30.0100  -13.9900   19.9640 N   0  0  0  0  0  0  0  0  0  0  0  0
  -31.7710  -15.3220   19.6800 O   0  0  0  0  0  0  0  0  0  0  0  0
  -29.7410  -16.4960   20.1280 N   0  0  0  0  0  0  0  0  0  0  0  0
  -28.8110  -16.1610   20.3210 H   0  0  0  0  0  0  0  0  0  0  0  0
  -25.3530  -13.9760   20.4030 C   0  0  0  0  0  0  0  0  0  0  0  0
  -24.3020  -13.2090   20.8130 C   0  0  0  0  0  0  0  0  0  0  0  0
  -24.7530  -11.8550   20.7460 C   0  0  0  0  0  0  0  0  0  0  0  0
  -26.3800  -13.0970   20.1090 N   0  0  0  0  0  0  0  0  0  0  0  0
  -26.0320  -11.8120   20.3820 N   0  0  0  0  0  0  0  0  0  0  0  0
  -24.0190  -10.6010   20.9470 C   0  0  0  0  0  0  0  0  0  0  0  0
  -24.4570   -9.6300   21.8730 C   0  0  0  0  0  3  0  0  0  0  0  0
  -23.7200   -8.4420   22.0660 C   0  0  0  0  0  3  0  0  0  0  0  0
  -22.5310   -8.2170   21.3320 C   0  0  0  0  0  0  0  0  0  0  0  0
  -22.1120   -9.1770   20.3950 C   0  0  0  0  0  3  0  0  0  0  0  0
  -22.8490  -10.3570   20.1990 C   0  0  0  0  0  3  0  0  0  0  0  0
  -21.7650   -7.0810   21.4340 O   0  0  0  0  0  0  0  0  0  0  0  0
  -21.7130   -6.3510   22.5950 C   0  0  0  0  0  0  0  0  0  0  0  0
  -21.2700   -6.9150   23.8100 C   0  0  0  0  0  3  0  0  0  0  0  0
  -21.1650   -6.1120   24.9640 C   0  0  0  0  0  3  0  0  0  0  0  0
  -21.4940   -4.7440   24.9010 C   0  0  0  0  0  0  0  0  0  0  0  0
  -21.9300   -4.1790   23.6900 C   0  0  0  0  0  3  0  0  0  0  0  0
  -22.0360   -4.9800   22.5390 C   0  0  0  0  0  0  0  0  0  0  0  0
  -22.4370   -4.4260   21.3700 F   0  0  0  0  0  0  0  0  0  0  0  0
  -21.3850   -3.9700   26.0060 F   0  0  0  0  0  0  0  0  0  0  0  0
  -22.9220  -13.7010   21.1400 C   0  0  0  0  0  0  0  0  0  0  0  0
  -22.2190  -13.0060   22.0260 N   0  0  0  0  0  0  0  0  0  0  0  0
  -22.4790  -14.7370   20.6460 O   0  0  0  0  0  0  0  0  0  0  0  0
  -22.5910  -12.1690   22.4480 H   0  0  0  0  0  0  0  0  0  0  0  0
  -21.2940  -13.3170   22.2880 H   0  0  0  0  0  0  0  0  0  0  0  0
  -25.5070  -15.3430   20.2220 N   0  0  0  0  0  0  0  0  0  0  0  0
  -24.7170  -15.9720   20.3260 H   0  0  0  0  0  0  0  0  0  0  0  0
  -26.2790  -15.7560   19.7230 H   0  0  0  0  0  0  0  0  0  0  0  0
  -29.2910  -23.0810   20.0920 C   0  0  0  0  0  3  0  0  0  0  0  0
  -28.2320  -24.4280   19.6370 C   0  0  0  0  0  3  0  0  0  0  0  0
  -28.3720  -26.0310   19.8880 O   0  0  0  0  0  0  0  0  0  0  0  0
  -24.5660  -31.6800   23.0230 C   0  0  0  0  0  0  0  0  0  0  0  0
  -27.3020  -27.0500   19.8490 C   0  0  0  0  0  0  0  0  0  0  0  0
  -23.4230  -30.3080   21.3270 C   0  0  0  0  0  3  0  0  0  0  0  0
  -24.9290  -28.8090   19.8550 C   0  0  0  0  0  0  0  0  0  0  0  0
  -25.9760  -30.6240   21.1960 C   0  0  0  0  0  2  0  0  0  0  0  0
  -26.0970  -29.2460   20.4930 C   0  0  0  0  0  0  0  0  0  0  0  0
  -27.2770  -28.3880   20.4640 C   0  0  0  0  0  3  0  0  0  0  0  0
  -26.0990  -26.7450   19.1740 C   0  0  0  0  0  3  0  0  0  0  0  0
  -24.9510  -27.5790   19.1760 C   0  0  0  0  0  3  0  0  0  0  0  0
  -23.6790  -29.6820   19.9270 C   0  0  0  0  0  2  0  0  0  0  0  0
  -24.6750  -30.8950   21.9040 N   0  0  0  0  0  0  0  0  0  0  0  0
  -23.4680  -31.9140   23.5510 O   0  0  0  0  0  0  0  0  0  0  0  0
  -22.7600  -29.2550   22.2520 C   0  0  0  0  0  0  0  0  0  0  0  0
  -21.4290  -29.0850   22.1440 N   0  0  0  0  0  0  0  0  0  0  0  0
  -23.4470  -28.5930   23.0340 O   0  0  0  0  0  0  0  0  0  0  0  0
  -20.9280  -29.6740   21.4940 H   0  0  0  0  0  0  0  0  0  0  0  0
  -18.0580  -27.8690   22.7030 C   0  0  0  0  0  0  0  0  0  0  0  0
  -20.6280  -28.1020   22.8810 C   0  0  0  0  0  3  0  0  0  0  0  0
  -20.6930  -26.7120   22.2060 C   0  0  0  0  0  2  0  0  0  0  0  0
  -19.5480  -26.4670   21.2170 C   0  0  0  0  0  2  0  0  0  0  0  0
  -18.1960  -26.5710   21.9260 C   0  0  0  0  0  2  0  0  0  0  0  0
  -19.1990  -28.5950   23.1390 C   0  0  0  0  0  0  0  0  0  0  0  0
  -19.0120  -29.8100   23.8320 C   0  0  0  0  0  3  0  0  0  0  0  0
  -17.7180  -30.3010   24.0910 C   0  0  0  0  0  3  0  0  0  0  0  0
  -16.5930  -29.5720   23.6700 C   0  0  0  0  0  3  0  0  0  0  0  0
  -16.7630  -28.3570   22.9810 C   0  0  0  0  0  3  0  0  0  0  0  0
  -25.8160  -32.3370   23.6850 C   0  0  0  0  0  3  0  0  0  0  0  0
  -25.4640  -33.7220   24.0430 N   0  0  0  0  0  0  0  0  0  0  0  0
  -25.7660  -34.8040   23.3130 C   0  0  0  0  0  0  0  0  0  0  0  0
  -26.4350  -34.7430   22.2770 O   0  0  0  0  0  0  0  0  0  0  0  0
  -24.8670  -33.8410   24.8480 H   0  0  0  0  0  0  0  0  0  0  0  0
  -23.9810  -36.5590   23.0270 C   0  0  0  0  0  1  0  0  0  0  0  0
  -25.2470  -36.1710   23.8070 C   0  0  0  0  0  3  0  0  0  0  0  0
  -27.3640  -37.1110   24.6270 C   0  0  0  0  0  1  0  0  0  0  0  0
  -26.2470  -37.2560   23.6980 N   0  0  0  0  0  0  0  0  0  0  0  0
  -25.8140  -38.1610   23.8600 H   0  0  0  0  0  0  0  0  0  0  0  0
  -26.3220  -31.5580   24.9620 C   0  0  1  0  0  0  0  0  0  0  0  0
  -25.2140  -31.2830   26.0050 C   0  0  0  0  0  1  0  0  0  0  0  0
  -26.9410  -30.1970   24.5680 C   0  0  0  0  0  1  0  0  0  0  0  0
  -27.4420  -32.3660   25.6580 C   0  0  0  0  0  1  0  0  0  0  0  0
  1  6  1  0
  2 48  1  0
  2  1  2  0
  3  4  2  0
  3  2  1  0
  4  5  1  0
  5 18  1  0
  5  6  2  0
  6  9  1  0
  7  3  1  0
  8  4  1  0
 10 18  1  0
 11 16  1  0
 12 13  1  0
 12 11  1  0
 14 13  1  0
 14 23  1  0
 14 15  1  0
 16 10  1  0
 16 15  1  0
 17 10  2  0
 18 19  1  0
 20 21  2  0
 21 40  1  0
 22 21  1  0
 22 25  1  0
 23 24  1  0
 23 20  1  0
 24 22  2  0
 25 26  1  0
 26 27  2  0
 28 31  1  0
 28 27  1  0
 29 28  2  0
 30 29  1  0
 30 25  2  0
 31 32  1  0
 32 33  1  0
 33 34  2  0
 35 34  1  0
 35 39  1  0
 36 35  2  0
 37 32  2  0
 37 36  1  0
 38 37  1  0
 40 41  1  0
 41 44  1  0
 41 43  1  0
 42 40  2  0
 45 46  1  0
 45 20  1  0
 47 45  1  0
 49 50  1  0
 49 48  2  0
 51 62  2  0
 52 50  1  0
 52 57  1  0
 53 61  1  0
 53 63  1  0
 54 60  1  0
 54 56  1  0
 55 61  1  0
 56 55  1  0
 57 56  2  0
 58 59  1  0
 58 52  2  0
 59 54  2  0
 60 53  1  0
 61 51  1  0
 63 65  2  0
 64 63  1  0
 66 64  1  0
 67 76  2  0
 67 72  1  0
 68 64  1  0
 68 72  1  0
 69 68  1  0
 70 71  1  0
 70 69  1  0
 71 67  1  0
 72 73  2  0
 73 74  1  0
 75 74  2  0
 76 75  1  0
 77 51  1  0
 77 78  1  0
 77 87  1  0
 78 81  1  0
 79 83  1  0
 79 78  1  0
 80 79  2  0
 83 82  1  0
 85 83  1  0
 85 86  1  0
 85 84  1  0
 87 90  1  1
 87 88  1  0
 89 87  1  0
M  ISO  4  10 100  18 100  49 101  50 101
M  END
>  <TORSDO>  (92) 
F 18

>  <SCORE>  (92) 
-15.360

>  <name>  (92) 
91

>  <ligand_id>  (92) 
91

>  <original_smiles>  (92) 
[H]c1c([H])c([H])c2c(c1[H])C([H])([H])C([H])([H])C([H])([H])C2([H])N([H])C(=O)C1([H])N(C(=O)C([H])(N([H])C(=O)C([H])(N([H])C([H])([H])[H])C([H])([H])[H])C(C([H])([H])[H])(C([H])([H])[H])C([H])([H])[H])C([H])([H])c2c([H])c(OC([H])([H])C([H])([H])c3c([H])c(Cl)c(N([H])C(=O)N4C([H])([H])C([H])([H])C([H])([H])C([H])(n5nc(-c6c([H])c([H])c(Oc7c([H])c([H])c(F)c([H])c7F)c([H])c6[H])c(C(=O)N([H])[H])c5N([H])[H])C4([H])[H])c(C([H])([H])[H])c3C([H])([H])[H])c([H])c([H])c2C1([H])[H]

>  <smiles>  (92) 
[H]c1c([H])c([H])c2c(c1[H])C([H])([H])C([H])([H])C([H])([H])C2([H])N([H])C(=O)C1([H])N(C(=O)C([H])(N([H])C(=O)C([H])(N([H])C([H])([H])[H])C([H])([H])[H])C(C([H])([H])[H])(C([H])([H])[H])C([H])([H])[H])C([H])([H])c2c([H])c(OC([H])([H])C([H])([H])c3c([H])c(Cl)c(N([H])C(=O)N4C([H])([H])C([H])([H])C([H])([H])C([H])(n5nc(-c6c([H])c([H])c(Oc7c([H])c([H])c(F)c([H])c7F)c([H])c6[H])c(C(=O)N([H])[H])c5N([H])[H])C4([H])[H])c(C([H])([H])[H])c3C([H])([H])[H])c([H])c([H])c2C1([H])[H]

$$$$
92:0:0
     RDKit          3D

 92100  0  0  1  0  0  0  0  0999 V2000
  -30.1610  -19.8790   22.2140 C   0  0  0  0  0  3  0  0  0  0  0  0
  -29.7500  -21.0860   21.5830 C   0  0  0  0  0  0  0  0  0  0  0  0
  -30.2770  -18.5990   21.6100 C   0  0  0  0  0  0  0  0  0  0  0  0
  -29.3870  -21.1640   20.2070 C   0  0  0  0  0  0  0  0  0  0  0  0
  -29.9800  -18.3780   20.2400 C   0  0  0  0  0  0  0  0  0  0  0  0
  -29.5270  -19.7230   19.5900 C   0  0  0  0  0  0  0  0  0  0  0  0
  -29.7360  -22.3200   22.4680 C   0  0  0  0  0  1  0  0  0  0  0  0
  -30.6790  -17.4430   22.5180 C   0  0  0  0  0  1  0  0  0  0  0  0
  -29.1530  -19.5440   17.9160 Cl  0  0  0  0  0  0  0  0  0  0  0  0
  -30.7540  -15.5330   19.8440 C   0  0  0  0  0  0  0  0  0  0  0  0
  -30.7010  -13.0690   18.9630 C   0  0  0  0  0  2  0  0  0  0  0  0
  -29.7130  -12.8130   17.7960 C   0  0  0  0  0  2  0  0  0  0  0  0
  -28.2930  -12.5410   18.3260 C   0  0  0  0  0  2  0  0  0  0  0  0
  -27.8990  -13.5230   19.4580 C   0  0  0  0  0  3  0  0  0  0  0  0
  -29.0110  -13.7030   20.5080 C   0  0  0  0  0  2  0  0  0  0  0  0
  -30.1800  -14.2260   19.7790 N   0  0  0  0  0  0  0  0  0  0  0  0
  -31.9820  -15.5070   19.6660 O   0  0  0  0  0  0  0  0  0  0  0  0
  -29.9780  -16.8120   19.7590 N   0  0  0  0  0  0  0  0  0  0  0  0
  -29.0630  -16.5840   19.4000 H   0  0  0  0  0  0  0  0  0  0  0  0
  -25.6040  -14.1090   20.3960 C   0  0  0  0  0  0  0  0  0  0  0  0
  -24.5480  -13.3470   20.8070 C   0  0  0  0  0  0  0  0  0  0  0  0
  -24.9760  -11.9880   20.6990 C   0  0  0  0  0  0  0  0  0  0  0  0
  -26.6040  -13.2180   20.0500 N   0  0  0  0  0  0  0  0  0  0  0  0
  -26.2440  -11.9320   20.3020 N   0  0  0  0  0  0  0  0  0  0  0  0
  -24.2270  -10.7390   20.8920 C   0  0  0  0  0  0  0  0  0  0  0  0
  -24.6330   -9.7730   21.8420 C   0  0  0  0  0  3  0  0  0  0  0  0
  -23.8850   -8.5900   22.0240 C   0  0  0  0  0  3  0  0  0  0  0  0
  -22.7160   -8.3640   21.2580 C   0  0  0  0  0  0  0  0  0  0  0  0
  -22.3290   -9.3150   20.2990 C   0  0  0  0  0  3  0  0  0  0  0  0
  -23.0780  -10.4910   20.1150 C   0  0  0  0  0  3  0  0  0  0  0  0
  -21.9420   -7.2320   21.3500 O   0  0  0  0  0  0  0  0  0  0  0  0
  -21.7800   -6.5640   22.5370 C   0  0  0  0  0  0  0  0  0  0  0  0
  -21.2070   -7.1830   23.6700 C   0  0  0  0  0  3  0  0  0  0  0  0
  -20.9970   -6.4390   24.8470 C   0  0  0  0  0  3  0  0  0  0  0  0
  -21.3490   -5.0770   24.8940 C   0  0  0  0  0  0  0  0  0  0  0  0
  -21.9130   -4.4570   23.7660 C   0  0  0  0  0  3  0  0  0  0  0  0
  -22.1260   -5.1990   22.5900 C   0  0  0  0  0  0  0  0  0  0  0  0
  -22.6520   -4.5920   21.4990 F   0  0  0  0  0  0  0  0  0  0  0  0
  -21.1390   -4.3600   26.0230 F   0  0  0  0  0  0  0  0  0  0  0  0
  -23.1850  -13.8490   21.1810 C   0  0  0  0  0  0  0  0  0  0  0  0
  -22.5000  -13.1490   22.0770 N   0  0  0  0  0  0  0  0  0  0  0  0
  -22.7420  -14.8970   20.7130 O   0  0  0  0  0  0  0  0  0  0  0  0
  -22.8740  -12.3030   22.4820 H   0  0  0  0  0  0  0  0  0  0  0  0
  -21.5850  -13.4660   22.3640 H   0  0  0  0  0  0  0  0  0  0  0  0
  -25.7890  -15.4820   20.2560 N   0  0  0  0  0  0  0  0  0  0  0  0
  -25.0460  -16.1460   20.4470 H   0  0  0  0  0  0  0  0  0  0  0  0
  -26.6230  -15.9200   19.8890 H   0  0  0  0  0  0  0  0  0  0  0  0
  -28.0630  -22.5880   18.3660 C   0  0  0  0  0  1  0  0  0  0  0  0
  -30.3750  -23.2650   18.9840 C   0  0  0  0  0  1  0  0  0  0  0  0
  -29.0270  -22.7950   19.5470 C   0  0  2  0  0  0  0  0  0  0  0  0
  -28.3620  -24.3600   20.2520 C   0  0  0  0  0  2  0  0  0  0  0  0
  -28.4370  -25.9880   19.8970 O   0  0  0  0  0  0  0  0  0  0  0  0
  -24.6460  -31.7640   23.0740 C   0  0  0  0  0  0  0  0  0  0  0  0
  -27.3740  -27.0430   19.9400 C   0  0  0  0  0  0  0  0  0  0  0  0
  -23.5100  -30.3810   21.3850 C   0  0  0  0  0  3  0  0  0  0  0  0
  -25.0190  -28.8620   19.9310 C   0  0  0  0  0  0  0  0  0  0  0  0
  -26.0700  -30.6760   21.2620 C   0  0  0  0  0  2  0  0  0  0  0  0
  -26.1900  -29.2850   20.5700 C   0  0  0  0  0  0  0  0  0  0  0  0
  -27.3670  -28.4010   20.5400 C   0  0  0  0  0  3  0  0  0  0  0  0
  -26.1650  -26.7760   19.2630 C   0  0  0  0  0  3  0  0  0  0  0  0
  -25.0330  -27.6330   19.2530 C   0  0  0  0  0  3  0  0  0  0  0  0
  -23.7700  -29.7440   19.9930 C   0  0  0  0  0  2  0  0  0  0  0  0
  -24.7630  -30.9680   21.9620 N   0  0  0  0  0  0  0  0  0  0  0  0
  -23.5420  -32.0000   23.5950 O   0  0  0  0  0  0  0  0  0  0  0  0
  -22.8400  -29.3350   22.3150 C   0  0  0  0  0  0  0  0  0  0  0  0
  -21.5130  -29.1430   22.1850 N   0  0  0  0  0  0  0  0  0  0  0  0
  -23.5200  -28.6980   23.1220 O   0  0  0  0  0  0  0  0  0  0  0  0
  -21.0150  -29.7120   21.5150 H   0  0  0  0  0  0  0  0  0  0  0  0
  -18.1580  -27.8430   22.6660 C   0  0  0  0  0  0  0  0  0  0  0  0
  -20.7140  -28.1550   22.9190 C   0  0  0  0  0  3  0  0  0  0  0  0
  -20.8400  -26.7510   22.2820 C   0  0  0  0  0  2  0  0  0  0  0  0
  -19.7370  -26.4480   21.2630 C   0  0  0  0  0  2  0  0  0  0  0  0
  -18.3590  -26.5310   21.9250 C   0  0  0  0  0  2  0  0  0  0  0  0
  -19.2630  -28.6130   23.1180 C   0  0  0  0  0  0  0  0  0  0  0  0
  -19.0180  -29.8390   23.7730 C   0  0  0  0  0  3  0  0  0  0  0  0
  -17.7030  -30.2970   23.9770 C   0  0  0  0  0  3  0  0  0  0  0  0
  -16.6140  -29.5250   23.5380 C   0  0  0  0  0  3  0  0  0  0  0  0
  -16.8420  -28.2980   22.8890 C   0  0  0  0  0  3  0  0  0  0  0  0
  -25.8870  -32.4290   23.7400 C   0  0  0  0  0  3  0  0  0  0  0  0
  -25.5270  -33.8150   24.0960 N   0  0  0  0  0  0  0  0  0  0  0  0
  -25.8390  -34.8990   23.3750 C   0  0  0  0  0  0  0  0  0  0  0  0
  -26.5230  -34.8410   22.3490 O   0  0  0  0  0  0  0  0  0  0  0  0
  -24.9210  -33.9330   24.8950 H   0  0  0  0  0  0  0  0  0  0  0  0
  -24.0740  -36.6660   23.0510 C   0  0  0  0  0  1  0  0  0  0  0  0
  -25.3150  -36.2650   23.8650 C   0  0  0  0  0  3  0  0  0  0  0  0
  -27.4090  -37.1900   24.7560 C   0  0  0  0  0  1  0  0  0  0  0  0
  -26.3220  -37.3460   23.7930 N   0  0  0  0  0  0  0  0  0  0  0  0
  -25.8890  -38.2530   23.9470 H   0  0  0  0  0  0  0  0  0  0  0  0
  -26.3910  -31.6560   25.0200 C   0  0  1  0  0  0  0  0  0  0  0  0
  -25.2760  -31.3570   26.0500 C   0  0  0  0  0  1  0  0  0  0  0  0
  -27.0360  -30.3070   24.6300 C   0  0  0  0  0  1  0  0  0  0  0  0
  -27.4910  -32.4790   25.7300 C   0  0  0  0  0  1  0  0  0  0  0  0
  2  1  2  0
  2  7  1  0
  3  1  1  0
  3  8  1  0
  4  2  1  0
  5  3  2  0
  6  4  2  0
  6  5  1  0
  9  6  1  0
 11 16  1  0
 12 13  1  0
 12 11  1  0
 14 13  1  0
 14 23  1  0
 14 15  1  0
 16 10  1  0
 16 15  1  0
 17 10  2  0
 18 10  1  0
 18  5  1  0
 19 18  1  0
 20 21  2  0
 21 40  1  0
 22 21  1  0
 22 25  1  0
 23 24  1  0
 23 20  1  0
 24 22  2  0
 25 26  1  0
 26 27  2  0
 28 31  1  0
 28 27  1  0
 29 28  2  0
 30 29  1  0
 30 25  2  0
 31 32  1  0
 32 37  2  0
 32 33  1  0
 33 34  2  0
 34 35  1  0
 35 39  1  0
 36 35  2  0
 37 36  1  0
 38 37  1  0
 40 41  1  0
 41 44  1  0
 41 43  1  0
 42 40  2  0
 45 20  1  0
 45 46  1  0
 47 45  1  0
 50 48  1  6
 49 50  1  0
 50  4  1  0
 50 51  1  0
 52 54  1  0
 52 51  1  0
 53 64  2  0
 54 59  1  0
 55 63  1  0
 55 65  1  0
 56 62  1  0
 56 58  1  0
 57 63  1  0
 58 57  1  0
 59 58  2  0
 60 54  2  0
 61 60  1  0
 61 56  2  0
 62 55  1  0
 63 53  1  0
 65 67  2  0
 66 65  1  0
 68 66  1  0
 69 78  2  0
 69 74  1  0
 70 66  1  0
 70 74  1  0
 71 70  1  0
 72 73  1  0
 72 71  1  0
 73 69  1  0
 74 75  2  0
 75 76  1  0
 77 76  2  0
 78 77  1  0
 79 53  1  0
 79 80  1  0
 79 89  1  0
 80 83  1  0
 81 85  1  0
 81 80  1  0
 82 81  2  0
 85 84  1  0
 87 85  1  0
 87 88  1  0
 87 86  1  0
 89 92  1  1
 89 90  1  0
 91 89  1  0
M  ISO  4  10 100  18 100  51 101  52 101
M  END
>  <TORSDO>  (93) 
F 18

>  <SCORE>  (93) 
-15.416

>  <name>  (93) 
92

>  <ligand_id>  (93) 
92

>  <original_smiles>  (93) 
[H]c1c([H])c([H])c2c(c1[H])C([H])([H])C([H])([H])C([H])([H])C2([H])N([H])C(=O)C1([H])N(C(=O)C([H])(N([H])C(=O)C([H])(N([H])C([H])([H])[H])C([H])([H])[H])C(C([H])([H])[H])(C([H])([H])[H])C([H])([H])[H])C([H])([H])c2c([H])c(OC([H])([H])C(c3c(Cl)c(N([H])C(=O)N4C([H])([H])C([H])([H])C([H])([H])C([H])(n5nc(-c6c([H])c([H])c(Oc7c([H])c([H])c(F)c([H])c7F)c([H])c6[H])c(C(=O)N([H])[H])c5N([H])[H])C4([H])[H])c(C([H])([H])[H])c([H])c3C([H])([H])[H])(C([H])([H])[H])C([H])([H])[H])c([H])c([H])c2C1([H])[H]

>  <smiles>  (93) 
[H]c1c([H])c([H])c2c(c1[H])C([H])([H])C([H])([H])C([H])([H])C2([H])N([H])C(=O)C1([H])N(C(=O)C([H])(N([H])C(=O)C([H])(N([H])C([H])([H])[H])C([H])([H])[H])C(C([H])([H])[H])(C([H])([H])[H])C([H])([H])[H])C([H])([H])c2c([H])c(OC([H])([H])C(c3c(Cl)c(N([H])C(=O)N4C([H])([H])C([H])([H])C([H])([H])C([H])(n5nc(-c6c([H])c([H])c(Oc7c([H])c([H])c(F)c([H])c7F)c([H])c6[H])c(C(=O)N([H])[H])c5N([H])[H])C4([H])[H])c(C([H])([H])[H])c([H])c3C([H])([H])[H])(C([H])([H])[H])C([H])([H])[H])c([H])c([H])c2C1([H])[H]

$$$$
93:0:0
     RDKit          3D

 91 99  0  0  1  0  0  0  0  0999 V2000
  -30.1580  -18.7230   20.2840 C   0  0  0  0  0  3  0  0  0  0  0  0
  -28.1340  -19.4060   19.7760 C   0  0  0  0  0  3  0  0  0  0  0  0
  -29.3310  -19.9810   20.0910 C   0  0  0  0  0  0  0  0  0  0  0  0
  -29.4340  -17.4980   20.1150 C   0  0  0  0  0  0  0  0  0  0  0  0
  -28.1430  -18.0030   19.8400 N   0  0  0  0  0  0  0  0  0  0  0  0
  -30.5190  -14.9310   19.8620 C   0  0  0  0  0  0  0  0  0  0  0  0
  -30.4620  -12.5130   19.0030 C   0  0  0  0  0  2  0  0  0  0  0  0
  -29.4470  -12.3620   17.8400 C   0  0  0  0  0  2  0  0  0  0  0  0
  -28.0160  -12.1280   18.3670 C   0  0  0  0  0  2  0  0  0  0  0  0
  -27.6590  -13.0890   19.5270 C   0  0  0  0  0  3  0  0  0  0  0  0
  -28.7860  -13.1630   20.5820 C   0  0  0  0  0  2  0  0  0  0  0  0
  -30.0020  -13.6240   19.8920 N   0  0  0  0  0  0  0  0  0  0  0  0
  -31.6840  -15.0450   19.4560 O   0  0  0  0  0  0  0  0  0  0  0  0
  -29.6470  -16.0400   20.1690 N   0  0  0  0  0  0  0  0  0  0  0  0
  -28.8190  -15.6000   20.5410 H   0  0  0  0  0  0  0  0  0  0  0  0
  -25.3380  -13.6540   20.4510 C   0  0  0  0  0  0  0  0  0  0  0  0
  -24.3080  -12.8910   20.9150 C   0  0  0  0  0  0  0  0  0  0  0  0
  -24.7520  -11.5390   20.8000 C   0  0  0  0  0  0  0  0  0  0  0  0
  -26.3580  -12.7820   20.1190 N   0  0  0  0  0  0  0  0  0  0  0  0
  -26.0170  -11.4980   20.3890 N   0  0  0  0  0  0  0  0  0  0  0  0
  -24.0170  -10.2860   20.9990 C   0  0  0  0  0  0  0  0  0  0  0  0
  -24.4870   -9.2900   21.8830 C   0  0  0  0  0  3  0  0  0  0  0  0
  -23.7500   -8.1030   22.0760 C   0  0  0  0  0  3  0  0  0  0  0  0
  -22.5320   -7.9020   21.3850 C   0  0  0  0  0  0  0  0  0  0  0  0
  -22.0790   -8.8870   20.4910 C   0  0  0  0  0  3  0  0  0  0  0  0
  -22.8130  -10.0670   20.2960 C   0  0  0  0  0  3  0  0  0  0  0  0
  -21.7680   -6.7640   21.4900 O   0  0  0  0  0  0  0  0  0  0  0  0
  -21.7460   -6.0190   22.6410 C   0  0  0  0  0  0  0  0  0  0  0  0
  -21.3640   -6.5710   23.8830 C   0  0  0  0  0  3  0  0  0  0  0  0
  -21.2880   -5.7500   25.0260 C   0  0  0  0  0  3  0  0  0  0  0  0
  -21.5820   -4.3780   24.9260 C   0  0  0  0  0  0  0  0  0  0  0  0
  -21.9520   -3.8230   23.6890 C   0  0  0  0  0  3  0  0  0  0  0  0
  -22.0310   -4.6410   22.5480 C   0  0  0  0  0  0  0  0  0  0  0  0
  -22.3730   -4.0980   21.3550 F   0  0  0  0  0  0  0  0  0  0  0  0
  -21.5010   -3.5860   26.0220 F   0  0  0  0  0  0  0  0  0  0  0  0
  -22.9490  -13.3860   21.3180 C   0  0  0  0  0  0  0  0  0  0  0  0
  -22.2920  -12.6900   22.2350 N   0  0  0  0  0  0  0  0  0  0  0  0
  -22.4820  -14.4280   20.8590 O   0  0  0  0  0  0  0  0  0  0  0  0
  -22.6820  -11.8460   22.6310 H   0  0  0  0  0  0  0  0  0  0  0  0
  -21.3910  -13.0170   22.5530 H   0  0  0  0  0  0  0  0  0  0  0  0
  -25.4600  -15.0090   20.2400 N   0  0  0  0  0  0  0  0  0  0  0  0
  -24.6540  -15.6110   20.3780 H   0  0  0  0  0  0  0  0  0  0  0  0
  -26.1220  -15.3850   19.5770 H   0  0  0  0  0  0  0  0  0  0  0  0
  -29.5060  -21.6540   20.3050 C   0  0  0  0  0  2  0  0  0  0  0  0
  -28.6920  -22.9890   19.5840 C   0  0  0  0  0  2  0  0  0  0  0  0
  -28.2080  -24.4840   20.2890 C   0  0  0  0  0  2  0  0  0  0  0  0
  -28.2500  -25.9940   19.8220 O   0  0  0  0  0  0  0  0  0  0  0  0
  -24.6020  -31.6570   23.0050 C   0  0  0  0  0  0  0  0  0  0  0  0
  -27.1630  -26.9590   19.8850 C   0  0  0  0  0  0  0  0  0  0  0  0
  -23.3890  -30.3030   21.3350 C   0  0  0  0  0  3  0  0  0  0  0  0
  -24.8300  -28.7260   19.8890 C   0  0  0  0  0  0  0  0  0  0  0  0
  -25.9440  -30.5450   21.1750 C   0  0  0  0  0  2  0  0  0  0  0  0
  -26.0120  -29.1550   20.5080 C   0  0  0  0  0  0  0  0  0  0  0  0
  -27.1760  -28.2910   20.4830 C   0  0  0  0  0  3  0  0  0  0  0  0
  -25.9500  -26.6340   19.2410 C   0  0  0  0  0  3  0  0  0  0  0  0
  -24.8130  -27.4780   19.2410 C   0  0  0  0  0  3  0  0  0  0  0  0
  -23.6080  -29.6370   19.9480 C   0  0  0  0  0  2  0  0  0  0  0  0
  -24.6660  -30.8590   21.8950 N   0  0  0  0  0  0  0  0  0  0  0  0
  -23.5190  -31.9380   23.5420 O   0  0  0  0  0  0  0  0  0  0  0  0
  -22.6990  -29.2870   22.2830 C   0  0  0  0  0  0  0  0  0  0  0  0
  -21.3650  -29.1560   22.1810 N   0  0  0  0  0  0  0  0  0  0  0  0
  -23.3710  -28.6180   23.0730 O   0  0  0  0  0  0  0  0  0  0  0  0
  -20.8800  -29.7550   21.5270 H   0  0  0  0  0  0  0  0  0  0  0  0
  -17.9660  -28.0260   22.7300 C   0  0  0  0  0  0  0  0  0  0  0  0
  -20.5380  -28.2110   22.9370 C   0  0  0  0  0  3  0  0  0  0  0  0
  -20.5850  -26.7960   22.3110 C   0  0  0  0  0  2  0  0  0  0  0  0
  -19.4510  -26.5420   21.3140 C   0  0  0  0  0  2  0  0  0  0  0  0
  -18.0880  -26.7020   21.9950 C   0  0  0  0  0  2  0  0  0  0  0  0
  -19.1160  -28.7410   23.1590 C   0  0  0  0  0  0  0  0  0  0  0  0
  -18.9460  -29.9810   23.8110 C   0  0  0  0  0  3  0  0  0  0  0  0
  -17.6590  -30.5070   24.0320 C   0  0  0  0  0  3  0  0  0  0  0  0
  -16.5240  -29.7880   23.6180 C   0  0  0  0  0  3  0  0  0  0  0  0
  -16.6800  -28.5500   22.9710 C   0  0  0  0  0  3  0  0  0  0  0  0
  -25.8870  -32.2710   23.6430 C   0  0  0  0  0  3  0  0  0  0  0  0
  -25.5750  -33.6550   24.0370 N   0  0  0  0  0  0  0  0  0  0  0  0
  -25.9050  -34.7420   23.3290 C   0  0  0  0  0  0  0  0  0  0  0  0
  -26.5690  -34.6860   22.2900 O   0  0  0  0  0  0  0  0  0  0  0  0
  -24.9870  -33.7710   24.8480 H   0  0  0  0  0  0  0  0  0  0  0  0
  -24.1730  -36.5540   23.0810 C   0  0  0  0  0  1  0  0  0  0  0  0
  -25.4250  -36.1090   23.8550 C   0  0  0  0  0  3  0  0  0  0  0  0
  -27.5730  -36.9630   24.6920 C   0  0  0  0  0  1  0  0  0  0  0  0
  -26.4560  -37.1680   23.7730 N   0  0  0  0  0  0  0  0  0  0  0  0
  -26.0510  -38.0810   23.9640 H   0  0  0  0  0  0  0  0  0  0  0  0
  -26.4100  -31.4530   24.8880 C   0  0  1  0  0  0  0  0  0  0  0  0
  -25.3290  -31.1920   25.9630 C   0  0  0  0  0  1  0  0  0  0  0  0
  -26.9780  -30.0830   24.4490 C   0  0  0  0  0  1  0  0  0  0  0  0
  -27.5760  -32.2150   25.5630 C   0  0  0  0  0  1  0  0  0  0  0  0
  -26.9390  -17.2230   19.5630 C   0  0  0  0  0  2  0  0  0  0  0  0
  -24.5810  -16.7640   20.3970 C   0  0  0  0  0  1  0  0  0  0  0  0
  -24.9190  -18.6990   18.8820 C   0  0  0  0  0  1  0  0  0  0  0  0
  -25.5890  -17.8580   19.9920 C   0  0  0  0  0  3  0  0  0  0  0  0
  2  5  1  0
  2  3  2  0
  3  1  1  0
  3 44  1  0
  4 14  1  0
  4  1  2  0
  5  4  1  0
  6 12  1  0
  6 14  1  0
  7 12  1  0
  8  9  1  0
  8  7  1  0
 10  9  1  0
 10 19  1  0
 10 11  1  0
 12 11  1  0
 13  6  2  0
 14 15  1  0
 16 17  2  0
 17 36  1  0
 18 17  1  0
 18 21  1  0
 19 20  1  0
 19 16  1  0
 20 18  2  0
 21 22  1  0
 22 23  2  0
 24 27  1  0
 24 23  1  0
 25 24  2  0
 26 25  1  0
 26 21  2  0
 27 28  1  0
 28 29  1  0
 29 30  2  0
 31 30  1  0
 31 35  1  0
 32 31  2  0
 33 28  2  0
 33 32  1  0
 34 33  1  0
 36 37  1  0
 37 40  1  0
 37 39  1  0
 38 36  2  0
 41 42  1  0
 41 16  1  0
 43 41  1  0
 45 46  1  0
 45 44  1  0
 47 49  1  0
 47 46  1  0
 48 59  2  0
 49 54  1  0
 50 58  1  0
 50 60  1  0
 51 57  1  0
 51 53  1  0
 52 58  1  0
 53 52  1  0
 54 53  2  0
 55 56  1  0
 55 49  2  0
 56 51  2  0
 57 50  1  0
 58 48  1  0
 60 62  2  0
 61 60  1  0
 63 61  1  0
 64 73  2  0
 64 69  1  0
 65 61  1  0
 65 69  1  0
 66 65  1  0
 67 68  1  0
 67 66  1  0
 68 64  1  0
 69 70  2  0
 70 71  1  0
 72 71  2  0
 73 72  1  0
 74 48  1  0
 74 75  1  0
 74 84  1  0
 75 78  1  0
 76 80  1  0
 76 75  1  0
 77 76  2  0
 80 79  1  0
 82 80  1  0
 82 83  1  0
 82 81  1  0
 84 87  1  1
 84 85  1  0
 86 84  1  0
 88  5  1  0
 88 91  1  0
 90 91  1  0
 91 89  1  0
M  ISO  4   6 100  14 100  46 101  47 101
M  END
>  <TORSDO>  (94) 
F 21

>  <SCORE>  (94) 
-12.864

>  <name>  (94) 
93

>  <ligand_id>  (94) 
93

>  <original_smiles>  (94) 
[H]c1c([H])c([H])c2c(c1[H])C([H])([H])C([H])([H])C([H])([H])C2([H])N([H])C(=O)C1([H])N(C(=O)C([H])(N([H])C(=O)C([H])(N([H])C([H])([H])[H])C([H])([H])[H])C(C([H])([H])[H])(C([H])([H])[H])C([H])([H])[H])C([H])([H])c2c([H])c(OC([H])([H])C([H])([H])C([H])([H])c3c([H])c(N([H])C(=O)N4C([H])([H])C([H])([H])C([H])([H])C([H])(n5nc(-c6c([H])c([H])c(Oc7c([H])c([H])c(F)c([H])c7F)c([H])c6[H])c(C(=O)N([H])[H])c5N([H])[H])C4([H])[H])n(C([H])([H])C([H])(C([H])([H])[H])C([H])([H])[H])c3[H])c([H])c([H])c2C1([H])[H]

>  <smiles>  (94) 
[H]c1c([H])c([H])c2c(c1[H])C([H])([H])C([H])([H])C([H])([H])C2([H])N([H])C(=O)C1([H])N(C(=O)C([H])(N([H])C(=O)C([H])(N([H])C([H])([H])[H])C([H])([H])[H])C(C([H])([H])[H])(C([H])([H])[H])C([H])([H])[H])C([H])([H])c2c([H])c(OC([H])([H])C([H])([H])C([H])([H])c3c([H])c(N([H])C(=O)N4C([H])([H])C([H])([H])C([H])([H])C([H])(n5nc(-c6c([H])c([H])c(Oc7c([H])c([H])c(F)c([H])c7F)c([H])c6[H])c(C(=O)N([H])[H])c5N([H])[H])C4([H])[H])n(C([H])([H])C([H])(C([H])([H])[H])C([H])([H])[H])c3[H])c([H])c([H])c2C1([H])[H]

$$$$
94:0:0
     RDKit          3D

 91 99  0  0  1  0  0  0  0  0999 V2000
  -30.2990  -19.8680   22.3660 C   0  0  0  0  0  3  0  0  0  0  0  0
  -29.8190  -21.0850   21.8060 C   0  0  0  0  0  0  0  0  0  0  0  0
  -29.2890  -21.1770   20.4900 C   0  0  0  0  0  0  0  0  0  0  0  0
  -29.7830  -18.3760   20.4440 C   0  0  0  0  0  0  0  0  0  0  0  0
  -30.3070  -18.5940   21.7420 C   0  0  0  0  0  0  0  0  0  0  0  0
  -29.2790  -19.7360   19.8640 C   0  0  0  0  0  0  0  0  0  0  0  0
  -29.9040  -22.3180   22.6880 C   0  0  0  0  0  1  0  0  0  0  0  0
  -30.9150  -17.2840   22.6950 Cl  0  0  0  0  0  0  0  0  0  0  0  0
  -28.6140  -19.5850   18.2790 Cl  0  0  0  0  0  0  0  0  0  0  0  0
  -30.4540  -15.5270   19.9750 C   0  0  0  0  0  0  0  0  0  0  0  0
  -30.3950  -13.1020   18.9980 C   0  0  0  0  0  2  0  0  0  0  0  0
  -29.3980  -12.8590   17.8380 C   0  0  0  0  0  2  0  0  0  0  0  0
  -27.9880  -12.5570   18.3750 C   0  0  0  0  0  2  0  0  0  0  0  0
  -27.5920  -13.5090   19.5290 C   0  0  0  0  0  3  0  0  0  0  0  0
  -28.7090  -13.6770   20.5790 C   0  0  0  0  0  2  0  0  0  0  0  0
  -29.8730  -14.2260   19.8600 N   0  0  0  0  0  0  0  0  0  0  0  0
  -31.6800  -15.4990   19.7890 O   0  0  0  0  0  0  0  0  0  0  0  0
  -29.6900  -16.8140   19.9540 N   0  0  0  0  0  0  0  0  0  0  0  0
  -28.7650  -16.6210   19.6050 H   0  0  0  0  0  0  0  0  0  0  0  0
  -25.2730  -14.0390   20.4430 C   0  0  0  0  0  0  0  0  0  0  0  0
  -24.2370  -13.2490   20.8520 C   0  0  0  0  0  0  0  0  0  0  0  0
  -24.7070  -11.9020   20.7640 C   0  0  0  0  0  0  0  0  0  0  0  0
  -26.3030  -13.1750   20.1180 N   0  0  0  0  0  0  0  0  0  0  0  0
  -25.9790  -11.8820   20.3810 N   0  0  0  0  0  0  0  0  0  0  0  0
  -23.9940  -10.6320   20.9630 C   0  0  0  0  0  0  0  0  0  0  0  0
  -24.4540   -9.6630   21.8810 C   0  0  0  0  0  3  0  0  0  0  0  0
  -23.7390   -8.4610   22.0710 C   0  0  0  0  0  3  0  0  0  0  0  0
  -22.5500   -8.2190   21.3430 C   0  0  0  0  0  0  0  0  0  0  0  0
  -22.1090   -9.1770   20.4130 C   0  0  0  0  0  3  0  0  0  0  0  0
  -22.8240  -10.3710   20.2220 C   0  0  0  0  0  3  0  0  0  0  0  0
  -21.8050   -7.0690   21.4420 O   0  0  0  0  0  0  0  0  0  0  0  0
  -21.7620   -6.3370   22.6030 C   0  0  0  0  0  0  0  0  0  0  0  0
  -21.3010   -6.8910   23.8170 C   0  0  0  0  0  3  0  0  0  0  0  0
  -21.2090   -6.0850   24.9680 C   0  0  0  0  0  3  0  0  0  0  0  0
  -21.5670   -4.7240   24.9080 C   0  0  0  0  0  0  0  0  0  0  0  0
  -22.0210   -4.1690   23.6970 C   0  0  0  0  0  3  0  0  0  0  0  0
  -22.1160   -4.9740   22.5480 C   0  0  0  0  0  0  0  0  0  0  0  0
  -22.5330   -4.4280   21.3810 F   0  0  0  0  0  0  0  0  0  0  0  0
  -21.4700   -3.9480   26.0120 F   0  0  0  0  0  0  0  0  0  0  0  0
  -22.8540  -13.7130   21.2050 C   0  0  0  0  0  0  0  0  0  0  0  0
  -22.1730  -12.9930   22.0890 N   0  0  0  0  0  0  0  0  0  0  0  0
  -22.3890  -14.7510   20.7340 O   0  0  0  0  0  0  0  0  0  0  0  0
  -22.5650  -12.1540   22.4920 H   0  0  0  0  0  0  0  0  0  0  0  0
  -21.2470  -13.2850   22.3660 H   0  0  0  0  0  0  0  0  0  0  0  0
  -25.4160  -15.4150   20.2880 N   0  0  0  0  0  0  0  0  0  0  0  0
  -24.6490  -16.0550   20.4590 H   0  0  0  0  0  0  0  0  0  0  0  0
  -26.2370  -15.8730   19.9160 H   0  0  0  0  0  0  0  0  0  0  0  0
  -28.4990  -22.7850   18.4470 C   0  0  0  0  0  1  0  0  0  0  0  0
  -28.9880  -22.8380   19.8980 C   0  0  0  0  0  3  0  0  0  0  0  0
  -28.2440  -24.3760   20.5670 C   0  0  0  0  0  2  0  0  0  0  0  0
  -28.3730  -26.0140   20.2860 O   0  0  0  0  0  0  0  0  0  0  0  0
  -24.6660  -31.9540   23.2510 C   0  0  0  0  0  0  0  0  0  0  0  0
  -27.3240  -27.0830   20.2890 C   0  0  0  0  0  0  0  0  0  0  0  0
  -23.5060  -30.5270   21.6150 C   0  0  0  0  0  3  0  0  0  0  0  0
  -24.9900  -28.9310   20.2160 C   0  0  0  0  0  0  0  0  0  0  0  0
  -26.0700  -30.7790   21.4820 C   0  0  0  0  0  2  0  0  0  0  0  0
  -26.1690  -29.3620   20.8380 C   0  0  0  0  0  0  0  0  0  0  0  0
  -27.3300  -28.4620   20.8440 C   0  0  0  0  0  3  0  0  0  0  0  0
  -26.1090  -26.8070   19.6240 C   0  0  0  0  0  3  0  0  0  0  0  0
  -24.9850  -27.6740   19.5900 C   0  0  0  0  0  3  0  0  0  0  0  0
  -23.7570  -29.8350   20.2460 C   0  0  0  0  0  2  0  0  0  0  0  0
  -24.7690  -31.1150   22.1690 N   0  0  0  0  0  0  0  0  0  0  0  0
  -23.5680  -32.2280   23.7650 O   0  0  0  0  0  0  0  0  0  0  0  0
  -22.8240  -29.5260   22.5840 C   0  0  0  0  0  0  0  0  0  0  0  0
  -21.5030  -29.3160   22.4360 N   0  0  0  0  0  0  0  0  0  0  0  0
  -23.4900  -28.9370   23.4410 O   0  0  0  0  0  0  0  0  0  0  0  0
  -21.0180  -29.8410   21.7210 H   0  0  0  0  0  0  0  0  0  0  0  0
  -18.1540  -27.9900   22.8830 C   0  0  0  0  0  0  0  0  0  0  0  0
  -20.6940  -28.3630   23.2040 C   0  0  0  0  0  3  0  0  0  0  0  0
  -20.8660  -26.9250   22.6620 C   0  0  0  0  0  2  0  0  0  0  0  0
  -19.8040  -26.5380   21.6290 C   0  0  0  0  0  2  0  0  0  0  0  0
  -18.4000  -26.6380   22.2350 C   0  0  0  0  0  2  0  0  0  0  0  0
  -19.2300  -28.8070   23.3230 C   0  0  0  0  0  0  0  0  0  0  0  0
  -18.9430  -30.0670   23.8910 C   0  0  0  0  0  3  0  0  0  0  0  0
  -17.6140  -30.5130   24.0210 C   0  0  0  0  0  3  0  0  0  0  0  0
  -16.5530  -29.6960   23.5940 C   0  0  0  0  0  3  0  0  0  0  0  0
  -16.8240  -28.4360   23.0310 C   0  0  0  0  0  3  0  0  0  0  0  0
  -25.9220  -32.6230   23.8880 C   0  0  0  0  0  3  0  0  0  0  0  0
  -25.5870  -34.0270   24.1850 N   0  0  0  0  0  0  0  0  0  0  0  0
  -25.9210  -35.0760   23.4200 C   0  0  0  0  0  0  0  0  0  0  0  0
  -26.6060  -34.9630   22.4000 O   0  0  0  0  0  0  0  0  0  0  0  0
  -24.9780  -34.1850   24.9730 H   0  0  0  0  0  0  0  0  0  0  0  0
  -24.1860  -36.8580   23.0230 C   0  0  0  0  0  1  0  0  0  0  0  0
  -25.4210  -36.4690   23.8530 C   0  0  0  0  0  3  0  0  0  0  0  0
  -27.5350  -37.3890   24.7010 C   0  0  0  0  0  1  0  0  0  0  0  0
  -26.4480  -37.5280   23.7350 N   0  0  0  0  0  0  0  0  0  0  0  0
  -26.0330  -38.4480   23.8570 H   0  0  0  0  0  0  0  0  0  0  0  0
  -26.4120  -31.8940   25.2010 C   0  0  1  0  0  0  0  0  0  0  0  0
  -25.2910  -31.6680   26.2430 C   0  0  0  0  0  1  0  0  0  0  0  0
  -27.0280  -30.5160   24.8710 C   0  0  0  0  0  1  0  0  0  0  0  0
  -27.5310  -32.7250   25.8730 C   0  0  0  0  0  1  0  0  0  0  0  0
  2  1  1  0
  2  7  1  0
  3  2  2  0
  4  5  1  0
  5  1  2  0
  5  8  1  0
  6  4  2  0
  6  3  1  0
  9  6  1  0
 11 16  1  0
 12 13  1  0
 12 11  1  0
 14 13  1  0
 14 23  1  0
 14 15  1  0
 16 10  1  0
 16 15  1  0
 17 10  2  0
 18 10  1  0
 18  4  1  0
 19 18  1  0
 20 21  2  0
 21 40  1  0
 22 21  1  0
 22 25  1  0
 23 24  1  0
 23 20  1  0
 24 22  2  0
 25 26  1  0
 26 27  2  0
 28 31  1  0
 28 27  1  0
 29 28  2  0
 30 29  1  0
 30 25  2  0
 31 32  1  0
 32 33  1  0
 33 34  2  0
 35 34  1  0
 35 39  1  0
 36 35  2  0
 37 32  2  0
 37 36  1  0
 38 37  1  0
 40 41  1  0
 41 44  1  0
 41 43  1  0
 42 40  2  0
 45 20  1  0
 45 46  1  0
 47 45  1  0
 49 48  1  0
 49  3  1  0
 49 50  1  0
 51 53  1  0
 51 50  1  0
 52 63  2  0
 53 58  1  0
 54 62  1  0
 54 64  1  0
 55 61  1  0
 55 57  1  0
 56 62  1  0
 57 58  2  0
 57 56  1  0
 59 53  2  0
 60 59  1  0
 60 55  2  0
 61 54  1  0
 62 52  1  0
 64 66  2  0
 65 64  1  0
 67 65  1  0
 68 77  2  0
 68 73  1  0
 69 65  1  0
 69 73  1  0
 70 69  1  0
 71 72  1  0
 71 70  1  0
 72 68  1  0
 73 74  2  0
 74 75  1  0
 76 75  2  0
 77 76  1  0
 78 52  1  0
 78 79  1  0
 78 88  1  0
 79 82  1  0
 80 84  1  0
 80 79  1  0
 81 80  2  0
 84 83  1  0
 86 84  1  0
 86 87  1  0
 86 85  1  0
 88 91  1  1
 88 89  1  0
 90 88  1  0
M  ISO  4  10 100  18 100  50 101  51 101
M  END
>  <TORSDO>  (95) 
F 18

>  <SCORE>  (95) 
-15.824

>  <name>  (95) 
94

>  <ligand_id>  (95) 
94

>  <original_smiles>  (95) 
[H]c1c([H])c([H])c2c(c1[H])C([H])([H])C([H])([H])C([H])([H])C2([H])N([H])C(=O)C1([H])N(C(=O)C([H])(N([H])C(=O)C([H])(N([H])C([H])([H])[H])C([H])([H])[H])C(C([H])([H])[H])(C([H])([H])[H])C([H])([H])[H])C([H])([H])c2c([H])c(OC([H])([H])C([H])(c3c(Cl)c(N([H])C(=O)N4C([H])([H])C([H])([H])C([H])([H])C([H])(n5nc(-c6c([H])c([H])c(Oc7c([H])c([H])c(F)c([H])c7F)c([H])c6[H])c(C(=O)N([H])[H])c5N([H])[H])C4([H])[H])c(Cl)c([H])c3C([H])([H])[H])C([H])([H])[H])c([H])c([H])c2C1([H])[H]

>  <smiles>  (95) 
[H]c1c([H])c([H])c2c(c1[H])C([H])([H])C([H])([H])C([H])([H])C2([H])N([H])C(=O)C1([H])N(C(=O)C([H])(N([H])C(=O)C([H])(N([H])C([H])([H])[H])C([H])([H])[H])C(C([H])([H])[H])(C([H])([H])[H])C([H])([H])[H])C([H])([H])c2c([H])c(OC([H])([H])C([H])(c3c(Cl)c(N([H])C(=O)N4C([H])([H])C([H])([H])C([H])([H])C([H])(n5nc(-c6c([H])c([H])c(Oc7c([H])c([H])c(F)c([H])c7F)c([H])c6[H])c(C(=O)N([H])[H])c5N([H])[H])C4([H])[H])c(Cl)c([H])c3C([H])([H])[H])C([H])([H])[H])c([H])c([H])c2C1([H])[H]

$$$$
95:0:0
     RDKit          3D

101109  0  0  1  0  0  0  0  0999 V2000
  -31.0360  -17.8400   20.3980 N   0  0  0  0  0  0  0  0  0  0  0  0
  -32.0330  -19.2600   16.9660 C   0  0  0  0  0  2  0  0  0  0  0  0
  -31.1610  -19.0850   18.2070 C   0  0  0  0  0  2  0  0  0  0  0  0
  -33.3700  -19.8940   17.3660 C   0  0  0  0  0  2  0  0  0  0  0  0
  -31.8810  -18.1790   19.2310 C   0  0  0  0  0  3  0  0  0  0  0  0
  -33.3140  -18.7140   19.5700 C   0  0  0  0  0  3  0  0  0  0  0  0
  -34.0920  -17.7120   20.4580 C   0  0  0  0  0  1  0  0  0  0  0  0
  -35.4260  -19.6690   18.6430 C   0  0  0  0  0  1  0  0  0  0  0  0
  -34.1090  -19.0530   18.3430 N   0  0  2  0  0  4  0  0  0  0  0  0
  -34.3040  -18.1820   17.8720 H   0  0  0  0  0  0  0  0  0  0  0  0
  -29.8190  -15.6620   20.2300 C   0  0  0  0  0  3  0  0  0  0  0  0
  -29.9230  -17.0170   20.1650 C   0  0  0  0  0  0  0  0  0  0  0  0
  -30.8030  -14.5690   20.3670 C   0  0  0  0  0  0  0  0  0  0  0  0
  -30.7020  -12.2220   19.6030 C   0  0  0  0  0  2  0  0  0  0  0  0
  -29.8150  -12.1670   18.3350 C   0  0  0  0  0  2  0  0  0  0  0  0
  -28.3210  -11.9950   18.7000 C   0  0  0  0  0  2  0  0  0  0  0  0
  -27.8650  -13.0070   19.7780 C   0  0  0  0  0  3  0  0  0  0  0  0
  -28.8690  -13.0490   20.9630 C   0  0  0  0  0  2  0  0  0  0  0  0
  -30.2190  -13.3350   20.4390 N   0  0  0  0  0  0  0  0  0  0  0  0
  -32.0070  -14.6960   20.1210 O   0  0  0  0  0  0  0  0  0  0  0  0
  -25.4590  -13.6790   20.3930 C   0  0  0  0  0  0  0  0  0  0  0  0
  -24.3750  -12.9340   20.7710 C   0  0  0  0  0  0  0  0  0  0  0  0
  -24.8360  -11.5840   20.8370 C   0  0  0  0  0  0  0  0  0  0  0  0
  -26.5020  -12.7790   20.2370 N   0  0  0  0  0  0  0  0  0  0  0  0
  -26.1310  -11.5180   20.5700 N   0  0  0  0  0  0  0  0  0  0  0  0
  -24.1010  -10.3370   21.0720 C   0  0  0  0  0  0  0  0  0  0  0  0
  -24.5090   -9.4270   22.0720 C   0  0  0  0  0  3  0  0  0  0  0  0
  -23.7840   -8.2370   22.2920 C   0  0  0  0  0  3  0  0  0  0  0  0
  -22.6380   -7.9530   21.5110 C   0  0  0  0  0  0  0  0  0  0  0  0
  -22.2510   -8.8530   20.5000 C   0  0  0  0  0  3  0  0  0  0  0  0
  -22.9770  -10.0340   20.2800 C   0  0  0  0  0  3  0  0  0  0  0  0
  -21.8840   -6.8140   21.6380 O   0  0  0  0  0  0  0  0  0  0  0  0
  -21.8030   -6.1350   22.8260 C   0  0  0  0  0  0  0  0  0  0  0  0
  -21.3330   -6.7510   24.0060 C   0  0  0  0  0  3  0  0  0  0  0  0
  -21.1950   -5.9960   25.1880 C   0  0  0  0  0  3  0  0  0  0  0  0
  -21.5190   -4.6260   25.1900 C   0  0  0  0  0  0  0  0  0  0  0  0
  -21.9870   -4.0110   24.0150 C   0  0  0  0  0  3  0  0  0  0  0  0
  -22.1230   -4.7630   22.8360 C   0  0  0  0  0  0  0  0  0  0  0  0
  -22.5510   -4.1590   21.7000 F   0  0  0  0  0  0  0  0  0  0  0  0
  -21.3820   -3.8990   26.3240 F   0  0  0  0  0  0  0  0  0  0  0  0
  -22.9720  -13.4300   20.9660 C   0  0  0  0  0  0  0  0  0  0  0  0
  -22.2110  -12.7970   21.8500 N   0  0  0  0  0  0  0  0  0  0  0  0
  -22.5540  -14.4210   20.3660 O   0  0  0  0  0  0  0  0  0  0  0  0
  -22.5580  -12.0020   22.3680 H   0  0  0  0  0  0  0  0  0  0  0  0
  -21.2660  -13.1190   22.0160 H   0  0  0  0  0  0  0  0  0  0  0  0
  -25.6220  -15.0390   20.1510 N   0  0  0  0  0  0  0  0  0  0  0  0
  -24.8450  -15.6880   20.1780 H   0  0  0  0  0  0  0  0  0  0  0  0
  -26.4740  -15.4710   19.8240 H   0  0  0  0  0  0  0  0  0  0  0  0
  -27.4920  -17.7520   20.6580 C   0  0  0  0  0  1  0  0  0  0  0  0
  -28.2190  -17.3280   18.2800 C   0  0  0  0  0  1  0  0  0  0  0  0
  -28.6760  -17.7870   19.6790 C   0  0  0  0  0  3  0  0  0  0  0  0
  -30.7700  -17.7540   22.9030 C   0  0  0  0  0  1  0  0  0  0  0  0
  -31.1850  -18.5960   21.6760 C   0  0  0  0  0  3  0  0  0  0  0  0
  -30.5450  -20.0250   21.6570 C   0  0  0  0  0  2  0  0  0  0  0  0
  -32.1500  -20.7760   23.5370 C   0  0  0  0  0  1  0  0  0  0  0  0
  -30.7820  -20.9860   22.8540 C   0  0  0  0  0  3  0  0  0  0  0  0
  -30.6910  -22.4880   22.4480 C   0  0  0  0  0  2  0  0  0  0  0  0
  -29.4310  -22.9970   21.7000 C   0  0  0  0  0  2  0  0  0  0  0  0
  -29.5330  -24.5220   21.3820 C   0  0  0  0  0  2  0  0  0  0  0  0
  -28.3260  -25.1490   20.6370 C   0  0  0  0  0  2  0  0  0  0  0  0
  -28.4420  -26.5850   20.6060 O   0  0  0  0  0  0  0  0  0  0  0  0
  -24.7230  -31.9360   23.4810 C   0  0  0  0  0  0  0  0  0  0  0  0
  -27.2790  -27.3330   20.5500 C   0  0  0  0  0  0  0  0  0  0  0  0
  -23.4940  -30.5430   21.8450 C   0  0  0  0  0  3  0  0  0  0  0  0
  -24.9220  -28.9140   20.4830 C   0  0  0  0  0  0  0  0  0  0  0  0
  -26.0350  -30.8060   21.6820 C   0  0  0  0  0  2  0  0  0  0  0  0
  -26.0860  -29.4180   21.0720 C   0  0  0  0  0  0  0  0  0  0  0  0
  -27.2670  -28.6400   21.0910 C   0  0  0  0  0  3  0  0  0  0  0  0
  -26.0940  -26.8390   19.9600 C   0  0  0  0  0  3  0  0  0  0  0  0
  -24.9210  -27.6210   19.9250 C   0  0  0  0  0  3  0  0  0  0  0  0
  -23.7040  -29.8120   20.4890 C   0  0  0  0  0  2  0  0  0  0  0  0
  -24.7680  -31.1110   22.3960 N   0  0  0  0  0  0  0  0  0  0  0  0
  -23.6450  -32.2610   23.9960 O   0  0  0  0  0  0  0  0  0  0  0  0
  -22.7910  -29.5730   22.8170 C   0  0  0  0  0  0  0  0  0  0  0  0
  -21.4690  -29.4120   22.6490 N   0  0  0  0  0  0  0  0  0  0  0  0
  -23.4330  -28.9680   23.6800 O   0  0  0  0  0  0  0  0  0  0  0  0
  -21.0160  -29.9560   21.9260 H   0  0  0  0  0  0  0  0  0  0  0  0
  -18.0590  -28.2760   23.0350 C   0  0  0  0  0  0  0  0  0  0  0  0
  -20.6050  -28.5160   23.4150 C   0  0  0  0  0  3  0  0  0  0  0  0
  -20.7130  -27.0630   22.8980 C   0  0  0  0  0  2  0  0  0  0  0  0
  -19.6520  -26.7120   21.8490 C   0  0  0  0  0  2  0  0  0  0  0  0
  -18.2460  -26.8970   22.4230 C   0  0  0  0  0  2  0  0  0  0  0  0
  -19.1670  -29.0410   23.4850 C   0  0  0  0  0  0  0  0  0  0  0  0
  -18.9390  -30.3290   24.0170 C   0  0  0  0  0  3  0  0  0  0  0  0
  -17.6350  -30.8510   24.1070 C   0  0  0  0  0  3  0  0  0  0  0  0
  -16.5410  -30.0840   23.6730 C   0  0  0  0  0  3  0  0  0  0  0  0
  -16.7530  -28.7990   23.1420 C   0  0  0  0  0  3  0  0  0  0  0  0
  -26.0180  -32.5340   24.1140 C   0  0  0  0  0  3  0  0  0  0  0  0
  -26.4730  -31.7860   25.4290 C   0  0  1  0  0  0  0  0  0  0  0  0
  -25.3470  -31.6210   26.4800 C   0  0  0  0  0  1  0  0  0  0  0  0
  -27.0090  -30.3750   25.1020 C   0  0  0  0  0  1  0  0  0  0  0  0
  -27.6390  -32.5550   26.0980 C   0  0  0  0  0  1  0  0  0  0  0  0
  -25.7630  -33.9560   24.3890 N   0  0  0  0  0  0  0  0  0  0  0  0
  -26.1530  -34.9660   23.6000 C   0  0  0  0  0  0  0  0  0  0  0  0
  -26.8380  -34.8010   22.5880 O   0  0  0  0  0  0  0  0  0  0  0  0
  -25.1470  -34.1600   25.1620 H   0  0  0  0  0  0  0  0  0  0  0  0
  -24.5000  -36.8200   23.1510 C   0  0  0  0  0  1  0  0  0  0  0  0
  -25.7080  -36.3880   23.9980 C   0  0  0  0  0  3  0  0  0  0  0  0
  -27.8560  -37.2220   24.8460 C   0  0  0  0  0  1  0  0  0  0  0  0
  -26.7810  -37.4000   23.8760 N   0  0  0  0  0  0  0  0  0  0  0  0
  -26.4010  -38.3360   23.9880 H   0  0  0  0  0  0  0  0  0  0  0  0
  1 53  1  0
  2  4  1  0
  2  3  1  0
  3  5  1  0
  4  9  1  0
  5  6  1  0
  5  1  1  0
  6  7  1  0
  9  8  1  0
  9  6  1  0
  9 10  1  6
 11 13  1  0
 12 11  2  0
 12  1  1  0
 13 19  1  0
 14 19  1  0
 15 16  1  0
 15 14  1  0
 17 16  1  0
 17 24  1  0
 17 18  1  0
 19 18  1  0
 20 13  2  0
 21 22  2  0
 22 23  1  0
 22 41  1  0
 23 26  1  0
 24 21  1  0
 24 25  1  0
 25 23  2  0
 26 27  1  0
 27 28  2  0
 29 32  1  0
 29 28  1  0
 30 29  2  0
 31 30  1  0
 31 26  2  0
 32 33  1  0
 33 38  2  0
 33 34  1  0
 34 35  2  0
 35 36  1  0
 36 40  1  0
 37 36  2  0
 38 37  1  0
 39 38  1  0
 41 42  1  0
 42 45  1  0
 42 44  1  0
 43 41  2  0
 46 47  1  0
 46 21  1  0
 48 46  1  0
 50 51  1  0
 51 12  1  0
 51 49  1  0
 53 52  1  0
 54 53  1  0
 54 56  1  0
 56 55  1  0
 57 56  1  0
 58 57  1  0
 59 58  1  0
 60 59  1  0
 61 60  1  0
 62 73  2  0
 63 61  1  0
 63 68  1  0
 64 72  1  0
 64 74  1  0
 65 71  1  0
 65 67  1  0
 66 72  1  0
 67 68  2  0
 67 66  1  0
 69 63  2  0
 70 69  1  0
 70 65  2  0
 71 64  1  0
 72 62  1  0
 74 76  2  0
 75 74  1  0
 77 75  1  0
 78 87  2  0
 78 83  1  0
 79 75  1  0
 79 83  1  0
 80 79  1  0
 81 82  1  0
 81 80  1  0
 82 78  1  0
 83 84  2  0
 84 85  1  0
 86 85  2  0
 87 86  1  0
 88 62  1  0
 88 93  1  0
 88 89  1  0
 89 92  1  1
 89 90  1  0
 91 89  1  0
 93 96  1  0
 94 98  1  0
 94 93  1  0
 95 94  2  0
 98 97  1  0
100101  1  0
100 98  1  0
100 99  1  0
M  ISO  4  11 100  13 100  60 101  61 101
M  END
>  <TORSDO>  (96) 
F 26

>  <SCORE>  (96) 
-10.993

>  <name>  (96) 
95

>  <ligand_id>  (96) 
95

>  <original_smiles>  (96) 
[H]C(C(=O)N1C([H])([H])C([H])([H])C([H])([H])C([H])(n2nc(-c3c([H])c([H])c(Oc4c([H])c([H])c(F)c([H])c4F)c([H])c3[H])c(C(=O)N([H])[H])c2N([H])[H])C1([H])[H])=C(N(C([H])(C([H])([H])[H])C([H])([H])C([H])(C([H])([H])[H])C([H])([H])C([H])([H])C([H])([H])C([H])([H])Oc1c([H])c([H])c2c(c1[H])C([H])([H])N(C(=O)C([H])(N([H])C(=O)C([H])(N([H])C([H])([H])[H])C([H])([H])[H])C(C([H])([H])[H])(C([H])([H])[H])C([H])([H])[H])C([H])(C(=O)N([H])C1([H])c3c([H])c([H])c([H])c([H])c3C([H])([H])C([H])([H])C1([H])[H])C2([H])[H])C1([H])C([H])([H])C([H])([H])C([H])([H])[N+]([H])(C([H])([H])[H])C1([H])C([H])([H])[H])C([H])(C([H])([H])[H])C([H])([H])[H]

>  <smiles>  (96) 
[H]C(C(=O)N1C([H])([H])C([H])([H])C([H])([H])C([H])(n2nc(-c3c([H])c([H])c(Oc4c([H])c([H])c(F)c([H])c4F)c([H])c3[H])c(C(=O)N([H])[H])c2N([H])[H])C1([H])[H])=C(N(C([H])(C([H])([H])[H])C([H])([H])C([H])(C([H])([H])[H])C([H])([H])C([H])([H])C([H])([H])C([H])([H])Oc1c([H])c([H])c2c(c1[H])C([H])([H])N(C(=O)C([H])(N([H])C(=O)C([H])(N([H])C([H])([H])[H])C([H])([H])[H])C(C([H])([H])[H])(C([H])([H])[H])C([H])([H])[H])C([H])(C(=O)N([H])C1([H])c3c([H])c([H])c([H])c([H])c3C([H])([H])C([H])([H])C1([H])[H])C2([H])[H])C1([H])C([H])([H])C([H])([H])C([H])([H])[N+]([H])(C([H])([H])[H])C1([H])C([H])([H])[H])C([H])(C([H])([H])[H])C([H])([H])[H]

$$$$
