0:0:0
     RDKit          3D

 94102  0  0  1  0  0  0  0  0999 V2000
  -31.2780  -18.1360   19.5460 C   0  0  0  0  0  3  0  0  0  0  0  0
  -30.0400  -17.7830   20.1360 C   0  0  0  0  0  0  0  0  0  0  0  0
  -31.6260  -19.4650   19.1820 C   0  0  0  0  0  0  0  0  0  0  0  0
  -29.4880  -20.4250   20.0670 C   0  0  0  0  0  0  0  0  0  0  0  0
  -29.1670  -18.9850   20.3810 C   0  0  0  0  0  0  0  0  0  0  0  0
  -30.7560  -20.5680   19.4420 C   0  0  0  0  0  0  0  0  0  0  0  0
  -27.9520  -18.7440   20.9320 F   0  0  0  0  0  0  0  0  0  0  0  0
  -31.1730  -21.8080   19.0730 F   0  0  0  0  0  0  0  0  0  0  0  0
  -30.4820  -15.0380   20.2120 C   0  0  0  0  0  0  0  0  0  0  0  0
  -30.3280  -12.6690   19.2800 C   0  0  0  0  0  2  0  0  0  0  0  0
  -29.3780  -12.6200   18.0600 C   0  0  0  0  0  2  0  0  0  0  0  0
  -27.9270  -12.3890   18.5210 C   0  0  0  0  0  2  0  0  0  0  0  0
  -27.5370  -13.3140   19.7070 C   0  0  0  0  0  3  0  0  0  0  0  0
  -28.6160  -13.3420   20.8110 C   0  0  0  0  0  2  0  0  0  0  0  0
  -29.8680  -13.7760   20.1760 N   0  0  0  0  0  0  0  0  0  0  0  0
  -31.6830  -15.0470   19.9210 O   0  0  0  0  0  0  0  0  0  0  0  0
  -29.7480  -16.2670   20.3910 N   0  0  0  0  0  0  0  0  0  0  0  0
  -28.7990  -16.0970   20.6900 H   0  0  0  0  0  0  0  0  0  0  0  0
  -25.1680  -13.8780   20.4880 C   0  0  0  0  0  0  0  0  0  0  0  0
  -24.1150  -13.0990   20.8790 C   0  0  0  0  0  0  0  0  0  0  0  0
  -24.5840  -11.7510   20.8390 C   0  0  0  0  0  0  0  0  0  0  0  0
  -26.2120  -13.0040   20.2330 N   0  0  0  0  0  0  0  0  0  0  0  0
  -25.8700  -11.7190   20.5110 N   0  0  0  0  0  0  0  0  0  0  0  0
  -23.8650  -10.4830   21.0370 C   0  0  0  0  0  0  0  0  0  0  0  0
  -24.3200   -9.5090   21.9530 C   0  0  0  0  0  3  0  0  0  0  0  0
  -23.5960   -8.3100   22.1400 C   0  0  0  0  0  3  0  0  0  0  0  0
  -22.4080   -8.0750   21.4100 C   0  0  0  0  0  0  0  0  0  0  0  0
  -21.9720   -9.0380   20.4830 C   0  0  0  0  0  3  0  0  0  0  0  0
  -22.6950  -10.2280   20.2940 C   0  0  0  0  0  3  0  0  0  0  0  0
  -21.6560   -6.9290   21.5060 O   0  0  0  0  0  0  0  0  0  0  0  0
  -21.6350   -6.1770   22.6510 C   0  0  0  0  0  0  0  0  0  0  0  0
  -21.2400   -6.7200   23.8940 C   0  0  0  0  0  3  0  0  0  0  0  0
  -21.1680   -5.8930   25.0330 C   0  0  0  0  0  3  0  0  0  0  0  0
  -21.4780   -4.5250   24.9310 C   0  0  0  0  0  0  0  0  0  0  0  0
  -21.8640   -3.9800   23.6930 C   0  0  0  0  0  3  0  0  0  0  0  0
  -21.9380   -4.8030   22.5570 C   0  0  0  0  0  0  0  0  0  0  0  0
  -22.2910   -4.2690   21.3620 F   0  0  0  0  0  0  0  0  0  0  0  0
  -21.4010   -3.7280   26.0240 F   0  0  0  0  0  0  0  0  0  0  0  0
  -22.7190  -13.5700   21.1680 C   0  0  0  0  0  0  0  0  0  0  0  0
  -22.0090  -12.8760   22.0490 N   0  0  0  0  0  0  0  0  0  0  0  0
  -22.2680  -14.5900   20.6480 O   0  0  0  0  0  0  0  0  0  0  0  0
  -22.3860  -12.0530   22.4950 H   0  0  0  0  0  0  0  0  0  0  0  0
  -21.0750  -13.1790   22.2880 H   0  0  0  0  0  0  0  0  0  0  0  0
  -25.3210  -15.2470   20.3000 N   0  0  0  0  0  0  0  0  0  0  0  0
  -24.5350  -15.8850   20.3730 H   0  0  0  0  0  0  0  0  0  0  0  0
  -26.1370  -15.6820   19.8900 H   0  0  0  0  0  0  0  0  0  0  0  0
  -34.0320  -18.9050   18.8310 C   0  0  0  0  0  1  0  0  0  0  0  0
  -32.7780  -20.3470   17.2010 C   0  0  0  0  0  1  0  0  0  0  0  0
  -32.8530  -19.7090   18.5160 N   0  0  0  0  0  0  0  0  0  0  0  0
  -28.6560  -21.6690   20.3020 N   0  0  0  0  0  0  0  0  0  0  0  0
  -27.7550  -21.4790   20.7390 H   0  0  0  0  0  0  0  0  0  0  0  0
  -28.9820  -23.2100   20.0890 C   0  0  0  0  0  3  0  0  0  0  0  0
  -27.8990  -24.5310   20.2470 C   0  0  0  0  0  3  0  0  0  0  0  0
  -28.1800  -26.0860   20.1630 O   0  0  0  0  0  0  0  0  0  0  0  0
  -24.6110  -31.8490   23.2080 C   0  0  0  0  0  0  0  0  0  0  0  0
  -27.1330  -27.0950   20.1370 C   0  0  0  0  0  0  0  0  0  0  0  0
  -23.3910  -30.4620   21.5750 C   0  0  0  0  0  3  0  0  0  0  0  0
  -24.8200  -28.8830   20.1330 C   0  0  0  0  0  0  0  0  0  0  0  0
  -25.9500  -30.7050   21.3920 C   0  0  0  0  0  2  0  0  0  0  0  0
  -26.0100  -29.3100   20.7350 C   0  0  0  0  0  0  0  0  0  0  0  0
  -27.1660  -28.4340   20.7180 C   0  0  0  0  0  3  0  0  0  0  0  0
  -25.9160  -26.7890   19.4880 C   0  0  0  0  0  3  0  0  0  0  0  0
  -24.7900  -27.6390   19.4910 C   0  0  0  0  0  3  0  0  0  0  0  0
  -23.5990  -29.7910   20.1930 C   0  0  0  0  0  2  0  0  0  0  0  0
  -24.6710  -31.0260   22.1140 N   0  0  0  0  0  0  0  0  0  0  0  0
  -23.5290  -32.1350   23.7450 O   0  0  0  0  0  0  0  0  0  0  0  0
  -22.7160  -29.4530   22.5400 C   0  0  0  0  0  0  0  0  0  0  0  0
  -21.3860  -29.2860   22.4230 N   0  0  0  0  0  0  0  0  0  0  0  0
  -23.3930  -28.8240   23.3580 O   0  0  0  0  0  0  0  0  0  0  0  0
  -20.8960  -29.8430   21.7370 H   0  0  0  0  0  0  0  0  0  0  0  0
  -18.0120  -28.0720   22.9330 C   0  0  0  0  0  0  0  0  0  0  0  0
  -20.5680  -28.3500   23.2000 C   0  0  0  0  0  3  0  0  0  0  0  0
  -20.6800  -26.9130   22.6370 C   0  0  0  0  0  2  0  0  0  0  0  0
  -19.5830  -26.5760   21.6220 C   0  0  0  0  0  2  0  0  0  0  0  0
  -18.1950  -26.7240   22.2570 C   0  0  0  0  0  2  0  0  0  0  0  0
  -19.1250  -28.8440   23.3600 C   0  0  0  0  0  0  0  0  0  0  0  0
  -18.8980  -30.1060   23.9520 C   0  0  0  0  0  3  0  0  0  0  0  0
  -17.5890  -30.5990   24.1160 C   0  0  0  0  0  3  0  0  0  0  0  0
  -16.4910  -29.8220   23.7120 C   0  0  0  0  0  3  0  0  0  0  0  0
  -16.7020  -28.5600   23.1270 C   0  0  0  0  0  3  0  0  0  0  0  0
  -25.8940  -32.4860   23.8220 C   0  0  0  0  0  3  0  0  0  0  0  0
  -26.4260  -31.7130   25.0920 C   0  0  1  0  0  0  0  0  0  0  0  0
  -25.3430  -31.4690   26.1710 C   0  0  0  0  0  1  0  0  0  0  0  0
  -27.0020  -30.3370   24.6910 C   0  0  0  0  0  1  0  0  0  0  0  0
  -27.5870  -32.5030   25.7420 C   0  0  0  0  0  1  0  0  0  0  0  0
  -25.5830  -33.8800   24.1760 N   0  0  0  0  0  0  0  0  0  0  0  0
  -25.8790  -34.9460   23.4200 C   0  0  0  0  0  0  0  0  0  0  0  0
  -26.5110  -34.8630   22.3650 O   0  0  0  0  0  0  0  0  0  0  0  0
  -25.0350  -34.0220   25.0110 H   0  0  0  0  0  0  0  0  0  0  0  0
  -24.1200  -36.7260   23.1600 C   0  0  0  0  0  1  0  0  0  0  0  0
  -25.3960  -36.3230   23.9170 C   0  0  0  0  0  3  0  0  0  0  0  0
  -27.5550  -37.2140   24.6720 C   0  0  0  0  0  1  0  0  0  0  0  0
  -26.4090  -37.3930   23.7850 N   0  0  0  0  0  0  0  0  0  0  0  0
  -25.9960  -38.3000   23.9840 H   0  0  0  0  0  0  0  0  0  0  0  0
  1  2  1  0
  2  5  2  0
  2 17  1  0
  3  6  1  0
  3  1  2  0
  4 50  1  0
  4  5  1  0
  5  7  1  0
  6  4  2  0
  8  6  1  0
  9 17  1  0
 10 15  1  0
 11 12  1  0
 11 10  1  0
 13 12  1  0
 13 22  1  0
 13 14  1  0
 15  9  1  0
 15 14  1  0
 16  9  2  0
 17 18  1  0
 19 20  2  0
 20 39  1  0
 21 20  1  0
 21 24  1  0
 22 19  1  0
 22 23  1  0
 23 21  2  0
 24 25  1  0
 25 26  2  0
 27 30  1  0
 27 26  1  0
 28 27  2  0
 29 28  1  0
 29 24  2  0
 30 31  1  0
 31 32  1  0
 32 33  2  0
 34 33  1  0
 34 38  1  0
 35 34  2  0
 36 31  2  0
 36 35  1  0
 37 36  1  0
 39 40  1  0
 40 43  1  0
 40 42  1  0
 41 39  2  0
 44 45  1  0
 44 19  1  0
 46 44  1  0
 48 49  1  0
 49 47  1  0
 49  3  1  0
 50 51  1  0
 52 53  2  0
 52 50  1  0
 54 53  1  0
 55 66  2  0
 56 54  1  0
 56 61  1  0
 57 65  1  0
 57 67  1  0
 58 64  1  0
 58 60  1  0
 59 65  1  0
 60 59  1  0
 61 60  2  0
 62 63  1  0
 62 56  2  0
 63 58  2  0
 64 57  1  0
 65 55  1  0
 67 69  2  0
 68 67  1  0
 70 68  1  0
 71 80  2  0
 71 76  1  0
 72 68  1  0
 72 76  1  0
 73 72  1  0
 74 75  1  0
 74 73  1  0
 75 71  1  0
 76 77  2  0
 77 78  1  0
 79 78  2  0
 80 79  1  0
 81 55  1  0
 81 86  1  0
 81 82  1  0
 82 85  1  1
 82 83  1  0
 84 82  1  0
 86 89  1  0
 87 91  1  0
 87 86  1  0
 88 87  2  0
 91 90  1  0
 93 91  1  0
 93 94  1  0
 93 92  1  0
M  ISO  4   9 100  17 100  53 101  54 101
M  END
>  <TORSDO>  (1) 
F 20

>  <SCORE>  (1) 
-14.648

>  <name>  (1) 
0

>  <ligand_id>  (1) 
0

>  <original_smiles>  (1) 
[H]c1c([H])c([H])c2c(c1[H])C([H])([H])C([H])([H])C([H])([H])C2([H])N([H])C(=O)C1([H])N(C(=O)C([H])(N([H])C(=O)C([H])(N([H])C([H])([H])[H])C([H])([H])[H])C(C([H])([H])[H])(C([H])([H])[H])C([H])([H])[H])C([H])([H])c2c([H])c(OC([H])([H])C([H])([H])N([H])c3c(F)c(N([H])C(=O)N4C([H])([H])C([H])([H])C([H])([H])C([H])(n5nc(-c6c([H])c([H])c(Oc7c([H])c([H])c(F)c([H])c7F)c([H])c6[H])c(C(=O)N([H])[H])c5N([H])[H])C4([H])[H])c([H])c(N(C([H])([H])[H])C([H])([H])[H])c3F)c([H])c([H])c2C1([H])[H]

>  <smiles>  (1) 
[H]c1c([H])c([H])c2c(c1[H])C([H])([H])C([H])([H])C([H])([H])C2([H])N([H])C(=O)C1([H])N(C(=O)C([H])(N([H])C(=O)C([H])(N([H])C([H])([H])[H])C([H])([H])[H])C(C([H])([H])[H])(C([H])([H])[H])C([H])([H])[H])C([H])([H])c2c([H])c(OC([H])([H])C([H])([H])N([H])c3c(F)c(N([H])C(=O)N4C([H])([H])C([H])([H])C([H])([H])C([H])(n5nc(-c6c([H])c([H])c(Oc7c([H])c([H])c(F)c([H])c7F)c([H])c6[H])c(C(=O)N([H])[H])c5N([H])[H])C4([H])[H])c([H])c(N(C([H])([H])[H])C([H])([H])[H])c3F)c([H])c([H])c2C1([H])[H]

$$$$
1:0:0
     RDKit          3D

 91 99  0  0  1  0  0  0  0  0999 V2000
  -28.5940  -21.9540   20.0600 N   0  0  0  0  0  0  0  0  0  0  0  0
  -27.5920  -21.9960   20.2350 H   0  0  0  0  0  0  0  0  0  0  0  0
  -30.4170  -20.0060   19.9510 C   0  0  0  0  0  3  0  0  0  0  0  0
  -30.7300  -18.5720   19.9800 C   0  0  0  0  0  3  0  0  0  0  0  0
  -28.1660  -19.5120   20.4350 C   0  0  0  0  0  3  0  0  0  0  0  0
  -29.0990  -20.5580   20.1540 C   0  0  0  0  0  0  0  0  0  0  0  0
  -29.7590  -17.5340   20.2360 C   0  0  0  0  0  0  0  0  0  0  0  0
  -28.4690  -18.1020   20.4870 C   0  0  0  0  0  0  0  0  0  0  0  0
  -27.1720  -17.0310   20.8830 Cl  0  0  0  0  0  0  0  0  0  0  0  0
  -30.6950  -14.9650   19.7540 C   0  0  0  0  0  0  0  0  0  0  0  0
  -30.5330  -12.6770   18.6790 C   0  0  0  0  0  2  0  0  0  0  0  0
  -29.4610  -12.7120   17.5640 C   0  0  0  0  0  2  0  0  0  0  0  0
  -28.0540  -12.4540   18.1410 C   0  0  0  0  0  2  0  0  0  0  0  0
  -27.7790  -13.2880   19.4190 C   0  0  0  0  0  3  0  0  0  0  0  0
  -28.9560  -13.2120   20.4170 C   0  0  0  0  0  2  0  0  0  0  0  0
  -30.1580  -13.6820   19.7110 N   0  0  0  0  0  0  0  0  0  0  0  0
  -31.8180  -15.1480   19.2690 O   0  0  0  0  0  0  0  0  0  0  0  0
  -29.8760  -16.0080   20.2270 N   0  0  0  0  0  0  0  0  0  0  0  0
  -29.0680  -15.6020   20.6760 H   0  0  0  0  0  0  0  0  0  0  0  0
  -25.4830  -13.7800   20.4470 C   0  0  0  0  0  0  0  0  0  0  0  0
  -24.4760  -12.9670   20.8860 C   0  0  0  0  0  0  0  0  0  0  0  0
  -24.9460  -11.6290   20.7080 C   0  0  0  0  0  0  0  0  0  0  0  0
  -26.5040  -12.9390   20.0380 N   0  0  0  0  0  0  0  0  0  0  0  0
  -26.1940  -11.6340   20.2540 N   0  0  0  0  0  0  0  0  0  0  0  0
  -24.2530  -10.3460   20.8890 C   0  0  0  0  0  0  0  0  0  0  0  0
  -24.6500   -9.4260   21.8850 C   0  0  0  0  0  3  0  0  0  0  0  0
  -23.9560   -8.2090   22.0520 C   0  0  0  0  0  3  0  0  0  0  0  0
  -22.8510   -7.9030   21.2220 C   0  0  0  0  0  0  0  0  0  0  0  0
  -22.4750   -8.8110   20.2180 C   0  0  0  0  0  3  0  0  0  0  0  0
  -23.1700  -10.0210   20.0490 C   0  0  0  0  0  3  0  0  0  0  0  0
  -22.1330   -6.7330   21.2950 O   0  0  0  0  0  0  0  0  0  0  0  0
  -21.8420   -6.1410   22.4980 C   0  0  0  0  0  0  0  0  0  0  0  0
  -21.1100   -6.8130   23.5000 C   0  0  0  0  0  3  0  0  0  0  0  0
  -20.7730   -6.1430   24.6950 C   0  0  0  0  0  3  0  0  0  0  0  0
  -21.1580   -4.8030   24.8830 C   0  0  0  0  0  0  0  0  0  0  0  0
  -21.8820   -4.1310   23.8830 C   0  0  0  0  0  3  0  0  0  0  0  0
  -22.2200   -4.7970   22.6920 C   0  0  0  0  0  0  0  0  0  0  0  0
  -22.9000   -4.1380   21.7230 F   0  0  0  0  0  0  0  0  0  0  0  0
  -20.8270   -4.1570   26.0260 F   0  0  0  0  0  0  0  0  0  0  0  0
  -23.1170  -13.4030   21.3490 C   0  0  0  0  0  0  0  0  0  0  0  0
  -22.5100  -12.6530   22.2600 N   0  0  0  0  0  0  0  0  0  0  0  0
  -22.6050  -14.4450   20.9380 O   0  0  0  0  0  0  0  0  0  0  0  0
  -22.9390  -11.8090   22.6120 H   0  0  0  0  0  0  0  0  0  0  0  0
  -21.6030  -12.9250   22.6130 H   0  0  0  0  0  0  0  0  0  0  0  0
  -25.6040  -15.1600   20.3380 N   0  0  0  0  0  0  0  0  0  0  0  0
  -24.8570  -15.7880   20.6110 H   0  0  0  0  0  0  0  0  0  0  0  0
  -26.4190  -15.6480   19.9890 H   0  0  0  0  0  0  0  0  0  0  0  0
  -30.0540  -23.6380   21.2050 C   0  0  0  0  0  1  0  0  0  0  0  0
  -29.1660  -23.3930   19.9810 C   0  0  0  0  0  3  0  0  0  0  0  0
  -28.0950  -24.6810   19.8130 C   0  0  0  0  0  2  0  0  0  0  0  0
  -28.3730  -26.2070   19.8680 O   0  0  0  0  0  0  0  0  0  0  0  0
  -24.6890  -31.7290   23.0580 C   0  0  0  0  0  0  0  0  0  0  0  0
  -27.2950  -27.1620   19.8540 C   0  0  0  0  0  0  0  0  0  0  0  0
  -23.4910  -30.3800   21.3800 C   0  0  0  0  0  3  0  0  0  0  0  0
  -24.9440  -28.8710   19.8960 C   0  0  0  0  0  0  0  0  0  0  0  0
  -26.0400  -30.6790   21.2070 C   0  0  0  0  0  2  0  0  0  0  0  0
  -26.1230  -29.3120   20.5090 C   0  0  0  0  0  0  0  0  0  0  0  0
  -27.3000  -28.4750   20.4700 C   0  0  0  0  0  3  0  0  0  0  0  0
  -26.0840  -26.8190   19.2090 C   0  0  0  0  0  3  0  0  0  0  0  0
  -24.9360  -27.6370   19.2320 C   0  0  0  0  0  3  0  0  0  0  0  0
  -23.7090  -29.7530   19.9780 C   0  0  0  0  0  2  0  0  0  0  0  0
  -24.7600  -30.9480   21.9370 N   0  0  0  0  0  0  0  0  0  0  0  0
  -23.6040  -31.9870   23.6010 O   0  0  0  0  0  0  0  0  0  0  0  0
  -22.8270  -29.3340   22.3100 C   0  0  0  0  0  0  0  0  0  0  0  0
  -21.5000  -29.1610   22.1890 N   0  0  0  0  0  0  0  0  0  0  0  0
  -23.5090  -28.6820   23.1050 O   0  0  0  0  0  0  0  0  0  0  0  0
  -21.0060  -29.7400   21.5240 H   0  0  0  0  0  0  0  0  0  0  0  0
  -18.1150  -27.9930   22.7460 C   0  0  0  0  0  0  0  0  0  0  0  0
  -20.6870  -28.1940   22.9330 C   0  0  0  0  0  3  0  0  0  0  0  0
  -20.7410  -26.7960   22.2720 C   0  0  0  0  0  2  0  0  0  0  0  0
  -19.5960  -26.5530   21.2820 C   0  0  0  0  0  2  0  0  0  0  0  0
  -18.2420  -26.6830   21.9840 C   0  0  0  0  0  2  0  0  0  0  0  0
  -19.2640  -28.7090   23.1770 C   0  0  0  0  0  0  0  0  0  0  0  0
  -19.0900  -29.9360   23.8520 C   0  0  0  0  0  3  0  0  0  0  0  0
  -17.8000  -30.4470   24.0990 C   0  0  0  0  0  3  0  0  0  0  0  0
  -16.6690  -29.7260   23.6820 C   0  0  0  0  0  3  0  0  0  0  0  0
  -16.8270  -28.5000   23.0100 C   0  0  0  0  0  3  0  0  0  0  0  0
  -25.9660  -32.3540   23.6980 C   0  0  0  0  0  3  0  0  0  0  0  0
  -26.4870  -31.5490   24.9530 C   0  0  1  0  0  0  0  0  0  0  0  0
  -25.3920  -31.2680   26.0100 C   0  0  0  0  0  1  0  0  0  0  0  0
  -27.0850  -30.1900   24.5260 C   0  0  0  0  0  1  0  0  0  0  0  0
  -27.6260  -32.3360   25.6430 C   0  0  0  0  0  1  0  0  0  0  0  0
  -25.6460  -33.7390   24.0740 N   0  0  0  0  0  0  0  0  0  0  0  0
  -25.9450  -34.8190   23.3400 C   0  0  0  0  0  0  0  0  0  0  0  0
  -26.5870  -34.7530   22.2870 O   0  0  0  0  0  0  0  0  0  0  0  0
  -25.0730  -33.8630   24.8950 H   0  0  0  0  0  0  0  0  0  0  0  0
  -24.1820  -36.5990   23.0980 C   0  0  0  0  0  1  0  0  0  0  0  0
  -25.4570  -36.1890   23.8520 C   0  0  0  0  0  3  0  0  0  0  0  0
  -27.6020  -37.0920   24.6370 C   0  0  0  0  0  1  0  0  0  0  0  0
  -26.4720  -37.2590   23.7290 N   0  0  0  0  0  0  0  0  0  0  0  0
  -26.0560  -38.1710   23.9030 H   0  0  0  0  0  0  0  0  0  0  0  0
  1  6  1  0
  1  2  1  0
  3  4  2  0
  3  6  1  0
  4  7  1  0
  5  8  1  0
  6  5  2  0
  7  8  2  0
  8  9  1  0
 10 18  1  0
 11 16  1  0
 12 13  1  0
 12 11  1  0
 14 13  1  0
 14 23  1  0
 14 15  1  0
 16 10  1  0
 16 15  1  0
 17 10  2  0
 18  7  1  0
 18 19  1  0
 20 21  2  0
 21 40  1  0
 22 21  1  0
 22 25  1  0
 23 24  1  0
 23 20  1  0
 24 22  2  0
 25 26  1  0
 26 27  2  0
 28 31  1  0
 28 27  1  0
 29 28  2  0
 30 29  1  0
 30 25  2  0
 31 32  1  0
 32 37  2  0
 32 33  1  0
 33 34  2  0
 34 35  1  0
 35 39  1  0
 36 35  2  0
 37 36  1  0
 38 37  1  0
 40 41  1  0
 41 43  1  0
 41 44  1  0
 42 40  2  0
 45 20  1  0
 45 46  1  0
 47 45  1  0
 49  1  1  0
 49 48  1  0
 50 51  1  0
 50 49  1  0
 52 63  2  0
 53 51  1  0
 53 58  1  0
 54 62  1  0
 54 64  1  0
 55 61  1  0
 55 57  1  0
 56 62  1  0
 57 56  1  0
 58 57  2  0
 59 60  1  0
 59 53  2  0
 60 55  2  0
 61 54  1  0
 62 52  1  0
 64 66  2  0
 65 64  1  0
 67 65  1  0
 68 77  2  0
 68 73  1  0
 69 65  1  0
 69 73  1  0
 70 69  1  0
 71 72  1  0
 71 70  1  0
 72 68  1  0
 73 74  2  0
 74 75  1  0
 76 75  2  0
 77 76  1  0
 78 52  1  0
 78 83  1  0
 78 79  1  0
 79 82  1  1
 79 80  1  0
 81 79  1  0
 83 86  1  0
 84 88  1  0
 84 83  1  0
 85 84  2  0
 88 87  1  0
 90 88  1  0
 90 91  1  0
 90 89  1  0
M  ISO  4  10 100  18 100  50 101  51 101
M  END
>  <TORSDO>  (2) 
F 19

>  <SCORE>  (2) 
-12.417

>  <name>  (2) 
1

>  <ligand_id>  (2) 
1

>  <original_smiles>  (2) 
[H]c1c([H])c([H])c2c(c1[H])C([H])([H])C([H])([H])C([H])([H])C2([H])N([H])C(=O)C1([H])N(C(=O)C([H])(N([H])C(=O)C([H])(N([H])C([H])([H])[H])C([H])([H])[H])C(C([H])([H])[H])(C([H])([H])[H])C([H])([H])[H])C([H])([H])c2c([H])c(OC([H])([H])C([H])(N([H])c3c([H])c([H])c(N([H])C(=O)N4C([H])([H])C([H])([H])C([H])([H])C([H])(n5nc(-c6c([H])c([H])c(Oc7c([H])c([H])c(F)c([H])c7F)c([H])c6[H])c(C(=O)N([H])[H])c5N([H])[H])C4([H])[H])c(Cl)c3[H])C([H])([H])[H])c([H])c([H])c2C1([H])[H]

>  <smiles>  (2) 
[H]c1c([H])c([H])c2c(c1[H])C([H])([H])C([H])([H])C([H])([H])C2([H])N([H])C(=O)C1([H])N(C(=O)C([H])(N([H])C(=O)C([H])(N([H])C([H])([H])[H])C([H])([H])[H])C(C([H])([H])[H])(C([H])([H])[H])C([H])([H])[H])C([H])([H])c2c([H])c(OC([H])([H])C([H])(N([H])c3c([H])c([H])c(N([H])C(=O)N4C([H])([H])C([H])([H])C([H])([H])C([H])(n5nc(-c6c([H])c([H])c(Oc7c([H])c([H])c(F)c([H])c7F)c([H])c6[H])c(C(=O)N([H])[H])c5N([H])[H])C4([H])[H])c(Cl)c3[H])C([H])([H])[H])c([H])c([H])c2C1([H])[H]

$$$$
2:0:0
     RDKit          3D

 92100  0  0  1  0  0  0  0  0999 V2000
  -31.8490  -19.5690   20.4430 C   0  0  0  0  0  3  0  0  0  0  0  0
  -31.4370  -18.2160   20.4760 C   0  0  0  0  0  3  0  0  0  0  0  0
  -30.9500  -20.6580   20.3850 C   0  0  0  0  0  3  0  0  0  0  0  0
  -30.0790  -17.8320   20.4370 C   0  0  0  0  0  0  0  0  0  0  0  0
  -29.5480  -20.4830   20.3790 C   0  0  0  0  0  0  0  0  0  0  0  0
  -29.1510  -19.0200   20.3910 C   0  0  0  0  0  0  0  0  0  0  0  0
  -30.5100  -15.0850   20.3210 C   0  0  0  0  0  0  0  0  0  0  0  0
  -30.3880  -12.7200   19.3700 C   0  0  0  0  0  2  0  0  0  0  0  0
  -29.4450  -12.6450   18.1480 C   0  0  0  0  0  2  0  0  0  0  0  0
  -27.9910  -12.4080   18.5980 C   0  0  0  0  0  2  0  0  0  0  0  0
  -27.5850  -13.3260   19.7810 C   0  0  0  0  0  3  0  0  0  0  0  0
  -28.6550  -13.3710   20.8910 C   0  0  0  0  0  2  0  0  0  0  0  0
  -29.9050  -13.8200   20.2620 N   0  0  0  0  0  0  0  0  0  0  0  0
  -31.7160  -15.1040   20.0480 O   0  0  0  0  0  0  0  0  0  0  0  0
  -29.7480  -16.3040   20.4620 N   0  0  0  0  0  0  0  0  0  0  0  0
  -28.7660  -16.1180   20.5820 H   0  0  0  0  0  0  0  0  0  0  0  0
  -25.2140  -13.8710   20.5620 C   0  0  0  0  0  0  0  0  0  0  0  0
  -24.1600  -13.0830   20.9310 C   0  0  0  0  0  0  0  0  0  0  0  0
  -24.6340  -11.7360   20.8780 C   0  0  0  0  0  0  0  0  0  0  0  0
  -26.2600  -13.0040   20.2950 N   0  0  0  0  0  0  0  0  0  0  0  0
  -25.9220  -11.7140   20.5530 N   0  0  0  0  0  0  0  0  0  0  0  0
  -23.9170  -10.4660   21.0580 C   0  0  0  0  0  0  0  0  0  0  0  0
  -24.3590   -9.4900   21.9780 C   0  0  0  0  0  3  0  0  0  0  0  0
  -23.6390   -8.2880   22.1480 C   0  0  0  0  0  3  0  0  0  0  0  0
  -22.4630   -8.0530   21.3970 C   0  0  0  0  0  0  0  0  0  0  0  0
  -22.0400   -9.0170   20.4660 C   0  0  0  0  0  3  0  0  0  0  0  0
  -22.7610  -10.2110   20.2930 C   0  0  0  0  0  3  0  0  0  0  0  0
  -21.7140   -6.9030   21.4770 O   0  0  0  0  0  0  0  0  0  0  0  0
  -21.6670   -6.1540   22.6250 C   0  0  0  0  0  0  0  0  0  0  0  0
  -21.2130   -6.6930   23.8480 C   0  0  0  0  0  3  0  0  0  0  0  0
  -21.1150   -5.8690   24.9870 C   0  0  0  0  0  3  0  0  0  0  0  0
  -21.4600   -4.5070   24.9040 C   0  0  0  0  0  0  0  0  0  0  0  0
  -21.9060   -3.9660   23.6850 C   0  0  0  0  0  3  0  0  0  0  0  0
  -22.0070   -4.7880   22.5480 C   0  0  0  0  0  0  0  0  0  0  0  0
  -22.4180   -4.2580   21.3710 F   0  0  0  0  0  0  0  0  0  0  0  0
  -21.3580   -3.7130   25.9960 F   0  0  0  0  0  0  0  0  0  0  0  0
  -22.7630  -13.5490   21.2220 C   0  0  0  0  0  0  0  0  0  0  0  0
  -22.0490  -12.8390   22.0880 N   0  0  0  0  0  0  0  0  0  0  0  0
  -22.3150  -14.5760   20.7170 O   0  0  0  0  0  0  0  0  0  0  0  0
  -22.4250  -12.0090   22.5190 H   0  0  0  0  0  0  0  0  0  0  0  0
  -21.1120  -13.1340   22.3260 H   0  0  0  0  0  0  0  0  0  0  0  0
  -25.3650  -15.2460   20.4010 N   0  0  0  0  0  0  0  0  0  0  0  0
  -24.5940  -15.8910   20.5320 H   0  0  0  0  0  0  0  0  0  0  0  0
  -26.2010  -15.6950   20.0520 H   0  0  0  0  0  0  0  0  0  0  0  0
  -27.2040  -18.8980   19.1000 C   0  0  0  0  0  1  0  0  0  0  0  0
  -27.8150  -18.7110   20.3680 O   0  0  0  0  0  0  0  0  0  0  0  0
  -28.7020  -21.7320   20.3570 N   0  0  0  0  0  0  0  0  0  0  0  0
  -27.7030  -21.5520   20.3740 H   0  0  0  0  0  0  0  0  0  0  0  0
  -29.6130  -23.5180   21.9130 C   0  0  0  0  0  1  0  0  0  0  0  0
  -29.0690  -23.2740   20.4970 C   0  0  0  0  0  3  0  0  0  0  0  0
  -28.0010  -24.5850   20.1890 C   0  0  0  0  0  2  0  0  0  0  0  0
  -28.2570  -26.1350   20.3620 O   0  0  0  0  0  0  0  0  0  0  0  0
  -24.6450  -31.9220   23.2780 C   0  0  0  0  0  0  0  0  0  0  0  0
  -27.2130  -27.1440   20.2860 C   0  0  0  0  0  0  0  0  0  0  0  0
  -23.4520  -30.5310   21.6300 C   0  0  0  0  0  3  0  0  0  0  0  0
  -24.9030  -28.9350   20.2250 C   0  0  0  0  0  0  0  0  0  0  0  0
  -26.0130  -30.7630   21.4980 C   0  0  0  0  0  2  0  0  0  0  0  0
  -26.0830  -29.3660   20.8460 C   0  0  0  0  0  0  0  0  0  0  0  0
  -27.2390  -28.4880   20.8540 C   0  0  0  0  0  3  0  0  0  0  0  0
  -26.0040  -26.8210   19.6330 C   0  0  0  0  0  3  0  0  0  0  0  0
  -24.8790  -27.6780   19.6030 C   0  0  0  0  0  3  0  0  0  0  0  0
  -23.6830  -29.8460   20.2580 C   0  0  0  0  0  2  0  0  0  0  0  0
  -24.7230  -31.0940   22.1900 N   0  0  0  0  0  0  0  0  0  0  0  0
  -23.5540  -32.2200   23.7890 O   0  0  0  0  0  0  0  0  0  0  0  0
  -22.7510  -29.5350   22.5890 C   0  0  0  0  0  0  0  0  0  0  0  0
  -21.4210  -29.3820   22.4530 N   0  0  0  0  0  0  0  0  0  0  0  0
  -23.4080  -28.9010   23.4180 O   0  0  0  0  0  0  0  0  0  0  0  0
  -20.9480  -29.9420   21.7570 H   0  0  0  0  0  0  0  0  0  0  0  0
  -18.0190  -28.2320   22.9430 C   0  0  0  0  0  0  0  0  0  0  0  0
  -20.5820  -28.4560   23.2180 C   0  0  0  0  0  3  0  0  0  0  0  0
  -20.6630  -27.0230   22.6420 C   0  0  0  0  0  2  0  0  0  0  0  0
  -19.5590  -26.7200   21.6220 C   0  0  0  0  0  2  0  0  0  0  0  0
  -18.1770  -26.8820   22.2620 C   0  0  0  0  0  2  0  0  0  0  0  0
  -19.1480  -28.9770   23.3780 C   0  0  0  0  0  0  0  0  0  0  0  0
  -18.9440  -30.2380   23.9770 C   0  0  0  0  0  3  0  0  0  0  0  0
  -17.6460  -30.7560   24.1430 C   0  0  0  0  0  3  0  0  0  0  0  0
  -16.5320  -30.0080   23.7240 C   0  0  0  0  0  3  0  0  0  0  0  0
  -16.7190  -28.7480   23.1290 C   0  0  0  0  0  3  0  0  0  0  0  0
  -25.9190  -32.5500   23.9180 C   0  0  0  0  0  3  0  0  0  0  0  0
  -26.4070  -31.7830   25.2100 C   0  0  1  0  0  0  0  0  0  0  0  0
  -25.2940  -31.5640   26.2600 C   0  0  0  0  0  1  0  0  0  0  0  0
  -26.9840  -30.3970   24.8430 C   0  0  0  0  0  1  0  0  0  0  0  0
  -27.5540  -32.5710   25.8850 C   0  0  0  0  0  1  0  0  0  0  0  0
  -25.6130  -33.9530   24.2440 N   0  0  0  0  0  0  0  0  0  0  0  0
  -25.9330  -35.0040   23.4770 C   0  0  0  0  0  0  0  0  0  0  0  0
  -26.5810  -34.8950   22.4320 O   0  0  0  0  0  0  0  0  0  0  0  0
  -25.0340  -34.1110   25.0550 H   0  0  0  0  0  0  0  0  0  0  0  0
  -24.1840  -36.7920   23.1760 C   0  0  0  0  0  1  0  0  0  0  0  0
  -25.4590  -36.3980   23.9380 C   0  0  0  0  0  3  0  0  0  0  0  0
  -27.6190  -37.3040   24.6770 C   0  0  0  0  0  1  0  0  0  0  0  0
  -26.4830  -37.4540   23.7720 N   0  0  0  0  0  0  0  0  0  0  0  0
  -26.0790  -38.3750   23.9200 H   0  0  0  0  0  0  0  0  0  0  0  0
  1  2  1  0
  3  1  2  0
  4 15  1  0
  4  2  2  0
  5  3  1  0
  5  6  2  0
  6  4  1  0
  7 15  1  0
  8 13  1  0
  9 10  1  0
  9  8  1  0
 11 10  1  0
 11 20  1  0
 11 12  1  0
 13  7  1  0
 13 12  1  0
 14  7  2  0
 15 16  1  0
 17 18  2  0
 18 37  1  0
 19 18  1  0
 19 22  1  0
 20 21  1  0
 20 17  1  0
 21 19  2  0
 22 23  1  0
 23 24  2  0
 25 28  1  0
 25 24  1  0
 26 25  2  0
 27 26  1  0
 27 22  2  0
 28 29  1  0
 29 30  1  0
 30 31  2  0
 32 31  1  0
 32 36  1  0
 33 32  2  0
 34 29  2  0
 34 33  1  0
 35 34  1  0
 37 38  1  0
 38 41  1  0
 38 40  1  0
 39 37  2  0
 42 43  1  0
 42 17  1  0
 44 42  1  0
 45 46  1  0
 46  6  1  0
 47 48  1  0
 47  5  1  0
 47 50  1  0
 50 49  1  0
 51 52  1  0
 51 50  1  0
 53 64  2  0
 54 52  1  0
 54 59  1  0
 55 63  1  0
 55 65  1  0
 56 62  1  0
 56 58  1  0
 57 63  1  0
 58 59  2  0
 58 57  1  0
 60 54  2  0
 61 60  1  0
 61 56  2  0
 62 55  1  0
 63 53  1  0
 65 67  2  0
 66 65  1  0
 68 66  1  0
 69 78  2  0
 69 74  1  0
 70 66  1  0
 70 74  1  0
 71 70  1  0
 72 73  1  0
 72 71  1  0
 73 69  1  0
 74 75  2  0
 75 76  1  0
 77 76  2  0
 78 77  1  0
 79 53  1  0
 79 84  1  0
 79 80  1  0
 80 83  1  1
 80 81  1  0
 82 80  1  0
 84 87  1  0
 85 89  1  0
 85 84  1  0
 86 85  2  0
 89 88  1  0
 91 92  1  0
 91 89  1  0
 91 90  1  0
M  ISO  4   7 100  15 100  51 101  52 101
M  END
>  <TORSDO>  (3) 
F 20

>  <SCORE>  (3) 
-14.707

>  <name>  (3) 
2

>  <ligand_id>  (3) 
2

>  <original_smiles>  (3) 
[H]c1c([H])c(N([H])C(=O)N2C([H])([H])C([H])([H])C([H])([H])C([H])(n3nc(-c4c([H])c([H])c(Oc5c([H])c([H])c(F)c([H])c5F)c([H])c4[H])c(C(=O)N([H])[H])c3N([H])[H])C2([H])[H])c(OC([H])([H])[H])c(N([H])C([H])(C([H])([H])[H])C([H])([H])Oc2c([H])c([H])c3c(c2[H])C([H])([H])N(C(=O)C([H])(N([H])C(=O)C([H])(N([H])C([H])([H])[H])C([H])([H])[H])C(C([H])([H])[H])(C([H])([H])[H])C([H])([H])[H])C([H])(C(=O)N([H])C2([H])c4c([H])c([H])c([H])c([H])c4C([H])([H])C([H])([H])C2([H])[H])C3([H])[H])c1[H]

>  <smiles>  (3) 
[H]c1c([H])c(N([H])C(=O)N2C([H])([H])C([H])([H])C([H])([H])C([H])(n3nc(-c4c([H])c([H])c(Oc5c([H])c([H])c(F)c([H])c5F)c([H])c4[H])c(C(=O)N([H])[H])c3N([H])[H])C2([H])[H])c(OC([H])([H])[H])c(N([H])C([H])(C([H])([H])[H])C([H])([H])Oc2c([H])c([H])c3c(c2[H])C([H])([H])N(C(=O)C([H])(N([H])C(=O)C([H])(N([H])C([H])([H])[H])C([H])([H])[H])C(C([H])([H])[H])(C([H])([H])[H])C([H])([H])[H])C([H])(C(=O)N([H])C2([H])c4c([H])c([H])c([H])c([H])c4C([H])([H])C([H])([H])C2([H])[H])C3([H])[H])c1[H]

$$$$
3:0:0
     RDKit          3D

 96104  0  0  1  0  0  0  0  0999 V2000
  -29.8320  -18.8150   19.8980 C   0  0  0  0  0  3  0  0  0  0  0  0
  -29.4730  -20.1750   20.1240 C   0  0  0  0  0  3  0  0  0  0  0  0
  -31.7790  -20.7700   19.8720 C   0  0  0  0  0  3  0  0  0  0  0  0
  -31.1710  -18.3620   19.6680 C   0  0  0  0  0  0  0  0  0  0  0  0
  -30.4470  -21.2020   20.1230 C   0  0  0  0  0  0  0  0  0  0  0  0
  -32.1570  -19.4000   19.6390 C   0  0  0  0  0  0  0  0  0  0  0  0
  -29.0250  -23.3420   20.6050 C   0  0  0  0  0  0  0  0  0  0  0  0
  -27.6540  -25.2250   19.7410 C   0  0  0  0  0  2  0  0  0  0  0  0
  -27.4430  -24.9710   18.2320 C   0  0  0  0  0  2  0  0  0  0  0  0
  -28.6060  -25.5550   17.4040 C   0  0  0  0  0  2  0  0  0  0  0  0
  -29.9910  -25.1540   17.9790 C   0  0  0  0  0  3  0  0  0  0  0  0
  -30.0550  -25.3730   19.5090 C   0  0  0  0  0  2  0  0  0  0  0  0
  -28.9490  -24.6210   20.1170 N   0  0  0  0  0  0  0  0  0  0  0  0
  -28.0720  -22.8330   21.2060 O   0  0  0  0  0  0  0  0  0  0  0  0
  -30.1580  -22.6360   20.2740 N   0  0  0  0  0  0  0  0  0  0  0  0
  -30.8920  -23.2400   19.9300 H   0  0  0  0  0  0  0  0  0  0  0  0
  -32.2350  -25.2870   16.7390 C   0  0  0  0  0  0  0  0  0  0  0  0
  -32.8950  -26.3290   16.1460 C   0  0  0  0  0  0  0  0  0  0  0  0
  -32.0840  -27.4850   16.3660 C   0  0  0  0  0  0  0  0  0  0  0  0
  -31.0830  -25.8270   17.2860 N   0  0  0  0  0  0  0  0  0  0  0  0
  -31.0270  -27.1720   17.1050 N   0  0  0  0  0  0  0  0  0  0  0  0
  -32.2180  -28.8580   15.8590 C   0  0  0  0  0  0  0  0  0  0  0  0
  -32.1800  -29.9750   16.7220 C   0  0  0  0  0  3  0  0  0  0  0  0
  -32.3300  -31.2830   16.2140 C   0  0  0  0  0  3  0  0  0  0  0  0
  -32.5250  -31.4860   14.8270 C   0  0  0  0  0  0  0  0  0  0  0  0
  -32.5360  -30.3740   13.9640 C   0  0  0  0  0  3  0  0  0  0  0  0
  -32.3820  -29.0740   14.4750 C   0  0  0  0  0  3  0  0  0  0  0  0
  -32.6540  -32.7230   14.2420 O   0  0  0  0  0  0  0  0  0  0  0  0
  -33.0870  -33.8140   14.9520 C   0  0  0  0  0  0  0  0  0  0  0  0
  -34.3340  -33.8240   15.6160 C   0  0  0  0  0  3  0  0  0  0  0  0
  -34.7700  -34.9890   16.2770 C   0  0  0  0  0  3  0  0  0  0  0  0
  -33.9690  -36.1480   16.2630 C   0  0  0  0  0  0  0  0  0  0  0  0
  -32.7320  -36.1430   15.5950 C   0  0  0  0  0  3  0  0  0  0  0  0
  -32.2940  -34.9800   14.9400 C   0  0  0  0  0  0  0  0  0  0  0  0
  -31.1090  -34.9840   14.2820 F   0  0  0  0  0  0  0  0  0  0  0  0
  -34.3920  -37.2700   16.8890 F   0  0  0  0  0  0  0  0  0  0  0  0
  -34.1550  -26.2440   15.3310 C   0  0  0  0  0  0  0  0  0  0  0  0
  -34.9770  -27.2870   15.3670 N   0  0  0  0  0  0  0  0  0  0  0  0
  -34.4410  -25.2300   14.6960 O   0  0  0  0  0  0  0  0  0  0  0  0
  -34.7510  -28.1110   15.9010 H   0  0  0  0  0  0  0  0  0  0  0  0
  -35.8440  -27.2620   14.8530 H   0  0  0  0  0  0  0  0  0  0  0  0
  -32.4970  -23.9250   16.8410 N   0  0  0  0  0  0  0  0  0  0  0  0
  -33.2580  -23.4850   16.3380 H   0  0  0  0  0  0  0  0  0  0  0  0
  -31.8330  -23.2530   17.2070 H   0  0  0  0  0  0  0  0  0  0  0  0
  -31.3960  -16.8430   19.3960 C   0  0  0  0  0  0  0  0  0  0  0  0
  -32.6300  -16.2530   19.3890 N   0  0  0  0  0  0  0  0  0  0  0  0
  -30.4010  -16.1250   19.2640 O   0  0  0  0  0  0  0  0  0  0  0  0
  -33.4150  -16.8930   19.4180 H   0  0  0  0  0  0  0  0  0  0  0  0
  -32.9240  -14.7670   19.4840 C   0  0  0  0  0  3  0  0  0  0  0  0
  -34.0570  -14.1760   18.5520 C   0  0  0  0  0  3  0  0  0  0  0  0
  -34.5260  -12.7930   18.8200 O   0  0  0  0  0  0  0  0  0  0  0  0
  -41.2480  -10.6720   17.2360 C   0  0  0  0  0  0  0  0  0  0  0  0
  -35.4080  -12.2090   17.8960 C   0  0  0  0  0  0  0  0  0  0  0  0
  -39.6870  -10.9130   15.3400 C   0  0  0  0  0  3  0  0  0  0  0  0
  -37.2160  -11.1490   15.9530 C   0  0  0  0  0  0  0  0  0  0  0  0
  -38.8140  -10.3230   17.6810 C   0  0  0  0  0  2  0  0  0  0  0  0
  -37.5080  -11.0180   17.3170 C   0  0  0  0  0  0  0  0  0  0  0  0
  -36.6070  -11.5380   18.2900 C   0  0  0  0  0  3  0  0  0  0  0  0
  -35.1310  -12.2700   16.5100 C   0  0  0  0  0  3  0  0  0  0  0  0
  -36.0240  -11.7660   15.5460 C   0  0  0  0  0  3  0  0  0  0  0  0
  -38.2190  -10.6010   14.9580 C   0  0  0  0  0  2  0  0  0  0  0  0
  -39.9590  -10.6520   16.7890 N   0  0  0  0  0  0  0  0  0  0  0  0
  -42.1960  -10.8650   16.4620 O   0  0  0  0  0  0  0  0  0  0  0  0
  -40.0270  -12.3590   14.9050 C   0  0  0  0  0  0  0  0  0  0  0  0
  -40.3050  -12.5530   13.6040 N   0  0  0  0  0  0  0  0  0  0  0  0
  -40.0070  -13.2830   15.7210 O   0  0  0  0  0  0  0  0  0  0  0  0
  -40.2980  -11.7440   12.9970 H   0  0  0  0  0  0  0  0  0  0  0  0
  -41.1230  -14.1420   10.4620 C   0  0  0  0  0  0  0  0  0  0  0  0
  -40.6220  -13.8380   12.9760 C   0  0  0  0  0  3  0  0  0  0  0  0
  -39.3400  -14.6590   12.7170 C   0  0  0  0  0  2  0  0  0  0  0  0
  -38.7580  -14.4490   11.3140 C   0  0  0  0  0  2  0  0  0  0  0  0
  -39.7870  -14.8320   10.2470 C   0  0  0  0  0  2  0  0  0  0  0  0
  -41.5090  -13.6640   11.7410 C   0  0  0  0  0  0  0  0  0  0  0  0
  -42.7500  -13.0100   11.8860 C   0  0  0  0  0  3  0  0  0  0  0  0
  -43.5980  -12.8200   10.7770 C   0  0  0  0  0  3  0  0  0  0  0  0
  -43.2170  -13.3080    9.5140 C   0  0  0  0  0  3  0  0  0  0  0  0
  -41.9880  -13.9730    9.3600 C   0  0  0  0  0  3  0  0  0  0  0  0
  -41.5930  -10.4240   18.7370 C   0  0  0  0  0  3  0  0  0  0  0  0
  -42.8660   -9.6910   18.7810 N   0  0  0  0  0  0  0  0  0  0  0  0
  -42.9740   -8.3650   18.9370 C   0  0  0  0  0  0  0  0  0  0  0  0
  -41.9990   -7.6340   19.1340 O   0  0  0  0  0  0  0  0  0  0  0  0
  -43.6990  -10.2180   18.5700 H   0  0  0  0  0  0  0  0  0  0  0  0
  -44.6140   -7.1440   17.4740 C   0  0  0  0  0  1  0  0  0  0  0  0
  -44.3860   -7.7550   18.8660 C   0  0  0  0  0  3  0  0  0  0  0  0
  -44.6940   -7.2810   21.2550 C   0  0  0  0  0  1  0  0  0  0  0  0
  -44.6370   -6.7310   19.9040 N   0  0  0  0  0  0  0  0  0  0  0  0
  -45.5090   -6.2400   19.7210 H   0  0  0  0  0  0  0  0  0  0  0  0
  -41.6970  -11.7550   19.5820 C   0  0  1  0  0  0  0  0  0  0  0  0
  -42.6300  -12.8160   18.9520 C   0  0  0  0  0  1  0  0  0  0  0  0
  -40.3020  -12.4010   19.7700 C   0  0  0  0  0  1  0  0  0  0  0  0
  -42.2240  -11.4330   20.9990 C   0  0  0  0  0  1  0  0  0  0  0  0
  -33.5150  -19.1360   19.3370 N   0  0  0  0  0  0  0  0  0  0  0  0
  -35.1320  -18.9030   17.4290 C   0  0  0  0  0  1  0  0  0  0  0  0
  -33.9540  -19.6750   18.0430 C   0  0  0  0  0  2  0  0  0  0  0  0
  -34.8810  -20.6500   20.8470 C   0  0  0  0  0  1  0  0  0  0  0  0
  -34.4430  -19.2190   20.4730 C   0  0  0  0  0  2  0  0  0  0  0  0
  1  2  1  0
  3  5  1  0
  4  1  2  0
  5  2  2  0
  5 15  1  0
  6  4  1  0
  6  3  2  0
  7 14  2  0
  8 13  1  0
  9  8  1  0
 10 11  1  0
 10  9  1  0
 11 20  1  0
 11 12  1  0
 12 13  1  0
 13  7  1  0
 15  7  1  0
 16 15  1  0
 17 42  1  0
 17 20  1  0
 18 19  1  0
 18 17  2  0
 19 21  2  0
 21 20  1  0
 22 19  1  0
 22 23  1  0
 24 23  2  0
 25 24  1  0
 26 27  1  0
 26 25  2  0
 27 22  2  0
 28 25  1  0
 28 29  1  0
 29 30  1  0
 30 31  2  0
 32 31  1  0
 32 36  1  0
 33 32  2  0
 34 29  2  0
 34 33  1  0
 35 34  1  0
 37 38  1  0
 37 18  1  0
 38 40  1  0
 39 37  2  0
 41 38  1  0
 42 44  1  0
 43 42  1  0
 45  4  1  0
 46 45  1  0
 46 48  1  0
 46 49  1  0
 47 45  2  0
 50 51  1  0
 50 49  2  0
 53 58  1  0
 53 51  1  0
 54 64  1  0
 54 62  1  0
 55 57  1  0
 57 56  1  0
 57 58  2  0
 59 53  2  0
 60 55  2  0
 60 59  1  0
 61 54  1  0
 61 55  1  0
 62 52  1  0
 62 56  1  0
 63 52  2  0
 64 66  2  0
 65 64  1  0
 67 65  1  0
 68 73  1  0
 69 65  1  0
 70 69  1  0
 71 70  1  0
 72 68  1  0
 72 71  1  0
 73 74  2  0
 73 69  1  0
 75 74  1  0
 76 75  2  0
 77 76  1  0
 77 68  2  0
 78 52  1  0
 78 79  1  0
 78 88  1  0
 79 80  1  0
 80 81  2  0
 82 79  1  0
 84 83  1  0
 84 80  1  0
 84 86  1  0
 86 85  1  0
 87 86  1  0
 88 90  1  1
 88 91  1  0
 89 88  1  0
 92  6  1  0
 92 96  1  0
 93 94  1  0
 94 92  1  0
 96 95  1  0
M  ISO  4   7 100  15 100  50 101  51 101
M  END
>  <TORSDO>  (4) 
F 22

>  <SCORE>  (4) 
-3.380

>  <name>  (4) 
3

>  <ligand_id>  (4) 
3

>  <original_smiles>  (4) 
[H]c1c([H])c([H])c2c(c1[H])C([H])([H])C([H])([H])C([H])([H])C2([H])N([H])C(=O)C1([H])N(C(=O)C([H])(N([H])C(=O)C([H])(N([H])C([H])([H])[H])C([H])([H])[H])C(C([H])([H])[H])(C([H])([H])[H])C([H])([H])[H])C([H])([H])c2c([H])c(OC([H])([H])C([H])([H])N([H])C(=O)c3c([H])c([H])c(N([H])C(=O)N4C([H])([H])C([H])([H])C([H])([H])C([H])(n5nc(-c6c([H])c([H])c(Oc7c([H])c([H])c(F)c([H])c7F)c([H])c6[H])c(C(=O)N([H])[H])c5N([H])[H])C4([H])[H])c([H])c3N(C([H])([H])C([H])([H])[H])C([H])([H])C([H])([H])[H])c([H])c([H])c2C1([H])[H]

>  <smiles>  (4) 
[H]c1c([H])c([H])c2c(c1[H])C([H])([H])C([H])([H])C([H])([H])C2([H])N([H])C(=O)C1([H])N(C(=O)C([H])(N([H])C(=O)C([H])(N([H])C([H])([H])[H])C([H])([H])[H])C(C([H])([H])[H])(C([H])([H])[H])C([H])([H])[H])C([H])([H])c2c([H])c(OC([H])([H])C([H])([H])N([H])C(=O)c3c([H])c([H])c(N([H])C(=O)N4C([H])([H])C([H])([H])C([H])([H])C([H])(n5nc(-c6c([H])c([H])c(Oc7c([H])c([H])c(F)c([H])c7F)c([H])c6[H])c(C(=O)N([H])[H])c5N([H])[H])C4([H])[H])c([H])c3N(C([H])([H])C([H])([H])[H])C([H])([H])C([H])([H])[H])c([H])c([H])c2C1([H])[H]

$$$$
4:0:0
     RDKit          3D

 96104  0  0  1  0  0  0  0  0999 V2000
  -29.4180  -21.3320   22.6600 C   0  0  0  0  0  0  0  0  0  0  0  0
  -29.1830  -20.6860   21.5030 N   0  0  0  0  0  0  0  0  0  0  0  0
  -30.0920  -20.8770   23.5860 O   0  0  0  0  0  0  0  0  0  0  0  0
  -28.6510  -21.2110   20.8210 H   0  0  0  0  0  0  0  0  0  0  0  0
  -29.2510  -18.9860   19.7810 C   0  0  0  0  0  3  0  0  0  0  0  0
  -30.4800  -18.5580   21.8380 C   0  0  0  0  0  3  0  0  0  0  0  0
  -29.6890  -17.7510   19.2700 C   0  0  0  0  0  3  0  0  0  0  0  0
  -30.9190  -17.3190   21.3260 C   0  0  0  0  0  3  0  0  0  0  0  0
  -29.6540  -19.4130   21.0640 C   0  0  0  0  0  0  0  0  0  0  0  0
  -30.5290  -16.9150   20.0310 C   0  0  0  0  0  0  0  0  0  0  0  0
  -31.6850  -14.7080   19.9080 C   0  0  0  0  0  0  0  0  0  0  0  0
  -31.3060  -12.4490   19.0450 C   0  0  0  0  0  2  0  0  0  0  0  0
  -30.3360  -12.5810   17.8530 C   0  0  0  0  0  2  0  0  0  0  0  0
  -28.8750  -12.5280   18.3420 C   0  0  0  0  0  2  0  0  0  0  0  0
  -28.5920  -13.4930   19.5220 C   0  0  0  0  0  3  0  0  0  0  0  0
  -29.6880  -13.3770   20.6120 C   0  0  0  0  0  2  0  0  0  0  0  0
  -31.0000  -13.5420   19.9670 N   0  0  0  0  0  0  0  0  0  0  0  0
  -32.8870  -14.7870   19.6450 O   0  0  0  0  0  0  0  0  0  0  0  0
  -30.9060  -15.6880   19.4400 N   0  0  0  0  0  0  0  0  0  0  0  0
  -30.8300  -15.6650   18.4340 H   0  0  0  0  0  0  0  0  0  0  0  0
  -26.2930  -14.2520   20.3820 C   0  0  0  0  0  0  0  0  0  0  0  0
  -25.1830  -13.5460   20.7650 C   0  0  0  0  0  0  0  0  0  0  0  0
  -25.5340  -12.1670   20.6540 C   0  0  0  0  0  0  0  0  0  0  0  0
  -27.2510  -13.3020   20.0640 N   0  0  0  0  0  0  0  0  0  0  0  0
  -26.8010  -12.0400   20.2850 N   0  0  0  0  0  0  0  0  0  0  0  0
  -24.7210  -10.9560   20.8200 C   0  0  0  0  0  0  0  0  0  0  0  0
  -25.0620   -9.9630   21.7640 C   0  0  0  0  0  3  0  0  0  0  0  0
  -24.2560   -8.8140   21.9180 C   0  0  0  0  0  3  0  0  0  0  0  0
  -23.0960   -8.6510   21.1260 C   0  0  0  0  0  0  0  0  0  0  0  0
  -22.7740   -9.6310   20.1710 C   0  0  0  0  0  3  0  0  0  0  0  0
  -23.5800  -10.7710   20.0140 C   0  0  0  0  0  3  0  0  0  0  0  0
  -22.2670   -7.5570   21.1900 O   0  0  0  0  0  0  0  0  0  0  0  0
  -22.0260   -6.9040   22.3720 C   0  0  0  0  0  0  0  0  0  0  0  0
  -21.4860   -7.5690   23.4930 C   0  0  0  0  0  3  0  0  0  0  0  0
  -21.1900   -6.8440   24.6650 C   0  0  0  0  0  3  0  0  0  0  0  0
  -21.4250   -5.4570   24.7170 C   0  0  0  0  0  0  0  0  0  0  0  0
  -21.9590   -4.7920   23.5980 C   0  0  0  0  0  3  0  0  0  0  0  0
  -22.2550   -5.5130   22.4280 C   0  0  0  0  0  0  0  0  0  0  0  0
  -22.7510   -4.8640   21.3480 F   0  0  0  0  0  0  0  0  0  0  0  0
  -21.1330   -4.7610   25.8390 F   0  0  0  0  0  0  0  0  0  0  0  0
  -23.8420  -14.1110   21.1310 C   0  0  0  0  0  0  0  0  0  0  0  0
  -23.1200  -13.4430   22.0250 N   0  0  0  0  0  0  0  0  0  0  0  0
  -23.4470  -15.1780   20.6620 O   0  0  0  0  0  0  0  0  0  0  0  0
  -23.4510  -12.5770   22.4210 H   0  0  0  0  0  0  0  0  0  0  0  0
  -22.2200  -13.8020   22.3140 H   0  0  0  0  0  0  0  0  0  0  0  0
  -26.5640  -15.6140   20.2630 N   0  0  0  0  0  0  0  0  0  0  0  0
  -25.8870  -16.3370   20.4760 H   0  0  0  0  0  0  0  0  0  0  0  0
  -27.4710  -15.9830   20.0020 H   0  0  0  0  0  0  0  0  0  0  0  0
  -28.7930  -22.7220   22.8280 C   0  0  0  0  0  2  0  0  0  0  0  0
  -29.7440  -23.8720   22.4300 C   0  0  0  0  0  2  0  0  0  0  0  0
  -29.8780  -25.5070   20.5750 C   0  0  0  0  0  0  0  0  0  0  0  0
  -29.5670  -24.2910   21.0390 N   0  0  0  0  0  0  0  0  0  0  0  0
  -30.5450  -26.3140   21.2340 O   0  0  0  0  0  0  0  0  0  0  0  0
  -29.0700  -23.6720   20.4120 H   0  0  0  0  0  0  0  0  0  0  0  0
  -29.3380  -25.8770   19.1860 C   0  0  0  0  0  2  0  0  0  0  0  0
  -29.0560  -27.2830   19.1450 O   0  0  0  0  0  0  0  0  0  0  0  0
  -24.6560  -31.3920   22.9310 C   0  0  0  0  0  0  0  0  0  0  0  0
  -27.7620  -27.7310   19.3040 C   0  0  0  0  0  0  0  0  0  0  0  0
  -23.5820  -30.0130   21.1740 C   0  0  0  0  0  3  0  0  0  0  0  0
  -25.1730  -28.8490   19.5540 C   0  0  0  0  0  0  0  0  0  0  0  0
  -26.0210  -30.7460   20.9480 C   0  0  0  0  0  2  0  0  0  0  0  0
  -26.2670  -29.4740   20.1640 C   0  0  0  0  0  0  0  0  0  0  0  0
  -27.5590  -28.9190   20.0390 C   0  0  0  0  0  3  0  0  0  0  0  0
  -26.6480  -27.1060   18.6980 C   0  0  0  0  0  3  0  0  0  0  0  0
  -25.3580  -27.6600   18.8230 C   0  0  0  0  0  3  0  0  0  0  0  0
  -23.8250  -29.5160   19.7240 C   0  0  0  0  0  2  0  0  0  0  0  0
  -24.7710  -30.7280   21.7450 N   0  0  0  0  0  0  0  0  0  0  0  0
  -23.5720  -31.4530   23.5270 O   0  0  0  0  0  0  0  0  0  0  0  0
  -23.1210  -28.8170   22.0370 C   0  0  0  0  0  0  0  0  0  0  0  0
  -21.8380  -28.4420   21.8980 N   0  0  0  0  0  0  0  0  0  0  0  0
  -23.9090  -28.2320   22.7830 O   0  0  0  0  0  0  0  0  0  0  0  0
  -21.2540  -28.9770   21.2720 H   0  0  0  0  0  0  0  0  0  0  0  0
  -18.7120  -26.6630   22.2550 C   0  0  0  0  0  0  0  0  0  0  0  0
  -21.1910  -27.3200   22.5760 C   0  0  0  0  0  3  0  0  0  0  0  0
  -21.5270  -25.9800   21.8800 C   0  0  0  0  0  2  0  0  0  0  0  0
  -20.4900  -25.5610   20.8350 C   0  0  0  0  0  2  0  0  0  0  0  0
  -19.1060  -25.4210   21.4740 C   0  0  0  0  0  2  0  0  0  0  0  0
  -19.6890  -27.5600   22.7600 C   0  0  0  0  0  0  0  0  0  0  0  0
  -19.2630  -28.7150   23.4480 C   0  0  0  0  0  3  0  0  0  0  0  0
  -17.8910  -28.9730   23.6430 C   0  0  0  0  0  3  0  0  0  0  0  0
  -16.9290  -28.0730   23.1570 C   0  0  0  0  0  3  0  0  0  0  0  0
  -17.3400  -26.9190   22.4660 C   0  0  0  0  0  3  0  0  0  0  0  0
  -25.8700  -32.1290   23.5790 C   0  0  0  0  0  3  0  0  0  0  0  0
  -25.4110  -33.4610   23.9980 N   0  0  0  0  0  0  0  0  0  0  0  0
  -25.6270  -34.5910   23.3080 C   0  0  0  0  0  0  0  0  0  0  0  0
  -26.3060  -34.6270   22.2790 O   0  0  0  0  0  0  0  0  0  0  0  0
  -24.8040  -33.5040   24.8020 H   0  0  0  0  0  0  0  0  0  0  0  0
  -23.7100  -36.1950   23.0520 C   0  0  0  0  0  1  0  0  0  0  0  0
  -24.9890  -35.8840   23.8470 C   0  0  0  0  0  3  0  0  0  0  0  0
  -27.0100  -36.9430   24.7530 C   0  0  0  0  0  1  0  0  0  0  0  0
  -25.8990  -37.0490   23.8090 N   0  0  0  0  0  0  0  0  0  0  0  0
  -25.3950  -37.9100   24.0040 H   0  0  0  0  0  0  0  0  0  0  0  0
  -26.4980  -31.3450   24.7970 C   0  0  1  0  0  0  0  0  0  0  0  0
  -25.4620  -30.9120   25.8590 C   0  0  0  0  0  1  0  0  0  0  0  0
  -27.2200  -30.0680   24.3060 C   0  0  0  0  0  1  0  0  0  0  0  0
  -27.5640  -32.2220   25.4950 C   0  0  0  0  0  1  0  0  0  0  0  0
  1 49  1  0
  1  3  2  0
  2  1  1  0
  4  2  1  0
  5  9  1  0
  7  5  2  0
  7 10  1  0
  8  6  1  0
  9  2  1  0
  9  6  2  0
 10  8  2  0
 11 17  1  0
 12 17  1  0
 13 14  1  0
 13 12  1  0
 15 14  1  0
 15 24  1  0
 15 16  1  0
 17 16  1  0
 18 11  2  0
 19 11  1  0
 19 10  1  0
 20 19  1  0
 21 22  2  0
 22 41  1  0
 23 22  1  0
 23 26  1  0
 24 25  1  0
 24 21  1  0
 25 23  2  0
 26 27  1  0
 27 28  2  0
 29 32  1  0
 29 28  1  0
 30 29  2  0
 31 30  1  0
 31 26  2  0
 32 33  1  0
 33 38  2  0
 33 34  1  0
 34 35  2  0
 35 36  1  0
 36 40  1  0
 37 36  2  0
 38 37  1  0
 39 38  1  0
 41 42  1  0
 42 45  1  0
 42 44  1  0
 43 41  2  0
 46 21  1  0
 46 47  1  0
 48 46  1  0
 50 49  1  0
 51 52  1  0
 51 53  2  0
 52 50  1  0
 54 52  1  0
 55 51  1  0
 56 55  1  0
 56 58  1  0
 57 68  2  0
 58 63  1  0
 59 67  1  0
 59 69  1  0
 60 66  1  0
 60 62  1  0
 61 67  1  0
 62 61  1  0
 63 62  2  0
 64 65  1  0
 64 58  2  0
 65 60  2  0
 66 59  1  0
 67 57  1  0
 69 71  2  0
 70 69  1  0
 72 70  1  0
 73 82  2  0
 73 78  1  0
 74 70  1  0
 74 78  1  0
 75 74  1  0
 76 77  1  0
 76 75  1  0
 77 73  1  0
 78 79  2  0
 79 80  1  0
 81 80  2  0
 82 81  1  0
 83 57  1  0
 83 84  1  0
 83 93  1  0
 84 87  1  0
 85 89  1  0
 85 84  1  0
 86 85  2  0
 89 88  1  0
 91 89  1  0
 91 92  1  0
 91 90  1  0
 93 96  1  1
 93 94  1  0
 95 93  1  0
M  ISO  4  11 100  19 100  55 101  56 101
M  END
>  <TORSDO>  (5) 
F 21

>  <SCORE>  (5) 
-9.877

>  <name>  (5) 
4

>  <ligand_id>  (5) 
4

>  <original_smiles>  (5) 
[H]c1c([H])c([H])c2c(c1[H])C([H])([H])C([H])([H])C([H])([H])C2([H])N([H])C(=O)C1([H])N(C(=O)C([H])(N([H])C(=O)C([H])(N([H])C([H])([H])[H])C([H])([H])[H])C(C([H])([H])[H])(C([H])([H])[H])C([H])([H])[H])C([H])([H])c2c([H])c(OC([H])([H])C(=O)N([H])C([H])([H])C([H])([H])C(=O)N([H])c3c([H])c([H])c(N([H])C(=O)N4C([H])([H])C([H])([H])C([H])([H])C([H])(n5nc(-c6c([H])c([H])c(Oc7c([H])c([H])c(F)c([H])c7F)c([H])c6[H])c(C(=O)N([H])[H])c5N([H])[H])C4([H])[H])c([H])c3[H])c([H])c([H])c2C1([H])[H]

>  <smiles>  (5) 
[H]c1c([H])c([H])c2c(c1[H])C([H])([H])C([H])([H])C([H])([H])C2([H])N([H])C(=O)C1([H])N(C(=O)C([H])(N([H])C(=O)C([H])(N([H])C([H])([H])[H])C([H])([H])[H])C(C([H])([H])[H])(C([H])([H])[H])C([H])([H])[H])C([H])([H])c2c([H])c(OC([H])([H])C(=O)N([H])C([H])([H])C([H])([H])C(=O)N([H])c3c([H])c([H])c(N([H])C(=O)N4C([H])([H])C([H])([H])C([H])([H])C([H])(n5nc(-c6c([H])c([H])c(Oc7c([H])c([H])c(F)c([H])c7F)c([H])c6[H])c(C(=O)N([H])[H])c5N([H])[H])C4([H])[H])c([H])c3[H])c([H])c([H])c2C1([H])[H]

$$$$
5:0:0
     RDKit          3D

104111  0  0  1  0  0  0  0  0999 V2000
  -27.9720  -22.3710   24.2240 C   0  0  0  0  0  2  0  0  0  0  0  0
  -27.0020  -23.4910   24.6770 C   0  0  0  0  0  2  0  0  0  0  0  0
  -28.6000  -24.9130   23.3970 C   0  0  0  0  0  1  0  0  0  0  0  0
  -27.3110  -24.8410   24.1310 N   0  0  1  0  0  4  0  0  0  0  0  0
  -27.4110  -25.4420   24.9340 H   0  0  0  0  0  0  0  0  0  0  0  0
  -26.1930  -25.4110   23.3300 C   0  0  0  0  0  2  0  0  0  0  0  0
  -26.6380  -26.6080   22.4680 C   0  0  0  0  0  2  0  0  0  0  0  0
  -26.7290  -26.2310   20.9820 C   0  0  0  0  0  2  0  0  0  0  0  0
  -28.0610  -26.6220   20.3220 C   0  0  0  0  0  2  0  0  0  0  0  0
  -28.2020  -25.9940   18.9240 C   0  0  0  0  0  2  0  0  0  0  0  0
  -28.8530  -26.9180   17.8740 C   0  0  0  0  0  2  0  0  0  0  0  0
  -27.8990  -27.8270   17.3200 O   0  0  0  0  0  0  0  0  0  0  0  0
  -26.6320  -29.6880   24.0630 C   0  0  0  0  0  0  0  0  0  0  0  0
  -26.9830  -28.2730   18.2380 C   0  0  0  0  0  0  0  0  0  0  0  0
  -24.6390  -29.3660   22.6330 C   0  0  0  0  0  3  0  0  0  0  0  0
  -25.0930  -29.1460   20.1360 C   0  0  0  0  0  0  0  0  0  0  0  0
  -26.8700  -30.0910   21.6180 C   0  0  0  0  0  2  0  0  0  0  0  0
  -26.4570  -29.3710   20.3540 C   0  0  0  0  0  0  0  0  0  0  0  0
  -27.4090  -28.9330   19.4090 C   0  0  0  0  0  3  0  0  0  0  0  0
  -25.6030  -28.0750   18.0160 C   0  0  0  0  0  3  0  0  0  0  0  0
  -24.6580  -28.4930   18.9700 C   0  0  0  0  0  3  0  0  0  0  0  0
  -24.1370  -29.6470   21.1920 C   0  0  0  0  0  2  0  0  0  0  0  0
  -26.0900  -29.6950   22.8130 N   0  0  0  0  0  0  0  0  0  0  0  0
  -25.9360  -29.4580   25.0620 O   0  0  0  0  0  0  0  0  0  0  0  0
  -24.2910  -27.9050   22.9960 C   0  0  0  0  0  0  0  0  0  0  0  0
  -23.1940  -27.3900   22.4170 N   0  0  0  0  0  0  0  0  0  0  0  0
  -25.0110  -27.2550   23.7580 O   0  0  0  0  0  0  0  0  0  0  0  0
  -22.6550  -27.9910   21.8090 H   0  0  0  0  0  0  0  0  0  0  0  0
  -21.2040  -24.8130   20.8550 C   0  0  0  0  0  0  0  0  0  0  0  0
  -22.6950  -26.0260   22.5830 C   0  0  0  0  0  3  0  0  0  0  0  0
  -23.7830  -24.9880   22.2230 C   0  0  0  0  0  2  0  0  0  0  0  0
  -23.7170  -24.5280   20.7620 C   0  0  0  0  0  2  0  0  0  0  0  0
  -22.3530  -23.9020   20.4570 C   0  0  0  0  0  2  0  0  0  0  0  0
  -21.3690  -25.8210   21.8420 C   0  0  0  0  0  0  0  0  0  0  0  0
  -20.2790  -26.6650   22.1490 C   0  0  0  0  0  3  0  0  0  0  0  0
  -19.0430  -26.5110   21.4930 C   0  0  0  0  0  3  0  0  0  0  0  0
  -18.8800  -25.5020   20.5280 C   0  0  0  0  0  3  0  0  0  0  0  0
  -19.9570  -24.6530   20.2150 C   0  0  0  0  0  3  0  0  0  0  0  0
  -28.1440  -29.9940   24.3000 C   0  0  0  0  0  3  0  0  0  0  0  0
  -28.7810  -29.1310   25.4580 C   0  0  1  0  0  0  0  0  0  0  0  0
  -27.8360  -28.9180   26.6640 C   0  0  0  0  0  1  0  0  0  0  0  0
  -29.1970  -27.7370   24.9300 C   0  0  0  0  0  1  0  0  0  0  0  0
  -30.0700  -29.8120   25.9710 C   0  0  0  0  0  1  0  0  0  0  0  0
  -28.2630  -31.4280   24.5920 N   0  0  0  0  0  0  0  0  0  0  0  0
  -28.8060  -32.3300   23.7620 C   0  0  0  0  0  0  0  0  0  0  0  0
  -29.3280  -32.0220   22.6860 O   0  0  0  0  0  0  0  0  0  0  0  0
  -27.8100  -31.7600   25.4300 H   0  0  0  0  0  0  0  0  0  0  0  0
  -27.6780  -34.5450   23.3870 C   0  0  0  0  0  1  0  0  0  0  0  0
  -28.7600  -33.8080   24.1920 C   0  0  0  0  0  3  0  0  0  0  0  0
  -31.0750  -34.0340   24.9750 C   0  0  0  0  0  1  0  0  0  0  0  0
  -30.0550  -34.5050   24.0430 N   0  0  0  0  0  0  0  0  0  0  0  0
  -29.9430  -35.5060   24.1750 H   0  0  0  0  0  0  0  0  0  0  0  0
  -29.1960  -22.1200   25.1310 C   0  0  0  0  0  2  0  0  0  0  0  0
  -31.2400  -21.6460   23.7670 C   0  0  0  0  0  0  0  0  0  0  0  0
  -30.4860  -22.4570   24.5210 N   0  0  0  0  0  0  0  0  0  0  0  0
  -30.8480  -20.5420   23.3850 O   0  0  0  0  0  0  0  0  0  0  0  0
  -30.9170  -23.3210   24.8270 H   0  0  0  0  0  0  0  0  0  0  0  0
  -32.6350  -22.1490   23.3820 C   0  0  0  0  0  2  0  0  0  0  0  0
  -33.5040  -21.0720   22.6930 C   0  0  0  0  0  2  0  0  0  0  0  0
  -35.0200  -21.3350   22.7530 C   0  0  0  0  0  2  0  0  0  0  0  0
  -35.4550  -22.4980   21.8390 C   0  0  0  0  0  2  0  0  0  0  0  0
  -36.0990  -21.8060   19.5290 C   0  0  0  0  0  0  0  0  0  0  0  0
  -36.3870  -22.0420   20.8120 N   0  0  0  0  0  0  0  0  0  0  0  0
  -34.9750  -21.9750   19.0510 O   0  0  0  0  0  0  0  0  0  0  0  0
  -37.3470  -21.8920   21.0990 H   0  0  0  0  0  0  0  0  0  0  0  0
  -37.2460  -21.3090   18.6490 C   0  0  0  0  0  2  0  0  0  0  0  0
  -37.1970  -19.2430   17.2570 C   0  0  0  0  0  0  0  0  0  0  0  0
  -37.0400  -17.0470   16.1380 C   0  0  0  0  0  2  0  0  0  0  0  0
  -35.6910  -16.8360   15.4250 C   0  0  0  0  0  2  0  0  0  0  0  0
  -34.6240  -16.3060   16.4030 C   0  0  0  0  0  2  0  0  0  0  0  0
  -34.5570  -17.1230   17.7180 C   0  0  0  0  0  3  0  0  0  0  0  0
  -35.9710  -17.3080   18.3110 C   0  0  0  0  0  2  0  0  0  0  0  0
  -36.8350  -17.9350   17.2910 N   0  0  0  0  0  0  0  0  0  0  0  0
  -37.6530  -19.8020   16.2550 O   0  0  0  0  0  0  0  0  0  0  0  0
  -37.1070  -19.8720   18.4290 N   0  0  0  0  0  0  0  0  0  0  0  0
  -36.7650  -19.3330   19.2090 H   0  0  0  0  0  0  0  0  0  0  0  0
  -32.9900  -17.0690   19.7630 C   0  0  0  0  0  0  0  0  0  0  0  0
  -32.2080  -16.0750   20.2900 C   0  0  0  0  0  0  0  0  0  0  0  0
  -32.4250  -14.9260   19.4700 C   0  0  0  0  0  0  0  0  0  0  0  0
  -33.6460  -16.5030   18.6800 N   0  0  0  0  0  0  0  0  0  0  0  0
  -33.3360  -15.1890   18.5410 N   0  0  0  0  0  0  0  0  0  0  0  0
  -31.7750  -13.6090   19.4760 C   0  0  0  0  0  0  0  0  0  0  0  0
  -32.1510  -12.6040   20.3950 C   0  0  0  0  0  3  0  0  0  0  0  0
  -31.5000  -11.3520   20.3970 C   0  0  0  0  0  3  0  0  0  0  0  0
  -30.4580  -11.0960   19.4730 C   0  0  0  0  0  0  0  0  0  0  0  0
  -30.0990  -12.0900   18.5470 C   0  0  0  0  0  3  0  0  0  0  0  0
  -30.7540  -13.3340   18.5440 C   0  0  0  0  0  3  0  0  0  0  0  0
  -29.7830   -9.9010   19.3850 O   0  0  0  0  0  0  0  0  0  0  0  0
  -28.7830   -9.5740   20.2670 C   0  0  0  0  0  0  0  0  0  0  0  0
  -27.7500  -10.4810   20.5940 C   0  0  0  0  0  3  0  0  0  0  0  0
  -26.7040  -10.0750   21.4460 C   0  0  0  0  0  3  0  0  0  0  0  0
  -26.6830   -8.7690   21.9660 C   0  0  0  0  0  0  0  0  0  0  0  0
  -27.7090   -7.8640   21.6390 C   0  0  0  0  0  3  0  0  0  0  0  0
  -28.7550   -8.2650   20.7880 C   0  0  0  0  0  0  0  0  0  0  0  0
  -29.7270   -7.3830   20.4590 F   0  0  0  0  0  0  0  0  0  0  0  0
  -25.6750   -8.3770   22.7800 F   0  0  0  0  0  0  0  0  0  0  0  0
  -31.2360  -16.2090   21.4280 C   0  0  0  0  0  0  0  0  0  0  0  0
  -31.0750  -15.1610   22.2280 N   0  0  0  0  0  0  0  0  0  0  0  0
  -30.6480  -17.2670   21.6460 O   0  0  0  0  0  0  0  0  0  0  0  0
  -31.5730  -14.2960   22.0700 H   0  0  0  0  0  0  0  0  0  0  0  0
  -30.4420  -15.2260   23.0120 H   0  0  0  0  0  0  0  0  0  0  0  0
  -33.1810  -18.4030   20.1020 N   0  0  0  0  0  0  0  0  0  0  0  0
  -32.6390  -18.8590   20.8280 H   0  0  0  0  0  0  0  0  0  0  0  0
  -33.7830  -19.0410   19.5940 H   0  0  0  0  0  0  0  0  0  0  0  0
  1  2  1  0
  1 53  1  0
  3  4  1  0
  4  2  1  0
  4  5  1  1
  6  4  1  0
  7  6  1  0
  8  7  1  0
  9  8  1  0
 10  9  1  0
 11 10  1  0
 12 11  1  0
 12 14  1  0
 13 24  2  0
 14 19  1  0
 15 23  1  0
 15 25  1  0
 16 18  1  0
 16 22  1  0
 17 23  1  0
 18 17  1  0
 19 18  2  0
 20 14  2  0
 20 21  1  0
 21 16  2  0
 22 15  1  0
 23 13  1  0
 25 27  2  0
 26 25  1  0
 28 26  1  0
 29 34  1  0
 30 26  1  0
 31 30  1  0
 32 31  1  0
 33 32  1  0
 33 29  1  0
 34 35  2  0
 34 30  1  0
 36 35  1  0
 37 36  2  0
 38 37  1  0
 38 29  2  0
 39 13  1  0
 39 44  1  0
 39 40  1  0
 40 43  1  1
 40 41  1  0
 42 40  1  0
 44 47  1  0
 45 49  1  0
 45 44  1  0
 46 45  2  0
 49 48  1  0
 51 52  1  0
 51 49  1  0
 51 50  1  0
 54 55  1  0
 55 57  1  0
 55 53  1  0
 56 54  2  0
 58 54  1  0
 59 60  1  0
 59 58  1  0
 61 60  1  0
 62 63  1  0
 63 65  1  0
 63 61  1  0
 64 62  2  0
 66 62  1  0
 67 73  1  0
 67 75  1  0
 68 73  1  0
 69 68  1  0
 69 70  1  0
 71 70  1  0
 71 72  1  0
 71 80  1  0
 73 72  1  0
 74 67  2  0
 75 66  1  0
 75 76  1  0
 77102  1  0
 77 78  2  0
 78 97  1  0
 79 82  1  0
 79 78  1  0
 80 77  1  0
 81 80  1  0
 81 79  2  0
 82 83  1  0
 83 84  2  0
 85 84  1  0
 86 85  2  0
 87 86  1  0
 87 82  2  0
 88 85  1  0
 88 89  1  0
 89 90  2  0
 89 94  1  0
 90 91  1  0
 91 92  2  0
 92 96  1  0
 93 92  1  0
 94 93  2  0
 95 94  1  0
 97 99  2  0
 97 98  1  0
 98101  1  0
100 98  1  0
102103  1  0
104102  1  0
M  ISO  4  11 101  12 101  67 100  75 100
M  END
>  <TORSDO>  (6) 
F 32

>  <SCORE>  (6) 
7.755

>  <name>  (6) 
5

>  <ligand_id>  (6) 
5

>  <original_smiles>  (6) 
[H]c1c([H])c([H])c2c(c1[H])C([H])([H])C([H])([H])C([H])([H])C2([H])N([H])C(=O)C1([H])N(C(=O)C([H])(N([H])C(=O)C([H])(N([H])C([H])([H])[H])C([H])([H])[H])C(C([H])([H])[H])(C([H])([H])[H])C([H])([H])[H])C([H])([H])c2c([H])c(OC([H])([H])C([H])([H])C([H])([H])C([H])([H])C([H])([H])C([H])([H])[N+]([H])(C([H])([H])[H])C([H])([H])C([H])([H])C([H])([H])N([H])C(=O)C([H])([H])C([H])([H])C([H])([H])C([H])([H])N([H])C(=O)C([H])([H])N([H])C(=O)N3C([H])([H])C([H])([H])C([H])([H])C([H])(n4nc(-c5c([H])c([H])c(Oc6c([H])c([H])c(F)c([H])c6F)c([H])c5[H])c(C(=O)N([H])[H])c4N([H])[H])C3([H])[H])c([H])c([H])c2C1([H])[H]

>  <smiles>  (6) 
[H]c1c([H])c([H])c2c(c1[H])C([H])([H])C([H])([H])C([H])([H])C2([H])N([H])C(=O)C1([H])N(C(=O)C([H])(N([H])C(=O)C([H])(N([H])C([H])([H])[H])C([H])([H])[H])C(C([H])([H])[H])(C([H])([H])[H])C([H])([H])[H])C([H])([H])c2c([H])c(OC([H])([H])C([H])([H])C([H])([H])C([H])([H])C([H])([H])C([H])([H])[N+]([H])(C([H])([H])[H])C([H])([H])C([H])([H])C([H])([H])N([H])C(=O)C([H])([H])C([H])([H])C([H])([H])C([H])([H])N([H])C(=O)C([H])([H])N([H])C(=O)N3C([H])([H])C([H])([H])C([H])([H])C([H])(n4nc(-c5c([H])c([H])c(Oc6c([H])c([H])c(F)c([H])c6F)c([H])c5[H])c(C(=O)N([H])[H])c4N([H])[H])C3([H])[H])c([H])c([H])c2C1([H])[H]

$$$$
6:0:0
     RDKit          3D

 92100  0  0  1  0  0  0  0  0999 V2000
  -30.3210  -20.6390   21.5290 C   0  0  0  0  0  3  0  0  0  0  0  0
  -30.7530  -18.1920   21.4860 C   0  0  0  0  0  3  0  0  0  0  0  0
  -29.0770  -19.1960   20.0300 C   0  0  0  0  0  0  0  0  0  0  0  0
  -29.3330  -20.6030   20.5210 C   0  0  0  0  0  0  0  0  0  0  0  0
  -29.8200  -17.9300   20.4590 C   0  0  0  0  0  0  0  0  0  0  0  0
  -30.9820  -19.4850   22.0070 C   0  0  0  0  0  0  0  0  0  0  0  0
  -27.9020  -19.0780   19.0670 C   0  0  0  0  0  1  0  0  0  0  0  0
  -32.1210  -19.6660   23.2930 Cl  0  0  0  0  0  0  0  0  0  0  0  0
  -30.4970  -15.2250   20.2810 C   0  0  0  0  0  0  0  0  0  0  0  0
  -30.4680  -12.8180   19.4340 C   0  0  0  0  0  2  0  0  0  0  0  0
  -29.5390  -12.5970   18.2150 C   0  0  0  0  0  2  0  0  0  0  0  0
  -28.0740  -12.3980   18.6500 C   0  0  0  0  0  2  0  0  0  0  0  0
  -27.6280  -13.3670   19.7760 C   0  0  0  0  0  3  0  0  0  0  0  0
  -28.6820  -13.4860   20.8940 C   0  0  0  0  0  2  0  0  0  0  0  0
  -29.9180  -13.9440   20.2460 N   0  0  0  0  0  0  0  0  0  0  0  0
  -31.7320  -15.2400   20.1950 O   0  0  0  0  0  0  0  0  0  0  0  0
  -29.1990  -16.3490   18.5980 C   0  0  0  0  0  1  0  0  0  0  0  0
  -29.7330  -16.4350   19.9650 N   0  0  0  0  0  0  0  0  0  0  0  0
  -25.2450  -13.9290   20.5160 C   0  0  0  0  0  0  0  0  0  0  0  0
  -24.1840  -13.1450   20.8760 C   0  0  0  0  0  0  0  0  0  0  0  0
  -24.6630  -11.7990   20.8540 C   0  0  0  0  0  0  0  0  0  0  0  0
  -26.2970  -13.0590   20.2840 N   0  0  0  0  0  0  0  0  0  0  0  0
  -25.9580  -11.7740   20.5560 N   0  0  0  0  0  0  0  0  0  0  0  0
  -23.9460  -10.5310   21.0360 C   0  0  0  0  0  0  0  0  0  0  0  0
  -24.3750   -9.5710   21.9790 C   0  0  0  0  0  3  0  0  0  0  0  0
  -23.6600   -8.3680   22.1530 C   0  0  0  0  0  3  0  0  0  0  0  0
  -22.4990   -8.1150   21.3840 C   0  0  0  0  0  0  0  0  0  0  0  0
  -22.0880   -9.0640   20.4310 C   0  0  0  0  0  3  0  0  0  0  0  0
  -22.8050  -10.2590   20.2560 C   0  0  0  0  0  3  0  0  0  0  0  0
  -21.7560   -6.9600   21.4660 O   0  0  0  0  0  0  0  0  0  0  0  0
  -21.6970   -6.2230   22.6230 C   0  0  0  0  0  0  0  0  0  0  0  0
  -21.2250   -6.7760   23.8340 C   0  0  0  0  0  3  0  0  0  0  0  0
  -21.1150   -5.9670   24.9830 C   0  0  0  0  0  3  0  0  0  0  0  0
  -21.4640   -4.6050   24.9210 C   0  0  0  0  0  0  0  0  0  0  0  0
  -21.9260   -4.0500   23.7150 C   0  0  0  0  0  3  0  0  0  0  0  0
  -22.0400   -4.8570   22.5690 C   0  0  0  0  0  0  0  0  0  0  0  0
  -22.4680   -4.3130   21.4030 F   0  0  0  0  0  0  0  0  0  0  0  0
  -21.3500   -3.8250   26.0210 F   0  0  0  0  0  0  0  0  0  0  0  0
  -22.7790  -13.6100   21.1300 C   0  0  0  0  0  0  0  0  0  0  0  0
  -22.0440  -12.9060   21.9850 N   0  0  0  0  0  0  0  0  0  0  0  0
  -22.3420  -14.6330   20.6070 O   0  0  0  0  0  0  0  0  0  0  0  0
  -22.4040  -12.0770   22.4310 H   0  0  0  0  0  0  0  0  0  0  0  0
  -21.1020  -13.2050   22.1970 H   0  0  0  0  0  0  0  0  0  0  0  0
  -25.3940  -15.3010   20.3360 N   0  0  0  0  0  0  0  0  0  0  0  0
  -24.6250  -15.9490   20.4660 H   0  0  0  0  0  0  0  0  0  0  0  0
  -26.2440  -15.7540   20.0260 H   0  0  0  0  0  0  0  0  0  0  0  0
  -28.8360  -23.3550   20.4490 C   0  0  0  0  0  0  0  0  0  0  0  0
  -28.6430  -21.9560   20.1260 N   0  0  0  0  0  0  0  0  0  0  0  0
  -29.8060  -23.6750   21.1370 O   0  0  0  0  0  0  0  0  0  0  0  0
  -27.8620  -21.8380   19.4950 H   0  0  0  0  0  0  0  0  0  0  0  0
  -27.8690  -24.6460   19.9770 C   0  0  0  0  0  2  0  0  0  0  0  0
  -28.1620  -26.1700   20.3030 O   0  0  0  0  0  0  0  0  0  0  0  0
  -24.5850  -31.9550   23.2820 C   0  0  0  0  0  0  0  0  0  0  0  0
  -27.1340  -27.1980   20.2310 C   0  0  0  0  0  0  0  0  0  0  0  0
  -23.3770  -30.5580   21.6540 C   0  0  0  0  0  3  0  0  0  0  0  0
  -24.8180  -28.9840   20.2120 C   0  0  0  0  0  0  0  0  0  0  0  0
  -25.9350  -30.8090   21.4780 C   0  0  0  0  0  2  0  0  0  0  0  0
  -26.0040  -29.4160   20.8200 C   0  0  0  0  0  0  0  0  0  0  0  0
  -27.1630  -28.5390   20.8090 C   0  0  0  0  0  3  0  0  0  0  0  0
  -25.9200  -26.8870   19.5800 C   0  0  0  0  0  3  0  0  0  0  0  0
  -24.7920  -27.7380   19.5750 C   0  0  0  0  0  3  0  0  0  0  0  0
  -23.5880  -29.8820   20.2740 C   0  0  0  0  0  2  0  0  0  0  0  0
  -24.6540  -31.1290   22.1920 N   0  0  0  0  0  0  0  0  0  0  0  0
  -23.5000  -32.2420   23.8120 O   0  0  0  0  0  0  0  0  0  0  0  0
  -22.7000  -29.5520   22.6180 C   0  0  0  0  0  0  0  0  0  0  0  0
  -21.3730  -29.3700   22.4860 N   0  0  0  0  0  0  0  0  0  0  0  0
  -23.3710  -28.9360   23.4500 O   0  0  0  0  0  0  0  0  0  0  0  0
  -20.8870  -29.9200   21.7910 H   0  0  0  0  0  0  0  0  0  0  0  0
  -18.0000  -28.1330   22.9640 C   0  0  0  0  0  0  0  0  0  0  0  0
  -20.5530  -28.4300   23.2560 C   0  0  0  0  0  3  0  0  0  0  0  0
  -20.6820  -26.9950   22.6960 C   0  0  0  0  0  2  0  0  0  0  0  0
  -19.5950  -26.6460   21.6750 C   0  0  0  0  0  2  0  0  0  0  0  0
  -18.2030  -26.7800   22.3010 C   0  0  0  0  0  2  0  0  0  0  0  0
  -19.1050  -28.9140   23.3960 C   0  0  0  0  0  0  0  0  0  0  0  0
  -18.8630  -30.1780   23.9770 C   0  0  0  0  0  3  0  0  0  0  0  0
  -17.5510  -30.6630   24.1260 C   0  0  0  0  0  3  0  0  0  0  0  0
  -16.4600  -29.8800   23.7100 C   0  0  0  0  0  3  0  0  0  0  0  0
  -16.6870  -28.6160   23.1370 C   0  0  0  0  0  3  0  0  0  0  0  0
  -25.8630  -32.5930   23.9060 C   0  0  0  0  0  3  0  0  0  0  0  0
  -25.5570  -33.9990   24.2150 N   0  0  0  0  0  0  0  0  0  0  0  0
  -25.8980  -35.0430   23.4480 C   0  0  0  0  0  0  0  0  0  0  0  0
  -26.5670  -34.9220   22.4190 O   0  0  0  0  0  0  0  0  0  0  0  0
  -24.9550  -34.1650   25.0080 H   0  0  0  0  0  0  0  0  0  0  0  0
  -24.1870  -36.8530   23.0820 C   0  0  0  0  0  1  0  0  0  0  0  0
  -25.4240  -36.4420   23.8940 C   0  0  0  0  0  3  0  0  0  0  0  0
  -27.5650  -37.3180   24.7180 C   0  0  0  0  0  1  0  0  0  0  0  0
  -26.4660  -37.4840   23.7700 N   0  0  0  0  0  0  0  0  0  0  0  0
  -26.0690  -38.4100   23.9060 H   0  0  0  0  0  0  0  0  0  0  0  0
  -26.3590  -31.8430   25.2040 C   0  0  1  0  0  0  0  0  0  0  0  0
  -25.2460  -31.6350   26.2600 C   0  0  0  0  0  1  0  0  0  0  0  0
  -26.9360  -30.4540   24.8520 C   0  0  0  0  0  1  0  0  0  0  0  0
  -27.5100  -32.6410   25.8600 C   0  0  0  0  0  1  0  0  0  0  0  0
  1  6  1  0
  2  6  2  0
  3  5  2  0
  3  4  1  0
  4  1  2  0
  5  2  1  0
  6  8  1  0
  7  3  1  0
 10 15  1  0
 11 12  1  0
 11 10  1  0
 13 12  1  0
 13 22  1  0
 13 14  1  0
 15  9  1  0
 15 14  1  0
 16  9  2  0
 17 18  1  0
 18  9  1  0
 18  5  1  0
 19 20  2  0
 20 39  1  0
 21 20  1  0
 21 24  1  0
 22 19  1  0
 22 23  1  0
 23 21  2  0
 24 25  1  0
 25 26  2  0
 27 30  1  0
 27 26  1  0
 28 27  2  0
 29 28  1  0
 29 24  2  0
 30 31  1  0
 31 32  1  0
 32 33  2  0
 34 33  1  0
 34 38  1  0
 35 34  2  0
 36 31  2  0
 36 35  1  0
 37 36  1  0
 39 40  1  0
 40 43  1  0
 40 42  1  0
 41 39  2  0
 44 45  1  0
 44 19  1  0
 46 44  1  0
 47 49  2  0
 48 47  1  0
 48  4  1  0
 50 48  1  0
 51 52  1  0
 51 47  1  0
 53 64  2  0
 54 52  1  0
 54 59  1  0
 55 63  1  0
 55 65  1  0
 56 62  1  0
 56 58  1  0
 57 63  1  0
 58 57  1  0
 59 58  2  0
 60 54  2  0
 61 60  1  0
 61 56  2  0
 62 55  1  0
 63 53  1  0
 65 67  2  0
 66 65  1  0
 68 66  1  0
 69 78  2  0
 69 74  1  0
 70 66  1  0
 70 74  1  0
 71 70  1  0
 72 73  1  0
 72 71  1  0
 73 69  1  0
 74 75  2  0
 75 76  1  0
 77 76  2  0
 78 77  1  0
 79 53  1  0
 79 80  1  0
 79 89  1  0
 80 83  1  0
 81 85  1  0
 81 80  1  0
 82 81  2  0
 85 84  1  0
 87 85  1  0
 87 88  1  0
 87 86  1  0
 89 92  1  1
 89 90  1  0
 91 89  1  0
M  ISO  4   9 100  18 100  51 101  52 101
M  END
>  <TORSDO>  (7) 
F 18

>  <SCORE>  (7) 
-14.531

>  <name>  (7) 
6

>  <ligand_id>  (7) 
6

>  <original_smiles>  (7) 
[H]c1c([H])c([H])c2c(c1[H])C([H])([H])C([H])([H])C([H])([H])C2([H])N([H])C(=O)C1([H])N(C(=O)C([H])(N([H])C(=O)C([H])(N([H])C([H])([H])[H])C([H])([H])[H])C(C([H])([H])[H])(C([H])([H])[H])C([H])([H])[H])C([H])([H])c2c([H])c(OC([H])([H])C(=O)N([H])c3c([H])c(Cl)c([H])c(N(C(=O)N4C([H])([H])C([H])([H])C([H])([H])C([H])(n5nc(-c6c([H])c([H])c(Oc7c([H])c([H])c(F)c([H])c7F)c([H])c6[H])c(C(=O)N([H])[H])c5N([H])[H])C4([H])[H])C([H])([H])[H])c3C([H])([H])[H])c([H])c([H])c2C1([H])[H]

>  <smiles>  (7) 
[H]c1c([H])c([H])c2c(c1[H])C([H])([H])C([H])([H])C([H])([H])C2([H])N([H])C(=O)C1([H])N(C(=O)C([H])(N([H])C(=O)C([H])(N([H])C([H])([H])[H])C([H])([H])[H])C(C([H])([H])[H])(C([H])([H])[H])C([H])([H])[H])C([H])([H])c2c([H])c(OC([H])([H])C(=O)N([H])c3c([H])c(Cl)c([H])c(N(C(=O)N4C([H])([H])C([H])([H])C([H])([H])C([H])(n5nc(-c6c([H])c([H])c(Oc7c([H])c([H])c(F)c([H])c7F)c([H])c6[H])c(C(=O)N([H])[H])c5N([H])[H])C4([H])[H])C([H])([H])[H])c3C([H])([H])[H])c([H])c([H])c2C1([H])[H]

$$$$
7:0:0
     RDKit          3D

 91 99  0  0  1  0  0  0  0  0999 V2000
  -28.9200  -23.4070   20.2880 C   0  0  0  0  0  0  0  0  0  0  0  0
  -28.4800  -22.0730   20.1000 N   0  0  0  0  0  0  0  0  0  0  0  0
  -30.0660  -23.6340   20.6870 O   0  0  0  0  0  0  0  0  0  0  0  0
  -27.5130  -22.1050   19.8010 H   0  0  0  0  0  0  0  0  0  0  0  0
  -30.2820  -20.0580   20.4200 C   0  0  0  0  0  3  0  0  0  0  0  0
  -30.5710  -18.6180   20.4870 C   0  0  0  0  0  3  0  0  0  0  0  0
  -27.9980  -19.5700   20.1140 C   0  0  0  0  0  3  0  0  0  0  0  0
  -28.9640  -20.6200   20.2310 C   0  0  0  0  0  0  0  0  0  0  0  0
  -29.5680  -17.5840   20.3820 C   0  0  0  0  0  0  0  0  0  0  0  0
  -28.2750  -18.1570   20.1900 C   0  0  0  0  0  0  0  0  0  0  0  0
  -27.2350  -17.2980   20.0710 F   0  0  0  0  0  0  0  0  0  0  0  0
  -30.5100  -14.9630   20.3310 C   0  0  0  0  0  0  0  0  0  0  0  0
  -30.4250  -12.6170   19.3750 C   0  0  0  0  0  2  0  0  0  0  0  0
  -29.4820  -12.5960   18.1490 C   0  0  0  0  0  2  0  0  0  0  0  0
  -28.0160  -12.3860   18.5800 C   0  0  0  0  0  2  0  0  0  0  0  0
  -27.6140  -13.2920   19.7720 C   0  0  0  0  0  3  0  0  0  0  0  0
  -28.6750  -13.2690   20.8940 C   0  0  0  0  0  2  0  0  0  0  0  0
  -29.9520  -13.6870   20.2940 N   0  0  0  0  0  0  0  0  0  0  0  0
  -31.7030  -15.0880   20.0360 O   0  0  0  0  0  0  0  0  0  0  0  0
  -29.6350  -16.0570   20.5100 N   0  0  0  0  0  0  0  0  0  0  0  0
  -28.7070  -15.6950   20.6650 H   0  0  0  0  0  0  0  0  0  0  0  0
  -25.2220  -13.8590   20.5000 C   0  0  0  0  0  0  0  0  0  0  0  0
  -24.1620  -13.0780   20.8700 C   0  0  0  0  0  0  0  0  0  0  0  0
  -24.6370  -11.7310   20.8440 C   0  0  0  0  0  0  0  0  0  0  0  0
  -26.2750  -12.9890   20.2680 N   0  0  0  0  0  0  0  0  0  0  0  0
  -25.9300  -11.7020   20.5400 N   0  0  0  0  0  0  0  0  0  0  0  0
  -23.9190  -10.4650   21.0370 C   0  0  0  0  0  0  0  0  0  0  0  0
  -24.3550   -9.5000   21.9720 C   0  0  0  0  0  3  0  0  0  0  0  0
  -23.6330   -8.3010   22.1520 C   0  0  0  0  0  3  0  0  0  0  0  0
  -22.4600   -8.0580   21.3990 C   0  0  0  0  0  0  0  0  0  0  0  0
  -22.0410   -9.0120   20.4550 C   0  0  0  0  0  3  0  0  0  0  0  0
  -22.7640  -10.2020   20.2720 C   0  0  0  0  0  3  0  0  0  0  0  0
  -21.7110   -6.9100   21.4890 O   0  0  0  0  0  0  0  0  0  0  0  0
  -21.6710   -6.1640   22.6410 C   0  0  0  0  0  0  0  0  0  0  0  0
  -21.2450   -6.7130   23.8690 C   0  0  0  0  0  3  0  0  0  0  0  0
  -21.1540   -5.8950   25.0120 C   0  0  0  0  0  3  0  0  0  0  0  0
  -21.4780   -4.5270   24.9270 C   0  0  0  0  0  0  0  0  0  0  0  0
  -21.8960   -3.9770   23.7040 C   0  0  0  0  0  3  0  0  0  0  0  0
  -21.9900   -4.7940   22.5620 C   0  0  0  0  0  0  0  0  0  0  0  0
  -22.3740   -4.2540   21.3800 F   0  0  0  0  0  0  0  0  0  0  0  0
  -21.3820   -3.7390   26.0230 F   0  0  0  0  0  0  0  0  0  0  0  0
  -22.7610  -13.5480   21.1340 C   0  0  0  0  0  0  0  0  0  0  0  0
  -22.0370  -12.8550   22.0060 N   0  0  0  0  0  0  0  0  0  0  0  0
  -22.3180  -14.5670   20.6060 O   0  0  0  0  0  0  0  0  0  0  0  0
  -22.4090  -12.0330   22.4580 H   0  0  0  0  0  0  0  0  0  0  0  0
  -21.0980  -13.1540   22.2280 H   0  0  0  0  0  0  0  0  0  0  0  0
  -25.3610  -15.2300   20.3230 N   0  0  0  0  0  0  0  0  0  0  0  0
  -24.5760  -15.8570   20.4490 H   0  0  0  0  0  0  0  0  0  0  0  0
  -26.2010  -15.7250   20.0400 H   0  0  0  0  0  0  0  0  0  0  0  0
  -27.9180  -24.6900   19.9720 C   0  0  0  0  0  2  0  0  0  0  0  0
  -28.2470  -26.1880   20.2400 O   0  0  0  0  0  0  0  0  0  0  0  0
  -24.6450  -31.8880   23.2390 C   0  0  0  0  0  0  0  0  0  0  0  0
  -27.1970  -27.1790   20.1790 C   0  0  0  0  0  0  0  0  0  0  0  0
  -23.4310  -30.4950   21.6090 C   0  0  0  0  0  3  0  0  0  0  0  0
  -24.8660  -28.9240   20.1720 C   0  0  0  0  0  0  0  0  0  0  0  0
  -25.9850  -30.7580   21.4260 C   0  0  0  0  0  2  0  0  0  0  0  0
  -26.0520  -29.3670   20.7720 C   0  0  0  0  0  0  0  0  0  0  0  0
  -27.2170  -28.5100   20.7610 C   0  0  0  0  0  3  0  0  0  0  0  0
  -25.9820  -26.8410   19.5390 C   0  0  0  0  0  3  0  0  0  0  0  0
  -24.8440  -27.6730   19.5410 C   0  0  0  0  0  3  0  0  0  0  0  0
  -23.6400  -29.8210   20.2290 C   0  0  0  0  0  2  0  0  0  0  0  0
  -24.7070  -31.0690   22.1470 N   0  0  0  0  0  0  0  0  0  0  0  0
  -23.5630  -32.1750   23.7740 O   0  0  0  0  0  0  0  0  0  0  0  0
  -22.7580  -29.4880   22.5750 C   0  0  0  0  0  0  0  0  0  0  0  0
  -21.4290  -29.3160   22.4540 N   0  0  0  0  0  0  0  0  0  0  0  0
  -23.4330  -28.8630   23.3970 O   0  0  0  0  0  0  0  0  0  0  0  0
  -20.9400  -29.8710   21.7670 H   0  0  0  0  0  0  0  0  0  0  0  0
  -18.0510  -28.1080   22.9660 C   0  0  0  0  0  0  0  0  0  0  0  0
  -20.6090  -28.3810   23.2310 C   0  0  0  0  0  3  0  0  0  0  0  0
  -20.7160  -26.9450   22.6660 C   0  0  0  0  0  2  0  0  0  0  0  0
  -19.6140  -26.6120   21.6540 C   0  0  0  0  0  2  0  0  0  0  0  0
  -18.2330  -26.7560   22.2980 C   0  0  0  0  0  2  0  0  0  0  0  0
  -19.1680  -28.8790   23.3910 C   0  0  0  0  0  0  0  0  0  0  0  0
  -18.9420  -30.1420   23.9770 C   0  0  0  0  0  3  0  0  0  0  0  0
  -17.6350  -30.6370   24.1430 C   0  0  0  0  0  3  0  0  0  0  0  0
  -16.5340  -29.8650   23.7330 C   0  0  0  0  0  3  0  0  0  0  0  0
  -16.7440  -28.6030   23.1500 C   0  0  0  0  0  3  0  0  0  0  0  0
  -25.9280  -32.5210   23.8570 C   0  0  0  0  0  3  0  0  0  0  0  0
  -25.6200  -33.9190   24.1960 N   0  0  0  0  0  0  0  0  0  0  0  0
  -25.9220  -34.9760   23.4320 C   0  0  0  0  0  0  0  0  0  0  0  0
  -26.5590  -34.8760   22.3780 O   0  0  0  0  0  0  0  0  0  0  0  0
  -25.0490  -34.0690   25.0160 H   0  0  0  0  0  0  0  0  0  0  0  0
  -24.1640  -36.7560   23.1570 C   0  0  0  0  0  1  0  0  0  0  0  0
  -25.4470  -36.3620   23.9080 C   0  0  0  0  0  3  0  0  0  0  0  0
  -27.6110  -37.2720   24.6310 C   0  0  0  0  0  1  0  0  0  0  0  0
  -26.4650  -37.4240   23.7400 N   0  0  0  0  0  0  0  0  0  0  0  0
  -26.0570  -38.3420   23.8980 H   0  0  0  0  0  0  0  0  0  0  0  0
  -26.4490  -31.7490   25.1330 C   0  0  1  0  0  0  0  0  0  0  0  0
  -25.3590  -31.5150   26.2060 C   0  0  0  0  0  1  0  0  0  0  0  0
  -27.0240  -30.3670   24.7420 C   0  0  0  0  0  1  0  0  0  0  0  0
  -27.6050  -32.5390   25.7870 C   0  0  0  0  0  1  0  0  0  0  0  0
  1  3  2  0
  2  8  1  0
  2  1  1  0
  4  2  1  0
  5  6  1  0
  7 10  2  0
  7  8  1  0
  8  5  2  0
  9  6  2  0
  9 20  1  0
 10  9  1  0
 11 10  1  0
 12 20  1  0
 13 18  1  0
 14 15  1  0
 14 13  1  0
 16 15  1  0
 16 25  1  0
 16 17  1  0
 18 12  1  0
 18 17  1  0
 19 12  2  0
 20 21  1  0
 22 23  2  0
 23 42  1  0
 24 23  1  0
 24 27  1  0
 25 22  1  0
 25 26  1  0
 26 24  2  0
 27 28  1  0
 28 29  2  0
 30 33  1  0
 30 29  1  0
 31 30  2  0
 32 31  1  0
 32 27  2  0
 33 34  1  0
 34 35  1  0
 35 36  2  0
 37 36  1  0
 37 41  1  0
 38 37  2  0
 39 34  2  0
 39 38  1  0
 40 39  1  0
 42 43  1  0
 43 46  1  0
 43 45  1  0
 44 42  2  0
 47 48  1  0
 47 22  1  0
 49 47  1  0
 50 51  1  0
 50  1  1  0
 52 63  2  0
 53 51  1  0
 53 58  1  0
 54 62  1  0
 54 64  1  0
 55 61  1  0
 55 57  1  0
 56 62  1  0
 57 56  1  0
 58 57  2  0
 59 60  1  0
 59 53  2  0
 60 55  2  0
 61 54  1  0
 62 52  1  0
 64 66  2  0
 65 64  1  0
 67 65  1  0
 68 77  2  0
 68 73  1  0
 69 65  1  0
 69 73  1  0
 70 69  1  0
 71 72  1  0
 71 70  1  0
 72 68  1  0
 73 74  2  0
 74 75  1  0
 76 75  2  0
 77 76  1  0
 78 52  1  0
 78 79  1  0
 78 88  1  0
 79 82  1  0
 80 84  1  0
 80 79  1  0
 81 80  2  0
 84 83  1  0
 86 87  1  0
 86 84  1  0
 86 85  1  0
 88 91  1  1
 88 89  1  0
 90 88  1  0
M  ISO  4  12 100  20 100  50 101  51 101
M  END
>  <TORSDO>  (8) 
F 18

>  <SCORE>  (8) 
-14.879

>  <name>  (8) 
7

>  <ligand_id>  (8) 
7

>  <original_smiles>  (8) 
[H]c1c([H])c([H])c2c(c1[H])C([H])([H])C([H])([H])C([H])([H])C2([H])N([H])C(=O)C1([H])N(C(=O)C([H])(N([H])C(=O)C([H])(N([H])C([H])([H])[H])C([H])([H])[H])C(C([H])([H])[H])(C([H])([H])[H])C([H])([H])[H])C([H])([H])c2c([H])c(OC([H])([H])C(=O)N([H])c3c([H])c([H])c(N([H])C(=O)N4C([H])([H])C([H])([H])C([H])([H])C([H])(n5nc(-c6c([H])c([H])c(Oc7c([H])c([H])c(F)c([H])c7F)c([H])c6[H])c(C(=O)N([H])[H])c5N([H])[H])C4([H])[H])c(F)c3[H])c([H])c([H])c2C1([H])[H]

>  <smiles>  (8) 
[H]c1c([H])c([H])c2c(c1[H])C([H])([H])C([H])([H])C([H])([H])C2([H])N([H])C(=O)C1([H])N(C(=O)C([H])(N([H])C(=O)C([H])(N([H])C([H])([H])[H])C([H])([H])[H])C(C([H])([H])[H])(C([H])([H])[H])C([H])([H])[H])C([H])([H])c2c([H])c(OC([H])([H])C(=O)N([H])c3c([H])c([H])c(N([H])C(=O)N4C([H])([H])C([H])([H])C([H])([H])C([H])(n5nc(-c6c([H])c([H])c(Oc7c([H])c([H])c(F)c([H])c7F)c([H])c6[H])c(C(=O)N([H])[H])c5N([H])[H])C4([H])[H])c(F)c3[H])c([H])c([H])c2C1([H])[H]

$$$$
8:0:0
     RDKit          3D

 93101  0  0  1  0  0  0  0  0999 V2000
  -28.7720  -21.0870   20.7840 C   0  0  0  0  0  2  0  0  0  0  0  0
  -31.0390  -20.1550   20.0080 C   0  0  0  0  0  3  0  0  0  0  0  0
  -31.6240  -17.7680   19.9380 C   0  0  0  0  0  3  0  0  0  0  0  0
  -31.9820  -19.1260   19.7950 C   0  0  0  0  0  0  0  0  0  0  0  0
  -29.7190  -19.8630   20.4070 C   0  0  0  0  0  0  0  0  0  0  0  0
  -30.3170  -17.3630   20.3060 C   0  0  0  0  0  0  0  0  0  0  0  0
  -29.3770  -18.4470   20.5520 C   0  0  0  0  0  0  0  0  0  0  0  0
  -33.4140  -19.4680   19.4240 C   0  0  0  0  0  1  0  0  0  0  0  0
  -27.7820  -18.0120   21.0620 Cl  0  0  0  0  0  0  0  0  0  0  0  0
  -30.6570  -14.7620   20.0790 C   0  0  0  0  0  0  0  0  0  0  0  0
  -30.3230  -12.5630   18.9540 C   0  0  0  0  0  2  0  0  0  0  0  0
  -29.3320  -12.7330   17.7840 C   0  0  0  0  0  2  0  0  0  0  0  0
  -27.8850  -12.5530   18.2800 C   0  0  0  0  0  2  0  0  0  0  0  0
  -27.5880  -13.3740   19.5650 C   0  0  0  0  0  3  0  0  0  0  0  0
  -28.7010  -13.2200   20.6240 C   0  0  0  0  0  2  0  0  0  0  0  0
  -29.9720  -13.5720   19.9820 N   0  0  0  0  0  0  0  0  0  0  0  0
  -31.8240  -14.8010   19.6910 O   0  0  0  0  0  0  0  0  0  0  0  0
  -29.9630  -15.9150   20.4250 N   0  0  0  0  0  0  0  0  0  0  0  0
  -29.0190  -15.7460   20.7370 H   0  0  0  0  0  0  0  0  0  0  0  0
  -25.2290  -13.9350   20.3950 C   0  0  0  0  0  0  0  0  0  0  0  0
  -24.1860  -13.1480   20.8010 C   0  0  0  0  0  0  0  0  0  0  0  0
  -24.6600  -11.8010   20.7410 C   0  0  0  0  0  0  0  0  0  0  0  0
  -26.2690  -13.0670   20.1090 N   0  0  0  0  0  0  0  0  0  0  0  0
  -25.9380  -11.7780   20.3800 N   0  0  0  0  0  0  0  0  0  0  0  0
  -23.9540  -10.5290   20.9490 C   0  0  0  0  0  0  0  0  0  0  0  0
  -24.4120   -9.5730   21.8820 C   0  0  0  0  0  3  0  0  0  0  0  0
  -23.7030   -8.3690   22.0780 C   0  0  0  0  0  3  0  0  0  0  0  0
  -22.5240   -8.1120   21.3390 C   0  0  0  0  0  0  0  0  0  0  0  0
  -22.0850   -9.0560   20.3950 C   0  0  0  0  0  3  0  0  0  0  0  0
  -22.7950  -10.2530   20.1980 C   0  0  0  0  0  3  0  0  0  0  0  0
  -21.7860   -6.9570   21.4430 O   0  0  0  0  0  0  0  0  0  0  0  0
  -21.7330   -6.2390   22.6120 C   0  0  0  0  0  0  0  0  0  0  0  0
  -21.2810   -6.8130   23.8200 C   0  0  0  0  0  3  0  0  0  0  0  0
  -21.1740   -6.0210   24.9800 C   0  0  0  0  0  3  0  0  0  0  0  0
  -21.5140   -4.6560   24.9340 C   0  0  0  0  0  0  0  0  0  0  0  0
  -21.9590   -4.0790   23.7300 C   0  0  0  0  0  3  0  0  0  0  0  0
  -22.0650   -4.8700   22.5720 C   0  0  0  0  0  0  0  0  0  0  0  0
  -22.4730   -4.3050   21.4110 F   0  0  0  0  0  0  0  0  0  0  0  0
  -21.4050   -3.8920   26.0460 F   0  0  0  0  0  0  0  0  0  0  0  0
  -22.7970  -13.6100   21.1340 C   0  0  0  0  0  0  0  0  0  0  0  0
  -22.1110  -12.8990   22.0210 N   0  0  0  0  0  0  0  0  0  0  0  0
  -22.3330  -14.6380   20.6440 O   0  0  0  0  0  0  0  0  0  0  0  0
  -22.5010  -12.0660   22.4350 H   0  0  0  0  0  0  0  0  0  0  0  0
  -21.1810  -13.1910   22.2870 H   0  0  0  0  0  0  0  0  0  0  0  0
  -25.3720  -15.3080   20.2230 N   0  0  0  0  0  0  0  0  0  0  0  0
  -24.5980  -15.9470   20.3720 H   0  0  0  0  0  0  0  0  0  0  0  0
  -26.2030  -15.7690   19.8780 H   0  0  0  0  0  0  0  0  0  0  0  0
  -28.7610  -23.7190   20.6410 C   0  0  0  0  0  0  0  0  0  0  0  0
  -28.8200  -22.4500   20.0870 N   0  0  0  0  0  0  0  0  0  0  0  0
  -29.0290  -23.8680   21.8390 O   0  0  0  0  0  0  0  0  0  0  0  0
  -28.6470  -22.4150   19.0910 H   0  0  0  0  0  0  0  0  0  0  0  0
  -28.2930  -24.9990   19.7770 C   0  0  0  0  0  2  0  0  0  0  0  0
  -28.3640  -26.4330   20.2350 O   0  0  0  0  0  0  0  0  0  0  0  0
  -24.6060  -31.8630   23.1940 C   0  0  0  0  0  0  0  0  0  0  0  0
  -27.2560  -27.3050   20.1340 C   0  0  0  0  0  0  0  0  0  0  0  0
  -23.4240  -30.4750   21.5260 C   0  0  0  0  0  3  0  0  0  0  0  0
  -24.8940  -28.9340   20.1050 C   0  0  0  0  0  0  0  0  0  0  0  0
  -25.9660  -30.7910   21.3810 C   0  0  0  0  0  2  0  0  0  0  0  0
  -26.0550  -29.4160   20.7190 C   0  0  0  0  0  0  0  0  0  0  0  0
  -27.2360  -28.6120   20.7260 C   0  0  0  0  0  3  0  0  0  0  0  0
  -26.0730  -26.8900   19.4840 C   0  0  0  0  0  3  0  0  0  0  0  0
  -24.9040  -27.6780   19.4800 C   0  0  0  0  0  3  0  0  0  0  0  0
  -23.6550  -29.8040   20.1450 C   0  0  0  0  0  2  0  0  0  0  0  0
  -24.6850  -31.0610   22.0920 N   0  0  0  0  0  0  0  0  0  0  0  0
  -23.5170  -32.1330   23.7190 O   0  0  0  0  0  0  0  0  0  0  0  0
  -22.7500  -29.4540   22.4770 C   0  0  0  0  0  0  0  0  0  0  0  0
  -21.4260  -29.2800   22.3400 N   0  0  0  0  0  0  0  0  0  0  0  0
  -23.4230  -28.8240   23.2980 O   0  0  0  0  0  0  0  0  0  0  0  0
  -20.9420  -29.8390   21.6500 H   0  0  0  0  0  0  0  0  0  0  0  0
  -18.0440  -28.0790   22.8020 C   0  0  0  0  0  0  0  0  0  0  0  0
  -20.6010  -28.3340   23.0970 C   0  0  0  0  0  3  0  0  0  0  0  0
  -20.7080  -26.9060   22.5130 C   0  0  0  0  0  2  0  0  0  0  0  0
  -19.6160  -26.5910   21.4880 C   0  0  0  0  0  2  0  0  0  0  0  0
  -18.2280  -26.7350   22.1200 C   0  0  0  0  0  2  0  0  0  0  0  0
  -19.1590  -28.8370   23.2500 C   0  0  0  0  0  0  0  0  0  0  0  0
  -18.9360  -30.0970   23.8460 C   0  0  0  0  0  3  0  0  0  0  0  0
  -17.6290  -30.5950   24.0110 C   0  0  0  0  0  3  0  0  0  0  0  0
  -16.5280  -29.8310   23.5860 C   0  0  0  0  0  3  0  0  0  0  0  0
  -16.7350  -28.5770   22.9840 C   0  0  0  0  0  3  0  0  0  0  0  0
  -25.8810  -32.4980   23.8320 C   0  0  0  0  0  3  0  0  0  0  0  0
  -26.3890  -31.7220   25.1090 C   0  0  1  0  0  0  0  0  0  0  0  0
  -25.2860  -31.4740   26.1640 C   0  0  0  0  0  1  0  0  0  0  0  0
  -26.9850  -30.3510   24.7170 C   0  0  0  0  0  1  0  0  0  0  0  0
  -27.5330  -32.5140   25.7840 C   0  0  0  0  0  1  0  0  0  0  0  0
  -25.5650  -33.8920   24.1710 N   0  0  0  0  0  0  0  0  0  0  0  0
  -25.8980  -34.9520   23.4260 C   0  0  0  0  0  0  0  0  0  0  0  0
  -26.5710  -34.8630   22.3960 O   0  0  0  0  0  0  0  0  0  0  0  0
  -24.9720  -34.0350   24.9760 H   0  0  0  0  0  0  0  0  0  0  0  0
  -24.1660  -36.7410   23.0870 C   0  0  0  0  0  1  0  0  0  0  0  0
  -25.4060  -36.3340   23.8960 C   0  0  0  0  0  3  0  0  0  0  0  0
  -27.5370  -37.2170   24.7380 C   0  0  0  0  0  1  0  0  0  0  0  0
  -26.4330  -37.3930   23.7980 N   0  0  0  0  0  0  0  0  0  0  0  0
  -26.0210  -38.3080   23.9660 H   0  0  0  0  0  0  0  0  0  0  0  0
  2  5  1  0
  3  6  2  0
  4  3  1  0
  4  2  2  0
  5  7  2  0
  5  1  1  0
  6 18  1  0
  6  7  1  0
  7  9  1  0
  8  4  1  0
 10 18  1  0
 11 16  1  0
 12 13  1  0
 12 11  1  0
 14 13  1  0
 14 23  1  0
 14 15  1  0
 16 10  1  0
 16 15  1  0
 17 10  2  0
 18 19  1  0
 20 21  2  0
 21 40  1  0
 22 21  1  0
 22 25  1  0
 23 24  1  0
 23 20  1  0
 24 22  2  0
 25 26  1  0
 26 27  2  0
 28 31  1  0
 28 27  1  0
 29 28  2  0
 30 29  1  0
 30 25  2  0
 31 32  1  0
 32 33  1  0
 33 34  2  0
 35 34  1  0
 35 39  1  0
 36 35  2  0
 37 32  2  0
 37 36  1  0
 38 37  1  0
 40 41  1  0
 41 44  1  0
 41 43  1  0
 42 40  2  0
 45 46  1  0
 45 20  1  0
 47 45  1  0
 48 50  2  0
 49 48  1  0
 49  1  1  0
 51 49  1  0
 52 53  1  0
 52 48  1  0
 54 65  2  0
 55 53  1  0
 55 60  1  0
 56 64  1  0
 56 66  1  0
 57 63  1  0
 57 59  1  0
 58 64  1  0
 59 60  2  0
 59 58  1  0
 61 55  2  0
 62 61  1  0
 62 57  2  0
 63 56  1  0
 64 54  1  0
 66 68  2  0
 67 66  1  0
 69 67  1  0
 70 79  2  0
 70 75  1  0
 71 67  1  0
 71 75  1  0
 72 71  1  0
 73 74  1  0
 73 72  1  0
 74 70  1  0
 75 76  2  0
 76 77  1  0
 78 77  2  0
 79 78  1  0
 80 54  1  0
 80 85  1  0
 80 81  1  0
 81 84  1  1
 81 82  1  0
 83 81  1  0
 85 88  1  0
 86 90  1  0
 86 85  1  0
 87 86  2  0
 90 89  1  0
 92 90  1  0
 92 93  1  0
 92 91  1  0
M  ISO  4  10 100  18 100  52 101  53 101
M  END
>  <TORSDO>  (9) 
F 19

>  <SCORE>  (9) 
-13.693

>  <name>  (9) 
8

>  <ligand_id>  (9) 
8

>  <original_smiles>  (9) 
[H]c1c([H])c([H])c2c(c1[H])C([H])([H])C([H])([H])C([H])([H])C2([H])N([H])C(=O)C1([H])N(C(=O)C([H])(N([H])C(=O)C([H])(N([H])C([H])([H])[H])C([H])([H])[H])C(C([H])([H])[H])(C([H])([H])[H])C([H])([H])[H])C([H])([H])c2c([H])c(OC([H])([H])C(=O)N([H])C([H])([H])c3c([H])c(C([H])([H])[H])c([H])c(N([H])C(=O)N4C([H])([H])C([H])([H])C([H])([H])C([H])(n5nc(-c6c([H])c([H])c(Oc7c([H])c([H])c(F)c([H])c7F)c([H])c6[H])c(C(=O)N([H])[H])c5N([H])[H])C4([H])[H])c3Cl)c([H])c([H])c2C1([H])[H]

>  <smiles>  (9) 
[H]c1c([H])c([H])c2c(c1[H])C([H])([H])C([H])([H])C([H])([H])C2([H])N([H])C(=O)C1([H])N(C(=O)C([H])(N([H])C(=O)C([H])(N([H])C([H])([H])[H])C([H])([H])[H])C(C([H])([H])[H])(C([H])([H])[H])C([H])([H])[H])C([H])([H])c2c([H])c(OC([H])([H])C(=O)N([H])C([H])([H])c3c([H])c(C([H])([H])[H])c([H])c(N([H])C(=O)N4C([H])([H])C([H])([H])C([H])([H])C([H])(n5nc(-c6c([H])c([H])c(Oc7c([H])c([H])c(F)c([H])c7F)c([H])c6[H])c(C(=O)N([H])[H])c5N([H])[H])C4([H])[H])c3Cl)c([H])c([H])c2C1([H])[H]

$$$$
9:0:0
     RDKit          3D

 92100  0  0  1  0  0  0  0  0999 V2000
  -30.7040  -18.4170   19.5300 C   0  0  0  0  0  3  0  0  0  0  0  0
  -28.4110  -19.7410   20.4060 C   0  0  0  0  0  3  0  0  0  0  0  0
  -29.7170  -17.5490   20.1000 C   0  0  0  0  0  0  0  0  0  0  0  0
  -29.3760  -20.6110   19.8010 C   0  0  0  0  0  0  0  0  0  0  0  0
  -28.5710  -18.3010   20.5360 C   0  0  0  0  0  0  0  0  0  0  0  0
  -30.5340  -19.8560   19.3810 C   0  0  0  0  0  0  0  0  0  0  0  0
  -27.5530  -17.5990   21.0890 F   0  0  0  0  0  0  0  0  0  0  0  0
  -31.5350  -20.5430   18.7770 F   0  0  0  0  0  0  0  0  0  0  0  0
  -30.4980  -14.9140   19.8200 C   0  0  0  0  0  0  0  0  0  0  0  0
  -30.2880  -12.5990   18.8190 C   0  0  0  0  0  2  0  0  0  0  0  0
  -29.2610  -12.6430   17.6640 C   0  0  0  0  0  2  0  0  0  0  0  0
  -27.8270  -12.4500   18.1920 C   0  0  0  0  0  2  0  0  0  0  0  0
  -27.5340  -13.3170   19.4430 C   0  0  0  0  0  3  0  0  0  0  0  0
  -28.6740  -13.2380   20.4830 C   0  0  0  0  0  2  0  0  0  0  0  0
  -29.9120  -13.6500   19.8050 N   0  0  0  0  0  0  0  0  0  0  0  0
  -31.6440  -15.0290   19.3740 O   0  0  0  0  0  0  0  0  0  0  0  0
  -29.7140  -16.0220   20.2140 N   0  0  0  0  0  0  0  0  0  0  0  0
  -28.8680  -15.6990   20.6590 H   0  0  0  0  0  0  0  0  0  0  0  0
  -25.2080  -13.8970   20.3490 C   0  0  0  0  0  0  0  0  0  0  0  0
  -24.1700  -13.1220   20.7870 C   0  0  0  0  0  0  0  0  0  0  0  0
  -24.6240  -11.7690   20.7070 C   0  0  0  0  0  0  0  0  0  0  0  0
  -26.2300  -13.0180   20.0280 N   0  0  0  0  0  0  0  0  0  0  0  0
  -25.8910  -11.7320   20.3060 N   0  0  0  0  0  0  0  0  0  0  0  0
  -23.9070  -10.5080   20.9350 C   0  0  0  0  0  0  0  0  0  0  0  0
  -24.3870   -9.5350   21.8400 C   0  0  0  0  0  3  0  0  0  0  0  0
  -23.6660   -8.3410   22.0560 C   0  0  0  0  0  3  0  0  0  0  0  0
  -22.4520   -8.1100   21.3680 C   0  0  0  0  0  0  0  0  0  0  0  0
  -21.9900   -9.0710   20.4510 C   0  0  0  0  0  3  0  0  0  0  0  0
  -22.7110  -10.2570   20.2330 C   0  0  0  0  0  3  0  0  0  0  0  0
  -21.6990   -6.9690   21.4950 O   0  0  0  0  0  0  0  0  0  0  0  0
  -21.7010   -6.2300   22.6510 C   0  0  0  0  0  0  0  0  0  0  0  0
  -21.3240   -6.7900   23.8910 C   0  0  0  0  0  3  0  0  0  0  0  0
  -21.2710   -5.9780   25.0430 C   0  0  0  0  0  3  0  0  0  0  0  0
  -21.5850   -4.6090   24.9540 C   0  0  0  0  0  0  0  0  0  0  0  0
  -21.9560   -4.0490   23.7190 C   0  0  0  0  0  3  0  0  0  0  0  0
  -22.0100   -4.8570   22.5700 C   0  0  0  0  0  0  0  0  0  0  0  0
  -22.3460   -4.3090   21.3780 F   0  0  0  0  0  0  0  0  0  0  0  0
  -21.5270   -3.8280   26.0590 F   0  0  0  0  0  0  0  0  0  0  0  0
  -22.7970  -13.6020   21.1620 C   0  0  0  0  0  0  0  0  0  0  0  0
  -22.1290  -12.9070   22.0750 N   0  0  0  0  0  0  0  0  0  0  0  0
  -22.3290  -14.6320   20.6790 O   0  0  0  0  0  0  0  0  0  0  0  0
  -22.5230  -12.0750   22.4900 H   0  0  0  0  0  0  0  0  0  0  0  0
  -21.2120  -13.2160   22.3660 H   0  0  0  0  0  0  0  0  0  0  0  0
  -25.3590  -15.2710   20.1780 N   0  0  0  0  0  0  0  0  0  0  0  0
  -24.6020  -15.9180   20.3660 H   0  0  0  0  0  0  0  0  0  0  0  0
  -26.1790  -15.7240   19.7960 H   0  0  0  0  0  0  0  0  0  0  0  0
  -29.2400  -22.0640   19.4870 N   0  0  0  0  0  0  0  0  0  0  0  0
  -29.9410  -22.3180   18.7930 H   0  0  0  0  0  0  0  0  0  0  0  0
  -27.4530  -23.0390   21.0180 C   0  0  0  0  0  1  0  0  0  0  0  0
  -28.7140  -23.3440   20.2050 C   0  0  0  0  0  3  0  0  0  0  0  0
  -28.4610  -24.7720   19.3480 C   0  0  0  0  0  2  0  0  0  0  0  0
  -28.4020  -26.2270   19.8910 O   0  0  0  0  0  0  0  0  0  0  0  0
  -24.6200  -31.7030   22.9990 C   0  0  0  0  0  0  0  0  0  0  0  0
  -27.2960  -27.1490   19.8150 C   0  0  0  0  0  0  0  0  0  0  0  0
  -23.4480  -30.3380   21.3110 C   0  0  0  0  0  3  0  0  0  0  0  0
  -24.9260  -28.8370   19.8390 C   0  0  0  0  0  0  0  0  0  0  0  0
  -25.9960  -30.6560   21.1620 C   0  0  0  0  0  2  0  0  0  0  0  0
  -26.0930  -29.2890   20.4660 C   0  0  0  0  0  0  0  0  0  0  0  0
  -27.2730  -28.4580   20.4410 C   0  0  0  0  0  3  0  0  0  0  0  0
  -26.0970  -26.7940   19.1540 C   0  0  0  0  0  3  0  0  0  0  0  0
  -24.9390  -27.6030   19.1690 C   0  0  0  0  0  3  0  0  0  0  0  0
  -23.6840  -29.7110   19.9120 C   0  0  0  0  0  2  0  0  0  0  0  0
  -24.7080  -30.9190   21.8800 N   0  0  0  0  0  0  0  0  0  0  0  0
  -23.5280  -31.9530   23.5310 O   0  0  0  0  0  0  0  0  0  0  0  0
  -22.7840  -29.2900   22.2390 C   0  0  0  0  0  0  0  0  0  0  0  0
  -21.4530  -29.1270   22.1270 N   0  0  0  0  0  0  0  0  0  0  0  0
  -23.4660  -28.6290   23.0250 O   0  0  0  0  0  0  0  0  0  0  0  0
  -20.9570  -29.7180   21.4750 H   0  0  0  0  0  0  0  0  0  0  0  0
  -18.0720  -27.9370   22.6610 C   0  0  0  0  0  0  0  0  0  0  0  0
  -20.6420  -28.1580   22.8690 C   0  0  0  0  0  3  0  0  0  0  0  0
  -20.7080  -26.7570   22.2180 C   0  0  0  0  0  2  0  0  0  0  0  0
  -19.5760  -26.5000   21.2190 C   0  0  0  0  0  2  0  0  0  0  0  0
  -18.2140  -26.6240   21.9090 C   0  0  0  0  0  2  0  0  0  0  0  0
  -19.2110  -28.6640   23.0980 C   0  0  0  0  0  0  0  0  0  0  0  0
  -19.0220  -29.8930   23.7670 C   0  0  0  0  0  3  0  0  0  0  0  0
  -17.7270  -30.3960   23.9970 C   0  0  0  0  0  3  0  0  0  0  0  0
  -16.6050  -29.6660   23.5720 C   0  0  0  0  0  3  0  0  0  0  0  0
  -16.7780  -28.4360   22.9110 C   0  0  0  0  0  3  0  0  0  0  0  0
  -25.8850  -32.3390   23.6520 C   0  0  0  0  0  3  0  0  0  0  0  0
  -26.4070  -31.5370   24.9070 C   0  0  1  0  0  0  0  0  0  0  0  0
  -25.3160  -31.2540   25.9660 C   0  0  0  0  0  1  0  0  0  0  0  0
  -27.0090  -30.1780   24.4770 C   0  0  0  0  0  1  0  0  0  0  0  0
  -27.5440  -32.3260   25.5950 C   0  0  0  0  0  1  0  0  0  0  0  0
  -25.5460  -33.7200   24.0330 N   0  0  0  0  0  0  0  0  0  0  0  0
  -25.8640  -34.8090   23.3210 C   0  0  0  0  0  0  0  0  0  0  0  0
  -26.5410  -34.7580   22.2900 O   0  0  0  0  0  0  0  0  0  0  0  0
  -24.9430  -33.8320   24.8350 H   0  0  0  0  0  0  0  0  0  0  0  0
  -24.1050  -36.5890   23.0390 C   0  0  0  0  0  1  0  0  0  0  0  0
  -25.3540  -36.1720   23.8320 C   0  0  0  0  0  3  0  0  0  0  0  0
  -27.4720  -37.0630   24.6980 C   0  0  0  0  0  1  0  0  0  0  0  0
  -26.3690  -37.2450   23.7600 N   0  0  0  0  0  0  0  0  0  0  0  0
  -25.9470  -38.1530   23.9380 H   0  0  0  0  0  0  0  0  0  0  0  0
  1  3  1  0
  2  5  1  0
  3 17  1  0
  3  5  2  0
  4  2  2  0
  5  7  1  0
  6  1  2  0
  6  4  1  0
  8  6  1  0
  9 17  1  0
 10 15  1  0
 11 12  1  0
 11 10  1  0
 13 12  1  0
 13 22  1  0
 13 14  1  0
 15  9  1  0
 15 14  1  0
 16  9  2  0
 17 18  1  0
 19 20  2  0
 20 39  1  0
 21 20  1  0
 21 24  1  0
 22 23  1  0
 22 19  1  0
 23 21  2  0
 24 25  1  0
 25 26  2  0
 27 30  1  0
 27 26  1  0
 28 27  2  0
 29 28  1  0
 29 24  2  0
 30 31  1  0
 31 32  1  0
 32 33  2  0
 34 33  1  0
 34 38  1  0
 35 34  2  0
 36 31  2  0
 36 35  1  0
 37 36  1  0
 39 40  1  0
 40 43  1  0
 40 42  1  0
 41 39  2  0
 44 19  1  0
 44 45  1  0
 46 44  1  0
 47  4  1  0
 47 50  1  0
 48 47  1  0
 50 49  1  0
 51 52  1  0
 51 50  1  0
 53 64  2  0
 54 52  1  0
 54 59  1  0
 55 63  1  0
 55 65  1  0
 56 62  1  0
 56 58  1  0
 57 63  1  0
 58 57  1  0
 59 58  2  0
 60 61  1  0
 60 54  2  0
 61 56  2  0
 62 55  1  0
 63 53  1  0
 65 67  2  0
 66 65  1  0
 68 66  1  0
 69 78  2  0
 69 74  1  0
 70 66  1  0
 70 74  1  0
 71 70  1  0
 72 73  1  0
 72 71  1  0
 73 69  1  0
 74 75  2  0
 75 76  1  0
 77 76  2  0
 78 77  1  0
 79 53  1  0
 79 84  1  0
 79 80  1  0
 80 83  1  1
 80 81  1  0
 82 80  1  0
 84 87  1  0
 85 89  1  0
 85 84  1  0
 86 85  2  0
 89 88  1  0
 91 89  1  0
 91 92  1  0
 91 90  1  0
M  ISO  4   9 100  17 100  51 101  52 101
M  END
>  <TORSDO>  (10) 
F 19

>  <SCORE>  (10) 
-13.595

>  <name>  (10) 
9

>  <ligand_id>  (10) 
9

>  <original_smiles>  (10) 
[H]c1c([H])c([H])c2c(c1[H])C([H])([H])C([H])([H])C([H])([H])C2([H])N([H])C(=O)C1([H])N(C(=O)C([H])(N([H])C(=O)C([H])(N([H])C([H])([H])[H])C([H])([H])[H])C(C([H])([H])[H])(C([H])([H])[H])C([H])([H])[H])C([H])([H])c2c([H])c(OC([H])([H])C([H])(N([H])c3c([H])c(F)c(N([H])C(=O)N4C([H])([H])C([H])([H])C([H])([H])C([H])(n5nc(-c6c([H])c([H])c(Oc7c([H])c([H])c(F)c([H])c7F)c([H])c6[H])c(C(=O)N([H])[H])c5N([H])[H])C4([H])[H])c([H])c3F)C([H])([H])[H])c([H])c([H])c2C1([H])[H]

>  <smiles>  (10) 
[H]c1c([H])c([H])c2c(c1[H])C([H])([H])C([H])([H])C([H])([H])C2([H])N([H])C(=O)C1([H])N(C(=O)C([H])(N([H])C(=O)C([H])(N([H])C([H])([H])[H])C([H])([H])[H])C(C([H])([H])[H])(C([H])([H])[H])C([H])([H])[H])C([H])([H])c2c([H])c(OC([H])([H])C([H])(N([H])c3c([H])c(F)c(N([H])C(=O)N4C([H])([H])C([H])([H])C([H])([H])C([H])(n5nc(-c6c([H])c([H])c(Oc7c([H])c([H])c(F)c([H])c7F)c([H])c6[H])c(C(=O)N([H])[H])c5N([H])[H])C4([H])[H])c([H])c3F)C([H])([H])[H])c([H])c([H])c2C1([H])[H]

$$$$
10:0:0
     RDKit          3D

 91 99  0  0  1  0  0  0  0  0999 V2000
  -28.5850  -20.9940   21.0200 C   0  0  0  0  0  3  0  0  0  0  0  0
  -28.2990  -22.3650   21.0620 C   0  0  0  0  0  0  0  0  0  0  0  0
  -27.1690  -22.7310   22.0260 C   0  0  0  0  0  1  0  0  0  0  0  0
  -29.3680  -18.5210   20.7150 C   0  0  0  0  0  3  0  0  0  0  0  0
  -30.5840  -20.2830   19.5600 C   0  0  0  0  0  3  0  0  0  0  0  0
  -31.2690  -17.9120   19.3620 C   0  0  0  0  0  3  0  0  0  0  0  0
  -29.5210  -19.9400   20.4140 C   0  0  0  0  0  0  0  0  0  0  0  0
  -30.2290  -17.4650   20.2150 C   0  0  0  0  0  0  0  0  0  0  0  0
  -31.4400  -19.2830   19.0450 C   0  0  0  0  0  0  0  0  0  0  0  0
  -32.7280  -19.7470   17.9930 Cl  0  0  0  0  0  0  0  0  0  0  0  0
  -30.7930  -14.8890   20.2370 C   0  0  0  0  0  0  0  0  0  0  0  0
  -30.6070  -12.6040   19.2460 C   0  0  0  0  0  2  0  0  0  0  0  0
  -29.6690  -12.6670   18.0210 C   0  0  0  0  0  2  0  0  0  0  0  0
  -28.2020  -12.4790   18.4530 C   0  0  0  0  0  2  0  0  0  0  0  0
  -27.8200  -13.3670   19.6670 C   0  0  0  0  0  3  0  0  0  0  0  0
  -28.8810  -13.2970   20.7880 C   0  0  0  0  0  2  0  0  0  0  0  0
  -30.1760  -13.6570   20.1950 N   0  0  0  0  0  0  0  0  0  0  0  0
  -31.9730  -14.9820   19.8880 O   0  0  0  0  0  0  0  0  0  0  0  0
  -30.0220  -16.0140   20.5130 N   0  0  0  0  0  0  0  0  0  0  0  0
  -29.1170  -15.7870   20.8960 H   0  0  0  0  0  0  0  0  0  0  0  0
  -25.4250  -13.9290   20.3930 C   0  0  0  0  0  0  0  0  0  0  0  0
  -24.3700  -13.1430   20.7670 C   0  0  0  0  0  0  0  0  0  0  0  0
  -24.8500  -11.7980   20.7430 C   0  0  0  0  0  0  0  0  0  0  0  0
  -26.4800  -13.0630   20.1590 N   0  0  0  0  0  0  0  0  0  0  0  0
  -26.1410  -11.7760   20.4340 N   0  0  0  0  0  0  0  0  0  0  0  0
  -24.1400  -10.5270   20.9390 C   0  0  0  0  0  0  0  0  0  0  0  0
  -24.5520   -9.5940   21.9160 C   0  0  0  0  0  3  0  0  0  0  0  0
  -23.8410   -8.3890   22.0990 C   0  0  0  0  0  3  0  0  0  0  0  0
  -22.7030   -8.1070   21.3050 C   0  0  0  0  0  0  0  0  0  0  0  0
  -22.3100   -9.0300   20.3200 C   0  0  0  0  0  3  0  0  0  0  0  0
  -23.0230  -10.2260   20.1340 C   0  0  0  0  0  3  0  0  0  0  0  0
  -21.9660   -6.9510   21.3960 O   0  0  0  0  0  0  0  0  0  0  0  0
  -21.8500   -6.2630   22.5760 C   0  0  0  0  0  0  0  0  0  0  0  0
  -21.2840   -6.8500   23.7290 C   0  0  0  0  0  3  0  0  0  0  0  0
  -21.1190   -6.0840   24.9000 C   0  0  0  0  0  3  0  0  0  0  0  0
  -21.5100   -4.7320   24.9190 C   0  0  0  0  0  0  0  0  0  0  0  0
  -22.0680   -4.1440   23.7700 C   0  0  0  0  0  3  0  0  0  0  0  0
  -22.2340   -4.9060   22.6020 C   0  0  0  0  0  0  0  0  0  0  0  0
  -22.7530   -4.3290   21.4910 F   0  0  0  0  0  0  0  0  0  0  0  0
  -21.3440   -3.9940   26.0420 F   0  0  0  0  0  0  0  0  0  0  0  0
  -22.9660  -13.6030   21.0360 C   0  0  0  0  0  0  0  0  0  0  0  0
  -22.2450  -12.8980   21.9000 N   0  0  0  0  0  0  0  0  0  0  0  0
  -22.5180  -14.6250   20.5160 O   0  0  0  0  0  0  0  0  0  0  0  0
  -22.6200  -12.0720   22.3420 H   0  0  0  0  0  0  0  0  0  0  0  0
  -21.3030  -13.1880   22.1220 H   0  0  0  0  0  0  0  0  0  0  0  0
  -25.5700  -15.3010   20.2070 N   0  0  0  0  0  0  0  0  0  0  0  0
  -24.7900  -15.9420   20.3060 H   0  0  0  0  0  0  0  0  0  0  0  0
  -26.4020  -15.7470   19.8430 H   0  0  0  0  0  0  0  0  0  0  0  0
  -28.8840  -23.6830   20.3660 C   0  0  0  0  0  3  0  0  0  0  0  0
  -27.9460  -25.0290   20.3960 C   0  0  0  0  0  3  0  0  0  0  0  0
  -28.3050  -26.4440   20.0130 O   0  0  0  0  0  0  0  0  0  0  0  0
  -24.6920  -31.9050   23.1930 C   0  0  0  0  0  0  0  0  0  0  0  0
  -27.2360  -27.3760   19.9910 C   0  0  0  0  0  0  0  0  0  0  0  0
  -23.4650  -30.5530   21.5360 C   0  0  0  0  0  3  0  0  0  0  0  0
  -24.8910  -29.0390   20.0450 C   0  0  0  0  0  0  0  0  0  0  0  0
  -26.0070  -30.8570   21.3310 C   0  0  0  0  0  2  0  0  0  0  0  0
  -26.0740  -29.4920   20.6460 C   0  0  0  0  0  0  0  0  0  0  0  0
  -27.2500  -28.6730   20.6100 C   0  0  0  0  0  3  0  0  0  0  0  0
  -26.0370  -27.0140   19.3350 C   0  0  0  0  0  3  0  0  0  0  0  0
  -24.8790  -27.8090   19.3770 C   0  0  0  0  0  3  0  0  0  0  0  0
  -23.6600  -29.9180   20.1340 C   0  0  0  0  0  2  0  0  0  0  0  0
  -24.7410  -31.1210   22.0760 N   0  0  0  0  0  0  0  0  0  0  0  0
  -23.6160  -32.1720   23.7480 O   0  0  0  0  0  0  0  0  0  0  0  0
  -22.8110  -29.5120   22.4780 C   0  0  0  0  0  0  0  0  0  0  0  0
  -21.4840  -29.3320   22.3570 N   0  0  0  0  0  0  0  0  0  0  0  0
  -23.4960  -28.8710   23.2790 O   0  0  0  0  0  0  0  0  0  0  0  0
  -20.9880  -29.9010   21.6850 H   0  0  0  0  0  0  0  0  0  0  0  0
  -18.1130  -28.1180   22.8690 C   0  0  0  0  0  0  0  0  0  0  0  0
  -20.6740  -28.3750   23.1140 C   0  0  0  0  0  3  0  0  0  0  0  0
  -20.7710  -26.9580   22.5040 C   0  0  0  0  0  2  0  0  0  0  0  0
  -19.6570  -26.6570   21.4950 C   0  0  0  0  0  2  0  0  0  0  0  0
  -18.2830  -26.7850   22.1590 C   0  0  0  0  0  2  0  0  0  0  0  0
  -19.2350  -28.8710   23.3040 C   0  0  0  0  0  0  0  0  0  0  0  0
  -19.0210  -30.1180   23.9290 C   0  0  0  0  0  3  0  0  0  0  0  0
  -17.7180  -30.6120   24.1230 C   0  0  0  0  0  3  0  0  0  0  0  0
  -16.6100  -29.8560   23.7040 C   0  0  0  0  0  3  0  0  0  0  0  0
  -16.8080  -28.6100   23.0820 C   0  0  0  0  0  3  0  0  0  0  0  0
  -25.9840  -32.5210   23.8130 C   0  0  0  0  0  3  0  0  0  0  0  0
  -26.4970  -31.7350   25.0810 C   0  0  1  0  0  0  0  0  0  0  0  0
  -25.4050  -31.4990   26.1510 C   0  0  0  0  0  1  0  0  0  0  0  0
  -27.0680  -30.3560   24.6790 C   0  0  0  0  0  1  0  0  0  0  0  0
  -27.6570  -32.5150   25.7450 C   0  0  0  0  0  1  0  0  0  0  0  0
  -25.6880  -33.9190   24.1570 N   0  0  0  0  0  0  0  0  0  0  0  0
  -26.0180  -34.9760   23.4020 C   0  0  0  0  0  0  0  0  0  0  0  0
  -26.6720  -34.8750   22.3590 O   0  0  0  0  0  0  0  0  0  0  0  0
  -25.1070  -34.0730   24.9670 H   0  0  0  0  0  0  0  0  0  0  0  0
  -24.3060  -36.7910   23.0790 C   0  0  0  0  0  1  0  0  0  0  0  0
  -25.5490  -36.3650   23.8770 C   0  0  0  0  0  3  0  0  0  0  0  0
  -27.6940  -37.2260   24.7070 C   0  0  0  0  0  1  0  0  0  0  0  0
  -26.5920  -37.4080   23.7660 N   0  0  0  0  0  0  0  0  0  0  0  0
  -26.1960  -38.3310   23.9170 H   0  0  0  0  0  0  0  0  0  0  0  0
  1  2  2  0
  2  3  1  0
  5  7  2  0
  6  8  1  0
  7  4  1  0
  7  1  1  0
  8 19  1  0
  8  4  2  0
  9  6  2  0
  9  5  1  0
 10  9  1  0
 11 19  1  0
 12 17  1  0
 13 14  1  0
 13 12  1  0
 15 14  1  0
 15 24  1  0
 15 16  1  0
 17 11  1  0
 17 16  1  0
 18 11  2  0
 19 20  1  0
 21 22  2  0
 22 41  1  0
 23 22  1  0
 23 26  1  0
 24 21  1  0
 24 25  1  0
 25 23  2  0
 26 27  1  0
 27 28  2  0
 29 32  1  0
 29 28  1  0
 30 29  2  0
 31 30  1  0
 31 26  2  0
 32 33  1  0
 33 38  2  0
 33 34  1  0
 34 35  2  0
 35 36  1  0
 36 40  1  0
 37 36  2  0
 38 37  1  0
 39 38  1  0
 41 42  1  0
 42 45  1  0
 42 44  1  0
 43 41  2  0
 46 47  1  0
 46 21  1  0
 48 46  1  0
 49 50  2  0
 49  2  1  0
 51 50  1  0
 52 63  2  0
 53 51  1  0
 53 58  1  0
 54 62  1  0
 54 64  1  0
 55 61  1  0
 55 57  1  0
 56 62  1  0
 57 56  1  0
 58 57  2  0
 59 60  1  0
 59 53  2  0
 60 55  2  0
 61 54  1  0
 62 52  1  0
 64 66  2  0
 65 64  1  0
 67 65  1  0
 68 77  2  0
 68 73  1  0
 69 65  1  0
 69 73  1  0
 70 69  1  0
 71 72  1  0
 71 70  1  0
 72 68  1  0
 73 74  2  0
 74 75  1  0
 76 75  2  0
 77 76  1  0
 78 52  1  0
 78 83  1  0
 78 79  1  0
 79 82  1  1
 79 80  1  0
 81 79  1  0
 83 86  1  0
 84 88  1  0
 84 83  1  0
 85 84  2  0
 88 87  1  0
 90 88  1  0
 90 91  1  0
 90 89  1  0
M  ISO  4  11 100  19 100  50 101  51 101
M  END
>  <TORSDO>  (11) 
F 19

>  <SCORE>  (11) 
-13.834

>  <name>  (11) 
10

>  <ligand_id>  (11) 
10

>  <original_smiles>  (11) 
[H]C(=C(C([H])([H])[H])C([H])([H])C([H])([H])Oc1c([H])c([H])c2c(c1[H])C([H])([H])N(C(=O)C([H])(N([H])C(=O)C([H])(N([H])C([H])([H])[H])C([H])([H])[H])C(C([H])([H])[H])(C([H])([H])[H])C([H])([H])[H])C([H])(C(=O)N([H])C1([H])c3c([H])c([H])c([H])c([H])c3C([H])([H])C([H])([H])C1([H])[H])C2([H])[H])c1c([H])c(Cl)c([H])c(N([H])C(=O)N2C([H])([H])C([H])([H])C([H])([H])C([H])(n3nc(-c4c([H])c([H])c(Oc5c([H])c([H])c(F)c([H])c5F)c([H])c4[H])c(C(=O)N([H])[H])c3N([H])[H])C2([H])[H])c1[H]

>  <smiles>  (11) 
[H]C(=C(C([H])([H])[H])C([H])([H])C([H])([H])Oc1c([H])c([H])c2c(c1[H])C([H])([H])N(C(=O)C([H])(N([H])C(=O)C([H])(N([H])C([H])([H])[H])C([H])([H])[H])C(C([H])([H])[H])(C([H])([H])[H])C([H])([H])[H])C([H])(C(=O)N([H])C1([H])c3c([H])c([H])c([H])c([H])c3C([H])([H])C([H])([H])C1([H])[H])C2([H])[H])c1c([H])c(Cl)c([H])c(N([H])C(=O)N2C([H])([H])C([H])([H])C([H])([H])C([H])(n3nc(-c4c([H])c([H])c(Oc5c([H])c([H])c(F)c([H])c5F)c([H])c4[H])c(C(=O)N([H])[H])c3N([H])[H])C2([H])[H])c1[H]

$$$$
11:0:0
     RDKit          3D

 91 99  0  0  1  0  0  0  0  0999 V2000
  -29.9210  -21.5280   20.5150 N   0  0  0  0  0  0  0  0  0  0  0  0
  -30.8700  -21.8920   20.4630 H   0  0  0  0  0  0  0  0  0  0  0  0
  -28.6440  -17.9250   20.5540 C   0  0  0  0  0  3  0  0  0  0  0  0
  -28.6320  -19.3530   20.5230 C   0  0  0  0  0  3  0  0  0  0  0  0
  -31.0480  -17.9130   20.4490 C   0  0  0  0  0  3  0  0  0  0  0  0
  -29.8460  -17.1630   20.5210 C   0  0  0  0  0  0  0  0  0  0  0  0
  -29.8360  -20.0970   20.4830 C   0  0  0  0  0  0  0  0  0  0  0  0
  -31.0390  -19.3400   20.4380 C   0  0  0  0  0  0  0  0  0  0  0  0
  -32.2200  -20.0020   20.3870 F   0  0  0  0  0  0  0  0  0  0  0  0
  -30.5840  -14.6810   20.2080 C   0  0  0  0  0  0  0  0  0  0  0  0
  -30.3520  -12.4680   19.1010 C   0  0  0  0  0  2  0  0  0  0  0  0
  -29.3610  -12.6350   17.9260 C   0  0  0  0  0  2  0  0  0  0  0  0
  -27.9010  -12.4740   18.4040 C   0  0  0  0  0  2  0  0  0  0  0  0
  -27.5940  -13.3030   19.6790 C   0  0  0  0  0  3  0  0  0  0  0  0
  -28.6920  -13.0980   20.7460 C   0  0  0  0  0  2  0  0  0  0  0  0
  -29.9810  -13.4550   20.1330 N   0  0  0  0  0  0  0  0  0  0  0  0
  -31.7320  -14.8630   19.7900 O   0  0  0  0  0  0  0  0  0  0  0  0
  -29.7560  -15.7070   20.5930 N   0  0  0  0  0  0  0  0  0  0  0  0
  -28.8540  -15.3640   20.8800 H   0  0  0  0  0  0  0  0  0  0  0  0
  -25.2340  -13.9010   20.5030 C   0  0  0  0  0  0  0  0  0  0  0  0
  -24.1770  -13.1260   20.8990 C   0  0  0  0  0  0  0  0  0  0  0  0
  -24.6290  -11.7730   20.8170 C   0  0  0  0  0  0  0  0  0  0  0  0
  -26.2620  -13.0200   20.2060 N   0  0  0  0  0  0  0  0  0  0  0  0
  -25.9050  -11.7330   20.4500 N   0  0  0  0  0  0  0  0  0  0  0  0
  -23.9020  -10.5110   21.0020 C   0  0  0  0  0  0  0  0  0  0  0  0
  -24.3340   -9.5410   21.9330 C   0  0  0  0  0  3  0  0  0  0  0  0
  -23.6090   -8.3420   22.1080 C   0  0  0  0  0  3  0  0  0  0  0  0
  -22.4370   -8.1060   21.3500 C   0  0  0  0  0  0  0  0  0  0  0  0
  -22.0240   -9.0650   20.4080 C   0  0  0  0  0  3  0  0  0  0  0  0
  -22.7510  -10.2530   20.2330 C   0  0  0  0  0  3  0  0  0  0  0  0
  -21.6840   -6.9590   21.4320 O   0  0  0  0  0  0  0  0  0  0  0  0
  -21.5870   -6.2450   22.5980 C   0  0  0  0  0  0  0  0  0  0  0  0
  -21.0730   -6.8160   23.7840 C   0  0  0  0  0  3  0  0  0  0  0  0
  -20.9300   -6.0240   24.9410 C   0  0  0  0  0  3  0  0  0  0  0  0
  -21.2870   -4.6640   24.9140 C   0  0  0  0  0  0  0  0  0  0  0  0
  -21.7950   -4.0920   23.7340 C   0  0  0  0  0  3  0  0  0  0  0  0
  -21.9420   -4.8810   22.5790 C   0  0  0  0  0  0  0  0  0  0  0  0
  -22.4120   -4.3210   21.4390 F   0  0  0  0  0  0  0  0  0  0  0  0
  -21.1410   -3.9010   26.0230 F   0  0  0  0  0  0  0  0  0  0  0  0
  -22.7950  -13.6040   21.2350 C   0  0  0  0  0  0  0  0  0  0  0  0
  -22.0950  -12.8940   22.1130 N   0  0  0  0  0  0  0  0  0  0  0  0
  -22.3440  -14.6430   20.7560 O   0  0  0  0  0  0  0  0  0  0  0  0
  -22.4710  -12.0540   22.5270 H   0  0  0  0  0  0  0  0  0  0  0  0
  -21.1680  -13.1960   22.3760 H   0  0  0  0  0  0  0  0  0  0  0  0
  -25.3960  -15.2750   20.3510 N   0  0  0  0  0  0  0  0  0  0  0  0
  -24.6200  -15.9140   20.4890 H   0  0  0  0  0  0  0  0  0  0  0  0
  -26.1950  -15.7140   19.9140 H   0  0  0  0  0  0  0  0  0  0  0  0
  -28.8190  -22.5000   20.2830 C   0  0  0  0  0  2  0  0  0  0  0  0
  -29.2120  -24.0390   20.4150 C   0  0  0  0  0  3  0  0  0  0  0  0
  -28.0780  -25.0890   20.0710 C   0  0  0  0  0  3  0  0  0  0  0  0
  -28.3220  -26.5390   20.2230 O   0  0  0  0  0  0  0  0  0  0  0  0
  -24.5630  -31.8870   23.2470 C   0  0  0  0  0  0  0  0  0  0  0  0
  -27.2010  -27.3810   20.1620 C   0  0  0  0  0  0  0  0  0  0  0  0
  -23.3680  -30.5020   21.5870 C   0  0  0  0  0  3  0  0  0  0  0  0
  -24.8300  -28.9750   20.1500 C   0  0  0  0  0  0  0  0  0  0  0  0
  -25.9060  -30.8330   21.4170 C   0  0  0  0  0  2  0  0  0  0  0  0
  -25.9930  -29.4640   20.7580 C   0  0  0  0  0  0  0  0  0  0  0  0
  -27.1820  -28.6780   20.7560 C   0  0  0  0  0  3  0  0  0  0  0  0
  -26.0150  -26.9470   19.5220 C   0  0  0  0  0  3  0  0  0  0  0  0
  -24.8420  -27.7220   19.5230 C   0  0  0  0  0  3  0  0  0  0  0  0
  -23.5890  -29.8420   20.2000 C   0  0  0  0  0  2  0  0  0  0  0  0
  -24.6310  -31.0900   22.1400 N   0  0  0  0  0  0  0  0  0  0  0  0
  -23.4780  -32.1570   23.7790 O   0  0  0  0  0  0  0  0  0  0  0  0
  -22.7070  -29.4720   22.5330 C   0  0  0  0  0  0  0  0  0  0  0  0
  -21.3810  -29.2960   22.4020 N   0  0  0  0  0  0  0  0  0  0  0  0
  -23.3850  -28.8360   23.3440 O   0  0  0  0  0  0  0  0  0  0  0  0
  -20.8950  -29.8650   21.7230 H   0  0  0  0  0  0  0  0  0  0  0  0
  -17.9960  -28.1290   22.9080 C   0  0  0  0  0  0  0  0  0  0  0  0
  -20.5590  -28.3530   23.1600 C   0  0  0  0  0  3  0  0  0  0  0  0
  -20.6390  -26.9320   22.5550 C   0  0  0  0  0  2  0  0  0  0  0  0
  -19.5240  -26.6430   21.5440 C   0  0  0  0  0  2  0  0  0  0  0  0
  -18.1500  -26.7910   22.2040 C   0  0  0  0  0  2  0  0  0  0  0  0
  -19.1280  -28.8690   23.3430 C   0  0  0  0  0  0  0  0  0  0  0  0
  -18.9290  -30.1230   23.9630 C   0  0  0  0  0  3  0  0  0  0  0  0
  -17.6320  -30.6340   24.1510 C   0  0  0  0  0  3  0  0  0  0  0  0
  -16.5150  -29.8910   23.7330 C   0  0  0  0  0  3  0  0  0  0  0  0
  -16.6980  -28.6400   23.1160 C   0  0  0  0  0  3  0  0  0  0  0  0
  -25.8440  -32.5140   23.8800 C   0  0  0  0  0  3  0  0  0  0  0  0
  -26.3460  -31.7420   25.1610 C   0  0  1  0  0  0  0  0  0  0  0  0
  -25.2400  -31.5040   26.2150 C   0  0  0  0  0  1  0  0  0  0  0  0
  -26.9360  -30.3660   24.7750 C   0  0  0  0  0  1  0  0  0  0  0  0
  -27.4860  -32.5380   25.8400 C   0  0  0  0  0  1  0  0  0  0  0  0
  -25.5370  -33.9140   24.2060 N   0  0  0  0  0  0  0  0  0  0  0  0
  -25.8530  -34.9630   23.4330 C   0  0  0  0  0  0  0  0  0  0  0  0
  -26.5060  -34.8540   22.3910 O   0  0  0  0  0  0  0  0  0  0  0  0
  -24.9580  -34.0710   25.0180 H   0  0  0  0  0  0  0  0  0  0  0  0
  -24.1080  -36.7450   23.1080 C   0  0  0  0  0  1  0  0  0  0  0  0
  -25.3700  -36.3520   23.8920 C   0  0  0  0  0  3  0  0  0  0  0  0
  -27.5150  -37.2600   24.6700 C   0  0  0  0  0  1  0  0  0  0  0  0
  -26.3940  -37.4100   23.7460 N   0  0  0  0  0  0  0  0  0  0  0  0
  -25.9850  -38.3290   23.8890 H   0  0  0  0  0  0  0  0  0  0  0  0
  2  1  1  0
  4  3  1  0
  5  6  1  0
  6  3  2  0
  6 18  1  0
  7  1  1  0
  7  4  2  0
  8  5  2  0
  8  7  1  0
  9  8  1  0
 10 18  1  0
 11 16  1  0
 12 13  1  0
 12 11  1  0
 14 13  1  0
 14 23  1  0
 14 15  1  0
 16 10  1  0
 16 15  1  0
 17 10  2  0
 18 19  1  0
 20 21  2  0
 21 40  1  0
 22 21  1  0
 22 25  1  0
 23 24  1  0
 23 20  1  0
 24 22  2  0
 25 26  1  0
 26 27  2  0
 28 31  1  0
 28 27  1  0
 29 28  2  0
 30 29  1  0
 30 25  2  0
 31 32  1  0
 32 33  1  0
 33 34  2  0
 35 34  1  0
 35 39  1  0
 36 35  2  0
 37 32  2  0
 37 36  1  0
 38 37  1  0
 40 41  1  0
 41 44  1  0
 41 43  1  0
 42 40  2  0
 45 46  1  0
 45 20  1  0
 47 45  1  0
 48 49  1  0
 48  1  1  0
 50 51  1  0
 50 49  2  0
 52 63  2  0
 53 51  1  0
 53 58  1  0
 54 62  1  0
 54 64  1  0
 55 61  1  0
 55 57  1  0
 56 62  1  0
 57 56  1  0
 58 57  2  0
 59 60  1  0
 59 53  2  0
 60 55  2  0
 61 54  1  0
 62 52  1  0
 64 66  2  0
 65 64  1  0
 67 65  1  0
 68 77  2  0
 68 73  1  0
 69 65  1  0
 69 73  1  0
 70 69  1  0
 71 72  1  0
 71 70  1  0
 72 68  1  0
 73 74  2  0
 74 75  1  0
 76 75  2  0
 77 76  1  0
 78 52  1  0
 78 83  1  0
 78 79  1  0
 79 82  1  1
 79 80  1  0
 81 79  1  0
 83 86  1  0
 84 88  1  0
 84 83  1  0
 85 84  2  0
 88 87  1  0
 90 91  1  0
 90 88  1  0
 90 89  1  0
M  ISO  4  10 100  18 100  50 101  51 101
M  END
>  <TORSDO>  (12) 
F 20

>  <SCORE>  (12) 
-13.925

>  <name>  (12) 
11

>  <ligand_id>  (12) 
11

>  <original_smiles>  (12) 
[H]c1c([H])c([H])c2c(c1[H])C([H])([H])C([H])([H])C([H])([H])C2([H])N([H])C(=O)C1([H])N(C(=O)C([H])(N([H])C(=O)C([H])(N([H])C([H])([H])[H])C([H])([H])[H])C(C([H])([H])[H])(C([H])([H])[H])C([H])([H])[H])C([H])([H])c2c([H])c(OC([H])([H])C([H])([H])C([H])([H])N([H])c3c([H])c([H])c(N([H])C(=O)N4C([H])([H])C([H])([H])C([H])([H])C([H])(n5nc(-c6c([H])c([H])c(Oc7c([H])c([H])c(F)c([H])c7F)c([H])c6[H])c(C(=O)N([H])[H])c5N([H])[H])C4([H])[H])c([H])c3F)c([H])c([H])c2C1([H])[H]

>  <smiles>  (12) 
[H]c1c([H])c([H])c2c(c1[H])C([H])([H])C([H])([H])C([H])([H])C2([H])N([H])C(=O)C1([H])N(C(=O)C([H])(N([H])C(=O)C([H])(N([H])C([H])([H])[H])C([H])([H])[H])C(C([H])([H])[H])(C([H])([H])[H])C([H])([H])[H])C([H])([H])c2c([H])c(OC([H])([H])C([H])([H])C([H])([H])N([H])c3c([H])c([H])c(N([H])C(=O)N4C([H])([H])C([H])([H])C([H])([H])C([H])(n5nc(-c6c([H])c([H])c(Oc7c([H])c([H])c(F)c([H])c7F)c([H])c6[H])c(C(=O)N([H])[H])c5N([H])[H])C4([H])[H])c([H])c3F)c([H])c([H])c2C1([H])[H]

$$$$
12:0:0
     RDKit          3D

 91 99  0  0  1  0  0  0  0  0999 V2000
  -28.6660  -23.4130   20.0870 C   0  0  0  0  0  0  0  0  0  0  0  0
  -28.9210  -22.2450   20.8570 N   0  0  0  0  0  0  0  0  0  0  0  0
  -28.8770  -23.3900   18.8720 O   0  0  0  0  0  0  0  0  0  0  0  0
  -28.8420  -22.4580   21.8430 H   0  0  0  0  0  0  0  0  0  0  0  0
  -28.8550  -19.9770   19.4950 C   0  0  0  0  0  3  0  0  0  0  0  0
  -29.1100  -18.5530   19.3700 C   0  0  0  0  0  3  0  0  0  0  0  0
  -29.9670  -19.9300   21.5640 C   0  0  0  0  0  3  0  0  0  0  0  0
  -29.2710  -20.7670   20.6070 C   0  0  0  0  0  0  0  0  0  0  0  0
  -29.8480  -17.7110   20.2940 C   0  0  0  0  0  0  0  0  0  0  0  0
  -30.2520  -18.4990   21.4240 C   0  0  0  0  0  0  0  0  0  0  0  0
  -30.9330  -17.8810   22.4190 F   0  0  0  0  0  0  0  0  0  0  0  0
  -30.7670  -15.1120   20.6490 C   0  0  0  0  0  0  0  0  0  0  0  0
  -30.7310  -12.7100   19.8220 C   0  0  0  0  0  2  0  0  0  0  0  0
  -29.8680  -12.5120   18.5500 C   0  0  0  0  0  2  0  0  0  0  0  0
  -28.3790  -12.3530   18.9030 C   0  0  0  0  0  2  0  0  0  0  0  0
  -27.8910  -13.3450   19.9910 C   0  0  0  0  0  3  0  0  0  0  0  0
  -28.8790  -13.4520   21.1690 C   0  0  0  0  0  2  0  0  0  0  0  0
  -30.1690  -13.8520   20.5930 N   0  0  0  0  0  0  0  0  0  0  0  0
  -32.0030  -15.1280   20.6830 O   0  0  0  0  0  0  0  0  0  0  0  0
  -30.1810  -15.9780   18.5330 C   0  0  0  0  0  1  0  0  0  0  0  0
  -30.1100  -16.2080   19.9940 N   0  0  0  0  0  0  0  0  0  0  0  0
  -25.4690  -13.9260   20.5780 C   0  0  0  0  0  0  0  0  0  0  0  0
  -24.3870  -13.1490   20.8890 C   0  0  0  0  0  0  0  0  0  0  0  0
  -24.8610  -11.8020   20.9170 C   0  0  0  0  0  0  0  0  0  0  0  0
  -26.5300  -13.0510   20.4240 N   0  0  0  0  0  0  0  0  0  0  0  0
  -26.1690  -11.7700   20.6990 N   0  0  0  0  0  0  0  0  0  0  0  0
  -24.1320  -10.5370   21.0800 C   0  0  0  0  0  0  0  0  0  0  0  0
  -24.5090   -9.5870   22.0540 C   0  0  0  0  0  3  0  0  0  0  0  0
  -23.7800   -8.3880   22.2050 C   0  0  0  0  0  3  0  0  0  0  0  0
  -22.6590   -8.1300   21.3800 C   0  0  0  0  0  0  0  0  0  0  0  0
  -22.3030   -9.0690   20.3950 C   0  0  0  0  0  3  0  0  0  0  0  0
  -23.0320  -10.2590   20.2430 C   0  0  0  0  0  3  0  0  0  0  0  0
  -21.9060   -6.9820   21.4370 O   0  0  0  0  0  0  0  0  0  0  0  0
  -21.7810   -6.2620   22.5980 C   0  0  0  0  0  0  0  0  0  0  0  0
  -21.2520   -6.8320   23.7760 C   0  0  0  0  0  3  0  0  0  0  0  0
  -21.0780   -6.0360   24.9260 C   0  0  0  0  0  3  0  0  0  0  0  0
  -21.4200   -4.6720   24.8990 C   0  0  0  0  0  0  0  0  0  0  0  0
  -21.9420   -4.1010   23.7240 C   0  0  0  0  0  3  0  0  0  0  0  0
  -22.1190   -4.8930   22.5760 C   0  0  0  0  0  0  0  0  0  0  0  0
  -22.6020   -4.3330   21.4410 F   0  0  0  0  0  0  0  0  0  0  0  0
  -21.2460   -3.9050   26.0000 F   0  0  0  0  0  0  0  0  0  0  0  0
  -22.9710  -13.6210   21.0510 C   0  0  0  0  0  0  0  0  0  0  0  0
  -22.1920  -12.9420   21.8870 N   0  0  0  0  0  0  0  0  0  0  0  0
  -22.5620  -14.6260   20.4730 O   0  0  0  0  0  0  0  0  0  0  0  0
  -22.5360  -12.1300   22.3780 H   0  0  0  0  0  0  0  0  0  0  0  0
  -21.2400  -13.2410   22.0410 H   0  0  0  0  0  0  0  0  0  0  0  0
  -25.6380  -15.2940   20.3860 N   0  0  0  0  0  0  0  0  0  0  0  0
  -24.8650  -15.9480   20.4390 H   0  0  0  0  0  0  0  0  0  0  0  0
  -26.5120  -15.7330   20.1260 H   0  0  0  0  0  0  0  0  0  0  0  0
  -28.0680  -24.8200   20.7340 C   0  0  0  0  0  2  0  0  0  0  0  0
  -28.2720  -26.2400   20.1310 O   0  0  0  0  0  0  0  0  0  0  0  0
  -24.6120  -31.8800   23.1900 C   0  0  0  0  0  0  0  0  0  0  0  0
  -27.2040  -27.2050   20.1370 C   0  0  0  0  0  0  0  0  0  0  0  0
  -23.4090  -30.4750   21.5600 C   0  0  0  0  0  3  0  0  0  0  0  0
  -24.8580  -28.9150   20.1220 C   0  0  0  0  0  0  0  0  0  0  0  0
  -25.9570  -30.7710   21.3680 C   0  0  0  0  0  2  0  0  0  0  0  0
  -26.0390  -29.3800   20.7170 C   0  0  0  0  0  0  0  0  0  0  0  0
  -27.2170  -28.5420   20.7020 C   0  0  0  0  0  3  0  0  0  0  0  0
  -25.9980  -26.8360   19.5070 C   0  0  0  0  0  3  0  0  0  0  0  0
  -24.8490  -27.6570   19.5010 C   0  0  0  0  0  3  0  0  0  0  0  0
  -23.6220  -29.8000   20.1800 C   0  0  0  0  0  2  0  0  0  0  0  0
  -24.6800  -31.0640   22.0950 N   0  0  0  0  0  0  0  0  0  0  0  0
  -23.5290  -32.1520   23.7300 O   0  0  0  0  0  0  0  0  0  0  0  0
  -22.7500  -29.4610   22.5280 C   0  0  0  0  0  0  0  0  0  0  0  0
  -21.4230  -29.2780   22.4150 N   0  0  0  0  0  0  0  0  0  0  0  0
  -23.4360  -28.8400   23.3450 O   0  0  0  0  0  0  0  0  0  0  0  0
  -20.9250  -29.8290   21.7310 H   0  0  0  0  0  0  0  0  0  0  0  0
  -18.0580  -28.0410   22.9430 C   0  0  0  0  0  0  0  0  0  0  0  0
  -20.6170  -28.3320   23.1930 C   0  0  0  0  0  3  0  0  0  0  0  0
  -20.7310  -26.9000   22.6200 C   0  0  0  0  0  2  0  0  0  0  0  0
  -19.6250  -26.5630   21.6130 C   0  0  0  0  0  2  0  0  0  0  0  0
  -18.2460  -26.6930   22.2660 C   0  0  0  0  0  2  0  0  0  0  0  0
  -19.1720  -28.8170   23.3640 C   0  0  0  0  0  0  0  0  0  0  0  0
  -18.9410  -30.0760   23.9580 C   0  0  0  0  0  3  0  0  0  0  0  0
  -17.6310  -30.5600   24.1360 C   0  0  0  0  0  3  0  0  0  0  0  0
  -16.5330  -29.7820   23.7310 C   0  0  0  0  0  3  0  0  0  0  0  0
  -16.7480  -28.5230   23.1400 C   0  0  0  0  0  3  0  0  0  0  0  0
  -25.8910  -32.5270   23.8060 C   0  0  0  0  0  3  0  0  0  0  0  0
  -25.5670  -33.9200   24.1490 N   0  0  0  0  0  0  0  0  0  0  0  0
  -25.8950  -34.9870   23.4070 C   0  0  0  0  0  0  0  0  0  0  0  0
  -26.5680  -34.9010   22.3760 O   0  0  0  0  0  0  0  0  0  0  0  0
  -24.9690  -34.0600   24.9500 H   0  0  0  0  0  0  0  0  0  0  0  0
  -24.1690  -36.7860   23.0620 C   0  0  0  0  0  1  0  0  0  0  0  0
  -25.3990  -36.3670   23.8830 C   0  0  0  0  0  3  0  0  0  0  0  0
  -27.5200  -37.2440   24.7580 C   0  0  0  0  0  1  0  0  0  0  0  0
  -26.4320  -37.4230   23.8010 N   0  0  0  0  0  0  0  0  0  0  0  0
  -26.0220  -38.3410   23.9550 H   0  0  0  0  0  0  0  0  0  0  0  0
  -26.4250  -31.7570   25.0770 C   0  0  1  0  0  0  0  0  0  0  0  0
  -25.3420  -31.5080   26.1540 C   0  0  0  0  0  1  0  0  0  0  0  0
  -27.0150  -30.3840   24.6810 C   0  0  0  0  0  1  0  0  0  0  0  0
  -27.5730  -32.5600   25.7310 C   0  0  0  0  0  1  0  0  0  0  0  0
  1 50  1  0
  1  2  1  0
  2  4  1  0
  3  1  2  0
  5  8  1  0
  6  5  2  0
  6  9  1  0
  8  2  1  0
  8  7  2  0
  9 10  2  0
 10  7  1  0
 10 11  1  0
 12 19  2  0
 13 18  1  0
 14 15  1  0
 14 13  1  0
 16 15  1  0
 16 25  1  0
 16 17  1  0
 18 12  1  0
 18 17  1  0
 20 21  1  0
 21  9  1  0
 21 12  1  0
 22 23  2  0
 23 24  1  0
 23 42  1  0
 24 27  1  0
 25 22  1  0
 25 26  1  0
 26 24  2  0
 27 28  1  0
 28 29  2  0
 30 33  1  0
 30 29  1  0
 31 30  2  0
 32 31  1  0
 32 27  2  0
 33 34  1  0
 34 35  1  0
 35 36  2  0
 37 36  1  0
 37 41  1  0
 38 37  2  0
 39 34  2  0
 39 38  1  0
 40 39  1  0
 42 43  1  0
 43 46  1  0
 43 45  1  0
 44 42  2  0
 47 48  1  0
 47 22  1  0
 49 47  1  0
 51 53  1  0
 51 50  1  0
 52 63  2  0
 53 58  1  0
 54 62  1  0
 54 64  1  0
 55 61  1  0
 55 57  1  0
 56 62  1  0
 57 56  1  0
 58 57  2  0
 59 53  2  0
 60 59  1  0
 60 55  2  0
 61 54  1  0
 62 52  1  0
 64 66  2  0
 65 64  1  0
 67 65  1  0
 68 77  2  0
 68 73  1  0
 69 65  1  0
 69 73  1  0
 70 69  1  0
 71 72  1  0
 71 70  1  0
 72 68  1  0
 73 74  2  0
 74 75  1  0
 76 75  2  0
 77 76  1  0
 78 52  1  0
 78 79  1  0
 78 88  1  0
 79 82  1  0
 80 84  1  0
 80 79  1  0
 81 80  2  0
 84 83  1  0
 86 84  1  0
 86 87  1  0
 86 85  1  0
 88 91  1  1
 88 89  1  0
 90 88  1  0
M  ISO  4  12 100  21 100  50 101  51 101
M  END
>  <TORSDO>  (13) 
F 18

>  <SCORE>  (13) 
-14.050

>  <name>  (13) 
12

>  <ligand_id>  (13) 
12

>  <original_smiles>  (13) 
[H]c1c([H])c([H])c2c(c1[H])C([H])([H])C([H])([H])C([H])([H])C2([H])N([H])C(=O)C1([H])N(C(=O)C([H])(N([H])C(=O)C([H])(N([H])C([H])([H])[H])C([H])([H])[H])C(C([H])([H])[H])(C([H])([H])[H])C([H])([H])[H])C([H])([H])c2c([H])c(OC([H])([H])C(=O)N([H])c3c([H])c([H])c(N(C(=O)N4C([H])([H])C([H])([H])C([H])([H])C([H])(n5nc(-c6c([H])c([H])c(Oc7c([H])c([H])c(F)c([H])c7F)c([H])c6[H])c(C(=O)N([H])[H])c5N([H])[H])C4([H])[H])C([H])([H])[H])c(F)c3[H])c([H])c([H])c2C1([H])[H]

>  <smiles>  (13) 
[H]c1c([H])c([H])c2c(c1[H])C([H])([H])C([H])([H])C([H])([H])C2([H])N([H])C(=O)C1([H])N(C(=O)C([H])(N([H])C(=O)C([H])(N([H])C([H])([H])[H])C([H])([H])[H])C(C([H])([H])[H])(C([H])([H])[H])C([H])([H])[H])C([H])([H])c2c([H])c(OC([H])([H])C(=O)N([H])c3c([H])c([H])c(N(C(=O)N4C([H])([H])C([H])([H])C([H])([H])C([H])(n5nc(-c6c([H])c([H])c(Oc7c([H])c([H])c(F)c([H])c7F)c([H])c6[H])c(C(=O)N([H])[H])c5N([H])[H])C4([H])[H])C([H])([H])[H])c(F)c3[H])c([H])c([H])c2C1([H])[H]

$$$$
13:0:0
     RDKit          3D

 91 99  0  0  1  0  0  0  0  0999 V2000
  -28.9840  -23.4060   20.2160 C   0  0  0  0  0  0  0  0  0  0  0  0
  -28.5330  -22.0740   20.0580 N   0  0  0  0  0  0  0  0  0  0  0  0
  -30.1440  -23.6320   20.5700 O   0  0  0  0  0  0  0  0  0  0  0  0
  -27.5480  -22.0810   19.8230 H   0  0  0  0  0  0  0  0  0  0  0  0
  -30.6150  -18.6040   20.2960 C   0  0  0  0  0  3  0  0  0  0  0  0
  -30.3410  -20.0470   20.2500 C   0  0  0  0  0  3  0  0  0  0  0  0
  -28.2990  -18.1820   20.2110 C   0  0  0  0  0  3  0  0  0  0  0  0
  -29.5970  -17.5800   20.2820 C   0  0  0  0  0  0  0  0  0  0  0  0
  -29.0190  -20.6250   20.1720 C   0  0  0  0  0  0  0  0  0  0  0  0
  -28.0240  -19.5980   20.1470 C   0  0  0  0  0  0  0  0  0  0  0  0
  -26.7300  -19.9890   20.0570 F   0  0  0  0  0  0  0  0  0  0  0  0
  -30.5510  -14.9620   20.1150 C   0  0  0  0  0  0  0  0  0  0  0  0
  -30.4380  -12.6340   19.1180 C   0  0  0  0  0  2  0  0  0  0  0  0
  -29.4590  -12.6410   17.9190 C   0  0  0  0  0  2  0  0  0  0  0  0
  -28.0060  -12.4260   18.3900 C   0  0  0  0  0  2  0  0  0  0  0  0
  -27.6440  -13.3100   19.6110 C   0  0  0  0  0  3  0  0  0  0  0  0
  -28.7370  -13.2580   20.7010 C   0  0  0  0  0  2  0  0  0  0  0  0
  -29.9960  -13.6850   20.0730 N   0  0  0  0  0  0  0  0  0  0  0  0
  -31.7310  -15.0980   19.7720 O   0  0  0  0  0  0  0  0  0  0  0  0
  -29.6790  -16.0480   20.3690 N   0  0  0  0  0  0  0  0  0  0  0  0
  -28.7830  -15.6540   20.6080 H   0  0  0  0  0  0  0  0  0  0  0  0
  -25.2800  -13.8790   20.4200 C   0  0  0  0  0  0  0  0  0  0  0  0
  -24.2290  -13.0980   20.8130 C   0  0  0  0  0  0  0  0  0  0  0  0
  -24.6940  -11.7480   20.7490 C   0  0  0  0  0  0  0  0  0  0  0  0
  -26.3180  -13.0050   20.1380 N   0  0  0  0  0  0  0  0  0  0  0  0
  -25.9750  -11.7180   20.4010 N   0  0  0  0  0  0  0  0  0  0  0  0
  -23.9740  -10.4820   20.9410 C   0  0  0  0  0  0  0  0  0  0  0  0
  -24.4040   -9.5240   21.8840 C   0  0  0  0  0  3  0  0  0  0  0  0
  -23.6830   -8.3230   22.0640 C   0  0  0  0  0  3  0  0  0  0  0  0
  -22.5180   -8.0720   21.3000 C   0  0  0  0  0  0  0  0  0  0  0  0
  -22.1080   -9.0210   20.3460 C   0  0  0  0  0  3  0  0  0  0  0  0
  -22.8300  -10.2120   20.1650 C   0  0  0  0  0  3  0  0  0  0  0  0
  -21.7710   -6.9240   21.3890 O   0  0  0  0  0  0  0  0  0  0  0  0
  -21.6710   -6.2170   22.5600 C   0  0  0  0  0  0  0  0  0  0  0  0
  -21.1670   -6.8020   23.7430 C   0  0  0  0  0  3  0  0  0  0  0  0
  -21.0170   -6.0230   24.9060 C   0  0  0  0  0  3  0  0  0  0  0  0
  -21.3610   -4.6570   24.8890 C   0  0  0  0  0  0  0  0  0  0  0  0
  -21.8590   -4.0710   23.7110 C   0  0  0  0  0  3  0  0  0  0  0  0
  -22.0100   -4.8490   22.5500 C   0  0  0  0  0  0  0  0  0  0  0  0
  -22.4700   -4.2740   21.4130 F   0  0  0  0  0  0  0  0  0  0  0  0
  -21.2100   -3.9060   26.0050 F   0  0  0  0  0  0  0  0  0  0  0  0
  -22.8380  -13.5690   21.1280 C   0  0  0  0  0  0  0  0  0  0  0  0
  -22.1370  -12.8660   22.0090 N   0  0  0  0  0  0  0  0  0  0  0  0
  -22.3840  -14.5970   20.6260 O   0  0  0  0  0  0  0  0  0  0  0  0
  -22.5180  -12.0350   22.4370 H   0  0  0  0  0  0  0  0  0  0  0  0
  -21.2060  -13.1640   22.2620 H   0  0  0  0  0  0  0  0  0  0  0  0
  -25.4330  -15.2520   20.2490 N   0  0  0  0  0  0  0  0  0  0  0  0
  -24.6480  -15.8850   20.3550 H   0  0  0  0  0  0  0  0  0  0  0  0
  -26.2200  -15.6750   19.7760 H   0  0  0  0  0  0  0  0  0  0  0  0
  -27.9800  -24.6920   19.9200 C   0  0  0  0  0  2  0  0  0  0  0  0
  -28.3120  -26.1880   20.1970 O   0  0  0  0  0  0  0  0  0  0  0  0
  -24.6660  -31.8440   23.2340 C   0  0  0  0  0  0  0  0  0  0  0  0
  -27.2610  -27.1790   20.1420 C   0  0  0  0  0  0  0  0  0  0  0  0
  -23.4720  -30.4670   21.5760 C   0  0  0  0  0  3  0  0  0  0  0  0
  -24.9260  -28.9180   20.1340 C   0  0  0  0  0  0  0  0  0  0  0  0
  -26.0270  -30.7400   21.4210 C   0  0  0  0  0  2  0  0  0  0  0  0
  -26.1060  -29.3580   20.7490 C   0  0  0  0  0  0  0  0  0  0  0  0
  -27.2740  -28.5040   20.7380 C   0  0  0  0  0  3  0  0  0  0  0  0
  -26.0520  -26.8450   19.4880 C   0  0  0  0  0  3  0  0  0  0  0  0
  -24.9120  -27.6740   19.4900 C   0  0  0  0  0  3  0  0  0  0  0  0
  -23.6970  -29.8110   20.1890 C   0  0  0  0  0  2  0  0  0  0  0  0
  -24.7420  -31.0380   22.1320 N   0  0  0  0  0  0  0  0  0  0  0  0
  -23.5780  -32.1210   23.7620 O   0  0  0  0  0  0  0  0  0  0  0  0
  -22.7940  -29.4450   22.5230 C   0  0  0  0  0  0  0  0  0  0  0  0
  -21.4650  -29.2810   22.3990 N   0  0  0  0  0  0  0  0  0  0  0  0
  -23.4660  -28.8030   23.3340 O   0  0  0  0  0  0  0  0  0  0  0  0
  -20.9790  -29.8510   21.7200 H   0  0  0  0  0  0  0  0  0  0  0  0
  -18.0770  -28.1010   22.9080 C   0  0  0  0  0  0  0  0  0  0  0  0
  -20.6410  -28.3360   23.1580 C   0  0  0  0  0  3  0  0  0  0  0  0
  -20.7240  -26.9140   22.5550 C   0  0  0  0  0  2  0  0  0  0  0  0
  -19.6100  -26.6210   21.5450 C   0  0  0  0  0  2  0  0  0  0  0  0
  -18.2360  -26.7640   22.2040 C   0  0  0  0  0  2  0  0  0  0  0  0
  -19.2060  -28.8470   23.3430 C   0  0  0  0  0  0  0  0  0  0  0  0
  -19.0010  -30.0970   23.9630 C   0  0  0  0  0  3  0  0  0  0  0  0
  -17.7010  -30.6040   24.1540 C   0  0  0  0  0  3  0  0  0  0  0  0
  -16.5880  -29.8560   23.7330 C   0  0  0  0  0  3  0  0  0  0  0  0
  -16.7770  -28.6060   23.1170 C   0  0  0  0  0  3  0  0  0  0  0  0
  -25.9420  -32.4740   23.8720 C   0  0  0  0  0  3  0  0  0  0  0  0
  -25.6290  -33.8700   24.2110 N   0  0  0  0  0  0  0  0  0  0  0  0
  -25.9410  -34.9310   23.4540 C   0  0  0  0  0  0  0  0  0  0  0  0
  -26.5900  -34.8350   22.4080 O   0  0  0  0  0  0  0  0  0  0  0  0
  -25.0490  -34.0180   25.0240 H   0  0  0  0  0  0  0  0  0  0  0  0
  -24.1860  -36.7120   23.1640 C   0  0  0  0  0  1  0  0  0  0  0  0
  -25.4600  -36.3150   23.9290 C   0  0  0  0  0  3  0  0  0  0  0  0
  -27.6110  -37.2250   24.6860 C   0  0  0  0  0  1  0  0  0  0  0  0
  -26.4790  -37.3770   23.7770 N   0  0  0  0  0  0  0  0  0  0  0  0
  -26.0690  -38.2950   23.9310 H   0  0  0  0  0  0  0  0  0  0  0  0
  -26.4440  -31.6960   25.1500 C   0  0  1  0  0  0  0  0  0  0  0  0
  -25.3410  -31.4590   26.2070 C   0  0  0  0  0  1  0  0  0  0  0  0
  -27.0260  -30.3170   24.7630 C   0  0  0  0  0  1  0  0  0  0  0  0
  -27.5910  -32.4850   25.8250 C   0  0  0  0  0  1  0  0  0  0  0  0
  1  3  2  0
  2  9  1  0
  2  1  1  0
  4  2  1  0
  6  5  2  0
  7  8  2  0
  8  5  1  0
  8 20  1  0
  9  6  1  0
 10  9  2  0
 10  7  1  0
 11 10  1  0
 12 20  1  0
 13 18  1  0
 14 15  1  0
 14 13  1  0
 16 15  1  0
 16 25  1  0
 16 17  1  0
 18 12  1  0
 18 17  1  0
 19 12  2  0
 20 21  1  0
 22 23  2  0
 23 42  1  0
 24 23  1  0
 24 27  1  0
 25 26  1  0
 25 22  1  0
 26 24  2  0
 27 28  1  0
 28 29  2  0
 30 33  1  0
 30 29  1  0
 31 30  2  0
 32 31  1  0
 32 27  2  0
 33 34  1  0
 34 35  1  0
 35 36  2  0
 37 36  1  0
 37 41  1  0
 38 37  2  0
 39 34  2  0
 39 38  1  0
 40 39  1  0
 42 43  1  0
 43 46  1  0
 43 45  1  0
 44 42  2  0
 47 48  1  0
 47 22  1  0
 49 47  1  0
 50 51  1  0
 50  1  1  0
 52 63  2  0
 53 51  1  0
 53 58  1  0
 54 62  1  0
 54 64  1  0
 55 61  1  0
 55 57  1  0
 56 62  1  0
 57 56  1  0
 58 57  2  0
 59 60  1  0
 59 53  2  0
 60 55  2  0
 61 54  1  0
 62 52  1  0
 64 66  2  0
 65 64  1  0
 67 65  1  0
 68 77  2  0
 68 73  1  0
 69 65  1  0
 69 73  1  0
 70 69  1  0
 71 72  1  0
 71 70  1  0
 72 68  1  0
 73 74  2  0
 74 75  1  0
 76 75  2  0
 77 76  1  0
 78 52  1  0
 78 79  1  0
 78 88  1  0
 79 82  1  0
 80 84  1  0
 80 79  1  0
 81 80  2  0
 84 83  1  0
 86 84  1  0
 86 87  1  0
 86 85  1  0
 88 91  1  1
 88 89  1  0
 90 88  1  0
M  ISO  4  12 100  20 100  50 101  51 101
M  END
>  <TORSDO>  (14) 
F 18

>  <SCORE>  (14) 
-14.264

>  <name>  (14) 
13

>  <ligand_id>  (14) 
13

>  <original_smiles>  (14) 
[H]c1c([H])c([H])c2c(c1[H])C([H])([H])C([H])([H])C([H])([H])C2([H])N([H])C(=O)C1([H])N(C(=O)C([H])(N([H])C(=O)C([H])(N([H])C([H])([H])[H])C([H])([H])[H])C(C([H])([H])[H])(C([H])([H])[H])C([H])([H])[H])C([H])([H])c2c([H])c(OC([H])([H])C(=O)N([H])c3c([H])c([H])c(N([H])C(=O)N4C([H])([H])C([H])([H])C([H])([H])C([H])(n5nc(-c6c([H])c([H])c(Oc7c([H])c([H])c(F)c([H])c7F)c([H])c6[H])c(C(=O)N([H])[H])c5N([H])[H])C4([H])[H])c([H])c3F)c([H])c([H])c2C1([H])[H]

>  <smiles>  (14) 
[H]c1c([H])c([H])c2c(c1[H])C([H])([H])C([H])([H])C([H])([H])C2([H])N([H])C(=O)C1([H])N(C(=O)C([H])(N([H])C(=O)C([H])(N([H])C([H])([H])[H])C([H])([H])[H])C(C([H])([H])[H])(C([H])([H])[H])C([H])([H])[H])C([H])([H])c2c([H])c(OC([H])([H])C(=O)N([H])c3c([H])c([H])c(N([H])C(=O)N4C([H])([H])C([H])([H])C([H])([H])C([H])(n5nc(-c6c([H])c([H])c(Oc7c([H])c([H])c(F)c([H])c7F)c([H])c6[H])c(C(=O)N([H])[H])c5N([H])[H])C4([H])[H])c([H])c3F)c([H])c([H])c2C1([H])[H]

$$$$
14:0:0
     RDKit          3D

 96104  0  0  1  0  0  0  0  0999 V2000
  -28.8820  -16.1170   19.7390 C   0  0  0  0  0  3  0  0  0  0  0  0
  -29.1730  -18.6780   18.7660 C   0  0  0  0  0  3  0  0  0  0  0  0
  -27.7970  -16.7230   19.0720 C   0  0  0  0  0  0  0  0  0  0  0  0
  -30.1530  -16.7170   19.8910 C   0  0  0  0  0  0  0  0  0  0  0  0
  -28.0160  -17.9610   18.4320 C   0  0  0  0  0  0  0  0  0  0  0  0
  -30.1640  -18.2450   19.6880 C   0  0  0  0  0  0  0  0  0  0  0  0
  -26.4840  -15.9560   18.9900 C   0  0  0  0  0  1  0  0  0  0  0  0
  -31.4990  -14.5520   21.1160 C   0  0  0  0  0  0  0  0  0  0  0  0
  -31.3370  -12.0380   21.4460 C   0  0  0  0  0  2  0  0  0  0  0  0
  -30.7750  -11.2490   20.2420 C   0  0  0  0  0  2  0  0  0  0  0  0
  -29.2370  -11.2110   20.2880 C   0  0  0  0  0  2  0  0  0  0  0  0
  -28.6230  -12.5920   20.6300 C   0  0  0  0  0  3  0  0  0  0  0  0
  -29.3230  -13.2460   21.8350 C   0  0  0  0  0  2  0  0  0  0  0  0
  -30.7320  -13.4150   21.4370 N   0  0  0  0  0  0  0  0  0  0  0  0
  -32.6940  -14.4420   21.4070 O   0  0  0  0  0  0  0  0  0  0  0  0
  -31.2070  -15.6400   20.1970 N   0  0  0  0  0  0  0  0  0  0  0  0
  -32.0830  -15.8950   19.7650 H   0  0  0  0  0  0  0  0  0  0  0  0
  -26.2680  -13.5700   20.8140 C   0  0  0  0  0  0  0  0  0  0  0  0
  -25.0320  -12.9970   20.8760 C   0  0  0  0  0  0  0  0  0  0  0  0
  -25.2550  -11.5840   20.8750 C   0  0  0  0  0  0  0  0  0  0  0  0
  -27.1750  -12.5270   20.7870 N   0  0  0  0  0  0  0  0  0  0  0  0
  -26.5580  -11.3240   20.8930 N   0  0  0  0  0  0  0  0  0  0  0  0
  -24.3030  -10.4700   20.8060 C   0  0  0  0  0  0  0  0  0  0  0  0
  -24.5710   -9.2300   21.4290 C   0  0  0  0  0  3  0  0  0  0  0  0
  -23.6300   -8.1800   21.3680 C   0  0  0  0  0  3  0  0  0  0  0  0
  -22.4050   -8.3650   20.6830 C   0  0  0  0  0  0  0  0  0  0  0  0
  -22.1500   -9.5940   20.0480 C   0  0  0  0  0  3  0  0  0  0  0  0
  -23.0900  -10.6370   20.1060 C   0  0  0  0  0  3  0  0  0  0  0  0
  -21.4420   -7.3950   20.5490 O   0  0  0  0  0  0  0  0  0  0  0  0
  -21.4630   -6.2520   21.3060 C   0  0  0  0  0  0  0  0  0  0  0  0
  -21.4400   -6.2910   22.7170 C   0  0  0  0  0  3  0  0  0  0  0  0
  -21.3970   -5.0910   23.4520 C   0  0  0  0  0  3  0  0  0  0  0  0
  -21.3660   -3.8540   22.7820 C   0  0  0  0  0  0  0  0  0  0  0  0
  -21.3840   -3.8130   21.3760 C   0  0  0  0  0  3  0  0  0  0  0  0
  -21.4300   -5.0100   20.6400 C   0  0  0  0  0  0  0  0  0  0  0  0
  -21.4270   -4.9670   19.2860 F   0  0  0  0  0  0  0  0  0  0  0  0
  -21.3120   -2.7000   23.4890 F   0  0  0  0  0  0  0  0  0  0  0  0
  -23.7130  -13.7130   20.8340 C   0  0  0  0  0  0  0  0  0  0  0  0
  -22.7120  -13.1850   21.5300 N   0  0  0  0  0  0  0  0  0  0  0  0
  -23.5760  -14.7730   20.2220 O   0  0  0  0  0  0  0  0  0  0  0  0
  -22.8360  -12.3250   22.0450 H   0  0  0  0  0  0  0  0  0  0  0  0
  -21.8090  -13.6370   21.5460 H   0  0  0  0  0  0  0  0  0  0  0  0
  -26.7030  -14.8860   20.7510 N   0  0  0  0  0  0  0  0  0  0  0  0
  -26.0590  -15.6530   20.9000 H   0  0  0  0  0  0  0  0  0  0  0  0
  -27.6680  -15.1530   20.8880 H   0  0  0  0  0  0  0  0  0  0  0  0
  -27.4340  -18.1110   16.1010 C   0  0  0  0  0  1  0  0  0  0  0  0
  -27.1600  -18.5490   17.4710 N   0  0  0  0  0  0  0  0  0  0  0  0
  -25.8270  -19.0550   17.8050 C   0  0  0  0  0  2  0  0  0  0  0  0
  -25.8370  -20.5830   18.0140 C   0  0  0  0  0  2  0  0  0  0  0  0
  -25.2220  -22.3220   19.6950 C   0  0  0  0  0  1  0  0  0  0  0  0
  -24.6880  -21.1480   18.8490 C   0  0  0  0  0  2  0  0  0  0  0  0
  -30.8980  -19.4130   20.2370 O   0  0  0  0  0  0  0  0  0  0  0  0
  -30.3680  -20.9180   20.1110 C   0  0  0  0  0  2  0  0  0  0  0  0
  -30.7770  -22.4090   20.8630 C   0  0  0  0  0  3  0  0  0  0  0  0
  -29.8130  -23.8350   20.8640 C   0  0  0  0  0  3  0  0  0  0  0  0
  -30.0840  -25.3210   21.3480 O   0  0  0  0  0  0  0  0  0  0  0  0
  -26.0850  -30.2650   25.2060 C   0  0  0  0  0  0  0  0  0  0  0  0
  -29.0490  -26.3440   21.4310 C   0  0  0  0  0  0  0  0  0  0  0  0
  -25.1210  -29.3730   23.1250 C   0  0  0  0  0  3  0  0  0  0  0  0
  -26.7520  -28.1590   21.5470 C   0  0  0  0  0  0  0  0  0  0  0  0
  -27.6770  -29.5740   23.3700 C   0  0  0  0  0  2  0  0  0  0  0  0
  -27.8430  -28.3840   22.3950 C   0  0  0  0  0  0  0  0  0  0  0  0
  -28.9930  -27.5020   22.3180 C   0  0  0  0  0  3  0  0  0  0  0  0
  -27.9340  -26.2440   20.5680 C   0  0  0  0  0  3  0  0  0  0  0  0
  -26.8150  -27.1080   20.6200 C   0  0  0  0  0  3  0  0  0  0  0  0
  -25.5310  -29.0660   21.6630 C   0  0  0  0  0  2  0  0  0  0  0  0
  -26.3080  -29.7420   23.9610 N   0  0  0  0  0  0  0  0  0  0  0  0
  -24.9390  -30.4520   25.6390 O   0  0  0  0  0  0  0  0  0  0  0  0
  -24.3080  -28.1890   23.6930 C   0  0  0  0  0  0  0  0  0  0  0  0
  -23.1360  -27.9030   23.1010 N   0  0  0  0  0  0  0  0  0  0  0  0
  -24.7490  -27.5330   24.6420 O   0  0  0  0  0  0  0  0  0  0  0  0
  -22.8330  -28.4900   22.3360 H   0  0  0  0  0  0  0  0  0  0  0  0
  -20.0740  -26.1860   22.1710 C   0  0  0  0  0  0  0  0  0  0  0  0
  -22.2600  -26.7740   23.4310 C   0  0  0  0  0  3  0  0  0  0  0  0
  -22.8300  -25.4570   22.8570 C   0  0  0  0  0  2  0  0  0  0  0  0
  -22.2370  -25.0750   21.4970 C   0  0  0  0  0  2  0  0  0  0  0  0
  -20.7140  -24.9450   21.5750 C   0  0  0  0  0  2  0  0  0  0  0  0
  -20.8020  -27.0500   23.0340 C   0  0  0  0  0  0  0  0  0  0  0  0
  -20.1640  -28.2050   23.5370 C   0  0  0  0  0  3  0  0  0  0  0  0
  -18.8310  -28.5040   23.1920 C   0  0  0  0  0  3  0  0  0  0  0  0
  -18.1200  -27.6380   22.3410 C   0  0  0  0  0  3  0  0  0  0  0  0
  -18.7370  -26.4800   21.8370 C   0  0  0  0  0  3  0  0  0  0  0  0
  -27.2670  -30.6790   26.1390 C   0  0  0  0  0  3  0  0  0  0  0  0
  -27.2110  -32.1370   26.3100 N   0  0  0  0  0  0  0  0  0  0  0  0
  -28.1150  -33.0030   25.8300 C   0  0  0  0  0  0  0  0  0  0  0  0
  -29.1330  -32.6380   25.2350 O   0  0  0  0  0  0  0  0  0  0  0  0
  -26.3770  -32.5090   26.7440 H   0  0  0  0  0  0  0  0  0  0  0  0
  -27.4370  -35.1520   24.7120 C   0  0  0  0  0  1  0  0  0  0  0  0
  -27.8520  -34.5050   26.0430 C   0  0  0  0  0  3  0  0  0  0  0  0
  -29.2970  -34.8800   27.9940 C   0  0  0  0  0  1  0  0  0  0  0  0
  -29.0100  -35.2350   26.6070 N   0  0  0  0  0  0  0  0  0  0  0  0
  -28.8550  -36.2380   26.5650 H   0  0  0  0  0  0  0  0  0  0  0  0
  -27.2240  -29.9550   27.5420 C   0  0  1  0  0  0  0  0  0  0  0  0
  -25.8810  -30.1250   28.2940 C   0  0  0  0  0  1  0  0  0  0  0  0
  -27.4790  -28.4360   27.3920 C   0  0  0  0  0  1  0  0  0  0  0  0
  -28.3470  -30.5080   28.4490 C   0  0  0  0  0  1  0  0  0  0  0  0
  1  4  1  0
  2  6  1  0
  3  1  2  0
  4 16  1  0
  5  2  2  0
  5  3  1  0
  6  4  2  0
  6 52  1  0
  7  3  1  0
  8 15  2  0
  8 14  1  0
 10 11  1  0
 10  9  1  0
 12 11  1  0
 12 21  1  0
 12 13  1  0
 14  9  1  0
 14 13  1  0
 16  8  1  0
 17 16  1  0
 18 19  2  0
 20 19  1  0
 20 22  2  0
 21 18  1  0
 21 22  1  0
 23 20  1  0
 23 24  1  0
 25 24  2  0
 26 25  1  0
 27 28  1  0
 27 26  2  0
 28 23  2  0
 29 26  1  0
 29 30  1  0
 30 31  1  0
 31 32  2  0
 33 32  1  0
 33 37  1  0
 34 33  2  0
 35 30  2  0
 35 34  1  0
 36 35  1  0
 38 19  1  0
 38 39  1  0
 39 42  1  0
 39 41  1  0
 40 38  2  0
 43 18  1  0
 43 45  1  0
 43 44  1  0
 46 47  1  0
 47 48  1  0
 47  5  1  0
 48 49  1  0
 49 51  1  0
 51 50  1  0
 53 52  1  0
 53 54  1  0
 54 55  2  0
 55 56  1  0
 56 58  1  0
 57 68  2  0
 58 63  1  0
 59 69  1  0
 59 67  1  0
 60 66  1  0
 60 62  1  0
 61 67  1  0
 62 61  1  0
 63 62  2  0
 64 65  1  0
 64 58  2  0
 65 60  2  0
 66 59  1  0
 67 57  1  0
 69 71  2  0
 70 69  1  0
 72 70  1  0
 73 78  1  0
 74 70  1  0
 75 74  1  0
 76 77  1  0
 76 75  1  0
 77 73  1  0
 78 74  1  0
 78 79  2  0
 80 79  1  0
 81 80  2  0
 82 73  2  0
 82 81  1  0
 83 57  1  0
 83 84  1  0
 83 93  1  0
 84 87  1  0
 85 89  1  0
 85 84  1  0
 86 85  2  0
 89 88  1  0
 89 91  1  0
 91 90  1  0
 92 91  1  0
 93 94  1  1
 93 96  1  0
 95 93  1  0
M  ISO  4   8 100  16 100  55 101  56 101
M  END
>  <TORSDO>  (15) 
F 24

>  <SCORE>  (15) 
-4.383

>  <name>  (15) 
14

>  <ligand_id>  (15) 
14

>  <original_smiles>  (15) 
[H]c1c([H])c([H])c2c(c1[H])C([H])([H])C([H])([H])C([H])([H])C2([H])N([H])C(=O)C1([H])N(C(=O)C([H])(N([H])C(=O)C([H])(N([H])C([H])([H])[H])C([H])([H])[H])C(C([H])([H])[H])(C([H])([H])[H])C([H])([H])[H])C([H])([H])c2c([H])c(OC([H])([H])C([H])([H])C([H])([H])Oc3c([H])c(N(C([H])([H])[H])C([H])([H])C([H])([H])C([H])([H])C([H])([H])[H])c(C([H])([H])[H])c([H])c3N([H])C(=O)N3C([H])([H])C([H])([H])C([H])([H])C([H])(n4nc(-c5c([H])c([H])c(Oc6c([H])c([H])c(F)c([H])c6F)c([H])c5[H])c(C(=O)N([H])[H])c4N([H])[H])C3([H])[H])c([H])c([H])c2C1([H])[H]

>  <smiles>  (15) 
[H]c1c([H])c([H])c2c(c1[H])C([H])([H])C([H])([H])C([H])([H])C2([H])N([H])C(=O)C1([H])N(C(=O)C([H])(N([H])C(=O)C([H])(N([H])C([H])([H])[H])C([H])([H])[H])C(C([H])([H])[H])(C([H])([H])[H])C([H])([H])[H])C([H])([H])c2c([H])c(OC([H])([H])C([H])([H])C([H])([H])Oc3c([H])c(N(C([H])([H])[H])C([H])([H])C([H])([H])C([H])([H])C([H])([H])[H])c(C([H])([H])[H])c([H])c3N([H])C(=O)N3C([H])([H])C([H])([H])C([H])([H])C([H])(n4nc(-c5c([H])c([H])c(Oc6c([H])c([H])c(F)c([H])c6F)c([H])c5[H])c(C(=O)N([H])[H])c4N([H])[H])C3([H])[H])c([H])c([H])c2C1([H])[H]

$$$$
15:0:0
     RDKit          3D

 92100  0  0  1  0  0  0  0  0999 V2000
  -30.8450  -18.2210   21.7000 C   0  0  0  0  0  3  0  0  0  0  0  0
  -29.7370  -19.3300   19.8650 C   0  0  0  0  0  3  0  0  0  0  0  0
  -30.8040  -19.4540   22.3950 C   0  0  0  0  0  0  0  0  0  0  0  0
  -30.2520  -20.6550   21.8350 C   0  0  0  0  0  0  0  0  0  0  0  0
  -30.2750  -18.0380   20.4290 C   0  0  0  0  0  0  0  0  0  0  0  0
  -29.7460  -20.7080   20.4940 C   0  0  0  0  0  0  0  0  0  0  0  0
  -31.3090  -19.4270   23.8390 C   0  0  0  0  0  1  0  0  0  0  0  0
  -30.1430  -21.8530   22.7760 C   0  0  0  0  0  1  0  0  0  0  0  0
  -30.9050  -15.3310   20.0000 C   0  0  0  0  0  0  0  0  0  0  0  0
  -30.7510  -12.9210   19.0970 C   0  0  0  0  0  2  0  0  0  0  0  0
  -29.7920  -12.8030   17.8890 C   0  0  0  0  0  2  0  0  0  0  0  0
  -28.3330  -12.6170   18.3590 C   0  0  0  0  0  2  0  0  0  0  0  0
  -27.9620  -13.5830   19.5200 C   0  0  0  0  0  3  0  0  0  0  0  0
  -29.0530  -13.6560   20.6070 C   0  0  0  0  0  2  0  0  0  0  0  0
  -30.2870  -14.0720   19.9310 N   0  0  0  0  0  0  0  0  0  0  0  0
  -32.1250  -15.3380   19.7990 O   0  0  0  0  0  0  0  0  0  0  0  0
  -30.1400  -16.5600   19.9380 N   0  0  0  0  0  0  0  0  0  0  0  0
  -29.2200  -16.3780   19.5640 H   0  0  0  0  0  0  0  0  0  0  0  0
  -25.6270  -14.2150   20.3460 C   0  0  0  0  0  0  0  0  0  0  0  0
  -24.5520  -13.4670   20.7380 C   0  0  0  0  0  0  0  0  0  0  0  0
  -24.9790  -12.1040   20.6900 C   0  0  0  0  0  0  0  0  0  0  0  0
  -26.6370  -13.3100   20.0680 N   0  0  0  0  0  0  0  0  0  0  0  0
  -26.2590  -12.0350   20.3430 N   0  0  0  0  0  0  0  0  0  0  0  0
  -24.2200  -10.8630   20.8900 C   0  0  0  0  0  0  0  0  0  0  0  0
  -24.6210   -9.9030   21.8460 C   0  0  0  0  0  3  0  0  0  0  0  0
  -23.8640   -8.7290   22.0420 C   0  0  0  0  0  3  0  0  0  0  0  0
  -22.6910   -8.5050   21.2820 C   0  0  0  0  0  0  0  0  0  0  0  0
  -22.3100   -9.4510   20.3170 C   0  0  0  0  0  3  0  0  0  0  0  0
  -23.0670  -10.6190   20.1190 C   0  0  0  0  0  3  0  0  0  0  0  0
  -21.9120   -7.3780   21.3830 O   0  0  0  0  0  0  0  0  0  0  0  0
  -21.8180   -6.6660   22.5510 C   0  0  0  0  0  0  0  0  0  0  0  0
  -21.2910   -7.2330   23.7310 C   0  0  0  0  0  3  0  0  0  0  0  0
  -21.1530   -6.4470   24.8920 C   0  0  0  0  0  3  0  0  0  0  0  0
  -21.5320   -5.0920   24.8740 C   0  0  0  0  0  0  0  0  0  0  0  0
  -22.0520   -4.5210   23.6960 C   0  0  0  0  0  3  0  0  0  0  0  0
  -22.1920   -5.3050   22.5400 C   0  0  0  0  0  0  0  0  0  0  0  0
  -22.6750   -4.7460   21.4030 F   0  0  0  0  0  0  0  0  0  0  0  0
  -21.3910   -4.3330   25.9840 F   0  0  0  0  0  0  0  0  0  0  0  0
  -23.1780  -13.9810   21.0470 C   0  0  0  0  0  0  0  0  0  0  0  0
  -22.4550  -13.3060   21.9340 N   0  0  0  0  0  0  0  0  0  0  0  0
  -22.7570  -15.0190   20.5380 O   0  0  0  0  0  0  0  0  0  0  0  0
  -22.8120  -12.4670   22.3650 H   0  0  0  0  0  0  0  0  0  0  0  0
  -21.5330  -13.6350   22.1790 H   0  0  0  0  0  0  0  0  0  0  0  0
  -25.8140  -15.5820   20.1710 N   0  0  0  0  0  0  0  0  0  0  0  0
  -25.0630  -16.2470   20.3180 H   0  0  0  0  0  0  0  0  0  0  0  0
  -26.6620  -16.0180   19.8300 H   0  0  0  0  0  0  0  0  0  0  0  0
  -29.3450  -23.4820   20.1600 C   0  0  0  0  0  0  0  0  0  0  0  0
  -28.0980  -21.7990   18.9030 C   0  0  0  0  0  1  0  0  0  0  0  0
  -29.1190  -22.0530   19.9210 N   0  0  0  0  0  0  0  0  0  0  0  0
  -30.3960  -23.8370   20.7030 O   0  0  0  0  0  0  0  0  0  0  0  0
  -28.3060  -24.7610   19.7500 C   0  0  0  0  0  2  0  0  0  0  0  0
  -28.5310  -26.3080   20.0550 O   0  0  0  0  0  0  0  0  0  0  0  0
  -24.5520  -31.7390   23.1420 C   0  0  0  0  0  0  0  0  0  0  0  0
  -27.4560  -27.2970   19.9710 C   0  0  0  0  0  0  0  0  0  0  0  0
  -23.4760  -30.4020   21.3700 C   0  0  0  0  0  3  0  0  0  0  0  0
  -25.0560  -28.9800   19.9080 C   0  0  0  0  0  0  0  0  0  0  0  0
  -26.0220  -30.7860   21.3230 C   0  0  0  0  0  2  0  0  0  0  0  0
  -26.1890  -29.4340   20.5960 C   0  0  0  0  0  0  0  0  0  0  0  0
  -27.3860  -28.6090   20.6130 C   0  0  0  0  0  3  0  0  0  0  0  0
  -26.2950  -26.9660   19.2390 C   0  0  0  0  0  3  0  0  0  0  0  0
  -25.1280  -27.7620   19.2130 C   0  0  0  0  0  3  0  0  0  0  0  0
  -23.7800  -29.8130   19.9630 C   0  0  0  0  0  2  0  0  0  0  0  0
  -24.6990  -30.9960   22.0010 N   0  0  0  0  0  0  0  0  0  0  0  0
  -23.4350  -31.9370   23.6480 O   0  0  0  0  0  0  0  0  0  0  0  0
  -22.8100  -29.3090   22.2420 C   0  0  0  0  0  0  0  0  0  0  0  0
  -21.4880  -29.1140   22.0860 N   0  0  0  0  0  0  0  0  0  0  0  0
  -23.4900  -28.6390   23.0230 O   0  0  0  0  0  0  0  0  0  0  0  0
  -20.9920  -29.7100   21.4390 H   0  0  0  0  0  0  0  0  0  0  0  0
  -18.1280  -27.8430   22.5570 C   0  0  0  0  0  0  0  0  0  0  0  0
  -20.6920  -28.0970   22.7760 C   0  0  0  0  0  3  0  0  0  0  0  0
  -20.7800  -26.7290   22.0610 C   0  0  0  0  0  2  0  0  0  0  0  0
  -19.6550  -26.5050   21.0450 C   0  0  0  0  0  2  0  0  0  0  0  0
  -18.2900  -26.5740   21.7350 C   0  0  0  0  0  2  0  0  0  0  0  0
  -19.2540  -28.5630   23.0340 C   0  0  0  0  0  0  0  0  0  0  0  0
  -19.0490  -29.7490   23.7710 C   0  0  0  0  0  3  0  0  0  0  0  0
  -17.7470  -30.2210   24.0280 C   0  0  0  0  0  3  0  0  0  0  0  0
  -16.6350  -29.5010   23.5580 C   0  0  0  0  0  3  0  0  0  0  0  0
  -16.8250  -28.3110   22.8320 C   0  0  0  0  0  3  0  0  0  0  0  0
  -25.7740  -32.3940   23.8530 C   0  0  0  0  0  3  0  0  0  0  0  0
  -25.4280  -33.7960   24.1400 N   0  0  0  0  0  0  0  0  0  0  0  0
  -25.7560  -34.8370   23.3630 C   0  0  0  0  0  0  0  0  0  0  0  0
  -26.4440  -34.7210   22.3460 O   0  0  0  0  0  0  0  0  0  0  0  0
  -24.8120  -33.9590   24.9230 H   0  0  0  0  0  0  0  0  0  0  0  0
  -23.9840  -36.5810   22.9590 C   0  0  0  0  0  1  0  0  0  0  0  0
  -25.2380  -36.2300   23.7770 C   0  0  0  0  0  3  0  0  0  0  0  0
  -27.3360  -37.2130   24.5860 C   0  0  0  0  0  1  0  0  0  0  0  0
  -26.2440  -37.3020   23.6220 N   0  0  0  0  0  0  0  0  0  0  0  0
  -25.8130  -38.2180   23.7140 H   0  0  0  0  0  0  0  0  0  0  0  0
  -26.1890  -31.6500   25.1830 C   0  0  1  0  0  0  0  0  0  0  0  0
  -25.0110  -31.4250   26.1580 C   0  0  0  0  0  1  0  0  0  0  0  0
  -26.8140  -30.2680   24.8800 C   0  0  0  0  0  1  0  0  0  0  0  0
  -27.2750  -32.4650   25.9240 C   0  0  0  0  0  1  0  0  0  0  0  0
  1  3  1  0
  2  5  1  0
  2  6  2  0
  3  7  1  0
  4  3  2  0
  4  8  1  0
  5  1  2  0
  6  4  1  0
 10 15  1  0
 11 12  1  0
 11 10  1  0
 13 12  1  0
 13 22  1  0
 13 14  1  0
 15  9  1  0
 15 14  1  0
 16  9  2  0
 17  9  1  0
 17  5  1  0
 18 17  1  0
 19 20  2  0
 20 39  1  0
 21 20  1  0
 21 24  1  0
 22 23  1  0
 22 19  1  0
 23 21  2  0
 24 25  1  0
 25 26  2  0
 27 30  1  0
 27 26  1  0
 28 27  2  0
 29 28  1  0
 29 24  2  0
 30 31  1  0
 31 32  1  0
 32 33  2  0
 34 33  1  0
 34 38  1  0
 35 34  2  0
 36 31  2  0
 36 35  1  0
 37 36  1  0
 39 40  1  0
 40 43  1  0
 40 42  1  0
 41 39  2  0
 44 45  1  0
 44 19  1  0
 46 44  1  0
 47 50  2  0
 48 49  1  0
 49 47  1  0
 49  6  1  0
 51 52  1  0
 51 47  1  0
 53 64  2  0
 54 52  1  0
 54 59  1  0
 55 63  1  0
 55 65  1  0
 56 62  1  0
 56 58  1  0
 57 63  1  0
 58 59  2  0
 58 57  1  0
 60 54  2  0
 61 60  1  0
 61 56  2  0
 62 55  1  0
 63 53  1  0
 65 67  2  0
 66 65  1  0
 68 66  1  0
 69 78  2  0
 69 74  1  0
 70 66  1  0
 70 74  1  0
 71 70  1  0
 72 73  1  0
 72 71  1  0
 73 69  1  0
 74 75  2  0
 75 76  1  0
 77 76  2  0
 78 77  1  0
 79 53  1  0
 79 80  1  0
 79 89  1  0
 80 83  1  0
 81 85  1  0
 81 80  1  0
 82 81  2  0
 85 84  1  0
 87 88  1  0
 87 85  1  0
 87 86  1  0
 89 92  1  1
 89 90  1  0
 91 89  1  0
M  ISO  4   9 100  17 100  51 101  52 101
M  END
>  <TORSDO>  (16) 
F 18

>  <SCORE>  (16) 
-14.717

>  <name>  (16) 
15

>  <ligand_id>  (16) 
15

>  <original_smiles>  (16) 
[H]c1c([H])c([H])c2c(c1[H])C([H])([H])C([H])([H])C([H])([H])C2([H])N([H])C(=O)C1([H])N(C(=O)C([H])(N([H])C(=O)C([H])(N([H])C([H])([H])[H])C([H])([H])[H])C(C([H])([H])[H])(C([H])([H])[H])C([H])([H])[H])C([H])([H])c2c([H])c(OC([H])([H])C(=O)N(c3c([H])c(N([H])C(=O)N4C([H])([H])C([H])([H])C([H])([H])C([H])(n5nc(-c6c([H])c([H])c(Oc7c([H])c([H])c(F)c([H])c7F)c([H])c6[H])c(C(=O)N([H])[H])c5N([H])[H])C4([H])[H])c([H])c(C([H])([H])[H])c3C([H])([H])[H])C([H])([H])[H])c([H])c([H])c2C1([H])[H]

>  <smiles>  (16) 
[H]c1c([H])c([H])c2c(c1[H])C([H])([H])C([H])([H])C([H])([H])C2([H])N([H])C(=O)C1([H])N(C(=O)C([H])(N([H])C(=O)C([H])(N([H])C([H])([H])[H])C([H])([H])[H])C(C([H])([H])[H])(C([H])([H])[H])C([H])([H])[H])C([H])([H])c2c([H])c(OC([H])([H])C(=O)N(c3c([H])c(N([H])C(=O)N4C([H])([H])C([H])([H])C([H])([H])C([H])(n5nc(-c6c([H])c([H])c(Oc7c([H])c([H])c(F)c([H])c7F)c([H])c6[H])c(C(=O)N([H])[H])c5N([H])[H])C4([H])[H])c([H])c(C([H])([H])[H])c3C([H])([H])[H])C([H])([H])[H])c([H])c([H])c2C1([H])[H]

$$$$
16:0:0
     RDKit          3D

 93102  0  0  1  0  0  0  0  0999 V2000
  -30.6400  -18.0590   20.0590 C   0  0  0  0  0  3  0  0  0  0  0  0
  -30.3170  -19.4530   19.9050 C   0  0  0  0  0  3  0  0  0  0  0  0
  -29.6300  -17.0580   20.1280 C   0  0  0  0  0  0  0  0  0  0  0  0
  -28.9760  -19.9370   19.7910 C   0  0  0  0  0  0  0  0  0  0  0  0
  -28.2920  -17.5180   20.0230 C   0  0  0  0  0  0  0  0  0  0  0  0
  -27.9800  -18.9050   19.8190 C   0  0  0  0  0  0  0  0  0  0  0  0
  -26.6860  -19.2560   19.6080 F   0  0  0  0  0  0  0  0  0  0  0  0
  -30.5730  -14.5960   19.8180 C   0  0  0  0  0  0  0  0  0  0  0  0
  -30.3540  -12.3040   18.8500 C   0  0  0  0  0  2  0  0  0  0  0  0
  -29.3410  -12.3770   17.6820 C   0  0  0  0  0  2  0  0  0  0  0  0
  -27.8920  -12.2350   18.1900 C   0  0  0  0  0  2  0  0  0  0  0  0
  -27.5970  -13.1490   19.4090 C   0  0  0  0  0  3  0  0  0  0  0  0
  -28.7100  -13.0130   20.4750 C   0  0  0  0  0  2  0  0  0  0  0  0
  -29.9900  -13.3510   19.8270 N   0  0  0  0  0  0  0  0  0  0  0  0
  -31.6870  -14.7820   19.3180 O   0  0  0  0  0  0  0  0  0  0  0  0
  -29.7770  -15.6030   20.3000 N   0  0  0  0  0  0  0  0  0  0  0  0
  -28.9670  -15.2190   20.7640 H   0  0  0  0  0  0  0  0  0  0  0  0
  -25.2530  -13.8020   20.2390 C   0  0  0  0  0  0  0  0  0  0  0  0
  -24.1930  -13.0550   20.6770 C   0  0  0  0  0  0  0  0  0  0  0  0
  -24.6260  -11.6950   20.6340 C   0  0  0  0  0  0  0  0  0  0  0  0
  -26.2700  -12.8990   19.9670 N   0  0  0  0  0  0  0  0  0  0  0  0
  -25.8980  -11.6270   20.2580 N   0  0  0  0  0  0  0  0  0  0  0  0
  -23.8850  -10.4520   20.8730 C   0  0  0  0  0  0  0  0  0  0  0  0
  -24.3540   -9.4740   21.7780 C   0  0  0  0  0  3  0  0  0  0  0  0
  -23.6120   -8.2950   22.0050 C   0  0  0  0  0  3  0  0  0  0  0  0
  -22.3880   -8.0850   21.3270 C   0  0  0  0  0  0  0  0  0  0  0  0
  -21.9370   -9.0500   20.4090 C   0  0  0  0  0  3  0  0  0  0  0  0
  -22.6790  -10.2220   20.1800 C   0  0  0  0  0  3  0  0  0  0  0  0
  -21.6130   -6.9590   21.4640 O   0  0  0  0  0  0  0  0  0  0  0  0
  -21.6270   -6.2120   22.6150 C   0  0  0  0  0  0  0  0  0  0  0  0
  -21.3190   -6.7770   23.8720 C   0  0  0  0  0  3  0  0  0  0  0  0
  -21.2770   -5.9590   25.0190 C   0  0  0  0  0  3  0  0  0  0  0  0
  -21.5330   -4.5790   24.9120 C   0  0  0  0  0  0  0  0  0  0  0  0
  -21.8350   -4.0140   23.6600 C   0  0  0  0  0  3  0  0  0  0  0  0
  -21.8790   -4.8290   22.5140 C   0  0  0  0  0  0  0  0  0  0  0  0
  -22.1490   -4.2770   21.3070 F   0  0  0  0  0  0  0  0  0  0  0  0
  -21.4850   -3.7920   26.0110 F   0  0  0  0  0  0  0  0  0  0  0  0
  -22.8250  -13.5670   21.0250 C   0  0  0  0  0  0  0  0  0  0  0  0
  -22.1400  -12.9010   21.9490 N   0  0  0  0  0  0  0  0  0  0  0  0
  -22.3750  -14.5910   20.5160 O   0  0  0  0  0  0  0  0  0  0  0  0
  -22.5180  -12.0720   22.3830 H   0  0  0  0  0  0  0  0  0  0  0  0
  -21.2250  -13.2270   22.2260 H   0  0  0  0  0  0  0  0  0  0  0  0
  -25.4240  -15.1640   20.0320 N   0  0  0  0  0  4  0  0  0  0  0  0
  -24.6790  -15.8300   20.2020 H   0  0  0  0  0  0  0  0  0  0  0  0
  -26.3040  -15.6060   19.7990 H   0  0  0  0  0  0  0  0  0  0  0  0
  -27.4790  -21.7540   20.5310 C   0  0  0  0  0  1  0  0  0  0  0  0
  -28.5970  -21.3440   19.6780 N   0  0  0  0  0  0  0  0  0  0  0  0
  -29.4870  -22.4810   19.2860 C   0  0  0  0  0  2  0  0  0  0  0  0
  -28.8310  -23.8840   18.8290 C   0  0  0  0  0  2  0  0  0  0  0  0
  -28.4250  -25.0360   19.8590 C   0  0  0  0  0  2  0  0  0  0  0  0
  -28.4550  -26.4580   19.4390 O   0  0  0  0  0  0  0  0  0  0  0  0
  -24.7160  -31.5150   23.0060 C   0  0  0  0  0  0  0  0  0  0  0  0
  -27.3070  -27.2500   19.5490 C   0  0  0  0  0  0  0  0  0  0  0  0
  -23.4900  -30.2480   21.2750 C   0  0  0  0  0  3  0  0  0  0  0  0
  -24.9240  -28.8200   19.7080 C   0  0  0  0  0  0  0  0  0  0  0  0
  -26.0200  -30.6030   21.0720 C   0  0  0  0  0  2  0  0  0  0  0  0
  -26.0980  -29.2810   20.3180 C   0  0  0  0  0  0  0  0  0  0  0  0
  -27.2940  -28.5110   20.2200 C   0  0  0  0  0  3  0  0  0  0  0  0
  -26.1090  -26.8280   18.9350 C   0  0  0  0  0  3  0  0  0  0  0  0
  -24.9290  -27.6010   19.0090 C   0  0  0  0  0  3  0  0  0  0  0  0
  -23.6830  -29.6810   19.8440 C   0  0  0  0  0  2  0  0  0  0  0  0
  -24.7620  -30.8020   21.8430 N   0  0  0  0  0  0  0  0  0  0  0  0
  -23.6410  -31.7410   23.5820 O   0  0  0  0  0  0  0  0  0  0  0  0
  -22.8470  -29.1550   22.1620 C   0  0  0  0  0  0  0  0  0  0  0  0
  -21.5150  -29.0040   22.0650 N   0  0  0  0  0  0  0  0  0  0  0  0
  -23.5450  -28.4500   22.8950 O   0  0  0  0  0  0  0  0  0  0  0  0
  -21.0120  -29.6260   21.4480 H   0  0  0  0  0  0  0  0  0  0  0  0
  -18.1400  -27.8130   22.5820 C   0  0  0  0  0  0  0  0  0  0  0  0
  -20.7110  -28.0070   22.7720 C   0  0  0  0  0  3  0  0  0  0  0  0
  -20.7630  -26.6380   22.0520 C   0  0  0  0  0  2  0  0  0  0  0  0
  -19.6170  -26.4340   21.0570 C   0  0  0  0  0  2  0  0  0  0  0  0
  -18.2640  -26.5360   21.7680 C   0  0  0  0  0  2  0  0  0  0  0  0
  -19.2880  -28.5120   23.0390 C   0  0  0  0  0  0  0  0  0  0  0  0
  -19.1170  -29.7130   23.7610 C   0  0  0  0  0  3  0  0  0  0  0  0
  -17.8290  -30.2140   24.0300 C   0  0  0  0  0  3  0  0  0  0  0  0
  -16.6950  -29.5090   23.5880 C   0  0  0  0  0  3  0  0  0  0  0  0
  -16.8520  -28.3110   22.8700 C   0  0  0  0  0  3  0  0  0  0  0  0
  -26.0060  -32.1000   23.6590 C   0  0  0  0  0  3  0  0  0  0  0  0
  -25.6960  -33.4620   24.1150 N   0  0  0  0  0  0  0  0  0  0  0  0
  -26.0120  -34.5800   23.4490 C   0  0  0  0  0  0  0  0  0  0  0  0
  -26.6650  -34.5720   22.4020 O   0  0  0  0  0  0  0  0  0  0  0  0
  -25.1130  -33.5420   24.9360 H   0  0  0  0  0  0  0  0  0  0  0  0
  -24.2670  -36.3840   23.2890 C   0  0  0  0  0  1  0  0  0  0  0  0
  -25.5280  -35.9200   24.0350 C   0  0  0  0  0  3  0  0  0  0  0  0
  -27.6750  -36.7460   24.8920 C   0  0  0  0  0  1  0  0  0  0  0  0
  -26.5510  -36.9870   23.9920 N   0  0  0  0  0  0  0  0  0  0  0  0
  -26.1430  -37.8880   24.2290 H   0  0  0  0  0  0  0  0  0  0  0  0
  -26.5500  -31.2240   24.8540 C   0  0  1  0  0  0  0  0  0  0  0  0
  -25.4800  -30.8970   25.9220 C   0  0  0  0  0  1  0  0  0  0  0  0
  -27.1240  -29.8870   24.3350 C   0  0  0  0  0  1  0  0  0  0  0  0
  -27.7150  -31.9620   25.5560 C   0  0  0  0  0  1  0  0  0  0  0  0
  -25.9900  -16.8760   20.3990 C   0  0  0  0  0  2  0  0  0  0  0  0
  -27.3380  -16.5200   20.1130 O   0  0  0  0  0  0  0  0  0  0  0  0
  1  3  1  0
  2  1  2  0
  3 16  1  0
  4  6  2  0
  4  2  1  0
  5 93  1  0
  5  3  2  0
  6  5  1  0
  7  6  1  0
  8 14  1  0
  8 16  1  0
  9 14  1  0
 10 11  1  0
 10  9  1  0
 12 11  1  0
 12 21  1  0
 12 13  1  0
 14 13  1  0
 15  8  2  0
 16 17  1  0
 18 19  2  0
 19 38  1  0
 20 19  1  0
 20 23  1  0
 21 18  1  0
 21 22  1  0
 22 20  2  0
 23 24  1  0
 24 25  2  0
 26 29  1  0
 26 25  1  0
 27 26  2  0
 28 27  1  0
 28 23  2  0
 29 30  1  0
 30 31  1  0
 31 32  2  0
 33 32  1  0
 33 37  1  0
 34 33  2  0
 35 30  2  0
 35 34  1  0
 36 35  1  0
 38 39  1  0
 39 42  1  0
 39 41  1  0
 40 38  2  0
 43 44  1  0
 43 18  1  0
 43 92  1  0
 45 43  1  0
 47  4  1  0
 47 46  1  0
 48 47  1  0
 49 48  1  0
 49 50  1  0
 51 53  1  0
 51 50  1  0
 52 63  2  0
 53 58  1  0
 54 62  1  0
 54 64  1  0
 55 61  1  0
 55 57  1  0
 56 62  1  0
 57 56  1  0
 58 57  2  0
 59 60  1  0
 59 53  2  0
 60 55  2  0
 61 54  1  0
 62 52  1  0
 64 66  2  0
 65 64  1  0
 67 65  1  0
 68 77  2  0
 68 73  1  0
 69 65  1  0
 69 73  1  0
 70 69  1  0
 71 72  1  0
 71 70  1  0
 72 68  1  0
 73 74  2  0
 74 75  1  0
 76 75  2  0
 77 76  1  0
 78 52  1  0
 78 79  1  0
 78 88  1  0
 79 82  1  0
 80 84  1  0
 80 79  1  0
 81 80  2  0
 84 83  1  0
 86 84  1  0
 86 87  1  0
 86 85  1  0
 88 91  1  1
 88 89  1  0
 90 88  1  0
 93 92  1  0
M  ISO  4   8 100  16 100  50 101  51 101
M  END
>  <TORSDO>  (17) 
F 21

>  <SCORE>  (17) 
-12.364

>  <name>  (17) 
16

>  <ligand_id>  (17) 
16

>  <original_smiles>  (17) 
[H]c1c([H])c([H])c2c(c1[H])C([H])([H])C([H])([H])C([H])([H])C2([H])N([H])C(=O)C1([H])N(C(=O)C([H])(N([H])C(=O)C([H])(N([H])C([H])([H])[H])C([H])([H])[H])C(C([H])([H])[H])(C([H])([H])[H])C([H])([H])[H])C([H])([H])c2c([H])c(OC([H])([H])C([H])([H])C([H])([H])N(c3c([H])c([H])c(N([H])C(=O)N4C([H])([H])C([H])([H])C([H])([H])C([H])(n5nc(-c6c([H])c([H])c(Oc7c([H])c([H])c(F)c([H])c7F)c([H])c6[H])c(C(=O)N([H])[H])c5N([H])[H])C4([H])[H])c(OC([H])([H])[H])c3F)C([H])([H])[H])c([H])c([H])c2C1([H])[H]

>  <smiles>  (17) 
[H]c1c([H])c([H])c2c(c1[H])C([H])([H])C([H])([H])C([H])([H])C2([H])N([H])C(=O)C1([H])N(C(=O)C([H])(N([H])C(=O)C([H])(N([H])C([H])([H])[H])C([H])([H])[H])C(C([H])([H])[H])(C([H])([H])[H])C([H])([H])[H])C([H])([H])c2c([H])c(OC([H])([H])C([H])([H])C([H])([H])N(c3c([H])c([H])c(N([H])C(=O)N4C([H])([H])C([H])([H])C([H])([H])C([H])(n5nc(-c6c([H])c([H])c(Oc7c([H])c([H])c(F)c([H])c7F)c([H])c6[H])c(C(=O)N([H])[H])c5N([H])[H])C4([H])[H])c(OC([H])([H])[H])c3F)C([H])([H])[H])c([H])c([H])c2C1([H])[H]

$$$$
17:0:0
     RDKit          3D

 91 99  0  0  1  0  0  0  0  0999 V2000
  -29.0820  -18.3240   20.5610 C   0  0  0  0  0  3  0  0  0  0  0  0
  -31.0540  -20.0280   19.6360 C   0  0  0  0  0  3  0  0  0  0  0  0
  -30.3480  -17.6760   20.4220 C   0  0  0  0  0  0  0  0  0  0  0  0
  -28.7970  -19.7030   20.2470 C   0  0  0  0  0  0  0  0  0  0  0  0
  -29.7590  -20.6490   19.7600 C   0  0  0  0  0  0  0  0  0  0  0  0
  -31.3380  -18.6170   19.9370 C   0  0  0  0  0  0  0  0  0  0  0  0
  -32.9430  -18.0600   19.6260 Cl  0  0  0  0  0  0  0  0  0  0  0  0
  -31.2720  -15.0510   20.6380 C   0  0  0  0  0  0  0  0  0  0  0  0
  -31.2540  -12.5970   20.0050 C   0  0  0  0  0  2  0  0  0  0  0  0
  -30.4270  -12.4130   18.7100 C   0  0  0  0  0  2  0  0  0  0  0  0
  -28.9260  -12.2600   19.0300 C   0  0  0  0  0  2  0  0  0  0  0  0
  -28.4290  -13.3150   20.0510 C   0  0  0  0  0  3  0  0  0  0  0  0
  -29.3820  -13.4410   21.2600 C   0  0  0  0  0  2  0  0  0  0  0  0
  -30.7120  -13.7790   20.7300 N   0  0  0  0  0  0  0  0  0  0  0  0
  -32.4800  -15.1320   20.3960 O   0  0  0  0  0  0  0  0  0  0  0  0
  -30.4020  -16.1650   20.6960 N   0  0  0  0  0  0  0  0  0  0  0  0
  -29.5040  -15.8310   21.0100 H   0  0  0  0  0  0  0  0  0  0  0  0
  -26.0400  -14.0070   20.6680 C   0  0  0  0  0  0  0  0  0  0  0  0
  -24.9150  -13.2820   20.9510 C   0  0  0  0  0  0  0  0  0  0  0  0
  -25.3060  -11.9090   20.8980 C   0  0  0  0  0  0  0  0  0  0  0  0
  -27.0470  -13.0800   20.4560 N   0  0  0  0  0  0  0  0  0  0  0  0
  -26.6090  -11.8100   20.6580 N   0  0  0  0  0  0  0  0  0  0  0  0
  -24.5010  -10.6850   21.0030 C   0  0  0  0  0  0  0  0  0  0  0  0
  -24.8200   -9.6680   21.9280 C   0  0  0  0  0  3  0  0  0  0  0  0
  -24.0200   -8.5090   22.0240 C   0  0  0  0  0  3  0  0  0  0  0  0
  -22.8860   -8.3590   21.1920 C   0  0  0  0  0  0  0  0  0  0  0  0
  -22.5850   -9.3640   20.2560 C   0  0  0  0  0  3  0  0  0  0  0  0
  -23.3850  -10.5150   20.1590 C   0  0  0  0  0  3  0  0  0  0  0  0
  -22.0650   -7.2570   21.1970 O   0  0  0  0  0  0  0  0  0  0  0  0
  -21.8620   -6.5160   22.3340 C   0  0  0  0  0  0  0  0  0  0  0  0
  -21.3250   -7.0850   23.5080 C   0  0  0  0  0  3  0  0  0  0  0  0
  -21.0670   -6.2720   24.6300 C   0  0  0  0  0  3  0  0  0  0  0  0
  -21.3370   -4.8920   24.5760 C   0  0  0  0  0  0  0  0  0  0  0  0
  -21.8680   -4.3230   23.4050 C   0  0  0  0  0  3  0  0  0  0  0  0
  -22.1260   -5.1330   22.2860 C   0  0  0  0  0  0  0  0  0  0  0  0
  -22.6160   -4.5750   21.1530 F   0  0  0  0  0  0  0  0  0  0  0  0
  -21.0830   -4.1090   25.6510 F   0  0  0  0  0  0  0  0  0  0  0  0
  -23.5320  -13.8280   21.1580 C   0  0  0  0  0  0  0  0  0  0  0  0
  -22.7210  -13.1560   21.9660 N   0  0  0  0  0  0  0  0  0  0  0  0
  -23.1800  -14.8870   20.6410 O   0  0  0  0  0  0  0  0  0  0  0  0
  -23.0160  -12.2980   22.4080 H   0  0  0  0  0  0  0  0  0  0  0  0
  -21.7900  -13.5060   22.1470 H   0  0  0  0  0  0  0  0  0  0  0  0
  -26.2870  -15.3720   20.5450 N   0  0  0  0  0  0  0  0  0  0  0  0
  -25.5410  -16.0560   20.6280 H   0  0  0  0  0  0  0  0  0  0  0  0
  -27.1530  -15.7740   20.2120 H   0  0  0  0  0  0  0  0  0  0  0  0
  -26.8030  -20.4160   19.2490 C   0  0  0  0  0  1  0  0  0  0  0  0
  -27.5110  -20.1320   20.4490 O   0  0  0  0  0  0  0  0  0  0  0  0
  -29.2700  -21.9920   19.4290 O   0  0  0  0  0  0  0  0  0  0  0  0
  -29.9290  -23.3370   19.1190 C   0  0  0  0  0  2  0  0  0  0  0  0
  -28.9640  -24.7030   18.9220 C   0  0  0  0  0  2  0  0  0  0  0  0
  -29.2630  -26.2120   19.1580 O   0  0  0  0  0  0  0  0  0  0  0  0
  -25.3980  -30.8190   23.4200 C   0  0  0  0  0  0  0  0  0  0  0  0
  -28.1960  -27.1690   19.3220 C   0  0  0  0  0  0  0  0  0  0  0  0
  -24.3140  -29.9770   21.3740 C   0  0  0  0  0  3  0  0  0  0  0  0
  -25.8600  -28.8700   19.6520 C   0  0  0  0  0  0  0  0  0  0  0  0
  -26.8700  -30.2500   21.4560 C   0  0  0  0  0  2  0  0  0  0  0  0
  -26.9960  -29.1080   20.4340 C   0  0  0  0  0  0  0  0  0  0  0  0
  -28.1660  -28.2790   20.2560 C   0  0  0  0  0  3  0  0  0  0  0  0
  -27.0300  -27.0380   18.5300 C   0  0  0  0  0  3  0  0  0  0  0  0
  -25.8890  -27.8510   18.6910 C   0  0  0  0  0  3  0  0  0  0  0  0
  -24.6260  -29.7280   19.8760 C   0  0  0  0  0  2  0  0  0  0  0  0
  -25.5430  -30.3530   22.1430 N   0  0  0  0  0  0  0  0  0  0  0  0
  -24.2770  -30.9540   23.9370 O   0  0  0  0  0  0  0  0  0  0  0  0
  -23.5780  -28.7440   21.9540 C   0  0  0  0  0  0  0  0  0  0  0  0
  -22.2560  -28.6530   21.7240 N   0  0  0  0  0  0  0  0  0  0  0  0
  -24.2020  -27.8810   22.5780 O   0  0  0  0  0  0  0  0  0  0  0  0
  -21.8110  -29.4040   21.2160 H   0  0  0  0  0  0  0  0  0  0  0  0
  -18.8230  -27.4990   21.7970 C   0  0  0  0  0  0  0  0  0  0  0  0
  -21.3860  -27.5500   22.1410 C   0  0  0  0  0  3  0  0  0  0  0  0
  -21.4410  -26.3840   21.1260 C   0  0  0  0  0  2  0  0  0  0  0  0
  -20.3420  -26.4610   20.0600 C   0  0  0  0  0  2  0  0  0  0  0  0
  -18.9580  -26.4430   20.7130 C   0  0  0  0  0  2  0  0  0  0  0  0
  -19.9630  -28.0280   22.4570 C   0  0  0  0  0  0  0  0  0  0  0  0
  -19.7830  -29.0320   23.4340 C   0  0  0  0  0  3  0  0  0  0  0  0
  -18.4950  -29.5000   23.7560 C   0  0  0  0  0  3  0  0  0  0  0  0
  -17.3690  -28.9610   23.1090 C   0  0  0  0  0  3  0  0  0  0  0  0
  -17.5340  -27.9600   22.1360 C   0  0  0  0  0  3  0  0  0  0  0  0
  -26.6290  -31.2260   24.2850 C   0  0  0  0  0  3  0  0  0  0  0  0
  -27.0120  -30.1420   25.3680 C   0  0  1  0  0  0  0  0  0  0  0  0
  -25.8230  -29.7030   26.2550 C   0  0  0  0  0  1  0  0  0  0  0  0
  -27.5900  -28.8740   24.6980 C   0  0  0  0  0  1  0  0  0  0  0  0
  -28.1200  -30.6960   26.2940 C   0  0  0  0  0  1  0  0  0  0  0  0
  -26.3190  -32.5090   24.9330 N   0  0  0  0  0  0  0  0  0  0  0  0
  -26.7230  -33.7060   24.4880 C   0  0  0  0  0  0  0  0  0  0  0  0
  -27.4620  -33.8390   23.5100 O   0  0  0  0  0  0  0  0  0  0  0  0
  -25.6700  -32.4790   25.7060 H   0  0  0  0  0  0  0  0  0  0  0  0
  -25.0610  -35.5970   24.4870 C   0  0  0  0  0  1  0  0  0  0  0  0
  -26.2300  -34.9530   25.2500 C   0  0  0  0  0  3  0  0  0  0  0  0
  -28.3080  -35.5280   26.4270 C   0  0  0  0  0  1  0  0  0  0  0  0
  -27.2890  -35.9620   25.4740 N   0  0  0  0  0  0  0  0  0  0  0  0
  -26.8890  -36.8340   25.8130 H   0  0  0  0  0  0  0  0  0  0  0  0
  2  5  2  0
  2  6  1  0
  3  1  1  0
  3 16  1  0
  4 47  1  0
  4  1  2  0
  5  4  1  0
  6  3  2  0
  7  6  1  0
  8 16  1  0
  8 14  1  0
  9 14  1  0
 10 11  1  0
 10  9  1  0
 12 11  1  0
 12 21  1  0
 12 13  1  0
 14 13  1  0
 15  8  2  0
 16 17  1  0
 18 19  2  0
 19 38  1  0
 20 19  1  0
 20 23  1  0
 21 22  1  0
 21 18  1  0
 22 20  2  0
 23 24  1  0
 24 25  2  0
 26 29  1  0
 26 25  1  0
 27 26  2  0
 28 27  1  0
 28 23  2  0
 29 30  1  0
 30 31  1  0
 31 32  2  0
 33 32  1  0
 33 37  1  0
 34 33  2  0
 35 30  2  0
 35 34  1  0
 36 35  1  0
 38 39  1  0
 39 42  1  0
 39 41  1  0
 40 38  2  0
 43 44  1  0
 43 18  1  0
 45 43  1  0
 46 47  1  0
 48  5  1  0
 49 48  1  0
 50 49  1  0
 50 51  1  0
 51 53  1  0
 52 63  2  0
 53 58  1  0
 54 64  1  0
 54 62  1  0
 55 61  1  0
 55 57  1  0
 56 62  1  0
 57 56  1  0
 58 57  2  0
 59 60  1  0
 59 53  2  0
 60 55  2  0
 61 54  1  0
 62 52  1  0
 64 66  2  0
 65 64  1  0
 67 65  1  0
 68 77  2  0
 68 73  1  0
 69 65  1  0
 69 73  1  0
 70 69  1  0
 71 72  1  0
 71 70  1  0
 72 68  1  0
 73 74  2  0
 74 75  1  0
 76 75  2  0
 77 76  1  0
 78 52  1  0
 78 83  1  0
 78 79  1  0
 79 80  1  1
 79 82  1  0
 81 79  1  0
 83 86  1  0
 84 83  1  0
 84 88  1  0
 85 84  2  0
 88 87  1  0
 88 90  1  0
 90 91  1  0
 90 89  1  0
M  ISO  4   8 100  16 100  50 101  51 101
M  END
>  <TORSDO>  (18) 
F 20

>  <SCORE>  (18) 
-9.753

>  <name>  (18) 
17

>  <ligand_id>  (18) 
17

>  <original_smiles>  (18) 
[H]c1c([H])c([H])c2c(c1[H])C([H])([H])C([H])([H])C([H])([H])C2([H])N([H])C(=O)C1([H])N(C(=O)C([H])(N([H])C(=O)C([H])(N([H])C([H])([H])[H])C([H])([H])[H])C(C([H])([H])[H])(C([H])([H])[H])C([H])([H])[H])C([H])([H])c2c([H])c(OC([H])([H])C([H])([H])Oc3c([H])c(Cl)c(N([H])C(=O)N4C([H])([H])C([H])([H])C([H])([H])C([H])(n5nc(-c6c([H])c([H])c(Oc7c([H])c([H])c(F)c([H])c7F)c([H])c6[H])c(C(=O)N([H])[H])c5N([H])[H])C4([H])[H])c([H])c3OC([H])([H])[H])c([H])c([H])c2C1([H])[H]

>  <smiles>  (18) 
[H]c1c([H])c([H])c2c(c1[H])C([H])([H])C([H])([H])C([H])([H])C2([H])N([H])C(=O)C1([H])N(C(=O)C([H])(N([H])C(=O)C([H])(N([H])C([H])([H])[H])C([H])([H])[H])C(C([H])([H])[H])(C([H])([H])[H])C([H])([H])[H])C([H])([H])c2c([H])c(OC([H])([H])C([H])([H])Oc3c([H])c(Cl)c(N([H])C(=O)N4C([H])([H])C([H])([H])C([H])([H])C([H])(n5nc(-c6c([H])c([H])c(Oc7c([H])c([H])c(F)c([H])c7F)c([H])c6[H])c(C(=O)N([H])[H])c5N([H])[H])C4([H])[H])c([H])c3OC([H])([H])[H])c([H])c([H])c2C1([H])[H]

$$$$
18:0:0
     RDKit          3D

 91 99  0  0  1  0  0  0  0  0999 V2000
  -28.9180  -23.2360   20.1090 C   0  0  0  0  0  0  0  0  0  0  0  0
  -28.7170  -21.8340   20.4340 N   0  0  0  0  0  0  0  0  0  0  0  0
  -29.9640  -23.5580   19.5400 O   0  0  0  0  0  0  0  0  0  0  0  0
  -27.9140  -21.7020   21.0360 H   0  0  0  0  0  0  0  0  0  0  0  0
  -30.8070  -19.3990   18.2910 C   0  0  0  0  0  3  0  0  0  0  0  0
  -30.2290  -20.5440   18.8710 C   0  0  0  0  0  3  0  0  0  0  0  0
  -29.2730  -19.0710   20.5330 C   0  0  0  0  0  3  0  0  0  0  0  0
  -30.6350  -18.0800   18.7790 C   0  0  0  0  0  0  0  0  0  0  0  0
  -29.3970  -20.4870   20.0060 C   0  0  0  0  0  0  0  0  0  0  0  0
  -29.9110  -17.8110   19.9800 C   0  0  0  0  0  0  0  0  0  0  0  0
  -31.2010  -16.9870   17.8840 C   0  0  0  0  0  1  0  0  0  0  0  0
  -30.5240  -15.0950   20.3270 C   0  0  0  0  0  0  0  0  0  0  0  0
  -30.4270  -12.7190   19.4180 C   0  0  0  0  0  2  0  0  0  0  0  0
  -29.5200  -12.6550   18.1670 C   0  0  0  0  0  2  0  0  0  0  0  0
  -28.0540  -12.4240   18.5780 C   0  0  0  0  0  2  0  0  0  0  0  0
  -27.6210  -13.3530   19.7420 C   0  0  0  0  0  3  0  0  0  0  0  0
  -28.6570  -13.3960   20.8840 C   0  0  0  0  0  2  0  0  0  0  0  0
  -29.9280  -13.8270   20.2910 N   0  0  0  0  0  0  0  0  0  0  0  0
  -31.7400  -15.1060   20.1020 O   0  0  0  0  0  0  0  0  0  0  0  0
  -29.7610  -16.3200   20.4560 N   0  0  0  0  0  0  0  0  0  0  0  0
  -28.8540  -16.1340   20.8580 H   0  0  0  0  0  0  0  0  0  0  0  0
  -25.2300  -13.9180   20.4420 C   0  0  0  0  0  0  0  0  0  0  0  0
  -24.1650  -13.1400   20.8030 C   0  0  0  0  0  0  0  0  0  0  0  0
  -24.6390  -11.7920   20.7950 C   0  0  0  0  0  0  0  0  0  0  0  0
  -26.2810  -13.0450   20.2250 N   0  0  0  0  0  0  0  0  0  0  0  0
  -25.9350  -11.7620   20.5070 N   0  0  0  0  0  0  0  0  0  0  0  0
  -23.9170  -10.5270   20.9860 C   0  0  0  0  0  0  0  0  0  0  0  0
  -24.3400   -9.5710   21.9360 C   0  0  0  0  0  3  0  0  0  0  0  0
  -23.6140   -8.3730   22.1150 C   0  0  0  0  0  3  0  0  0  0  0  0
  -22.4540   -8.1220   21.3450 C   0  0  0  0  0  0  0  0  0  0  0  0
  -22.0520   -9.0670   20.3840 C   0  0  0  0  0  3  0  0  0  0  0  0
  -22.7770  -10.2560   20.2030 C   0  0  0  0  0  3  0  0  0  0  0  0
  -21.7030   -6.9750   21.4330 O   0  0  0  0  0  0  0  0  0  0  0  0
  -21.6360   -6.2440   22.5930 C   0  0  0  0  0  0  0  0  0  0  0  0
  -21.1810   -6.8080   23.8040 C   0  0  0  0  0  3  0  0  0  0  0  0
  -21.0630   -6.0040   24.9550 C   0  0  0  0  0  3  0  0  0  0  0  0
  -21.3900   -4.6370   24.8960 C   0  0  0  0  0  0  0  0  0  0  0  0
  -21.8370   -4.0710   23.6890 C   0  0  0  0  0  3  0  0  0  0  0  0
  -21.9580   -4.8730   22.5400 C   0  0  0  0  0  0  0  0  0  0  0  0
  -22.3700   -4.3200   21.3740 F   0  0  0  0  0  0  0  0  0  0  0  0
  -21.2700   -3.8610   25.9990 F   0  0  0  0  0  0  0  0  0  0  0  0
  -22.7610  -13.6110   21.0430 C   0  0  0  0  0  0  0  0  0  0  0  0
  -22.0220  -12.9260   21.9080 N   0  0  0  0  0  0  0  0  0  0  0  0
  -22.3280  -14.6250   20.4970 O   0  0  0  0  0  0  0  0  0  0  0  0
  -22.3860  -12.1070   22.3720 H   0  0  0  0  0  0  0  0  0  0  0  0
  -21.0790  -13.2250   22.1100 H   0  0  0  0  0  0  0  0  0  0  0  0
  -25.3870  -15.2870   20.2470 N   0  0  0  0  0  0  0  0  0  0  0  0
  -24.6080  -15.9330   20.3140 H   0  0  0  0  0  0  0  0  0  0  0  0
  -26.2300  -15.7210   19.8920 H   0  0  0  0  0  0  0  0  0  0  0  0
  -27.8800  -24.5270   20.4410 C   0  0  0  0  0  2  0  0  0  0  0  0
  -28.2070  -26.0740   20.2260 O   0  0  0  0  0  0  0  0  0  0  0  0
  -24.6060  -31.8820   23.2070 C   0  0  0  0  0  0  0  0  0  0  0  0
  -27.1720  -27.1030   20.1920 C   0  0  0  0  0  0  0  0  0  0  0  0
  -23.4060  -30.4780   21.5770 C   0  0  0  0  0  3  0  0  0  0  0  0
  -24.8550  -28.8960   20.1530 C   0  0  0  0  0  0  0  0  0  0  0  0
  -25.9660  -30.7300   21.4100 C   0  0  0  0  0  2  0  0  0  0  0  0
  -26.0390  -29.3290   20.7620 C   0  0  0  0  0  0  0  0  0  0  0  0
  -27.1990  -28.4520   20.7590 C   0  0  0  0  0  3  0  0  0  0  0  0
  -25.9600  -26.7950   19.5350 C   0  0  0  0  0  3  0  0  0  0  0  0
  -24.8330  -27.6450   19.5210 C   0  0  0  0  0  3  0  0  0  0  0  0
  -23.6270  -29.7980   20.2000 C   0  0  0  0  0  2  0  0  0  0  0  0
  -24.6800  -31.0530   22.1180 N   0  0  0  0  0  0  0  0  0  0  0  0
  -23.5200  -32.1650   23.7360 O   0  0  0  0  0  0  0  0  0  0  0  0
  -22.7300  -29.4730   22.5450 C   0  0  0  0  0  0  0  0  0  0  0  0
  -21.4010  -29.3030   22.4280 N   0  0  0  0  0  0  0  0  0  0  0  0
  -23.4050  -28.8490   23.3670 O   0  0  0  0  0  0  0  0  0  0  0  0
  -20.9090  -29.8550   21.7390 H   0  0  0  0  0  0  0  0  0  0  0  0
  -18.0240  -28.0960   22.9580 C   0  0  0  0  0  0  0  0  0  0  0  0
  -20.5850  -28.3660   23.2070 C   0  0  0  0  0  3  0  0  0  0  0  0
  -20.6860  -26.9320   22.6370 C   0  0  0  0  0  2  0  0  0  0  0  0
  -19.5780  -26.6050   21.6300 C   0  0  0  0  0  2  0  0  0  0  0  0
  -18.2000  -26.7470   22.2820 C   0  0  0  0  0  2  0  0  0  0  0  0
  -19.1440  -28.8640   23.3790 C   0  0  0  0  0  0  0  0  0  0  0  0
  -18.9240  -30.1250   23.9740 C   0  0  0  0  0  3  0  0  0  0  0  0
  -17.6190  -30.6210   24.1500 C   0  0  0  0  0  3  0  0  0  0  0  0
  -16.5130  -29.8520   23.7450 C   0  0  0  0  0  3  0  0  0  0  0  0
  -16.7170  -28.5920   23.1550 C   0  0  0  0  0  3  0  0  0  0  0  0
  -25.8820  -32.5270   23.8270 C   0  0  0  0  0  3  0  0  0  0  0  0
  -25.5620  -33.9250   24.1610 N   0  0  0  0  0  0  0  0  0  0  0  0
  -25.8870  -34.9860   23.4090 C   0  0  0  0  0  0  0  0  0  0  0  0
  -26.5510  -34.8890   22.3740 O   0  0  0  0  0  0  0  0  0  0  0  0
  -24.9670  -34.0730   24.9640 H   0  0  0  0  0  0  0  0  0  0  0  0
  -24.1530  -36.7810   23.0750 C   0  0  0  0  0  1  0  0  0  0  0  0
  -25.3990  -36.3710   23.8770 C   0  0  0  0  0  3  0  0  0  0  0  0
  -27.5330  -37.2600   24.7080 C   0  0  0  0  0  1  0  0  0  0  0  0
  -26.4280  -37.4280   23.7670 N   0  0  0  0  0  0  0  0  0  0  0  0
  -26.0200  -38.3460   23.9200 H   0  0  0  0  0  0  0  0  0  0  0  0
  -26.4010  -31.7650   25.1090 C   0  0  1  0  0  0  0  0  0  0  0  0
  -25.3080  -31.5310   26.1790 C   0  0  0  0  0  1  0  0  0  0  0  0
  -26.9850  -30.3840   24.7310 C   0  0  0  0  0  1  0  0  0  0  0  0
  -27.5500  -32.5650   25.7650 C   0  0  0  0  0  1  0  0  0  0  0  0
  1  2  1  0
  1 50  1  0
  2  4  1  0
  3  1  2  0
  5  8  2  0
  5  6  1  0
  6  9  2  0
  8 10  1  0
  9  2  1  0
  9  7  1  0
 10 20  1  0
 10  7  2  0
 11  8  1  0
 12 20  1  0
 13 18  1  0
 14 15  1  0
 14 13  1  0
 16 15  1  0
 16 25  1  0
 16 17  1  0
 18 12  1  0
 18 17  1  0
 19 12  2  0
 20 21  1  0
 22 23  2  0
 23 42  1  0
 24 23  1  0
 24 27  1  0
 25 22  1  0
 25 26  1  0
 26 24  2  0
 27 28  1  0
 28 29  2  0
 30 33  1  0
 30 29  1  0
 31 30  2  0
 32 31  1  0
 32 27  2  0
 33 34  1  0
 34 35  1  0
 35 36  2  0
 37 36  1  0
 37 41  1  0
 38 37  2  0
 39 34  2  0
 39 38  1  0
 40 39  1  0
 42 43  1  0
 43 46  1  0
 43 45  1  0
 44 42  2  0
 47 48  1  0
 47 22  1  0
 49 47  1  0
 51 50  1  0
 52 63  2  0
 53 51  1  0
 53 58  1  0
 54 62  1  0
 54 64  1  0
 55 61  1  0
 55 57  1  0
 56 62  1  0
 57 56  1  0
 58 57  2  0
 59 53  2  0
 60 59  1  0
 60 55  2  0
 61 54  1  0
 62 52  1  0
 64 66  2  0
 65 64  1  0
 67 65  1  0
 68 77  2  0
 68 73  1  0
 69 65  1  0
 69 73  1  0
 70 69  1  0
 71 72  1  0
 71 70  1  0
 72 68  1  0
 73 74  2  0
 74 75  1  0
 76 75  2  0
 77 76  1  0
 78 52  1  0
 78 79  1  0
 78 88  1  0
 79 82  1  0
 80 84  1  0
 80 79  1  0
 81 80  2  0
 84 83  1  0
 86 84  1  0
 86 87  1  0
 86 85  1  0
 88 91  1  1
 88 89  1  0
 90 88  1  0
M  ISO  4  12 100  20 100  50 101  51 101
M  END
>  <TORSDO>  (19) 
F 18

>  <SCORE>  (19) 
-14.464

>  <name>  (19) 
18

>  <ligand_id>  (19) 
18

>  <original_smiles>  (19) 
[H]c1c([H])c([H])c2c(c1[H])C([H])([H])C([H])([H])C([H])([H])C2([H])N([H])C(=O)C1([H])N(C(=O)C([H])(N([H])C(=O)C([H])(N([H])C([H])([H])[H])C([H])([H])[H])C(C([H])([H])[H])(C([H])([H])[H])C([H])([H])[H])C([H])([H])c2c([H])c(OC([H])([H])C(=O)N([H])c3c([H])c([H])c(C([H])([H])[H])c(N([H])C(=O)N4C([H])([H])C([H])([H])C([H])([H])C([H])(n5nc(-c6c([H])c([H])c(Oc7c([H])c([H])c(F)c([H])c7F)c([H])c6[H])c(C(=O)N([H])[H])c5N([H])[H])C4([H])[H])c3[H])c([H])c([H])c2C1([H])[H]

>  <smiles>  (19) 
[H]c1c([H])c([H])c2c(c1[H])C([H])([H])C([H])([H])C([H])([H])C2([H])N([H])C(=O)C1([H])N(C(=O)C([H])(N([H])C(=O)C([H])(N([H])C([H])([H])[H])C([H])([H])[H])C(C([H])([H])[H])(C([H])([H])[H])C([H])([H])[H])C([H])([H])c2c([H])c(OC([H])([H])C(=O)N([H])c3c([H])c([H])c(C([H])([H])[H])c(N([H])C(=O)N4C([H])([H])C([H])([H])C([H])([H])C([H])(n5nc(-c6c([H])c([H])c(Oc7c([H])c([H])c(F)c([H])c7F)c([H])c6[H])c(C(=O)N([H])[H])c5N([H])[H])C4([H])[H])c3[H])c([H])c([H])c2C1([H])[H]

$$$$
19:0:0
     RDKit          3D

 91 99  0  0  1  0  0  0  0  0999 V2000
  -28.9840  -23.4060   20.2160 C   0  0  0  0  0  0  0  0  0  0  0  0
  -28.5330  -22.0740   20.0580 N   0  0  0  0  0  0  0  0  0  0  0  0
  -30.1440  -23.6320   20.5700 O   0  0  0  0  0  0  0  0  0  0  0  0
  -27.5480  -22.0810   19.8230 H   0  0  0  0  0  0  0  0  0  0  0  0
  -30.6150  -18.6040   20.2960 C   0  0  0  0  0  3  0  0  0  0  0  0
  -30.3410  -20.0470   20.2500 C   0  0  0  0  0  3  0  0  0  0  0  0
  -28.2990  -18.1820   20.2110 C   0  0  0  0  0  3  0  0  0  0  0  0
  -29.5970  -17.5800   20.2820 C   0  0  0  0  0  0  0  0  0  0  0  0
  -29.0190  -20.6250   20.1720 C   0  0  0  0  0  0  0  0  0  0  0  0
  -28.0240  -19.5980   20.1470 C   0  0  0  0  0  0  0  0  0  0  0  0
  -26.7300  -19.9890   20.0570 F   0  0  0  0  0  0  0  0  0  0  0  0
  -30.5510  -14.9620   20.1150 C   0  0  0  0  0  0  0  0  0  0  0  0
  -30.4380  -12.6340   19.1180 C   0  0  0  0  0  2  0  0  0  0  0  0
  -29.4590  -12.6410   17.9190 C   0  0  0  0  0  2  0  0  0  0  0  0
  -28.0060  -12.4260   18.3900 C   0  0  0  0  0  2  0  0  0  0  0  0
  -27.6440  -13.3100   19.6110 C   0  0  0  0  0  3  0  0  0  0  0  0
  -28.7370  -13.2580   20.7010 C   0  0  0  0  0  2  0  0  0  0  0  0
  -29.9960  -13.6850   20.0730 N   0  0  0  0  0  0  0  0  0  0  0  0
  -31.7310  -15.0980   19.7720 O   0  0  0  0  0  0  0  0  0  0  0  0
  -29.6790  -16.0480   20.3690 N   0  0  0  0  0  0  0  0  0  0  0  0
  -28.7830  -15.6540   20.6080 H   0  0  0  0  0  0  0  0  0  0  0  0
  -25.2800  -13.8790   20.4200 C   0  0  0  0  0  0  0  0  0  0  0  0
  -24.2290  -13.0980   20.8130 C   0  0  0  0  0  0  0  0  0  0  0  0
  -24.6940  -11.7480   20.7490 C   0  0  0  0  0  0  0  0  0  0  0  0
  -26.3180  -13.0050   20.1380 N   0  0  0  0  0  0  0  0  0  0  0  0
  -25.9750  -11.7180   20.4010 N   0  0  0  0  0  0  0  0  0  0  0  0
  -23.9740  -10.4820   20.9410 C   0  0  0  0  0  0  0  0  0  0  0  0
  -24.4040   -9.5240   21.8840 C   0  0  0  0  0  3  0  0  0  0  0  0
  -23.6830   -8.3230   22.0640 C   0  0  0  0  0  3  0  0  0  0  0  0
  -22.5180   -8.0720   21.3000 C   0  0  0  0  0  0  0  0  0  0  0  0
  -22.1080   -9.0210   20.3460 C   0  0  0  0  0  3  0  0  0  0  0  0
  -22.8300  -10.2120   20.1650 C   0  0  0  0  0  3  0  0  0  0  0  0
  -21.7710   -6.9240   21.3890 O   0  0  0  0  0  0  0  0  0  0  0  0
  -21.6710   -6.2170   22.5600 C   0  0  0  0  0  0  0  0  0  0  0  0
  -21.1670   -6.8020   23.7430 C   0  0  0  0  0  3  0  0  0  0  0  0
  -21.0170   -6.0230   24.9060 C   0  0  0  0  0  3  0  0  0  0  0  0
  -21.3610   -4.6570   24.8890 C   0  0  0  0  0  0  0  0  0  0  0  0
  -21.8590   -4.0710   23.7110 C   0  0  0  0  0  3  0  0  0  0  0  0
  -22.0100   -4.8490   22.5500 C   0  0  0  0  0  0  0  0  0  0  0  0
  -22.4700   -4.2740   21.4130 F   0  0  0  0  0  0  0  0  0  0  0  0
  -21.2100   -3.9060   26.0050 F   0  0  0  0  0  0  0  0  0  0  0  0
  -22.8380  -13.5690   21.1280 C   0  0  0  0  0  0  0  0  0  0  0  0
  -22.1370  -12.8660   22.0090 N   0  0  0  0  0  0  0  0  0  0  0  0
  -22.3840  -14.5970   20.6260 O   0  0  0  0  0  0  0  0  0  0  0  0
  -22.5180  -12.0350   22.4370 H   0  0  0  0  0  0  0  0  0  0  0  0
  -21.2060  -13.1640   22.2620 H   0  0  0  0  0  0  0  0  0  0  0  0
  -25.4330  -15.2520   20.2490 N   0  0  0  0  0  0  0  0  0  0  0  0
  -24.6480  -15.8850   20.3550 H   0  0  0  0  0  0  0  0  0  0  0  0
  -26.2200  -15.6750   19.7760 H   0  0  0  0  0  0  0  0  0  0  0  0
  -27.9800  -24.6920   19.9200 C   0  0  0  0  0  2  0  0  0  0  0  0
  -28.3120  -26.1880   20.1970 O   0  0  0  0  0  0  0  0  0  0  0  0
  -24.6660  -31.8440   23.2340 C   0  0  0  0  0  0  0  0  0  0  0  0
  -27.2610  -27.1790   20.1420 C   0  0  0  0  0  0  0  0  0  0  0  0
  -23.4720  -30.4670   21.5760 C   0  0  0  0  0  3  0  0  0  0  0  0
  -24.9260  -28.9180   20.1340 C   0  0  0  0  0  0  0  0  0  0  0  0
  -26.0270  -30.7400   21.4210 C   0  0  0  0  0  2  0  0  0  0  0  0
  -26.1060  -29.3580   20.7490 C   0  0  0  0  0  0  0  0  0  0  0  0
  -27.2740  -28.5040   20.7380 C   0  0  0  0  0  3  0  0  0  0  0  0
  -26.0520  -26.8450   19.4880 C   0  0  0  0  0  3  0  0  0  0  0  0
  -24.9120  -27.6740   19.4900 C   0  0  0  0  0  3  0  0  0  0  0  0
  -23.6970  -29.8110   20.1890 C   0  0  0  0  0  2  0  0  0  0  0  0
  -24.7420  -31.0380   22.1320 N   0  0  0  0  0  0  0  0  0  0  0  0
  -23.5780  -32.1210   23.7620 O   0  0  0  0  0  0  0  0  0  0  0  0
  -22.7940  -29.4450   22.5230 C   0  0  0  0  0  0  0  0  0  0  0  0
  -21.4650  -29.2810   22.3990 N   0  0  0  0  0  0  0  0  0  0  0  0
  -23.4660  -28.8030   23.3340 O   0  0  0  0  0  0  0  0  0  0  0  0
  -20.9790  -29.8510   21.7200 H   0  0  0  0  0  0  0  0  0  0  0  0
  -18.0770  -28.1010   22.9080 C   0  0  0  0  0  0  0  0  0  0  0  0
  -20.6410  -28.3360   23.1580 C   0  0  0  0  0  3  0  0  0  0  0  0
  -20.7240  -26.9140   22.5550 C   0  0  0  0  0  2  0  0  0  0  0  0
  -19.6100  -26.6210   21.5450 C   0  0  0  0  0  2  0  0  0  0  0  0
  -18.2360  -26.7640   22.2040 C   0  0  0  0  0  2  0  0  0  0  0  0
  -19.2060  -28.8470   23.3430 C   0  0  0  0  0  0  0  0  0  0  0  0
  -19.0010  -30.0970   23.9630 C   0  0  0  0  0  3  0  0  0  0  0  0
  -17.7010  -30.6040   24.1540 C   0  0  0  0  0  3  0  0  0  0  0  0
  -16.5880  -29.8560   23.7330 C   0  0  0  0  0  3  0  0  0  0  0  0
  -16.7770  -28.6060   23.1170 C   0  0  0  0  0  3  0  0  0  0  0  0
  -25.9420  -32.4740   23.8720 C   0  0  0  0  0  3  0  0  0  0  0  0
  -25.6290  -33.8700   24.2110 N   0  0  0  0  0  0  0  0  0  0  0  0
  -25.9410  -34.9310   23.4540 C   0  0  0  0  0  0  0  0  0  0  0  0
  -26.5900  -34.8350   22.4080 O   0  0  0  0  0  0  0  0  0  0  0  0
  -25.0490  -34.0180   25.0240 H   0  0  0  0  0  0  0  0  0  0  0  0
  -24.1860  -36.7120   23.1640 C   0  0  0  0  0  1  0  0  0  0  0  0
  -25.4600  -36.3150   23.9290 C   0  0  0  0  0  3  0  0  0  0  0  0
  -27.6110  -37.2250   24.6860 C   0  0  0  0  0  1  0  0  0  0  0  0
  -26.4790  -37.3770   23.7770 N   0  0  0  0  0  0  0  0  0  0  0  0
  -26.0690  -38.2950   23.9310 H   0  0  0  0  0  0  0  0  0  0  0  0
  -26.4440  -31.6960   25.1500 C   0  0  1  0  0  0  0  0  0  0  0  0
  -25.3410  -31.4590   26.2070 C   0  0  0  0  0  1  0  0  0  0  0  0
  -27.0260  -30.3170   24.7630 C   0  0  0  0  0  1  0  0  0  0  0  0
  -27.5910  -32.4850   25.8250 C   0  0  0  0  0  1  0  0  0  0  0  0
  1  3  2  0
  2  9  1  0
  2  1  1  0
  4  2  1  0
  6  5  2  0
  7  8  2  0
  8  5  1  0
  8 20  1  0
  9  6  1  0
 10  9  2  0
 10  7  1  0
 11 10  1  0
 12 20  1  0
 13 18  1  0
 14 15  1  0
 14 13  1  0
 16 15  1  0
 16 25  1  0
 16 17  1  0
 18 12  1  0
 18 17  1  0
 19 12  2  0
 20 21  1  0
 22 23  2  0
 23 42  1  0
 24 23  1  0
 24 27  1  0
 25 26  1  0
 25 22  1  0
 26 24  2  0
 27 28  1  0
 28 29  2  0
 30 33  1  0
 30 29  1  0
 31 30  2  0
 32 31  1  0
 32 27  2  0
 33 34  1  0
 34 35  1  0
 35 36  2  0
 37 36  1  0
 37 41  1  0
 38 37  2  0
 39 34  2  0
 39 38  1  0
 40 39  1  0
 42 43  1  0
 43 46  1  0
 43 45  1  0
 44 42  2  0
 47 48  1  0
 47 22  1  0
 49 47  1  0
 50 51  1  0
 50  1  1  0
 52 63  2  0
 53 51  1  0
 53 58  1  0
 54 62  1  0
 54 64  1  0
 55 61  1  0
 55 57  1  0
 56 62  1  0
 57 56  1  0
 58 57  2  0
 59 60  1  0
 59 53  2  0
 60 55  2  0
 61 54  1  0
 62 52  1  0
 64 66  2  0
 65 64  1  0
 67 65  1  0
 68 77  2  0
 68 73  1  0
 69 65  1  0
 69 73  1  0
 70 69  1  0
 71 72  1  0
 71 70  1  0
 72 68  1  0
 73 74  2  0
 74 75  1  0
 76 75  2  0
 77 76  1  0
 78 52  1  0
 78 79  1  0
 78 88  1  0
 79 82  1  0
 80 84  1  0
 80 79  1  0
 81 80  2  0
 84 83  1  0
 86 84  1  0
 86 87  1  0
 86 85  1  0
 88 91  1  1
 88 89  1  0
 90 88  1  0
M  ISO  4  12 100  20 100  50 101  51 101
M  END
>  <TORSDO>  (20) 
F 18

>  <SCORE>  (20) 
-14.264

>  <name>  (20) 
19

>  <ligand_id>  (20) 
19

>  <original_smiles>  (20) 
[H]c1c([H])c([H])c2c(c1[H])C([H])([H])C([H])([H])C([H])([H])C2([H])N([H])C(=O)C1([H])N(C(=O)C([H])(N([H])C(=O)C([H])(N([H])C([H])([H])[H])C([H])([H])[H])C(C([H])([H])[H])(C([H])([H])[H])C([H])([H])[H])C([H])([H])c2c([H])c(OC([H])([H])C(=O)N([H])c3c([H])c([H])c(N([H])C(=O)N4C([H])([H])C([H])([H])C([H])([H])C([H])(n5nc(-c6c([H])c([H])c(Oc7c([H])c([H])c(F)c([H])c7F)c([H])c6[H])c(C(=O)N([H])[H])c5N([H])[H])C4([H])[H])c([H])c3F)c([H])c([H])c2C1([H])[H]

>  <smiles>  (20) 
[H]c1c([H])c([H])c2c(c1[H])C([H])([H])C([H])([H])C([H])([H])C2([H])N([H])C(=O)C1([H])N(C(=O)C([H])(N([H])C(=O)C([H])(N([H])C([H])([H])[H])C([H])([H])[H])C(C([H])([H])[H])(C([H])([H])[H])C([H])([H])[H])C([H])([H])c2c([H])c(OC([H])([H])C(=O)N([H])c3c([H])c([H])c(N([H])C(=O)N4C([H])([H])C([H])([H])C([H])([H])C([H])(n5nc(-c6c([H])c([H])c(Oc7c([H])c([H])c(F)c([H])c7F)c([H])c6[H])c(C(=O)N([H])[H])c5N([H])[H])C4([H])[H])c([H])c3F)c([H])c([H])c2C1([H])[H]

$$$$
20:0:0
     RDKit          3D

 94102  0  0  1  0  0  0  0  0999 V2000
  -29.8790  -22.0100   20.2430 C   0  0  0  0  0  0  0  0  0  0  0  0
  -29.5850  -20.6840   20.3100 N   0  0  0  0  0  0  0  0  0  0  0  0
  -31.0150  -22.4750   20.3660 O   0  0  0  0  0  0  0  0  0  0  0  0
  -28.6110  -20.4660   20.1560 H   0  0  0  0  0  0  0  0  0  0  0  0
  -31.8480  -19.6750   20.6360 C   0  0  0  0  0  3  0  0  0  0  0  0
  -32.1500  -17.2580   20.6640 C   0  0  0  0  0  3  0  0  0  0  0  0
  -32.6900  -18.5550   20.7430 C   0  0  0  0  0  0  0  0  0  0  0  0
  -29.9030  -18.2070   20.4550 C   0  0  0  0  0  0  0  0  0  0  0  0
  -30.4500  -19.5330   20.4640 C   0  0  0  0  0  0  0  0  0  0  0  0
  -30.7590  -17.0600   20.5000 C   0  0  0  0  0  0  0  0  0  0  0  0
  -34.1830  -18.7560   20.9140 C   0  0  0  0  0  1  0  0  0  0  0  0
  -28.3910  -18.0340   20.3920 C   0  0  0  0  0  1  0  0  0  0  0  0
  -30.8370  -14.6600   19.8080 C   0  0  0  0  0  0  0  0  0  0  0  0
  -30.4340  -12.4200   18.8360 C   0  0  0  0  0  2  0  0  0  0  0  0
  -29.3920  -12.5080   17.7020 C   0  0  0  0  0  2  0  0  0  0  0  0
  -27.9630  -12.3950   18.2660 C   0  0  0  0  0  2  0  0  0  0  0  0
  -27.7240  -13.3410   19.4730 C   0  0  0  0  0  3  0  0  0  0  0  0
  -28.8680  -13.2310   20.5050 C   0  0  0  0  0  2  0  0  0  0  0  0
  -30.1370  -13.4900   19.8040 N   0  0  0  0  0  0  0  0  0  0  0  0
  -31.8970  -14.7890   19.1860 O   0  0  0  0  0  0  0  0  0  0  0  0
  -30.2530  -15.7140   20.4250 N   0  0  0  0  0  0  0  0  0  0  0  0
  -29.3220  -15.5530   20.7790 H   0  0  0  0  0  0  0  0  0  0  0  0
  -25.4630  -14.0320   20.4870 C   0  0  0  0  0  0  0  0  0  0  0  0
  -24.3940  -13.2990   20.9270 C   0  0  0  0  0  0  0  0  0  0  0  0
  -24.7580  -11.9280   20.7560 C   0  0  0  0  0  0  0  0  0  0  0  0
  -26.4160  -13.1100   20.0830 N   0  0  0  0  0  0  0  0  0  0  0  0
  -26.0010  -11.8350   20.2980 N   0  0  0  0  0  0  0  0  0  0  0  0
  -23.9740  -10.7010   20.9470 C   0  0  0  0  0  0  0  0  0  0  0  0
  -24.3950   -9.6870   21.8350 C   0  0  0  0  0  3  0  0  0  0  0  0
  -23.6140   -8.5250   22.0170 C   0  0  0  0  0  3  0  0  0  0  0  0
  -22.4000   -8.3690   21.3100 C   0  0  0  0  0  0  0  0  0  0  0  0
  -21.9970   -9.3700   20.4090 C   0  0  0  0  0  3  0  0  0  0  0  0
  -22.7770  -10.5240   20.2250 C   0  0  0  0  0  3  0  0  0  0  0  0
  -21.5910   -7.2620   21.4020 O   0  0  0  0  0  0  0  0  0  0  0  0
  -21.5010   -6.5300   22.5580 C   0  0  0  0  0  0  0  0  0  0  0  0
  -21.0600   -7.1020   23.7710 C   0  0  0  0  0  3  0  0  0  0  0  0
  -20.9170   -6.2970   24.9190 C   0  0  0  0  0  3  0  0  0  0  0  0
  -21.2060   -4.9210   24.8540 C   0  0  0  0  0  0  0  0  0  0  0  0
  -21.6390   -4.3480   23.6460 C   0  0  0  0  0  3  0  0  0  0  0  0
  -21.7830   -5.1500   22.5010 C   0  0  0  0  0  0  0  0  0  0  0  0
  -22.1810   -4.5890   21.3340 F   0  0  0  0  0  0  0  0  0  0  0  0
  -21.0620   -4.1460   25.9550 F   0  0  0  0  0  0  0  0  0  0  0  0
  -23.0720  -13.8370   21.3920 C   0  0  0  0  0  0  0  0  0  0  0  0
  -22.4060  -13.1270   22.2960 N   0  0  0  0  0  0  0  0  0  0  0  0
  -22.6420  -14.9180   20.9900 O   0  0  0  0  0  0  0  0  0  0  0  0
  -22.7680  -12.2490   22.6360 H   0  0  0  0  0  0  0  0  0  0  0  0
  -21.5210  -13.4640   22.6500 H   0  0  0  0  0  0  0  0  0  0  0  0
  -25.6980  -15.3990   20.3780 N   0  0  0  0  0  0  0  0  0  0  0  0
  -24.9860  -16.0870   20.5960 H   0  0  0  0  0  0  0  0  0  0  0  0
  -26.5180  -15.8040   19.9470 H   0  0  0  0  0  0  0  0  0  0  0  0
  -28.7120  -22.9880   19.9770 C   0  0  0  0  0  2  0  0  0  0  0  0
  -29.0360  -24.5140   20.1310 C   0  0  0  0  0  2  0  0  0  0  0  0
  -27.8520  -25.4230   19.7060 C   0  0  0  0  0  2  0  0  0  0  0  0
  -28.0160  -26.8450   19.9430 O   0  0  0  0  0  0  0  0  0  0  0  0
  -24.4060  -32.0730   23.2450 C   0  0  0  0  0  0  0  0  0  0  0  0
  -26.8580  -27.6170   19.9780 C   0  0  0  0  0  0  0  0  0  0  0  0
  -23.1100  -30.6930   21.6570 C   0  0  0  0  0  3  0  0  0  0  0  0
  -24.4780  -29.1670   20.1390 C   0  0  0  0  0  0  0  0  0  0  0  0
  -25.6280  -31.0320   21.3350 C   0  0  0  0  0  2  0  0  0  0  0  0
  -25.6730  -29.6650   20.6740 C   0  0  0  0  0  0  0  0  0  0  0  0
  -26.8630  -28.8980   20.5930 C   0  0  0  0  0  3  0  0  0  0  0  0
  -25.6390  -27.1570   19.4220 C   0  0  0  0  0  3  0  0  0  0  0  0
  -24.4590  -27.9130   19.5120 C   0  0  0  0  0  3  0  0  0  0  0  0
  -23.2440  -30.0310   20.2610 C   0  0  0  0  0  2  0  0  0  0  0  0
  -24.4030  -31.2800   22.1350 N   0  0  0  0  0  0  0  0  0  0  0  0
  -23.3540  -32.3450   23.8430 O   0  0  0  0  0  0  0  0  0  0  0  0
  -22.5040  -29.6640   22.6400 C   0  0  0  0  0  0  0  0  0  0  0  0
  -21.2030  -29.3770   22.4800 N   0  0  0  0  0  0  0  0  0  0  0  0
  -23.2030  -29.1260   23.5040 O   0  0  0  0  0  0  0  0  0  0  0  0
  -20.6960  -29.8640   21.7540 H   0  0  0  0  0  0  0  0  0  0  0  0
  -17.9490  -27.8390   22.8320 C   0  0  0  0  0  0  0  0  0  0  0  0
  -20.4330  -28.4100   23.2660 C   0  0  0  0  0  3  0  0  0  0  0  0
  -20.7370  -26.9610   22.8190 C   0  0  0  0  0  2  0  0  0  0  0  0
  -19.7630  -26.4380   21.7580 C   0  0  0  0  0  2  0  0  0  0  0  0
  -18.3250  -26.4720   22.2840 C   0  0  0  0  0  2  0  0  0  0  0  0
  -18.9390  -28.7550   23.2770 C   0  0  0  0  0  0  0  0  0  0  0  0
  -18.5370  -30.0240   23.7440 C   0  0  0  0  0  3  0  0  0  0  0  0
  -17.1760  -30.3850   23.7730 C   0  0  0  0  0  3  0  0  0  0  0  0
  -16.1990  -29.4700   23.3430 C   0  0  0  0  0  3  0  0  0  0  0  0
  -16.5850  -28.1990   22.8800 C   0  0  0  0  0  3  0  0  0  0  0  0
  -25.7240  -32.6930   23.8020 C   0  0  0  0  0  3  0  0  0  0  0  0
  -26.2870  -31.9270   25.0630 C   0  0  1  0  0  0  0  0  0  0  0  0
  -25.2230  -31.6670   26.1550 C   0  0  0  0  0  1  0  0  0  0  0  0
  -26.8830  -30.5620   24.6490 C   0  0  0  0  0  1  0  0  0  0  0  0
  -27.4390  -32.7410   25.7000 C   0  0  0  0  0  1  0  0  0  0  0  0
  -25.4470  -34.0980   24.1290 N   0  0  0  0  0  0  0  0  0  0  0  0
  -25.7510  -35.1370   23.3400 C   0  0  0  0  0  0  0  0  0  0  0  0
  -26.3660  -35.0130   22.2780 O   0  0  0  0  0  0  0  0  0  0  0  0
  -24.8970  -34.2690   24.9590 H   0  0  0  0  0  0  0  0  0  0  0  0
  -24.0130  -36.9340   23.0590 C   0  0  0  0  0  1  0  0  0  0  0  0
  -25.2980  -36.5350   23.8020 C   0  0  0  0  0  3  0  0  0  0  0  0
  -27.4840  -37.4160   24.4910 C   0  0  0  0  0  1  0  0  0  0  0  0
  -26.3270  -37.5810   23.6170 N   0  0  0  0  0  0  0  0  0  0  0  0
  -25.9340  -38.5040   23.7870 H   0  0  0  0  0  0  0  0  0  0  0  0
  1  2  1  0
  1  3  2  0
  2  9  1  0
  4  2  1  0
  5  7  1  0
  6  7  2  0
  7 11  1  0
  8  9  1  0
  8 10  2  0
  9  5  2  0
 10  6  1  0
 12  8  1  0
 13 21  1  0
 14 19  1  0
 15 16  1  0
 15 14  1  0
 17 16  1  0
 17 26  1  0
 17 18  1  0
 19 13  1  0
 19 18  1  0
 20 13  2  0
 21 10  1  0
 21 22  1  0
 23 24  2  0
 24 43  1  0
 25 24  1  0
 25 28  1  0
 26 27  1  0
 26 23  1  0
 27 25  2  0
 28 29  1  0
 29 30  2  0
 31 34  1  0
 31 30  1  0
 32 31  2  0
 33 32  1  0
 33 28  2  0
 34 35  1  0
 35 36  1  0
 36 37  2  0
 38 37  1  0
 38 42  1  0
 39 38  2  0
 40 35  2  0
 40 39  1  0
 41 40  1  0
 43 44  1  0
 44 46  1  0
 44 47  1  0
 45 43  2  0
 48 23  1  0
 48 49  1  0
 50 48  1  0
 51 52  1  0
 51  1  1  0
 53 54  1  0
 53 52  1  0
 54 56  1  0
 55 66  2  0
 56 61  1  0
 57 65  1  0
 57 67  1  0
 58 64  1  0
 58 60  1  0
 59 65  1  0
 60 59  1  0
 61 60  2  0
 62 63  1  0
 62 56  2  0
 63 58  2  0
 64 57  1  0
 65 55  1  0
 67 69  2  0
 68 67  1  0
 70 68  1  0
 71 80  2  0
 71 76  1  0
 72 68  1  0
 72 76  1  0
 73 72  1  0
 74 75  1  0
 74 73  1  0
 75 71  1  0
 76 77  2  0
 77 78  1  0
 79 78  2  0
 80 79  1  0
 81 55  1  0
 81 86  1  0
 81 82  1  0
 82 85  1  1
 82 83  1  0
 84 82  1  0
 86 89  1  0
 87 91  1  0
 87 86  1  0
 88 87  2  0
 91 90  1  0
 93 94  1  0
 93 91  1  0
 93 92  1  0
M  ISO  4  13 100  21 100  53 101  54 101
M  END
>  <TORSDO>  (21) 
F 20

>  <SCORE>  (21) 
-12.878

>  <name>  (21) 
20

>  <ligand_id>  (21) 
20

>  <original_smiles>  (21) 
[H]c1c([H])c([H])c2c(c1[H])C([H])([H])C([H])([H])C([H])([H])C2([H])N([H])C(=O)C1([H])N(C(=O)C([H])(N([H])C(=O)C([H])(N([H])C([H])([H])[H])C([H])([H])[H])C(C([H])([H])[H])(C([H])([H])[H])C([H])([H])[H])C([H])([H])c2c([H])c(OC([H])([H])C([H])([H])C([H])([H])C(=O)N([H])c3c([H])c(C([H])([H])[H])c([H])c(N([H])C(=O)N4C([H])([H])C([H])([H])C([H])([H])C([H])(n5nc(-c6c([H])c([H])c(Oc7c([H])c([H])c(F)c([H])c7F)c([H])c6[H])c(C(=O)N([H])[H])c5N([H])[H])C4([H])[H])c3C([H])([H])[H])c([H])c([H])c2C1([H])[H]

>  <smiles>  (21) 
[H]c1c([H])c([H])c2c(c1[H])C([H])([H])C([H])([H])C([H])([H])C2([H])N([H])C(=O)C1([H])N(C(=O)C([H])(N([H])C(=O)C([H])(N([H])C([H])([H])[H])C([H])([H])[H])C(C([H])([H])[H])(C([H])([H])[H])C([H])([H])[H])C([H])([H])c2c([H])c(OC([H])([H])C([H])([H])C([H])([H])C(=O)N([H])c3c([H])c(C([H])([H])[H])c([H])c(N([H])C(=O)N4C([H])([H])C([H])([H])C([H])([H])C([H])(n5nc(-c6c([H])c([H])c(Oc7c([H])c([H])c(F)c([H])c7F)c([H])c6[H])c(C(=O)N([H])[H])c5N([H])[H])C4([H])[H])c3C([H])([H])[H])c([H])c([H])c2C1([H])[H]

$$$$
21:0:0
     RDKit          3D

 91 99  0  0  1  0  0  0  0  0999 V2000
  -28.9740  -23.2800   20.4300 C   0  0  0  0  0  0  0  0  0  0  0  0
  -28.7160  -21.8550   20.3140 N   0  0  0  0  0  0  0  0  0  0  0  0
  -30.1020  -23.6490   20.7630 O   0  0  0  0  0  0  0  0  0  0  0  0
  -27.7540  -21.6840   20.0500 H   0  0  0  0  0  0  0  0  0  0  0  0
  -30.9200  -20.6580   20.8330 C   0  0  0  0  0  3  0  0  0  0  0  0
  -31.3540  -18.2080   20.8490 C   0  0  0  0  0  3  0  0  0  0  0  0
  -29.1520  -19.0830   20.3410 C   0  0  0  0  0  3  0  0  0  0  0  0
  -31.7830  -19.5460   21.0100 C   0  0  0  0  0  0  0  0  0  0  0  0
  -29.5530  -20.5340   20.4860 C   0  0  0  0  0  0  0  0  0  0  0  0
  -30.0290  -17.8620   20.5090 C   0  0  0  0  0  0  0  0  0  0  0  0
  -33.2350  -19.7900   21.3820 C   0  0  0  0  0  1  0  0  0  0  0  0
  -30.4810  -15.1140   20.3200 C   0  0  0  0  0  0  0  0  0  0  0  0
  -30.3900  -12.7440   19.3700 C   0  0  0  0  0  2  0  0  0  0  0  0
  -29.4520  -12.6300   18.1460 C   0  0  0  0  0  2  0  0  0  0  0  0
  -28.0010  -12.3800   18.5990 C   0  0  0  0  0  2  0  0  0  0  0  0
  -27.5760  -13.3230   19.7520 C   0  0  0  0  0  3  0  0  0  0  0  0
  -28.6350  -13.3980   20.8710 C   0  0  0  0  0  2  0  0  0  0  0  0
  -29.8840  -13.8470   20.2440 N   0  0  0  0  0  0  0  0  0  0  0  0
  -31.6940  -15.1380   20.0810 O   0  0  0  0  0  0  0  0  0  0  0  0
  -29.7040  -16.3330   20.4160 N   0  0  0  0  0  0  0  0  0  0  0  0
  -28.7150  -16.1340   20.4320 H   0  0  0  0  0  0  0  0  0  0  0  0
  -25.1980  -13.8740   20.5100 C   0  0  0  0  0  0  0  0  0  0  0  0
  -24.1450  -13.0890   20.8860 C   0  0  0  0  0  0  0  0  0  0  0  0
  -24.6250  -11.7430   20.8520 C   0  0  0  0  0  0  0  0  0  0  0  0
  -26.2480  -13.0080   20.2640 N   0  0  0  0  0  0  0  0  0  0  0  0
  -25.9140  -11.7190   20.5380 N   0  0  0  0  0  0  0  0  0  0  0  0
  -23.9100  -10.4730   21.0400 C   0  0  0  0  0  0  0  0  0  0  0  0
  -24.3450   -9.5100   21.9780 C   0  0  0  0  0  3  0  0  0  0  0  0
  -23.6280   -8.3070   22.1530 C   0  0  0  0  0  3  0  0  0  0  0  0
  -22.4620   -8.0570   21.3910 C   0  0  0  0  0  0  0  0  0  0  0  0
  -22.0470   -9.0070   20.4410 C   0  0  0  0  0  3  0  0  0  0  0  0
  -22.7640  -10.2020   20.2640 C   0  0  0  0  0  3  0  0  0  0  0  0
  -21.7170   -6.9060   21.4760 O   0  0  0  0  0  0  0  0  0  0  0  0
  -21.6640   -6.1670   22.6300 C   0  0  0  0  0  0  0  0  0  0  0  0
  -21.2000   -6.7160   23.8460 C   0  0  0  0  0  3  0  0  0  0  0  0
  -21.0960   -5.9030   24.9930 C   0  0  0  0  0  3  0  0  0  0  0  0
  -21.4460   -4.5410   24.9250 C   0  0  0  0  0  0  0  0  0  0  0  0
  -21.9040   -3.9910   23.7140 C   0  0  0  0  0  3  0  0  0  0  0  0
  -22.0090   -4.8020   22.5700 C   0  0  0  0  0  0  0  0  0  0  0  0
  -22.4300   -4.2620   21.4010 F   0  0  0  0  0  0  0  0  0  0  0  0
  -21.3400   -3.7570   26.0230 F   0  0  0  0  0  0  0  0  0  0  0  0
  -22.7440  -13.5520   21.1570 C   0  0  0  0  0  0  0  0  0  0  0  0
  -22.0240  -12.8530   22.0270 N   0  0  0  0  0  0  0  0  0  0  0  0
  -22.2950  -14.5690   20.6300 O   0  0  0  0  0  0  0  0  0  0  0  0
  -22.3990  -12.0290   22.4720 H   0  0  0  0  0  0  0  0  0  0  0  0
  -21.0830  -13.1460   22.2480 H   0  0  0  0  0  0  0  0  0  0  0  0
  -25.3440  -15.2470   20.3260 N   0  0  0  0  0  0  0  0  0  0  0  0
  -24.5550  -15.8780   20.4000 H   0  0  0  0  0  0  0  0  0  0  0  0
  -26.1610  -15.6810   19.9160 H   0  0  0  0  0  0  0  0  0  0  0  0
  -27.8880  -24.5460   20.1650 C   0  0  0  0  0  2  0  0  0  0  0  0
  -28.2200  -26.0960   20.3170 O   0  0  0  0  0  0  0  0  0  0  0  0
  -24.6400  -31.9070   23.2570 C   0  0  0  0  0  0  0  0  0  0  0  0
  -27.1940  -27.1320   20.2380 C   0  0  0  0  0  0  0  0  0  0  0  0
  -23.4390  -30.5220   21.6100 C   0  0  0  0  0  3  0  0  0  0  0  0
  -24.8830  -28.9340   20.1880 C   0  0  0  0  0  0  0  0  0  0  0  0
  -25.9960  -30.7620   21.4540 C   0  0  0  0  0  2  0  0  0  0  0  0
  -26.0680  -29.3610   20.8050 C   0  0  0  0  0  0  0  0  0  0  0  0
  -27.2220  -28.4790   20.8120 C   0  0  0  0  0  3  0  0  0  0  0  0
  -25.9850  -26.8290   19.5740 C   0  0  0  0  0  3  0  0  0  0  0  0
  -24.8600  -27.6840   19.5550 C   0  0  0  0  0  3  0  0  0  0  0  0
  -23.6640  -29.8460   20.2320 C   0  0  0  0  0  2  0  0  0  0  0  0
  -24.7120  -31.0860   22.1630 N   0  0  0  0  0  0  0  0  0  0  0  0
  -23.5520  -32.1980   23.7810 O   0  0  0  0  0  0  0  0  0  0  0  0
  -22.7460  -29.5200   22.5680 C   0  0  0  0  0  0  0  0  0  0  0  0
  -21.4170  -29.3590   22.4360 N   0  0  0  0  0  0  0  0  0  0  0  0
  -23.4080  -28.8880   23.3970 O   0  0  0  0  0  0  0  0  0  0  0  0
  -20.9360  -29.9210   21.7470 H   0  0  0  0  0  0  0  0  0  0  0  0
  -18.0290  -28.1650   22.9160 C   0  0  0  0  0  0  0  0  0  0  0  0
  -20.5860  -28.4220   23.2010 C   0  0  0  0  0  3  0  0  0  0  0  0
  -20.6880  -26.9890   22.6270 C   0  0  0  0  0  2  0  0  0  0  0  0
  -19.5920  -26.6710   21.6050 C   0  0  0  0  0  2  0  0  0  0  0  0
  -18.2070  -26.8170   22.2390 C   0  0  0  0  0  2  0  0  0  0  0  0
  -19.1450  -28.9250   23.3530 C   0  0  0  0  0  0  0  0  0  0  0  0
  -18.9230  -30.1860   23.9490 C   0  0  0  0  0  3  0  0  0  0  0  0
  -17.6170  -30.6890   24.1070 C   0  0  0  0  0  3  0  0  0  0  0  0
  -16.5150  -29.9270   23.6840 C   0  0  0  0  0  3  0  0  0  0  0  0
  -16.7220  -28.6660   23.0950 C   0  0  0  0  0  3  0  0  0  0  0  0
  -25.9170  -32.5360   23.8920 C   0  0  0  0  0  3  0  0  0  0  0  0
  -25.6120  -33.9360   24.2270 N   0  0  0  0  0  0  0  0  0  0  0  0
  -25.9270  -34.9910   23.4630 C   0  0  0  0  0  0  0  0  0  0  0  0
  -26.5720  -34.8870   22.4180 O   0  0  0  0  0  0  0  0  0  0  0  0
  -25.0330  -34.0890   25.0380 H   0  0  0  0  0  0  0  0  0  0  0  0
  -24.1810  -36.7810   23.1760 C   0  0  0  0  0  1  0  0  0  0  0  0
  -25.4550  -36.3810   23.9350 C   0  0  0  0  0  3  0  0  0  0  0  0
  -27.6180  -37.2840   24.6720 C   0  0  0  0  0  1  0  0  0  0  0  0
  -26.4790  -37.4380   23.7710 N   0  0  0  0  0  0  0  0  0  0  0  0
  -26.0750  -38.3590   23.9270 H   0  0  0  0  0  0  0  0  0  0  0  0
  -26.4140  -31.7610   25.1750 C   0  0  1  0  0  0  0  0  0  0  0  0
  -25.3080  -31.5330   26.2330 C   0  0  0  0  0  1  0  0  0  0  0  0
  -26.9880  -30.3780   24.7910 C   0  0  0  0  0  1  0  0  0  0  0  0
  -27.5660  -32.5440   25.8470 C   0  0  0  0  0  1  0  0  0  0  0  0
  1  3  2  0
  2  1  1  0
  2  9  1  0
  4  2  1  0
  5  8  1  0
  6  8  2  0
  7  9  1  0
  7 10  2  0
  8 11  1  0
  9  5  2  0
 10  6  1  0
 12 20  1  0
 13 18  1  0
 14 15  1  0
 14 13  1  0
 16 15  1  0
 16 25  1  0
 16 17  1  0
 18 12  1  0
 18 17  1  0
 19 12  2  0
 20 21  1  0
 20 10  1  0
 22 23  2  0
 23 42  1  0
 24 23  1  0
 24 27  1  0
 25 22  1  0
 25 26  1  0
 26 24  2  0
 27 28  1  0
 28 29  2  0
 30 33  1  0
 30 29  1  0
 31 30  2  0
 32 31  1  0
 32 27  2  0
 33 34  1  0
 34 35  1  0
 35 36  2  0
 37 36  1  0
 37 41  1  0
 38 37  2  0
 39 34  2  0
 39 38  1  0
 40 39  1  0
 42 43  1  0
 43 46  1  0
 43 45  1  0
 44 42  2  0
 47 48  1  0
 47 22  1  0
 49 47  1  0
 50 51  1  0
 50  1  1  0
 52 63  2  0
 53 51  1  0
 53 58  1  0
 54 62  1  0
 54 64  1  0
 55 61  1  0
 55 57  1  0
 56 62  1  0
 57 58  2  0
 57 56  1  0
 59 53  2  0
 60 59  1  0
 60 55  2  0
 61 54  1  0
 62 52  1  0
 64 66  2  0
 65 64  1  0
 67 65  1  0
 68 77  2  0
 68 73  1  0
 69 65  1  0
 69 73  1  0
 70 69  1  0
 71 72  1  0
 71 70  1  0
 72 68  1  0
 73 74  2  0
 74 75  1  0
 76 75  2  0
 77 76  1  0
 78 52  1  0
 78 79  1  0
 78 88  1  0
 79 82  1  0
 80 84  1  0
 80 79  1  0
 81 80  2  0
 84 83  1  0
 86 87  1  0
 86 84  1  0
 86 85  1  0
 88 91  1  1
 88 89  1  0
 90 88  1  0
M  ISO  4  12 100  20 100  50 101  51 101
M  END
>  <TORSDO>  (22) 
F 18

>  <SCORE>  (22) 
-14.883

>  <name>  (22) 
21

>  <ligand_id>  (22) 
21

>  <original_smiles>  (22) 
[H]c1c([H])c([H])c2c(c1[H])C([H])([H])C([H])([H])C([H])([H])C2([H])N([H])C(=O)C1([H])N(C(=O)C([H])(N([H])C(=O)C([H])(N([H])C([H])([H])[H])C([H])([H])[H])C(C([H])([H])[H])(C([H])([H])[H])C([H])([H])[H])C([H])([H])c2c([H])c(OC([H])([H])C(=O)N([H])c3c([H])c(N([H])C(=O)N4C([H])([H])C([H])([H])C([H])([H])C([H])(n5nc(-c6c([H])c([H])c(Oc7c([H])c([H])c(F)c([H])c7F)c([H])c6[H])c(C(=O)N([H])[H])c5N([H])[H])C4([H])[H])c([H])c(C([H])([H])[H])c3[H])c([H])c([H])c2C1([H])[H]

>  <smiles>  (22) 
[H]c1c([H])c([H])c2c(c1[H])C([H])([H])C([H])([H])C([H])([H])C2([H])N([H])C(=O)C1([H])N(C(=O)C([H])(N([H])C(=O)C([H])(N([H])C([H])([H])[H])C([H])([H])[H])C(C([H])([H])[H])(C([H])([H])[H])C([H])([H])[H])C([H])([H])c2c([H])c(OC([H])([H])C(=O)N([H])c3c([H])c(N([H])C(=O)N4C([H])([H])C([H])([H])C([H])([H])C([H])(n5nc(-c6c([H])c([H])c(Oc7c([H])c([H])c(F)c([H])c7F)c([H])c6[H])c(C(=O)N([H])[H])c5N([H])[H])C4([H])[H])c([H])c(C([H])([H])[H])c3[H])c([H])c([H])c2C1([H])[H]

$$$$
22:0:0
     RDKit          3D

 96104  0  0  1  0  0  0  0  0999 V2000
  -29.5520  -19.2060   19.4780 C   0  0  0  0  0  3  0  0  0  0  0  0
  -31.3060  -18.5140   20.9940 C   0  0  0  0  0  3  0  0  0  0  0  0
  -30.4360  -18.0940   19.9690 C   0  0  0  0  0  0  0  0  0  0  0  0
  -29.5360  -20.6470   19.9270 C   0  0  0  0  0  0  0  0  0  0  0  0
  -31.3120  -19.8410   21.5090 C   0  0  0  0  0  0  0  0  0  0  0  0
  -30.4760  -20.8680   20.9730 C   0  0  0  0  0  0  0  0  0  0  0  0
  -30.5550  -22.0950   21.5450 F   0  0  0  0  0  0  0  0  0  0  0  0
  -31.1530  -15.3970   20.0620 C   0  0  0  0  0  0  0  0  0  0  0  0
  -31.0830  -12.9040   19.4950 C   0  0  0  0  0  2  0  0  0  0  0  0
  -30.2240  -12.6130   18.2420 C   0  0  0  0  0  2  0  0  0  0  0  0
  -28.7340  -12.4870   18.6160 C   0  0  0  0  0  2  0  0  0  0  0  0
  -28.2620  -13.6130   19.5720 C   0  0  0  0  0  3  0  0  0  0  0  0
  -29.2440  -13.8230   20.7390 C   0  0  0  0  0  2  0  0  0  0  0  0
  -30.5450  -14.1400   20.1350 N   0  0  0  0  0  0  0  0  0  0  0  0
  -32.3860  -15.4060   19.9880 O   0  0  0  0  0  0  0  0  0  0  0  0
  -30.3790  -16.5600   19.7170 N   0  0  0  0  0  0  0  0  0  0  0  0
  -29.4770  -16.2730   19.3700 H   0  0  0  0  0  0  0  0  0  0  0  0
  -25.9000  -14.3700   20.1960 C   0  0  0  0  0  0  0  0  0  0  0  0
  -24.7730  -13.6800   20.5430 C   0  0  0  0  0  0  0  0  0  0  0  0
  -25.1470  -12.3020   20.5770 C   0  0  0  0  0  0  0  0  0  0  0  0
  -26.8920  -13.4180   20.0290 N   0  0  0  0  0  0  0  0  0  0  0  0
  -26.4460  -12.1700   20.3260 N   0  0  0  0  0  0  0  0  0  0  0  0
  -24.3310  -11.0970   20.7740 C   0  0  0  0  0  0  0  0  0  0  0  0
  -24.6980  -10.0980   21.7020 C   0  0  0  0  0  3  0  0  0  0  0  0
  -23.8860   -8.9590   21.8880 C   0  0  0  0  0  3  0  0  0  0  0  0
  -22.6910   -8.8110   21.1440 C   0  0  0  0  0  0  0  0  0  0  0  0
  -22.3400   -9.7970   20.2060 C   0  0  0  0  0  3  0  0  0  0  0  0
  -23.1520  -10.9280   20.0190 C   0  0  0  0  0  3  0  0  0  0  0  0
  -21.8520   -7.7280   21.2410 O   0  0  0  0  0  0  0  0  0  0  0  0
  -21.8210   -6.9400   22.3640 C   0  0  0  0  0  0  0  0  0  0  0  0
  -21.5530   -7.4740   23.6430 C   0  0  0  0  0  3  0  0  0  0  0  0
  -21.4610   -6.6180   24.7580 C   0  0  0  0  0  3  0  0  0  0  0  0
  -21.6270   -5.2290   24.5970 C   0  0  0  0  0  0  0  0  0  0  0  0
  -21.8860   -4.6950   23.3220 C   0  0  0  0  0  3  0  0  0  0  0  0
  -21.9790   -5.5480   22.2080 C   0  0  0  0  0  0  0  0  0  0  0  0
  -22.2100   -5.0260   20.9790 F   0  0  0  0  0  0  0  0  0  0  0  0
  -21.5280   -4.4050   25.6660 F   0  0  0  0  0  0  0  0  0  0  0  0
  -23.3990  -14.2560   20.7290 C   0  0  0  0  0  0  0  0  0  0  0  0
  -22.5950  -13.6570   21.6010 N   0  0  0  0  0  0  0  0  0  0  0  0
  -23.0470  -15.2740   20.1350 O   0  0  0  0  0  0  0  0  0  0  0  0
  -22.8910  -12.8350   22.1060 H   0  0  0  0  0  0  0  0  0  0  0  0
  -21.6690  -14.0280   21.7690 H   0  0  0  0  0  0  0  0  0  0  0  0
  -26.1610  -15.7210   19.9790 N   0  0  0  0  0  0  0  0  0  0  0  0
  -25.4340  -16.4240   20.0490 H   0  0  0  0  0  0  0  0  0  0  0  0
  -27.0430  -16.0970   19.6580 H   0  0  0  0  0  0  0  0  0  0  0  0
  -27.5220  -21.3060   18.6850 C   0  0  0  0  0  1  0  0  0  0  0  0
  -28.6430  -21.7970   19.4830 N   0  0  0  0  0  0  0  0  0  0  0  0
  -28.9010  -23.3660   19.3350 C   0  0  0  0  0  3  0  0  0  0  0  0
  -27.7250  -24.6090   19.1370 C   0  0  0  0  0  3  0  0  0  0  0  0
  -27.9220  -26.1700   18.9480 O   0  0  0  0  0  0  0  0  0  0  0  0
  -24.5740  -31.5760   22.7520 C   0  0  0  0  0  0  0  0  0  0  0  0
  -26.8540  -27.1500   19.0710 C   0  0  0  0  0  0  0  0  0  0  0  0
  -23.2130  -30.2670   21.1710 C   0  0  0  0  0  3  0  0  0  0  0  0
  -24.5060  -28.8470   19.4550 C   0  0  0  0  0  0  0  0  0  0  0  0
  -25.7200  -30.6220   20.7100 C   0  0  0  0  0  2  0  0  0  0  0  0
  -25.7450  -29.2790   19.9460 C   0  0  0  0  0  0  0  0  0  0  0  0
  -26.9150  -28.4510   19.7320 C   0  0  0  0  0  3  0  0  0  0  0  0
  -25.5800  -26.8360   18.5480 C   0  0  0  0  0  3  0  0  0  0  0  0
  -24.4350  -27.6440   18.7370 C   0  0  0  0  0  3  0  0  0  0  0  0
  -23.2750  -29.7030   19.7260 C   0  0  0  0  0  2  0  0  0  0  0  0
  -24.5280  -30.8410   21.5990 N   0  0  0  0  0  0  0  0  0  0  0  0
  -23.5570  -31.7820   23.4320 O   0  0  0  0  0  0  0  0  0  0  0  0
  -22.6840  -29.1690   22.1310 C   0  0  0  0  0  0  0  0  0  0  0  0
  -21.3610  -28.9260   22.1180 N   0  0  0  0  0  0  0  0  0  0  0  0
  -23.4650  -28.5410   22.8500 O   0  0  0  0  0  0  0  0  0  0  0  0
  -20.7820  -29.4890   21.5080 H   0  0  0  0  0  0  0  0  0  0  0  0
  -18.1340  -27.4170   22.7790 C   0  0  0  0  0  0  0  0  0  0  0  0
  -20.6710  -27.9010   22.9050 C   0  0  0  0  0  3  0  0  0  0  0  0
  -20.8630  -26.5000   22.2800 C   0  0  0  0  0  2  0  0  0  0  0  0
  -19.7340  -26.1070   21.3220 C   0  0  0  0  0  2  0  0  0  0  0  0
  -18.3860  -26.1090   22.0500 C   0  0  0  0  0  2  0  0  0  0  0  0
  -19.2040  -28.2640   23.1690 C   0  0  0  0  0  0  0  0  0  0  0  0
  -18.9120  -29.4830   23.8190 C   0  0  0  0  0  3  0  0  0  0  0  0
  -17.5810  -29.8580   24.0810 C   0  0  0  0  0  3  0  0  0  0  0  0
  -16.5250  -29.0100   23.7040 C   0  0  0  0  0  3  0  0  0  0  0  0
  -16.8020  -27.7900   23.0590 C   0  0  0  0  0  3  0  0  0  0  0  0
  -25.9020  -32.2100   23.2650 C   0  0  0  0  0  3  0  0  0  0  0  0
  -25.5770  -33.5130   23.8650 N   0  0  0  0  0  0  0  0  0  0  0  0
  -25.8730  -34.7010   23.3220 C   0  0  0  0  0  0  0  0  0  0  0  0
  -26.5170  -34.8120   22.2760 O   0  0  0  0  0  0  0  0  0  0  0  0
  -24.9980  -33.4980   24.6930 H   0  0  0  0  0  0  0  0  0  0  0  0
  -24.1320  -36.5200   23.3540 C   0  0  0  0  0  1  0  0  0  0  0  0
  -25.3820  -35.9660   24.0560 C   0  0  0  0  0  3  0  0  0  0  0  0
  -27.5240  -36.6790   25.0220 C   0  0  0  0  0  1  0  0  0  0  0  0
  -26.4070  -37.0280   24.1500 N   0  0  0  0  0  0  0  0  0  0  0  0
  -25.9990  -37.8950   24.4920 H   0  0  0  0  0  0  0  0  0  0  0  0
  -26.6600  -31.2990   24.3110 C   0  0  1  0  0  0  0  0  0  0  0  0
  -25.7720  -30.8280   25.4880 C   0  0  0  0  0  1  0  0  0  0  0  0
  -27.2360  -30.0390   23.6270 C   0  0  0  0  0  1  0  0  0  0  0  0
  -27.8640  -32.0720   24.8980 C   0  0  0  0  0  1  0  0  0  0  0  0
  -32.0740  -20.1420   22.6670 N   0  0  0  0  0  0  0  0  0  0  0  0
  -31.6660  -21.5190   24.7050 C   0  0  0  0  0  1  0  0  0  0  0  0
  -31.2260  -19.0030   24.7100 C   0  0  0  0  0  1  0  0  0  0  0  0
  -31.2520  -20.2940   23.8720 C   0  0  0  0  0  3  0  0  0  0  0  0
  -34.4340  -20.5000   21.9870 C   0  0  0  0  0  1  0  0  0  0  0  0
  -33.4440  -19.6360   22.7730 C   0  0  0  0  0  2  0  0  0  0  0  0
  1  4  2  0
  1  3  1  0
  2  5  1  0
  3  2  2  0
  4  6  1  0
  5 91  1  0
  6  5  2  0
  6  7  1  0
  8 14  1  0
  9 14  1  0
 10 11  1  0
 10  9  1  0
 12 11  1  0
 12 21  1  0
 12 13  1  0
 14 13  1  0
 15  8  2  0
 16  3  1  0
 16  8  1  0
 17 16  1  0
 18 19  2  0
 19 20  1  0
 19 38  1  0
 20 23  1  0
 21 18  1  0
 21 22  1  0
 22 20  2  0
 23 24  1  0
 24 25  2  0
 26 29  1  0
 26 25  1  0
 27 26  2  0
 28 27  1  0
 28 23  2  0
 29 30  1  0
 30 31  1  0
 31 32  2  0
 33 32  1  0
 33 37  1  0
 34 33  2  0
 35 30  2  0
 35 34  1  0
 36 35  1  0
 38 39  1  0
 39 42  1  0
 39 41  1  0
 40 38  2  0
 43 44  1  0
 43 18  1  0
 45 43  1  0
 46 47  1  0
 47  4  1  0
 48 47  1  0
 49 48  2  0
 50 52  1  0
 50 49  1  0
 51 62  2  0
 52 57  1  0
 53 61  1  0
 53 63  1  0
 54 60  1  0
 54 56  1  0
 55 61  1  0
 56 55  1  0
 57 56  2  0
 58 59  1  0
 58 52  2  0
 59 54  2  0
 60 53  1  0
 61 51  1  0
 63 65  2  0
 64 63  1  0
 66 64  1  0
 67 76  2  0
 67 72  1  0
 68 64  1  0
 68 72  1  0
 69 68  1  0
 70 71  1  0
 70 69  1  0
 71 67  1  0
 72 73  2  0
 73 74  1  0
 75 74  2  0
 76 75  1  0
 77 51  1  0
 77 78  1  0
 77 87  1  0
 78 81  1  0
 79 78  1  0
 79 83  1  0
 80 79  2  0
 83 82  1  0
 83 85  1  0
 85 86  1  0
 85 84  1  0
 87 90  1  1
 87 88  1  0
 89 87  1  0
 91 96  1  0
 91 94  1  0
 94 92  1  0
 94 93  1  0
 95 96  1  0
M  ISO  4   8 100  16 100  49 101  50 101
M  END
>  <TORSDO>  (23) 
F 22

>  <SCORE>  (23) 
-10.912

>  <name>  (23) 
22

>  <ligand_id>  (23) 
22

>  <original_smiles>  (23) 
[H]c1c([H])c([H])c2c(c1[H])C([H])([H])C([H])([H])C([H])([H])C2([H])N([H])C(=O)C1([H])N(C(=O)C([H])(N([H])C(=O)C([H])(N([H])C([H])([H])[H])C([H])([H])[H])C(C([H])([H])[H])(C([H])([H])[H])C([H])([H])[H])C([H])([H])c2c([H])c(OC([H])([H])C([H])([H])N(c3c([H])c(N([H])C(=O)N4C([H])([H])C([H])([H])C([H])([H])C([H])(n5nc(-c6c([H])c([H])c(Oc7c([H])c([H])c(F)c([H])c7F)c([H])c6[H])c(C(=O)N([H])[H])c5N([H])[H])C4([H])[H])c([H])c(N(C([H])([H])C([H])([H])[H])C([H])(C([H])([H])[H])C([H])([H])[H])c3F)C([H])([H])[H])c([H])c([H])c2C1([H])[H]

>  <smiles>  (23) 
[H]c1c([H])c([H])c2c(c1[H])C([H])([H])C([H])([H])C([H])([H])C2([H])N([H])C(=O)C1([H])N(C(=O)C([H])(N([H])C(=O)C([H])(N([H])C([H])([H])[H])C([H])([H])[H])C(C([H])([H])[H])(C([H])([H])[H])C([H])([H])[H])C([H])([H])c2c([H])c(OC([H])([H])C([H])([H])N(c3c([H])c(N([H])C(=O)N4C([H])([H])C([H])([H])C([H])([H])C([H])(n5nc(-c6c([H])c([H])c(Oc7c([H])c([H])c(F)c([H])c7F)c([H])c6[H])c(C(=O)N([H])[H])c5N([H])[H])C4([H])[H])c([H])c(N(C([H])([H])C([H])([H])[H])C([H])(C([H])([H])[H])C([H])([H])[H])c3F)C([H])([H])[H])c([H])c([H])c2C1([H])[H]

$$$$
23:0:0
     RDKit          3D

 94102  0  0  1  0  0  0  0  0999 V2000
  -30.4840  -15.1140   20.3830 C   0  0  0  0  0  0  0  0  0  0  0  0
  -30.3790  -12.7410   19.4490 C   0  0  0  0  0  2  0  0  0  0  0  0
  -29.4530  -12.6670   18.2120 C   0  0  0  0  0  2  0  0  0  0  0  0
  -27.9870  -12.4500   18.6350 C   0  0  0  0  0  2  0  0  0  0  0  0
  -27.5710  -13.3720   19.8100 C   0  0  0  0  0  3  0  0  0  0  0  0
  -28.6240  -13.4190   20.9370 C   0  0  0  0  0  2  0  0  0  0  0  0
  -29.8840  -13.8520   20.3170 N   0  0  0  0  0  0  0  0  0  0  0  0
  -31.7030  -15.1420   20.1600 O   0  0  0  0  0  0  0  0  0  0  0  0
  -29.1390  -19.0740   20.3890 C   0  0  0  0  0  3  0  0  0  0  0  0
  -30.9570  -20.5920   20.7330 C   0  0  0  0  0  3  0  0  0  0  0  0
  -29.5690  -20.5140   20.4910 C   0  0  0  0  0  0  0  0  0  0  0  0
  -30.0250  -17.8560   20.4850 C   0  0  0  0  0  3  0  0  0  0  0  0
  -31.7920  -19.4500   20.7910 C   0  0  0  0  0  0  0  0  0  0  0  0
  -31.3170  -18.1940   20.6580 N   0  0  0  0  0  0  0  0  0  0  0  0
  -29.7110  -16.3300   20.4620 N   0  0  0  0  0  0  0  0  0  0  0  0
  -32.0070  -17.4400   20.7100 H   0  0  0  0  0  0  0  0  0  0  0  0
  -28.7250  -16.1290   20.5260 H   0  0  0  0  0  0  0  0  0  0  0  0
  -25.1950  -13.9320   20.5620 C   0  0  0  0  0  0  0  0  0  0  0  0
  -24.1330  -13.1520   20.9240 C   0  0  0  0  0  0  0  0  0  0  0  0
  -24.6010  -11.8030   20.8820 C   0  0  0  0  0  0  0  0  0  0  0  0
  -26.2390  -13.0590   20.3120 N   0  0  0  0  0  0  0  0  0  0  0  0
  -25.8920  -11.7720   20.5730 N   0  0  0  0  0  0  0  0  0  0  0  0
  -23.8740  -10.5380   21.0640 C   0  0  0  0  0  0  0  0  0  0  0  0
  -24.2980   -9.5660   21.9970 C   0  0  0  0  0  3  0  0  0  0  0  0
  -23.5690   -8.3680   22.1620 C   0  0  0  0  0  3  0  0  0  0  0  0
  -22.4010   -8.1350   21.3970 C   0  0  0  0  0  0  0  0  0  0  0  0
  -21.9980   -9.0940   20.4510 C   0  0  0  0  0  3  0  0  0  0  0  0
  -22.7280  -10.2830   20.2830 C   0  0  0  0  0  3  0  0  0  0  0  0
  -21.6400   -6.9930   21.4760 O   0  0  0  0  0  0  0  0  0  0  0  0
  -21.5660   -6.2570   22.6300 C   0  0  0  0  0  0  0  0  0  0  0  0
  -21.1070   -6.8150   23.8440 C   0  0  0  0  0  3  0  0  0  0  0  0
  -20.9790   -6.0030   24.9890 C   0  0  0  0  0  3  0  0  0  0  0  0
  -21.3010   -4.6350   24.9210 C   0  0  0  0  0  0  0  0  0  0  0  0
  -21.7550   -4.0760   23.7130 C   0  0  0  0  0  3  0  0  0  0  0  0
  -21.8840   -4.8850   22.5710 C   0  0  0  0  0  0  0  0  0  0  0  0
  -22.3000   -4.3360   21.4030 F   0  0  0  0  0  0  0  0  0  0  0  0
  -21.1730   -3.8530   26.0190 F   0  0  0  0  0  0  0  0  0  0  0  0
  -22.7350  -13.6260   21.1890 C   0  0  0  0  0  0  0  0  0  0  0  0
  -22.0040  -12.9270   22.0500 N   0  0  0  0  0  0  0  0  0  0  0  0
  -22.2990  -14.6530   20.6690 O   0  0  0  0  0  0  0  0  0  0  0  0
  -22.3720  -12.1000   22.4940 H   0  0  0  0  0  0  0  0  0  0  0  0
  -21.0640  -13.2270   22.2720 H   0  0  0  0  0  0  0  0  0  0  0  0
  -25.3480  -15.3060   20.3960 N   0  0  0  0  0  0  0  0  0  0  0  0
  -24.5610  -15.9380   20.5010 H   0  0  0  0  0  0  0  0  0  0  0  0
  -26.1620  -15.7570   20.0030 H   0  0  0  0  0  0  0  0  0  0  0  0
  -33.8790  -20.3670   20.0810 C   0  0  0  0  0  1  0  0  0  0  0  0
  -33.4420  -19.7240   22.4520 C   0  0  0  0  0  1  0  0  0  0  0  0
  -33.1640  -19.5370   21.0380 N   0  0  0  0  0  0  0  0  0  0  0  0
  -28.7690  -21.8030   20.4630 N   0  0  0  0  0  4  0  0  0  0  0  0
  -27.7680  -21.6340   20.4910 H   0  0  0  0  0  0  0  0  0  0  0  0
  -30.4870  -23.7960   20.5250 C   0  0  0  0  0  1  0  0  0  0  0  0
  -29.0800  -23.3350   20.1180 C   0  0  0  0  0  0  0  0  0  0  0  0
  -28.0270  -24.6430   20.4510 C   0  0  0  0  0  2  0  0  0  0  0  0
  -28.2700  -26.1920   20.2700 O   0  0  0  0  0  0  0  0  0  0  0  0
  -24.6210  -31.9510   23.2350 C   0  0  0  0  0  0  0  0  0  0  0  0
  -27.2050  -27.1790   20.2520 C   0  0  0  0  0  0  0  0  0  0  0  0
  -23.4250  -30.5340   21.6170 C   0  0  0  0  0  3  0  0  0  0  0  0
  -24.8720  -28.9360   20.2090 C   0  0  0  0  0  0  0  0  0  0  0  0
  -25.9800  -30.7870   21.4490 C   0  0  0  0  0  2  0  0  0  0  0  0
  -26.0530  -29.3840   20.8140 C   0  0  0  0  0  0  0  0  0  0  0  0
  -27.2200  -28.5240   20.8140 C   0  0  0  0  0  3  0  0  0  0  0  0
  -25.9940  -26.8400   19.6080 C   0  0  0  0  0  3  0  0  0  0  0  0
  -24.8570  -27.6780   19.5880 C   0  0  0  0  0  3  0  0  0  0  0  0
  -23.6450  -29.8380   20.2470 C   0  0  0  0  0  2  0  0  0  0  0  0
  -24.6970  -31.1130   22.1550 N   0  0  0  0  0  0  0  0  0  0  0  0
  -23.5330  -32.2380   23.7580 O   0  0  0  0  0  0  0  0  0  0  0  0
  -22.7440  -29.5380   22.5890 C   0  0  0  0  0  0  0  0  0  0  0  0
  -21.4180  -29.3550   22.4550 N   0  0  0  0  0  0  0  0  0  0  0  0
  -23.4140  -28.9290   23.4290 O   0  0  0  0  0  0  0  0  0  0  0  0
  -20.9350  -29.8960   21.7510 H   0  0  0  0  0  0  0  0  0  0  0  0
  -18.0440  -28.1370   22.9570 C   0  0  0  0  0  0  0  0  0  0  0  0
  -20.5990  -28.4250   23.2370 C   0  0  0  0  0  3  0  0  0  0  0  0
  -20.7160  -26.9850   22.6860 C   0  0  0  0  0  2  0  0  0  0  0  0
  -19.6220  -26.6350   21.6720 C   0  0  0  0  0  2  0  0  0  0  0  0
  -18.2350  -26.7780   22.3050 C   0  0  0  0  0  2  0  0  0  0  0  0
  -19.1530  -28.9160   23.3800 C   0  0  0  0  0  0  0  0  0  0  0  0
  -18.9200  -30.1850   23.9520 C   0  0  0  0  0  3  0  0  0  0  0  0
  -17.6090  -30.6750   24.1040 C   0  0  0  0  0  3  0  0  0  0  0  0
  -16.5140  -29.8930   23.6940 C   0  0  0  0  0  3  0  0  0  0  0  0
  -16.7320  -28.6270   23.1260 C   0  0  0  0  0  3  0  0  0  0  0  0
  -25.8960  -32.5990   23.8550 C   0  0  0  0  0  3  0  0  0  0  0  0
  -26.4060  -31.8410   25.1410 C   0  0  1  0  0  0  0  0  0  0  0  0
  -25.3090  -31.6110   26.2080 C   0  0  0  0  0  1  0  0  0  0  0  0
  -26.9990  -30.4640   24.7680 C   0  0  0  0  0  1  0  0  0  0  0  0
  -27.5490  -32.6470   25.8010 C   0  0  0  0  0  1  0  0  0  0  0  0
  -25.5720  -33.9980   24.1810 N   0  0  0  0  0  0  0  0  0  0  0  0
  -25.8970  -35.0550   23.4250 C   0  0  0  0  0  0  0  0  0  0  0  0
  -26.5650  -34.9560   22.3930 O   0  0  0  0  0  0  0  0  0  0  0  0
  -24.9810  -34.1460   24.9850 H   0  0  0  0  0  0  0  0  0  0  0  0
  -24.1650  -36.8460   23.0690 C   0  0  0  0  0  1  0  0  0  0  0  0
  -25.4060  -36.4430   23.8830 C   0  0  0  0  0  3  0  0  0  0  0  0
  -27.5340  -37.3380   24.7200 C   0  0  0  0  0  1  0  0  0  0  0  0
  -26.4340  -37.5010   23.7730 N   0  0  0  0  0  0  0  0  0  0  0  0
  -26.0260  -38.4220   23.9140 H   0  0  0  0  0  0  0  0  0  0  0  0
  1 15  1  0
  2  7  1  0
  3  4  1  0
  3  2  1  0
  5  4  1  0
  5 21  1  0
  5  6  1  0
  7  1  1  0
  7  6  1  0
  8  1  2  0
  9 12  1  0
  9 11  2  0
 10 13  2  0
 11 10  1  0
 12 15  1  0
 12 14  1  0
 13 48  1  0
 14 16  1  0
 14 13  1  0
 15 17  1  0
 18 19  2  0
 19 38  1  0
 20 19  1  0
 20 23  1  0
 21 18  1  0
 21 22  1  0
 22 20  2  0
 23 24  1  0
 24 25  2  0
 26 29  1  0
 26 25  1  0
 27 26  2  0
 28 27  1  0
 28 23  2  0
 29 30  1  0
 30 31  1  0
 31 32  2  0
 33 32  1  0
 33 37  1  0
 34 33  2  0
 35 30  2  0
 35 34  1  0
 36 35  1  0
 38 39  1  0
 39 42  1  0
 39 41  1  0
 40 38  2  0
 43 44  1  0
 43 18  1  0
 45 43  1  0
 46 48  1  0
 48 47  1  0
 49 50  1  0
 49 11  1  0
 52 53  1  0
 52 49  2  0
 52 51  1  0
 54 53  1  0
 55 66  2  0
 56 54  1  0
 56 61  1  0
 57 65  1  0
 57 67  1  0
 58 64  1  0
 58 60  1  0
 59 65  1  0
 60 61  2  0
 60 59  1  0
 62 56  2  0
 63 62  1  0
 63 58  2  0
 64 57  1  0
 65 55  1  0
 67 69  2  0
 68 67  1  0
 70 68  1  0
 71 80  2  0
 71 76  1  0
 72 68  1  0
 72 76  1  0
 73 72  1  0
 74 75  1  0
 74 73  1  0
 75 71  1  0
 76 77  2  0
 77 78  1  0
 79 78  2  0
 80 79  1  0
 81 55  1  0
 81 86  1  0
 81 82  1  0
 82 85  1  1
 82 83  1  0
 84 82  1  0
 86 89  1  0
 87 91  1  0
 87 86  1  0
 88 87  2  0
 91 90  1  0
 93 91  1  0
 93 94  1  0
 93 92  1  0
M  ISO  4   1 100  15 100  53 101  54 101
M  END
>  <TORSDO>  (24) 
F 19

>  <SCORE>  (24) 
-14.962

>  <name>  (24) 
23

>  <ligand_id>  (24) 
23

>  <original_smiles>  (24) 
[H]c1c([H])c([H])c2c(c1[H])C([H])([H])C([H])([H])C([H])([H])C2([H])N([H])C(=O)C1([H])N(C(=O)C([H])(N([H])C(=O)C([H])(N([H])C([H])([H])[H])C([H])([H])[H])C(C([H])([H])[H])(C([H])([H])[H])C([H])([H])[H])C([H])([H])c2c([H])c(OC([H])([H])C([H])(N([H])c3c([H])c(N([H])C(=O)N4C([H])([H])C([H])([H])C([H])([H])C([H])(n5nc(-c6c([H])c([H])c(Oc7c([H])c([H])c(F)c([H])c7F)c([H])c6[H])c(C(=O)N([H])[H])c5N([H])[H])C4([H])[H])[n+]([H])c(N(C([H])([H])[H])C([H])([H])[H])c3[H])C([H])([H])[H])c([H])c([H])c2C1([H])[H]

>  <smiles>  (24) 
[H]c1c([H])c([H])c2c(c1[H])C([H])([H])C([H])([H])C([H])([H])C2([H])N([H])C(=O)C1([H])N(C(=O)C([H])(N([H])C(=O)C([H])(N([H])C([H])([H])[H])C([H])([H])[H])C(C([H])([H])[H])(C([H])([H])[H])C([H])([H])[H])C([H])([H])c2c([H])c(OC([H])([H])C([H])(N([H])c3c([H])c(N([H])C(=O)N4C([H])([H])C([H])([H])C([H])([H])C([H])(n5nc(-c6c([H])c([H])c(Oc7c([H])c([H])c(F)c([H])c7F)c([H])c6[H])c(C(=O)N([H])[H])c5N([H])[H])C4([H])[H])[n+]([H])c(N(C([H])([H])[H])C([H])([H])[H])c3[H])C([H])([H])[H])c([H])c([H])c2C1([H])[H]

$$$$
24:0:0
     RDKit          3D

109118  0  0  1  0  0  0  0  0999 V2000
  -31.2020  -22.8150   17.9340 C   0  0  0  0  0  3  0  0  0  0  0  0
  -31.2210  -21.6880   20.0940 C   0  0  0  0  0  3  0  0  0  0  0  0
  -30.4530  -20.4960   18.1170 C   0  0  0  0  0  3  0  0  0  0  0  0
  -31.4530  -22.8380   19.3190 C   0  0  0  0  0  0  0  0  0  0  0  0
  -30.7090  -21.6430   17.3260 C   0  0  0  0  0  0  0  0  0  0  0  0
  -30.7050  -20.5060   19.5090 C   0  0  0  0  0  0  0  0  0  0  0  0
  -30.4700  -19.1610   21.6020 C   0  0  0  0  0  0  0  0  0  0  0  0
  -30.4790  -19.3150   20.2620 N   0  0  0  0  0  0  0  0  0  0  0  0
  -30.4130  -20.0960   22.4030 O   0  0  0  0  0  0  0  0  0  0  0  0
  -30.3400  -18.4640   19.7370 H   0  0  0  0  0  0  0  0  0  0  0  0
  -30.0640  -17.5090   23.4670 C   0  0  0  0  0  3  0  0  0  0  0  0
  -30.1000  -16.2130   24.0120 C   0  0  0  0  0  3  0  0  0  0  0  0
  -30.8560  -16.6540   21.3240 C   0  0  0  0  0  3  0  0  0  0  0  0
  -30.4440  -17.7470   22.1230 C   0  0  0  0  0  0  0  0  0  0  0  0
  -30.5100  -15.1340   23.2140 C   0  0  0  0  0  0  0  0  0  0  0  0
  -30.8710  -15.3480   21.8660 C   0  0  0  0  0  0  0  0  0  0  0  0
  -31.0100  -14.0070   19.8080 C   0  0  0  0  0  0  0  0  0  0  0  0
  -30.2790  -12.2030   18.2850 C   0  0  0  0  0  2  0  0  0  0  0  0
  -29.1060  -12.6100   17.3800 C   0  0  0  0  0  2  0  0  0  0  0  0
  -27.7580  -12.4000   18.0930 C   0  0  0  0  0  2  0  0  0  0  0  0
  -27.7340  -13.0540   19.4960 C   0  0  0  0  0  3  0  0  0  0  0  0
  -28.9780  -12.6410   20.3100 C   0  0  0  0  0  2  0  0  0  0  0  0
  -30.1990  -12.9580   19.5390 N   0  0  0  0  0  0  0  0  0  0  0  0
  -31.7330  -14.5650   18.9740 O   0  0  0  0  0  0  0  0  0  0  0  0
  -31.1740  -14.1860   21.1210 N   0  0  0  0  0  0  0  0  0  0  0  0
  -30.8990  -13.3690   21.6500 H   0  0  0  0  0  0  0  0  0  0  0  0
  -25.5560  -13.6050   20.7650 C   0  0  0  0  0  0  0  0  0  0  0  0
  -24.5550  -12.8060   21.2530 C   0  0  0  0  0  0  0  0  0  0  0  0
  -24.9410  -11.4660   20.9520 C   0  0  0  0  0  0  0  0  0  0  0  0
  -26.4950  -12.7460   20.2100 N   0  0  0  0  0  0  0  0  0  0  0  0
  -26.1340  -11.4470   20.3710 N   0  0  0  0  0  0  0  0  0  0  0  0
  -24.2140  -10.1990   21.1260 C   0  0  0  0  0  0  0  0  0  0  0  0
  -24.8140   -9.0870   21.7560 C   0  0  0  0  0  3  0  0  0  0  0  0
  -24.0930   -7.8860   21.9260 C   0  0  0  0  0  3  0  0  0  0  0  0
  -22.7570   -7.7900   21.4690 C   0  0  0  0  0  0  0  0  0  0  0  0
  -22.1700   -8.8940   20.8250 C   0  0  0  0  0  3  0  0  0  0  0  0
  -22.8920  -10.0870   20.6530 C   0  0  0  0  0  3  0  0  0  0  0  0
  -21.9850   -6.6570   21.5720 O   0  0  0  0  0  0  0  0  0  0  0  0
  -22.2160   -5.7130   22.5400 C   0  0  0  0  0  0  0  0  0  0  0  0
  -22.2360   -6.0430   23.9140 C   0  0  0  0  0  3  0  0  0  0  0  0
  -22.4110   -5.0280   24.8760 C   0  0  0  0  0  3  0  0  0  0  0  0
  -22.5560   -3.6880   24.4700 C   0  0  0  0  0  0  0  0  0  0  0  0
  -22.5290   -3.3580   23.1030 C   0  0  0  0  0  3  0  0  0  0  0  0
  -22.3560   -4.3680   22.1420 C   0  0  0  0  0  0  0  0  0  0  0  0
  -22.3100   -4.0440   20.8270 F   0  0  0  0  0  0  0  0  0  0  0  0
  -22.7100   -2.7130   25.3950 F   0  0  0  0  0  0  0  0  0  0  0  0
  -23.2700  -13.2640   21.8780 C   0  0  0  0  0  0  0  0  0  0  0  0
  -22.7110  -12.4740   22.7900 N   0  0  0  0  0  0  0  0  0  0  0  0
  -22.7740  -14.3530   21.5940 O   0  0  0  0  0  0  0  0  0  0  0  0
  -23.1230  -11.5900   23.0480 H   0  0  0  0  0  0  0  0  0  0  0  0
  -21.8560  -12.7630   23.2410 H   0  0  0  0  0  0  0  0  0  0  0  0
  -25.7340  -14.9840   20.7240 N   0  0  0  0  0  0  0  0  0  0  0  0
  -25.0170  -15.6290   21.0360 H   0  0  0  0  0  0  0  0  0  0  0  0
  -26.4870  -15.4420   20.2260 H   0  0  0  0  0  0  0  0  0  0  0  0
  -30.5420  -13.8450   23.7550 N   0  0  0  0  0  0  0  0  0  0  0  0
  -30.3630  -13.7870   24.7520 H   0  0  0  0  0  0  0  0  0  0  0  0
  -31.3560  -13.2890   23.5180 H   0  0  0  0  0  0  0  0  0  0  0  0
  -31.9570  -24.1020   19.9820 C   0  0  0  0  0  2  0  0  0  0  0  0
  -30.9240  -26.1560   20.8750 C   0  0  0  0  0  0  0  0  0  0  0  0
  -30.9270  -25.1320   20.0160 N   0  0  0  0  0  0  0  0  0  0  0  0
  -31.8500  -26.3380   21.6710 O   0  0  0  0  0  0  0  0  0  0  0  0
  -30.1400  -25.0440   19.3860 H   0  0  0  0  0  0  0  0  0  0  0  0
  -29.7370  -27.1250   20.8610 C   0  0  0  0  0  2  0  0  0  0  0  0
  -28.5420  -26.5190   20.3410 O   0  0  0  0  0  0  0  0  0  0  0  0
  -24.7290  -31.5610   23.6710 C   0  0  0  0  0  0  0  0  0  0  0  0
  -27.3770  -27.2630   20.4270 C   0  0  0  0  0  0  0  0  0  0  0  0
  -23.4970  -30.2030   22.0050 C   0  0  0  0  0  3  0  0  0  0  0  0
  -24.9360  -28.7070   20.5210 C   0  0  0  0  0  0  0  0  0  0  0  0
  -26.0080  -30.5950   21.7690 C   0  0  0  0  0  2  0  0  0  0  0  0
  -26.0910  -29.2430   21.0960 C   0  0  0  0  0  0  0  0  0  0  0  0
  -27.3060  -28.5370   21.0450 C   0  0  0  0  0  3  0  0  0  0  0  0
  -26.1970  -26.7280   19.8640 C   0  0  0  0  0  3  0  0  0  0  0  0
  -24.9810  -27.4430   19.9030 C   0  0  0  0  0  3  0  0  0  0  0  0
  -23.6840  -29.5510   20.6070 C   0  0  0  0  0  2  0  0  0  0  0  0
  -24.7650  -30.7980   22.5420 N   0  0  0  0  0  0  0  0  0  0  0  0
  -23.6580  -31.8150   24.2390 O   0  0  0  0  0  0  0  0  0  0  0  0
  -22.8620  -29.1580   22.9480 C   0  0  0  0  0  0  0  0  0  0  0  0
  -21.5360  -28.9820   22.8350 N   0  0  0  0  0  0  0  0  0  0  0  0
  -23.5590  -28.5060   23.7300 O   0  0  0  0  0  0  0  0  0  0  0  0
  -21.0380  -29.5600   22.1710 H   0  0  0  0  0  0  0  0  0  0  0  0
  -18.1710  -27.7690   23.3230 C   0  0  0  0  0  0  0  0  0  0  0  0
  -20.7290  -28.0230   23.5870 C   0  0  0  0  0  3  0  0  0  0  0  0
  -20.8310  -26.6080   22.9720 C   0  0  0  0  0  2  0  0  0  0  0  0
  -19.7240  -26.3080   21.9590 C   0  0  0  0  0  2  0  0  0  0  0  0
  -18.3450  -26.4360   22.6130 C   0  0  0  0  0  2  0  0  0  0  0  0
  -19.2900  -28.5220   23.7650 C   0  0  0  0  0  0  0  0  0  0  0  0
  -19.0720  -29.7710   24.3860 C   0  0  0  0  0  3  0  0  0  0  0  0
  -17.7690  -30.2670   24.5700 C   0  0  0  0  0  3  0  0  0  0  0  0
  -16.6630  -29.5100   24.1450 C   0  0  0  0  0  3  0  0  0  0  0  0
  -16.8660  -28.2620   23.5280 C   0  0  0  0  0  3  0  0  0  0  0  0
  -26.0270  -32.1690   24.2920 C   0  0  0  0  0  3  0  0  0  0  0  0
  -26.5910  -31.3310   25.5040 C   0  0  1  0  0  0  0  0  0  0  0  0
  -25.5350  -31.0220   26.5910 C   0  0  0  0  0  1  0  0  0  0  0  0
  -27.1690  -29.9850   25.0100 C   0  0  0  0  0  1  0  0  0  0  0  0
  -27.7600  -32.0960   26.1700 C   0  0  0  0  0  1  0  0  0  0  0  0
  -25.7190  -33.5430   24.7070 N   0  0  0  0  0  0  0  0  0  0  0  0
  -26.0230  -34.6370   23.9940 C   0  0  0  0  0  0  0  0  0  0  0  0
  -26.6640  -34.5950   22.9410 O   0  0  0  0  0  0  0  0  0  0  0  0
  -25.1490  -33.6510   25.5330 H   0  0  0  0  0  0  0  0  0  0  0  0
  -24.2630  -36.4180   23.7830 C   0  0  0  0  0  1  0  0  0  0  0  0
  -25.5350  -35.9940   24.5350 C   0  0  0  0  0  3  0  0  0  0  0  0
  -27.6930  -36.8550   25.3280 C   0  0  0  0  0  1  0  0  0  0  0  0
  -26.5520  -37.0650   24.4400 N   0  0  0  0  0  0  0  0  0  0  0  0
  -26.1440  -37.9710   24.6590 H   0  0  0  0  0  0  0  0  0  0  0  0
  -30.4670  -21.6330   15.8230 C   0  0  0  0  0  2  0  0  0  0  0  0
  -29.1710  -22.2390   15.4940 N   0  0  0  0  0  4  0  0  0  0  0  0
  -28.4270  -21.7250   15.9290 H   0  0  0  0  0  0  0  0  0  0  0  0
  -29.0330  -22.2270   14.5000 H   0  0  0  0  0  0  0  0  0  0  0  0
  -29.1410  -23.1910   15.8100 H   0  0  0  0  0  0  0  0  0  0  0  0
  1  4  1  0
  3  6  2  0
  4 58  1  0
  4  2  2  0
  5  1  2  0
  5  3  1  0
  6  2  1  0
  6  8  1  0
  7 14  1  0
  7  9  2  0
  8  7  1  0
 10  8  1  0
 11 12  1  0
 13 16  2  0
 13 14  1  0
 14 11  2  0
 15 55  1  0
 15 12  2  0
 16 15  1  0
 17 25  1  0
 18 23  1  0
 19 20  1  0
 19 18  1  0
 21 20  1  0
 21 30  1  0
 21 22  1  0
 23 17  1  0
 23 22  1  0
 24 17  2  0
 25 26  1  0
 25 16  1  0
 27 28  2  0
 28 47  1  0
 29 32  1  0
 29 28  1  0
 30 31  1  0
 30 27  1  0
 31 29  2  0
 32 33  1  0
 33 34  2  0
 35 38  1  0
 35 34  1  0
 36 35  2  0
 37 36  1  0
 37 32  2  0
 38 39  1  0
 39 40  1  0
 40 41  2  0
 42 41  1  0
 42 46  1  0
 43 42  2  0
 44 39  2  0
 44 43  1  0
 45 44  1  0
 47 48  1  0
 48 50  1  0
 48 51  1  0
 49 47  2  0
 52 27  1  0
 52 53  1  0
 54 52  1  0
 55 56  1  0
 57 55  1  0
 58 60  1  0
 59 61  2  0
 60 59  1  0
 62 60  1  0
 63 59  1  0
 64 66  1  0
 64 63  1  0
 65 76  2  0
 66 71  1  0
 67 75  1  0
 67 77  1  0
 68 74  1  0
 68 70  1  0
 69 75  1  0
 70 69  1  0
 71 70  2  0
 72 73  1  0
 72 66  2  0
 73 68  2  0
 74 67  1  0
 75 65  1  0
 77 79  2  0
 78 77  1  0
 80 78  1  0
 81 90  2  0
 81 86  1  0
 82 78  1  0
 82 86  1  0
 83 82  1  0
 84 85  1  0
 84 83  1  0
 85 81  1  0
 86 87  2  0
 87 88  1  0
 89 88  2  0
 90 89  1  0
 91 65  1  0
 91 96  1  0
 91 92  1  0
 92 95  1  1
 92 93  1  0
 94 92  1  0
 96 99  1  0
 97101  1  0
 97 96  1  0
 98 97  2  0
101100  1  0
103101  1  0
103104  1  0
103102  1  0
105  5  1  0
106109  1  0
106105  1  0
106107  1  0
108106  1  0
M  ISO  4  17 100  25 100  63 101  64 101
M  END
>  <TORSDO>  (25) 
F 24

>  <SCORE>  (25) 
6.609

>  <name>  (25) 
24

>  <ligand_id>  (25) 
24

>  <original_smiles>  (25) 
[H]c1c([H])c([H])c2c(c1[H])C([H])([H])C([H])([H])C([H])([H])C2([H])N([H])C(=O)C1([H])N(C(=O)C([H])(N([H])C(=O)C([H])(N([H])C([H])([H])[H])C([H])([H])[H])C(C([H])([H])[H])(C([H])([H])[H])C([H])([H])[H])C([H])([H])c2c([H])c(OC([H])([H])C(=O)N([H])C([H])([H])c3c([H])c(N([H])C(=O)c4c([H])c([H])c(N([H])[H])c(N([H])C(=O)N5C([H])([H])C([H])([H])C([H])([H])C([H])(n6nc(-c7c([H])c([H])c(Oc8c([H])c([H])c(F)c([H])c8F)c([H])c7[H])c(C(=O)N([H])[H])c6N([H])[H])C5([H])[H])c4[H])c([H])c(C([H])([H])[N+]([H])([H])[H])c3[H])c([H])c([H])c2C1([H])[H]

>  <smiles>  (25) 
[H]c1c([H])c([H])c2c(c1[H])C([H])([H])C([H])([H])C([H])([H])C2([H])N([H])C(=O)C1([H])N(C(=O)C([H])(N([H])C(=O)C([H])(N([H])C([H])([H])[H])C([H])([H])[H])C(C([H])([H])[H])(C([H])([H])[H])C([H])([H])[H])C([H])([H])c2c([H])c(OC([H])([H])C(=O)N([H])C([H])([H])c3c([H])c(N([H])C(=O)c4c([H])c([H])c(N([H])[H])c(N([H])C(=O)N5C([H])([H])C([H])([H])C([H])([H])C([H])(n6nc(-c7c([H])c([H])c(Oc8c([H])c([H])c(F)c([H])c8F)c([H])c7[H])c(C(=O)N([H])[H])c6N([H])[H])C5([H])[H])c4[H])c([H])c(C([H])([H])[N+]([H])([H])[H])c3[H])c([H])c([H])c2C1([H])[H]

$$$$
25:0:0
     RDKit          3D

 92100  0  0  1  0  0  0  0  0999 V2000
  -30.9680  -17.4700   21.9400 C   0  0  0  0  0  3  0  0  0  0  0  0
  -31.1810  -18.7380   22.5040 C   0  0  0  0  0  3  0  0  0  0  0  0
  -29.6300  -18.5330   20.2160 C   0  0  0  0  0  3  0  0  0  0  0  0
  -30.1620  -17.3090   20.8030 C   0  0  0  0  0  0  0  0  0  0  0  0
  -29.8320  -19.8660   20.7680 C   0  0  0  0  0  0  0  0  0  0  0  0
  -30.6240  -19.9240   21.9520 C   0  0  0  0  0  0  0  0  0  0  0  0
  -30.5990  -14.7880   20.3470 C   0  0  0  0  0  0  0  0  0  0  0  0
  -30.3750  -12.5410   19.3070 C   0  0  0  0  0  2  0  0  0  0  0  0
  -29.4240  -12.6210   18.0940 C   0  0  0  0  0  2  0  0  0  0  0  0
  -27.9540  -12.4520   18.5340 C   0  0  0  0  0  2  0  0  0  0  0  0
  -27.5880  -13.3220   19.7670 C   0  0  0  0  0  3  0  0  0  0  0  0
  -28.6600  -13.2380   20.8750 C   0  0  0  0  0  2  0  0  0  0  0  0
  -29.9500  -13.5820   20.2620 N   0  0  0  0  0  0  0  0  0  0  0  0
  -31.8010  -14.8720   20.0810 O   0  0  0  0  0  0  0  0  0  0  0  0
  -29.8150  -15.9300   20.4090 N   0  0  0  0  0  0  0  0  0  0  0  0
  -28.8260  -15.7510   20.3180 H   0  0  0  0  0  0  0  0  0  0  0  0
  -25.2060  -13.9070   20.5250 C   0  0  0  0  0  0  0  0  0  0  0  0
  -24.1450  -13.1300   20.9000 C   0  0  0  0  0  0  0  0  0  0  0  0
  -24.6120  -11.7780   20.8640 C   0  0  0  0  0  0  0  0  0  0  0  0
  -26.2510  -13.0300   20.2750 N   0  0  0  0  0  0  0  0  0  0  0  0
  -25.9020  -11.7440   20.5460 N   0  0  0  0  0  0  0  0  0  0  0  0
  -23.8880  -10.5160   21.0540 C   0  0  0  0  0  0  0  0  0  0  0  0
  -24.3320   -9.5440   21.9790 C   0  0  0  0  0  3  0  0  0  0  0  0
  -23.6100   -8.3440   22.1560 C   0  0  0  0  0  3  0  0  0  0  0  0
  -22.4280   -8.1110   21.4120 C   0  0  0  0  0  0  0  0  0  0  0  0
  -22.0050   -9.0710   20.4760 C   0  0  0  0  0  3  0  0  0  0  0  0
  -22.7280  -10.2620   20.2980 C   0  0  0  0  0  3  0  0  0  0  0  0
  -21.6730   -6.9670   21.5040 O   0  0  0  0  0  0  0  0  0  0  0  0
  -21.6450   -6.2130   22.6510 C   0  0  0  0  0  0  0  0  0  0  0  0
  -21.2510   -6.7590   23.8930 C   0  0  0  0  0  3  0  0  0  0  0  0
  -21.1670   -5.9320   25.0310 C   0  0  0  0  0  3  0  0  0  0  0  0
  -21.4700   -4.5600   24.9280 C   0  0  0  0  0  0  0  0  0  0  0  0
  -21.8520   -4.0150   23.6910 C   0  0  0  0  0  3  0  0  0  0  0  0
  -21.9390   -4.8380   22.5560 C   0  0  0  0  0  0  0  0  0  0  0  0
  -22.2910   -4.3000   21.3630 F   0  0  0  0  0  0  0  0  0  0  0  0
  -21.3800   -3.7660   26.0200 F   0  0  0  0  0  0  0  0  0  0  0  0
  -22.7480  -13.6050   21.1760 C   0  0  0  0  0  0  0  0  0  0  0  0
  -22.0200  -12.9070   22.0370 N   0  0  0  0  0  0  0  0  0  0  0  0
  -22.3070  -14.6280   20.6540 O   0  0  0  0  0  0  0  0  0  0  0  0
  -22.3880  -12.0860   22.4930 H   0  0  0  0  0  0  0  0  0  0  0  0
  -21.0760  -13.2020   22.2450 H   0  0  0  0  0  0  0  0  0  0  0  0
  -25.3660  -15.2800   20.3550 N   0  0  0  0  0  0  0  0  0  0  0  0
  -24.5940  -15.9270   20.4780 H   0  0  0  0  0  0  0  0  0  0  0  0
  -26.2150  -15.7320   20.0480 H   0  0  0  0  0  0  0  0  0  0  0  0
  -31.1260  -21.1740   23.9290 C   0  0  0  0  0  1  0  0  0  0  0  0
  -30.8750  -21.1490   22.5290 O   0  0  0  0  0  0  0  0  0  0  0  0
  -29.2970  -21.0710   20.1460 N   0  0  0  0  0  0  0  0  0  0  0  0
  -28.7870  -20.8790   19.2850 H   0  0  0  0  0  0  0  0  0  0  0  0
  -28.7740  -22.3240   20.8260 C   0  0  0  0  0  2  0  0  0  0  0  0
  -29.0000  -23.7740   20.1440 C   0  0  0  0  0  3  0  0  0  0  0  0
  -28.1460  -25.0330   20.7030 C   0  0  0  0  0  3  0  0  0  0  0  0
  -28.3830  -26.4610   20.2920 O   0  0  0  0  0  0  0  0  0  0  0  0
  -24.6270  -31.9450   23.2510 C   0  0  0  0  0  0  0  0  0  0  0  0
  -27.2800  -27.3450   20.2580 C   0  0  0  0  0  0  0  0  0  0  0  0
  -23.4430  -30.5250   21.6130 C   0  0  0  0  0  3  0  0  0  0  0  0
  -24.9170  -28.9720   20.2080 C   0  0  0  0  0  0  0  0  0  0  0  0
  -25.9870  -30.8530   21.4480 C   0  0  0  0  0  2  0  0  0  0  0  0
  -26.0820  -29.4660   20.8120 C   0  0  0  0  0  0  0  0  0  0  0  0
  -27.2700  -28.6690   20.8180 C   0  0  0  0  0  3  0  0  0  0  0  0
  -26.0970  -26.9260   19.6120 C   0  0  0  0  0  3  0  0  0  0  0  0
  -24.9320  -27.7130   19.5890 C   0  0  0  0  0  3  0  0  0  0  0  0
  -23.6780  -29.8420   20.2380 C   0  0  0  0  0  2  0  0  0  0  0  0
  -24.7050  -31.1240   22.1620 N   0  0  0  0  0  0  0  0  0  0  0  0
  -23.5380  -32.2150   23.7790 O   0  0  0  0  0  0  0  0  0  0  0  0
  -22.7680  -29.5160   22.5760 C   0  0  0  0  0  0  0  0  0  0  0  0
  -21.4390  -29.3480   22.4550 N   0  0  0  0  0  0  0  0  0  0  0  0
  -23.4450  -28.8860   23.3930 O   0  0  0  0  0  0  0  0  0  0  0  0
  -20.9490  -29.9100   21.7750 H   0  0  0  0  0  0  0  0  0  0  0  0
  -18.0590  -28.1620   22.9700 C   0  0  0  0  0  0  0  0  0  0  0  0
  -20.6190  -28.4150   23.2330 C   0  0  0  0  0  3  0  0  0  0  0  0
  -20.7170  -26.9800   22.6640 C   0  0  0  0  0  2  0  0  0  0  0  0
  -19.6110  -26.6550   21.6540 C   0  0  0  0  0  2  0  0  0  0  0  0
  -18.2300  -26.8100   22.2990 C   0  0  0  0  0  2  0  0  0  0  0  0
  -19.1820  -28.9220   23.3960 C   0  0  0  0  0  0  0  0  0  0  0  0
  -18.9660  -30.1860   23.9850 C   0  0  0  0  0  3  0  0  0  0  0  0
  -17.6630  -30.6920   24.1480 C   0  0  0  0  0  3  0  0  0  0  0  0
  -16.5550  -29.9300   23.7360 C   0  0  0  0  0  3  0  0  0  0  0  0
  -16.7550  -28.6650   23.1530 C   0  0  0  0  0  3  0  0  0  0  0  0
  -25.9020  -32.5890   23.8800 C   0  0  0  0  0  3  0  0  0  0  0  0
  -25.5840  -33.9870   24.1990 N   0  0  0  0  0  0  0  0  0  0  0  0
  -25.9160  -35.0350   23.4340 C   0  0  0  0  0  0  0  0  0  0  0  0
  -26.5870  -34.9280   22.4040 O   0  0  0  0  0  0  0  0  0  0  0  0
  -24.9980  -34.1480   25.0040 H   0  0  0  0  0  0  0  0  0  0  0  0
  -24.1850  -36.8210   23.0660 C   0  0  0  0  0  1  0  0  0  0  0  0
  -25.4240  -36.4250   23.8830 C   0  0  0  0  0  3  0  0  0  0  0  0
  -27.5530  -37.3140   24.7180 C   0  0  0  0  0  1  0  0  0  0  0  0
  -26.4550  -37.4790   23.7700 N   0  0  0  0  0  0  0  0  0  0  0  0
  -26.0460  -38.3980   23.9180 H   0  0  0  0  0  0  0  0  0  0  0  0
  -26.4120  -31.8340   25.1670 C   0  0  1  0  0  0  0  0  0  0  0  0
  -25.3060  -31.6140   26.2230 C   0  0  0  0  0  1  0  0  0  0  0  0
  -27.0020  -30.4550   24.7960 C   0  0  0  0  0  1  0  0  0  0  0  0
  -27.5590  -32.6340   25.8300 C   0  0  0  0  0  1  0  0  0  0  0  0
  1  2  1  0
  3  5  2  0
  3  4  1  0
  4  1  2  0
  5  6  1  0
  6  2  2  0
  6 46  1  0
  7 15  1  0
  8 13  1  0
  9 10  1  0
  9  8  1  0
 11 10  1  0
 11 20  1  0
 11 12  1  0
 13  7  1  0
 13 12  1  0
 14  7  2  0
 15  4  1  0
 16 15  1  0
 17 18  2  0
 18 37  1  0
 19 18  1  0
 19 22  1  0
 20 17  1  0
 20 21  1  0
 21 19  2  0
 22 23  1  0
 23 24  2  0
 25 28  1  0
 25 24  1  0
 26 25  2  0
 27 26  1  0
 27 22  2  0
 28 29  1  0
 29 30  1  0
 30 31  2  0
 32 31  1  0
 32 36  1  0
 33 32  2  0
 34 29  2  0
 34 33  1  0
 35 34  1  0
 37 38  1  0
 38 41  1  0
 38 40  1  0
 39 37  2  0
 42 43  1  0
 42 17  1  0
 44 42  1  0
 46 45  1  0
 47  5  1  0
 47 49  1  0
 48 47  1  0
 50 51  2  0
 50 49  1  0
 52 51  1  0
 53 64  2  0
 54 52  1  0
 54 59  1  0
 55 63  1  0
 55 65  1  0
 56 62  1  0
 56 58  1  0
 57 63  1  0
 58 59  2  0
 58 57  1  0
 60 54  2  0
 61 60  1  0
 61 56  2  0
 62 55  1  0
 63 53  1  0
 65 67  2  0
 66 65  1  0
 68 66  1  0
 69 78  2  0
 69 74  1  0
 70 66  1  0
 70 74  1  0
 71 70  1  0
 72 73  1  0
 72 71  1  0
 73 69  1  0
 74 75  2  0
 75 76  1  0
 77 76  2  0
 78 77  1  0
 79 53  1  0
 79 80  1  0
 79 89  1  0
 80 83  1  0
 81 85  1  0
 81 80  1  0
 82 81  2  0
 85 84  1  0
 87 85  1  0
 87 88  1  0
 87 86  1  0
 89 92  1  1
 89 90  1  0
 91 89  1  0
M  ISO  4   7 100  15 100  51 101  52 101
M  END
>  <TORSDO>  (26) 
F 21

>  <SCORE>  (26) 
-13.742

>  <name>  (26) 
25

>  <ligand_id>  (26) 
25

>  <original_smiles>  (26) 
[H]c1c([H])c([H])c2c(c1[H])C([H])([H])C([H])([H])C([H])([H])C2([H])N([H])C(=O)C1([H])N(C(=O)C([H])(N([H])C(=O)C([H])(N([H])C([H])([H])[H])C([H])([H])[H])C(C([H])([H])[H])(C([H])([H])[H])C([H])([H])[H])C([H])([H])c2c([H])c(OC([H])([H])C([H])([H])C([H])([H])N([H])c3c([H])c(N([H])C(=O)N4C([H])([H])C([H])([H])C([H])([H])C([H])(n5nc(-c6c([H])c([H])c(Oc7c([H])c([H])c(F)c([H])c7F)c([H])c6[H])c(C(=O)N([H])[H])c5N([H])[H])C4([H])[H])c([H])c([H])c3OC([H])([H])[H])c([H])c([H])c2C1([H])[H]

>  <smiles>  (26) 
[H]c1c([H])c([H])c2c(c1[H])C([H])([H])C([H])([H])C([H])([H])C2([H])N([H])C(=O)C1([H])N(C(=O)C([H])(N([H])C(=O)C([H])(N([H])C([H])([H])[H])C([H])([H])[H])C(C([H])([H])[H])(C([H])([H])[H])C([H])([H])[H])C([H])([H])c2c([H])c(OC([H])([H])C([H])([H])C([H])([H])N([H])c3c([H])c(N([H])C(=O)N4C([H])([H])C([H])([H])C([H])([H])C([H])(n5nc(-c6c([H])c([H])c(Oc7c([H])c([H])c(F)c([H])c7F)c([H])c6[H])c(C(=O)N([H])[H])c5N([H])[H])C4([H])[H])c([H])c([H])c3OC([H])([H])[H])c([H])c([H])c2C1([H])[H]

$$$$
26:0:0
     RDKit          3D

 91 99  0  0  1  0  0  0  0  0999 V2000
  -29.4250  -19.4230   20.0450 C   0  0  0  0  0  3  0  0  0  0  0  0
  -29.1440  -20.8010   20.1630 C   0  0  0  0  0  3  0  0  0  0  0  0
  -30.3110  -19.2600   22.3080 C   0  0  0  0  0  3  0  0  0  0  0  0
  -30.8340  -18.6890   23.4750 C   0  0  0  0  0  3  0  0  0  0  0  0
  -31.0140  -16.5730   22.3240 C   0  0  0  0  0  3  0  0  0  0  0  0
  -30.0800  -18.5310   21.1110 C   0  0  0  0  0  0  0  0  0  0  0  0
  -30.4730  -17.0990   21.1170 C   0  0  0  0  0  0  0  0  0  0  0  0
  -31.1840  -17.3380   23.4840 C   0  0  0  0  0  0  0  0  0  0  0  0
  -31.6690  -16.7710   24.6150 F   0  0  0  0  0  0  0  0  0  0  0  0
  -30.9950  -14.8820   19.9160 C   0  0  0  0  0  0  0  0  0  0  0  0
  -30.6890  -12.6360   18.8400 C   0  0  0  0  0  2  0  0  0  0  0  0
  -29.6800  -12.7000   17.6710 C   0  0  0  0  0  2  0  0  0  0  0  0
  -28.2340  -12.5650   18.1850 C   0  0  0  0  0  2  0  0  0  0  0  0
  -27.9410  -13.4800   19.4010 C   0  0  0  0  0  3  0  0  0  0  0  0
  -29.0490  -13.3740   20.4670 C   0  0  0  0  0  2  0  0  0  0  0  0
  -30.3110  -13.6980   19.8000 N   0  0  0  0  0  0  0  0  0  0  0  0
  -32.1880  -14.9390   19.6090 O   0  0  0  0  0  0  0  0  0  0  0  0
  -30.2610  -16.0510   20.1070 N   0  0  0  0  0  0  0  0  0  0  0  0
  -29.2950  -15.9630   19.8360 H   0  0  0  0  0  0  0  0  0  0  0  0
  -25.6030  -14.1320   20.2280 C   0  0  0  0  0  0  0  0  0  0  0  0
  -24.5380  -13.3890   20.6490 C   0  0  0  0  0  0  0  0  0  0  0  0
  -24.9670  -12.0260   20.6050 C   0  0  0  0  0  0  0  0  0  0  0  0
  -26.6160  -13.2290   19.9550 N   0  0  0  0  0  0  0  0  0  0  0  0
  -26.2420  -11.9540   20.2440 N   0  0  0  0  0  0  0  0  0  0  0  0
  -24.2210  -10.7810   20.8250 C   0  0  0  0  0  0  0  0  0  0  0  0
  -24.6440   -9.8210   21.7710 C   0  0  0  0  0  3  0  0  0  0  0  0
  -23.8950   -8.6420   21.9760 C   0  0  0  0  0  3  0  0  0  0  0  0
  -22.7110   -8.4140   21.2340 C   0  0  0  0  0  0  0  0  0  0  0  0
  -22.3120   -9.3600   20.2730 C   0  0  0  0  0  3  0  0  0  0  0  0
  -23.0620  -10.5290   20.0660 C   0  0  0  0  0  3  0  0  0  0  0  0
  -21.9350   -7.2860   21.3520 O   0  0  0  0  0  0  0  0  0  0  0  0
  -21.8370   -6.6010   22.5360 C   0  0  0  0  0  0  0  0  0  0  0  0
  -21.3990   -7.2230   23.7260 C   0  0  0  0  0  3  0  0  0  0  0  0
  -21.2470   -6.4640   24.9030 C   0  0  0  0  0  3  0  0  0  0  0  0
  -21.5230   -5.0830   24.8910 C   0  0  0  0  0  0  0  0  0  0  0  0
  -21.9530   -4.4610   23.7050 C   0  0  0  0  0  3  0  0  0  0  0  0
  -22.1050   -5.2170   22.5300 C   0  0  0  0  0  0  0  0  0  0  0  0
  -22.4990   -4.6090   21.3860 F   0  0  0  0  0  0  0  0  0  0  0  0
  -21.3720   -4.3520   26.0190 F   0  0  0  0  0  0  0  0  0  0  0  0
  -23.1610  -13.8970   20.9710 C   0  0  0  0  0  0  0  0  0  0  0  0
  -22.4530  -13.2300   21.8730 N   0  0  0  0  0  0  0  0  0  0  0  0
  -22.7250  -14.9240   20.4510 O   0  0  0  0  0  0  0  0  0  0  0  0
  -22.8240  -12.4060   22.3260 H   0  0  0  0  0  0  0  0  0  0  0  0
  -21.5270  -13.5510   22.1200 H   0  0  0  0  0  0  0  0  0  0  0  0
  -25.7790  -15.4970   20.0260 N   0  0  0  0  0  0  0  0  0  0  0  0
  -25.0020  -16.1410   20.1380 H   0  0  0  0  0  0  0  0  0  0  0  0
  -26.5990  -15.9340   19.6300 H   0  0  0  0  0  0  0  0  0  0  0  0
  -28.5310  -22.1900   19.6230 C   0  0  0  0  0  2  0  0  0  0  0  0
  -28.7660  -23.6260   20.3590 C   0  0  0  0  0  3  0  0  0  0  0  0
  -27.9640  -24.9260   19.7820 C   0  0  0  0  0  3  0  0  0  0  0  0
  -28.1680  -26.3780   20.1830 O   0  0  0  0  0  0  0  0  0  0  0  0
  -24.6210  -31.9120   23.3260 C   0  0  0  0  0  0  0  0  0  0  0  0
  -27.0970  -27.3180   20.1290 C   0  0  0  0  0  0  0  0  0  0  0  0
  -23.3710  -30.5750   21.6700 C   0  0  0  0  0  3  0  0  0  0  0  0
  -24.7750  -29.0330   20.1830 C   0  0  0  0  0  0  0  0  0  0  0  0
  -25.9190  -30.8350   21.4660 C   0  0  0  0  0  2  0  0  0  0  0  0
  -25.9650  -29.4660   20.7840 C   0  0  0  0  0  0  0  0  0  0  0  0
  -27.1240  -28.6180   20.7510 C   0  0  0  0  0  3  0  0  0  0  0  0
  -25.8860  -26.9800   19.4790 C   0  0  0  0  0  3  0  0  0  0  0  0
  -24.7420  -27.7980   19.5210 C   0  0  0  0  0  3  0  0  0  0  0  0
  -23.5630  -29.9410   20.2680 C   0  0  0  0  0  2  0  0  0  0  0  0
  -24.6580  -31.1230   22.2100 N   0  0  0  0  0  0  0  0  0  0  0  0
  -23.5480  -32.1940   23.8800 O   0  0  0  0  0  0  0  0  0  0  0  0
  -22.7000  -29.5420   22.6110 C   0  0  0  0  0  0  0  0  0  0  0  0
  -21.3700  -29.3730   22.4900 N   0  0  0  0  0  0  0  0  0  0  0  0
  -23.3790  -28.8990   23.4170 O   0  0  0  0  0  0  0  0  0  0  0  0
  -20.8730  -29.9620   21.8370 H   0  0  0  0  0  0  0  0  0  0  0  0
  -17.9980  -28.1460   22.9500 C   0  0  0  0  0  0  0  0  0  0  0  0
  -20.5510  -28.4230   23.2430 C   0  0  0  0  0  3  0  0  0  0  0  0
  -20.6660  -26.9940   22.6590 C   0  0  0  0  0  2  0  0  0  0  0  0
  -19.5750  -26.6680   21.6330 C   0  0  0  0  0  2  0  0  0  0  0  0
  -18.1860  -26.8010   22.2660 C   0  0  0  0  0  2  0  0  0  0  0  0
  -19.1050  -28.9120   23.3990 C   0  0  0  0  0  0  0  0  0  0  0  0
  -18.8710  -30.1680   24.0020 C   0  0  0  0  0  3  0  0  0  0  0  0
  -17.5610  -30.6630   24.1530 C   0  0  0  0  0  3  0  0  0  0  0  0
  -16.4700  -29.8970   23.7090 C   0  0  0  0  0  3  0  0  0  0  0  0
  -16.6870  -28.6400   23.1170 C   0  0  0  0  0  3  0  0  0  0  0  0
  -25.9200  -32.5130   23.9410 C   0  0  0  0  0  3  0  0  0  0  0  0
  -26.4460  -31.6980   25.1870 C   0  0  1  0  0  0  0  0  0  0  0  0
  -25.3690  -31.4430   26.2680 C   0  0  0  0  0  1  0  0  0  0  0  0
  -27.0100  -30.3260   24.7490 C   0  0  0  0  0  1  0  0  0  0  0  0
  -27.6140  -32.4620   25.8550 C   0  0  0  0  0  1  0  0  0  0  0  0
  -25.6330  -33.9040   24.3210 N   0  0  0  0  0  0  0  0  0  0  0  0
  -25.9600  -34.9790   23.5890 C   0  0  0  0  0  0  0  0  0  0  0  0
  -26.6080  -34.9000   22.5420 O   0  0  0  0  0  0  0  0  0  0  0  0
  -25.0650  -34.0400   25.1440 H   0  0  0  0  0  0  0  0  0  0  0  0
  -24.2510  -36.8070   23.3260 C   0  0  0  0  0  1  0  0  0  0  0  0
  -25.5000  -36.3580   24.1000 C   0  0  0  0  0  3  0  0  0  0  0  0
  -27.6620  -37.1930   24.9170 C   0  0  0  0  0  1  0  0  0  0  0  0
  -26.5440  -37.4020   24.0000 N   0  0  0  0  0  0  0  0  0  0  0  0
  -26.1530  -38.3230   24.1790 H   0  0  0  0  0  0  0  0  0  0  0  0
  1  2  2  0
  1  6  1  0
  3  4  1  0
  4  8  2  0
  5  8  1  0
  6  7  1  0
  6  3  2  0
  7  5  2  0
  8  9  1  0
 10 18  1  0
 11 16  1  0
 12 13  1  0
 12 11  1  0
 14 13  1  0
 14 23  1  0
 14 15  1  0
 16 10  1  0
 16 15  1  0
 17 10  2  0
 18  7  1  0
 19 18  1  0
 20 21  2  0
 21 40  1  0
 22 21  1  0
 22 25  1  0
 23 20  1  0
 23 24  1  0
 24 22  2  0
 25 26  1  0
 26 27  2  0
 28 31  1  0
 28 27  1  0
 29 28  2  0
 30 29  1  0
 30 25  2  0
 31 32  1  0
 32 33  1  0
 33 34  2  0
 35 34  1  0
 35 39  1  0
 36 35  2  0
 37 32  2  0
 37 36  1  0
 38 37  1  0
 40 41  1  0
 41 44  1  0
 41 43  1  0
 42 40  2  0
 45 46  1  0
 45 20  1  0
 47 45  1  0
 48  2  1  0
 48 49  1  0
 50 51  1  0
 50 49  2  0
 52 63  2  0
 53 51  1  0
 53 58  1  0
 54 62  1  0
 54 64  1  0
 55 61  1  0
 55 57  1  0
 56 62  1  0
 57 56  1  0
 58 57  2  0
 59 60  1  0
 59 53  2  0
 60 55  2  0
 61 54  1  0
 62 52  1  0
 64 66  2  0
 65 64  1  0
 67 65  1  0
 68 77  2  0
 68 73  1  0
 69 65  1  0
 69 73  1  0
 70 69  1  0
 71 72  1  0
 71 70  1  0
 72 68  1  0
 73 74  2  0
 74 75  1  0
 76 75  2  0
 77 76  1  0
 78 52  1  0
 78 83  1  0
 78 79  1  0
 79 82  1  1
 79 80  1  0
 81 79  1  0
 83 86  1  0
 84 88  1  0
 84 83  1  0
 85 84  2  0
 88 87  1  0
 90 88  1  0
 90 91  1  0
 90 89  1  0
M  ISO  4  10 100  18 100  50 101  51 101
M  END
>  <TORSDO>  (27) 
F 20

>  <SCORE>  (27) 
-10.110

>  <name>  (27) 
26

>  <ligand_id>  (27) 
26

>  <original_smiles>  (27) 
[H]C(=C([H])C([H])([H])C([H])([H])C([H])([H])Oc1c([H])c([H])c2c(c1[H])C([H])([H])N(C(=O)C([H])(N([H])C(=O)C([H])(N([H])C([H])([H])[H])C([H])([H])[H])C(C([H])([H])[H])(C([H])([H])[H])C([H])([H])[H])C([H])(C(=O)N([H])C1([H])c3c([H])c([H])c([H])c([H])c3C([H])([H])C([H])([H])C1([H])[H])C2([H])[H])c1c([H])c([H])c(F)c([H])c1N([H])C(=O)N1C([H])([H])C([H])([H])C([H])([H])C([H])(n2nc(-c3c([H])c([H])c(Oc4c([H])c([H])c(F)c([H])c4F)c([H])c3[H])c(C(=O)N([H])[H])c2N([H])[H])C1([H])[H]

>  <smiles>  (27) 
[H]C(=C([H])C([H])([H])C([H])([H])C([H])([H])Oc1c([H])c([H])c2c(c1[H])C([H])([H])N(C(=O)C([H])(N([H])C(=O)C([H])(N([H])C([H])([H])[H])C([H])([H])[H])C(C([H])([H])[H])(C([H])([H])[H])C([H])([H])[H])C([H])(C(=O)N([H])C1([H])c3c([H])c([H])c([H])c([H])c3C([H])([H])C([H])([H])C1([H])[H])C2([H])[H])c1c([H])c([H])c(F)c([H])c1N([H])C(=O)N1C([H])([H])C([H])([H])C([H])([H])C([H])(n2nc(-c3c([H])c([H])c(Oc4c([H])c([H])c(F)c([H])c4F)c([H])c3[H])c(C(=O)N([H])[H])c2N([H])[H])C1([H])[H]

$$$$
27:0:0
     RDKit          3D

 94102  0  0  1  0  0  0  0  0999 V2000
  -30.2360  -18.6520   21.1970 C   0  0  0  0  0  3  0  0  0  0  0  0
  -32.5780  -17.2670   20.5210 C   0  0  0  0  0  3  0  0  0  0  0  0
  -31.3960  -19.4000   20.8730 C   0  0  0  0  0  0  0  0  0  0  0  0
  -31.4130  -16.5380   20.8500 C   0  0  0  0  0  0  0  0  0  0  0  0
  -30.2330  -17.2340   21.1820 C   0  0  0  0  0  0  0  0  0  0  0  0
  -32.5730  -18.6800   20.5300 C   0  0  0  0  0  0  0  0  0  0  0  0
  -33.7280  -19.3250   20.2410 F   0  0  0  0  0  0  0  0  0  0  0  0
  -31.8500  -14.1830   20.0530 C   0  0  0  0  0  0  0  0  0  0  0  0
  -31.4200  -12.0230   18.9400 C   0  0  0  0  0  2  0  0  0  0  0  0
  -30.4670  -12.2370   17.7450 C   0  0  0  0  0  2  0  0  0  0  0  0
  -28.9920  -12.2020   18.1950 C   0  0  0  0  0  2  0  0  0  0  0  0
  -28.7250  -13.1010   19.4310 C   0  0  0  0  0  3  0  0  0  0  0  0
  -29.7750  -12.8290   20.5320 C   0  0  0  0  0  2  0  0  0  0  0  0
  -31.1180  -13.0410   19.9560 N   0  0  0  0  0  0  0  0  0  0  0  0
  -32.9170  -14.3510   19.4570 O   0  0  0  0  0  0  0  0  0  0  0  0
  -31.3040  -15.1150   20.8510 N   0  0  0  0  0  0  0  0  0  0  0  0
  -30.5250  -14.7770   21.3960 H   0  0  0  0  0  0  0  0  0  0  0  0
  -26.3910  -13.8930   20.1810 C   0  0  0  0  0  0  0  0  0  0  0  0
  -25.2740  -13.2030   20.5720 C   0  0  0  0  0  0  0  0  0  0  0  0
  -25.6300  -11.8200   20.5320 C   0  0  0  0  0  0  0  0  0  0  0  0
  -27.3620  -12.9330   19.9320 N   0  0  0  0  0  0  0  0  0  0  0  0
  -26.9070  -11.6830   20.1980 N   0  0  0  0  0  0  0  0  0  0  0  0
  -24.8140  -10.6160   20.7370 C   0  0  0  0  0  0  0  0  0  0  0  0
  -25.0070   -9.7740   21.8540 C   0  0  0  0  0  3  0  0  0  0  0  0
  -24.1970   -8.6320   22.0380 C   0  0  0  0  0  3  0  0  0  0  0  0
  -23.1800   -8.3250   21.1040 C   0  0  0  0  0  0  0  0  0  0  0  0
  -23.0080   -9.1530   19.9800 C   0  0  0  0  0  3  0  0  0  0  0  0
  -23.8180  -10.2860   19.7960 C   0  0  0  0  0  3  0  0  0  0  0  0
  -22.3640   -7.2240   21.1870 O   0  0  0  0  0  0  0  0  0  0  0  0
  -21.7920   -6.8400   22.3740 C   0  0  0  0  0  0  0  0  0  0  0  0
  -20.9430   -7.7000   23.1050 C   0  0  0  0  0  3  0  0  0  0  0  0
  -20.3220   -7.2410   24.2840 C   0  0  0  0  0  3  0  0  0  0  0  0
  -20.5380   -5.9220   24.7270 C   0  0  0  0  0  0  0  0  0  0  0  0
  -21.3780   -5.0640   23.9970 C   0  0  0  0  0  3  0  0  0  0  0  0
  -22.0000   -5.5200   22.8230 C   0  0  0  0  0  0  0  0  0  0  0  0
  -22.7910   -4.6810   22.1120 F   0  0  0  0  0  0  0  0  0  0  0  0
  -19.9350   -5.4790   25.8540 F   0  0  0  0  0  0  0  0  0  0  0  0
  -23.9230  -13.7860   20.8730 C   0  0  0  0  0  0  0  0  0  0  0  0
  -23.1880  -13.1790   21.7980 N   0  0  0  0  0  0  0  0  0  0  0  0
  -23.5320  -14.8130   20.3220 O   0  0  0  0  0  0  0  0  0  0  0  0
  -23.5180  -12.3470   22.2670 H   0  0  0  0  0  0  0  0  0  0  0  0
  -22.2810  -13.5510   22.0430 H   0  0  0  0  0  0  0  0  0  0  0  0
  -26.6590  -15.2450   19.9970 N   0  0  0  0  0  0  0  0  0  0  0  0
  -25.9460  -15.9590   20.0970 H   0  0  0  0  0  0  0  0  0  0  0  0
  -27.5370  -15.6090   19.6490 H   0  0  0  0  0  0  0  0  0  0  0  0
  -31.4630  -21.3800   22.2950 C   0  0  0  0  0  1  0  0  0  0  0  0
  -31.3440  -20.8180   20.9500 N   0  0  0  0  0  0  0  0  0  0  0  0
  -31.6590  -21.7020   19.8190 C   0  0  0  0  0  2  0  0  0  0  0  0
  -30.4420  -22.5540   19.3930 C   0  0  0  0  0  2  0  0  0  0  0  0
  -30.7390  -24.0300   19.0200 C   0  0  0  0  0  2  0  0  0  0  0  0
  -29.4720  -24.7490   18.5160 C   0  0  0  0  0  2  0  0  0  0  0  0
  -29.4140  -26.1530   18.8220 O   0  0  0  0  0  0  0  0  0  0  0  0
  -24.9900  -30.0520   22.8300 C   0  0  0  0  0  0  0  0  0  0  0  0
  -28.1430  -26.6900   18.9490 C   0  0  0  0  0  0  0  0  0  0  0  0
  -23.9400  -28.7770   20.9920 C   0  0  0  0  0  3  0  0  0  0  0  0
  -25.5420  -27.7720   19.2850 C   0  0  0  0  0  0  0  0  0  0  0  0
  -26.3690  -29.5690   20.8100 C   0  0  0  0  0  2  0  0  0  0  0  0
  -26.6360  -28.3640   19.9300 C   0  0  0  0  0  0  0  0  0  0  0  0
  -27.9370  -27.8320   19.7590 C   0  0  0  0  0  3  0  0  0  0  0  0
  -27.0210  -26.1190   18.3010 C   0  0  0  0  0  3  0  0  0  0  0  0
  -25.7310  -26.6480   18.4680 C   0  0  0  0  0  3  0  0  0  0  0  0
  -24.1820  -28.3930   19.5100 C   0  0  0  0  0  2  0  0  0  0  0  0
  -25.1180  -29.4740   21.6030 N   0  0  0  0  0  0  0  0  0  0  0  0
  -23.9070  -30.0470   23.4320 O   0  0  0  0  0  0  0  0  0  0  0  0
  -23.5060  -27.5110   21.7660 C   0  0  0  0  0  0  0  0  0  0  0  0
  -22.2280  -27.1280   21.6170 N   0  0  0  0  0  0  0  0  0  0  0  0
  -24.3130  -26.8840   22.4570 O   0  0  0  0  0  0  0  0  0  0  0  0
  -21.6290  -27.6950   21.0360 H   0  0  0  0  0  0  0  0  0  0  0  0
  -19.1070  -25.3420   21.9610 C   0  0  0  0  0  0  0  0  0  0  0  0
  -21.6060  -25.9490   22.2190 C   0  0  0  0  0  3  0  0  0  0  0  0
  -21.8960  -24.6800   21.3880 C   0  0  0  0  0  2  0  0  0  0  0  0
  -20.8060  -24.3720   20.3580 C   0  0  0  0  0  2  0  0  0  0  0  0
  -19.4520  -24.1790   21.0480 C   0  0  0  0  0  2  0  0  0  0  0  0
  -20.1160  -26.1830   22.5000 C   0  0  0  0  0  0  0  0  0  0  0  0
  -19.7390  -27.2720   23.3160 C   0  0  0  0  0  3  0  0  0  0  0  0
  -18.3830  -27.5210   23.6020 C   0  0  0  0  0  3  0  0  0  0  0  0
  -17.3880  -26.6750   23.0830 C   0  0  0  0  0  3  0  0  0  0  0  0
  -17.7510  -25.5880   22.2660 C   0  0  0  0  0  3  0  0  0  0  0  0
  -26.1920  -30.7660   23.5250 C   0  0  0  0  0  3  0  0  0  0  0  0
  -25.6970  -32.0360   24.0680 N   0  0  0  0  0  0  0  0  0  0  0  0
  -25.8520  -33.2290   23.4760 C   0  0  0  0  0  0  0  0  0  0  0  0
  -26.5000  -33.3810   22.4360 O   0  0  0  0  0  0  0  0  0  0  0  0
  -25.1120  -31.9790   24.8880 H   0  0  0  0  0  0  0  0  0  0  0  0
  -23.8760  -34.7800   23.4050 C   0  0  0  0  0  1  0  0  0  0  0  0
  -25.1820  -34.4450   24.1430 C   0  0  0  0  0  3  0  0  0  0  0  0
  -27.1750  -35.5010   25.1090 C   0  0  0  0  0  1  0  0  0  0  0  0
  -26.0490  -35.6410   24.1890 N   0  0  0  0  0  0  0  0  0  0  0  0
  -25.5160  -36.4630   24.4630 H   0  0  0  0  0  0  0  0  0  0  0  0
  -26.8590  -29.8950   24.6580 C   0  0  1  0  0  0  0  0  0  0  0  0
  -25.8450  -29.3090   25.6680 C   0  0  0  0  0  1  0  0  0  0  0  0
  -27.6530  -28.7190   24.0450 C   0  0  0  0  0  1  0  0  0  0  0  0
  -27.8780  -30.7520   25.4450 C   0  0  0  0  0  1  0  0  0  0  0  0
  -27.8790  -16.8080   20.9230 C   0  0  0  0  0  1  0  0  0  0  0  0
  -29.1330  -16.4540   21.4840 O   0  0  0  0  0  0  0  0  0  0  0  0
  2  6  2  0
  2  4  1  0
  3 47  1  0
  3  1  2  0
  4 16  1  0
  4  5  2  0
  5  1  1  0
  5 94  1  0
  6  3  1  0
  7  6  1  0
  8 16  1  0
  9 14  1  0
 10 11  1  0
 10  9  1  0
 12 11  1  0
 12 21  1  0
 12 13  1  0
 14  8  1  0
 14 13  1  0
 15  8  2  0
 16 17  1  0
 18 19  2  0
 19 38  1  0
 20 19  1  0
 20 23  1  0
 21 18  1  0
 21 22  1  0
 22 20  2  0
 23 24  1  0
 24 25  2  0
 26 29  1  0
 26 25  1  0
 27 26  2  0
 28 27  1  0
 28 23  2  0
 29 30  1  0
 30 35  2  0
 30 31  1  0
 31 32  2  0
 32 33  1  0
 33 37  1  0
 34 33  2  0
 35 34  1  0
 36 35  1  0
 38 39  1  0
 39 42  1  0
 39 41  1  0
 40 38  2  0
 43 44  1  0
 43 18  1  0
 45 43  1  0
 47 46  1  0
 48 47  1  0
 49 48  1  0
 50 49  1  0
 51 52  1  0
 51 50  1  0
 52 54  1  0
 53 64  2  0
 54 59  1  0
 55 63  1  0
 55 65  1  0
 56 62  1  0
 56 58  1  0
 57 63  1  0
 58 57  1  0
 59 58  2  0
 60 61  1  0
 60 54  2  0
 61 56  2  0
 62 55  1  0
 63 53  1  0
 65 67  2  0
 66 65  1  0
 68 66  1  0
 69 78  2  0
 69 74  1  0
 70 66  1  0
 70 74  1  0
 71 70  1  0
 72 73  1  0
 72 71  1  0
 73 69  1  0
 74 75  2  0
 75 76  1  0
 77 76  2  0
 78 77  1  0
 79 53  1  0
 79 80  1  0
 79 89  1  0
 80 83  1  0
 81 80  1  0
 81 85  1  0
 82 81  2  0
 85 84  1  0
 85 87  1  0
 87 88  1  0
 87 86  1  0
 89 92  1  1
 89 90  1  0
 91 89  1  0
 93 94  1  0
M  ISO  4   8 100  16 100  51 101  52 101
M  END
>  <TORSDO>  (28) 
F 22

>  <SCORE>  (28) 
-7.328

>  <name>  (28) 
27

>  <ligand_id>  (28) 
27

>  <original_smiles>  (28) 
[H]c1c([H])c([H])c2c(c1[H])C([H])([H])C([H])([H])C([H])([H])C2([H])N([H])C(=O)C1([H])N(C(=O)C([H])(N([H])C(=O)C([H])(N([H])C([H])([H])[H])C([H])([H])[H])C(C([H])([H])[H])(C([H])([H])[H])C([H])([H])[H])C([H])([H])c2c([H])c(OC([H])([H])C([H])([H])C([H])([H])C([H])([H])N(c3c([H])c(OC([H])([H])[H])c(N([H])C(=O)N4C([H])([H])C([H])([H])C([H])([H])C([H])(n5nc(-c6c([H])c([H])c(Oc7c([H])c([H])c(F)c([H])c7F)c([H])c6[H])c(C(=O)N([H])[H])c5N([H])[H])C4([H])[H])c([H])c3F)C([H])([H])[H])c([H])c([H])c2C1([H])[H]

>  <smiles>  (28) 
[H]c1c([H])c([H])c2c(c1[H])C([H])([H])C([H])([H])C([H])([H])C2([H])N([H])C(=O)C1([H])N(C(=O)C([H])(N([H])C(=O)C([H])(N([H])C([H])([H])[H])C([H])([H])[H])C(C([H])([H])[H])(C([H])([H])[H])C([H])([H])[H])C([H])([H])c2c([H])c(OC([H])([H])C([H])([H])C([H])([H])C([H])([H])N(c3c([H])c(OC([H])([H])[H])c(N([H])C(=O)N4C([H])([H])C([H])([H])C([H])([H])C([H])(n5nc(-c6c([H])c([H])c(Oc7c([H])c([H])c(F)c([H])c7F)c([H])c6[H])c(C(=O)N([H])[H])c5N([H])[H])C4([H])[H])c([H])c3F)C([H])([H])[H])c([H])c([H])c2C1([H])[H]

$$$$
28:0:0
     RDKit          3D

 92100  0  0  1  0  0  0  0  0999 V2000
  -30.6310  -18.4060   19.2560 C   0  0  0  0  0  3  0  0  0  0  0  0
  -28.6880  -19.8950   20.5700 C   0  0  0  0  0  3  0  0  0  0  0  0
  -29.7650  -17.6040   20.0600 C   0  0  0  0  0  0  0  0  0  0  0  0
  -29.5640  -20.7150   19.7750 C   0  0  0  0  0  0  0  0  0  0  0  0
  -28.7770  -18.4420   20.6970 C   0  0  0  0  0  0  0  0  0  0  0  0
  -30.5270  -19.8500   19.1050 C   0  0  0  0  0  0  0  0  0  0  0  0
  -27.8550  -17.8220   21.4710 F   0  0  0  0  0  0  0  0  0  0  0  0
  -31.4010  -20.3900   18.2240 F   0  0  0  0  0  0  0  0  0  0  0  0
  -30.5070  -14.9480   19.7970 C   0  0  0  0  0  0  0  0  0  0  0  0
  -30.3040  -12.6260   18.7980 C   0  0  0  0  0  2  0  0  0  0  0  0
  -29.2750  -12.6520   17.6430 C   0  0  0  0  0  2  0  0  0  0  0  0
  -27.8430  -12.4520   18.1770 C   0  0  0  0  0  2  0  0  0  0  0  0
  -27.5510  -13.3330   19.4200 C   0  0  0  0  0  3  0  0  0  0  0  0
  -28.6900  -13.2650   20.4610 C   0  0  0  0  0  2  0  0  0  0  0  0
  -29.9240  -13.6810   19.7800 N   0  0  0  0  0  0  0  0  0  0  0  0
  -31.6560  -15.0540   19.3530 O   0  0  0  0  0  0  0  0  0  0  0  0
  -29.7360  -16.0700   20.1930 N   0  0  0  0  0  0  0  0  0  0  0  0
  -28.9050  -15.7640   20.6760 H   0  0  0  0  0  0  0  0  0  0  0  0
  -25.2330  -13.9220   20.3360 C   0  0  0  0  0  0  0  0  0  0  0  0
  -24.1900  -13.1500   20.7710 C   0  0  0  0  0  0  0  0  0  0  0  0
  -24.6370  -11.7950   20.6830 C   0  0  0  0  0  0  0  0  0  0  0  0
  -26.2470  -13.0380   20.0070 N   0  0  0  0  0  0  0  0  0  0  0  0
  -25.9020  -11.7520   20.2790 N   0  0  0  0  0  0  0  0  0  0  0  0
  -23.9130  -10.5370   20.9060 C   0  0  0  0  0  0  0  0  0  0  0  0
  -24.3900   -9.5590   21.8070 C   0  0  0  0  0  3  0  0  0  0  0  0
  -23.6640   -8.3660   22.0180 C   0  0  0  0  0  3  0  0  0  0  0  0
  -22.4490   -8.1430   21.3280 C   0  0  0  0  0  0  0  0  0  0  0  0
  -21.9910   -9.1100   20.4150 C   0  0  0  0  0  3  0  0  0  0  0  0
  -22.7170  -10.2930   20.2020 C   0  0  0  0  0  3  0  0  0  0  0  0
  -21.6900   -7.0040   21.4510 O   0  0  0  0  0  0  0  0  0  0  0  0
  -21.6850   -6.2630   22.6060 C   0  0  0  0  0  0  0  0  0  0  0  0
  -21.2990   -6.8180   23.8460 C   0  0  0  0  0  3  0  0  0  0  0  0
  -21.2420   -6.0030   24.9940 C   0  0  0  0  0  3  0  0  0  0  0  0
  -21.5620   -4.6350   24.9040 C   0  0  0  0  0  0  0  0  0  0  0  0
  -21.9420   -4.0800   23.6700 C   0  0  0  0  0  3  0  0  0  0  0  0
  -22.0000   -4.8910   22.5240 C   0  0  0  0  0  0  0  0  0  0  0  0
  -22.3470   -4.3470   21.3330 F   0  0  0  0  0  0  0  0  0  0  0  0
  -21.4990   -3.8510   26.0050 F   0  0  0  0  0  0  0  0  0  0  0  0
  -22.8220  -13.6350   21.1510 C   0  0  0  0  0  0  0  0  0  0  0  0
  -22.1570  -12.9360   22.0640 N   0  0  0  0  0  0  0  0  0  0  0  0
  -22.3550  -14.6680   20.6740 O   0  0  0  0  0  0  0  0  0  0  0  0
  -22.5500  -12.1010   22.4700 H   0  0  0  0  0  0  0  0  0  0  0  0
  -21.2410  -13.2430   22.3610 H   0  0  0  0  0  0  0  0  0  0  0  0
  -25.3960  -15.2940   20.1700 N   0  0  0  0  0  0  0  0  0  0  0  0
  -24.6440  -15.9490   20.3530 H   0  0  0  0  0  0  0  0  0  0  0  0
  -26.2160  -15.7350   19.7740 H   0  0  0  0  0  0  0  0  0  0  0  0
  -28.6110  -23.2970   19.9890 C   0  0  0  0  0  0  0  0  0  0  0  0
  -30.7840  -22.8450   19.0820 C   0  0  0  0  0  1  0  0  0  0  0  0
  -29.5420  -22.2710   19.6230 N   0  0  0  0  0  0  0  0  0  0  0  0
  -27.7740  -23.0570   20.8650 O   0  0  0  0  0  0  0  0  0  0  0  0
  -28.4950  -24.8000   19.2540 C   0  0  0  0  0  2  0  0  0  0  0  0
  -28.3960  -26.1790   19.9800 O   0  0  0  0  0  0  0  0  0  0  0  0
  -24.6370  -31.7040   23.0640 C   0  0  0  0  0  0  0  0  0  0  0  0
  -27.3130  -27.1340   19.8850 C   0  0  0  0  0  0  0  0  0  0  0  0
  -23.4670  -30.3370   21.3800 C   0  0  0  0  0  3  0  0  0  0  0  0
  -24.9480  -28.8390   19.9060 C   0  0  0  0  0  0  0  0  0  0  0  0
  -26.0160  -30.6530   21.2320 C   0  0  0  0  0  2  0  0  0  0  0  0
  -26.1150  -29.2850   20.5350 C   0  0  0  0  0  0  0  0  0  0  0  0
  -27.2920  -28.4450   20.5150 C   0  0  0  0  0  3  0  0  0  0  0  0
  -26.1130  -26.7940   19.2190 C   0  0  0  0  0  3  0  0  0  0  0  0
  -24.9600  -27.6080   19.2340 C   0  0  0  0  0  3  0  0  0  0  0  0
  -23.7020  -29.7090   19.9800 C   0  0  0  0  0  2  0  0  0  0  0  0
  -24.7250  -30.9190   21.9470 N   0  0  0  0  0  0  0  0  0  0  0  0
  -23.5440  -31.9530   23.5970 O   0  0  0  0  0  0  0  0  0  0  0  0
  -22.8060  -29.2870   22.3090 C   0  0  0  0  0  0  0  0  0  0  0  0
  -21.4790  -29.1060   22.1840 N   0  0  0  0  0  0  0  0  0  0  0  0
  -23.4900  -28.6410   23.1060 O   0  0  0  0  0  0  0  0  0  0  0  0
  -20.9830  -29.6810   21.5160 H   0  0  0  0  0  0  0  0  0  0  0  0
  -18.1120  -27.8630   22.6770 C   0  0  0  0  0  0  0  0  0  0  0  0
  -20.6730  -28.1330   22.9260 C   0  0  0  0  0  3  0  0  0  0  0  0
  -20.7770  -26.7250   22.2950 C   0  0  0  0  0  2  0  0  0  0  0  0
  -19.6650  -26.4350   21.2810 C   0  0  0  0  0  2  0  0  0  0  0  0
  -18.2900  -26.5440   21.9450 C   0  0  0  0  0  2  0  0  0  0  0  0
  -19.2300  -28.6170   23.1240 C   0  0  0  0  0  0  0  0  0  0  0  0
  -19.0080  -29.8520   23.7710 C   0  0  0  0  0  3  0  0  0  0  0  0
  -17.7010  -30.3330   23.9750 C   0  0  0  0  0  3  0  0  0  0  0  0
  -16.5980  -29.5760   23.5430 C   0  0  0  0  0  3  0  0  0  0  0  0
  -16.8040  -28.3440   22.9000 C   0  0  0  0  0  3  0  0  0  0  0  0
  -25.9010  -32.3450   23.7130 C   0  0  0  0  0  3  0  0  0  0  0  0
  -25.5650  -33.7310   24.0760 N   0  0  0  0  0  0  0  0  0  0  0  0
  -25.8870  -34.8110   23.3520 C   0  0  0  0  0  0  0  0  0  0  0  0
  -26.5660  -34.7460   22.3230 O   0  0  0  0  0  0  0  0  0  0  0  0
  -24.9640  -33.8540   24.8780 H   0  0  0  0  0  0  0  0  0  0  0  0
  -24.1280  -36.5850   23.0490 C   0  0  0  0  0  1  0  0  0  0  0  0
  -25.3790  -36.1800   23.8460 C   0  0  0  0  0  3  0  0  0  0  0  0
  -27.4970  -37.0860   24.6970 C   0  0  0  0  0  1  0  0  0  0  0  0
  -26.3930  -37.2540   23.7550 N   0  0  0  0  0  0  0  0  0  0  0  0
  -25.9710  -38.1630   23.9210 H   0  0  0  0  0  0  0  0  0  0  0  0
  -26.4150  -31.5550   24.9800 C   0  0  1  0  0  0  0  0  0  0  0  0
  -25.3170  -31.2840   26.0330 C   0  0  0  0  0  1  0  0  0  0  0  0
  -27.0200  -30.1920   24.5720 C   0  0  0  0  0  1  0  0  0  0  0  0
  -27.5500  -32.3520   25.6660 C   0  0  0  0  0  1  0  0  0  0  0  0
  1  3  1  0
  2  5  1  0
  3 17  1  0
  3  5  2  0
  4  2  2  0
  5  7  1  0
  6  1  2  0
  6  4  1  0
  8  6  1  0
  9 17  1  0
 10 15  1  0
 11 12  1  0
 11 10  1  0
 13 12  1  0
 13 22  1  0
 13 14  1  0
 15  9  1  0
 15 14  1  0
 16  9  2  0
 17 18  1  0
 19 20  2  0
 20 39  1  0
 21 20  1  0
 21 24  1  0
 22 23  1  0
 22 19  1  0
 23 21  2  0
 24 25  1  0
 25 26  2  0
 27 30  1  0
 27 26  1  0
 28 27  2  0
 29 28  1  0
 29 24  2  0
 30 31  1  0
 31 32  1  0
 32 33  2  0
 34 33  1  0
 34 38  1  0
 35 34  2  0
 36 31  2  0
 36 35  1  0
 37 36  1  0
 39 40  1  0
 40 43  1  0
 40 42  1  0
 41 39  2  0
 44 19  1  0
 44 45  1  0
 46 44  1  0
 47 50  2  0
 48 49  1  0
 49  4  1  0
 49 47  1  0
 51 52  1  0
 51 47  1  0
 53 64  2  0
 54 52  1  0
 54 59  1  0
 55 63  1  0
 55 65  1  0
 56 62  1  0
 56 58  1  0
 57 63  1  0
 58 57  1  0
 59 58  2  0
 60 61  1  0
 60 54  2  0
 61 56  2  0
 62 55  1  0
 63 53  1  0
 65 67  2  0
 66 65  1  0
 68 66  1  0
 69 78  2  0
 69 74  1  0
 70 66  1  0
 70 74  1  0
 71 70  1  0
 72 73  1  0
 72 71  1  0
 73 69  1  0
 74 75  2  0
 75 76  1  0
 77 76  2  0
 78 77  1  0
 79 53  1  0
 79 80  1  0
 79 89  1  0
 80 83  1  0
 81 85  1  0
 81 80  1  0
 82 81  2  0
 85 84  1  0
 87 85  1  0
 87 88  1  0
 87 86  1  0
 89 92  1  1
 89 90  1  0
 91 89  1  0
M  ISO  4   9 100  17 100  51 101  52 101
M  END
>  <TORSDO>  (29) 
F 18

>  <SCORE>  (29) 
-13.422

>  <name>  (29) 
28

>  <ligand_id>  (29) 
28

>  <original_smiles>  (29) 
[H]c1c([H])c([H])c2c(c1[H])C([H])([H])C([H])([H])C([H])([H])C2([H])N([H])C(=O)C1([H])N(C(=O)C([H])(N([H])C(=O)C([H])(N([H])C([H])([H])[H])C([H])([H])[H])C(C([H])([H])[H])(C([H])([H])[H])C([H])([H])[H])C([H])([H])c2c([H])c(OC([H])([H])C(=O)N(c3c([H])c(F)c(N([H])C(=O)N4C([H])([H])C([H])([H])C([H])([H])C([H])(n5nc(-c6c([H])c([H])c(Oc7c([H])c([H])c(F)c([H])c7F)c([H])c6[H])c(C(=O)N([H])[H])c5N([H])[H])C4([H])[H])c([H])c3F)C([H])([H])[H])c([H])c([H])c2C1([H])[H]

>  <smiles>  (29) 
[H]c1c([H])c([H])c2c(c1[H])C([H])([H])C([H])([H])C([H])([H])C2([H])N([H])C(=O)C1([H])N(C(=O)C([H])(N([H])C(=O)C([H])(N([H])C([H])([H])[H])C([H])([H])[H])C(C([H])([H])[H])(C([H])([H])[H])C([H])([H])[H])C([H])([H])c2c([H])c(OC([H])([H])C(=O)N(c3c([H])c(F)c(N([H])C(=O)N4C([H])([H])C([H])([H])C([H])([H])C([H])(n5nc(-c6c([H])c([H])c(Oc7c([H])c([H])c(F)c([H])c7F)c([H])c6[H])c(C(=O)N([H])[H])c5N([H])[H])C4([H])[H])c([H])c3F)C([H])([H])[H])c([H])c([H])c2C1([H])[H]

$$$$
29:0:0
     RDKit          3D

 90 98  0  0  1  0  0  0  0  0999 V2000
  -31.0930  -17.9190   20.5650 C   0  0  0  0  0  3  0  0  0  0  0  0
  -31.0950  -19.3450   20.5020 C   0  0  0  0  0  3  0  0  0  0  0  0
  -28.7000  -19.3790   20.3330 C   0  0  0  0  0  3  0  0  0  0  0  0
  -29.8810  -17.1820   20.5250 C   0  0  0  0  0  0  0  0  0  0  0  0
  -29.9090  -20.1220   20.3880 C   0  0  0  0  0  0  0  0  0  0  0  0
  -28.6910  -17.9520   20.4070 C   0  0  0  0  0  0  0  0  0  0  0  0
  -27.5060  -17.2970   20.3610 F   0  0  0  0  0  0  0  0  0  0  0  0
  -30.5680  -14.6790   20.3110 C   0  0  0  0  0  0  0  0  0  0  0  0
  -30.3460  -12.4480   19.2340 C   0  0  0  0  0  2  0  0  0  0  0  0
  -29.3930  -12.5890   18.0260 C   0  0  0  0  0  2  0  0  0  0  0  0
  -27.9220  -12.4340   18.4630 C   0  0  0  0  0  2  0  0  0  0  0  0
  -27.5740  -13.2900   19.7100 C   0  0  0  0  0  3  0  0  0  0  0  0
  -28.6390  -13.1200   20.8180 C   0  0  0  0  0  2  0  0  0  0  0  0
  -29.9480  -13.4590   20.2340 N   0  0  0  0  0  0  0  0  0  0  0  0
  -31.7320  -14.8330   19.9340 O   0  0  0  0  0  0  0  0  0  0  0  0
  -29.7540  -15.7290   20.6430 N   0  0  0  0  0  0  0  0  0  0  0  0
  -28.8180  -15.4350   20.8750 H   0  0  0  0  0  0  0  0  0  0  0  0
  -25.1820  -13.8950   20.4320 C   0  0  0  0  0  0  0  0  0  0  0  0
  -24.1150  -13.1250   20.8040 C   0  0  0  0  0  0  0  0  0  0  0  0
  -24.5760  -11.7720   20.7780 C   0  0  0  0  0  0  0  0  0  0  0  0
  -26.2260  -13.0130   20.2010 N   0  0  0  0  0  0  0  0  0  0  0  0
  -25.8660  -11.7310   20.4680 N   0  0  0  0  0  0  0  0  0  0  0  0
  -23.8480  -10.5130   20.9740 C   0  0  0  0  0  0  0  0  0  0  0  0
  -24.2760   -9.5510   21.9150 C   0  0  0  0  0  3  0  0  0  0  0  0
  -23.5480   -8.3540   22.0980 C   0  0  0  0  0  3  0  0  0  0  0  0
  -22.3770   -8.1130   21.3420 C   0  0  0  0  0  0  0  0  0  0  0  0
  -21.9680   -9.0640   20.3910 C   0  0  0  0  0  3  0  0  0  0  0  0
  -22.6970  -10.2510   20.2050 C   0  0  0  0  0  3  0  0  0  0  0  0
  -21.6220   -6.9700   21.4330 O   0  0  0  0  0  0  0  0  0  0  0  0
  -21.5600   -6.2390   22.5930 C   0  0  0  0  0  0  0  0  0  0  0  0
  -21.1070   -6.8040   23.8060 C   0  0  0  0  0  3  0  0  0  0  0  0
  -20.9940   -6.0000   24.9580 C   0  0  0  0  0  3  0  0  0  0  0  0
  -21.3220   -4.6320   24.8980 C   0  0  0  0  0  0  0  0  0  0  0  0
  -21.7670   -4.0660   23.6900 C   0  0  0  0  0  3  0  0  0  0  0  0
  -21.8820   -4.8680   22.5400 C   0  0  0  0  0  0  0  0  0  0  0  0
  -22.2920   -4.3140   21.3730 F   0  0  0  0  0  0  0  0  0  0  0  0
  -21.2050   -3.8570   26.0010 F   0  0  0  0  0  0  0  0  0  0  0  0
  -22.7190  -13.6050   21.0780 C   0  0  0  0  0  0  0  0  0  0  0  0
  -21.9920  -12.9140   21.9490 N   0  0  0  0  0  0  0  0  0  0  0  0
  -22.2810  -14.6300   20.5560 O   0  0  0  0  0  0  0  0  0  0  0  0
  -22.3580  -12.0850   22.3930 H   0  0  0  0  0  0  0  0  0  0  0  0
  -21.0560  -13.2180   22.1750 H   0  0  0  0  0  0  0  0  0  0  0  0
  -25.3430  -15.2660   20.2560 N   0  0  0  0  0  0  0  0  0  0  0  0
  -24.5770  -15.9130   20.3970 H   0  0  0  0  0  0  0  0  0  0  0  0
  -26.2090  -15.7380   20.0180 H   0  0  0  0  0  0  0  0  0  0  0  0
  -30.0250  -21.5300   20.3580 O   0  0  0  0  0  0  0  0  0  0  0  0
  -28.8960  -22.4420   20.1650 C   0  0  0  0  0  2  0  0  0  0  0  0
  -29.2560  -23.9960   20.2800 C   0  0  0  0  0  3  0  0  0  0  0  0
  -28.1150  -25.0540   19.9510 C   0  0  0  0  0  3  0  0  0  0  0  0
  -28.3390  -26.5060   20.1590 O   0  0  0  0  0  0  0  0  0  0  0  0
  -24.6140  -31.8650   23.2520 C   0  0  0  0  0  0  0  0  0  0  0  0
  -27.2190  -27.3560   20.1210 C   0  0  0  0  0  0  0  0  0  0  0  0
  -23.4060  -30.4950   21.5920 C   0  0  0  0  0  3  0  0  0  0  0  0
  -24.8530  -28.9680   20.1410 C   0  0  0  0  0  0  0  0  0  0  0  0
  -25.9460  -30.8150   21.4110 C   0  0  0  0  0  2  0  0  0  0  0  0
  -26.0230  -29.4470   20.7430 C   0  0  0  0  0  0  0  0  0  0  0  0
  -27.2090  -28.6530   20.7210 C   0  0  0  0  0  3  0  0  0  0  0  0
  -26.0200  -26.9330   19.4980 C   0  0  0  0  0  3  0  0  0  0  0  0
  -24.8540  -27.7170   19.5100 C   0  0  0  0  0  3  0  0  0  0  0  0
  -23.6170  -29.8420   20.2020 C   0  0  0  0  0  2  0  0  0  0  0  0
  -24.6750  -31.0740   22.1420 N   0  0  0  0  0  0  0  0  0  0  0  0
  -23.5310  -32.1370   23.7920 O   0  0  0  0  0  0  0  0  0  0  0  0
  -22.7430  -29.4640   22.5360 C   0  0  0  0  0  0  0  0  0  0  0  0
  -21.4170  -29.2900   22.4050 N   0  0  0  0  0  0  0  0  0  0  0  0
  -23.4200  -28.8240   23.3450 O   0  0  0  0  0  0  0  0  0  0  0  0
  -20.9300  -29.8560   21.7250 H   0  0  0  0  0  0  0  0  0  0  0  0
  -18.0360  -28.0990   22.8910 C   0  0  0  0  0  0  0  0  0  0  0  0
  -20.5950  -28.3430   23.1610 C   0  0  0  0  0  3  0  0  0  0  0  0
  -20.6890  -26.9200   22.5620 C   0  0  0  0  0  2  0  0  0  0  0  0
  -19.5850  -26.6200   21.5440 C   0  0  0  0  0  2  0  0  0  0  0  0
  -18.2040  -26.7600   22.1930 C   0  0  0  0  0  2  0  0  0  0  0  0
  -19.1580  -28.8490   23.3310 C   0  0  0  0  0  0  0  0  0  0  0  0
  -18.9450  -30.1030   23.9450 C   0  0  0  0  0  3  0  0  0  0  0  0
  -17.6430  -30.6080   24.1200 C   0  0  0  0  0  3  0  0  0  0  0  0
  -16.5350  -29.8550   23.6960 C   0  0  0  0  0  3  0  0  0  0  0  0
  -16.7310  -28.6020   23.0870 C   0  0  0  0  0  3  0  0  0  0  0  0
  -25.8970  -32.4860   23.8840 C   0  0  0  0  0  3  0  0  0  0  0  0
  -26.4020  -31.7040   25.1580 C   0  0  1  0  0  0  0  0  0  0  0  0
  -25.3030  -31.4670   26.2190 C   0  0  0  0  0  1  0  0  0  0  0  0
  -26.9780  -30.3240   24.7620 C   0  0  0  0  0  1  0  0  0  0  0  0
  -27.5540  -32.4870   25.8300 C   0  0  0  0  0  1  0  0  0  0  0  0
  -25.5960  -33.8840   24.2200 N   0  0  0  0  0  0  0  0  0  0  0  0
  -25.9130  -34.9370   23.4560 C   0  0  0  0  0  0  0  0  0  0  0  0
  -26.5620  -34.8340   22.4100 O   0  0  0  0  0  0  0  0  0  0  0  0
  -25.0160  -34.0380   25.0330 H   0  0  0  0  0  0  0  0  0  0  0  0
  -24.1680  -36.7240   23.1540 C   0  0  0  0  0  1  0  0  0  0  0  0
  -25.4370  -36.3260   23.9240 C   0  0  0  0  0  3  0  0  0  0  0  0
  -27.5930  -37.2240   24.6820 C   0  0  0  0  0  1  0  0  0  0  0  0
  -26.4620  -37.3820   23.7720 N   0  0  0  0  0  0  0  0  0  0  0  0
  -26.0580  -38.3010   23.9250 H   0  0  0  0  0  0  0  0  0  0  0  0
  2  1  2  0
  3  5  2  0
  3  6  1  0
  4  1  1  0
  4 16  1  0
  5  2  1  0
  6  4  2  0
  7  6  1  0
  8 16  1  0
  9 14  1  0
 10 11  1  0
 10  9  1  0
 12 11  1  0
 12 21  1  0
 12 13  1  0
 14  8  1  0
 14 13  1  0
 15  8  2  0
 16 17  1  0
 18 19  2  0
 19 38  1  0
 20 19  1  0
 20 23  1  0
 21 18  1  0
 21 22  1  0
 22 20  2  0
 23 24  1  0
 24 25  2  0
 26 29  1  0
 26 25  1  0
 27 26  2  0
 28 27  1  0
 28 23  2  0
 29 30  1  0
 30 31  1  0
 31 32  2  0
 33 32  1  0
 33 37  1  0
 34 33  2  0
 35 30  2  0
 35 34  1  0
 36 35  1  0
 38 39  1  0
 39 42  1  0
 39 41  1  0
 40 38  2  0
 43 44  1  0
 43 18  1  0
 45 43  1  0
 46  5  1  0
 47 48  1  0
 47 46  1  0
 49 50  1  0
 49 48  2  0
 51 62  2  0
 52 50  1  0
 52 57  1  0
 53 61  1  0
 53 63  1  0
 54 60  1  0
 54 56  1  0
 55 61  1  0
 56 55  1  0
 57 56  2  0
 58 59  1  0
 58 52  2  0
 59 54  2  0
 60 53  1  0
 61 51  1  0
 63 65  2  0
 64 63  1  0
 66 64  1  0
 67 76  2  0
 67 72  1  0
 68 64  1  0
 68 72  1  0
 69 68  1  0
 70 71  1  0
 70 69  1  0
 71 67  1  0
 72 73  2  0
 73 74  1  0
 75 74  2  0
 76 75  1  0
 77 51  1  0
 77 82  1  0
 77 78  1  0
 78 81  1  1
 78 79  1  0
 80 78  1  0
 82 85  1  0
 83 87  1  0
 83 82  1  0
 84 83  2  0
 87 86  1  0
 89 87  1  0
 89 90  1  0
 89 88  1  0
M  ISO  4   8 100  16 100  49 101  50 101
M  END
>  <TORSDO>  (30) 
F 20

>  <SCORE>  (30) 
-14.070

>  <name>  (30) 
29

>  <ligand_id>  (30) 
29

>  <original_smiles>  (30) 
[H]c1c([H])c([H])c2c(c1[H])C([H])([H])C([H])([H])C([H])([H])C2([H])N([H])C(=O)C1([H])N(C(=O)C([H])(N([H])C(=O)C([H])(N([H])C([H])([H])[H])C([H])([H])[H])C(C([H])([H])[H])(C([H])([H])[H])C([H])([H])[H])C([H])([H])c2c([H])c(OC([H])([H])C([H])([H])C([H])([H])Oc3c([H])c([H])c(N([H])C(=O)N4C([H])([H])C([H])([H])C([H])([H])C([H])(n5nc(-c6c([H])c([H])c(Oc7c([H])c([H])c(F)c([H])c7F)c([H])c6[H])c(C(=O)N([H])[H])c5N([H])[H])C4([H])[H])c(F)c3[H])c([H])c([H])c2C1([H])[H]

>  <smiles>  (30) 
[H]c1c([H])c([H])c2c(c1[H])C([H])([H])C([H])([H])C([H])([H])C2([H])N([H])C(=O)C1([H])N(C(=O)C([H])(N([H])C(=O)C([H])(N([H])C([H])([H])[H])C([H])([H])[H])C(C([H])([H])[H])(C([H])([H])[H])C([H])([H])[H])C([H])([H])c2c([H])c(OC([H])([H])C([H])([H])C([H])([H])Oc3c([H])c([H])c(N([H])C(=O)N4C([H])([H])C([H])([H])C([H])([H])C([H])(n5nc(-c6c([H])c([H])c(Oc7c([H])c([H])c(F)c([H])c7F)c([H])c6[H])c(C(=O)N([H])[H])c5N([H])[H])C4([H])[H])c(F)c3[H])c([H])c([H])c2C1([H])[H]

$$$$
30:0:0
     RDKit          3D

 93101  0  0  1  0  0  0  0  0999 V2000
  -30.7580  -20.6910   20.9280 C   0  0  0  0  0  3  0  0  0  0  0  0
  -29.4500  -20.5440   20.4100 C   0  0  0  0  0  0  0  0  0  0  0  0
  -29.9720  -17.8780   20.5180 C   0  0  0  0  0  0  0  0  0  0  0  0
  -31.5980  -19.6010   21.2450 C   0  0  0  0  0  0  0  0  0  0  0  0
  -29.1000  -19.0770   20.2200 C   0  0  0  0  0  0  0  0  0  0  0  0
  -31.2250  -18.2500   21.0610 C   0  0  0  0  0  0  0  0  0  0  0  0
  -32.8200  -19.8680   21.7650 F   0  0  0  0  0  0  0  0  0  0  0  0
  -27.8700  -18.7850   19.7360 F   0  0  0  0  0  0  0  0  0  0  0  0
  -32.1040  -17.3070   21.4720 F   0  0  0  0  0  0  0  0  0  0  0  0
  -30.4120  -15.1280   20.2460 C   0  0  0  0  0  0  0  0  0  0  0  0
  -30.2800  -12.7610   19.2880 C   0  0  0  0  0  2  0  0  0  0  0  0
  -29.3200  -12.6780   18.0800 C   0  0  0  0  0  2  0  0  0  0  0  0
  -27.8730  -12.4440   18.5510 C   0  0  0  0  0  2  0  0  0  0  0  0
  -27.4810  -13.3710   19.7310 C   0  0  0  0  0  3  0  0  0  0  0  0
  -28.5640  -13.4190   20.8300 C   0  0  0  0  0  2  0  0  0  0  0  0
  -29.8050  -13.8650   20.1820 N   0  0  0  0  0  0  0  0  0  0  0  0
  -31.6110  -15.1430   19.9510 O   0  0  0  0  0  0  0  0  0  0  0  0
  -29.6480  -16.3490   20.3810 N   0  0  0  0  0  0  0  0  0  0  0  0
  -28.6590  -16.1650   20.4020 H   0  0  0  0  0  0  0  0  0  0  0  0
  -25.1230  -13.9280   20.5440 C   0  0  0  0  0  0  0  0  0  0  0  0
  -24.0710  -13.1450   20.9270 C   0  0  0  0  0  0  0  0  0  0  0  0
  -24.5370  -11.7960   20.8650 C   0  0  0  0  0  0  0  0  0  0  0  0
  -26.1610  -13.0570   20.2630 N   0  0  0  0  0  0  0  0  0  0  0  0
  -25.8210  -11.7670   20.5240 N   0  0  0  0  0  0  0  0  0  0  0  0
  -23.8150  -10.5290   21.0510 C   0  0  0  0  0  0  0  0  0  0  0  0
  -24.2560   -9.5560   21.9750 C   0  0  0  0  0  3  0  0  0  0  0  0
  -23.5330   -8.3560   22.1510 C   0  0  0  0  0  3  0  0  0  0  0  0
  -22.3540   -8.1220   21.4040 C   0  0  0  0  0  0  0  0  0  0  0  0
  -21.9320   -9.0850   20.4690 C   0  0  0  0  0  3  0  0  0  0  0  0
  -22.6570  -10.2750   20.2910 C   0  0  0  0  0  3  0  0  0  0  0  0
  -21.6010   -6.9760   21.4890 O   0  0  0  0  0  0  0  0  0  0  0  0
  -21.5520   -6.2320   22.6410 C   0  0  0  0  0  0  0  0  0  0  0  0
  -21.0940   -6.7770   23.8610 C   0  0  0  0  0  3  0  0  0  0  0  0
  -20.9950   -5.9580   25.0040 C   0  0  0  0  0  3  0  0  0  0  0  0
  -21.3420   -4.5960   24.9270 C   0  0  0  0  0  0  0  0  0  0  0  0
  -21.7920   -4.0510   23.7120 C   0  0  0  0  0  3  0  0  0  0  0  0
  -21.8930   -4.8670   22.5720 C   0  0  0  0  0  0  0  0  0  0  0  0
  -22.3070   -4.3310   21.3980 F   0  0  0  0  0  0  0  0  0  0  0  0
  -21.2380   -3.8080   26.0230 F   0  0  0  0  0  0  0  0  0  0  0  0
  -22.6790  -13.6160   21.2350 C   0  0  0  0  0  0  0  0  0  0  0  0
  -21.9690  -12.9040   22.1020 N   0  0  0  0  0  0  0  0  0  0  0  0
  -22.2320  -14.6510   20.7420 O   0  0  0  0  0  0  0  0  0  0  0  0
  -22.3440  -12.0660   22.5220 H   0  0  0  0  0  0  0  0  0  0  0  0
  -21.0360  -13.2010   22.3510 H   0  0  0  0  0  0  0  0  0  0  0  0
  -25.2770  -15.3020   20.3810 N   0  0  0  0  0  0  0  0  0  0  0  0
  -24.5050  -15.9450   20.5120 H   0  0  0  0  0  0  0  0  0  0  0  0
  -26.0990  -15.7500   19.9980 H   0  0  0  0  0  0  0  0  0  0  0  0
  -28.8710  -23.2800   20.3810 C   0  0  0  0  0  0  0  0  0  0  0  0
  -27.3300  -21.5800   19.4770 C   0  0  0  0  0  1  0  0  0  0  0  0
  -28.6150  -21.8600   20.1230 N   0  0  0  0  0  0  0  0  0  0  0  0
  -29.9140  -23.6120   20.9500 O   0  0  0  0  0  0  0  0  0  0  0  0
  -27.8850  -24.6000   19.9930 C   0  0  0  0  0  2  0  0  0  0  0  0
  -28.2030  -26.1290   20.2880 O   0  0  0  0  0  0  0  0  0  0  0  0
  -24.6370  -31.9200   23.2800 C   0  0  0  0  0  0  0  0  0  0  0  0
  -27.1780  -27.1650   20.2190 C   0  0  0  0  0  0  0  0  0  0  0  0
  -23.4300  -30.5410   21.6350 C   0  0  0  0  0  3  0  0  0  0  0  0
  -24.8690  -28.9630   20.1960 C   0  0  0  0  0  0  0  0  0  0  0  0
  -25.9890  -30.7810   21.4710 C   0  0  0  0  0  2  0  0  0  0  0  0
  -26.0540  -29.3870   20.8090 C   0  0  0  0  0  0  0  0  0  0  0  0
  -27.2090  -28.5050   20.8020 C   0  0  0  0  0  3  0  0  0  0  0  0
  -25.9660  -26.8620   19.5610 C   0  0  0  0  0  3  0  0  0  0  0  0
  -24.8400  -27.7170   19.5540 C   0  0  0  0  0  3  0  0  0  0  0  0
  -23.6460  -29.8720   20.2520 C   0  0  0  0  0  2  0  0  0  0  0  0
  -24.7060  -31.1040   22.1830 N   0  0  0  0  0  0  0  0  0  0  0  0
  -23.5520  -32.2070   23.8100 O   0  0  0  0  0  0  0  0  0  0  0  0
  -22.7450  -29.5330   22.5930 C   0  0  0  0  0  0  0  0  0  0  0  0
  -21.4160  -29.3610   22.4610 N   0  0  0  0  0  0  0  0  0  0  0  0
  -23.4120  -28.9070   23.4210 O   0  0  0  0  0  0  0  0  0  0  0  0
  -20.9330  -29.9170   21.7710 H   0  0  0  0  0  0  0  0  0  0  0  0
  -18.0350  -28.1500   22.9490 C   0  0  0  0  0  0  0  0  0  0  0  0
  -20.5930  -28.4210   23.2270 C   0  0  0  0  0  3  0  0  0  0  0  0
  -20.7000  -26.9890   22.6520 C   0  0  0  0  0  2  0  0  0  0  0  0
  -19.6040  -26.6640   21.6330 C   0  0  0  0  0  2  0  0  0  0  0  0
  -18.2190  -26.8030   22.2710 C   0  0  0  0  0  2  0  0  0  0  0  0
  -19.1500  -28.9170   23.3840 C   0  0  0  0  0  0  0  0  0  0  0  0
  -18.9220  -30.1760   23.9800 C   0  0  0  0  0  3  0  0  0  0  0  0
  -17.6150  -30.6700   24.1450 C   0  0  0  0  0  3  0  0  0  0  0  0
  -16.5150  -29.9020   23.7240 C   0  0  0  0  0  3  0  0  0  0  0  0
  -16.7260  -28.6440   23.1330 C   0  0  0  0  0  3  0  0  0  0  0  0
  -25.9160  -32.5500   23.9090 C   0  0  0  0  0  3  0  0  0  0  0  0
  -25.6130  -33.9520   24.2390 N   0  0  0  0  0  0  0  0  0  0  0  0
  -25.9250  -35.0040   23.4700 C   0  0  0  0  0  0  0  0  0  0  0  0
  -26.5650  -34.8950   22.4210 O   0  0  0  0  0  0  0  0  0  0  0  0
  -25.0410  -34.1100   25.0560 H   0  0  0  0  0  0  0  0  0  0  0  0
  -24.1770  -36.7920   23.1820 C   0  0  0  0  0  1  0  0  0  0  0  0
  -25.4560  -36.3960   23.9370 C   0  0  0  0  0  3  0  0  0  0  0  0
  -27.6190  -37.3030   24.6670 C   0  0  0  0  0  1  0  0  0  0  0  0
  -26.4790  -37.4510   23.7670 N   0  0  0  0  0  0  0  0  0  0  0  0
  -26.0750  -38.3720   23.9170 H   0  0  0  0  0  0  0  0  0  0  0  0
  -26.4150  -31.7820   25.1960 C   0  0  1  0  0  0  0  0  0  0  0  0
  -25.3100  -31.5600   26.2560 C   0  0  0  0  0  1  0  0  0  0  0  0
  -26.9910  -30.3970   24.8220 C   0  0  0  0  0  1  0  0  0  0  0  0
  -27.5650  -32.5710   25.8640 C   0  0  0  0  0  1  0  0  0  0  0  0
  1  4  1  0
  2  1  2  0
  3  6  1  0
  4  7  1  0
  5  2  1  0
  5  3  2  0
  6  4  2  0
  6  9  1  0
  8  5  1  0
 10 18  1  0
 11 16  1  0
 12 13  1  0
 12 11  1  0
 14 13  1  0
 14 23  1  0
 14 15  1  0
 16 10  1  0
 16 15  1  0
 17 10  2  0
 18 19  1  0
 18  3  1  0
 20 21  2  0
 21 40  1  0
 22 21  1  0
 22 25  1  0
 23 24  1  0
 23 20  1  0
 24 22  2  0
 25 26  1  0
 26 27  2  0
 28 31  1  0
 28 27  1  0
 29 28  2  0
 30 29  1  0
 30 25  2  0
 31 32  1  0
 32 33  1  0
 33 34  2  0
 35 34  1  0
 35 39  1  0
 36 35  2  0
 37 32  2  0
 37 36  1  0
 38 37  1  0
 40 41  1  0
 41 44  1  0
 41 43  1  0
 42 40  2  0
 45 46  1  0
 45 20  1  0
 47 45  1  0
 48 51  2  0
 49 50  1  0
 50 48  1  0
 50  2  1  0
 52 53  1  0
 52 48  1  0
 54 65  2  0
 55 53  1  0
 55 60  1  0
 56 64  1  0
 56 66  1  0
 57 63  1  0
 57 59  1  0
 58 64  1  0
 59 58  1  0
 60 59  2  0
 61 55  2  0
 62 61  1  0
 62 57  2  0
 63 56  1  0
 64 54  1  0
 66 68  2  0
 67 66  1  0
 69 67  1  0
 70 79  2  0
 70 75  1  0
 71 67  1  0
 71 75  1  0
 72 71  1  0
 73 74  1  0
 73 72  1  0
 74 70  1  0
 75 76  2  0
 76 77  1  0
 78 77  2  0
 79 78  1  0
 80 54  1  0
 80 81  1  0
 80 90  1  0
 81 84  1  0
 82 86  1  0
 82 81  1  0
 83 82  2  0
 86 85  1  0
 88 89  1  0
 88 86  1  0
 88 87  1  0
 90 93  1  1
 90 91  1  0
 92 90  1  0
M  ISO  4  10 100  18 100  52 101  53 101
M  END
>  <TORSDO>  (31) 
F 18

>  <SCORE>  (31) 
-14.968

>  <name>  (31) 
30

>  <ligand_id>  (31) 
30

>  <original_smiles>  (31) 
[H]c1c([H])c([H])c2c(c1[H])C([H])([H])C([H])([H])C([H])([H])C2([H])N([H])C(=O)C1([H])N(C(=O)C([H])(N([H])C(=O)C([H])(N([H])C([H])([H])[H])C([H])([H])[H])C(C([H])([H])[H])(C([H])([H])[H])C([H])([H])[H])C([H])([H])c2c([H])c(OC([H])([H])C(=O)N(c3c([H])c(F)c(F)c(N([H])C(=O)N4C([H])([H])C([H])([H])C([H])([H])C([H])(n5nc(-c6c([H])c([H])c(Oc7c([H])c([H])c(F)c([H])c7F)c([H])c6[H])c(C(=O)N([H])[H])c5N([H])[H])C4([H])[H])c3F)C([H])([H])[H])c([H])c([H])c2C1([H])[H]

>  <smiles>  (31) 
[H]c1c([H])c([H])c2c(c1[H])C([H])([H])C([H])([H])C([H])([H])C2([H])N([H])C(=O)C1([H])N(C(=O)C([H])(N([H])C(=O)C([H])(N([H])C([H])([H])[H])C([H])([H])[H])C(C([H])([H])[H])(C([H])([H])[H])C([H])([H])[H])C([H])([H])c2c([H])c(OC([H])([H])C(=O)N(c3c([H])c(F)c(F)c(N([H])C(=O)N4C([H])([H])C([H])([H])C([H])([H])C([H])(n5nc(-c6c([H])c([H])c(Oc7c([H])c([H])c(F)c([H])c7F)c([H])c6[H])c(C(=O)N([H])[H])c5N([H])[H])C4([H])[H])c3F)C([H])([H])[H])c([H])c([H])c2C1([H])[H]

$$$$
31:0:0
     RDKit          3D

 94101  0  0  1  0  0  0  0  0999 V2000
  -30.7870  -21.5720   19.9990 C   0  0  0  0  0  1  0  0  0  0  0  0
  -29.3220  -21.3460   20.4390 C   0  0  0  0  0  3  0  0  0  0  0  0
  -28.4930  -22.6060   20.3590 N   0  0  0  0  0  4  0  0  0  0  0  0
  -28.1510  -22.6290   19.4100 H   0  0  0  0  0  0  0  0  0  0  0  0
  -27.6790  -22.4600   20.9400 H   0  0  0  0  0  0  0  0  0  0  0  0
  -29.4710  -24.1170   22.1350 C   0  0  0  0  0  1  0  0  0  0  0  0
  -29.0640  -23.9770   20.6520 C   0  0  0  0  0  3  0  0  0  0  0  0
  -28.0270  -25.0810   20.2250 C   0  0  0  0  0  2  0  0  0  0  0  0
  -28.3280  -26.5100   20.3450 O   0  0  0  0  0  0  0  0  0  0  0  0
  -24.6130  -31.9160   23.2290 C   0  0  0  0  0  0  0  0  0  0  0  0
  -27.2210  -27.3560   20.2380 C   0  0  0  0  0  0  0  0  0  0  0  0
  -23.4150  -30.5160   21.5850 C   0  0  0  0  0  3  0  0  0  0  0  0
  -24.8690  -28.9610   20.1820 C   0  0  0  0  0  0  0  0  0  0  0  0
  -25.9550  -30.8290   21.4250 C   0  0  0  0  0  2  0  0  0  0  0  0
  -26.0310  -29.4500   20.7900 C   0  0  0  0  0  0  0  0  0  0  0  0
  -27.2100  -28.6570   20.8160 C   0  0  0  0  0  3  0  0  0  0  0  0
  -26.0380  -26.9220   19.5870 C   0  0  0  0  0  3  0  0  0  0  0  0
  -24.8720  -27.7010   19.5710 C   0  0  0  0  0  3  0  0  0  0  0  0
  -23.6340  -29.8320   20.2120 C   0  0  0  0  0  2  0  0  0  0  0  0
  -24.6790  -31.1040   22.1360 N   0  0  0  0  0  0  0  0  0  0  0  0
  -23.5260  -32.2050   23.7500 O   0  0  0  0  0  0  0  0  0  0  0  0
  -22.7390  -29.5060   22.5410 C   0  0  0  0  0  0  0  0  0  0  0  0
  -21.4120  -29.3490   22.4120 N   0  0  0  0  0  0  0  0  0  0  0  0
  -23.4060  -28.8680   23.3600 O   0  0  0  0  0  0  0  0  0  0  0  0
  -20.9340  -29.9150   21.7250 H   0  0  0  0  0  0  0  0  0  0  0  0
  -18.0060  -28.2530   22.9320 C   0  0  0  0  0  0  0  0  0  0  0  0
  -20.5740  -28.4260   23.1770 C   0  0  0  0  0  3  0  0  0  0  0  0
  -20.6240  -27.0010   22.5800 C   0  0  0  0  0  2  0  0  0  0  0  0
  -19.5000  -26.7270   21.5750 C   0  0  0  0  0  2  0  0  0  0  0  0
  -18.1310  -26.9070   22.2380 C   0  0  0  0  0  2  0  0  0  0  0  0
  -19.1530  -28.9730   23.3590 C   0  0  0  0  0  0  0  0  0  0  0  0
  -18.9800  -30.2370   23.9660 C   0  0  0  0  0  3  0  0  0  0  0  0
  -17.6940  -30.7760   24.1530 C   0  0  0  0  0  3  0  0  0  0  0  0
  -16.5620  -30.0510   23.7440 C   0  0  0  0  0  3  0  0  0  0  0  0
  -16.7190  -28.7910   23.1410 C   0  0  0  0  0  3  0  0  0  0  0  0
  -25.8950  -32.5390   23.8620 C   0  0  0  0  0  3  0  0  0  0  0  0
  -25.5910  -33.9350   24.1960 N   0  0  0  0  0  0  0  0  0  0  0  0
  -25.9120  -34.9890   23.4340 C   0  0  0  0  0  0  0  0  0  0  0  0
  -26.5680  -34.8870   22.3930 O   0  0  0  0  0  0  0  0  0  0  0  0
  -25.0100  -34.0900   25.0080 H   0  0  0  0  0  0  0  0  0  0  0  0
  -24.1750  -36.7780   23.1010 C   0  0  0  0  0  1  0  0  0  0  0  0
  -25.4280  -36.3760   23.8970 C   0  0  0  0  0  3  0  0  0  0  0  0
  -27.5670  -37.2700   24.7060 C   0  0  0  0  0  1  0  0  0  0  0  0
  -26.4560  -37.4330   23.7720 N   0  0  0  0  0  0  0  0  0  0  0  0
  -26.0490  -38.3520   23.9190 H   0  0  0  0  0  0  0  0  0  0  0  0
  -26.4020  -31.7590   25.1350 C   0  0  1  0  0  0  0  0  0  0  0  0
  -25.2990  -31.5140   26.1920 C   0  0  0  0  0  1  0  0  0  0  0  0
  -26.9870  -30.3840   24.7370 C   0  0  0  0  0  1  0  0  0  0  0  0
  -27.5450  -32.5490   25.8140 C   0  0  0  0  0  1  0  0  0  0  0  0
  -28.6320  -20.6550   18.1040 C   0  0  0  0  0  1  0  0  0  0  0  0
  -28.6420  -20.1860   19.5940 C   0  0  0  0  0  3  0  0  0  0  0  0
  -29.9240  -18.2480   20.7270 C   0  0  0  0  0  0  0  0  0  0  0  0
  -28.6240  -17.8040   18.7460 C   0  0  0  0  0  1  0  0  0  0  0  0
  -29.1910  -18.7760   19.7020 N   0  0  0  0  0  0  0  0  0  0  0  0
  -30.0260  -18.8050   21.8180 O   0  0  0  0  0  0  0  0  0  0  0  0
  -30.7620  -16.9560   20.4890 C   0  0  0  0  0  2  0  0  0  0  0  0
  -30.7510  -14.5040   20.2330 C   0  0  0  0  0  0  0  0  0  0  0  0
  -30.3340  -12.3570   19.0990 C   0  0  0  0  0  2  0  0  0  0  0  0
  -29.3710  -12.5880   17.9190 C   0  0  0  0  0  2  0  0  0  0  0  0
  -27.9120  -12.4620   18.3950 C   0  0  0  0  0  2  0  0  0  0  0  0
  -27.6250  -13.2940   19.6740 C   0  0  0  0  0  3  0  0  0  0  0  0
  -28.7140  -13.0810   20.7500 C   0  0  0  0  0  2  0  0  0  0  0  0
  -30.0180  -13.3580   20.1330 N   0  0  0  0  0  0  0  0  0  0  0  0
  -31.8810  -14.5940   19.7500 O   0  0  0  0  0  0  0  0  0  0  0  0
  -30.1440  -15.6180   20.6970 N   0  0  0  0  0  0  0  0  0  0  0  0
  -29.2120  -15.5630   21.0790 H   0  0  0  0  0  0  0  0  0  0  0  0
  -25.2630  -13.9130   20.4790 C   0  0  0  0  0  0  0  0  0  0  0  0
  -24.1970  -13.1490   20.8760 C   0  0  0  0  0  0  0  0  0  0  0  0
  -24.6380  -11.7920   20.8020 C   0  0  0  0  0  0  0  0  0  0  0  0
  -26.2860  -13.0240   20.1960 N   0  0  0  0  0  0  0  0  0  0  0  0
  -25.9160  -11.7420   20.4480 N   0  0  0  0  0  0  0  0  0  0  0  0
  -23.8990  -10.5370   20.9920 C   0  0  0  0  0  0  0  0  0  0  0  0
  -24.3320   -9.5590   21.9150 C   0  0  0  0  0  3  0  0  0  0  0  0
  -23.5990   -8.3660   22.0910 C   0  0  0  0  0  3  0  0  0  0  0  0
  -22.4160   -8.1450   21.3470 C   0  0  0  0  0  0  0  0  0  0  0  0
  -22.0020   -9.1090   20.4120 C   0  0  0  0  0  3  0  0  0  0  0  0
  -22.7350  -10.2950   20.2330 C   0  0  0  0  0  3  0  0  0  0  0  0
  -21.6490   -7.0090   21.4420 O   0  0  0  0  0  0  0  0  0  0  0  0
  -21.5800   -6.2800   22.6030 C   0  0  0  0  0  0  0  0  0  0  0  0
  -21.1060   -6.8410   23.8100 C   0  0  0  0  0  3  0  0  0  0  0  0
  -20.9870   -6.0350   24.9610 C   0  0  0  0  0  3  0  0  0  0  0  0
  -21.3300   -4.6710   24.9060 C   0  0  0  0  0  0  0  0  0  0  0  0
  -21.7950   -4.1090   23.7020 C   0  0  0  0  0  3  0  0  0  0  0  0
  -21.9180   -4.9130   22.5550 C   0  0  0  0  0  0  0  0  0  0  0  0
  -22.3480   -4.3620   21.3940 F   0  0  0  0  0  0  0  0  0  0  0  0
  -21.2060   -3.8950   26.0070 F   0  0  0  0  0  0  0  0  0  0  0  0
  -22.8180  -13.6410   21.2080 C   0  0  0  0  0  0  0  0  0  0  0  0
  -22.1070  -12.9380   22.0850 N   0  0  0  0  0  0  0  0  0  0  0  0
  -22.3790  -14.6850   20.7270 O   0  0  0  0  0  0  0  0  0  0  0  0
  -22.4710  -12.0920   22.5000 H   0  0  0  0  0  0  0  0  0  0  0  0
  -21.1810  -13.2490   22.3410 H   0  0  0  0  0  0  0  0  0  0  0  0
  -25.4450  -15.2830   20.3200 N   0  0  0  0  0  0  0  0  0  0  0  0
  -24.6960  -15.9490   20.4660 H   0  0  0  0  0  0  0  0  0  0  0  0
  -26.2860  -15.7100   19.9510 H   0  0  0  0  0  0  0  0  0  0  0  0
  2  1  1  0
  3  2  1  0
  3  7  1  0
  3  5  1  0
  4  3  1  0
  7  6  1  0
  8  9  1  0
  8  7  1  0
 10 21  2  0
 11  9  1  0
 11 16  1  0
 12 20  1  0
 12 22  1  0
 13 19  1  0
 13 15  1  0
 14 20  1  0
 15 16  2  0
 15 14  1  0
 17 11  2  0
 18 17  1  0
 18 13  2  0
 19 12  1  0
 20 10  1  0
 22 24  2  0
 23 22  1  0
 25 23  1  0
 26 35  2  0
 26 31  1  0
 27 23  1  0
 27 31  1  0
 28 27  1  0
 29 30  1  0
 29 28  1  0
 30 26  1  0
 31 32  2  0
 32 33  1  0
 34 33  2  0
 35 34  1  0
 36 10  1  0
 36 37  1  0
 36 46  1  0
 37 40  1  0
 38 42  1  0
 38 37  1  0
 39 38  2  0
 42 41  1  0
 44 42  1  0
 44 45  1  0
 44 43  1  0
 46 49  1  1
 46 47  1  0
 48 46  1  0
 51 50  1  0
 51 54  1  0
 51  2  1  0
 52 55  2  0
 53 54  1  0
 54 52  1  0
 56 65  1  0
 56 52  1  0
 57 65  1  0
 58 63  1  0
 59 60  1  0
 59 58  1  0
 61 60  1  0
 61 70  1  0
 61 62  1  0
 63 57  1  0
 63 62  1  0
 64 57  2  0
 65 66  1  0
 67 68  2  0
 68 87  1  0
 69 68  1  0
 69 72  1  0
 70 71  1  0
 70 67  1  0
 71 69  2  0
 72 73  1  0
 73 74  2  0
 75 78  1  0
 75 74  1  0
 76 75  2  0
 77 76  1  0
 77 72  2  0
 78 79  1  0
 79 80  1  0
 80 81  2  0
 82 81  1  0
 82 86  1  0
 83 82  2  0
 84 79  2  0
 84 83  1  0
 85 84  1  0
 87 88  1  0
 88 91  1  0
 88 90  1  0
 89 87  2  0
 92 93  1  0
 92 67  1  0
 94 92  1  0
M  ISO  4   8 101   9 101  57 100  65 100
M  END
>  <TORSDO>  (32) 
F 22

>  <SCORE>  (32) 
-13.138

>  <name>  (32) 
31

>  <ligand_id>  (32) 
31

>  <original_smiles>  (32) 
[H]c1c([H])c([H])c2c(c1[H])C([H])([H])C([H])([H])C([H])([H])C2([H])N([H])C(=O)C1([H])N(C(=O)C([H])(N([H])C(=O)C([H])(N([H])C([H])([H])[H])C([H])([H])[H])C(C([H])([H])[H])(C([H])([H])[H])C([H])([H])[H])C([H])([H])c2c([H])c(OC([H])([H])C([H])(C([H])([H])[H])[N+]([H])([H])C([H])(C([H])([H])[H])C([H])(N(C(=O)C([H])([H])N([H])C(=O)N3C([H])([H])C([H])([H])C([H])([H])C([H])(n4nc(-c5c([H])c([H])c(Oc6c([H])c([H])c(F)c([H])c6F)c([H])c5[H])c(C(=O)N([H])[H])c4N([H])[H])C3([H])[H])C([H])([H])[H])C([H])([H])[H])c([H])c([H])c2C1([H])[H]

>  <smiles>  (32) 
[H]c1c([H])c([H])c2c(c1[H])C([H])([H])C([H])([H])C([H])([H])C2([H])N([H])C(=O)C1([H])N(C(=O)C([H])(N([H])C(=O)C([H])(N([H])C([H])([H])[H])C([H])([H])[H])C(C([H])([H])[H])(C([H])([H])[H])C([H])([H])[H])C([H])([H])c2c([H])c(OC([H])([H])C([H])(C([H])([H])[H])[N+]([H])([H])C([H])(C([H])([H])[H])C([H])(N(C(=O)C([H])([H])N([H])C(=O)N3C([H])([H])C([H])([H])C([H])([H])C([H])(n4nc(-c5c([H])c([H])c(Oc6c([H])c([H])c(F)c([H])c6F)c([H])c5[H])c(C(=O)N([H])[H])c4N([H])[H])C3([H])[H])C([H])([H])[H])C([H])([H])[H])c([H])c([H])c2C1([H])[H]

$$$$
32:0:0
     RDKit          3D

 92100  0  0  1  0  0  0  0  0999 V2000
  -30.3650  -18.6290   21.0640 C   0  0  0  0  0  3  0  0  0  0  0  0
  -28.3240  -19.6300   19.5020 C   0  0  0  0  0  3  0  0  0  0  0  0
  -29.6150  -17.6100   20.3690 C   0  0  0  0  0  0  0  0  0  0  0  0
  -29.0340  -20.6550   20.2100 C   0  0  0  0  0  0  0  0  0  0  0  0
  -30.0980  -20.0700   20.9940 C   0  0  0  0  0  0  0  0  0  0  0  0
  -28.5850  -18.2090   19.5740 C   0  0  0  0  0  0  0  0  0  0  0  0
  -30.8760  -20.8900   21.7370 F   0  0  0  0  0  0  0  0  0  0  0  0
  -27.5600  -17.1700   18.6510 Cl  0  0  0  0  0  0  0  0  0  0  0  0
  -30.5030  -14.9840   20.3620 C   0  0  0  0  0  0  0  0  0  0  0  0
  -30.4090  -12.6450   19.3920 C   0  0  0  0  0  2  0  0  0  0  0  0
  -29.4670  -12.6350   18.1650 C   0  0  0  0  0  2  0  0  0  0  0  0
  -28.0010  -12.4270   18.5940 C   0  0  0  0  0  2  0  0  0  0  0  0
  -27.6020  -13.3280   19.7920 C   0  0  0  0  0  3  0  0  0  0  0  0
  -28.6630  -13.2950   20.9140 C   0  0  0  0  0  2  0  0  0  0  0  0
  -29.9400  -13.7120   20.3160 N   0  0  0  0  0  0  0  0  0  0  0  0
  -31.6980  -15.1040   20.0690 O   0  0  0  0  0  0  0  0  0  0  0  0
  -29.6410  -16.0860   20.5630 N   0  0  0  0  0  0  0  0  0  0  0  0
  -28.7060  -15.7290   20.6820 H   0  0  0  0  0  0  0  0  0  0  0  0
  -25.2170  -13.9070   20.5260 C   0  0  0  0  0  0  0  0  0  0  0  0
  -24.1530  -13.1300   20.8940 C   0  0  0  0  0  0  0  0  0  0  0  0
  -24.6190  -11.7800   20.8590 C   0  0  0  0  0  0  0  0  0  0  0  0
  -26.2610  -13.0300   20.2840 N   0  0  0  0  0  0  0  0  0  0  0  0
  -25.9100  -11.7460   20.5510 N   0  0  0  0  0  0  0  0  0  0  0  0
  -23.8930  -10.5170   21.0450 C   0  0  0  0  0  0  0  0  0  0  0  0
  -24.3220   -9.5490   21.9800 C   0  0  0  0  0  3  0  0  0  0  0  0
  -23.5950   -8.3510   22.1540 C   0  0  0  0  0  3  0  0  0  0  0  0
  -22.4260   -8.1140   21.3930 C   0  0  0  0  0  0  0  0  0  0  0  0
  -22.0170   -9.0700   20.4470 C   0  0  0  0  0  3  0  0  0  0  0  0
  -22.7440  -10.2600   20.2710 C   0  0  0  0  0  3  0  0  0  0  0  0
  -21.6710   -6.9690   21.4760 O   0  0  0  0  0  0  0  0  0  0  0  0
  -21.6100   -6.2300   22.6300 C   0  0  0  0  0  0  0  0  0  0  0  0
  -21.1550   -6.7830   23.8460 C   0  0  0  0  0  3  0  0  0  0  0  0
  -21.0430   -5.9690   24.9920 C   0  0  0  0  0  3  0  0  0  0  0  0
  -21.3750   -4.6030   24.9200 C   0  0  0  0  0  0  0  0  0  0  0  0
  -21.8230   -4.0490   23.7090 C   0  0  0  0  0  3  0  0  0  0  0  0
  -21.9370   -4.8600   22.5650 C   0  0  0  0  0  0  0  0  0  0  0  0
  -22.3490   -4.3160   21.3950 F   0  0  0  0  0  0  0  0  0  0  0  0
  -21.2600   -3.8190   26.0180 F   0  0  0  0  0  0  0  0  0  0  0  0
  -22.7550  -13.6070   21.1610 C   0  0  0  0  0  0  0  0  0  0  0  0
  -22.0270  -12.9130   22.0290 N   0  0  0  0  0  0  0  0  0  0  0  0
  -22.3150  -14.6280   20.6340 O   0  0  0  0  0  0  0  0  0  0  0  0
  -22.3950  -12.0880   22.4780 H   0  0  0  0  0  0  0  0  0  0  0  0
  -21.0890  -13.2140   22.2500 H   0  0  0  0  0  0  0  0  0  0  0  0
  -25.3720  -15.2770   20.3510 N   0  0  0  0  0  0  0  0  0  0  0  0
  -24.5830  -15.9080   20.4350 H   0  0  0  0  0  0  0  0  0  0  0  0
  -26.1700  -15.7110   19.9020 H   0  0  0  0  0  0  0  0  0  0  0  0
  -28.9040  -23.4320   20.4520 C   0  0  0  0  0  0  0  0  0  0  0  0
  -28.5560  -22.1110   20.0690 N   0  0  0  0  0  0  0  0  0  0  0  0
  -29.9330  -23.6480   21.0950 O   0  0  0  0  0  0  0  0  0  0  0  0
  -27.7070  -22.1580   19.5230 H   0  0  0  0  0  0  0  0  0  0  0  0
  -27.9470  -24.7240   20.0480 C   0  0  0  0  0  2  0  0  0  0  0  0
  -28.2620  -26.2150   20.3670 O   0  0  0  0  0  0  0  0  0  0  0  0
  -24.6420  -31.9310   23.3010 C   0  0  0  0  0  0  0  0  0  0  0  0
  -27.2190  -27.2120   20.2820 C   0  0  0  0  0  0  0  0  0  0  0  0
  -23.4460  -30.5410   21.6560 C   0  0  0  0  0  3  0  0  0  0  0  0
  -24.8960  -28.9640   20.2380 C   0  0  0  0  0  0  0  0  0  0  0  0
  -26.0020  -30.7950   21.5060 C   0  0  0  0  0  2  0  0  0  0  0  0
  -26.0740  -29.4040   20.8550 C   0  0  0  0  0  0  0  0  0  0  0  0
  -27.2360  -28.5430   20.8620 C   0  0  0  0  0  3  0  0  0  0  0  0
  -26.0150  -26.8780   19.6190 C   0  0  0  0  0  3  0  0  0  0  0  0
  -24.8790  -27.7140   19.6050 C   0  0  0  0  0  3  0  0  0  0  0  0
  -23.6720  -29.8640   20.2790 C   0  0  0  0  0  2  0  0  0  0  0  0
  -24.7170  -31.1100   22.2090 N   0  0  0  0  0  0  0  0  0  0  0  0
  -23.5550  -32.2210   23.8220 O   0  0  0  0  0  0  0  0  0  0  0  0
  -22.7580  -29.5360   22.6140 C   0  0  0  0  0  0  0  0  0  0  0  0
  -21.4300  -29.3690   22.4790 N   0  0  0  0  0  0  0  0  0  0  0  0
  -23.4210  -28.9080   23.4430 O   0  0  0  0  0  0  0  0  0  0  0  0
  -20.9510  -29.9240   21.7840 H   0  0  0  0  0  0  0  0  0  0  0  0
  -18.0400  -28.1860   22.9630 C   0  0  0  0  0  0  0  0  0  0  0  0
  -20.5990  -28.4370   23.2450 C   0  0  0  0  0  3  0  0  0  0  0  0
  -20.6970  -27.0030   22.6750 C   0  0  0  0  0  2  0  0  0  0  0  0
  -19.6000  -26.6830   21.6540 C   0  0  0  0  0  2  0  0  0  0  0  0
  -18.2150  -26.8350   22.2900 C   0  0  0  0  0  2  0  0  0  0  0  0
  -19.1590  -28.9450   23.3980 C   0  0  0  0  0  0  0  0  0  0  0  0
  -18.9410  -30.2090   23.9880 C   0  0  0  0  0  3  0  0  0  0  0  0
  -17.6360  -30.7130   24.1480 C   0  0  0  0  0  3  0  0  0  0  0  0
  -16.5320  -29.9510   23.7290 C   0  0  0  0  0  3  0  0  0  0  0  0
  -16.7340  -28.6900   23.1420 C   0  0  0  0  0  3  0  0  0  0  0  0
  -25.9200  -32.5610   23.9330 C   0  0  0  0  0  3  0  0  0  0  0  0
  -25.6150  -33.9640   24.2570 N   0  0  0  0  0  0  0  0  0  0  0  0
  -25.9310  -35.0120   23.4840 C   0  0  0  0  0  0  0  0  0  0  0  0
  -26.5760  -34.9000   22.4390 O   0  0  0  0  0  0  0  0  0  0  0  0
  -25.0370  -34.1250   25.0680 H   0  0  0  0  0  0  0  0  0  0  0  0
  -24.1800  -36.7950   23.1780 C   0  0  0  0  0  1  0  0  0  0  0  0
  -25.4560  -36.4050   23.9420 C   0  0  0  0  0  3  0  0  0  0  0  0
  -27.6160  -37.3150   24.6770 C   0  0  0  0  0  1  0  0  0  0  0  0
  -26.4780  -37.4610   23.7730 N   0  0  0  0  0  0  0  0  0  0  0  0
  -26.0720  -38.3820   23.9200 H   0  0  0  0  0  0  0  0  0  0  0  0
  -26.4140  -31.7960   25.2240 C   0  0  1  0  0  0  0  0  0  0  0  0
  -25.3060  -31.5760   26.2800 C   0  0  0  0  0  1  0  0  0  0  0  0
  -26.9910  -30.4100   24.8540 C   0  0  0  0  0  1  0  0  0  0  0  0
  -27.5640  -32.5870   25.8930 C   0  0  0  0  0  1  0  0  0  0  0  0
  2  6  2  0
  2  4  1  0
  3 17  1  0
  3  1  2  0
  4  5  2  0
  5  1  1  0
  5  7  1  0
  6  3  1  0
  8  6  1  0
  9 17  1  0
 10 15  1  0
 11 12  1  0
 11 10  1  0
 13 12  1  0
 13 22  1  0
 13 14  1  0
 15  9  1  0
 15 14  1  0
 16  9  2  0
 17 18  1  0
 19 20  2  0
 20 39  1  0
 21 20  1  0
 21 24  1  0
 22 19  1  0
 22 23  1  0
 23 21  2  0
 24 25  1  0
 25 26  2  0
 27 30  1  0
 27 26  1  0
 28 27  2  0
 29 28  1  0
 29 24  2  0
 30 31  1  0
 31 32  1  0
 32 33  2  0
 34 33  1  0
 34 38  1  0
 35 34  2  0
 36 31  2  0
 36 35  1  0
 37 36  1  0
 39 40  1  0
 40 43  1  0
 40 42  1  0
 41 39  2  0
 44 45  1  0
 44 19  1  0
 46 44  1  0
 47 49  2  0
 48  4  1  0
 48 47  1  0
 50 48  1  0
 51 52  1  0
 51 47  1  0
 53 64  2  0
 54 52  1  0
 54 59  1  0
 55 63  1  0
 55 65  1  0
 56 62  1  0
 56 58  1  0
 57 63  1  0
 58 59  2  0
 58 57  1  0
 60 54  2  0
 61 60  1  0
 61 56  2  0
 62 55  1  0
 63 53  1  0
 65 67  2  0
 66 65  1  0
 68 66  1  0
 69 78  2  0
 69 74  1  0
 70 66  1  0
 70 74  1  0
 71 70  1  0
 72 73  1  0
 72 71  1  0
 73 69  1  0
 74 75  2  0
 75 76  1  0
 77 76  2  0
 78 77  1  0
 79 53  1  0
 79 80  1  0
 79 89  1  0
 80 83  1  0
 81 85  1  0
 81 80  1  0
 82 81  2  0
 85 84  1  0
 87 88  1  0
 87 85  1  0
 87 86  1  0
 89 92  1  1
 89 90  1  0
 91 89  1  0
M  ISO  4   9 100  17 100  51 101  52 101
M  END
>  <TORSDO>  (33) 
F 18

>  <SCORE>  (33) 
-14.892

>  <name>  (33) 
32

>  <ligand_id>  (33) 
32

>  <original_smiles>  (33) 
[H]c1c([H])c([H])c2c(c1[H])C([H])([H])C([H])([H])C([H])([H])C2([H])N([H])C(=O)C1([H])N(C(=O)C([H])(N([H])C(=O)C([H])(N([H])C([H])([H])[H])C([H])([H])[H])C(C([H])([H])[H])(C([H])([H])[H])C([H])([H])[H])C([H])([H])c2c([H])c(OC([H])([H])C(=O)N([H])c3c([H])c(Cl)c(N([H])C(=O)N4C([H])([H])C([H])([H])C([H])([H])C([H])(n5nc(-c6c([H])c([H])c(Oc7c([H])c([H])c(F)c([H])c7F)c([H])c6[H])c(C(=O)N([H])[H])c5N([H])[H])C4([H])[H])c([H])c3F)c([H])c([H])c2C1([H])[H]

>  <smiles>  (33) 
[H]c1c([H])c([H])c2c(c1[H])C([H])([H])C([H])([H])C([H])([H])C2([H])N([H])C(=O)C1([H])N(C(=O)C([H])(N([H])C(=O)C([H])(N([H])C([H])([H])[H])C([H])([H])[H])C(C([H])([H])[H])(C([H])([H])[H])C([H])([H])[H])C([H])([H])c2c([H])c(OC([H])([H])C(=O)N([H])c3c([H])c(Cl)c(N([H])C(=O)N4C([H])([H])C([H])([H])C([H])([H])C([H])(n5nc(-c6c([H])c([H])c(Oc7c([H])c([H])c(F)c([H])c7F)c([H])c6[H])c(C(=O)N([H])[H])c5N([H])[H])C4([H])[H])c([H])c3F)c([H])c([H])c2C1([H])[H]

$$$$
33:0:0
     RDKit          3D

 94102  0  0  1  0  0  0  0  0999 V2000
  -29.8890  -18.5900   20.8900 C   0  0  0  0  0  3  0  0  0  0  0  0
  -30.6920  -19.9470   19.0520 C   0  0  0  0  0  3  0  0  0  0  0  0
  -29.9770  -19.9080   20.2670 C   0  0  0  0  0  0  0  0  0  0  0  0
  -30.4270  -17.3690   20.2890 C   0  0  0  0  0  0  0  0  0  0  0  0
  -30.9840  -17.4950   18.9800 C   0  0  0  0  0  0  0  0  0  0  0  0
  -31.1710  -18.7890   18.4210 C   0  0  0  0  0  0  0  0  0  0  0  0
  -31.8310  -18.9720   17.2490 F   0  0  0  0  0  0  0  0  0  0  0  0
  -31.0780  -14.8700   20.6360 C   0  0  0  0  0  0  0  0  0  0  0  0
  -30.8620  -12.6570   19.5170 C   0  0  0  0  0  2  0  0  0  0  0  0
  -29.9660  -12.8350   18.2720 C   0  0  0  0  0  2  0  0  0  0  0  0
  -28.4750  -12.7150   18.6280 C   0  0  0  0  0  2  0  0  0  0  0  0
  -28.0990  -13.5350   19.8880 C   0  0  0  0  0  3  0  0  0  0  0  0
  -29.1050  -13.3170   21.0380 C   0  0  0  0  0  2  0  0  0  0  0  0
  -30.4350  -13.6580   20.5220 N   0  0  0  0  0  0  0  0  0  0  0  0
  -32.2820  -14.9510   20.3670 O   0  0  0  0  0  0  0  0  0  0  0  0
  -30.3210  -16.0090   20.8880 N   0  0  0  0  0  0  0  0  0  0  0  0
  -29.4400  -15.8220   21.3430 H   0  0  0  0  0  0  0  0  0  0  0  0
  -25.6880  -14.1850   20.4750 C   0  0  0  0  0  0  0  0  0  0  0  0
  -24.5860  -13.4370   20.7830 C   0  0  0  0  0  0  0  0  0  0  0  0
  -25.0180  -12.0740   20.7840 C   0  0  0  0  0  0  0  0  0  0  0  0
  -26.7240  -13.2810   20.3040 N   0  0  0  0  0  0  0  0  0  0  0  0
  -26.3250  -12.0070   20.5520 N   0  0  0  0  0  0  0  0  0  0  0  0
  -24.2550  -10.8300   20.9330 C   0  0  0  0  0  0  0  0  0  0  0  0
  -24.6170   -9.8520   21.8860 C   0  0  0  0  0  3  0  0  0  0  0  0
  -23.8540   -8.6720   22.0220 C   0  0  0  0  0  3  0  0  0  0  0  0
  -22.7180   -8.4610   21.2050 C   0  0  0  0  0  0  0  0  0  0  0  0
  -22.3780   -9.4270   20.2420 C   0  0  0  0  0  3  0  0  0  0  0  0
  -23.1380  -10.5990   20.1040 C   0  0  0  0  0  3  0  0  0  0  0  0
  -21.9330   -7.3320   21.2490 O   0  0  0  0  0  0  0  0  0  0  0  0
  -21.7910   -6.6000   22.4000 C   0  0  0  0  0  0  0  0  0  0  0  0
  -21.3140   -7.1790   23.5970 C   0  0  0  0  0  3  0  0  0  0  0  0
  -21.1140   -6.3750   24.7370 C   0  0  0  0  0  3  0  0  0  0  0  0
  -21.3830   -4.9930   24.6830 C   0  0  0  0  0  0  0  0  0  0  0  0
  -21.8500   -4.4160   23.4880 C   0  0  0  0  0  3  0  0  0  0  0  0
  -22.0520   -5.2150   22.3510 C   0  0  0  0  0  0  0  0  0  0  0  0
  -22.4820   -4.6500   21.1980 F   0  0  0  0  0  0  0  0  0  0  0  0
  -21.1850   -4.2190   25.7740 F   0  0  0  0  0  0  0  0  0  0  0  0
  -23.1850  -13.9410   20.9710 C   0  0  0  0  0  0  0  0  0  0  0  0
  -22.4020  -13.2770   21.8140 N   0  0  0  0  0  0  0  0  0  0  0  0
  -22.7930  -14.9620   20.4050 O   0  0  0  0  0  0  0  0  0  0  0  0
  -22.7330  -12.4550   22.2990 H   0  0  0  0  0  0  0  0  0  0  0  0
  -21.4550  -13.5910   21.9730 H   0  0  0  0  0  0  0  0  0  0  0  0
  -25.8960  -15.5510   20.3000 N   0  0  0  0  0  0  0  0  0  0  0  0
  -25.1400  -16.2270   20.3420 H   0  0  0  0  0  0  0  0  0  0  0  0
  -26.7740  -15.9690   20.0240 H   0  0  0  0  0  0  0  0  0  0  0  0
  -29.1780  -22.3880   20.1460 C   0  0  0  0  0  0  0  0  0  0  0  0
  -29.4580  -21.1970   20.8150 N   0  0  0  0  0  0  0  0  0  0  0  0
  -29.1320  -22.4080   18.9140 O   0  0  0  0  0  0  0  0  0  0  0  0
  -29.3380  -21.2300   21.8190 H   0  0  0  0  0  0  0  0  0  0  0  0
  -28.8680  -23.7840   20.8630 C   0  0  0  0  0  2  0  0  0  0  0  0
  -28.1900  -24.9560   19.9680 C   0  0  0  0  0  2  0  0  0  0  0  0
  -28.3500  -26.4210   20.2780 O   0  0  0  0  0  0  0  0  0  0  0  0
  -24.6270  -31.9110   23.2110 C   0  0  0  0  0  0  0  0  0  0  0  0
  -27.2480  -27.3060   20.1860 C   0  0  0  0  0  0  0  0  0  0  0  0
  -23.4260  -30.4930   21.5910 C   0  0  0  0  0  3  0  0  0  0  0  0
  -24.8820  -28.9450   20.1640 C   0  0  0  0  0  0  0  0  0  0  0  0
  -25.9660  -30.8160   21.3950 C   0  0  0  0  0  2  0  0  0  0  0  0
  -26.0520  -29.4280   20.7610 C   0  0  0  0  0  0  0  0  0  0  0  0
  -27.2320  -28.6190   20.7680 C   0  0  0  0  0  3  0  0  0  0  0  0
  -26.0570  -26.9040   19.5320 C   0  0  0  0  0  3  0  0  0  0  0  0
  -24.8880  -27.6890   19.5440 C   0  0  0  0  0  3  0  0  0  0  0  0
  -23.6390  -29.8140   20.2140 C   0  0  0  0  0  2  0  0  0  0  0  0
  -24.6940  -31.0900   22.1230 N   0  0  0  0  0  0  0  0  0  0  0  0
  -23.5430  -32.1860   23.7460 O   0  0  0  0  0  0  0  0  0  0  0  0
  -22.7780  -29.4740   22.5570 C   0  0  0  0  0  0  0  0  0  0  0  0
  -21.4550  -29.2760   22.4310 N   0  0  0  0  0  0  0  0  0  0  0  0
  -23.4660  -28.8640   23.3800 O   0  0  0  0  0  0  0  0  0  0  0  0
  -20.9600  -29.8170   21.7360 H   0  0  0  0  0  0  0  0  0  0  0  0
  -18.0900  -28.0620   22.9670 C   0  0  0  0  0  0  0  0  0  0  0  0
  -20.6490  -28.3400   23.2170 C   0  0  0  0  0  3  0  0  0  0  0  0
  -20.7580  -26.9050   22.6510 C   0  0  0  0  0  2  0  0  0  0  0  0
  -19.6500  -26.5670   21.6480 C   0  0  0  0  0  2  0  0  0  0  0  0
  -18.2720  -26.7090   22.3000 C   0  0  0  0  0  2  0  0  0  0  0  0
  -19.2070  -28.8340   23.3850 C   0  0  0  0  0  0  0  0  0  0  0  0
  -18.9830  -30.1000   23.9700 C   0  0  0  0  0  3  0  0  0  0  0  0
  -17.6760  -30.5910   24.1440 C   0  0  0  0  0  3  0  0  0  0  0  0
  -16.5740  -29.8160   23.7420 C   0  0  0  0  0  3  0  0  0  0  0  0
  -16.7810  -28.5550   23.1560 C   0  0  0  0  0  3  0  0  0  0  0  0
  -25.9060  -32.5590   23.8220 C   0  0  0  0  0  3  0  0  0  0  0  0
  -26.4410  -31.7940   25.0940 C   0  0  1  0  0  0  0  0  0  0  0  0
  -25.3510  -31.5270   26.1610 C   0  0  0  0  0  1  0  0  0  0  0  0
  -27.0580  -30.4320   24.6990 C   0  0  0  0  0  1  0  0  0  0  0  0
  -27.5730  -32.6070   25.7600 C   0  0  0  0  0  1  0  0  0  0  0  0
  -25.5810  -33.9550   24.1560 N   0  0  0  0  0  0  0  0  0  0  0  0
  -25.9190  -35.0150   23.4100 C   0  0  0  0  0  0  0  0  0  0  0  0
  -26.6100  -34.9210   22.3900 O   0  0  0  0  0  0  0  0  0  0  0  0
  -24.9660  -34.1010   24.9430 H   0  0  0  0  0  0  0  0  0  0  0  0
  -24.1850  -36.7980   23.0330 C   0  0  0  0  0  1  0  0  0  0  0  0
  -25.4120  -36.3940   23.8670 C   0  0  0  0  0  3  0  0  0  0  0  0
  -27.5230  -37.2880   24.7440 C   0  0  0  0  0  1  0  0  0  0  0  0
  -26.4370  -37.4560   23.7820 N   0  0  0  0  0  0  0  0  0  0  0  0
  -26.0220  -38.3710   23.9330 H   0  0  0  0  0  0  0  0  0  0  0  0
  -31.7050  -16.4300   16.9260 C   0  0  0  0  0  1  0  0  0  0  0  0
  -31.2880  -16.3340   18.2910 O   0  0  0  0  0  0  0  0  0  0  0  0
  2  3  1  0
  3 47  1  0
  3  1  2  0
  4 16  1  0
  4  1  1  0
  5  4  2  0
  6  5  1  0
  6  2  2  0
  7  6  1  0
  8 16  1  0
  9 14  1  0
 10 11  1  0
 10  9  1  0
 12 11  1  0
 12 21  1  0
 12 13  1  0
 14  8  1  0
 14 13  1  0
 15  8  2  0
 16 17  1  0
 18 19  2  0
 19 20  1  0
 19 38  1  0
 20 23  1  0
 21 18  1  0
 21 22  1  0
 22 20  2  0
 23 24  1  0
 24 25  2  0
 26 29  1  0
 26 25  1  0
 27 26  2  0
 28 27  1  0
 28 23  2  0
 29 30  1  0
 30 31  1  0
 31 32  2  0
 33 32  1  0
 33 37  1  0
 34 33  2  0
 35 30  2  0
 35 34  1  0
 36 35  1  0
 38 39  1  0
 39 42  1  0
 39 41  1  0
 40 38  2  0
 43 44  1  0
 43 18  1  0
 45 43  1  0
 46 47  1  0
 46 50  1  0
 47 49  1  0
 48 46  2  0
 51 52  1  0
 51 50  1  0
 53 64  2  0
 54 52  1  0
 54 59  1  0
 55 63  1  0
 55 65  1  0
 56 62  1  0
 56 58  1  0
 57 63  1  0
 58 59  2  0
 58 57  1  0
 60 61  1  0
 60 54  2  0
 61 56  2  0
 62 55  1  0
 63 53  1  0
 65 67  2  0
 66 65  1  0
 68 66  1  0
 69 78  2  0
 69 74  1  0
 70 66  1  0
 70 74  1  0
 71 70  1  0
 72 73  1  0
 72 71  1  0
 73 69  1  0
 74 75  2  0
 75 76  1  0
 77 76  2  0
 78 77  1  0
 79 53  1  0
 79 84  1  0
 79 80  1  0
 80 83  1  1
 80 81  1  0
 82 80  1  0
 84 87  1  0
 85 89  1  0
 85 84  1  0
 86 85  2  0
 89 88  1  0
 91 89  1  0
 91 92  1  0
 91 90  1  0
 93 94  1  0
 94  5  1  0
M  ISO  4   8 100  16 100  51 101  52 101
M  END
>  <TORSDO>  (34) 
F 20

>  <SCORE>  (34) 
-13.438

>  <name>  (34) 
33

>  <ligand_id>  (34) 
33

>  <original_smiles>  (34) 
[H]c1c([H])c([H])c2c(c1[H])C([H])([H])C([H])([H])C([H])([H])C2([H])N([H])C(=O)C1([H])N(C(=O)C([H])(N([H])C(=O)C([H])(N([H])C([H])([H])[H])C([H])([H])[H])C(C([H])([H])[H])(C([H])([H])[H])C([H])([H])[H])C([H])([H])c2c([H])c(OC([H])([H])C([H])([H])C(=O)N([H])c3c([H])c(F)c(OC([H])([H])[H])c(N([H])C(=O)N4C([H])([H])C([H])([H])C([H])([H])C([H])(n5nc(-c6c([H])c([H])c(Oc7c([H])c([H])c(F)c([H])c7F)c([H])c6[H])c(C(=O)N([H])[H])c5N([H])[H])C4([H])[H])c3[H])c([H])c([H])c2C1([H])[H]

>  <smiles>  (34) 
[H]c1c([H])c([H])c2c(c1[H])C([H])([H])C([H])([H])C([H])([H])C2([H])N([H])C(=O)C1([H])N(C(=O)C([H])(N([H])C(=O)C([H])(N([H])C([H])([H])[H])C([H])([H])[H])C(C([H])([H])[H])(C([H])([H])[H])C([H])([H])[H])C([H])([H])c2c([H])c(OC([H])([H])C([H])([H])C(=O)N([H])c3c([H])c(F)c(OC([H])([H])[H])c(N([H])C(=O)N4C([H])([H])C([H])([H])C([H])([H])C([H])(n5nc(-c6c([H])c([H])c(Oc7c([H])c([H])c(F)c([H])c7F)c([H])c6[H])c(C(=O)N([H])[H])c5N([H])[H])C4([H])[H])c3[H])c([H])c([H])c2C1([H])[H]

$$$$
34:0:0
     RDKit          3D

 93101  0  0  1  0  0  0  0  0999 V2000
  -28.5520  -21.5710   20.2440 C   0  0  0  0  0  0  0  0  0  0  0  0
  -29.0600  -19.7260   21.7620 C   0  0  0  0  0  1  0  0  0  0  0  0
  -29.3120  -20.3390   20.4600 N   0  0  0  0  0  0  0  0  0  0  0  0
  -27.3310  -21.4320   20.1130 O   0  0  0  0  0  0  0  0  0  0  0  0
  -30.3190  -20.1650   18.3270 C   0  0  0  0  0  3  0  0  0  0  0  0
  -30.7090  -17.4560   18.0080 C   0  0  0  0  0  3  0  0  0  0  0  0
  -29.9080  -19.3550   19.4270 C   0  0  0  0  0  0  0  0  0  0  0  0
  -30.2210  -17.8370   19.2970 C   0  0  0  0  0  0  0  0  0  0  0  0
  -30.8470  -19.6930   17.1270 C   0  0  0  0  0  0  0  0  0  0  0  0
  -31.0150  -18.3240   16.9560 C   0  0  0  0  0  0  0  0  0  0  0  0
  -31.1600  -20.5660   16.1360 F   0  0  0  0  0  0  0  0  0  0  0  0
  -31.5940  -17.6970   15.4550 Cl  0  0  0  0  0  0  0  0  0  0  0  0
  -30.7830  -15.2410   19.9600 C   0  0  0  0  0  0  0  0  0  0  0  0
  -30.6130  -12.8930   18.9980 C   0  0  0  0  0  2  0  0  0  0  0  0
  -29.6370  -12.8420   17.7990 C   0  0  0  0  0  2  0  0  0  0  0  0
  -28.2060  -12.5840   18.3010 C   0  0  0  0  0  2  0  0  0  0  0  0
  -27.8250  -13.5170   19.4770 C   0  0  0  0  0  3  0  0  0  0  0  0
  -28.9140  -13.5450   20.5700 C   0  0  0  0  0  2  0  0  0  0  0  0
  -30.1590  -13.9830   19.9240 N   0  0  0  0  0  0  0  0  0  0  0  0
  -31.9840  -15.2310   19.6540 O   0  0  0  0  0  0  0  0  0  0  0  0
  -30.0850  -16.5110   20.1130 N   0  0  0  0  0  0  0  0  0  0  0  0
  -29.2220  -16.4410   20.6300 H   0  0  0  0  0  0  0  0  0  0  0  0
  -25.4690  -14.0840   20.2780 C   0  0  0  0  0  0  0  0  0  0  0  0
  -24.4190  -13.3030   20.6810 C   0  0  0  0  0  0  0  0  0  0  0  0
  -24.8910  -11.9560   20.6500 C   0  0  0  0  0  0  0  0  0  0  0  0
  -26.5070  -13.2080   20.0180 N   0  0  0  0  0  0  0  0  0  0  0  0
  -26.1740  -11.9260   20.3080 N   0  0  0  0  0  0  0  0  0  0  0  0
  -24.1790  -10.6890   20.8680 C   0  0  0  0  0  0  0  0  0  0  0  0
  -24.6160   -9.7480   21.8260 C   0  0  0  0  0  3  0  0  0  0  0  0
  -23.9000   -8.5490   22.0280 C   0  0  0  0  0  3  0  0  0  0  0  0
  -22.7350   -8.2810   21.2700 C   0  0  0  0  0  0  0  0  0  0  0  0
  -22.3200   -9.2100   20.3010 C   0  0  0  0  0  3  0  0  0  0  0  0
  -23.0360  -10.4000   20.0970 C   0  0  0  0  0  3  0  0  0  0  0  0
  -21.9920   -7.1310   21.3840 O   0  0  0  0  0  0  0  0  0  0  0  0
  -21.9090   -6.4400   22.5680 C   0  0  0  0  0  0  0  0  0  0  0  0
  -21.4200   -7.0400   23.7490 C   0  0  0  0  0  3  0  0  0  0  0  0
  -21.2890   -6.2730   24.9240 C   0  0  0  0  0  3  0  0  0  0  0  0
  -21.6340   -4.9090   24.9180 C   0  0  0  0  0  0  0  0  0  0  0  0
  -22.1150   -4.3090   23.7420 C   0  0  0  0  0  3  0  0  0  0  0  0
  -22.2490   -5.0720   22.5680 C   0  0  0  0  0  0  0  0  0  0  0  0
  -22.6930   -4.4840   21.4320 F   0  0  0  0  0  0  0  0  0  0  0  0
  -21.5000   -4.1710   26.0450 F   0  0  0  0  0  0  0  0  0  0  0  0
  -23.0270  -13.7740   20.9800 C   0  0  0  0  0  0  0  0  0  0  0  0
  -22.3230  -13.0850   21.8740 N   0  0  0  0  0  0  0  0  0  0  0  0
  -22.5680  -14.7870   20.4560 O   0  0  0  0  0  0  0  0  0  0  0  0
  -22.7050  -12.2710   22.3310 H   0  0  0  0  0  0  0  0  0  0  0  0
  -21.3830  -13.3810   22.1050 H   0  0  0  0  0  0  0  0  0  0  0  0
  -25.6210  -15.4530   20.0840 N   0  0  0  0  0  0  0  0  0  0  0  0
  -24.8510  -16.1050   20.1850 H   0  0  0  0  0  0  0  0  0  0  0  0
  -26.4720  -15.8920   19.7580 H   0  0  0  0  0  0  0  0  0  0  0  0
  -29.0430  -23.1830   20.2220 C   0  0  0  0  0  3  0  0  0  0  0  0
  -28.0180  -24.5830   20.3180 C   0  0  0  0  0  3  0  0  0  0  0  0
  -28.3130  -26.1550   20.2480 O   0  0  0  0  0  0  0  0  0  0  0  0
  -24.6560  -31.9280   23.1980 C   0  0  0  0  0  0  0  0  0  0  0  0
  -27.2710  -27.1770   20.1900 C   0  0  0  0  0  0  0  0  0  0  0  0
  -23.4730  -30.5160   21.5640 C   0  0  0  0  0  3  0  0  0  0  0  0
  -24.9440  -28.9540   20.1360 C   0  0  0  0  0  0  0  0  0  0  0  0
  -26.0300  -30.7940   21.4070 C   0  0  0  0  0  2  0  0  0  0  0  0
  -26.1230  -29.3980   20.7510 C   0  0  0  0  0  0  0  0  0  0  0  0
  -27.2880  -28.5270   20.7550 C   0  0  0  0  0  3  0  0  0  0  0  0
  -26.0660  -26.8590   19.5270 C   0  0  0  0  0  3  0  0  0  0  0  0
  -24.9330  -27.7010   19.5090 C   0  0  0  0  0  3  0  0  0  0  0  0
  -23.7050  -29.8380   20.1860 C   0  0  0  0  0  2  0  0  0  0  0  0
  -24.7400  -31.1030   22.1090 N   0  0  0  0  0  0  0  0  0  0  0  0
  -23.5660  -32.1970   23.7270 O   0  0  0  0  0  0  0  0  0  0  0  0
  -22.8070  -29.5010   22.5320 C   0  0  0  0  0  0  0  0  0  0  0  0
  -21.4800  -29.3170   22.4170 N   0  0  0  0  0  0  0  0  0  0  0  0
  -23.4900  -28.8830   23.3520 O   0  0  0  0  0  0  0  0  0  0  0  0
  -20.9840  -29.8550   21.7210 H   0  0  0  0  0  0  0  0  0  0  0  0
  -18.1190  -28.0700   22.9550 C   0  0  0  0  0  0  0  0  0  0  0  0
  -20.6770  -28.3720   23.1980 C   0  0  0  0  0  3  0  0  0  0  0  0
  -20.7960  -26.9390   22.6270 C   0  0  0  0  0  2  0  0  0  0  0  0
  -19.6910  -26.5960   21.6240 C   0  0  0  0  0  2  0  0  0  0  0  0
  -18.3130  -26.7230   22.2760 C   0  0  0  0  0  2  0  0  0  0  0  0
  -19.2300  -28.8500   23.3720 C   0  0  0  0  0  0  0  0  0  0  0  0
  -18.9960  -30.1060   23.9700 C   0  0  0  0  0  3  0  0  0  0  0  0
  -17.6850  -30.5850   24.1540 C   0  0  0  0  0  3  0  0  0  0  0  0
  -16.5870  -29.8020   23.7510 C   0  0  0  0  0  3  0  0  0  0  0  0
  -16.8070  -28.5470   23.1570 C   0  0  0  0  0  3  0  0  0  0  0  0
  -25.9210  -32.5890   23.8200 C   0  0  0  0  0  3  0  0  0  0  0  0
  -26.4420  -31.8450   25.1110 C   0  0  1  0  0  0  0  0  0  0  0  0
  -25.3460  -31.6090   26.1770 C   0  0  0  0  0  1  0  0  0  0  0  0
  -27.0460  -30.4660   24.7530 C   0  0  0  0  0  1  0  0  0  0  0  0
  -27.5790  -32.6650   25.7640 C   0  0  0  0  0  1  0  0  0  0  0  0
  -25.5880  -33.9880   24.1390 N   0  0  0  0  0  0  0  0  0  0  0  0
  -25.9290  -35.0470   23.3930 C   0  0  0  0  0  0  0  0  0  0  0  0
  -26.6210  -34.9500   22.3760 O   0  0  0  0  0  0  0  0  0  0  0  0
  -24.9700  -34.1380   24.9230 H   0  0  0  0  0  0  0  0  0  0  0  0
  -24.2050  -36.8420   23.0080 C   0  0  0  0  0  1  0  0  0  0  0  0
  -25.4260  -36.4330   23.8460 C   0  0  0  0  0  3  0  0  0  0  0  0
  -27.5350  -37.3260   24.7360 C   0  0  0  0  0  1  0  0  0  0  0  0
  -26.4560  -37.4910   23.7650 N   0  0  0  0  0  0  0  0  0  0  0  0
  -26.0440  -38.4100   23.9040 H   0  0  0  0  0  0  0  0  0  0  0  0
  1  3  1  0
  3  2  1  0
  4  1  2  0
  5  7  1  0
  6  8  1  0
  7  3  1  0
  8  7  2  0
  8 21  1  0
  9  5  2  0
 10  9  1  0
 10  6  2  0
 11  9  1  0
 12 10  1  0
 13 21  1  0
 14 19  1  0
 15 16  1  0
 15 14  1  0
 17 16  1  0
 17 26  1  0
 17 18  1  0
 19 13  1  0
 19 18  1  0
 20 13  2  0
 21 22  1  0
 23 24  2  0
 24 43  1  0
 25 24  1  0
 25 28  1  0
 26 23  1  0
 26 27  1  0
 27 25  2  0
 28 29  1  0
 29 30  2  0
 31 34  1  0
 31 30  1  0
 32 31  2  0
 33 32  1  0
 33 28  2  0
 34 35  1  0
 35 36  1  0
 36 37  2  0
 38 37  1  0
 38 42  1  0
 39 38  2  0
 40 35  2  0
 40 39  1  0
 41 40  1  0
 43 44  1  0
 44 47  1  0
 44 46  1  0
 45 43  2  0
 48 49  1  0
 48 23  1  0
 50 48  1  0
 51  1  1  0
 51 52  2  0
 53 52  1  0
 54 65  2  0
 55 53  1  0
 55 60  1  0
 56 64  1  0
 56 66  1  0
 57 63  1  0
 57 59  1  0
 58 64  1  0
 59 60  2  0
 59 58  1  0
 61 55  2  0
 62 61  1  0
 62 57  2  0
 63 56  1  0
 64 54  1  0
 66 68  2  0
 67 66  1  0
 69 67  1  0
 70 79  2  0
 70 75  1  0
 71 67  1  0
 71 75  1  0
 72 71  1  0
 73 74  1  0
 73 72  1  0
 74 70  1  0
 75 76  2  0
 76 77  1  0
 78 77  2  0
 79 78  1  0
 80 54  1  0
 80 85  1  0
 80 81  1  0
 81 84  1  1
 81 82  1  0
 83 81  1  0
 85 88  1  0
 86 90  1  0
 86 85  1  0
 87 86  2  0
 90 89  1  0
 92 90  1  0
 92 93  1  0
 92 91  1  0
M  ISO  4  13 100  21 100  52 101  53 101
M  END
>  <TORSDO>  (35) 
F 19

>  <SCORE>  (35) 
-13.635

>  <name>  (35) 
34

>  <ligand_id>  (35) 
34

>  <original_smiles>  (35) 
[H]c1c([H])c([H])c2c(c1[H])C([H])([H])C([H])([H])C([H])([H])C2([H])N([H])C(=O)C1([H])N(C(=O)C([H])(N([H])C(=O)C([H])(N([H])C([H])([H])[H])C([H])([H])[H])C(C([H])([H])[H])(C([H])([H])[H])C([H])([H])[H])C([H])([H])c2c([H])c(OC([H])([H])C([H])([H])C(=O)N(c3c([H])c(F)c(Cl)c([H])c3N([H])C(=O)N3C([H])([H])C([H])([H])C([H])([H])C([H])(n4nc(-c5c([H])c([H])c(Oc6c([H])c([H])c(F)c([H])c6F)c([H])c5[H])c(C(=O)N([H])[H])c4N([H])[H])C3([H])[H])C([H])([H])[H])c([H])c([H])c2C1([H])[H]

>  <smiles>  (35) 
[H]c1c([H])c([H])c2c(c1[H])C([H])([H])C([H])([H])C([H])([H])C2([H])N([H])C(=O)C1([H])N(C(=O)C([H])(N([H])C(=O)C([H])(N([H])C([H])([H])[H])C([H])([H])[H])C(C([H])([H])[H])(C([H])([H])[H])C([H])([H])[H])C([H])([H])c2c([H])c(OC([H])([H])C([H])([H])C(=O)N(c3c([H])c(F)c(Cl)c([H])c3N([H])C(=O)N3C([H])([H])C([H])([H])C([H])([H])C([H])(n4nc(-c5c([H])c([H])c(Oc6c([H])c([H])c(F)c([H])c6F)c([H])c5[H])c(C(=O)N([H])[H])c4N([H])[H])C3([H])[H])C([H])([H])[H])c([H])c([H])c2C1([H])[H]

$$$$
35:0:0
     RDKit          3D

 90 98  0  0  1  0  0  0  0  0999 V2000
  -30.1980  -18.7610   21.3480 C   0  0  0  0  0  3  0  0  0  0  0  0
  -28.9800  -19.6120   19.0540 C   0  0  0  0  0  3  0  0  0  0  0  0
  -29.9450  -17.6820   20.4110 C   0  0  0  0  0  0  0  0  0  0  0  0
  -29.1990  -20.6800   20.0010 C   0  0  0  0  0  0  0  0  0  0  0  0
  -29.8600  -20.1680   21.1660 C   0  0  0  0  0  0  0  0  0  0  0  0
  -29.3370  -18.2080   19.2260 C   0  0  0  0  0  0  0  0  0  0  0  0
  -30.1560  -21.0320   22.1690 F   0  0  0  0  0  0  0  0  0  0  0  0
  -29.0270  -17.3380   18.2340 F   0  0  0  0  0  0  0  0  0  0  0  0
  -30.6870  -15.0830   20.0370 C   0  0  0  0  0  0  0  0  0  0  0  0
  -30.4590  -12.7950   18.9480 C   0  0  0  0  0  2  0  0  0  0  0  0
  -29.4560  -12.7910   17.7720 C   0  0  0  0  0  2  0  0  0  0  0  0
  -28.0220  -12.5660   18.2800 C   0  0  0  0  0  2  0  0  0  0  0  0
  -27.6910  -13.4600   19.5000 C   0  0  0  0  0  3  0  0  0  0  0  0
  -28.7960  -13.3970   20.5710 C   0  0  0  0  0  2  0  0  0  0  0  0
  -30.0550  -13.8370   19.9420 N   0  0  0  0  0  0  0  0  0  0  0  0
  -31.7940  -15.1890   19.4940 O   0  0  0  0  0  0  0  0  0  0  0  0
  -30.1020  -15.9220   22.2020 C   0  0  0  0  0  1  0  0  0  0  0  0
  -30.1220  -16.1820   20.7500 N   0  0  0  0  0  0  0  0  0  0  0  0
  -25.3460  -14.0310   20.3570 C   0  0  0  0  0  0  0  0  0  0  0  0
  -24.3000  -13.2520   20.7660 C   0  0  0  0  0  0  0  0  0  0  0  0
  -24.7600  -11.9020   20.6920 C   0  0  0  0  0  0  0  0  0  0  0  0
  -26.3770  -13.1560   20.0570 N   0  0  0  0  0  0  0  0  0  0  0  0
  -26.0360  -11.8690   20.3230 N   0  0  0  0  0  0  0  0  0  0  0  0
  -24.0390  -10.6380   20.8890 C   0  0  0  0  0  0  0  0  0  0  0  0
  -24.4670   -9.6860   21.8390 C   0  0  0  0  0  3  0  0  0  0  0  0
  -23.7450   -8.4870   22.0260 C   0  0  0  0  0  3  0  0  0  0  0  0
  -22.5810   -8.2330   21.2620 C   0  0  0  0  0  0  0  0  0  0  0  0
  -22.1740   -9.1740   20.3010 C   0  0  0  0  0  3  0  0  0  0  0  0
  -22.8950  -10.3640   20.1130 C   0  0  0  0  0  3  0  0  0  0  0  0
  -21.8310   -7.0860   21.3570 O   0  0  0  0  0  0  0  0  0  0  0  0
  -21.7070   -6.4040   22.5400 C   0  0  0  0  0  0  0  0  0  0  0  0
  -21.1700   -7.0110   23.6970 C   0  0  0  0  0  3  0  0  0  0  0  0
  -20.9950   -6.2540   24.8730 C   0  0  0  0  0  3  0  0  0  0  0  0
  -21.3450   -4.8920   24.8930 C   0  0  0  0  0  0  0  0  0  0  0  0
  -21.8730   -4.2840   23.7410 C   0  0  0  0  0  3  0  0  0  0  0  0
  -22.0510   -5.0380   22.5670 C   0  0  0  0  0  0  0  0  0  0  0  0
  -22.5410   -4.4420   21.4540 F   0  0  0  0  0  0  0  0  0  0  0  0
  -21.1700   -4.1620   26.0200 F   0  0  0  0  0  0  0  0  0  0  0  0
  -22.9210  -13.7280   21.1100 C   0  0  0  0  0  0  0  0  0  0  0  0
  -22.2380  -13.0250   22.0080 N   0  0  0  0  0  0  0  0  0  0  0  0
  -22.4580  -14.7570   20.6200 O   0  0  0  0  0  0  0  0  0  0  0  0
  -22.6300  -12.1960   22.4280 H   0  0  0  0  0  0  0  0  0  0  0  0
  -21.3160  -13.3260   22.2820 H   0  0  0  0  0  0  0  0  0  0  0  0
  -25.4930  -15.4030   20.1820 N   0  0  0  0  0  0  0  0  0  0  0  0
  -24.6800  -16.0100   20.2090 H   0  0  0  0  0  0  0  0  0  0  0  0
  -26.2980  -15.8380   19.7470 H   0  0  0  0  0  0  0  0  0  0  0  0
  -28.7180  -22.0420   19.7170 O   0  0  0  0  0  0  0  0  0  0  0  0
  -28.9580  -23.4070   20.3920 C   0  0  0  0  0  3  0  0  0  0  0  0
  -28.0380  -24.7760   20.0090 C   0  0  0  0  0  3  0  0  0  0  0  0
  -28.2810  -26.2840   20.3250 O   0  0  0  0  0  0  0  0  0  0  0  0
  -24.6100  -31.9560   23.2700 C   0  0  0  0  0  0  0  0  0  0  0  0
  -27.2210  -27.2600   20.2410 C   0  0  0  0  0  0  0  0  0  0  0  0
  -23.4190  -30.5510   21.6350 C   0  0  0  0  0  3  0  0  0  0  0  0
  -24.8770  -28.9870   20.2060 C   0  0  0  0  0  0  0  0  0  0  0  0
  -25.9700  -30.8340   21.4670 C   0  0  0  0  0  2  0  0  0  0  0  0
  -26.0540  -29.4420   20.8150 C   0  0  0  0  0  0  0  0  0  0  0  0
  -27.2250  -28.5950   20.8170 C   0  0  0  0  0  3  0  0  0  0  0  0
  -26.0200  -26.9110   19.5860 C   0  0  0  0  0  3  0  0  0  0  0  0
  -24.8740  -27.7340   19.5770 C   0  0  0  0  0  3  0  0  0  0  0  0
  -23.6400  -29.8720   20.2580 C   0  0  0  0  0  2  0  0  0  0  0  0
  -24.6860  -31.1350   22.1790 N   0  0  0  0  0  0  0  0  0  0  0  0
  -23.5220  -32.2350   23.7980 O   0  0  0  0  0  0  0  0  0  0  0  0
  -22.7520  -29.5390   22.5990 C   0  0  0  0  0  0  0  0  0  0  0  0
  -21.4300  -29.3350   22.4530 N   0  0  0  0  0  0  0  0  0  0  0  0
  -23.4230  -28.9370   23.4400 O   0  0  0  0  0  0  0  0  0  0  0  0
  -20.9450  -29.8680   21.7450 H   0  0  0  0  0  0  0  0  0  0  0  0
  -18.0720  -28.0590   22.9160 C   0  0  0  0  0  0  0  0  0  0  0  0
  -20.6180  -28.3930   23.2260 C   0  0  0  0  0  3  0  0  0  0  0  0
  -20.7670  -26.9530   22.6810 C   0  0  0  0  0  2  0  0  0  0  0  0
  -19.6930  -26.5840   21.6520 C   0  0  0  0  0  2  0  0  0  0  0  0
  -18.2950  -26.7050   22.2650 C   0  0  0  0  0  2  0  0  0  0  0  0
  -19.1630  -28.8580   23.3520 C   0  0  0  0  0  0  0  0  0  0  0  0
  -18.9000  -30.1220   23.9220 C   0  0  0  0  0  3  0  0  0  0  0  0
  -17.5790  -30.5890   24.0570 C   0  0  0  0  0  3  0  0  0  0  0  0
  -16.5030  -29.7900   23.6340 C   0  0  0  0  0  3  0  0  0  0  0  0
  -16.7500  -28.5260   23.0710 C   0  0  0  0  0  3  0  0  0  0  0  0
  -25.8830  -32.6030   23.8940 C   0  0  0  0  0  3  0  0  0  0  0  0
  -26.3880  -31.8520   25.1890 C   0  0  1  0  0  0  0  0  0  0  0  0
  -25.2810  -31.6210   26.2460 C   0  0  0  0  0  1  0  0  0  0  0  0
  -26.9880  -30.4720   24.8310 C   0  0  0  0  0  1  0  0  0  0  0  0
  -27.5310  -32.6630   25.8490 C   0  0  0  0  0  1  0  0  0  0  0  0
  -25.5620  -34.0040   24.2080 N   0  0  0  0  0  0  0  0  0  0  0  0
  -25.8740  -35.0520   23.4300 C   0  0  0  0  0  0  0  0  0  0  0  0
  -26.5260  -34.9410   22.3900 O   0  0  0  0  0  0  0  0  0  0  0  0
  -24.9700  -34.1630   25.0090 H   0  0  0  0  0  0  0  0  0  0  0  0
  -24.1090  -36.8190   23.1060 C   0  0  0  0  0  1  0  0  0  0  0  0
  -25.3830  -36.4430   23.8800 C   0  0  0  0  0  3  0  0  0  0  0  0
  -27.5340  -37.3700   24.6220 C   0  0  0  0  0  1  0  0  0  0  0  0
  -26.3990  -37.5070   23.7120 N   0  0  0  0  0  0  0  0  0  0  0  0
  -25.9860  -38.4260   23.8550 H   0  0  0  0  0  0  0  0  0  0  0  0
  2  6  2  0
  2  4  1  0
  3 18  1  0
  3  1  2  0
  4  5  2  0
  5  1  1  0
  5  7  1  0
  6  3  1  0
  8  6  1  0
  9 18  1  0
 10 15  1  0
 11 12  1  0
 11 10  1  0
 13 12  1  0
 13 22  1  0
 13 14  1  0
 15  9  1  0
 15 14  1  0
 16  9  2  0
 18 17  1  0
 19 20  2  0
 20 39  1  0
 21 20  1  0
 21 24  1  0
 22 23  1  0
 22 19  1  0
 23 21  2  0
 24 25  1  0
 25 26  2  0
 27 30  1  0
 27 26  1  0
 28 27  2  0
 29 28  1  0
 29 24  2  0
 30 31  1  0
 31 36  2  0
 31 32  1  0
 32 33  2  0
 33 34  1  0
 34 38  1  0
 35 34  2  0
 36 35  1  0
 37 36  1  0
 39 40  1  0
 40 43  1  0
 40 42  1  0
 41 39  2  0
 44 45  1  0
 44 19  1  0
 46 44  1  0
 47  4  1  0
 47 48  1  0
 49 50  1  0
 49 48  2  0
 51 62  2  0
 52 50  1  0
 52 57  1  0
 53 61  1  0
 53 63  1  0
 54 60  1  0
 54 56  1  0
 55 61  1  0
 56 57  2  0
 56 55  1  0
 58 52  2  0
 59 58  1  0
 59 54  2  0
 60 53  1  0
 61 51  1  0
 63 65  2  0
 64 63  1  0
 66 64  1  0
 67 76  2  0
 67 72  1  0
 68 64  1  0
 68 72  1  0
 69 68  1  0
 70 71  1  0
 70 69  1  0
 71 67  1  0
 72 73  2  0
 73 74  1  0
 75 74  2  0
 76 75  1  0
 77 51  1  0
 77 82  1  0
 77 78  1  0
 78 81  1  1
 78 79  1  0
 80 78  1  0
 82 85  1  0
 83 87  1  0
 83 82  1  0
 84 83  2  0
 87 86  1  0
 89 90  1  0
 89 87  1  0
 89 88  1  0
M  ISO  4   9 100  18 100  49 101  50 101
M  END
>  <TORSDO>  (36) 
F 19

>  <SCORE>  (36) 
-13.639

>  <name>  (36) 
35

>  <ligand_id>  (36) 
35

>  <original_smiles>  (36) 
[H]c1c([H])c([H])c2c(c1[H])C([H])([H])C([H])([H])C([H])([H])C2([H])N([H])C(=O)C1([H])N(C(=O)C([H])(N([H])C(=O)C([H])(N([H])C([H])([H])[H])C([H])([H])[H])C(C([H])([H])[H])(C([H])([H])[H])C([H])([H])[H])C([H])([H])c2c([H])c(OC([H])([H])C([H])([H])Oc3c([H])c(F)c(N(C(=O)N4C([H])([H])C([H])([H])C([H])([H])C([H])(n5nc(-c6c([H])c([H])c(Oc7c([H])c([H])c(F)c([H])c7F)c([H])c6[H])c(C(=O)N([H])[H])c5N([H])[H])C4([H])[H])C([H])([H])[H])c([H])c3F)c([H])c([H])c2C1([H])[H]

>  <smiles>  (36) 
[H]c1c([H])c([H])c2c(c1[H])C([H])([H])C([H])([H])C([H])([H])C2([H])N([H])C(=O)C1([H])N(C(=O)C([H])(N([H])C(=O)C([H])(N([H])C([H])([H])[H])C([H])([H])[H])C(C([H])([H])[H])(C([H])([H])[H])C([H])([H])[H])C([H])([H])c2c([H])c(OC([H])([H])C([H])([H])Oc3c([H])c(F)c(N(C(=O)N4C([H])([H])C([H])([H])C([H])([H])C([H])(n5nc(-c6c([H])c([H])c(Oc7c([H])c([H])c(F)c([H])c7F)c([H])c6[H])c(C(=O)N([H])[H])c5N([H])[H])C4([H])[H])C([H])([H])[H])c([H])c3F)c([H])c([H])c2C1([H])[H]

$$$$
36:0:0
     RDKit          3D

 92100  0  0  1  0  0  0  0  0999 V2000
  -28.0310  -19.6610   20.3380 C   0  0  0  0  0  3  0  0  0  0  0  0
  -30.6020  -18.6690   20.1060 C   0  0  0  0  0  3  0  0  0  0  0  0
  -29.0090  -20.6930   20.1740 C   0  0  0  0  0  0  0  0  0  0  0  0
  -29.5950  -17.6490   20.2740 C   0  0  0  0  0  0  0  0  0  0  0  0
  -30.3300  -20.1130   20.0570 C   0  0  0  0  0  0  0  0  0  0  0  0
  -28.3020  -18.2440   20.3950 C   0  0  0  0  0  0  0  0  0  0  0  0
  -31.3790  -20.9460   19.8590 F   0  0  0  0  0  0  0  0  0  0  0  0
  -27.2520  -17.4060   20.5590 F   0  0  0  0  0  0  0  0  0  0  0  0
  -30.5220  -15.0280   20.0650 C   0  0  0  0  0  0  0  0  0  0  0  0
  -30.3930  -12.7010   19.0680 C   0  0  0  0  0  2  0  0  0  0  0  0
  -29.3880  -12.6940   17.8910 C   0  0  0  0  0  2  0  0  0  0  0  0
  -27.9500  -12.4730   18.3950 C   0  0  0  0  0  2  0  0  0  0  0  0
  -27.6050  -13.3660   19.6160 C   0  0  0  0  0  3  0  0  0  0  0  0
  -28.7190  -13.3210   20.6850 C   0  0  0  0  0  2  0  0  0  0  0  0
  -29.9650  -13.7520   20.0330 N   0  0  0  0  0  0  0  0  0  0  0  0
  -31.6930  -15.1620   19.6930 O   0  0  0  0  0  0  0  0  0  0  0  0
  -29.6680  -16.1170   20.3540 N   0  0  0  0  0  0  0  0  0  0  0  0
  -28.7700  -15.7510   20.6340 H   0  0  0  0  0  0  0  0  0  0  0  0
  -25.2610  -13.9300   20.4820 C   0  0  0  0  0  0  0  0  0  0  0  0
  -24.2130  -13.1460   20.8800 C   0  0  0  0  0  0  0  0  0  0  0  0
  -24.6750  -11.7970   20.7910 C   0  0  0  0  0  0  0  0  0  0  0  0
  -26.2910  -13.0580   20.1690 N   0  0  0  0  0  0  0  0  0  0  0  0
  -25.9500  -11.7680   20.4200 N   0  0  0  0  0  0  0  0  0  0  0  0
  -23.9550  -10.5310   20.9830 C   0  0  0  0  0  0  0  0  0  0  0  0
  -24.3980   -9.5610   21.9080 C   0  0  0  0  0  3  0  0  0  0  0  0
  -23.6750   -8.3610   22.0870 C   0  0  0  0  0  3  0  0  0  0  0  0
  -22.4960   -8.1240   21.3420 C   0  0  0  0  0  0  0  0  0  0  0  0
  -22.0730   -9.0840   20.4050 C   0  0  0  0  0  3  0  0  0  0  0  0
  -22.7950  -10.2750   20.2240 C   0  0  0  0  0  3  0  0  0  0  0  0
  -21.7460   -6.9780   21.4310 O   0  0  0  0  0  0  0  0  0  0  0  0
  -21.6630   -6.2600   22.5970 C   0  0  0  0  0  0  0  0  0  0  0  0
  -21.1410   -6.8230   23.7830 C   0  0  0  0  0  3  0  0  0  0  0  0
  -21.0100   -6.0300   24.9390 C   0  0  0  0  0  3  0  0  0  0  0  0
  -21.3900   -4.6750   24.9120 C   0  0  0  0  0  0  0  0  0  0  0  0
  -21.9050   -4.1120   23.7320 C   0  0  0  0  0  3  0  0  0  0  0  0
  -22.0390   -4.9020   22.5770 C   0  0  0  0  0  0  0  0  0  0  0  0
  -22.5160   -4.3490   21.4360 F   0  0  0  0  0  0  0  0  0  0  0  0
  -21.2570   -3.9110   26.0210 F   0  0  0  0  0  0  0  0  0  0  0  0
  -22.8320  -13.6190   21.2320 C   0  0  0  0  0  0  0  0  0  0  0  0
  -22.1490  -12.9060   22.1200 N   0  0  0  0  0  0  0  0  0  0  0  0
  -22.3710  -14.6560   20.7570 O   0  0  0  0  0  0  0  0  0  0  0  0
  -22.5340  -12.0670   22.5260 H   0  0  0  0  0  0  0  0  0  0  0  0
  -21.2250  -13.2060   22.3990 H   0  0  0  0  0  0  0  0  0  0  0  0
  -25.4080  -15.3040   20.3420 N   0  0  0  0  0  0  0  0  0  0  0  0
  -24.6510  -15.9410   20.5610 H   0  0  0  0  0  0  0  0  0  0  0  0
  -26.2620  -15.7950   20.1060 H   0  0  0  0  0  0  0  0  0  0  0  0
  -28.9570  -23.4760   20.2650 C   0  0  0  0  0  0  0  0  0  0  0  0
  -28.5250  -22.1460   20.0350 N   0  0  0  0  0  0  0  0  0  0  0  0
  -30.0770  -23.7000   20.7280 O   0  0  0  0  0  0  0  0  0  0  0  0
  -27.5650  -22.1770   19.7210 H   0  0  0  0  0  0  0  0  0  0  0  0
  -27.9750  -24.7670   19.9230 C   0  0  0  0  0  2  0  0  0  0  0  0
  -28.2780  -26.2520   20.2720 O   0  0  0  0  0  0  0  0  0  0  0  0
  -24.6370  -31.9150   23.2880 C   0  0  0  0  0  0  0  0  0  0  0  0
  -27.2220  -27.2360   20.2100 C   0  0  0  0  0  0  0  0  0  0  0  0
  -23.4360  -30.5280   21.6430 C   0  0  0  0  0  3  0  0  0  0  0  0
  -24.8850  -28.9700   20.2030 C   0  0  0  0  0  0  0  0  0  0  0  0
  -25.9900  -30.8020   21.4740 C   0  0  0  0  0  2  0  0  0  0  0  0
  -26.0660  -29.4150   20.8130 C   0  0  0  0  0  0  0  0  0  0  0  0
  -27.2330  -28.5640   20.8010 C   0  0  0  0  0  3  0  0  0  0  0  0
  -26.0140  -26.8980   19.5590 C   0  0  0  0  0  3  0  0  0  0  0  0
  -24.8720  -27.7250   19.5590 C   0  0  0  0  0  3  0  0  0  0  0  0
  -23.6540  -29.8600   20.2600 C   0  0  0  0  0  2  0  0  0  0  0  0
  -24.7080  -31.1010   22.1900 N   0  0  0  0  0  0  0  0  0  0  0  0
  -23.5510  -32.1940   23.8190 O   0  0  0  0  0  0  0  0  0  0  0  0
  -22.7620  -29.5130   22.6010 C   0  0  0  0  0  0  0  0  0  0  0  0
  -21.4370  -29.3280   22.4640 N   0  0  0  0  0  0  0  0  0  0  0  0
  -23.4350  -28.8940   23.4290 O   0  0  0  0  0  0  0  0  0  0  0  0
  -20.9510  -29.8790   21.7700 H   0  0  0  0  0  0  0  0  0  0  0  0
  -18.0610  -28.1060   22.9520 C   0  0  0  0  0  0  0  0  0  0  0  0
  -20.6180  -28.3840   23.2300 C   0  0  0  0  0  3  0  0  0  0  0  0
  -20.7310  -26.9530   22.6510 C   0  0  0  0  0  2  0  0  0  0  0  0
  -19.6340  -26.6260   21.6330 C   0  0  0  0  0  2  0  0  0  0  0  0
  -18.2490  -26.7600   22.2720 C   0  0  0  0  0  2  0  0  0  0  0  0
  -19.1730  -28.8750   23.3870 C   0  0  0  0  0  0  0  0  0  0  0  0
  -18.9420  -30.1330   23.9850 C   0  0  0  0  0  3  0  0  0  0  0  0
  -17.6330  -30.6230   24.1500 C   0  0  0  0  0  3  0  0  0  0  0  0
  -16.5360  -29.8520   23.7300 C   0  0  0  0  0  3  0  0  0  0  0  0
  -16.7500  -28.5950   23.1370 C   0  0  0  0  0  3  0  0  0  0  0  0
  -25.9160  -32.5500   23.9150 C   0  0  0  0  0  3  0  0  0  0  0  0
  -25.6080  -33.9510   24.2390 N   0  0  0  0  0  0  0  0  0  0  0  0
  -25.9220  -35.0000   23.4660 C   0  0  0  0  0  0  0  0  0  0  0  0
  -26.5680  -34.8890   22.4210 O   0  0  0  0  0  0  0  0  0  0  0  0
  -25.0340  -34.1110   25.0530 H   0  0  0  0  0  0  0  0  0  0  0  0
  -24.1770  -36.7850   23.1520 C   0  0  0  0  0  1  0  0  0  0  0  0
  -25.4460  -36.3930   23.9260 C   0  0  0  0  0  3  0  0  0  0  0  0
  -27.5970  -37.3030   24.6860 C   0  0  0  0  0  1  0  0  0  0  0  0
  -26.4710  -37.4480   23.7670 N   0  0  0  0  0  0  0  0  0  0  0  0
  -26.0640  -38.3690   23.9050 H   0  0  0  0  0  0  0  0  0  0  0  0
  -26.4170  -31.7860   25.2030 C   0  0  1  0  0  0  0  0  0  0  0  0
  -25.3120  -31.5570   26.2600 C   0  0  0  0  0  1  0  0  0  0  0  0
  -27.0030  -30.4050   24.8300 C   0  0  0  0  0  1  0  0  0  0  0  0
  -27.5610  -32.5830   25.8720 C   0  0  0  0  0  1  0  0  0  0  0  0
  1  6  1  0
  2  4  1  0
  3  1  2  0
  4 17  1  0
  4  6  2  0
  5  2  2  0
  5  3  1  0
  6  8  1  0
  7  5  1  0
  9 17  1  0
 10 15  1  0
 11 12  1  0
 11 10  1  0
 13 12  1  0
 13 22  1  0
 13 14  1  0
 15  9  1  0
 15 14  1  0
 16  9  2  0
 17 18  1  0
 19 20  2  0
 20 39  1  0
 21 20  1  0
 21 24  1  0
 22 23  1  0
 22 19  1  0
 23 21  2  0
 24 25  1  0
 25 26  2  0
 27 30  1  0
 27 26  1  0
 28 27  2  0
 29 28  1  0
 29 24  2  0
 30 31  1  0
 31 32  1  0
 32 33  2  0
 34 33  1  0
 34 38  1  0
 35 34  2  0
 36 31  2  0
 36 35  1  0
 37 36  1  0
 39 40  1  0
 40 43  1  0
 40 42  1  0
 41 39  2  0
 44 19  1  0
 44 45  1  0
 46 44  1  0
 47 49  2  0
 48  3  1  0
 48 47  1  0
 50 48  1  0
 51 47  1  0
 51 52  1  0
 53 64  2  0
 54 52  1  0
 54 59  1  0
 55 63  1  0
 55 65  1  0
 56 62  1  0
 56 58  1  0
 57 63  1  0
 58 57  1  0
 59 58  2  0
 60 54  2  0
 61 60  1  0
 61 56  2  0
 62 55  1  0
 63 53  1  0
 65 67  2  0
 66 65  1  0
 68 66  1  0
 69 78  2  0
 69 74  1  0
 70 66  1  0
 70 74  1  0
 71 70  1  0
 72 73  1  0
 72 71  1  0
 73 69  1  0
 74 75  2  0
 75 76  1  0
 77 76  2  0
 78 77  1  0
 79 53  1  0
 79 80  1  0
 79 89  1  0
 80 83  1  0
 81 85  1  0
 81 80  1  0
 82 81  2  0
 85 84  1  0
 87 88  1  0
 87 85  1  0
 87 86  1  0
 89 92  1  1
 89 90  1  0
 91 89  1  0
M  ISO  4   9 100  17 100  51 101  52 101
M  END
>  <TORSDO>  (37) 
F 18

>  <SCORE>  (37) 
-14.810

>  <name>  (37) 
36

>  <ligand_id>  (37) 
36

>  <original_smiles>  (37) 
[H]c1c([H])c([H])c2c(c1[H])C([H])([H])C([H])([H])C([H])([H])C2([H])N([H])C(=O)C1([H])N(C(=O)C([H])(N([H])C(=O)C([H])(N([H])C([H])([H])[H])C([H])([H])[H])C(C([H])([H])[H])(C([H])([H])[H])C([H])([H])[H])C([H])([H])c2c([H])c(OC([H])([H])C(=O)N([H])c3c([H])c(F)c(N([H])C(=O)N4C([H])([H])C([H])([H])C([H])([H])C([H])(n5nc(-c6c([H])c([H])c(Oc7c([H])c([H])c(F)c([H])c7F)c([H])c6[H])c(C(=O)N([H])[H])c5N([H])[H])C4([H])[H])c([H])c3F)c([H])c([H])c2C1([H])[H]

>  <smiles>  (37) 
[H]c1c([H])c([H])c2c(c1[H])C([H])([H])C([H])([H])C([H])([H])C2([H])N([H])C(=O)C1([H])N(C(=O)C([H])(N([H])C(=O)C([H])(N([H])C([H])([H])[H])C([H])([H])[H])C(C([H])([H])[H])(C([H])([H])[H])C([H])([H])[H])C([H])([H])c2c([H])c(OC([H])([H])C(=O)N([H])c3c([H])c(F)c(N([H])C(=O)N4C([H])([H])C([H])([H])C([H])([H])C([H])(n5nc(-c6c([H])c([H])c(Oc7c([H])c([H])c(F)c([H])c7F)c([H])c6[H])c(C(=O)N([H])[H])c5N([H])[H])C4([H])[H])c([H])c3F)c([H])c([H])c2C1([H])[H]

$$$$
37:0:0
     RDKit          3D

 93101  0  0  1  0  0  0  0  0999 V2000
  -30.7300  -18.1660   21.5260 C   0  0  0  0  0  3  0  0  0  0  0  0
  -29.5690  -19.2110   19.6780 C   0  0  0  0  0  3  0  0  0  0  0  0
  -30.1540  -17.9520   20.2590 C   0  0  0  0  0  0  0  0  0  0  0  0
  -30.6970  -19.4200   22.2050 C   0  0  0  0  0  0  0  0  0  0  0  0
  -29.5710  -20.5930   20.2820 C   0  0  0  0  0  0  0  0  0  0  0  0
  -30.1500  -20.5880   21.5850 C   0  0  0  0  0  0  0  0  0  0  0  0
  -30.1620  -21.7400   22.2980 F   0  0  0  0  0  0  0  0  0  0  0  0
  -30.8350  -15.2660   19.8880 C   0  0  0  0  0  0  0  0  0  0  0  0
  -30.6930  -12.8920   18.9730 C   0  0  0  0  0  2  0  0  0  0  0  0
  -29.7090  -12.7800   17.7870 C   0  0  0  0  0  2  0  0  0  0  0  0
  -28.2580  -12.5990   18.2800 C   0  0  0  0  0  2  0  0  0  0  0  0
  -27.8930  -13.5630   19.4400 C   0  0  0  0  0  3  0  0  0  0  0  0
  -28.9900  -13.6050   20.5200 C   0  0  0  0  0  2  0  0  0  0  0  0
  -30.2270  -14.0110   19.8410 N   0  0  0  0  0  0  0  0  0  0  0  0
  -32.0540  -15.2950   19.6840 O   0  0  0  0  0  0  0  0  0  0  0  0
  -30.0410  -16.4680   19.8090 N   0  0  0  0  0  0  0  0  0  0  0  0
  -29.1000  -16.2290   19.5430 H   0  0  0  0  0  0  0  0  0  0  0  0
  -25.5710  -14.2100   20.2960 C   0  0  0  0  0  0  0  0  0  0  0  0
  -24.4930  -13.4690   20.6940 C   0  0  0  0  0  0  0  0  0  0  0  0
  -24.9080  -12.1020   20.6300 C   0  0  0  0  0  0  0  0  0  0  0  0
  -26.5690  -13.3000   19.9960 N   0  0  0  0  0  0  0  0  0  0  0  0
  -26.1840  -12.0250   20.2650 N   0  0  0  0  0  0  0  0  0  0  0  0
  -24.1450  -10.8650   20.8340 C   0  0  0  0  0  0  0  0  0  0  0  0
  -24.5610   -9.8840   21.7610 C   0  0  0  0  0  3  0  0  0  0  0  0
  -23.8010   -8.7110   21.9520 C   0  0  0  0  0  3  0  0  0  0  0  0
  -22.6080   -8.5110   21.2160 C   0  0  0  0  0  0  0  0  0  0  0  0
  -22.2100   -9.4800   20.2790 C   0  0  0  0  0  3  0  0  0  0  0  0
  -22.9720  -10.6450   20.0860 C   0  0  0  0  0  3  0  0  0  0  0  0
  -21.8180   -7.3910   21.3170 O   0  0  0  0  0  0  0  0  0  0  0  0
  -21.7830   -6.6380   22.4650 C   0  0  0  0  0  0  0  0  0  0  0  0
  -21.3530   -7.1780   23.6970 C   0  0  0  0  0  3  0  0  0  0  0  0
  -21.2640   -6.3500   24.8330 C   0  0  0  0  0  3  0  0  0  0  0  0
  -21.5940   -4.9850   24.7400 C   0  0  0  0  0  0  0  0  0  0  0  0
  -22.0180   -4.4450   23.5130 C   0  0  0  0  0  3  0  0  0  0  0  0
  -22.1080   -5.2690   22.3780 C   0  0  0  0  0  0  0  0  0  0  0  0
  -22.4950   -4.7400   21.1920 F   0  0  0  0  0  0  0  0  0  0  0  0
  -21.5010   -4.1880   25.8300 F   0  0  0  0  0  0  0  0  0  0  0  0
  -23.1250  -13.9930   21.0210 C   0  0  0  0  0  0  0  0  0  0  0  0
  -22.3970  -13.3100   21.8960 N   0  0  0  0  0  0  0  0  0  0  0  0
  -22.7110  -15.0440   20.5330 O   0  0  0  0  0  0  0  0  0  0  0  0
  -22.7430  -12.4630   22.3220 H   0  0  0  0  0  0  0  0  0  0  0  0
  -21.4760  -13.6420   22.1460 H   0  0  0  0  0  0  0  0  0  0  0  0
  -25.7800  -15.5780   20.1340 N   0  0  0  0  0  0  0  0  0  0  0  0
  -25.0540  -16.2630   20.3130 H   0  0  0  0  0  0  0  0  0  0  0  0
  -26.6280  -15.9940   19.7790 H   0  0  0  0  0  0  0  0  0  0  0  0
  -30.4390  -20.4030   24.4370 C   0  0  0  0  0  1  0  0  0  0  0  0
  -31.7600  -18.3130   24.1510 C   0  0  0  0  0  1  0  0  0  0  0  0
  -31.1740  -19.5040   23.5410 N   0  0  0  0  0  0  0  0  0  0  0  0
  -28.5260  -21.7180   18.3640 C   0  0  0  0  0  1  0  0  0  0  0  0
  -29.0050  -21.8960   19.7330 N   0  0  0  0  0  0  0  0  0  0  0  0
  -29.2720  -23.4240   20.1080 C   0  0  0  0  0  3  0  0  0  0  0  0
  -28.2010  -24.7540   19.8890 C   0  0  0  0  0  3  0  0  0  0  0  0
  -28.4570  -26.3030   20.0810 O   0  0  0  0  0  0  0  0  0  0  0  0
  -24.7360  -31.8400   23.3000 C   0  0  0  0  0  0  0  0  0  0  0  0
  -27.3980  -27.2990   20.0520 C   0  0  0  0  0  0  0  0  0  0  0  0
  -23.5670  -30.5030   21.5930 C   0  0  0  0  0  3  0  0  0  0  0  0
  -25.0440  -29.0280   20.0950 C   0  0  0  0  0  0  0  0  0  0  0  0
  -26.1180  -30.8210   21.4470 C   0  0  0  0  0  2  0  0  0  0  0  0
  -26.2180  -29.4610   20.7250 C   0  0  0  0  0  0  0  0  0  0  0  0
  -27.3960  -28.6160   20.6810 C   0  0  0  0  0  3  0  0  0  0  0  0
  -26.1940  -26.9790   19.3860 C   0  0  0  0  0  3  0  0  0  0  0  0
  -25.0490  -27.8050   19.4080 C   0  0  0  0  0  3  0  0  0  0  0  0
  -23.8080  -29.9090   20.1800 C   0  0  0  0  0  2  0  0  0  0  0  0
  -24.8270  -31.0740   22.1690 N   0  0  0  0  0  0  0  0  0  0  0  0
  -23.6430  -32.0780   23.8390 O   0  0  0  0  0  0  0  0  0  0  0  0
  -22.9030  -29.4370   22.5010 C   0  0  0  0  0  0  0  0  0  0  0  0
  -21.5840  -29.2250   22.3410 N   0  0  0  0  0  0  0  0  0  0  0  0
  -23.5750  -28.8080   23.3230 O   0  0  0  0  0  0  0  0  0  0  0  0
  -21.0920  -29.8030   21.6730 H   0  0  0  0  0  0  0  0  0  0  0  0
  -18.2450  -27.8490   22.6790 C   0  0  0  0  0  0  0  0  0  0  0  0
  -20.7770  -28.2280   23.0520 C   0  0  0  0  0  3  0  0  0  0  0  0
  -20.9680  -26.8190   22.4470 C   0  0  0  0  0  2  0  0  0  0  0  0
  -19.9210  -26.4690   21.3830 C   0  0  0  0  0  2  0  0  0  0  0  0
  -18.5120  -26.5280   21.9770 C   0  0  0  0  0  2  0  0  0  0  0  0
  -19.3090  -28.6550   23.1680 C   0  0  0  0  0  0  0  0  0  0  0  0
  -19.0030  -29.8870   23.7860 C   0  0  0  0  0  3  0  0  0  0  0  0
  -17.6690  -30.3170   23.9150 C   0  0  0  0  0  3  0  0  0  0  0  0
  -16.6210  -29.5110   23.4370 C   0  0  0  0  0  3  0  0  0  0  0  0
  -16.9100  -28.2780   22.8260 C   0  0  0  0  0  3  0  0  0  0  0  0
  -25.9970  -32.4680   23.9670 C   0  0  0  0  0  3  0  0  0  0  0  0
  -26.5200  -31.6380   25.2040 C   0  0  1  0  0  0  0  0  0  0  0  0
  -25.4210  -31.3020   26.2420 C   0  0  0  0  0  1  0  0  0  0  0  0
  -27.1500  -30.3040   24.7410 C   0  0  0  0  0  1  0  0  0  0  0  0
  -27.6370  -32.4290   25.9270 C   0  0  0  0  0  1  0  0  0  0  0  0
  -25.6530  -33.8400   24.3790 N   0  0  0  0  0  0  0  0  0  0  0  0
  -25.9660  -34.9440   23.6890 C   0  0  0  0  0  0  0  0  0  0  0  0
  -26.6330  -34.9150   22.6510 O   0  0  0  0  0  0  0  0  0  0  0  0
  -25.0540  -33.9320   25.1870 H   0  0  0  0  0  0  0  0  0  0  0  0
  -24.1950  -36.7190   23.4590 C   0  0  0  0  0  1  0  0  0  0  0  0
  -25.4560  -36.2950   24.2290 C   0  0  0  0  0  3  0  0  0  0  0  0
  -27.5750  -37.1860   25.0970 C   0  0  0  0  0  1  0  0  0  0  0  0
  -26.4650  -37.3750   24.1660 N   0  0  0  0  0  0  0  0  0  0  0  0
  -26.0400  -38.2810   24.3550 H   0  0  0  0  0  0  0  0  0  0  0  0
  1  4  1  0
  2  3  1  0
  2  5  2  0
  3  1  2  0
  4 48  1  0
  5  6  1  0
  6  4  2  0
  6  7  1  0
  9 14  1  0
 10 11  1  0
 10  9  1  0
 12 11  1  0
 12 21  1  0
 12 13  1  0
 14  8  1  0
 14 13  1  0
 15  8  2  0
 16  8  1  0
 16  3  1  0
 17 16  1  0
 18 19  2  0
 19 38  1  0
 20 19  1  0
 20 23  1  0
 21 22  1  0
 21 18  1  0
 22 20  2  0
 23 24  1  0
 24 25  2  0
 26 29  1  0
 26 25  1  0
 27 26  2  0
 28 27  1  0
 28 23  2  0
 29 30  1  0
 30 31  1  0
 31 32  2  0
 33 32  1  0
 33 37  1  0
 34 33  2  0
 35 30  2  0
 35 34  1  0
 36 35  1  0
 38 39  1  0
 39 42  1  0
 39 41  1  0
 40 38  2  0
 43 18  1  0
 43 44  1  0
 45 43  1  0
 48 47  1  0
 48 46  1  0
 49 50  1  0
 50 51  1  0
 50  5  1  0
 52 53  1  0
 52 51  2  0
 54 65  2  0
 55 53  1  0
 55 60  1  0
 56 64  1  0
 56 66  1  0
 57 63  1  0
 57 59  1  0
 58 64  1  0
 59 58  1  0
 60 59  2  0
 61 62  1  0
 61 55  2  0
 62 57  2  0
 63 56  1  0
 64 54  1  0
 66 68  2  0
 67 66  1  0
 69 67  1  0
 70 79  2  0
 70 75  1  0
 71 67  1  0
 71 75  1  0
 72 71  1  0
 73 74  1  0
 73 72  1  0
 74 70  1  0
 75 76  2  0
 76 77  1  0
 78 77  2  0
 79 78  1  0
 80 54  1  0
 80 85  1  0
 80 81  1  0
 81 84  1  1
 81 82  1  0
 83 81  1  0
 85 88  1  0
 86 90  1  0
 86 85  1  0
 87 86  2  0
 90 89  1  0
 92 90  1  0
 92 93  1  0
 92 91  1  0
M  ISO  4   8 100  16 100  52 101  53 101
M  END
>  <TORSDO>  (38) 
F 20

>  <SCORE>  (38) 
-11.854

>  <name>  (38) 
37

>  <ligand_id>  (38) 
37

>  <original_smiles>  (38) 
[H]c1c([H])c([H])c2c(c1[H])C([H])([H])C([H])([H])C([H])([H])C2([H])N([H])C(=O)C1([H])N(C(=O)C([H])(N([H])C(=O)C([H])(N([H])C([H])([H])[H])C([H])([H])[H])C(C([H])([H])[H])(C([H])([H])[H])C([H])([H])[H])C([H])([H])c2c([H])c(OC([H])([H])C([H])([H])N(c3c([H])c(N([H])C(=O)N4C([H])([H])C([H])([H])C([H])([H])C([H])(n5nc(-c6c([H])c([H])c(Oc7c([H])c([H])c(F)c([H])c7F)c([H])c6[H])c(C(=O)N([H])[H])c5N([H])[H])C4([H])[H])c([H])c(N(C([H])([H])[H])C([H])([H])[H])c3F)C([H])([H])[H])c([H])c([H])c2C1([H])[H]

>  <smiles>  (38) 
[H]c1c([H])c([H])c2c(c1[H])C([H])([H])C([H])([H])C([H])([H])C2([H])N([H])C(=O)C1([H])N(C(=O)C([H])(N([H])C(=O)C([H])(N([H])C([H])([H])[H])C([H])([H])[H])C(C([H])([H])[H])(C([H])([H])[H])C([H])([H])[H])C([H])([H])c2c([H])c(OC([H])([H])C([H])([H])N(c3c([H])c(N([H])C(=O)N4C([H])([H])C([H])([H])C([H])([H])C([H])(n5nc(-c6c([H])c([H])c(Oc7c([H])c([H])c(F)c([H])c7F)c([H])c6[H])c(C(=O)N([H])[H])c5N([H])[H])C4([H])[H])c([H])c(N(C([H])([H])[H])C([H])([H])[H])c3F)C([H])([H])[H])c([H])c([H])c2C1([H])[H]

$$$$
38:0:0
     RDKit          3D

 94102  0  0  1  0  0  0  0  0999 V2000
  -30.9430  -20.7130   20.7370 C   0  0  0  0  0  3  0  0  0  0  0  0
  -31.3830  -18.2670   20.7470 C   0  0  0  0  0  3  0  0  0  0  0  0
  -29.1580  -19.1300   20.3490 C   0  0  0  0  0  3  0  0  0  0  0  0
  -31.8210  -19.6080   20.8830 C   0  0  0  0  0  0  0  0  0  0  0  0
  -29.5600  -20.5830   20.4640 C   0  0  0  0  0  0  0  0  0  0  0  0
  -30.0460  -17.9130   20.4770 C   0  0  0  0  0  0  0  0  0  0  0  0
  -30.5000  -15.1640   20.3000 C   0  0  0  0  0  0  0  0  0  0  0  0
  -30.4080  -12.7870   19.3620 C   0  0  0  0  0  2  0  0  0  0  0  0
  -29.4590  -12.6670   18.1460 C   0  0  0  0  0  2  0  0  0  0  0  0
  -28.0150  -12.4120   18.6120 C   0  0  0  0  0  2  0  0  0  0  0  0
  -27.5960  -13.3610   19.7640 C   0  0  0  0  0  3  0  0  0  0  0  0
  -28.6640  -13.4430   20.8750 C   0  0  0  0  0  2  0  0  0  0  0  0
  -29.9080  -13.8940   20.2370 N   0  0  0  0  0  0  0  0  0  0  0  0
  -31.7110  -15.1910   20.0490 O   0  0  0  0  0  0  0  0  0  0  0  0
  -29.7240  -16.3820   20.4040 N   0  0  0  0  0  0  0  0  0  0  0  0
  -28.7360  -16.1780   20.4400 H   0  0  0  0  0  0  0  0  0  0  0  0
  -25.2290  -13.9090   20.5540 C   0  0  0  0  0  0  0  0  0  0  0  0
  -24.1790  -13.1230   20.9350 C   0  0  0  0  0  0  0  0  0  0  0  0
  -24.6530  -11.7750   20.8830 C   0  0  0  0  0  0  0  0  0  0  0  0
  -26.2740  -13.0410   20.2880 N   0  0  0  0  0  0  0  0  0  0  0  0
  -25.9390  -11.7530   20.5540 N   0  0  0  0  0  0  0  0  0  0  0  0
  -23.9390  -10.5050   21.0670 C   0  0  0  0  0  0  0  0  0  0  0  0
  -24.3850   -9.5330   21.9890 C   0  0  0  0  0  3  0  0  0  0  0  0
  -23.6680   -8.3290   22.1620 C   0  0  0  0  0  3  0  0  0  0  0  0
  -22.4920   -8.0890   21.4130 C   0  0  0  0  0  0  0  0  0  0  0  0
  -22.0650   -9.0510   20.4800 C   0  0  0  0  0  3  0  0  0  0  0  0
  -22.7830  -10.2460   20.3060 C   0  0  0  0  0  3  0  0  0  0  0  0
  -21.7450   -6.9390   21.4980 O   0  0  0  0  0  0  0  0  0  0  0  0
  -21.7010   -6.1930   22.6480 C   0  0  0  0  0  0  0  0  0  0  0  0
  -21.2430   -6.7320   23.8710 C   0  0  0  0  0  3  0  0  0  0  0  0
  -21.1500   -5.9100   25.0100 C   0  0  0  0  0  3  0  0  0  0  0  0
  -21.5030   -4.5500   24.9310 C   0  0  0  0  0  0  0  0  0  0  0  0
  -21.9520   -4.0100   23.7130 C   0  0  0  0  0  3  0  0  0  0  0  0
  -22.0490   -4.8290   22.5750 C   0  0  0  0  0  0  0  0  0  0  0  0
  -22.4640   -4.2980   21.3990 F   0  0  0  0  0  0  0  0  0  0  0  0
  -21.4050   -3.7580   26.0250 F   0  0  0  0  0  0  0  0  0  0  0  0
  -22.7810  -13.5860   21.2270 C   0  0  0  0  0  0  0  0  0  0  0  0
  -22.0660  -12.8740   22.0910 N   0  0  0  0  0  0  0  0  0  0  0  0
  -22.3320  -14.6140   20.7230 O   0  0  0  0  0  0  0  0  0  0  0  0
  -22.4430  -12.0410   22.5180 H   0  0  0  0  0  0  0  0  0  0  0  0
  -21.1290  -13.1660   22.3270 H   0  0  0  0  0  0  0  0  0  0  0  0
  -25.3760  -15.2830   20.3830 N   0  0  0  0  0  0  0  0  0  0  0  0
  -24.5910  -15.9180   20.4780 H   0  0  0  0  0  0  0  0  0  0  0  0
  -26.1890  -15.7210   19.9720 H   0  0  0  0  0  0  0  0  0  0  0  0
  -33.2960  -19.8390   21.1910 C   0  0  1  0  0  0  0  0  0  0  0  0
  -33.5630  -21.1130   21.4820 F   0  0  0  0  0  0  0  0  0  0  0  0
  -33.6700  -19.0930   22.2310 F   0  0  0  0  0  0  0  0  0  0  0  0
  -34.0300  -19.4860   20.1340 F   0  0  0  0  0  0  0  0  0  0  0  0
  -28.9670  -23.3240   20.4390 C   0  0  0  0  0  0  0  0  0  0  0  0
  -28.7090  -21.8990   20.3330 N   0  0  0  0  0  0  0  0  0  0  0  0
  -30.1090  -23.6960   20.7180 O   0  0  0  0  0  0  0  0  0  0  0  0
  -27.7350  -21.7250   20.1220 H   0  0  0  0  0  0  0  0  0  0  0  0
  -27.8650  -24.5850   20.2320 C   0  0  0  0  0  2  0  0  0  0  0  0
  -28.1970  -26.1370   20.3500 O   0  0  0  0  0  0  0  0  0  0  0  0
  -24.6280  -31.9770   23.2500 C   0  0  0  0  0  0  0  0  0  0  0  0
  -27.1690  -27.1720   20.2690 C   0  0  0  0  0  0  0  0  0  0  0  0
  -23.4200  -30.5750   21.6230 C   0  0  0  0  0  3  0  0  0  0  0  0
  -24.8580  -28.9730   20.2110 C   0  0  0  0  0  0  0  0  0  0  0  0
  -25.9770  -30.8140   21.4510 C   0  0  0  0  0  2  0  0  0  0  0  0
  -26.0440  -29.4050   20.8190 C   0  0  0  0  0  0  0  0  0  0  0  0
  -27.2000  -28.5230   20.8290 C   0  0  0  0  0  3  0  0  0  0  0  0
  -25.9560  -26.8620   19.6120 C   0  0  0  0  0  3  0  0  0  0  0  0
  -24.8320  -27.7170   19.5880 C   0  0  0  0  0  3  0  0  0  0  0  0
  -23.6400  -29.8870   20.2490 C   0  0  0  0  0  2  0  0  0  0  0  0
  -24.6970  -31.1450   22.1640 N   0  0  0  0  0  0  0  0  0  0  0  0
  -23.5430  -32.2710   23.7780 O   0  0  0  0  0  0  0  0  0  0  0  0
  -22.7320  -29.5830   22.5940 C   0  0  0  0  0  0  0  0  0  0  0  0
  -21.4050  -29.4080   22.4570 N   0  0  0  0  0  0  0  0  0  0  0  0
  -23.3950  -28.9730   23.4360 O   0  0  0  0  0  0  0  0  0  0  0  0
  -20.9240  -29.9540   21.7550 H   0  0  0  0  0  0  0  0  0  0  0  0
  -18.0280  -28.1760   22.9270 C   0  0  0  0  0  0  0  0  0  0  0  0
  -20.5790  -28.4770   23.2320 C   0  0  0  0  0  3  0  0  0  0  0  0
  -20.7070  -27.0320   22.6910 C   0  0  0  0  0  2  0  0  0  0  0  0
  -19.6270  -26.6760   21.6660 C   0  0  0  0  0  2  0  0  0  0  0  0
  -18.2330  -26.8160   22.2820 C   0  0  0  0  0  2  0  0  0  0  0  0
  -19.1290  -28.9620   23.3600 C   0  0  0  0  0  0  0  0  0  0  0  0
  -18.8840  -30.2310   23.9250 C   0  0  0  0  0  3  0  0  0  0  0  0
  -17.5700  -30.7190   24.0590 C   0  0  0  0  0  3  0  0  0  0  0  0
  -16.4830  -29.9330   23.6410 C   0  0  0  0  0  3  0  0  0  0  0  0
  -16.7120  -28.6620   23.0810 C   0  0  0  0  0  3  0  0  0  0  0  0
  -25.9100  -32.6130   23.8740 C   0  0  0  0  0  3  0  0  0  0  0  0
  -26.4230  -31.8400   25.1510 C   0  0  1  0  0  0  0  0  0  0  0  0
  -25.3260  -31.5990   26.2160 C   0  0  0  0  0  1  0  0  0  0  0  0
  -27.0070  -30.4640   24.7600 C   0  0  0  0  0  1  0  0  0  0  0  0
  -27.5710  -32.6320   25.8170 C   0  0  0  0  0  1  0  0  0  0  0  0
  -25.6000  -34.0110   24.2100 N   0  0  0  0  0  0  0  0  0  0  0  0
  -25.9080  -35.0690   23.4480 C   0  0  0  0  0  0  0  0  0  0  0  0
  -26.5510  -34.9680   22.4010 O   0  0  0  0  0  0  0  0  0  0  0  0
  -25.0250  -34.1600   25.0270 H   0  0  0  0  0  0  0  0  0  0  0  0
  -24.1600  -36.8560   23.1620 C   0  0  0  0  0  1  0  0  0  0  0  0
  -25.4330  -36.4580   23.9230 C   0  0  0  0  0  3  0  0  0  0  0  0
  -27.5920  -37.3610   24.6690 C   0  0  0  0  0  1  0  0  0  0  0  0
  -26.4560  -37.5150   23.7650 N   0  0  0  0  0  0  0  0  0  0  0  0
  -26.0520  -38.4350   23.9210 H   0  0  0  0  0  0  0  0  0  0  0  0
  1  4  1  0
  2  4  2  0
  3  5  1  0
  3  6  2  0
  4 45  1  0
  5  1  2  0
  6  2  1  0
  7 15  1  0
  8 13  1  0
  9 10  1  0
  9  8  1  0
 11 10  1  0
 11 20  1  0
 11 12  1  0
 13  7  1  0
 13 12  1  0
 14  7  2  0
 15 16  1  0
 15  6  1  0
 17 18  2  0
 18 37  1  0
 19 18  1  0
 19 22  1  0
 20 21  1  0
 20 17  1  0
 21 19  2  0
 22 23  1  0
 23 24  2  0
 25 28  1  0
 25 24  1  0
 26 25  2  0
 27 26  1  0
 27 22  2  0
 28 29  1  0
 29 30  1  0
 30 31  2  0
 32 31  1  0
 32 36  1  0
 33 32  2  0
 34 29  2  0
 34 33  1  0
 35 34  1  0
 37 38  1  0
 38 41  1  0
 38 40  1  0
 39 37  2  0
 42 43  1  0
 42 17  1  0
 44 42  1  0
 45 46  1  1
 45 47  1  0
 48 45  1  0
 49 51  2  0
 50 49  1  0
 50  5  1  0
 52 50  1  0
 53 54  1  0
 53 49  1  0
 55 66  2  0
 56 54  1  0
 56 61  1  0
 57 65  1  0
 57 67  1  0
 58 64  1  0
 58 60  1  0
 59 65  1  0
 60 61  2  0
 60 59  1  0
 62 56  2  0
 63 62  1  0
 63 58  2  0
 64 57  1  0
 65 55  1  0
 67 69  2  0
 68 67  1  0
 70 68  1  0
 71 80  2  0
 71 76  1  0
 72 68  1  0
 72 76  1  0
 73 72  1  0
 74 75  1  0
 74 73  1  0
 75 71  1  0
 76 77  2  0
 77 78  1  0
 79 78  2  0
 80 79  1  0
 81 55  1  0
 81 86  1  0
 81 82  1  0
 82 85  1  1
 82 83  1  0
 84 82  1  0
 86 89  1  0
 87 91  1  0
 87 86  1  0
 88 87  2  0
 91 90  1  0
 93 94  1  0
 93 91  1  0
 93 92  1  0
M  ISO  4   7 100  15 100  53 101  54 101
M  END
>  <TORSDO>  (39) 
F 19

>  <SCORE>  (39) 
-14.478

>  <name>  (39) 
38

>  <ligand_id>  (39) 
38

>  <original_smiles>  (39) 
[H]c1c([H])c([H])c2c(c1[H])C([H])([H])C([H])([H])C([H])([H])C2([H])N([H])C(=O)C1([H])N(C(=O)C([H])(N([H])C(=O)C([H])(N([H])C([H])([H])[H])C([H])([H])[H])C(C([H])([H])[H])(C([H])([H])[H])C([H])([H])[H])C([H])([H])c2c([H])c(OC([H])([H])C(=O)N([H])c3c([H])c(N([H])C(=O)N4C([H])([H])C([H])([H])C([H])([H])C([H])(n5nc(-c6c([H])c([H])c(Oc7c([H])c([H])c(F)c([H])c7F)c([H])c6[H])c(C(=O)N([H])[H])c5N([H])[H])C4([H])[H])c([H])c(C(F)(F)F)c3[H])c([H])c([H])c2C1([H])[H]

>  <smiles>  (39) 
[H]c1c([H])c([H])c2c(c1[H])C([H])([H])C([H])([H])C([H])([H])C2([H])N([H])C(=O)C1([H])N(C(=O)C([H])(N([H])C(=O)C([H])(N([H])C([H])([H])[H])C([H])([H])[H])C(C([H])([H])[H])(C([H])([H])[H])C([H])([H])[H])C([H])([H])c2c([H])c(OC([H])([H])C(=O)N([H])c3c([H])c(N([H])C(=O)N4C([H])([H])C([H])([H])C([H])([H])C([H])(n5nc(-c6c([H])c([H])c(Oc7c([H])c([H])c(F)c([H])c7F)c([H])c6[H])c(C(=O)N([H])[H])c5N([H])[H])C4([H])[H])c([H])c(C(F)(F)F)c3[H])c([H])c([H])c2C1([H])[H]

$$$$
39:0:0
     RDKit          3D

 93101  0  0  1  0  0  0  0  0999 V2000
  -30.0290  -21.3670   20.8460 C   0  0  0  0  0  2  0  0  0  0  0  0
  -29.1410  -19.1000   20.0100 C   0  0  0  0  0  3  0  0  0  0  0  0
  -30.9870  -17.6640   21.5600 C   0  0  0  0  0  3  0  0  0  0  0  0
  -30.0730  -19.8230   20.7880 C   0  0  0  0  0  0  0  0  0  0  0  0
  -30.0300  -16.9460   20.8060 C   0  0  0  0  0  0  0  0  0  0  0  0
  -31.0080  -19.0820   21.5530 C   0  0  0  0  0  0  0  0  0  0  0  0
  -29.1170  -17.6880   20.0150 C   0  0  0  0  0  0  0  0  0  0  0  0
  -31.9190  -19.7290   22.3190 F   0  0  0  0  0  0  0  0  0  0  0  0
  -27.9390  -16.8930   19.0370 Cl  0  0  0  0  0  0  0  0  0  0  0  0
  -30.6260  -14.5390   20.4250 C   0  0  0  0  0  0  0  0  0  0  0  0
  -30.3630  -12.3740   19.2600 C   0  0  0  0  0  2  0  0  0  0  0  0
  -29.4010  -12.5710   18.0680 C   0  0  0  0  0  2  0  0  0  0  0  0
  -27.9310  -12.4180   18.5120 C   0  0  0  0  0  2  0  0  0  0  0  0
  -27.6020  -13.2390   19.7850 C   0  0  0  0  0  3  0  0  0  0  0  0
  -28.6700  -13.0090   20.8780 C   0  0  0  0  0  2  0  0  0  0  0  0
  -29.9860  -13.3410   20.3010 N   0  0  0  0  0  0  0  0  0  0  0  0
  -31.7600  -14.7430   19.9800 O   0  0  0  0  0  0  0  0  0  0  0  0
  -29.8680  -15.5260   20.9440 N   0  0  0  0  0  0  0  0  0  0  0  0
  -28.9350  -15.2240   21.1790 H   0  0  0  0  0  0  0  0  0  0  0  0
  -25.2080  -13.8550   20.5080 C   0  0  0  0  0  0  0  0  0  0  0  0
  -24.1410  -13.0840   20.8840 C   0  0  0  0  0  0  0  0  0  0  0  0
  -24.6020  -11.7330   20.8510 C   0  0  0  0  0  0  0  0  0  0  0  0
  -26.2510  -12.9720   20.2720 N   0  0  0  0  0  0  0  0  0  0  0  0
  -25.8900  -11.6910   20.5350 N   0  0  0  0  0  0  0  0  0  0  0  0
  -23.8760  -10.4720   21.0440 C   0  0  0  0  0  0  0  0  0  0  0  0
  -24.3220   -9.5010   21.9690 C   0  0  0  0  0  3  0  0  0  0  0  0
  -23.5990   -8.3030   22.1510 C   0  0  0  0  0  3  0  0  0  0  0  0
  -22.4170   -8.0680   21.4070 C   0  0  0  0  0  0  0  0  0  0  0  0
  -21.9910   -9.0270   20.4720 C   0  0  0  0  0  3  0  0  0  0  0  0
  -22.7160  -10.2180   20.2880 C   0  0  0  0  0  3  0  0  0  0  0  0
  -21.6650   -6.9230   21.4990 O   0  0  0  0  0  0  0  0  0  0  0  0
  -21.6350   -6.1710   22.6460 C   0  0  0  0  0  0  0  0  0  0  0  0
  -21.2320   -6.7170   23.8840 C   0  0  0  0  0  3  0  0  0  0  0  0
  -21.1500   -5.8920   25.0230 C   0  0  0  0  0  3  0  0  0  0  0  0
  -21.4600   -4.5220   24.9260 C   0  0  0  0  0  0  0  0  0  0  0  0
  -21.8570   -3.9760   23.6930 C   0  0  0  0  0  3  0  0  0  0  0  0
  -21.9420   -4.7980   22.5550 C   0  0  0  0  0  0  0  0  0  0  0  0
  -22.3040   -4.2620   21.3650 F   0  0  0  0  0  0  0  0  0  0  0  0
  -21.3740   -3.7280   26.0180 F   0  0  0  0  0  0  0  0  0  0  0  0
  -22.7460  -13.5640   21.1630 C   0  0  0  0  0  0  0  0  0  0  0  0
  -22.0210  -12.8670   22.0320 N   0  0  0  0  0  0  0  0  0  0  0  0
  -22.3050  -14.5900   20.6470 O   0  0  0  0  0  0  0  0  0  0  0  0
  -22.3900  -12.0370   22.4720 H   0  0  0  0  0  0  0  0  0  0  0  0
  -21.0850  -13.1700   22.2610 H   0  0  0  0  0  0  0  0  0  0  0  0
  -25.3690  -15.2250   20.3310 N   0  0  0  0  0  0  0  0  0  0  0  0
  -24.5940  -15.8710   20.4300 H   0  0  0  0  0  0  0  0  0  0  0  0
  -26.1990  -15.6620   19.9450 H   0  0  0  0  0  0  0  0  0  0  0  0
  -29.4380  -23.2230   19.3930 C   0  0  0  0  0  0  0  0  0  0  0  0
  -29.0940  -23.6930   17.9930 C   0  0  0  0  0  1  0  0  0  0  0  0
  -29.6490  -21.9660   19.5660 N   0  0  0  0  0  0  0  0  0  0  0  0
  -29.5030  -24.3740   20.4250 C   0  0  0  0  0  2  0  0  0  0  0  0
  -28.2070  -25.2440   20.5140 C   0  0  0  0  0  2  0  0  0  0  0  0
  -28.3760  -26.6500   20.1950 O   0  0  0  0  0  0  0  0  0  0  0  0
  -24.5860  -31.9020   23.2370 C   0  0  0  0  0  0  0  0  0  0  0  0
  -27.2180  -27.4150   20.1780 C   0  0  0  0  0  0  0  0  0  0  0  0
  -23.3780  -30.4950   21.6040 C   0  0  0  0  0  3  0  0  0  0  0  0
  -24.8280  -28.9510   20.1830 C   0  0  0  0  0  0  0  0  0  0  0  0
  -25.9070  -30.8430   21.4030 C   0  0  0  0  0  2  0  0  0  0  0  0
  -25.9910  -29.4670   20.7670 C   0  0  0  0  0  0  0  0  0  0  0  0
  -27.1900  -28.7090   20.7580 C   0  0  0  0  0  3  0  0  0  0  0  0
  -26.0340  -26.9310   19.5720 C   0  0  0  0  0  3  0  0  0  0  0  0
  -24.8460  -27.6830   19.5810 C   0  0  0  0  0  3  0  0  0  0  0  0
  -23.5860  -29.8120   20.2270 C   0  0  0  0  0  2  0  0  0  0  0  0
  -24.6430  -31.0950   22.1400 N   0  0  0  0  0  0  0  0  0  0  0  0
  -23.5060  -32.1770   23.7770 O   0  0  0  0  0  0  0  0  0  0  0  0
  -22.7260  -29.4770   22.5690 C   0  0  0  0  0  0  0  0  0  0  0  0
  -21.4020  -29.2940   22.4450 N   0  0  0  0  0  0  0  0  0  0  0  0
  -23.4100  -28.8560   23.3870 O   0  0  0  0  0  0  0  0  0  0  0  0
  -20.9110  -29.8470   21.7560 H   0  0  0  0  0  0  0  0  0  0  0  0
  -18.0280  -28.1010   22.9520 C   0  0  0  0  0  0  0  0  0  0  0  0
  -20.5850  -28.3600   23.2210 C   0  0  0  0  0  3  0  0  0  0  0  0
  -20.6870  -26.9260   22.6510 C   0  0  0  0  0  2  0  0  0  0  0  0
  -19.5850  -26.5990   21.6390 C   0  0  0  0  0  2  0  0  0  0  0  0
  -18.2040  -26.7480   22.2840 C   0  0  0  0  0  2  0  0  0  0  0  0
  -19.1470  -28.8640   23.3780 C   0  0  0  0  0  0  0  0  0  0  0  0
  -18.9290  -30.1320   23.9630 C   0  0  0  0  0  3  0  0  0  0  0  0
  -17.6250  -30.6350   24.1260 C   0  0  0  0  0  3  0  0  0  0  0  0
  -16.5200  -29.8680   23.7150 C   0  0  0  0  0  3  0  0  0  0  0  0
  -16.7220  -28.6020   23.1360 C   0  0  0  0  0  3  0  0  0  0  0  0
  -25.8740  -32.5360   23.8510 C   0  0  0  0  0  3  0  0  0  0  0  0
  -26.3990  -31.7650   25.1240 C   0  0  1  0  0  0  0  0  0  0  0  0
  -25.3120  -31.5280   26.1990 C   0  0  0  0  0  1  0  0  0  0  0  0
  -26.9810  -30.3880   24.7290 C   0  0  0  0  0  1  0  0  0  0  0  0
  -27.5520  -32.5620   25.7790 C   0  0  0  0  0  1  0  0  0  0  0  0
  -25.5640  -33.9330   24.1800 N   0  0  0  0  0  0  0  0  0  0  0  0
  -25.8950  -34.9850   23.4180 C   0  0  0  0  0  0  0  0  0  0  0  0
  -26.5640  -34.8810   22.3870 O   0  0  0  0  0  0  0  0  0  0  0  0
  -24.9700  -34.0880   24.9820 H   0  0  0  0  0  0  0  0  0  0  0  0
  -24.1670  -36.7770   23.0590 C   0  0  0  0  0  1  0  0  0  0  0  0
  -25.4050  -36.3730   23.8750 C   0  0  0  0  0  3  0  0  0  0  0  0
  -27.5390  -37.2560   24.7110 C   0  0  0  0  0  1  0  0  0  0  0  0
  -26.4390  -37.4250   23.7650 N   0  0  0  0  0  0  0  0  0  0  0  0
  -26.0330  -38.3460   23.9140 H   0  0  0  0  0  0  0  0  0  0  0  0
  2  7  2  0
  2  4  1  0
  4  1  1  0
  4  6  2  0
  5 18  1  0
  5  3  2  0
  6  3  1  0
  6  8  1  0
  7  5  1  0
  9  7  1  0
 10 18  1  0
 11 16  1  0
 12 13  1  0
 12 11  1  0
 14 13  1  0
 14 23  1  0
 14 15  1  0
 16 10  1  0
 16 15  1  0
 17 10  2  0
 18 19  1  0
 20 21  2  0
 21 40  1  0
 22 21  1  0
 22 25  1  0
 23 20  1  0
 23 24  1  0
 24 22  2  0
 25 26  1  0
 26 27  2  0
 28 31  1  0
 28 27  1  0
 29 28  2  0
 30 29  1  0
 30 25  2  0
 31 32  1  0
 32 33  1  0
 33 34  2  0
 35 34  1  0
 35 39  1  0
 36 35  2  0
 37 32  2  0
 37 36  1  0
 38 37  1  0
 40 41  1  0
 41 44  1  0
 41 43  1  0
 42 40  2  0
 45 46  1  0
 45 20  1  0
 47 45  1  0
 48 50  2  0
 48 51  1  0
 49 48  1  0
 50  1  1  0
 51 52  1  0
 53 52  1  0
 54 65  2  0
 55 53  1  0
 55 60  1  0
 56 64  1  0
 56 66  1  0
 57 63  1  0
 57 59  1  0
 58 64  1  0
 59 58  1  0
 60 59  2  0
 61 62  1  0
 61 55  2  0
 62 57  2  0
 63 56  1  0
 64 54  1  0
 66 68  2  0
 67 66  1  0
 69 67  1  0
 70 79  2  0
 70 75  1  0
 71 67  1  0
 71 75  1  0
 72 71  1  0
 73 74  1  0
 73 72  1  0
 74 70  1  0
 75 76  2  0
 76 77  1  0
 78 77  2  0
 79 78  1  0
 80 54  1  0
 80 85  1  0
 80 81  1  0
 81 84  1  1
 81 82  1  0
 83 81  1  0
 85 88  1  0
 86 90  1  0
 86 85  1  0
 87 86  2  0
 90 89  1  0
 92 90  1  0
 92 93  1  0
 92 91  1  0
M  ISO  4  10 100  18 100  52 101  53 101
M  END
>  <TORSDO>  (40) 
F 20

>  <SCORE>  (40) 
-14.463

>  <name>  (40) 
39

>  <ligand_id>  (40) 
39

>  <original_smiles>  (40) 
[H]c1c([H])c([H])c2c(c1[H])C([H])([H])C([H])([H])C([H])([H])C2([H])N([H])C(=O)C1([H])N(C(=O)C([H])(N([H])C(=O)C([H])(N([H])C([H])([H])[H])C([H])([H])[H])C(C([H])([H])[H])(C([H])([H])[H])C([H])([H])[H])C([H])([H])c2c([H])c(OC([H])([H])C([H])([H])C(=NC([H])([H])c3c([H])c(Cl)c(N([H])C(=O)N4C([H])([H])C([H])([H])C([H])([H])C([H])(n5nc(-c6c([H])c([H])c(Oc7c([H])c([H])c(F)c([H])c7F)c([H])c6[H])c(C(=O)N([H])[H])c5N([H])[H])C4([H])[H])c([H])c3F)C([H])([H])[H])c([H])c([H])c2C1([H])[H]

>  <smiles>  (40) 
[H]c1c([H])c([H])c2c(c1[H])C([H])([H])C([H])([H])C([H])([H])C2([H])N([H])C(=O)C1([H])N(C(=O)C([H])(N([H])C(=O)C([H])(N([H])C([H])([H])[H])C([H])([H])[H])C(C([H])([H])[H])(C([H])([H])[H])C([H])([H])[H])C([H])([H])c2c([H])c(OC([H])([H])C([H])([H])C(=NC([H])([H])c3c([H])c(Cl)c(N([H])C(=O)N4C([H])([H])C([H])([H])C([H])([H])C([H])(n5nc(-c6c([H])c([H])c(Oc7c([H])c([H])c(F)c([H])c7F)c([H])c6[H])c(C(=O)N([H])[H])c5N([H])[H])C4([H])[H])c([H])c3F)C([H])([H])[H])c([H])c([H])c2C1([H])[H]

$$$$
40:0:0
     RDKit          3D

 92100  0  0  1  0  0  0  0  0999 V2000
  -30.3650  -18.6290   21.0640 C   0  0  0  0  0  3  0  0  0  0  0  0
  -28.3240  -19.6300   19.5020 C   0  0  0  0  0  3  0  0  0  0  0  0
  -29.6150  -17.6100   20.3690 C   0  0  0  0  0  0  0  0  0  0  0  0
  -29.0340  -20.6550   20.2100 C   0  0  0  0  0  0  0  0  0  0  0  0
  -30.0980  -20.0700   20.9940 C   0  0  0  0  0  0  0  0  0  0  0  0
  -28.5850  -18.2090   19.5740 C   0  0  0  0  0  0  0  0  0  0  0  0
  -30.8760  -20.8900   21.7370 F   0  0  0  0  0  0  0  0  0  0  0  0
  -27.5600  -17.1700   18.6510 Cl  0  0  0  0  0  0  0  0  0  0  0  0
  -30.5030  -14.9840   20.3620 C   0  0  0  0  0  0  0  0  0  0  0  0
  -30.4090  -12.6450   19.3920 C   0  0  0  0  0  2  0  0  0  0  0  0
  -29.4670  -12.6350   18.1650 C   0  0  0  0  0  2  0  0  0  0  0  0
  -28.0010  -12.4270   18.5940 C   0  0  0  0  0  2  0  0  0  0  0  0
  -27.6020  -13.3280   19.7920 C   0  0  0  0  0  3  0  0  0  0  0  0
  -28.6630  -13.2950   20.9140 C   0  0  0  0  0  2  0  0  0  0  0  0
  -29.9400  -13.7120   20.3160 N   0  0  0  0  0  0  0  0  0  0  0  0
  -31.6980  -15.1040   20.0690 O   0  0  0  0  0  0  0  0  0  0  0  0
  -29.6410  -16.0860   20.5630 N   0  0  0  0  0  0  0  0  0  0  0  0
  -28.7060  -15.7290   20.6820 H   0  0  0  0  0  0  0  0  0  0  0  0
  -25.2170  -13.9070   20.5260 C   0  0  0  0  0  0  0  0  0  0  0  0
  -24.1530  -13.1300   20.8940 C   0  0  0  0  0  0  0  0  0  0  0  0
  -24.6190  -11.7800   20.8590 C   0  0  0  0  0  0  0  0  0  0  0  0
  -26.2610  -13.0300   20.2840 N   0  0  0  0  0  0  0  0  0  0  0  0
  -25.9100  -11.7460   20.5510 N   0  0  0  0  0  0  0  0  0  0  0  0
  -23.8930  -10.5170   21.0450 C   0  0  0  0  0  0  0  0  0  0  0  0
  -24.3220   -9.5490   21.9800 C   0  0  0  0  0  3  0  0  0  0  0  0
  -23.5950   -8.3510   22.1540 C   0  0  0  0  0  3  0  0  0  0  0  0
  -22.4260   -8.1140   21.3930 C   0  0  0  0  0  0  0  0  0  0  0  0
  -22.0170   -9.0700   20.4470 C   0  0  0  0  0  3  0  0  0  0  0  0
  -22.7440  -10.2600   20.2710 C   0  0  0  0  0  3  0  0  0  0  0  0
  -21.6710   -6.9690   21.4760 O   0  0  0  0  0  0  0  0  0  0  0  0
  -21.6100   -6.2300   22.6300 C   0  0  0  0  0  0  0  0  0  0  0  0
  -21.1550   -6.7830   23.8460 C   0  0  0  0  0  3  0  0  0  0  0  0
  -21.0430   -5.9690   24.9920 C   0  0  0  0  0  3  0  0  0  0  0  0
  -21.3750   -4.6030   24.9200 C   0  0  0  0  0  0  0  0  0  0  0  0
  -21.8230   -4.0490   23.7090 C   0  0  0  0  0  3  0  0  0  0  0  0
  -21.9370   -4.8600   22.5650 C   0  0  0  0  0  0  0  0  0  0  0  0
  -22.3490   -4.3160   21.3950 F   0  0  0  0  0  0  0  0  0  0  0  0
  -21.2600   -3.8190   26.0180 F   0  0  0  0  0  0  0  0  0  0  0  0
  -22.7550  -13.6070   21.1610 C   0  0  0  0  0  0  0  0  0  0  0  0
  -22.0270  -12.9130   22.0290 N   0  0  0  0  0  0  0  0  0  0  0  0
  -22.3150  -14.6280   20.6340 O   0  0  0  0  0  0  0  0  0  0  0  0
  -22.3950  -12.0880   22.4780 H   0  0  0  0  0  0  0  0  0  0  0  0
  -21.0890  -13.2140   22.2500 H   0  0  0  0  0  0  0  0  0  0  0  0
  -25.3720  -15.2770   20.3510 N   0  0  0  0  0  0  0  0  0  0  0  0
  -24.5830  -15.9080   20.4350 H   0  0  0  0  0  0  0  0  0  0  0  0
  -26.1700  -15.7110   19.9020 H   0  0  0  0  0  0  0  0  0  0  0  0
  -28.9040  -23.4320   20.4520 C   0  0  0  0  0  0  0  0  0  0  0  0
  -28.5560  -22.1110   20.0690 N   0  0  0  0  0  0  0  0  0  0  0  0
  -29.9330  -23.6480   21.0950 O   0  0  0  0  0  0  0  0  0  0  0  0
  -27.7070  -22.1580   19.5230 H   0  0  0  0  0  0  0  0  0  0  0  0
  -27.9470  -24.7240   20.0480 C   0  0  0  0  0  2  0  0  0  0  0  0
  -28.2620  -26.2150   20.3670 O   0  0  0  0  0  0  0  0  0  0  0  0
  -24.6420  -31.9310   23.3010 C   0  0  0  0  0  0  0  0  0  0  0  0
  -27.2190  -27.2120   20.2820 C   0  0  0  0  0  0  0  0  0  0  0  0
  -23.4460  -30.5410   21.6560 C   0  0  0  0  0  3  0  0  0  0  0  0
  -24.8960  -28.9640   20.2380 C   0  0  0  0  0  0  0  0  0  0  0  0
  -26.0020  -30.7950   21.5060 C   0  0  0  0  0  2  0  0  0  0  0  0
  -26.0740  -29.4040   20.8550 C   0  0  0  0  0  0  0  0  0  0  0  0
  -27.2360  -28.5430   20.8620 C   0  0  0  0  0  3  0  0  0  0  0  0
  -26.0150  -26.8780   19.6190 C   0  0  0  0  0  3  0  0  0  0  0  0
  -24.8790  -27.7140   19.6050 C   0  0  0  0  0  3  0  0  0  0  0  0
  -23.6720  -29.8640   20.2790 C   0  0  0  0  0  2  0  0  0  0  0  0
  -24.7170  -31.1100   22.2090 N   0  0  0  0  0  0  0  0  0  0  0  0
  -23.5550  -32.2210   23.8220 O   0  0  0  0  0  0  0  0  0  0  0  0
  -22.7580  -29.5360   22.6140 C   0  0  0  0  0  0  0  0  0  0  0  0
  -21.4300  -29.3690   22.4790 N   0  0  0  0  0  0  0  0  0  0  0  0
  -23.4210  -28.9080   23.4430 O   0  0  0  0  0  0  0  0  0  0  0  0
  -20.9510  -29.9240   21.7840 H   0  0  0  0  0  0  0  0  0  0  0  0
  -18.0400  -28.1860   22.9630 C   0  0  0  0  0  0  0  0  0  0  0  0
  -20.5990  -28.4370   23.2450 C   0  0  0  0  0  3  0  0  0  0  0  0
  -20.6970  -27.0030   22.6750 C   0  0  0  0  0  2  0  0  0  0  0  0
  -19.6000  -26.6830   21.6540 C   0  0  0  0  0  2  0  0  0  0  0  0
  -18.2150  -26.8350   22.2900 C   0  0  0  0  0  2  0  0  0  0  0  0
  -19.1590  -28.9450   23.3980 C   0  0  0  0  0  0  0  0  0  0  0  0
  -18.9410  -30.2090   23.9880 C   0  0  0  0  0  3  0  0  0  0  0  0
  -17.6360  -30.7130   24.1480 C   0  0  0  0  0  3  0  0  0  0  0  0
  -16.5320  -29.9510   23.7290 C   0  0  0  0  0  3  0  0  0  0  0  0
  -16.7340  -28.6900   23.1420 C   0  0  0  0  0  3  0  0  0  0  0  0
  -25.9200  -32.5610   23.9330 C   0  0  0  0  0  3  0  0  0  0  0  0
  -25.6150  -33.9640   24.2570 N   0  0  0  0  0  0  0  0  0  0  0  0
  -25.9310  -35.0120   23.4840 C   0  0  0  0  0  0  0  0  0  0  0  0
  -26.5760  -34.9000   22.4390 O   0  0  0  0  0  0  0  0  0  0  0  0
  -25.0370  -34.1250   25.0680 H   0  0  0  0  0  0  0  0  0  0  0  0
  -24.1800  -36.7950   23.1780 C   0  0  0  0  0  1  0  0  0  0  0  0
  -25.4560  -36.4050   23.9420 C   0  0  0  0  0  3  0  0  0  0  0  0
  -27.6160  -37.3150   24.6770 C   0  0  0  0  0  1  0  0  0  0  0  0
  -26.4780  -37.4610   23.7730 N   0  0  0  0  0  0  0  0  0  0  0  0
  -26.0720  -38.3820   23.9200 H   0  0  0  0  0  0  0  0  0  0  0  0
  -26.4140  -31.7960   25.2240 C   0  0  1  0  0  0  0  0  0  0  0  0
  -25.3060  -31.5760   26.2800 C   0  0  0  0  0  1  0  0  0  0  0  0
  -26.9910  -30.4100   24.8540 C   0  0  0  0  0  1  0  0  0  0  0  0
  -27.5640  -32.5870   25.8930 C   0  0  0  0  0  1  0  0  0  0  0  0
  2  6  2  0
  2  4  1  0
  3 17  1  0
  3  1  2  0
  4  5  2  0
  5  1  1  0
  5  7  1  0
  6  3  1  0
  8  6  1  0
  9 17  1  0
 10 15  1  0
 11 12  1  0
 11 10  1  0
 13 12  1  0
 13 22  1  0
 13 14  1  0
 15  9  1  0
 15 14  1  0
 16  9  2  0
 17 18  1  0
 19 20  2  0
 20 39  1  0
 21 20  1  0
 21 24  1  0
 22 19  1  0
 22 23  1  0
 23 21  2  0
 24 25  1  0
 25 26  2  0
 27 30  1  0
 27 26  1  0
 28 27  2  0
 29 28  1  0
 29 24  2  0
 30 31  1  0
 31 32  1  0
 32 33  2  0
 34 33  1  0
 34 38  1  0
 35 34  2  0
 36 31  2  0
 36 35  1  0
 37 36  1  0
 39 40  1  0
 40 43  1  0
 40 42  1  0
 41 39  2  0
 44 45  1  0
 44 19  1  0
 46 44  1  0
 47 49  2  0
 48  4  1  0
 48 47  1  0
 50 48  1  0
 51 52  1  0
 51 47  1  0
 53 64  2  0
 54 52  1  0
 54 59  1  0
 55 63  1  0
 55 65  1  0
 56 62  1  0
 56 58  1  0
 57 63  1  0
 58 59  2  0
 58 57  1  0
 60 54  2  0
 61 60  1  0
 61 56  2  0
 62 55  1  0
 63 53  1  0
 65 67  2  0
 66 65  1  0
 68 66  1  0
 69 78  2  0
 69 74  1  0
 70 66  1  0
 70 74  1  0
 71 70  1  0
 72 73  1  0
 72 71  1  0
 73 69  1  0
 74 75  2  0
 75 76  1  0
 77 76  2  0
 78 77  1  0
 79 53  1  0
 79 80  1  0
 79 89  1  0
 80 83  1  0
 81 85  1  0
 81 80  1  0
 82 81  2  0
 85 84  1  0
 87 88  1  0
 87 85  1  0
 87 86  1  0
 89 92  1  1
 89 90  1  0
 91 89  1  0
M  ISO  4   9 100  17 100  51 101  52 101
M  END
>  <TORSDO>  (41) 
F 18

>  <SCORE>  (41) 
-14.892

>  <name>  (41) 
40

>  <ligand_id>  (41) 
40

>  <original_smiles>  (41) 
[H]c1c([H])c([H])c2c(c1[H])C([H])([H])C([H])([H])C([H])([H])C2([H])N([H])C(=O)C1([H])N(C(=O)C([H])(N([H])C(=O)C([H])(N([H])C([H])([H])[H])C([H])([H])[H])C(C([H])([H])[H])(C([H])([H])[H])C([H])([H])[H])C([H])([H])c2c([H])c(OC([H])([H])C(=O)N([H])c3c([H])c(Cl)c(N([H])C(=O)N4C([H])([H])C([H])([H])C([H])([H])C([H])(n5nc(-c6c([H])c([H])c(Oc7c([H])c([H])c(F)c([H])c7F)c([H])c6[H])c(C(=O)N([H])[H])c5N([H])[H])C4([H])[H])c([H])c3F)c([H])c([H])c2C1([H])[H]

>  <smiles>  (41) 
[H]c1c([H])c([H])c2c(c1[H])C([H])([H])C([H])([H])C([H])([H])C2([H])N([H])C(=O)C1([H])N(C(=O)C([H])(N([H])C(=O)C([H])(N([H])C([H])([H])[H])C([H])([H])[H])C(C([H])([H])[H])(C([H])([H])[H])C([H])([H])[H])C([H])([H])c2c([H])c(OC([H])([H])C(=O)N([H])c3c([H])c(Cl)c(N([H])C(=O)N4C([H])([H])C([H])([H])C([H])([H])C([H])(n5nc(-c6c([H])c([H])c(Oc7c([H])c([H])c(F)c([H])c7F)c([H])c6[H])c(C(=O)N([H])[H])c5N([H])[H])C4([H])[H])c([H])c3F)c([H])c([H])c2C1([H])[H]

$$$$
41:0:0
     RDKit          3D

 94102  0  0  1  0  0  0  0  0999 V2000
  -30.9430  -20.7130   20.7370 C   0  0  0  0  0  3  0  0  0  0  0  0
  -31.3830  -18.2670   20.7470 C   0  0  0  0  0  3  0  0  0  0  0  0
  -29.1580  -19.1300   20.3490 C   0  0  0  0  0  3  0  0  0  0  0  0
  -31.8210  -19.6080   20.8830 C   0  0  0  0  0  0  0  0  0  0  0  0
  -29.5600  -20.5830   20.4640 C   0  0  0  0  0  0  0  0  0  0  0  0
  -30.0460  -17.9130   20.4770 C   0  0  0  0  0  0  0  0  0  0  0  0
  -30.5000  -15.1640   20.3000 C   0  0  0  0  0  0  0  0  0  0  0  0
  -30.4080  -12.7870   19.3620 C   0  0  0  0  0  2  0  0  0  0  0  0
  -29.4590  -12.6670   18.1460 C   0  0  0  0  0  2  0  0  0  0  0  0
  -28.0150  -12.4120   18.6120 C   0  0  0  0  0  2  0  0  0  0  0  0
  -27.5960  -13.3610   19.7640 C   0  0  0  0  0  3  0  0  0  0  0  0
  -28.6640  -13.4430   20.8750 C   0  0  0  0  0  2  0  0  0  0  0  0
  -29.9080  -13.8940   20.2370 N   0  0  0  0  0  0  0  0  0  0  0  0
  -31.7110  -15.1910   20.0490 O   0  0  0  0  0  0  0  0  0  0  0  0
  -29.7240  -16.3820   20.4040 N   0  0  0  0  0  0  0  0  0  0  0  0
  -28.7360  -16.1780   20.4400 H   0  0  0  0  0  0  0  0  0  0  0  0
  -25.2290  -13.9090   20.5540 C   0  0  0  0  0  0  0  0  0  0  0  0
  -24.1790  -13.1230   20.9350 C   0  0  0  0  0  0  0  0  0  0  0  0
  -24.6530  -11.7750   20.8830 C   0  0  0  0  0  0  0  0  0  0  0  0
  -26.2740  -13.0410   20.2880 N   0  0  0  0  0  0  0  0  0  0  0  0
  -25.9390  -11.7530   20.5540 N   0  0  0  0  0  0  0  0  0  0  0  0
  -23.9390  -10.5050   21.0670 C   0  0  0  0  0  0  0  0  0  0  0  0
  -24.3850   -9.5330   21.9890 C   0  0  0  0  0  3  0  0  0  0  0  0
  -23.6680   -8.3290   22.1620 C   0  0  0  0  0  3  0  0  0  0  0  0
  -22.4920   -8.0890   21.4130 C   0  0  0  0  0  0  0  0  0  0  0  0
  -22.0650   -9.0510   20.4800 C   0  0  0  0  0  3  0  0  0  0  0  0
  -22.7830  -10.2460   20.3060 C   0  0  0  0  0  3  0  0  0  0  0  0
  -21.7450   -6.9390   21.4980 O   0  0  0  0  0  0  0  0  0  0  0  0
  -21.7010   -6.1930   22.6480 C   0  0  0  0  0  0  0  0  0  0  0  0
  -21.2430   -6.7320   23.8710 C   0  0  0  0  0  3  0  0  0  0  0  0
  -21.1500   -5.9100   25.0100 C   0  0  0  0  0  3  0  0  0  0  0  0
  -21.5030   -4.5500   24.9310 C   0  0  0  0  0  0  0  0  0  0  0  0
  -21.9520   -4.0100   23.7130 C   0  0  0  0  0  3  0  0  0  0  0  0
  -22.0490   -4.8290   22.5750 C   0  0  0  0  0  0  0  0  0  0  0  0
  -22.4640   -4.2980   21.3990 F   0  0  0  0  0  0  0  0  0  0  0  0
  -21.4050   -3.7580   26.0250 F   0  0  0  0  0  0  0  0  0  0  0  0
  -22.7810  -13.5860   21.2270 C   0  0  0  0  0  0  0  0  0  0  0  0
  -22.0660  -12.8740   22.0910 N   0  0  0  0  0  0  0  0  0  0  0  0
  -22.3320  -14.6140   20.7230 O   0  0  0  0  0  0  0  0  0  0  0  0
  -22.4430  -12.0410   22.5180 H   0  0  0  0  0  0  0  0  0  0  0  0
  -21.1290  -13.1660   22.3270 H   0  0  0  0  0  0  0  0  0  0  0  0
  -25.3760  -15.2830   20.3830 N   0  0  0  0  0  0  0  0  0  0  0  0
  -24.5910  -15.9180   20.4780 H   0  0  0  0  0  0  0  0  0  0  0  0
  -26.1890  -15.7210   19.9720 H   0  0  0  0  0  0  0  0  0  0  0  0
  -33.2960  -19.8390   21.1910 C   0  0  1  0  0  0  0  0  0  0  0  0
  -33.5630  -21.1130   21.4820 F   0  0  0  0  0  0  0  0  0  0  0  0
  -33.6700  -19.0930   22.2310 F   0  0  0  0  0  0  0  0  0  0  0  0
  -34.0300  -19.4860   20.1340 F   0  0  0  0  0  0  0  0  0  0  0  0
  -28.9670  -23.3240   20.4390 C   0  0  0  0  0  0  0  0  0  0  0  0
  -28.7090  -21.8990   20.3330 N   0  0  0  0  0  0  0  0  0  0  0  0
  -30.1090  -23.6960   20.7180 O   0  0  0  0  0  0  0  0  0  0  0  0
  -27.7350  -21.7250   20.1220 H   0  0  0  0  0  0  0  0  0  0  0  0
  -27.8650  -24.5850   20.2320 C   0  0  0  0  0  2  0  0  0  0  0  0
  -28.1970  -26.1370   20.3500 O   0  0  0  0  0  0  0  0  0  0  0  0
  -24.6280  -31.9770   23.2500 C   0  0  0  0  0  0  0  0  0  0  0  0
  -27.1690  -27.1720   20.2690 C   0  0  0  0  0  0  0  0  0  0  0  0
  -23.4200  -30.5750   21.6230 C   0  0  0  0  0  3  0  0  0  0  0  0
  -24.8580  -28.9730   20.2110 C   0  0  0  0  0  0  0  0  0  0  0  0
  -25.9770  -30.8140   21.4510 C   0  0  0  0  0  2  0  0  0  0  0  0
  -26.0440  -29.4050   20.8190 C   0  0  0  0  0  0  0  0  0  0  0  0
  -27.2000  -28.5230   20.8290 C   0  0  0  0  0  3  0  0  0  0  0  0
  -25.9560  -26.8620   19.6120 C   0  0  0  0  0  3  0  0  0  0  0  0
  -24.8320  -27.7170   19.5880 C   0  0  0  0  0  3  0  0  0  0  0  0
  -23.6400  -29.8870   20.2490 C   0  0  0  0  0  2  0  0  0  0  0  0
  -24.6970  -31.1450   22.1640 N   0  0  0  0  0  0  0  0  0  0  0  0
  -23.5430  -32.2710   23.7780 O   0  0  0  0  0  0  0  0  0  0  0  0
  -22.7320  -29.5830   22.5940 C   0  0  0  0  0  0  0  0  0  0  0  0
  -21.4050  -29.4080   22.4570 N   0  0  0  0  0  0  0  0  0  0  0  0
  -23.3950  -28.9730   23.4360 O   0  0  0  0  0  0  0  0  0  0  0  0
  -20.9240  -29.9540   21.7550 H   0  0  0  0  0  0  0  0  0  0  0  0
  -18.0280  -28.1760   22.9270 C   0  0  0  0  0  0  0  0  0  0  0  0
  -20.5790  -28.4770   23.2320 C   0  0  0  0  0  3  0  0  0  0  0  0
  -20.7070  -27.0320   22.6910 C   0  0  0  0  0  2  0  0  0  0  0  0
  -19.6270  -26.6760   21.6660 C   0  0  0  0  0  2  0  0  0  0  0  0
  -18.2330  -26.8160   22.2820 C   0  0  0  0  0  2  0  0  0  0  0  0
  -19.1290  -28.9620   23.3600 C   0  0  0  0  0  0  0  0  0  0  0  0
  -18.8840  -30.2310   23.9250 C   0  0  0  0  0  3  0  0  0  0  0  0
  -17.5700  -30.7190   24.0590 C   0  0  0  0  0  3  0  0  0  0  0  0
  -16.4830  -29.9330   23.6410 C   0  0  0  0  0  3  0  0  0  0  0  0
  -16.7120  -28.6620   23.0810 C   0  0  0  0  0  3  0  0  0  0  0  0
  -25.9100  -32.6130   23.8740 C   0  0  0  0  0  3  0  0  0  0  0  0
  -26.4230  -31.8400   25.1510 C   0  0  1  0  0  0  0  0  0  0  0  0
  -25.3260  -31.5990   26.2160 C   0  0  0  0  0  1  0  0  0  0  0  0
  -27.0070  -30.4640   24.7600 C   0  0  0  0  0  1  0  0  0  0  0  0
  -27.5710  -32.6320   25.8170 C   0  0  0  0  0  1  0  0  0  0  0  0
  -25.6000  -34.0110   24.2100 N   0  0  0  0  0  0  0  0  0  0  0  0
  -25.9080  -35.0690   23.4480 C   0  0  0  0  0  0  0  0  0  0  0  0
  -26.5510  -34.9680   22.4010 O   0  0  0  0  0  0  0  0  0  0  0  0
  -25.0250  -34.1600   25.0270 H   0  0  0  0  0  0  0  0  0  0  0  0
  -24.1600  -36.8560   23.1620 C   0  0  0  0  0  1  0  0  0  0  0  0
  -25.4330  -36.4580   23.9230 C   0  0  0  0  0  3  0  0  0  0  0  0
  -27.5920  -37.3610   24.6690 C   0  0  0  0  0  1  0  0  0  0  0  0
  -26.4560  -37.5150   23.7650 N   0  0  0  0  0  0  0  0  0  0  0  0
  -26.0520  -38.4350   23.9210 H   0  0  0  0  0  0  0  0  0  0  0  0
  1  4  1  0
  2  4  2  0
  3  5  1  0
  3  6  2  0
  4 45  1  0
  5  1  2  0
  6  2  1  0
  7 15  1  0
  8 13  1  0
  9 10  1  0
  9  8  1  0
 11 10  1  0
 11 20  1  0
 11 12  1  0
 13  7  1  0
 13 12  1  0
 14  7  2  0
 15 16  1  0
 15  6  1  0
 17 18  2  0
 18 37  1  0
 19 18  1  0
 19 22  1  0
 20 21  1  0
 20 17  1  0
 21 19  2  0
 22 23  1  0
 23 24  2  0
 25 28  1  0
 25 24  1  0
 26 25  2  0
 27 26  1  0
 27 22  2  0
 28 29  1  0
 29 30  1  0
 30 31  2  0
 32 31  1  0
 32 36  1  0
 33 32  2  0
 34 29  2  0
 34 33  1  0
 35 34  1  0
 37 38  1  0
 38 41  1  0
 38 40  1  0
 39 37  2  0
 42 43  1  0
 42 17  1  0
 44 42  1  0
 45 46  1  1
 45 47  1  0
 48 45  1  0
 49 51  2  0
 50 49  1  0
 50  5  1  0
 52 50  1  0
 53 54  1  0
 53 49  1  0
 55 66  2  0
 56 54  1  0
 56 61  1  0
 57 65  1  0
 57 67  1  0
 58 64  1  0
 58 60  1  0
 59 65  1  0
 60 61  2  0
 60 59  1  0
 62 56  2  0
 63 62  1  0
 63 58  2  0
 64 57  1  0
 65 55  1  0
 67 69  2  0
 68 67  1  0
 70 68  1  0
 71 80  2  0
 71 76  1  0
 72 68  1  0
 72 76  1  0
 73 72  1  0
 74 75  1  0
 74 73  1  0
 75 71  1  0
 76 77  2  0
 77 78  1  0
 79 78  2  0
 80 79  1  0
 81 55  1  0
 81 86  1  0
 81 82  1  0
 82 85  1  1
 82 83  1  0
 84 82  1  0
 86 89  1  0
 87 91  1  0
 87 86  1  0
 88 87  2  0
 91 90  1  0
 93 94  1  0
 93 91  1  0
 93 92  1  0
M  ISO  4   7 100  15 100  53 101  54 101
M  END
>  <TORSDO>  (42) 
F 19

>  <SCORE>  (42) 
-14.478

>  <name>  (42) 
41

>  <ligand_id>  (42) 
41

>  <original_smiles>  (42) 
[H]c1c([H])c([H])c2c(c1[H])C([H])([H])C([H])([H])C([H])([H])C2([H])N([H])C(=O)C1([H])N(C(=O)C([H])(N([H])C(=O)C([H])(N([H])C([H])([H])[H])C([H])([H])[H])C(C([H])([H])[H])(C([H])([H])[H])C([H])([H])[H])C([H])([H])c2c([H])c(OC([H])([H])C(=O)N([H])c3c([H])c(N([H])C(=O)N4C([H])([H])C([H])([H])C([H])([H])C([H])(n5nc(-c6c([H])c([H])c(Oc7c([H])c([H])c(F)c([H])c7F)c([H])c6[H])c(C(=O)N([H])[H])c5N([H])[H])C4([H])[H])c([H])c(C(F)(F)F)c3[H])c([H])c([H])c2C1([H])[H]

>  <smiles>  (42) 
[H]c1c([H])c([H])c2c(c1[H])C([H])([H])C([H])([H])C([H])([H])C2([H])N([H])C(=O)C1([H])N(C(=O)C([H])(N([H])C(=O)C([H])(N([H])C([H])([H])[H])C([H])([H])[H])C(C([H])([H])[H])(C([H])([H])[H])C([H])([H])[H])C([H])([H])c2c([H])c(OC([H])([H])C(=O)N([H])c3c([H])c(N([H])C(=O)N4C([H])([H])C([H])([H])C([H])([H])C([H])(n5nc(-c6c([H])c([H])c(Oc7c([H])c([H])c(F)c([H])c7F)c([H])c6[H])c(C(=O)N([H])[H])c5N([H])[H])C4([H])[H])c([H])c(C(F)(F)F)c3[H])c([H])c([H])c2C1([H])[H]

$$$$
42:0:0
     RDKit          3D

 90 98  0  0  1  0  0  0  0  0999 V2000
  -30.2240  -19.3050   18.0460 C   0  0  0  0  0  3  0  0  0  0  0  0
  -29.7850  -20.4900   18.6780 C   0  0  0  0  0  3  0  0  0  0  0  0
  -29.3340  -19.1280   20.6250 C   0  0  0  0  0  3  0  0  0  0  0  0
  -30.2440  -18.0240   18.6600 C   0  0  0  0  0  0  0  0  0  0  0  0
  -29.2980  -20.5050   19.9990 C   0  0  0  0  0  0  0  0  0  0  0  0
  -29.8210  -17.8390   20.0120 C   0  0  0  0  0  0  0  0  0  0  0  0
  -30.6860  -16.8680   17.7730 C   0  0  0  0  0  1  0  0  0  0  0  0
  -30.5650  -15.1910   20.4950 C   0  0  0  0  0  0  0  0  0  0  0  0
  -30.5410  -12.7800   19.6850 C   0  0  0  0  0  2  0  0  0  0  0  0
  -29.6830  -12.6770   18.4020 C   0  0  0  0  0  2  0  0  0  0  0  0
  -28.1980  -12.4710   18.7570 C   0  0  0  0  0  2  0  0  0  0  0  0
  -27.7170  -13.4220   19.8850 C   0  0  0  0  0  3  0  0  0  0  0  0
  -28.7120  -13.4900   21.0620 C   0  0  0  0  0  2  0  0  0  0  0  0
  -30.0030  -13.9110   20.5030 N   0  0  0  0  0  0  0  0  0  0  0  0
  -31.7820  -15.2380   20.2710 O   0  0  0  0  0  0  0  0  0  0  0  0
  -29.7720  -16.3910   20.6020 N   0  0  0  0  0  0  0  0  0  0  0  0
  -28.8950  -16.1980   21.0650 H   0  0  0  0  0  0  0  0  0  0  0  0
  -25.3000  -13.9900   20.4950 C   0  0  0  0  0  0  0  0  0  0  0  0
  -24.2230  -13.2150   20.8290 C   0  0  0  0  0  0  0  0  0  0  0  0
  -24.6980  -11.8670   20.8480 C   0  0  0  0  0  0  0  0  0  0  0  0
  -26.3600  -13.1180   20.3250 N   0  0  0  0  0  0  0  0  0  0  0  0
  -26.0040  -11.8360   20.6010 N   0  0  0  0  0  0  0  0  0  0  0  0
  -23.9710  -10.6030   21.0270 C   0  0  0  0  0  0  0  0  0  0  0  0
  -24.3580   -9.6560   21.9990 C   0  0  0  0  0  3  0  0  0  0  0  0
  -23.6260   -8.4610   22.1670 C   0  0  0  0  0  3  0  0  0  0  0  0
  -22.4940   -8.1990   21.3600 C   0  0  0  0  0  0  0  0  0  0  0  0
  -22.1290   -9.1340   20.3740 C   0  0  0  0  0  3  0  0  0  0  0  0
  -22.8620  -10.3200   20.2050 C   0  0  0  0  0  3  0  0  0  0  0  0
  -21.7420   -7.0530   21.4300 O   0  0  0  0  0  0  0  0  0  0  0  0
  -21.6270   -6.3370   22.5960 C   0  0  0  0  0  0  0  0  0  0  0  0
  -21.1000   -6.9090   23.7740 C   0  0  0  0  0  3  0  0  0  0  0  0
  -20.9370   -6.1180   24.9280 C   0  0  0  0  0  3  0  0  0  0  0  0
  -21.2910   -4.7550   24.9060 C   0  0  0  0  0  0  0  0  0  0  0  0
  -21.8110   -4.1830   23.7320 C   0  0  0  0  0  3  0  0  0  0  0  0
  -21.9770   -4.9720   22.5800 C   0  0  0  0  0  0  0  0  0  0  0  0
  -22.4570   -4.4090   21.4440 F   0  0  0  0  0  0  0  0  0  0  0  0
  -21.1300   -3.9950   26.0130 F   0  0  0  0  0  0  0  0  0  0  0  0
  -22.8110  -13.6870   21.0200 C   0  0  0  0  0  0  0  0  0  0  0  0
  -22.0450  -13.0060   21.8640 N   0  0  0  0  0  0  0  0  0  0  0  0
  -22.3950  -14.6970   20.4540 O   0  0  0  0  0  0  0  0  0  0  0  0
  -22.3940  -12.1940   22.3500 H   0  0  0  0  0  0  0  0  0  0  0  0
  -21.0920  -13.3010   22.0290 H   0  0  0  0  0  0  0  0  0  0  0  0
  -25.4580  -15.3590   20.2950 N   0  0  0  0  0  0  0  0  0  0  0  0
  -24.6740  -15.9980   20.3340 H   0  0  0  0  0  0  0  0  0  0  0  0
  -26.3150  -15.8000   19.9860 H   0  0  0  0  0  0  0  0  0  0  0  0
  -28.3980  -21.7270   21.9210 C   0  0  0  0  0  1  0  0  0  0  0  0
  -28.8120  -21.8330   20.5270 N   0  0  0  0  0  0  0  0  0  0  0  0
  -28.9780  -23.3120   19.9490 C   0  0  0  0  0  3  0  0  0  0  0  0
  -28.0660  -24.7030   20.3840 C   0  0  0  0  0  3  0  0  0  0  0  0
  -28.2820  -26.2270   20.0130 O   0  0  0  0  0  0  0  0  0  0  0  0
  -24.6410  -31.8950   23.1390 C   0  0  0  0  0  0  0  0  0  0  0  0
  -27.2210  -27.2190   20.0180 C   0  0  0  0  0  0  0  0  0  0  0  0
  -23.4430  -30.5200   21.4840 C   0  0  0  0  0  3  0  0  0  0  0  0
  -24.8930  -28.9800   20.0220 C   0  0  0  0  0  0  0  0  0  0  0  0
  -25.9960  -30.8030   21.3020 C   0  0  0  0  0  2  0  0  0  0  0  0
  -26.0760  -29.4170   20.6300 C   0  0  0  0  0  0  0  0  0  0  0  0
  -27.2420  -28.5550   20.6070 C   0  0  0  0  0  3  0  0  0  0  0  0
  -26.0110  -26.8940   19.3710 C   0  0  0  0  0  3  0  0  0  0  0  0
  -24.8740  -27.7330   19.3790 C   0  0  0  0  0  3  0  0  0  0  0  0
  -23.6600  -29.8670   20.0920 C   0  0  0  0  0  2  0  0  0  0  0  0
  -24.7150  -31.0960   22.0290 N   0  0  0  0  0  0  0  0  0  0  0  0
  -23.5550  -32.1590   23.6790 O   0  0  0  0  0  0  0  0  0  0  0  0
  -22.7800  -29.4900   22.4350 C   0  0  0  0  0  0  0  0  0  0  0  0
  -21.4530  -29.3100   22.3220 N   0  0  0  0  0  0  0  0  0  0  0  0
  -23.4660  -28.8490   23.2350 O   0  0  0  0  0  0  0  0  0  0  0  0
  -20.9540  -29.8740   21.6480 H   0  0  0  0  0  0  0  0  0  0  0  0
  -18.0820  -28.0830   22.8560 C   0  0  0  0  0  0  0  0  0  0  0  0
  -20.6470  -28.3530   23.0850 C   0  0  0  0  0  3  0  0  0  0  0  0
  -20.7440  -26.9340   22.4760 C   0  0  0  0  0  2  0  0  0  0  0  0
  -19.6260  -26.6310   21.4740 C   0  0  0  0  0  2  0  0  0  0  0  0
  -18.2540  -26.7530   22.1430 C   0  0  0  0  0  2  0  0  0  0  0  0
  -19.2050  -28.8440   23.2850 C   0  0  0  0  0  0  0  0  0  0  0  0
  -18.9850  -30.0880   23.9110 C   0  0  0  0  0  3  0  0  0  0  0  0
  -17.6810  -30.5730   24.1170 C   0  0  0  0  0  3  0  0  0  0  0  0
  -16.5750  -29.8100   23.7020 C   0  0  0  0  0  3  0  0  0  0  0  0
  -16.7770  -28.5690   23.0750 C   0  0  0  0  0  3  0  0  0  0  0  0
  -25.9150  -32.5370   23.7670 C   0  0  0  0  0  3  0  0  0  0  0  0
  -26.4400  -31.7510   25.0330 C   0  0  1  0  0  0  0  0  0  0  0  0
  -25.3520  -31.4950   26.1030 C   0  0  0  0  0  1  0  0  0  0  0  0
  -27.0320  -30.3820   24.6270 C   0  0  0  0  0  1  0  0  0  0  0  0
  -27.5860  -32.5460   25.7040 C   0  0  0  0  0  1  0  0  0  0  0  0
  -25.5880  -33.9250   24.1290 N   0  0  0  0  0  0  0  0  0  0  0  0
  -25.9150  -35.0030   23.4030 C   0  0  0  0  0  0  0  0  0  0  0  0
  -26.5910  -34.9340   22.3720 O   0  0  0  0  0  0  0  0  0  0  0  0
  -24.9850  -34.0510   24.9290 H   0  0  0  0  0  0  0  0  0  0  0  0
  -24.1900  -36.8100   23.0780 C   0  0  0  0  0  1  0  0  0  0  0  0
  -25.4190  -36.3780   23.8950 C   0  0  0  0  0  3  0  0  0  0  0  0
  -27.5350  -37.2450   24.7910 C   0  0  0  0  0  1  0  0  0  0  0  0
  -26.4510  -37.4360   23.8310 N   0  0  0  0  0  0  0  0  0  0  0  0
  -26.0410  -38.3520   23.9960 H   0  0  0  0  0  0  0  0  0  0  0  0
  1  4  2  0
  1  2  1  0
  2  5  2  0
  4  6  1  0
  5 47  1  0
  5  3  1  0
  6 16  1  0
  6  3  2  0
  7  4  1  0
  8 14  1  0
  8 16  1  0
  9 14  1  0
 10 11  1  0
 10  9  1  0
 12 11  1  0
 12 21  1  0
 12 13  1  0
 14 13  1  0
 15  8  2  0
 16 17  1  0
 18 19  2  0
 19 20  1  0
 19 38  1  0
 20 23  1  0
 21 18  1  0
 21 22  1  0
 22 20  2  0
 23 24  1  0
 24 25  2  0
 26 29  1  0
 26 25  1  0
 27 26  2  0
 28 27  1  0
 28 23  2  0
 29 30  1  0
 30 31  1  0
 31 32  2  0
 33 32  1  0
 33 37  1  0
 34 33  2  0
 35 30  2  0
 35 34  1  0
 36 35  1  0
 38 39  1  0
 39 42  1  0
 39 41  1  0
 40 38  2  0
 43 44  1  0
 43 18  1  0
 45 43  1  0
 47 46  1  0
 48 49  2  0
 48 47  1  0
 50 52  1  0
 50 49  1  0
 51 62  2  0
 52 57  1  0
 53 61  1  0
 53 63  1  0
 54 60  1  0
 54 56  1  0
 55 61  1  0
 56 55  1  0
 57 56  2  0
 58 59  1  0
 58 52  2  0
 59 54  2  0
 60 53  1  0
 61 51  1  0
 63 65  2  0
 64 63  1  0
 66 64  1  0
 67 76  2  0
 67 72  1  0
 68 64  1  0
 68 72  1  0
 69 68  1  0
 70 71  1  0
 70 69  1  0
 71 67  1  0
 72 73  2  0
 73 74  1  0
 75 74  2  0
 76 75  1  0
 77 51  1  0
 77 82  1  0
 77 78  1  0
 78 81  1  1
 78 79  1  0
 80 78  1  0
 82 85  1  0
 83 87  1  0
 83 82  1  0
 84 83  2  0
 87 86  1  0
 89 87  1  0
 89 90  1  0
 89 88  1  0
M  ISO  4   8 100  16 100  49 101  50 101
M  END
>  <TORSDO>  (43) 
F 19

>  <SCORE>  (43) 
-14.522

>  <name>  (43) 
42

>  <ligand_id>  (43) 
42

>  <original_smiles>  (43) 
[H]c1c([H])c([H])c2c(c1[H])C([H])([H])C([H])([H])C([H])([H])C2([H])N([H])C(=O)C1([H])N(C(=O)C([H])(N([H])C(=O)C([H])(N([H])C([H])([H])[H])C([H])([H])[H])C(C([H])([H])[H])(C([H])([H])[H])C([H])([H])[H])C([H])([H])c2c([H])c(OC([H])([H])C([H])([H])N(c3c([H])c([H])c(C([H])([H])[H])c(N([H])C(=O)N4C([H])([H])C([H])([H])C([H])([H])C([H])(n5nc(-c6c([H])c([H])c(Oc7c([H])c([H])c(F)c([H])c7F)c([H])c6[H])c(C(=O)N([H])[H])c5N([H])[H])C4([H])[H])c3[H])C([H])([H])[H])c([H])c([H])c2C1([H])[H]

>  <smiles>  (43) 
[H]c1c([H])c([H])c2c(c1[H])C([H])([H])C([H])([H])C([H])([H])C2([H])N([H])C(=O)C1([H])N(C(=O)C([H])(N([H])C(=O)C([H])(N([H])C([H])([H])[H])C([H])([H])[H])C(C([H])([H])[H])(C([H])([H])[H])C([H])([H])[H])C([H])([H])c2c([H])c(OC([H])([H])C([H])([H])N(c3c([H])c([H])c(C([H])([H])[H])c(N([H])C(=O)N4C([H])([H])C([H])([H])C([H])([H])C([H])(n5nc(-c6c([H])c([H])c(Oc7c([H])c([H])c(F)c([H])c7F)c([H])c6[H])c(C(=O)N([H])[H])c5N([H])[H])C4([H])[H])c3[H])C([H])([H])[H])c([H])c([H])c2C1([H])[H]

$$$$
43:0:0
     RDKit          3D

 94102  0  0  1  0  0  0  0  0999 V2000
  -29.4580  -21.1570   20.7560 N   0  0  0  0  0  0  0  0  0  0  0  0
  -31.1290  -17.6550   18.8190 C   0  0  0  0  0  3  0  0  0  0  0  0
  -30.7580  -20.0740   18.9990 C   0  0  0  0  0  3  0  0  0  0  0  0
  -30.2420  -17.3760   19.8870 C   0  0  0  0  0  0  0  0  0  0  0  0
  -29.8810  -19.9240   20.0920 C   0  0  0  0  0  0  0  0  0  0  0  0
  -31.3680  -18.9690   18.3770 C   0  0  0  0  0  0  0  0  0  0  0  0
  -29.5890  -18.5370   20.4790 C   0  0  0  0  0  0  0  0  0  0  0  0
  -32.2140  -19.1730   17.3370 F   0  0  0  0  0  0  0  0  0  0  0  0
  -28.6580  -18.3010   21.4360 F   0  0  0  0  0  0  0  0  0  0  0  0
  -30.7060  -14.8060   19.9980 C   0  0  0  0  0  0  0  0  0  0  0  0
  -30.4030  -12.5710   18.9440 C   0  0  0  0  0  2  0  0  0  0  0  0
  -29.4170  -12.7210   17.7660 C   0  0  0  0  0  2  0  0  0  0  0  0
  -27.9710  -12.5420   18.2640 C   0  0  0  0  0  2  0  0  0  0  0  0
  -27.6660  -13.3980   19.5240 C   0  0  0  0  0  3  0  0  0  0  0  0
  -28.7740  -13.2570   20.5910 C   0  0  0  0  0  2  0  0  0  0  0  0
  -30.0500  -13.6000   19.9500 N   0  0  0  0  0  0  0  0  0  0  0  0
  -31.8820  -14.8690   19.6280 O   0  0  0  0  0  0  0  0  0  0  0  0
  -29.9830  -15.9590   20.2810 N   0  0  0  0  0  0  0  0  0  0  0  0
  -29.0940  -15.8020   20.7310 H   0  0  0  0  0  0  0  0  0  0  0  0
  -25.3130  -13.9880   20.3560 C   0  0  0  0  0  0  0  0  0  0  0  0
  -24.2630  -13.2130   20.7620 C   0  0  0  0  0  0  0  0  0  0  0  0
  -24.7240  -11.8610   20.7070 C   0  0  0  0  0  0  0  0  0  0  0  0
  -26.3440  -13.1090   20.0680 N   0  0  0  0  0  0  0  0  0  0  0  0
  -26.0000  -11.8240   20.3430 N   0  0  0  0  0  0  0  0  0  0  0  0
  -24.0060  -10.5980   20.9160 C   0  0  0  0  0  0  0  0  0  0  0  0
  -24.4570   -9.6320   21.8430 C   0  0  0  0  0  3  0  0  0  0  0  0
  -23.7350   -8.4360   22.0390 C   0  0  0  0  0  3  0  0  0  0  0  0
  -22.5460   -8.1970   21.3080 C   0  0  0  0  0  0  0  0  0  0  0  0
  -22.1150   -9.1500   20.3690 C   0  0  0  0  0  3  0  0  0  0  0  0
  -22.8380  -10.3380   20.1710 C   0  0  0  0  0  3  0  0  0  0  0  0
  -21.7920   -7.0530   21.4140 O   0  0  0  0  0  0  0  0  0  0  0  0
  -21.7480   -6.3270   22.5780 C   0  0  0  0  0  0  0  0  0  0  0  0
  -21.3130   -6.8950   23.7950 C   0  0  0  0  0  3  0  0  0  0  0  0
  -21.2160   -6.0930   24.9490 C   0  0  0  0  0  3  0  0  0  0  0  0
  -21.5480   -4.7270   24.8890 C   0  0  0  0  0  0  0  0  0  0  0  0
  -21.9760   -4.1590   23.6760 C   0  0  0  0  0  3  0  0  0  0  0  0
  -22.0740   -4.9570   22.5240 C   0  0  0  0  0  0  0  0  0  0  0  0
  -22.4670   -4.4000   21.3520 F   0  0  0  0  0  0  0  0  0  0  0  0
  -21.4500   -3.9540   25.9960 F   0  0  0  0  0  0  0  0  0  0  0  0
  -22.8790  -13.6910   21.0950 C   0  0  0  0  0  0  0  0  0  0  0  0
  -22.1870  -12.9910   21.9870 N   0  0  0  0  0  0  0  0  0  0  0  0
  -22.4190  -14.7180   20.5970 O   0  0  0  0  0  0  0  0  0  0  0  0
  -22.5700  -12.1570   22.4080 H   0  0  0  0  0  0  0  0  0  0  0  0
  -21.2620  -13.2960   22.2590 H   0  0  0  0  0  0  0  0  0  0  0  0
  -25.4780  -15.3570   20.1780 N   0  0  0  0  0  0  0  0  0  0  0  0
  -24.7280  -16.0220   20.3280 H   0  0  0  0  0  0  0  0  0  0  0  0
  -26.3150  -15.7880   19.8140 H   0  0  0  0  0  0  0  0  0  0  0  0
  -30.8150  -20.4370   22.8330 C   0  0  0  0  0  1  0  0  0  0  0  0
  -29.6970  -21.3160   22.2040 C   0  0  0  0  0  2  0  0  0  0  0  0
  -27.1720  -21.9860   20.2380 C   0  0  0  0  0  1  0  0  0  0  0  0
  -28.6750  -22.2730   20.0760 C   0  0  0  0  0  3  0  0  0  0  0  0
  -28.9790  -23.8140   20.5040 C   0  0  0  0  0  3  0  0  0  0  0  0
  -28.0350  -24.9960   19.9580 C   0  0  0  0  0  3  0  0  0  0  0  0
  -28.2940  -26.4520   20.2020 O   0  0  0  0  0  0  0  0  0  0  0  0
  -24.6330  -31.9240   23.2180 C   0  0  0  0  0  0  0  0  0  0  0  0
  -27.1990  -27.3410   20.1340 C   0  0  0  0  0  0  0  0  0  0  0  0
  -23.4100  -30.5200   21.6010 C   0  0  0  0  0  3  0  0  0  0  0  0
  -24.8400  -28.9750   20.1510 C   0  0  0  0  0  0  0  0  0  0  0  0
  -25.9510  -30.8270   21.3890 C   0  0  0  0  0  2  0  0  0  0  0  0
  -26.0180  -29.4510   20.7410 C   0  0  0  0  0  0  0  0  0  0  0  0
  -27.1960  -28.6430   20.7290 C   0  0  0  0  0  3  0  0  0  0  0  0
  -25.9970  -26.9400   19.4930 C   0  0  0  0  0  3  0  0  0  0  0  0
  -24.8350  -27.7280   19.5190 C   0  0  0  0  0  3  0  0  0  0  0  0
  -23.6030  -29.8480   20.2180 C   0  0  0  0  0  2  0  0  0  0  0  0
  -24.6840  -31.1090   22.1240 N   0  0  0  0  0  0  0  0  0  0  0  0
  -23.5540  -32.2020   23.7650 O   0  0  0  0  0  0  0  0  0  0  0  0
  -22.7660  -29.5000   22.5720 C   0  0  0  0  0  0  0  0  0  0  0  0
  -21.4410  -29.2990   22.4430 N   0  0  0  0  0  0  0  0  0  0  0  0
  -23.4500  -28.8970   23.4000 O   0  0  0  0  0  0  0  0  0  0  0  0
  -20.9470  -29.8390   21.7480 H   0  0  0  0  0  0  0  0  0  0  0  0
  -18.0850  -28.0350   22.9270 C   0  0  0  0  0  0  0  0  0  0  0  0
  -20.6350  -28.3570   23.2210 C   0  0  0  0  0  3  0  0  0  0  0  0
  -20.7800  -26.9190   22.6750 C   0  0  0  0  0  2  0  0  0  0  0  0
  -19.6970  -26.5470   21.6590 C   0  0  0  0  0  2  0  0  0  0  0  0
  -18.3000  -26.6750   22.2790 C   0  0  0  0  0  2  0  0  0  0  0  0
  -19.1820  -28.8310   23.3510 C   0  0  0  0  0  0  0  0  0  0  0  0
  -18.9310  -30.1020   23.9160 C   0  0  0  0  0  3  0  0  0  0  0  0
  -17.6150  -30.5740   24.0650 C   0  0  0  0  0  3  0  0  0  0  0  0
  -16.5320  -29.7770   23.6590 C   0  0  0  0  0  3  0  0  0  0  0  0
  -16.7670  -28.5100   23.0920 C   0  0  0  0  0  3  0  0  0  0  0  0
  -25.9220  -32.5600   23.8200 C   0  0  0  0  0  3  0  0  0  0  0  0
  -25.6120  -33.9600   24.1440 N   0  0  0  0  0  0  0  0  0  0  0  0
  -25.9410  -35.0110   23.3820 C   0  0  0  0  0  0  0  0  0  0  0  0
  -26.5990  -34.9050   22.3430 O   0  0  0  0  0  0  0  0  0  0  0  0
  -25.0330  -34.1210   24.9540 H   0  0  0  0  0  0  0  0  0  0  0  0
  -24.2070  -36.8060   23.0370 C   0  0  0  0  0  1  0  0  0  0  0  0
  -25.4530  -36.4010   23.8410 C   0  0  0  0  0  3  0  0  0  0  0  0
  -27.5890  -37.2850   24.6610 C   0  0  0  0  0  1  0  0  0  0  0  0
  -26.4840  -37.4540   23.7210 N   0  0  0  0  0  0  0  0  0  0  0  0
  -26.0800  -38.3750   23.8700 H   0  0  0  0  0  0  0  0  0  0  0  0
  -26.4550  -31.8030   25.1000 C   0  0  1  0  0  0  0  0  0  0  0  0
  -25.3690  -31.5690   26.1780 C   0  0  0  0  0  1  0  0  0  0  0  0
  -27.0480  -30.4290   24.7120 C   0  0  0  0  0  1  0  0  0  0  0  0
  -27.6040  -32.6110   25.7440 C   0  0  0  0  0  1  0  0  0  0  0  0
  1 49  1  0
  2  4  1  0
  3  5  2  0
  4 18  1  0
  4  7  2  0
  5  7  1  0
  5  1  1  0
  6  2  2  0
  6  3  1  0
  7  9  1  0
  8  6  1  0
 10 18  1  0
 11 16  1  0
 12 13  1  0
 12 11  1  0
 14 13  1  0
 14 23  1  0
 14 15  1  0
 16 10  1  0
 16 15  1  0
 17 10  2  0
 18 19  1  0
 20 21  2  0
 21 40  1  0
 22 21  1  0
 22 25  1  0
 23 24  1  0
 23 20  1  0
 24 22  2  0
 25 26  1  0
 26 27  2  0
 28 31  1  0
 28 27  1  0
 29 28  2  0
 30 29  1  0
 30 25  2  0
 31 32  1  0
 32 33  1  0
 33 34  2  0
 35 34  1  0
 35 39  1  0
 36 35  2  0
 37 32  2  0
 37 36  1  0
 38 37  1  0
 40 41  1  0
 41 44  1  0
 41 43  1  0
 42 40  2  0
 45 46  1  0
 45 20  1  0
 47 45  1  0
 49 48  1  0
 51 50  1  0
 51 52  1  0
 51  1  1  0
 53 54  1  0
 53 52  2  0
 55 66  2  0
 56 54  1  0
 56 61  1  0
 57 65  1  0
 57 67  1  0
 58 64  1  0
 58 60  1  0
 59 65  1  0
 60 59  1  0
 61 60  2  0
 62 63  1  0
 62 56  2  0
 63 58  2  0
 64 57  1  0
 65 55  1  0
 67 69  2  0
 68 67  1  0
 70 68  1  0
 71 80  2  0
 71 76  1  0
 72 68  1  0
 72 76  1  0
 73 72  1  0
 74 75  1  0
 74 73  1  0
 75 71  1  0
 76 77  2  0
 77 78  1  0
 79 78  2  0
 80 79  1  0
 81 55  1  0
 81 82  1  0
 81 91  1  0
 82 85  1  0
 83 87  1  0
 83 82  1  0
 84 83  2  0
 87 86  1  0
 89 87  1  0
 89 90  1  0
 89 88  1  0
 91 94  1  1
 91 92  1  0
 93 91  1  0
M  ISO  4  10 100  18 100  53 101  54 101
M  END
>  <TORSDO>  (44) 
F 21

>  <SCORE>  (44) 
-13.134

>  <name>  (44) 
43

>  <ligand_id>  (44) 
43

>  <original_smiles>  (44) 
[H]c1c([H])c([H])c2c(c1[H])C([H])([H])C([H])([H])C([H])([H])C2([H])N([H])C(=O)C1([H])N(C(=O)C([H])(N([H])C(=O)C([H])(N([H])C([H])([H])[H])C([H])([H])[H])C(C([H])([H])[H])(C([H])([H])[H])C([H])([H])[H])C([H])([H])c2c([H])c(OC([H])([H])C([H])([H])C([H])(N(c3c([H])c(F)c([H])c(N([H])C(=O)N4C([H])([H])C([H])([H])C([H])([H])C([H])(n5nc(-c6c([H])c([H])c(Oc7c([H])c([H])c(F)c([H])c7F)c([H])c6[H])c(C(=O)N([H])[H])c5N([H])[H])C4([H])[H])c3F)C([H])([H])C([H])([H])[H])C([H])([H])[H])c([H])c([H])c2C1([H])[H]

>  <smiles>  (44) 
[H]c1c([H])c([H])c2c(c1[H])C([H])([H])C([H])([H])C([H])([H])C2([H])N([H])C(=O)C1([H])N(C(=O)C([H])(N([H])C(=O)C([H])(N([H])C([H])([H])[H])C([H])([H])[H])C(C([H])([H])[H])(C([H])([H])[H])C([H])([H])[H])C([H])([H])c2c([H])c(OC([H])([H])C([H])([H])C([H])(N(c3c([H])c(F)c([H])c(N([H])C(=O)N4C([H])([H])C([H])([H])C([H])([H])C([H])(n5nc(-c6c([H])c([H])c(Oc7c([H])c([H])c(F)c([H])c7F)c([H])c6[H])c(C(=O)N([H])[H])c5N([H])[H])C4([H])[H])c3F)C([H])([H])C([H])([H])[H])C([H])([H])[H])c([H])c([H])c2C1([H])[H]

$$$$
44:0:0
     RDKit          3D

 94102  0  0  1  0  0  0  0  0999 V2000
  -29.9050  -21.5590   19.8920 C   0  0  0  0  0  2  0  0  0  0  0  0
  -29.5920  -23.8940   20.6950 C   0  0  0  0  0  0  0  0  0  0  0  0
  -29.3010  -22.5850   20.7490 N   0  0  0  0  0  0  0  0  0  0  0  0
  -30.4930  -24.3310   19.9750 O   0  0  0  0  0  0  0  0  0  0  0  0
  -28.5620  -22.2900   21.3750 H   0  0  0  0  0  0  0  0  0  0  0  0
  -28.7440  -24.8370   21.5650 C   0  0  0  0  0  2  0  0  0  0  0  0
  -28.9520  -26.3530   21.3170 C   0  0  0  0  0  2  0  0  0  0  0  0
  -28.3630  -26.7610   20.0790 O   0  0  0  0  0  0  0  0  0  0  0  0
  -24.5630  -31.9310   23.2330 C   0  0  0  0  0  0  0  0  0  0  0  0
  -27.2080  -27.5010   20.1590 C   0  0  0  0  0  0  0  0  0  0  0  0
  -23.3500  -30.5260   21.5950 C   0  0  0  0  0  3  0  0  0  0  0  0
  -24.8050  -28.9830   20.1740 C   0  0  0  0  0  0  0  0  0  0  0  0
  -25.8730  -30.8900   21.3900 C   0  0  0  0  0  2  0  0  0  0  0  0
  -25.9580  -29.5150   20.7640 C   0  0  0  0  0  0  0  0  0  0  0  0
  -27.1630  -28.7780   20.7640 C   0  0  0  0  0  3  0  0  0  0  0  0
  -26.0440  -26.9820   19.5590 C   0  0  0  0  0  3  0  0  0  0  0  0
  -24.8400  -27.7110   19.5730 C   0  0  0  0  0  3  0  0  0  0  0  0
  -23.5580  -29.8380   20.2180 C   0  0  0  0  0  2  0  0  0  0  0  0
  -24.6140  -31.1310   22.1310 N   0  0  0  0  0  0  0  0  0  0  0  0
  -23.4840  -32.2050   23.7760 O   0  0  0  0  0  0  0  0  0  0  0  0
  -22.7030  -29.5080   22.5610 C   0  0  0  0  0  0  0  0  0  0  0  0
  -21.3780  -29.3300   22.4400 N   0  0  0  0  0  0  0  0  0  0  0  0
  -23.3890  -28.8800   23.3720 O   0  0  0  0  0  0  0  0  0  0  0  0
  -20.8860  -29.8870   21.7550 H   0  0  0  0  0  0  0  0  0  0  0  0
  -18.0010  -28.1570   22.9600 C   0  0  0  0  0  0  0  0  0  0  0  0
  -20.5610  -28.3960   23.2150 C   0  0  0  0  0  3  0  0  0  0  0  0
  -20.6510  -26.9670   22.6320 C   0  0  0  0  0  2  0  0  0  0  0  0
  -19.5390  -26.6540   21.6260 C   0  0  0  0  0  2  0  0  0  0  0  0
  -18.1630  -26.8080   22.2790 C   0  0  0  0  0  2  0  0  0  0  0  0
  -19.1280  -28.9100   23.3840 C   0  0  0  0  0  0  0  0  0  0  0  0
  -18.9240  -30.1740   23.9780 C   0  0  0  0  0  3  0  0  0  0  0  0
  -17.6240  -30.6850   24.1540 C   0  0  0  0  0  3  0  0  0  0  0  0
  -16.5110  -29.9300   23.7470 C   0  0  0  0  0  3  0  0  0  0  0  0
  -16.7000  -28.6690   23.1550 C   0  0  0  0  0  3  0  0  0  0  0  0
  -25.8530  -32.5620   23.8460 C   0  0  0  0  0  3  0  0  0  0  0  0
  -25.5460  -33.9600   24.1800 N   0  0  0  0  0  0  0  0  0  0  0  0
  -25.8810  -35.0120   23.4220 C   0  0  0  0  0  0  0  0  0  0  0  0
  -26.5500  -34.9090   22.3900 O   0  0  0  0  0  0  0  0  0  0  0  0
  -24.9510  -34.1130   24.9810 H   0  0  0  0  0  0  0  0  0  0  0  0
  -24.1560  -36.8080   23.0640 C   0  0  0  0  0  1  0  0  0  0  0  0
  -25.3930  -36.4000   23.8800 C   0  0  0  0  0  3  0  0  0  0  0  0
  -27.5250  -37.2780   24.7240 C   0  0  0  0  0  1  0  0  0  0  0  0
  -26.4290  -37.4500   23.7750 N   0  0  0  0  0  0  0  0  0  0  0  0
  -26.0240  -38.3720   23.9220 H   0  0  0  0  0  0  0  0  0  0  0  0
  -26.3810  -31.7860   25.1150 C   0  0  1  0  0  0  0  0  0  0  0  0
  -25.2930  -31.5350   26.1860 C   0  0  0  0  0  1  0  0  0  0  0  0
  -26.9720  -30.4150   24.7100 C   0  0  0  0  0  1  0  0  0  0  0  0
  -27.5280  -32.5840   25.7770 C   0  0  0  0  0  1  0  0  0  0  0  0
  -29.1840  -20.1900   19.9820 C   0  0  0  0  0  2  0  0  0  0  0  0
  -30.6770  -19.4290   21.9390 C   0  0  0  0  0  3  0  0  0  0  0  0
  -31.2560  -18.4020   22.7130 C   0  0  0  0  0  3  0  0  0  0  0  0
  -29.5800  -17.7490   20.5580 C   0  0  0  0  0  3  0  0  0  0  0  0
  -29.8380  -19.1100   20.8480 C   0  0  0  0  0  0  0  0  0  0  0  0
  -30.1600  -16.7150   21.3300 C   0  0  0  0  0  0  0  0  0  0  0  0
  -30.9990  -17.0480   22.4180 C   0  0  0  0  0  0  0  0  0  0  0  0
  -31.6890  -15.8210   23.4240 Cl  0  0  0  0  0  0  0  0  0  0  0  0
  -30.4210  -14.5250   20.2210 C   0  0  0  0  0  0  0  0  0  0  0  0
  -30.0680  -12.4880   18.8640 C   0  0  0  0  0  2  0  0  0  0  0  0
  -29.0350  -12.7750   17.7560 C   0  0  0  0  0  2  0  0  0  0  0  0
  -27.5950  -12.5810   18.2740 C   0  0  0  0  0  2  0  0  0  0  0  0
  -27.3440  -13.3010   19.6250 C   0  0  0  0  0  3  0  0  0  0  0  0
  -28.4730  -12.9770   20.6280 C   0  0  0  0  0  2  0  0  0  0  0  0
  -29.7550  -13.3570   20.0080 N   0  0  0  0  0  0  0  0  0  0  0  0
  -31.4600  -14.8270   19.6250 O   0  0  0  0  0  0  0  0  0  0  0  0
  -29.8070  -15.3660   21.0690 N   0  0  0  0  0  0  0  0  0  0  0  0
  -28.9430  -15.0380   21.4710 H   0  0  0  0  0  0  0  0  0  0  0  0
  -24.9640  -13.8150   20.4660 C   0  0  0  0  0  0  0  0  0  0  0  0
  -23.9470  -13.0000   20.8870 C   0  0  0  0  0  0  0  0  0  0  0  0
  -24.4560  -11.6680   20.8170 C   0  0  0  0  0  0  0  0  0  0  0  0
  -26.0270  -12.9750   20.1700 N   0  0  0  0  0  0  0  0  0  0  0  0
  -25.7260  -11.6780   20.4360 N   0  0  0  0  0  0  0  0  0  0  0  0
  -23.7890  -10.3780   21.0330 C   0  0  0  0  0  0  0  0  0  0  0  0
  -24.2760   -9.4420   21.9740 C   0  0  0  0  0  3  0  0  0  0  0  0
  -23.6060   -8.2170   22.1770 C   0  0  0  0  0  3  0  0  0  0  0  0
  -22.4360   -7.9170   21.4400 C   0  0  0  0  0  0  0  0  0  0  0  0
  -21.9690   -8.8410   20.4890 C   0  0  0  0  0  3  0  0  0  0  0  0
  -22.6390  -10.0590   20.2840 C   0  0  0  0  0  3  0  0  0  0  0  0
  -21.7340   -6.7410   21.5530 O   0  0  0  0  0  0  0  0  0  0  0  0
  -21.7050   -6.0310   22.7260 C   0  0  0  0  0  0  0  0  0  0  0  0
  -21.2360   -6.5990   23.9300 C   0  0  0  0  0  3  0  0  0  0  0  0
  -21.1580   -5.8110   25.0960 C   0  0  0  0  0  3  0  0  0  0  0  0
  -21.5370   -4.4560   25.0590 C   0  0  0  0  0  0  0  0  0  0  0  0
  -21.9980   -3.8880   23.8590 C   0  0  0  0  0  3  0  0  0  0  0  0
  -22.0790   -4.6720   22.6940 C   0  0  0  0  0  0  0  0  0  0  0  0
  -22.5040   -4.1120   21.5360 F   0  0  0  0  0  0  0  0  0  0  0  0
  -21.4540   -3.6970   26.1770 F   0  0  0  0  0  0  0  0  0  0  0  0
  -22.5510  -13.4220   21.2420 C   0  0  0  0  0  0  0  0  0  0  0  0
  -21.9000  -12.6940   22.1440 N   0  0  0  0  0  0  0  0  0  0  0  0
  -22.0440  -14.4330   20.7580 O   0  0  0  0  0  0  0  0  0  0  0  0
  -22.3230  -11.8760   22.5580 H   0  0  0  0  0  0  0  0  0  0  0  0
  -20.9660  -12.9600   22.4230 H   0  0  0  0  0  0  0  0  0  0  0  0
  -25.0690  -15.1930   20.2940 N   0  0  0  0  0  0  0  0  0  0  0  0
  -24.2870  -15.8190   20.4520 H   0  0  0  0  0  0  0  0  0  0  0  0
  -25.8870  -15.6660   19.9310 H   0  0  0  0  0  0  0  0  0  0  0  0
  1 49  1  0
  1  3  1  0
  2  3  1  0
  2  6  1  0
  3  5  1  0
  4  2  2  0
  7  6  1  0
  8 10  1  0
  8  7  1  0
  9 20  2  0
 10 15  1  0
 11 19  1  0
 11 21  1  0
 12 18  1  0
 12 14  1  0
 13 19  1  0
 14 15  2  0
 14 13  1  0
 16 17  1  0
 16 10  2  0
 17 12  2  0
 18 11  1  0
 19  9  1  0
 21 23  2  0
 22 21  1  0
 24 22  1  0
 25 34  2  0
 25 30  1  0
 26 22  1  0
 26 30  1  0
 27 26  1  0
 28 29  1  0
 28 27  1  0
 29 25  1  0
 30 31  2  0
 31 32  1  0
 33 32  2  0
 34 33  1  0
 35  9  1  0
 35 36  1  0
 35 45  1  0
 36 39  1  0
 37 41  1  0
 37 36  1  0
 38 37  2  0
 41 40  1  0
 43 41  1  0
 43 44  1  0
 43 42  1  0
 45 48  1  1
 45 46  1  0
 47 45  1  0
 49 53  1  0
 50 51  1  0
 52 53  1  0
 52 54  2  0
 53 50  2  0
 54 55  1  0
 55 51  2  0
 55 56  1  0
 57 65  1  0
 58 63  1  0
 59 60  1  0
 59 58  1  0
 61 60  1  0
 61 70  1  0
 61 62  1  0
 63 57  1  0
 63 62  1  0
 64 57  2  0
 65 54  1  0
 65 66  1  0
 67 68  2  0
 68 87  1  0
 69 68  1  0
 69 72  1  0
 70 71  1  0
 70 67  1  0
 71 69  2  0
 72 73  1  0
 73 74  2  0
 75 78  1  0
 75 74  1  0
 76 75  2  0
 77 76  1  0
 77 72  2  0
 78 79  1  0
 79 80  1  0
 80 81  2  0
 82 81  1  0
 82 86  1  0
 83 82  2  0
 84 79  2  0
 84 83  1  0
 85 84  1  0
 87 88  1  0
 88 91  1  0
 88 90  1  0
 89 87  2  0
 92 93  1  0
 92 67  1  0
 94 92  1  0
M  ISO  4   7 101   8 101  57 100  65 100
M  END
>  <TORSDO>  (45) 
F 21

>  <SCORE>  (45) 
-11.066

>  <name>  (45) 
44

>  <ligand_id>  (45) 
44

>  <original_smiles>  (45) 
[H]c1c([H])c([H])c2c(c1[H])C([H])([H])C([H])([H])C([H])([H])C2([H])N([H])C(=O)C1([H])N(C(=O)C([H])(N([H])C(=O)C([H])(N([H])C([H])([H])[H])C([H])([H])[H])C(C([H])([H])[H])(C([H])([H])[H])C([H])([H])[H])C([H])([H])c2c([H])c(OC([H])([H])C([H])([H])C(=O)N([H])C([H])([H])C([H])([H])c3c([H])c([H])c(Cl)c(N([H])C(=O)N4C([H])([H])C([H])([H])C([H])([H])C([H])(n5nc(-c6c([H])c([H])c(Oc7c([H])c([H])c(F)c([H])c7F)c([H])c6[H])c(C(=O)N([H])[H])c5N([H])[H])C4([H])[H])c3[H])c([H])c([H])c2C1([H])[H]

>  <smiles>  (45) 
[H]c1c([H])c([H])c2c(c1[H])C([H])([H])C([H])([H])C([H])([H])C2([H])N([H])C(=O)C1([H])N(C(=O)C([H])(N([H])C(=O)C([H])(N([H])C([H])([H])[H])C([H])([H])[H])C(C([H])([H])[H])(C([H])([H])[H])C([H])([H])[H])C([H])([H])c2c([H])c(OC([H])([H])C([H])([H])C(=O)N([H])C([H])([H])C([H])([H])c3c([H])c([H])c(Cl)c(N([H])C(=O)N4C([H])([H])C([H])([H])C([H])([H])C([H])(n5nc(-c6c([H])c([H])c(Oc7c([H])c([H])c(F)c([H])c7F)c([H])c6[H])c(C(=O)N([H])[H])c5N([H])[H])C4([H])[H])c3[H])c([H])c([H])c2C1([H])[H]

$$$$
45:0:0
     RDKit          3D

 92100  0  0  1  0  0  0  0  0999 V2000
  -28.7230  -21.1390   19.8560 C   0  0  0  0  0  2  0  0  0  0  0  0
  -30.5490  -20.0650   21.3540 C   0  0  0  0  0  3  0  0  0  0  0  0
  -31.2760  -18.9710   21.8730 C   0  0  0  0  0  3  0  0  0  0  0  0
  -29.1890  -18.4770   20.1110 C   0  0  0  0  0  3  0  0  0  0  0  0
  -29.4760  -19.8660   20.4620 C   0  0  0  0  0  0  0  0  0  0  0  0
  -29.9370  -17.3290   20.6160 C   0  0  0  0  0  0  0  0  0  0  0  0
  -30.9790  -17.6350   21.5250 C   0  0  0  0  0  0  0  0  0  0  0  0
  -31.6820  -16.6430   22.1230 F   0  0  0  0  0  0  0  0  0  0  0  0
  -30.4140  -14.7970   20.0800 C   0  0  0  0  0  0  0  0  0  0  0  0
  -30.1720  -12.5730   18.9520 C   0  0  0  0  0  2  0  0  0  0  0  0
  -29.1470  -12.6860   17.8020 C   0  0  0  0  0  2  0  0  0  0  0  0
  -27.7130  -12.4730   18.3250 C   0  0  0  0  0  2  0  0  0  0  0  0
  -27.4160  -13.2990   19.6030 C   0  0  0  0  0  3  0  0  0  0  0  0
  -28.5490  -13.1680   20.6440 C   0  0  0  0  0  2  0  0  0  0  0  0
  -29.7940  -13.5710   19.9780 N   0  0  0  0  0  0  0  0  0  0  0  0
  -31.5820  -14.9200   19.6980 O   0  0  0  0  0  0  0  0  0  0  0  0
  -29.6100  -15.9050   20.3270 N   0  0  0  0  0  0  0  0  0  0  0  0
  -28.6280  -15.6880   20.3530 H   0  0  0  0  0  0  0  0  0  0  0  0
  -25.0690  -13.8310   20.4930 C   0  0  0  0  0  0  0  0  0  0  0  0
  -24.0410  -13.0300   20.9080 C   0  0  0  0  0  0  0  0  0  0  0  0
  -24.5240  -11.6880   20.8140 C   0  0  0  0  0  0  0  0  0  0  0  0
  -26.1100  -12.9760   20.1700 N   0  0  0  0  0  0  0  0  0  0  0  0
  -25.7930  -11.6810   20.4260 N   0  0  0  0  0  0  0  0  0  0  0  0
  -23.8310  -10.4080   21.0120 C   0  0  0  0  0  0  0  0  0  0  0  0
  -24.3120   -9.4420   21.9230 C   0  0  0  0  0  3  0  0  0  0  0  0
  -23.6170   -8.2270   22.1090 C   0  0  0  0  0  3  0  0  0  0  0  0
  -22.4280   -7.9710   21.3870 C   0  0  0  0  0  0  0  0  0  0  0  0
  -21.9660   -8.9260   20.4640 C   0  0  0  0  0  3  0  0  0  0  0  0
  -22.6620  -10.1320   20.2760 C   0  0  0  0  0  3  0  0  0  0  0  0
  -21.7010   -6.8090   21.4860 O   0  0  0  0  0  0  0  0  0  0  0  0
  -21.6890   -6.0620   22.6370 C   0  0  0  0  0  0  0  0  0  0  0  0
  -21.2470   -6.5970   23.8660 C   0  0  0  0  0  3  0  0  0  0  0  0
  -21.1860   -5.7750   25.0100 C   0  0  0  0  0  3  0  0  0  0  0  0
  -21.5560   -4.4200   24.9250 C   0  0  0  0  0  0  0  0  0  0  0  0
  -21.9900   -3.8850   23.6990 C   0  0  0  0  0  3  0  0  0  0  0  0
  -22.0540   -4.7030   22.5580 C   0  0  0  0  0  0  0  0  0  0  0  0
  -22.4530   -4.1780   21.3750 F   0  0  0  0  0  0  0  0  0  0  0  0
  -21.4890   -3.6280   26.0200 F   0  0  0  0  0  0  0  0  0  0  0  0
  -22.6550  -13.4740   21.2760 C   0  0  0  0  0  0  0  0  0  0  0  0
  -21.9890  -12.7380   22.1590 N   0  0  0  0  0  0  0  0  0  0  0  0
  -22.1730  -14.5080   20.8150 O   0  0  0  0  0  0  0  0  0  0  0  0
  -22.3940  -11.9010   22.5520 H   0  0  0  0  0  0  0  0  0  0  0  0
  -21.0610  -13.0160   22.4470 H   0  0  0  0  0  0  0  0  0  0  0  0
  -25.1950  -15.2090   20.3400 N   0  0  0  0  0  0  0  0  0  0  0  0
  -24.4190  -15.8390   20.5110 H   0  0  0  0  0  0  0  0  0  0  0  0
  -25.9940  -15.6740   19.9290 H   0  0  0  0  0  0  0  0  0  0  0  0
  -28.5050  -23.7730   19.9560 C   0  0  0  0  0  0  0  0  0  0  0  0
  -28.7300  -22.5220   20.5230 N   0  0  0  0  0  0  0  0  0  0  0  0
  -28.4830  -23.8930   18.7290 O   0  0  0  0  0  0  0  0  0  0  0  0
  -28.7590  -22.5080   21.5340 H   0  0  0  0  0  0  0  0  0  0  0  0
  -28.1970  -25.0750   20.8460 C   0  0  0  0  0  2  0  0  0  0  0  0
  -28.3500  -26.4470   20.2420 O   0  0  0  0  0  0  0  0  0  0  0  0
  -24.6080  -31.9160   23.2570 C   0  0  0  0  0  0  0  0  0  0  0  0
  -27.2430  -27.3210   20.2390 C   0  0  0  0  0  0  0  0  0  0  0  0
  -23.4180  -30.5110   21.6110 C   0  0  0  0  0  3  0  0  0  0  0  0
  -24.8810  -28.9510   20.2000 C   0  0  0  0  0  0  0  0  0  0  0  0
  -25.9600  -30.8260   21.4440 C   0  0  0  0  0  2  0  0  0  0  0  0
  -26.0490  -29.4410   20.8020 C   0  0  0  0  0  0  0  0  0  0  0  0
  -27.2350  -28.6410   20.8040 C   0  0  0  0  0  3  0  0  0  0  0  0
  -26.0540  -26.8900   19.6170 C   0  0  0  0  0  3  0  0  0  0  0  0
  -24.8890  -27.6820   19.5970 C   0  0  0  0  0  3  0  0  0  0  0  0
  -23.6450  -29.8280   20.2350 C   0  0  0  0  0  2  0  0  0  0  0  0
  -24.6820  -31.1030   22.1610 N   0  0  0  0  0  0  0  0  0  0  0  0
  -23.5200  -32.1930   23.7830 O   0  0  0  0  0  0  0  0  0  0  0  0
  -22.7490  -29.4980   22.5710 C   0  0  0  0  0  0  0  0  0  0  0  0
  -21.4230  -29.3200   22.4380 N   0  0  0  0  0  0  0  0  0  0  0  0
  -23.4220  -28.8740   23.3950 O   0  0  0  0  0  0  0  0  0  0  0  0
  -20.9380  -29.8760   21.7470 H   0  0  0  0  0  0  0  0  0  0  0  0
  -18.0420  -28.1260   22.9280 C   0  0  0  0  0  0  0  0  0  0  0  0
  -20.6010  -28.3820   23.2040 C   0  0  0  0  0  3  0  0  0  0  0  0
  -20.7010  -26.9510   22.6260 C   0  0  0  0  0  2  0  0  0  0  0  0
  -19.6010  -26.6320   21.6090 C   0  0  0  0  0  2  0  0  0  0  0  0
  -18.2190  -26.7780   22.2500 C   0  0  0  0  0  2  0  0  0  0  0  0
  -19.1620  -28.8860   23.3620 C   0  0  0  0  0  0  0  0  0  0  0  0
  -18.9430  -30.1480   23.9570 C   0  0  0  0  0  3  0  0  0  0  0  0
  -17.6390  -30.6510   24.1230 C   0  0  0  0  0  3  0  0  0  0  0  0
  -16.5340  -29.8880   23.7050 C   0  0  0  0  0  3  0  0  0  0  0  0
  -16.7370  -28.6270   23.1130 C   0  0  0  0  0  3  0  0  0  0  0  0
  -25.8840  -32.5540   23.8870 C   0  0  0  0  0  3  0  0  0  0  0  0
  -26.3870  -31.7930   25.1750 C   0  0  1  0  0  0  0  0  0  0  0  0
  -25.2810  -31.5620   26.2310 C   0  0  0  0  0  1  0  0  0  0  0  0
  -26.9770  -30.4130   24.8010 C   0  0  0  0  0  1  0  0  0  0  0  0
  -27.5280  -32.5950   25.8440 C   0  0  0  0  0  1  0  0  0  0  0  0
  -25.5720  -33.9540   24.2040 N   0  0  0  0  0  0  0  0  0  0  0  0
  -25.9040  -35.0020   23.4390 C   0  0  0  0  0  0  0  0  0  0  0  0
  -26.5750  -34.8910   22.4090 O   0  0  0  0  0  0  0  0  0  0  0  0
  -24.9770  -34.1140   25.0040 H   0  0  0  0  0  0  0  0  0  0  0  0
  -24.1860  -36.8010   23.0610 C   0  0  0  0  0  1  0  0  0  0  0  0
  -25.4180  -36.3940   23.8870 C   0  0  0  0  0  3  0  0  0  0  0  0
  -27.5430  -37.2800   24.7410 C   0  0  0  0  0  1  0  0  0  0  0  0
  -26.4540  -37.4440   23.7800 N   0  0  0  0  0  0  0  0  0  0  0  0
  -26.0480  -38.3660   23.9160 H   0  0  0  0  0  0  0  0  0  0  0  0
  1  5  1  0
  1 48  1  0
  2  3  1  0
  4  5  1  0
  4  6  2  0
  5  2  2  0
  6  7  1  0
  7  3  2  0
  7  8  1  0
  9 17  1  0
 10 15  1  0
 11 12  1  0
 11 10  1  0
 13 12  1  0
 13 22  1  0
 13 14  1  0
 15  9  1  0
 15 14  1  0
 16  9  2  0
 17 18  1  0
 17  6  1  0
 19 20  2  0
 20 39  1  0
 21 20  1  0
 21 24  1  0
 22 23  1  0
 22 19  1  0
 23 21  2  0
 24 25  1  0
 25 26  2  0
 27 30  1  0
 27 26  1  0
 28 27  2  0
 29 28  1  0
 29 24  2  0
 30 31  1  0
 31 32  1  0
 32 33  2  0
 34 33  1  0
 34 38  1  0
 35 34  2  0
 36 31  2  0
 36 35  1  0
 37 36  1  0
 39 40  1  0
 40 43  1  0
 40 42  1  0
 41 39  2  0
 44 19  1  0
 44 45  1  0
 46 44  1  0
 47 48  1  0
 47 51  1  0
 48 50  1  0
 49 47  2  0
 52 51  1  0
 53 64  2  0
 54 52  1  0
 54 59  1  0
 55 63  1  0
 55 65  1  0
 56 62  1  0
 56 58  1  0
 57 63  1  0
 58 59  2  0
 58 57  1  0
 60 54  2  0
 61 60  1  0
 61 56  2  0
 62 55  1  0
 63 53  1  0
 65 67  2  0
 66 65  1  0
 68 66  1  0
 69 78  2  0
 69 74  1  0
 70 66  1  0
 70 74  1  0
 71 70  1  0
 72 73  1  0
 72 71  1  0
 73 69  1  0
 74 75  2  0
 75 76  1  0
 77 76  2  0
 78 77  1  0
 79 53  1  0
 79 84  1  0
 79 80  1  0
 80 83  1  1
 80 81  1  0
 82 80  1  0
 84 87  1  0
 85 89  1  0
 85 84  1  0
 86 85  2  0
 89 88  1  0
 91 89  1  0
 91 92  1  0
 91 90  1  0
M  ISO  4   9 100  17 100  51 101  52 101
M  END
>  <TORSDO>  (46) 
F 19

>  <SCORE>  (46) 
-14.222

>  <name>  (46) 
45

>  <ligand_id>  (46) 
45

>  <original_smiles>  (46) 
[H]c1c([H])c([H])c2c(c1[H])C([H])([H])C([H])([H])C([H])([H])C2([H])N([H])C(=O)C1([H])N(C(=O)C([H])(N([H])C(=O)C([H])(N([H])C([H])([H])[H])C([H])([H])[H])C(C([H])([H])[H])(C([H])([H])[H])C([H])([H])[H])C([H])([H])c2c([H])c(OC([H])([H])C(=O)N([H])C([H])([H])c3c([H])c([H])c(F)c(N([H])C(=O)N4C([H])([H])C([H])([H])C([H])([H])C([H])(n5nc(-c6c([H])c([H])c(Oc7c([H])c([H])c(F)c([H])c7F)c([H])c6[H])c(C(=O)N([H])[H])c5N([H])[H])C4([H])[H])c3[H])c([H])c([H])c2C1([H])[H]

>  <smiles>  (46) 
[H]c1c([H])c([H])c2c(c1[H])C([H])([H])C([H])([H])C([H])([H])C2([H])N([H])C(=O)C1([H])N(C(=O)C([H])(N([H])C(=O)C([H])(N([H])C([H])([H])[H])C([H])([H])[H])C(C([H])([H])[H])(C([H])([H])[H])C([H])([H])[H])C([H])([H])c2c([H])c(OC([H])([H])C(=O)N([H])C([H])([H])c3c([H])c([H])c(F)c(N([H])C(=O)N4C([H])([H])C([H])([H])C([H])([H])C([H])(n5nc(-c6c([H])c([H])c(Oc7c([H])c([H])c(F)c([H])c7F)c([H])c6[H])c(C(=O)N([H])[H])c5N([H])[H])C4([H])[H])c3[H])c([H])c([H])c2C1([H])[H]

$$$$
46:0:0
     RDKit          3D

 89 97  0  0  1  0  0  0  0  0999 V2000
  -28.5620  -18.2560   19.5870 C   0  0  0  0  0  3  0  0  0  0  0  0
  -28.2780  -19.6680   19.5250 C   0  0  0  0  0  3  0  0  0  0  0  0
  -30.3670  -18.7570   20.9920 C   0  0  0  0  0  3  0  0  0  0  0  0
  -29.6270  -17.6950   20.3540 C   0  0  0  0  0  0  0  0  0  0  0  0
  -29.0320  -20.6550   20.2220 C   0  0  0  0  0  0  0  0  0  0  0  0
  -27.2790  -21.9590   21.1790 C   0  0  0  0  0  1  0  0  0  0  0  0
  -30.0880  -20.1370   20.9370 N   0  0  0  0  0  0  0  0  0  0  0  0
  -28.4930  -22.0350   20.3660 N   0  0  0  0  0  0  0  0  0  0  0  0
  -30.5580  -15.0920   20.4070 C   0  0  0  0  0  0  0  0  0  0  0  0
  -30.5090  -12.7240   19.5050 C   0  0  0  0  0  2  0  0  0  0  0  0
  -29.5910  -12.6700   18.2600 C   0  0  0  0  0  2  0  0  0  0  0  0
  -28.1210  -12.4570   18.6710 C   0  0  0  0  0  2  0  0  0  0  0  0
  -27.6920  -13.3970   19.8260 C   0  0  0  0  0  3  0  0  0  0  0  0
  -28.7260  -13.4020   20.9740 C   0  0  0  0  0  2  0  0  0  0  0  0
  -30.0140  -13.8110   20.3930 N   0  0  0  0  0  0  0  0  0  0  0  0
  -31.7480  -15.2260   20.0990 O   0  0  0  0  0  0  0  0  0  0  0  0
  -29.6820  -16.1840   20.6050 N   0  0  0  0  0  0  0  0  0  0  0  0
  -28.7660  -15.8140   20.8130 H   0  0  0  0  0  0  0  0  0  0  0  0
  -25.3000  -13.9910   20.5320 C   0  0  0  0  0  0  0  0  0  0  0  0
  -24.2290  -13.2200   20.8900 C   0  0  0  0  0  0  0  0  0  0  0  0
  -24.6870  -11.8670   20.8590 C   0  0  0  0  0  0  0  0  0  0  0  0
  -26.3420  -13.1080   20.3030 N   0  0  0  0  0  0  0  0  0  0  0  0
  -25.9800  -11.8250   20.5630 N   0  0  0  0  0  0  0  0  0  0  0  0
  -23.9520  -10.6080   21.0350 C   0  0  0  0  0  0  0  0  0  0  0  0
  -24.3650   -9.6340   21.9710 C   0  0  0  0  0  3  0  0  0  0  0  0
  -23.6290   -8.4410   22.1340 C   0  0  0  0  0  3  0  0  0  0  0  0
  -22.4670   -8.2110   21.3600 C   0  0  0  0  0  0  0  0  0  0  0  0
  -22.0740   -9.1730   20.4120 C   0  0  0  0  0  3  0  0  0  0  0  0
  -22.8100  -10.3580   20.2470 C   0  0  0  0  0  3  0  0  0  0  0  0
  -21.7040   -7.0710   21.4330 O   0  0  0  0  0  0  0  0  0  0  0  0
  -21.6280   -6.3290   22.5840 C   0  0  0  0  0  0  0  0  0  0  0  0
  -21.1350   -6.8740   23.7910 C   0  0  0  0  0  3  0  0  0  0  0  0
  -21.0080   -6.0570   24.9320 C   0  0  0  0  0  3  0  0  0  0  0  0
  -21.3630   -4.6960   24.8680 C   0  0  0  0  0  0  0  0  0  0  0  0
  -21.8490   -4.1510   23.6670 C   0  0  0  0  0  3  0  0  0  0  0  0
  -21.9780   -4.9650   22.5280 C   0  0  0  0  0  0  0  0  0  0  0  0
  -22.4260   -4.4300   21.3670 F   0  0  0  0  0  0  0  0  0  0  0  0
  -21.2350   -3.9090   25.9620 F   0  0  0  0  0  0  0  0  0  0  0  0
  -22.8310  -13.7020   21.1490 C   0  0  0  0  0  0  0  0  0  0  0  0
  -22.0950  -13.0120   22.0120 N   0  0  0  0  0  0  0  0  0  0  0  0
  -22.4000  -14.7270   20.6200 O   0  0  0  0  0  0  0  0  0  0  0  0
  -22.4580  -12.1820   22.4590 H   0  0  0  0  0  0  0  0  0  0  0  0
  -21.1560  -13.3150   22.2300 H   0  0  0  0  0  0  0  0  0  0  0  0
  -25.4700  -15.3610   20.3570 N   0  0  0  0  0  0  0  0  0  0  0  0
  -24.6930  -16.0080   20.4300 H   0  0  0  0  0  0  0  0  0  0  0  0
  -26.3000  -15.7880   19.9650 H   0  0  0  0  0  0  0  0  0  0  0  0
  -29.0680  -23.4830   20.2910 C   0  0  0  0  0  3  0  0  0  0  0  0
  -28.0690  -24.8120   19.9760 C   0  0  0  0  0  3  0  0  0  0  0  0
  -28.3310  -26.3340   20.1760 O   0  0  0  0  0  0  0  0  0  0  0  0
  -24.6670  -31.9030   23.3080 C   0  0  0  0  0  0  0  0  0  0  0  0
  -27.2610  -27.3020   20.1350 C   0  0  0  0  0  0  0  0  0  0  0  0
  -23.4640  -30.5460   21.6390 C   0  0  0  0  0  3  0  0  0  0  0  0
  -24.9150  -29.0220   20.1640 C   0  0  0  0  0  0  0  0  0  0  0  0
  -26.0150  -30.8390   21.4620 C   0  0  0  0  0  2  0  0  0  0  0  0
  -26.0960  -29.4660   20.7710 C   0  0  0  0  0  0  0  0  0  0  0  0
  -27.2690  -28.6220   20.7390 C   0  0  0  0  0  3  0  0  0  0  0  0
  -26.0510  -26.9590   19.4900 C   0  0  0  0  0  3  0  0  0  0  0  0
  -24.9050  -27.7810   19.5090 C   0  0  0  0  0  3  0  0  0  0  0  0
  -23.6800  -29.9060   20.2420 C   0  0  0  0  0  2  0  0  0  0  0  0
  -24.7360  -31.1160   22.1920 N   0  0  0  0  0  0  0  0  0  0  0  0
  -23.5830  -32.1650   23.8520 O   0  0  0  0  0  0  0  0  0  0  0  0
  -22.8000  -29.5090   22.5790 C   0  0  0  0  0  0  0  0  0  0  0  0
  -21.4720  -29.3270   22.4530 N   0  0  0  0  0  0  0  0  0  0  0  0
  -23.4790  -28.8700   23.3860 O   0  0  0  0  0  0  0  0  0  0  0  0
  -20.9780  -29.8970   21.7810 H   0  0  0  0  0  0  0  0  0  0  0  0
  -18.1090  -28.0660   22.9250 C   0  0  0  0  0  0  0  0  0  0  0  0
  -20.6650  -28.3600   23.2010 C   0  0  0  0  0  3  0  0  0  0  0  0
  -20.7870  -26.9430   22.5930 C   0  0  0  0  0  2  0  0  0  0  0  0
  -19.6910  -26.6330   21.5680 C   0  0  0  0  0  2  0  0  0  0  0  0
  -18.3070  -26.7370   22.2160 C   0  0  0  0  0  2  0  0  0  0  0  0
  -19.2160  -28.8360   23.3740 C   0  0  0  0  0  0  0  0  0  0  0  0
  -18.9780  -30.0790   23.9960 C   0  0  0  0  0  3  0  0  0  0  0  0
  -17.6660  -30.5570   24.1730 C   0  0  0  0  0  3  0  0  0  0  0  0
  -16.5740  -29.7860   23.7410 C   0  0  0  0  0  3  0  0  0  0  0  0
  -16.7950  -28.5420   23.1230 C   0  0  0  0  0  3  0  0  0  0  0  0
  -25.9460  -32.5310   23.9420 C   0  0  0  0  0  3  0  0  0  0  0  0
  -25.6450  -33.9360   24.2620 N   0  0  0  0  0  0  0  0  0  0  0  0
  -25.9550  -34.9800   23.4820 C   0  0  0  0  0  0  0  0  0  0  0  0
  -26.5890  -34.8620   22.4300 O   0  0  0  0  0  0  0  0  0  0  0  0
  -25.0760  -34.1010   25.0800 H   0  0  0  0  0  0  0  0  0  0  0  0
  -24.2010  -36.7610   23.1900 C   0  0  0  0  0  1  0  0  0  0  0  0
  -25.4880  -36.3760   23.9380 C   0  0  0  0  0  3  0  0  0  0  0  0
  -27.6550  -37.2940   24.6410 C   0  0  0  0  0  1  0  0  0  0  0  0
  -26.5080  -37.4310   23.7480 N   0  0  0  0  0  0  0  0  0  0  0  0
  -26.1030  -38.3520   23.8920 H   0  0  0  0  0  0  0  0  0  0  0  0
  -26.4350  -31.7660   25.2330 C   0  0  1  0  0  0  0  0  0  0  0  0
  -25.3250  -31.5510   26.2890 C   0  0  0  0  0  1  0  0  0  0  0  0
  -27.0090  -30.3790   24.8670 C   0  0  0  0  0  1  0  0  0  0  0  0
  -27.5850  -32.5560   25.9040 C   0  0  0  0  0  1  0  0  0  0  0  0
  1  4  1  0
  2  1  2  0
  2  5  1  0
  4 17  1  0
  4  3  2  0
  5  8  1  0
  5  7  2  0
  7  3  1  0
  8  6  1  0
  9 17  1  0
 10 15  1  0
 11 12  1  0
 11 10  1  0
 13 12  1  0
 13 22  1  0
 13 14  1  0
 15  9  1  0
 15 14  1  0
 16  9  2  0
 17 18  1  0
 19 20  2  0
 20 39  1  0
 21 20  1  0
 21 24  1  0
 22 19  1  0
 22 23  1  0
 23 21  2  0
 24 25  1  0
 25 26  2  0
 27 30  1  0
 27 26  1  0
 28 27  2  0
 29 28  1  0
 29 24  2  0
 30 31  1  0
 31 32  1  0
 32 33  2  0
 34 33  1  0
 34 38  1  0
 35 34  2  0
 36 31  2  0
 36 35  1  0
 37 36  1  0
 39 40  1  0
 40 43  1  0
 40 42  1  0
 41 39  2  0
 44 45  1  0
 44 19  1  0
 46 44  1  0
 47  8  1  0
 48 49  1  0
 48 47  2  0
 50 61  2  0
 51 49  1  0
 51 56  1  0
 52 60  1  0
 52 62  1  0
 53 59  1  0
 53 55  1  0
 54 60  1  0
 55 54  1  0
 56 55  2  0
 57 58  1  0
 57 51  2  0
 58 53  2  0
 59 52  1  0
 60 50  1  0
 62 64  2  0
 63 62  1  0
 65 63  1  0
 66 75  2  0
 66 71  1  0
 67 63  1  0
 67 71  1  0
 68 67  1  0
 69 70  1  0
 69 68  1  0
 70 66  1  0
 71 72  2  0
 72 73  1  0
 74 73  2  0
 75 74  1  0
 76 50  1  0
 76 77  1  0
 76 86  1  0
 77 80  1  0
 78 82  1  0
 78 77  1  0
 79 78  2  0
 82 81  1  0
 84 85  1  0
 84 82  1  0
 84 83  1  0
 86 89  1  1
 86 87  1  0
 88 86  1  0
M  ISO  4   9 100  17 100  48 101  49 101
M  END
>  <TORSDO>  (47) 
F 18

>  <SCORE>  (47) 
-14.385

>  <name>  (47) 
46

>  <ligand_id>  (47) 
46

>  <original_smiles>  (47) 
[H]c1nc(N(C([H])([H])[H])C([H])([H])C([H])([H])Oc2c([H])c([H])c3c(c2[H])C([H])([H])N(C(=O)C([H])(N([H])C(=O)C([H])(N([H])C([H])([H])[H])C([H])([H])[H])C(C([H])([H])[H])(C([H])([H])[H])C([H])([H])[H])C([H])(C(=O)N([H])C2([H])c4c([H])c([H])c([H])c([H])c4C([H])([H])C([H])([H])C2([H])[H])C3([H])[H])c([H])c([H])c1N([H])C(=O)N1C([H])([H])C([H])([H])C([H])([H])C([H])(n2nc(-c3c([H])c([H])c(Oc4c([H])c([H])c(F)c([H])c4F)c([H])c3[H])c(C(=O)N([H])[H])c2N([H])[H])C1([H])[H]

>  <smiles>  (47) 
[H]c1nc(N(C([H])([H])[H])C([H])([H])C([H])([H])Oc2c([H])c([H])c3c(c2[H])C([H])([H])N(C(=O)C([H])(N([H])C(=O)C([H])(N([H])C([H])([H])[H])C([H])([H])[H])C(C([H])([H])[H])(C([H])([H])[H])C([H])([H])[H])C([H])(C(=O)N([H])C2([H])c4c([H])c([H])c([H])c([H])c4C([H])([H])C([H])([H])C2([H])[H])C3([H])[H])c([H])c([H])c1N([H])C(=O)N1C([H])([H])C([H])([H])C([H])([H])C([H])(n2nc(-c3c([H])c([H])c(Oc4c([H])c([H])c(F)c([H])c4F)c([H])c3[H])c(C(=O)N([H])[H])c2N([H])[H])C1([H])[H]

$$$$
47:0:0
     RDKit          3D

 96103  0  0  1  0  0  0  0  0999 V2000
  -32.0450  -21.9410   18.7500 C   0  0  0  0  0  2  0  0  0  0  0  0
  -31.7960  -23.0800   17.7390 C   0  0  0  0  0  2  0  0  0  0  0  0
  -30.5850  -25.0760   18.5970 C   0  0  0  0  0  0  0  0  0  0  0  0
  -33.0550  -24.9590   18.7330 C   0  0  0  0  0  1  0  0  0  0  0  0
  -31.7430  -24.3990   18.3920 N   0  0  0  0  0  0  0  0  0  0  0  0
  -29.4930  -24.6360   18.2250 O   0  0  0  0  0  0  0  0  0  0  0  0
  -30.6490  -26.4300   19.3340 C   0  0  0  0  0  2  0  0  0  0  0  0
  -29.3600  -27.2710   19.2840 C   0  0  0  0  0  2  0  0  0  0  0  0
  -28.3710  -26.7350   20.1570 O   0  0  0  0  0  0  0  0  0  0  0  0
  -24.5480  -31.8970   23.2380 C   0  0  0  0  0  0  0  0  0  0  0  0
  -27.2110  -27.4650   20.1920 C   0  0  0  0  0  0  0  0  0  0  0  0
  -23.3420  -30.4720   21.6120 C   0  0  0  0  0  3  0  0  0  0  0  0
  -24.8000  -28.9230   20.2080 C   0  0  0  0  0  0  0  0  0  0  0  0
  -25.8610  -30.8480   21.4030 C   0  0  0  0  0  2  0  0  0  0  0  0
  -25.9530  -29.4710   20.7840 C   0  0  0  0  0  0  0  0  0  0  0  0
  -27.1640  -28.7460   20.7800 C   0  0  0  0  0  3  0  0  0  0  0  0
  -26.0430  -26.9100   19.6360 C   0  0  0  0  0  3  0  0  0  0  0  0
  -24.8370  -27.6370   19.6350 C   0  0  0  0  0  3  0  0  0  0  0  0
  -23.5510  -29.7730   20.2420 C   0  0  0  0  0  2  0  0  0  0  0  0
  -24.6020  -31.0870   22.1440 N   0  0  0  0  0  0  0  0  0  0  0  0
  -23.4670  -32.1730   23.7780 O   0  0  0  0  0  0  0  0  0  0  0  0
  -22.6970  -29.4620   22.5860 C   0  0  0  0  0  0  0  0  0  0  0  0
  -21.3730  -29.2750   22.4610 N   0  0  0  0  0  0  0  0  0  0  0  0
  -23.3820  -28.8460   23.4070 O   0  0  0  0  0  0  0  0  0  0  0  0
  -20.8810  -29.8240   21.7700 H   0  0  0  0  0  0  0  0  0  0  0  0
  -18.0030  -28.0720   22.9580 C   0  0  0  0  0  0  0  0  0  0  0  0
  -20.5580  -28.3440   23.2390 C   0  0  0  0  0  3  0  0  0  0  0  0
  -20.6690  -26.9060   22.6840 C   0  0  0  0  0  2  0  0  0  0  0  0
  -19.5740  -26.5640   21.6690 C   0  0  0  0  0  2  0  0  0  0  0  0
  -18.1890  -26.7140   22.3030 C   0  0  0  0  0  2  0  0  0  0  0  0
  -19.1160  -28.8440   23.3820 C   0  0  0  0  0  0  0  0  0  0  0  0
  -18.8900  -30.1160   23.9520 C   0  0  0  0  0  3  0  0  0  0  0  0
  -17.5830  -30.6160   24.1010 C   0  0  0  0  0  3  0  0  0  0  0  0
  -16.4840  -29.8400   23.6940 C   0  0  0  0  0  3  0  0  0  0  0  0
  -16.6940  -28.5700   23.1280 C   0  0  0  0  0  3  0  0  0  0  0  0
  -25.8350  -32.5360   23.8510 C   0  0  0  0  0  3  0  0  0  0  0  0
  -26.3720  -31.7630   25.1170 C   0  0  1  0  0  0  0  0  0  0  0  0
  -25.2930  -31.5110   26.1950 C   0  0  0  0  0  1  0  0  0  0  0  0
  -26.9620  -30.3930   24.7090 C   0  0  0  0  0  1  0  0  0  0  0  0
  -27.5240  -32.5630   25.7710 C   0  0  0  0  0  1  0  0  0  0  0  0
  -25.5200  -33.9310   24.1850 N   0  0  0  0  0  0  0  0  0  0  0  0
  -25.8450  -34.9860   23.4250 C   0  0  0  0  0  0  0  0  0  0  0  0
  -26.5140  -34.8880   22.3920 O   0  0  0  0  0  0  0  0  0  0  0  0
  -24.9280  -34.0810   24.9870 H   0  0  0  0  0  0  0  0  0  0  0  0
  -24.1050  -36.7660   23.0750 C   0  0  0  0  0  1  0  0  0  0  0  0
  -25.3500  -36.3700   23.8840 C   0  0  0  0  0  3  0  0  0  0  0  0
  -27.4840  -37.2620   24.7080 C   0  0  0  0  0  1  0  0  0  0  0  0
  -26.3760  -37.4300   23.7720 N   0  0  0  0  0  0  0  0  0  0  0  0
  -25.9650  -38.3460   23.9280 H   0  0  0  0  0  0  0  0  0  0  0  0
  -30.8360  -21.6180   19.6420 C   0  0  0  0  0  2  0  0  0  0  0  0
  -31.1510  -20.5630   20.7140 C   0  0  0  0  0  2  0  0  0  0  0  0
  -29.9170  -20.2080   21.5600 C   0  0  0  0  0  2  0  0  0  0  0  0
  -30.2270  -19.3670   22.8130 C   0  0  0  0  0  2  0  0  0  0  0  0
  -30.4970  -17.0330   21.9880 C   0  0  0  0  0  0  0  0  0  0  0  0
  -30.9860  -18.1530   22.5250 N   0  0  0  0  0  0  0  0  0  0  0  0
  -29.3270  -16.9250   21.6100 O   0  0  0  0  0  0  0  0  0  0  0  0
  -31.9560  -18.1420   22.8150 H   0  0  0  0  0  0  0  0  0  0  0  0
  -31.4640  -15.8520   21.8900 C   0  0  0  0  0  2  0  0  0  0  0  0
  -30.9600  -14.1180   20.1760 C   0  0  0  0  0  0  0  0  0  0  0  0
  -30.3910  -12.1550   18.7950 C   0  0  0  0  0  2  0  0  0  0  0  0
  -29.3890  -12.4760   17.6750 C   0  0  0  0  0  2  0  0  0  0  0  0
  -27.9420  -12.3790   18.1930 C   0  0  0  0  0  2  0  0  0  0  0  0
  -27.7280  -13.1800   19.5020 C   0  0  0  0  0  3  0  0  0  0  0  0
  -28.8220  -12.8380   20.5370 C   0  0  0  0  0  2  0  0  0  0  0  0
  -30.1470  -13.0630   19.9250 N   0  0  0  0  0  0  0  0  0  0  0  0
  -31.8750  -14.4730   19.4260 O   0  0  0  0  0  0  0  0  0  0  0  0
  -30.7860  -14.6660   21.3790 N   0  0  0  0  0  0  0  0  0  0  0  0
  -30.0260  -14.3060   21.9350 H   0  0  0  0  0  0  0  0  0  0  0  0
  -25.3850  -13.8810   20.3160 C   0  0  0  0  0  0  0  0  0  0  0  0
  -24.3060  -13.1490   20.7360 C   0  0  0  0  0  0  0  0  0  0  0  0
  -24.7170  -11.7810   20.6890 C   0  0  0  0  0  0  0  0  0  0  0  0
  -26.3870  -12.9620   20.0420 N   0  0  0  0  0  0  0  0  0  0  0  0
  -25.9880  -11.6940   20.3220 N   0  0  0  0  0  0  0  0  0  0  0  0
  -23.9560  -10.5470   20.9190 C   0  0  0  0  0  0  0  0  0  0  0  0
  -24.4010   -9.5620   21.8290 C   0  0  0  0  0  3  0  0  0  0  0  0
  -23.6410   -8.3920   22.0450 C   0  0  0  0  0  3  0  0  0  0  0  0
  -22.4230   -8.1980   21.3510 C   0  0  0  0  0  0  0  0  0  0  0  0
  -21.9960   -9.1700   20.4290 C   0  0  0  0  0  3  0  0  0  0  0  0
  -22.7560  -10.3310   20.2110 C   0  0  0  0  0  3  0  0  0  0  0  0
  -21.6330   -7.0800   21.4790 O   0  0  0  0  0  0  0  0  0  0  0  0
  -21.6230   -6.3340   22.6300 C   0  0  0  0  0  0  0  0  0  0  0  0
  -21.3130   -6.9030   23.8840 C   0  0  0  0  0  3  0  0  0  0  0  0
  -21.2450   -6.0860   25.0300 C   0  0  0  0  0  3  0  0  0  0  0  0
  -21.4760   -4.7010   24.9240 C   0  0  0  0  0  0  0  0  0  0  0  0
  -21.7800   -4.1310   23.6750 C   0  0  0  0  0  3  0  0  0  0  0  0
  -21.8500   -4.9460   22.5300 C   0  0  0  0  0  0  0  0  0  0  0  0
  -22.1210   -4.3890   21.3270 F   0  0  0  0  0  0  0  0  0  0  0  0
  -21.4030   -3.9150   26.0230 F   0  0  0  0  0  0  0  0  0  0  0  0
  -22.9430  -13.6770   21.0750 C   0  0  0  0  0  0  0  0  0  0  0  0
  -22.2390  -13.0160   21.9870 N   0  0  0  0  0  0  0  0  0  0  0  0
  -22.5110  -14.7120   20.5660 O   0  0  0  0  0  0  0  0  0  0  0  0
  -22.5990  -12.1760   22.4160 H   0  0  0  0  0  0  0  0  0  0  0  0
  -21.3260  -13.3520   22.2590 H   0  0  0  0  0  0  0  0  0  0  0  0
  -25.5930  -15.2440   20.1280 N   0  0  0  0  0  0  0  0  0  0  0  0
  -24.8680  -15.9360   20.2860 H   0  0  0  0  0  0  0  0  0  0  0  0
  -26.4680  -15.6530   19.8220 H   0  0  0  0  0  0  0  0  0  0  0  0
  1 50  1  0
  2  5  1  0
  2  1  1  0
  3  7  1  0
  5  3  1  0
  5  4  1  0
  6  3  2  0
  8  7  1  0
  8  9  1  0
  9 11  1  0
 10 21  2  0
 11 16  1  0
 12 20  1  0
 12 22  1  0
 13 19  1  0
 13 15  1  0
 14 20  1  0
 15 14  1  0
 16 15  2  0
 17 11  2  0
 18 17  1  0
 18 13  2  0
 19 12  1  0
 20 10  1  0
 22 24  2  0
 23 22  1  0
 25 23  1  0
 26 35  2  0
 26 31  1  0
 27 23  1  0
 27 31  1  0
 28 27  1  0
 29 30  1  0
 29 28  1  0
 30 26  1  0
 31 32  2  0
 32 33  1  0
 34 33  2  0
 35 34  1  0
 36 10  1  0
 36 41  1  0
 36 37  1  0
 37 40  1  1
 37 38  1  0
 39 37  1  0
 41 44  1  0
 42 46  1  0
 42 41  1  0
 43 42  2  0
 46 45  1  0
 48 46  1  0
 48 49  1  0
 48 47  1  0
 50 51  1  0
 51 52  1  0
 52 53  1  0
 54 55  1  0
 55 53  1  0
 55 57  1  0
 56 54  2  0
 58 54  1  0
 59 67  1  0
 60 65  1  0
 61 62  1  0
 61 60  1  0
 63 62  1  0
 63 72  1  0
 63 64  1  0
 65 59  1  0
 65 64  1  0
 66 59  2  0
 67 58  1  0
 67 68  1  0
 69 70  2  0
 70 89  1  0
 71 70  1  0
 71 74  1  0
 72 69  1  0
 72 73  1  0
 73 71  2  0
 74 75  1  0
 75 76  2  0
 77 80  1  0
 77 76  1  0
 78 77  2  0
 79 78  1  0
 79 74  2  0
 80 81  1  0
 81 82  1  0
 82 83  2  0
 84 83  1  0
 84 88  1  0
 85 84  2  0
 86 81  2  0
 86 85  1  0
 87 86  1  0
 89 90  1  0
 90 93  1  0
 90 92  1  0
 91 89  2  0
 94 95  1  0
 94 69  1  0
 96 94  1  0
M  ISO  4   8 101   9 101  59 100  67 100
M  END
>  <TORSDO>  (48) 
F 26

>  <SCORE>  (48) 
-10.884

>  <name>  (48) 
47

>  <ligand_id>  (48) 
47

>  <original_smiles>  (48) 
[H]c1c([H])c([H])c2c(c1[H])C([H])([H])C([H])([H])C([H])([H])C2([H])N([H])C(=O)C1([H])N(C(=O)C([H])(N([H])C(=O)C([H])(N([H])C([H])([H])[H])C([H])([H])[H])C(C([H])([H])[H])(C([H])([H])[H])C([H])([H])[H])C([H])([H])c2c([H])c(OC([H])([H])C([H])([H])C(=O)N(C([H])([H])[H])C([H])([H])C([H])([H])C([H])([H])C([H])([H])C([H])([H])C([H])([H])N([H])C(=O)C([H])([H])N([H])C(=O)N3C([H])([H])C([H])([H])C([H])([H])C([H])(n4nc(-c5c([H])c([H])c(Oc6c([H])c([H])c(F)c([H])c6F)c([H])c5[H])c(C(=O)N([H])[H])c4N([H])[H])C3([H])[H])c([H])c([H])c2C1([H])[H]

>  <smiles>  (48) 
[H]c1c([H])c([H])c2c(c1[H])C([H])([H])C([H])([H])C([H])([H])C2([H])N([H])C(=O)C1([H])N(C(=O)C([H])(N([H])C(=O)C([H])(N([H])C([H])([H])[H])C([H])([H])[H])C(C([H])([H])[H])(C([H])([H])[H])C([H])([H])[H])C([H])([H])c2c([H])c(OC([H])([H])C([H])([H])C(=O)N(C([H])([H])[H])C([H])([H])C([H])([H])C([H])([H])C([H])([H])C([H])([H])C([H])([H])N([H])C(=O)C([H])([H])N([H])C(=O)N3C([H])([H])C([H])([H])C([H])([H])C([H])(n4nc(-c5c([H])c([H])c(Oc6c([H])c([H])c(F)c([H])c6F)c([H])c5[H])c(C(=O)N([H])[H])c4N([H])[H])C3([H])[H])c([H])c([H])c2C1([H])[H]

$$$$
48:0:0
     RDKit          3D

 92100  0  0  1  0  0  0  0  0999 V2000
  -30.6990  -18.5760   20.1020 C   0  0  0  0  0  3  0  0  0  0  0  0
  -28.3750  -18.2150   20.1550 C   0  0  0  0  0  3  0  0  0  0  0  0
  -29.6580  -17.5810   20.1960 C   0  0  0  0  0  0  0  0  0  0  0  0
  -29.1530  -20.6340   19.9260 C   0  0  0  0  0  0  0  0  0  0  0  0
  -30.4670  -20.0230   19.9700 C   0  0  0  0  0  0  0  0  0  0  0  0
  -28.1320  -19.6320   20.0180 C   0  0  0  0  0  0  0  0  0  0  0  0
  -31.8610  -21.0260   19.7870 Cl  0  0  0  0  0  0  0  0  0  0  0  0
  -26.4800  -20.1400   19.9320 Cl  0  0  0  0  0  0  0  0  0  0  0  0
  -30.5530  -14.9390   20.0790 C   0  0  0  0  0  0  0  0  0  0  0  0
  -30.4000  -12.5850   19.1520 C   0  0  0  0  0  2  0  0  0  0  0  0
  -29.4240  -12.5780   17.9520 C   0  0  0  0  0  2  0  0  0  0  0  0
  -27.9660  -12.4050   18.4220 C   0  0  0  0  0  2  0  0  0  0  0  0
  -27.6170  -13.3230   19.6220 C   0  0  0  0  0  3  0  0  0  0  0  0
  -28.7080  -13.2840   20.7150 C   0  0  0  0  0  2  0  0  0  0  0  0
  -29.9770  -13.6720   20.0780 N   0  0  0  0  0  0  0  0  0  0  0  0
  -31.7310  -15.0440   19.7220 O   0  0  0  0  0  0  0  0  0  0  0  0
  -29.7080  -16.0500   20.3260 N   0  0  0  0  0  0  0  0  0  0  0  0
  -28.8150  -15.6840   20.6180 H   0  0  0  0  0  0  0  0  0  0  0  0
  -25.2760  -13.9500   20.4520 C   0  0  0  0  0  0  0  0  0  0  0  0
  -24.2050  -13.1980   20.8490 C   0  0  0  0  0  0  0  0  0  0  0  0
  -24.6310  -11.8360   20.7770 C   0  0  0  0  0  0  0  0  0  0  0  0
  -26.2880  -13.0500   20.1600 N   0  0  0  0  0  0  0  0  0  0  0  0
  -25.9090  -11.7720   20.4170 N   0  0  0  0  0  0  0  0  0  0  0  0
  -23.8770  -10.5910   20.9680 C   0  0  0  0  0  0  0  0  0  0  0  0
  -24.3200   -9.5880   21.8590 C   0  0  0  0  0  3  0  0  0  0  0  0
  -23.5650   -8.4080   22.0420 C   0  0  0  0  0  3  0  0  0  0  0  0
  -22.3540   -8.2240   21.3350 C   0  0  0  0  0  0  0  0  0  0  0  0
  -21.9290   -9.2150   20.4330 C   0  0  0  0  0  3  0  0  0  0  0  0
  -22.6830  -10.3850   20.2470 C   0  0  0  0  0  3  0  0  0  0  0  0
  -21.5710   -7.0980   21.4280 O   0  0  0  0  0  0  0  0  0  0  0  0
  -21.5560   -6.3240   22.5600 C   0  0  0  0  0  0  0  0  0  0  0  0
  -21.2050   -6.8530   23.8200 C   0  0  0  0  0  3  0  0  0  0  0  0
  -21.1340   -6.0060   24.9450 C   0  0  0  0  0  3  0  0  0  0  0  0
  -21.4050   -4.6330   24.8110 C   0  0  0  0  0  0  0  0  0  0  0  0
  -21.7510   -4.1020   23.5560 C   0  0  0  0  0  3  0  0  0  0  0  0
  -21.8240   -4.9460   22.4340 C   0  0  0  0  0  0  0  0  0  0  0  0
  -22.1360   -4.4260   21.2220 F   0  0  0  0  0  0  0  0  0  0  0  0
  -21.3310   -3.8170   25.8890 F   0  0  0  0  0  0  0  0  0  0  0  0
  -22.8310  -13.7070   21.1770 C   0  0  0  0  0  0  0  0  0  0  0  0
  -22.1210  -13.0240   22.0660 N   0  0  0  0  0  0  0  0  0  0  0  0
  -22.4010  -14.7480   20.6800 O   0  0  0  0  0  0  0  0  0  0  0  0
  -22.4840  -12.1840   22.4930 H   0  0  0  0  0  0  0  0  0  0  0  0
  -21.2020  -13.3490   22.3290 H   0  0  0  0  0  0  0  0  0  0  0  0
  -25.4630  -15.3200   20.2870 N   0  0  0  0  0  0  0  0  0  0  0  0
  -24.6930  -15.9690   20.3960 H   0  0  0  0  0  0  0  0  0  0  0  0
  -26.2550  -15.7280   19.8100 H   0  0  0  0  0  0  0  0  0  0  0  0
  -29.0780  -23.4160   19.9650 C   0  0  0  0  0  0  0  0  0  0  0  0
  -28.7210  -22.0830   19.6490 N   0  0  0  0  0  0  0  0  0  0  0  0
  -30.0700  -23.6520   20.6570 O   0  0  0  0  0  0  0  0  0  0  0  0
  -27.8360  -22.0870   19.1610 H   0  0  0  0  0  0  0  0  0  0  0  0
  -28.1660  -24.6970   19.4430 C   0  0  0  0  0  2  0  0  0  0  0  0
  -28.4260  -26.1880   19.8020 O   0  0  0  0  0  0  0  0  0  0  0  0
  -24.5970  -31.6130   23.0170 C   0  0  0  0  0  0  0  0  0  0  0  0
  -27.3400  -27.1410   19.7730 C   0  0  0  0  0  0  0  0  0  0  0  0
  -23.4450  -30.2450   21.3230 C   0  0  0  0  0  3  0  0  0  0  0  0
  -24.9450  -28.7950   19.8260 C   0  0  0  0  0  0  0  0  0  0  0  0
  -25.9870  -30.6140   21.1660 C   0  0  0  0  0  2  0  0  0  0  0  0
  -26.1100  -29.2570   20.4520 C   0  0  0  0  0  0  0  0  0  0  0  0
  -27.3070  -28.4460   20.4110 C   0  0  0  0  0  3  0  0  0  0  0  0
  -26.1440  -26.7860   19.1090 C   0  0  0  0  0  3  0  0  0  0  0  0
  -24.9740  -27.5730   19.1410 C   0  0  0  0  0  3  0  0  0  0  0  0
  -23.6850  -29.6420   19.9160 C   0  0  0  0  0  2  0  0  0  0  0  0
  -24.6960  -30.8420   21.8910 N   0  0  0  0  0  0  0  0  0  0  0  0
  -23.5030  -31.8350   23.5570 O   0  0  0  0  0  0  0  0  0  0  0  0
  -22.8080  -29.1720   22.2410 C   0  0  0  0  0  0  0  0  0  0  0  0
  -21.4810  -28.9770   22.1280 N   0  0  0  0  0  0  0  0  0  0  0  0
  -23.5070  -28.5170   23.0190 O   0  0  0  0  0  0  0  0  0  0  0  0
  -20.9700  -29.5560   21.4770 H   0  0  0  0  0  0  0  0  0  0  0  0
  -18.1290  -27.7090   22.6630 C   0  0  0  0  0  0  0  0  0  0  0  0
  -20.6930  -27.9830   22.8650 C   0  0  0  0  0  3  0  0  0  0  0  0
  -20.7890  -26.5910   22.2000 C   0  0  0  0  0  2  0  0  0  0  0  0
  -19.6580  -26.3190   21.2020 C   0  0  0  0  0  2  0  0  0  0  0  0
  -18.2970  -26.4070   21.8980 C   0  0  0  0  0  2  0  0  0  0  0  0
  -19.2550  -28.4560   23.1050 C   0  0  0  0  0  0  0  0  0  0  0  0
  -19.0410  -29.6750   23.7850 C   0  0  0  0  0  3  0  0  0  0  0  0
  -17.7360  -30.1460   24.0280 C   0  0  0  0  0  3  0  0  0  0  0  0
  -16.6280  -29.3960   23.6000 C   0  0  0  0  0  3  0  0  0  0  0  0
  -16.8240  -28.1800   22.9230 C   0  0  0  0  0  3  0  0  0  0  0  0
  -25.8530  -32.2670   23.6680 C   0  0  0  0  0  3  0  0  0  0  0  0
  -25.4970  -33.6460   24.0400 N   0  0  0  0  0  0  0  0  0  0  0  0
  -25.7860  -34.7340   23.3120 C   0  0  0  0  0  0  0  0  0  0  0  0
  -26.4500  -34.6830   22.2730 O   0  0  0  0  0  0  0  0  0  0  0  0
  -24.9010  -33.7550   24.8470 H   0  0  0  0  0  0  0  0  0  0  0  0
  -23.9880  -36.4740   23.0430 C   0  0  0  0  0  1  0  0  0  0  0  0
  -25.2610  -36.0930   23.8170 C   0  0  0  0  0  3  0  0  0  0  0  0
  -27.3790  -37.0350   24.6260 C   0  0  0  0  0  1  0  0  0  0  0  0
  -26.2520  -37.1860   23.7100 N   0  0  0  0  0  0  0  0  0  0  0  0
  -25.8170  -38.0860   23.8870 H   0  0  0  0  0  0  0  0  0  0  0  0
  -26.3780  -31.4770   24.9290 C   0  0  1  0  0  0  0  0  0  0  0  0
  -25.2860  -31.1930   25.9880 C   0  0  0  0  0  1  0  0  0  0  0  0
  -26.9900  -30.1200   24.5130 C   0  0  0  0  0  1  0  0  0  0  0  0
  -27.5110  -32.2780   25.6130 C   0  0  0  0  0  1  0  0  0  0  0  0
  1  3  1  0
  2  3  2  0
  3 17  1  0
  4  5  1  0
  4  6  2  0
  5  1  2  0
  6  2  1  0
  7  5  1  0
  8  6  1  0
  9 17  1  0
 10 15  1  0
 11 12  1  0
 11 10  1  0
 13 12  1  0
 13 22  1  0
 13 14  1  0
 15  9  1  0
 15 14  1  0
 16  9  2  0
 17 18  1  0
 19 20  2  0
 20 39  1  0
 21 20  1  0
 21 24  1  0
 22 23  1  0
 22 19  1  0
 23 21  2  0
 24 25  1  0
 25 26  2  0
 27 30  1  0
 27 26  1  0
 28 27  2  0
 29 28  1  0
 29 24  2  0
 30 31  1  0
 31 32  1  0
 32 33  2  0
 34 33  1  0
 34 38  1  0
 35 34  2  0
 36 31  2  0
 36 35  1  0
 37 36  1  0
 39 40  1  0
 40 43  1  0
 40 42  1  0
 41 39  2  0
 44 45  1  0
 44 19  1  0
 46 44  1  0
 47 49  2  0
 48  4  1  0
 48 47  1  0
 50 48  1  0
 51 52  1  0
 51 47  1  0
 53 64  2  0
 54 52  1  0
 54 59  1  0
 55 63  1  0
 55 65  1  0
 56 62  1  0
 56 58  1  0
 57 63  1  0
 58 57  1  0
 59 58  2  0
 60 61  1  0
 60 54  2  0
 61 56  2  0
 62 55  1  0
 63 53  1  0
 65 67  2  0
 66 65  1  0
 68 66  1  0
 69 78  2  0
 69 74  1  0
 70 66  1  0
 70 74  1  0
 71 70  1  0
 72 73  1  0
 72 71  1  0
 73 69  1  0
 74 75  2  0
 75 76  1  0
 77 76  2  0
 78 77  1  0
 79 53  1  0
 79 80  1  0
 79 89  1  0
 80 83  1  0
 81 85  1  0
 81 80  1  0
 82 81  2  0
 85 84  1  0
 87 85  1  0
 87 88  1  0
 87 86  1  0
 89 92  1  1
 89 90  1  0
 91 89  1  0
M  ISO  4   9 100  17 100  51 101  52 101
M  END
>  <TORSDO>  (49) 
F 18

>  <SCORE>  (49) 
-13.275

>  <name>  (49) 
48

>  <ligand_id>  (49) 
48

>  <original_smiles>  (49) 
[H]c1c([H])c([H])c2c(c1[H])C([H])([H])C([H])([H])C([H])([H])C2([H])N([H])C(=O)C1([H])N(C(=O)C([H])(N([H])C(=O)C([H])(N([H])C([H])([H])[H])C([H])([H])[H])C(C([H])([H])[H])(C([H])([H])[H])C([H])([H])[H])C([H])([H])c2c([H])c(OC([H])([H])C(=O)N([H])c3c(Cl)c([H])c(N([H])C(=O)N4C([H])([H])C([H])([H])C([H])([H])C([H])(n5nc(-c6c([H])c([H])c(Oc7c([H])c([H])c(F)c([H])c7F)c([H])c6[H])c(C(=O)N([H])[H])c5N([H])[H])C4([H])[H])c([H])c3Cl)c([H])c([H])c2C1([H])[H]

>  <smiles>  (49) 
[H]c1c([H])c([H])c2c(c1[H])C([H])([H])C([H])([H])C([H])([H])C2([H])N([H])C(=O)C1([H])N(C(=O)C([H])(N([H])C(=O)C([H])(N([H])C([H])([H])[H])C([H])([H])[H])C(C([H])([H])[H])(C([H])([H])[H])C([H])([H])[H])C([H])([H])c2c([H])c(OC([H])([H])C(=O)N([H])c3c(Cl)c([H])c(N([H])C(=O)N4C([H])([H])C([H])([H])C([H])([H])C([H])(n5nc(-c6c([H])c([H])c(Oc7c([H])c([H])c(F)c([H])c7F)c([H])c6[H])c(C(=O)N([H])[H])c5N([H])[H])C4([H])[H])c([H])c3Cl)c([H])c([H])c2C1([H])[H]

$$$$
49:0:0
     RDKit          3D

 91 99  0  0  1  0  0  0  0  0999 V2000
  -28.1850  -23.1020   20.2820 C   0  0  0  0  0  0  0  0  0  0  0  0
  -30.4550  -22.3970   20.8370 C   0  0  0  0  0  1  0  0  0  0  0  0
  -29.1120  -21.9860   20.4400 N   0  0  0  0  0  0  0  0  0  0  0  0
  -27.0050  -22.8900   20.5770 O   0  0  0  0  0  0  0  0  0  0  0  0
  -28.3490  -20.1060   18.9630 C   0  0  0  0  0  3  0  0  0  0  0  0
  -28.3320  -18.7900   18.4520 C   0  0  0  0  0  3  0  0  0  0  0  0
  -29.5060  -19.2020   20.8930 C   0  0  0  0  0  3  0  0  0  0  0  0
  -28.9700  -20.4360   20.1840 C   0  0  0  0  0  0  0  0  0  0  0  0
  -29.4690  -17.7600   20.4100 C   0  0  0  0  0  0  0  0  0  0  0  0
  -28.8790  -17.6680   19.1180 C   0  0  0  0  0  0  0  0  0  0  0  0
  -28.7410  -16.1560   18.2930 Cl  0  0  0  0  0  0  0  0  0  0  0  0
  -30.5400  -15.1970   20.9190 C   0  0  0  0  0  0  0  0  0  0  0  0
  -30.6270  -12.7510   20.1730 C   0  0  0  0  0  2  0  0  0  0  0  0
  -29.8380  -12.5590   18.8550 C   0  0  0  0  0  2  0  0  0  0  0  0
  -28.3470  -12.3060   19.1430 C   0  0  0  0  0  2  0  0  0  0  0  0
  -27.7830  -13.2740   20.2130 C   0  0  0  0  0  3  0  0  0  0  0  0
  -28.7120  -13.4300   21.4370 C   0  0  0  0  0  2  0  0  0  0  0  0
  -30.0160  -13.8900   20.9390 N   0  0  0  0  0  0  0  0  0  0  0  0
  -31.7490  -15.2710   20.6620 O   0  0  0  0  0  0  0  0  0  0  0  0
  -29.7450  -16.3890   21.1380 N   0  0  0  0  0  0  0  0  0  0  0  0
  -28.9380  -16.1280   21.6840 H   0  0  0  0  0  0  0  0  0  0  0  0
  -25.3320  -13.8040   20.6960 C   0  0  0  0  0  0  0  0  0  0  0  0
  -24.2570  -13.0110   20.9850 C   0  0  0  0  0  0  0  0  0  0  0  0
  -24.7560  -11.6730   21.0440 C   0  0  0  0  0  0  0  0  0  0  0  0
  -26.4150  -12.9470   20.5880 N   0  0  0  0  0  0  0  0  0  0  0  0
  -26.0720  -11.6630   20.8630 N   0  0  0  0  0  0  0  0  0  0  0  0
  -24.0450  -10.3970   21.2030 C   0  0  0  0  0  0  0  0  0  0  0  0
  -24.4360   -9.4480   22.1720 C   0  0  0  0  0  3  0  0  0  0  0  0
  -23.7220   -8.2390   22.3180 C   0  0  0  0  0  3  0  0  0  0  0  0
  -22.6030   -7.9700   21.4940 C   0  0  0  0  0  0  0  0  0  0  0  0
  -22.2330   -8.9090   20.5140 C   0  0  0  0  0  3  0  0  0  0  0  0
  -22.9470  -10.1090   20.3670 C   0  0  0  0  0  3  0  0  0  0  0  0
  -21.8670   -6.8120   21.5470 O   0  0  0  0  0  0  0  0  0  0  0  0
  -21.7890   -6.0620   22.6930 C   0  0  0  0  0  0  0  0  0  0  0  0
  -21.3210   -6.6040   23.9100 C   0  0  0  0  0  3  0  0  0  0  0  0
  -21.1910   -5.7790   25.0450 C   0  0  0  0  0  3  0  0  0  0  0  0
  -21.5190   -4.4130   24.9650 C   0  0  0  0  0  0  0  0  0  0  0  0
  -21.9800   -3.8690   23.7530 C   0  0  0  0  0  3  0  0  0  0  0  0
  -22.1120   -4.6910   22.6200 C   0  0  0  0  0  0  0  0  0  0  0  0
  -22.5380   -4.1580   21.4490 F   0  0  0  0  0  0  0  0  0  0  0  0
  -21.3870   -3.6190   26.0520 F   0  0  0  0  0  0  0  0  0  0  0  0
  -22.8290  -13.4590   21.1010 C   0  0  0  0  0  0  0  0  0  0  0  0
  -22.0380  -12.7760   21.9220 N   0  0  0  0  0  0  0  0  0  0  0  0
  -22.4210  -14.4510   20.4980 O   0  0  0  0  0  0  0  0  0  0  0  0
  -22.3790  -11.9760   22.4330 H   0  0  0  0  0  0  0  0  0  0  0  0
  -21.0760  -13.0590   22.0420 H   0  0  0  0  0  0  0  0  0  0  0  0
  -25.4770  -15.1720   20.4880 N   0  0  0  0  0  0  0  0  0  0  0  0
  -24.6800  -15.7980   20.4830 H   0  0  0  0  0  0  0  0  0  0  0  0
  -26.3310  -15.6150   20.1730 H   0  0  0  0  0  0  0  0  0  0  0  0
  -28.4790  -24.6550   19.6470 C   0  0  0  0  0  2  0  0  0  0  0  0
  -28.2700  -26.0970   20.2920 O   0  0  0  0  0  0  0  0  0  0  0  0
  -24.6430  -31.8880   23.1170 C   0  0  0  0  0  0  0  0  0  0  0  0
  -27.2270  -27.1020   20.1150 C   0  0  0  0  0  0  0  0  0  0  0  0
  -23.4430  -30.4670   21.4970 C   0  0  0  0  0  3  0  0  0  0  0  0
  -24.8940  -28.8780   20.0690 C   0  0  0  0  0  0  0  0  0  0  0  0
  -25.9970  -30.7270   21.3240 C   0  0  0  0  0  2  0  0  0  0  0  0
  -26.0710  -29.3240   20.6790 C   0  0  0  0  0  0  0  0  0  0  0  0
  -27.2280  -28.4470   20.6930 C   0  0  0  0  0  3  0  0  0  0  0  0
  -26.0290  -26.7770   19.4450 C   0  0  0  0  0  3  0  0  0  0  0  0
  -24.8890  -27.6220   19.4350 C   0  0  0  0  0  3  0  0  0  0  0  0
  -23.6610  -29.7750   20.1230 C   0  0  0  0  0  2  0  0  0  0  0  0
  -24.7140  -31.0530   22.0330 N   0  0  0  0  0  0  0  0  0  0  0  0
  -23.5580  -32.1730   23.6490 O   0  0  0  0  0  0  0  0  0  0  0  0
  -22.7720  -29.4720   22.4770 C   0  0  0  0  0  0  0  0  0  0  0  0
  -21.4390  -29.3120   22.3770 N   0  0  0  0  0  0  0  0  0  0  0  0
  -23.4530  -28.8450   23.2930 O   0  0  0  0  0  0  0  0  0  0  0  0
  -20.9450  -29.8670   21.6940 H   0  0  0  0  0  0  0  0  0  0  0  0
  -18.0600  -28.1390   22.9550 C   0  0  0  0  0  0  0  0  0  0  0  0
  -20.6260  -28.3810   23.1650 C   0  0  0  0  0  3  0  0  0  0  0  0
  -20.7040  -26.9490   22.5860 C   0  0  0  0  0  2  0  0  0  0  0  0
  -19.5770  -26.6380   21.5950 C   0  0  0  0  0  2  0  0  0  0  0  0
  -18.2110  -26.7910   22.2700 C   0  0  0  0  0  2  0  0  0  0  0  0
  -19.1940  -28.8930   23.3610 C   0  0  0  0  0  0  0  0  0  0  0  0
  -18.9960  -30.1540   23.9640 C   0  0  0  0  0  3  0  0  0  0  0  0
  -17.6980  -30.6610   24.1650 C   0  0  0  0  0  3  0  0  0  0  0  0
  -16.5800  -29.9040   23.7740 C   0  0  0  0  0  3  0  0  0  0  0  0
  -16.7610  -28.6450   23.1750 C   0  0  0  0  0  3  0  0  0  0  0  0
  -25.9200  -32.5390   23.7320 C   0  0  0  0  0  3  0  0  0  0  0  0
  -25.5880  -33.9280   24.0920 N   0  0  0  0  0  0  0  0  0  0  0  0
  -25.9050  -35.0060   23.3620 C   0  0  0  0  0  0  0  0  0  0  0  0
  -26.5710  -34.9370   22.3260 O   0  0  0  0  0  0  0  0  0  0  0  0
  -24.9930  -34.0550   24.8980 H   0  0  0  0  0  0  0  0  0  0  0  0
  -24.1590  -36.7960   23.0610 C   0  0  0  0  0  1  0  0  0  0  0  0
  -25.4050  -36.3790   23.8580 C   0  0  0  0  0  3  0  0  0  0  0  0
  -27.5330  -37.2640   24.7080 C   0  0  0  0  0  1  0  0  0  0  0  0
  -26.4270  -37.4450   23.7720 N   0  0  0  0  0  0  0  0  0  0  0  0
  -26.0110  -38.3560   23.9450 H   0  0  0  0  0  0  0  0  0  0  0  0
  -26.4640  -31.7650   24.9970 C   0  0  1  0  0  0  0  0  0  0  0  0
  -25.3900  -31.5070   26.0790 C   0  0  0  0  0  1  0  0  0  0  0  0
  -27.0580  -30.3960   24.5920 C   0  0  0  0  0  1  0  0  0  0  0  0
  -27.6140  -32.5690   25.6490 C   0  0  0  0  0  1  0  0  0  0  0  0
  1  3  1  0
  1  4  2  0
  3  2  1  0
  5  8  1  0
  6  5  2  0
  6 10  1  0
  8  3  1  0
  8  7  2  0
  9  7  1  0
  9 20  1  0
 10  9  2  0
 11 10  1  0
 12 18  1  0
 12 20  1  0
 13 18  1  0
 14 15  1  0
 14 13  1  0
 16 15  1  0
 16 25  1  0
 16 17  1  0
 18 17  1  0
 19 12  2  0
 20 21  1  0
 22 23  2  0
 23 24  1  0
 23 42  1  0
 24 27  1  0
 25 22  1  0
 25 26  1  0
 26 24  2  0
 27 28  1  0
 28 29  2  0
 30 33  1  0
 30 29  1  0
 31 30  2  0
 32 31  1  0
 32 27  2  0
 33 34  1  0
 34 35  1  0
 35 36  2  0
 37 36  1  0
 37 41  1  0
 38 37  2  0
 39 34  2  0
 39 38  1  0
 40 39  1  0
 42 43  1  0
 43 46  1  0
 43 45  1  0
 44 42  2  0
 47 22  1  0
 48 47  1  0
 49 47  1  0
 50  1  1  0
 50 51  1  0
 52 63  2  0
 53 51  1  0
 53 58  1  0
 54 62  1  0
 54 64  1  0
 55 61  1  0
 55 57  1  0
 56 62  1  0
 57 58  2  0
 57 56  1  0
 59 53  2  0
 60 59  1  0
 60 55  2  0
 61 54  1  0
 62 52  1  0
 64 66  2  0
 65 64  1  0
 67 65  1  0
 68 77  2  0
 68 73  1  0
 69 65  1  0
 69 73  1  0
 70 69  1  0
 71 72  1  0
 71 70  1  0
 72 68  1  0
 73 74  2  0
 74 75  1  0
 76 75  2  0
 77 76  1  0
 78 52  1  0
 78 79  1  0
 78 88  1  0
 79 82  1  0
 80 84  1  0
 80 79  1  0
 81 80  2  0
 84 83  1  0
 86 84  1  0
 86 87  1  0
 86 85  1  0
 88 91  1  1
 88 89  1  0
 90 88  1  0
M  ISO  4  12 100  20 100  50 101  51 101
M  END
>  <TORSDO>  (50) 
F 18

>  <SCORE>  (50) 
-14.527

>  <name>  (50) 
49

>  <ligand_id>  (50) 
49

>  <original_smiles>  (50) 
[H]c1c([H])c([H])c2c(c1[H])C([H])([H])C([H])([H])C([H])([H])C2([H])N([H])C(=O)C1([H])N(C(=O)C([H])(N([H])C(=O)C([H])(N([H])C([H])([H])[H])C([H])([H])[H])C(C([H])([H])[H])(C([H])([H])[H])C([H])([H])[H])C([H])([H])c2c([H])c(OC([H])([H])C(=O)N(c3c([H])c([H])c(Cl)c(N([H])C(=O)N4C([H])([H])C([H])([H])C([H])([H])C([H])(n5nc(-c6c([H])c([H])c(Oc7c([H])c([H])c(F)c([H])c7F)c([H])c6[H])c(C(=O)N([H])[H])c5N([H])[H])C4([H])[H])c3[H])C([H])([H])[H])c([H])c([H])c2C1([H])[H]

>  <smiles>  (50) 
[H]c1c([H])c([H])c2c(c1[H])C([H])([H])C([H])([H])C([H])([H])C2([H])N([H])C(=O)C1([H])N(C(=O)C([H])(N([H])C(=O)C([H])(N([H])C([H])([H])[H])C([H])([H])[H])C(C([H])([H])[H])(C([H])([H])[H])C([H])([H])[H])C([H])([H])c2c([H])c(OC([H])([H])C(=O)N(c3c([H])c([H])c(Cl)c(N([H])C(=O)N4C([H])([H])C([H])([H])C([H])([H])C([H])(n5nc(-c6c([H])c([H])c(Oc7c([H])c([H])c(F)c([H])c7F)c([H])c6[H])c(C(=O)N([H])[H])c5N([H])[H])C4([H])[H])c3[H])C([H])([H])[H])c([H])c([H])c2C1([H])[H]

$$$$
50:0:0
     RDKit          3D

 92100  0  0  1  0  0  0  0  0999 V2000
  -31.4550  -17.7210   21.0900 C   0  0  0  0  0  3  0  0  0  0  0  0
  -30.9070  -20.1110   20.8910 C   0  0  0  0  0  3  0  0  0  0  0  0
  -30.1700  -17.3340   20.6450 C   0  0  0  0  0  0  0  0  0  0  0  0
  -29.5960  -19.8460   20.4370 C   0  0  0  0  0  0  0  0  0  0  0  0
  -31.8110  -19.0790   21.2100 C   0  0  0  0  0  0  0  0  0  0  0  0
  -29.2510  -18.4180   20.3310 C   0  0  0  0  0  0  0  0  0  0  0  0
  -33.0570  -19.4000   21.6340 F   0  0  0  0  0  0  0  0  0  0  0  0
  -28.0090  -18.0520   19.9250 F   0  0  0  0  0  0  0  0  0  0  0  0
  -30.5830  -14.7570   20.3930 C   0  0  0  0  0  0  0  0  0  0  0  0
  -30.3620  -12.4940   19.3630 C   0  0  0  0  0  2  0  0  0  0  0  0
  -29.4230  -12.5870   18.1410 C   0  0  0  0  0  2  0  0  0  0  0  0
  -27.9520  -12.4190   18.5740 C   0  0  0  0  0  2  0  0  0  0  0  0
  -27.5860  -13.2990   19.7990 C   0  0  0  0  0  3  0  0  0  0  0  0
  -28.6470  -13.1980   20.9160 C   0  0  0  0  0  2  0  0  0  0  0  0
  -29.9430  -13.5420   20.3170 N   0  0  0  0  0  0  0  0  0  0  0  0
  -31.7740  -14.8390   20.0810 O   0  0  0  0  0  0  0  0  0  0  0  0
  -29.8070  -15.8930   20.5710 N   0  0  0  0  0  0  0  0  0  0  0  0
  -28.8170  -15.7120   20.6200 H   0  0  0  0  0  0  0  0  0  0  0  0
  -25.1990  -13.8930   20.5280 C   0  0  0  0  0  0  0  0  0  0  0  0
  -24.1330  -13.1200   20.9000 C   0  0  0  0  0  0  0  0  0  0  0  0
  -24.5970  -11.7690   20.8720 C   0  0  0  0  0  0  0  0  0  0  0  0
  -26.2420  -13.0130   20.2910 N   0  0  0  0  0  0  0  0  0  0  0  0
  -25.8870  -11.7300   20.5630 N   0  0  0  0  0  0  0  0  0  0  0  0
  -23.8690  -10.5060   21.0630 C   0  0  0  0  0  0  0  0  0  0  0  0
  -24.3130   -9.5310   21.9830 C   0  0  0  0  0  3  0  0  0  0  0  0
  -23.5850   -8.3350   22.1630 C   0  0  0  0  0  3  0  0  0  0  0  0
  -22.4000   -8.1060   21.4230 C   0  0  0  0  0  0  0  0  0  0  0  0
  -21.9760   -9.0720   20.4920 C   0  0  0  0  0  3  0  0  0  0  0  0
  -22.7050  -10.2580   20.3100 C   0  0  0  0  0  3  0  0  0  0  0  0
  -21.6420   -6.9640   21.5130 O   0  0  0  0  0  0  0  0  0  0  0  0
  -21.6220   -6.2020   22.6540 C   0  0  0  0  0  0  0  0  0  0  0  0
  -21.2440   -6.7410   23.9040 C   0  0  0  0  0  3  0  0  0  0  0  0
  -21.1700   -5.9070   25.0370 C   0  0  0  0  0  3  0  0  0  0  0  0
  -21.4600   -4.5350   24.9210 C   0  0  0  0  0  0  0  0  0  0  0  0
  -21.8310   -3.9950   23.6770 C   0  0  0  0  0  3  0  0  0  0  0  0
  -21.9070   -4.8260   22.5460 C   0  0  0  0  0  0  0  0  0  0  0  0
  -22.2440   -4.2970   21.3440 F   0  0  0  0  0  0  0  0  0  0  0  0
  -21.3820   -3.7320   26.0080 F   0  0  0  0  0  0  0  0  0  0  0  0
  -22.7360  -13.5990   21.1680 C   0  0  0  0  0  0  0  0  0  0  0  0
  -22.0060  -12.9060   22.0350 N   0  0  0  0  0  0  0  0  0  0  0  0
  -22.3000  -14.6230   20.6440 O   0  0  0  0  0  0  0  0  0  0  0  0
  -22.3700  -12.0770   22.4800 H   0  0  0  0  0  0  0  0  0  0  0  0
  -21.0680  -13.2100   22.2540 H   0  0  0  0  0  0  0  0  0  0  0  0
  -25.3600  -15.2630   20.3460 N   0  0  0  0  0  0  0  0  0  0  0  0
  -24.5860  -15.9090   20.4530 H   0  0  0  0  0  0  0  0  0  0  0  0
  -26.1930  -15.7110   19.9850 H   0  0  0  0  0  0  0  0  0  0  0  0
  -27.5970  -20.7010   19.2550 C   0  0  0  0  0  1  0  0  0  0  0  0
  -28.7700  -20.9990   20.0730 N   0  0  0  0  0  0  0  0  0  0  0  0
  -28.7420  -22.3330   20.8090 C   0  0  0  0  0  2  0  0  0  0  0  0
  -28.6620  -23.7380   19.9990 C   0  0  0  0  0  3  0  0  0  0  0  0
  -28.2200  -25.0730   20.7990 C   0  0  0  0  0  3  0  0  0  0  0  0
  -28.3760  -26.4600   20.2520 O   0  0  0  0  0  0  0  0  0  0  0  0
  -24.6220  -31.9050   23.2540 C   0  0  0  0  0  0  0  0  0  0  0  0
  -27.2630  -27.3190   20.2460 C   0  0  0  0  0  0  0  0  0  0  0  0
  -23.4330  -30.4930   21.6140 C   0  0  0  0  0  3  0  0  0  0  0  0
  -24.8960  -28.9320   20.2090 C   0  0  0  0  0  0  0  0  0  0  0  0
  -25.9730  -30.8160   21.4420 C   0  0  0  0  0  2  0  0  0  0  0  0
  -26.0620  -29.4310   20.8050 C   0  0  0  0  0  0  0  0  0  0  0  0
  -27.2520  -28.6370   20.8070 C   0  0  0  0  0  3  0  0  0  0  0  0
  -26.0750  -26.8750   19.6290 C   0  0  0  0  0  3  0  0  0  0  0  0
  -24.9060  -27.6620   19.6100 C   0  0  0  0  0  3  0  0  0  0  0  0
  -23.6570  -29.8050   20.2410 C   0  0  0  0  0  2  0  0  0  0  0  0
  -24.6950  -31.0900   22.1600 N   0  0  0  0  0  0  0  0  0  0  0  0
  -23.5350  -32.1820   23.7810 O   0  0  0  0  0  0  0  0  0  0  0  0
  -22.7660  -29.4820   22.5780 C   0  0  0  0  0  0  0  0  0  0  0  0
  -21.4390  -29.3060   22.4510 N   0  0  0  0  0  0  0  0  0  0  0  0
  -23.4420  -28.8570   23.4000 O   0  0  0  0  0  0  0  0  0  0  0  0
  -20.9530  -29.8630   21.7620 H   0  0  0  0  0  0  0  0  0  0  0  0
  -18.0600  -28.1170   22.9540 C   0  0  0  0  0  0  0  0  0  0  0  0
  -20.6180  -28.3710   23.2230 C   0  0  0  0  0  3  0  0  0  0  0  0
  -20.7170  -26.9390   22.6490 C   0  0  0  0  0  2  0  0  0  0  0  0
  -19.6140  -26.6170   21.6360 C   0  0  0  0  0  2  0  0  0  0  0  0
  -18.2330  -26.7670   22.2800 C   0  0  0  0  0  2  0  0  0  0  0  0
  -19.1800  -28.8780   23.3830 C   0  0  0  0  0  0  0  0  0  0  0  0
  -18.9630  -30.1420   23.9740 C   0  0  0  0  0  3  0  0  0  0  0  0
  -17.6590  -30.6450   24.1400 C   0  0  0  0  0  3  0  0  0  0  0  0
  -16.5530  -29.8810   23.7280 C   0  0  0  0  0  3  0  0  0  0  0  0
  -16.7540  -28.6190   23.1410 C   0  0  0  0  0  3  0  0  0  0  0  0
  -25.8980  -32.5460   23.8800 C   0  0  0  0  0  3  0  0  0  0  0  0
  -26.4060  -31.7880   25.1680 C   0  0  1  0  0  0  0  0  0  0  0  0
  -25.3060  -31.5590   26.2310 C   0  0  0  0  0  1  0  0  0  0  0  0
  -26.9920  -30.4070   24.7950 C   0  0  0  0  0  1  0  0  0  0  0  0
  -27.5520  -32.5890   25.8300 C   0  0  0  0  0  1  0  0  0  0  0  0
  -25.5840  -33.9480   24.1980 N   0  0  0  0  0  0  0  0  0  0  0  0
  -25.9150  -34.9960   23.4330 C   0  0  0  0  0  0  0  0  0  0  0  0
  -26.5890  -34.8860   22.4050 O   0  0  0  0  0  0  0  0  0  0  0  0
  -24.9850  -34.1060   24.9970 H   0  0  0  0  0  0  0  0  0  0  0  0
  -24.1840  -36.7830   23.0620 C   0  0  0  0  0  1  0  0  0  0  0  0
  -25.4240  -36.3870   23.8800 C   0  0  0  0  0  3  0  0  0  0  0  0
  -27.5560  -37.2820   24.7060 C   0  0  0  0  0  1  0  0  0  0  0  0
  -26.4540  -37.4420   23.7600 N   0  0  0  0  0  0  0  0  0  0  0  0
  -26.0460  -38.3620   23.9030 H   0  0  0  0  0  0  0  0  0  0  0  0
  1  5  1  0
  2  5  2  0
  3  1  2  0
  4  2  1  0
  5  7  1  0
  6  4  2  0
  6  3  1  0
  8  6  1  0
  9 17  1  0
 10 15  1  0
 11 12  1  0
 11 10  1  0
 13 12  1  0
 13 22  1  0
 13 14  1  0
 15  9  1  0
 15 14  1  0
 16  9  2  0
 17 18  1  0
 17  3  1  0
 19 20  2  0
 20 39  1  0
 21 20  1  0
 21 24  1  0
 22 19  1  0
 22 23  1  0
 23 21  2  0
 24 25  1  0
 25 26  2  0
 27 30  1  0
 27 26  1  0
 28 27  2  0
 29 28  1  0
 29 24  2  0
 30 31  1  0
 31 32  1  0
 32 33  2  0
 34 33  1  0
 34 38  1  0
 35 34  2  0
 36 31  2  0
 36 35  1  0
 37 36  1  0
 39 40  1  0
 40 43  1  0
 40 42  1  0
 41 39  2  0
 44 45  1  0
 44 19  1  0
 46 44  1  0
 47 48  1  0
 48  4  1  0
 48 49  1  0
 50 51  2  0
 50 49  1  0
 52 51  1  0
 53 64  2  0
 54 52  1  0
 54 59  1  0
 55 63  1  0
 55 65  1  0
 56 62  1  0
 56 58  1  0
 57 63  1  0
 58 59  2  0
 58 57  1  0
 60 54  2  0
 61 60  1  0
 61 56  2  0
 62 55  1  0
 63 53  1  0
 65 67  2  0
 66 65  1  0
 68 66  1  0
 69 78  2  0
 69 74  1  0
 70 66  1  0
 70 74  1  0
 71 70  1  0
 72 73  1  0
 72 71  1  0
 73 69  1  0
 74 75  2  0
 75 76  1  0
 77 76  2  0
 78 77  1  0
 79 53  1  0
 79 84  1  0
 79 80  1  0
 80 83  1  1
 80 81  1  0
 82 80  1  0
 84 87  1  0
 85 89  1  0
 85 84  1  0
 86 85  2  0
 89 88  1  0
 91 89  1  0
 91 92  1  0
 91 90  1  0
M  ISO  4   9 100  17 100  51 101  52 101
M  END
>  <TORSDO>  (51) 
F 20

>  <SCORE>  (51) 
-14.254

>  <name>  (51) 
50

>  <ligand_id>  (51) 
50

>  <original_smiles>  (51) 
[H]c1c([H])c([H])c2c(c1[H])C([H])([H])C([H])([H])C([H])([H])C2([H])N([H])C(=O)C1([H])N(C(=O)C([H])(N([H])C(=O)C([H])(N([H])C([H])([H])[H])C([H])([H])[H])C(C([H])([H])[H])(C([H])([H])[H])C([H])([H])[H])C([H])([H])c2c([H])c(OC([H])([H])C([H])([H])C([H])([H])N(c3c([H])c(F)c([H])c(N([H])C(=O)N4C([H])([H])C([H])([H])C([H])([H])C([H])(n5nc(-c6c([H])c([H])c(Oc7c([H])c([H])c(F)c([H])c7F)c([H])c6[H])c(C(=O)N([H])[H])c5N([H])[H])C4([H])[H])c3F)C([H])([H])[H])c([H])c([H])c2C1([H])[H]

>  <smiles>  (51) 
[H]c1c([H])c([H])c2c(c1[H])C([H])([H])C([H])([H])C([H])([H])C2([H])N([H])C(=O)C1([H])N(C(=O)C([H])(N([H])C(=O)C([H])(N([H])C([H])([H])[H])C([H])([H])[H])C(C([H])([H])[H])(C([H])([H])[H])C([H])([H])[H])C([H])([H])c2c([H])c(OC([H])([H])C([H])([H])C([H])([H])N(c3c([H])c(F)c([H])c(N([H])C(=O)N4C([H])([H])C([H])([H])C([H])([H])C([H])(n5nc(-c6c([H])c([H])c(Oc7c([H])c([H])c(F)c([H])c7F)c([H])c6[H])c(C(=O)N([H])[H])c5N([H])[H])C4([H])[H])c3F)C([H])([H])[H])c([H])c([H])c2C1([H])[H]

$$$$
51:0:0
     RDKit          3D

 85 92  0  0  1  0  0  0  0  0999 V2000
  -28.5760  -21.8570   20.6390 C   0  0  0  0  0  3  0  0  0  0  0  0
  -28.5970  -23.2840   20.4470 C   0  0  0  0  0  3  0  0  0  0  0  0
  -29.5690  -20.6050   20.2810 C   0  0  0  0  0  2  0  0  0  0  0  0
  -29.1670  -18.9870   20.5410 C   0  0  0  0  0  3  0  0  0  0  0  0
  -30.1880  -17.6710   20.3060 C   0  0  0  0  0  3  0  0  0  0  0  0
  -30.5560  -14.9670   20.3300 C   0  0  0  0  0  0  0  0  0  0  0  0
  -30.4120  -12.6290   19.3770 C   0  0  0  0  0  2  0  0  0  0  0  0
  -29.4740  -12.6060   18.1480 C   0  0  0  0  0  2  0  0  0  0  0  0
  -28.0120  -12.3970   18.5850 C   0  0  0  0  0  2  0  0  0  0  0  0
  -27.6130  -13.3110   19.7740 C   0  0  0  0  0  3  0  0  0  0  0  0
  -28.6740  -13.3150   20.8950 C   0  0  0  0  0  2  0  0  0  0  0  0
  -29.9470  -13.7170   20.2830 N   0  0  0  0  0  0  0  0  0  0  0  0
  -31.7510  -15.0310   20.0230 O   0  0  0  0  0  0  0  0  0  0  0  0
  -29.8000  -16.1550   20.5040 N   0  0  0  0  0  0  0  0  0  0  0  0
  -28.8290  -15.9900   20.7230 H   0  0  0  0  0  0  0  0  0  0  0  0
  -25.2340  -13.8760   20.5270 C   0  0  0  0  0  0  0  0  0  0  0  0
  -24.1740  -13.0940   20.8970 C   0  0  0  0  0  0  0  0  0  0  0  0
  -24.6450  -11.7460   20.8550 C   0  0  0  0  0  0  0  0  0  0  0  0
  -26.2790  -13.0040   20.2770 N   0  0  0  0  0  0  0  0  0  0  0  0
  -25.9340  -11.7170   20.5390 N   0  0  0  0  0  0  0  0  0  0  0  0
  -23.9230  -10.4780   21.0400 C   0  0  0  0  0  0  0  0  0  0  0  0
  -24.3510   -9.5150   21.9790 C   0  0  0  0  0  3  0  0  0  0  0  0
  -23.6280   -8.3140   22.1510 C   0  0  0  0  0  3  0  0  0  0  0  0
  -22.4640   -8.0690   21.3840 C   0  0  0  0  0  0  0  0  0  0  0  0
  -22.0560   -9.0230   20.4350 C   0  0  0  0  0  3  0  0  0  0  0  0
  -22.7800  -10.2130   20.2590 C   0  0  0  0  0  3  0  0  0  0  0  0
  -21.7130   -6.9210   21.4660 O   0  0  0  0  0  0  0  0  0  0  0  0
  -21.6420   -6.1900   22.6250 C   0  0  0  0  0  0  0  0  0  0  0  0
  -21.1610   -6.7480   23.8300 C   0  0  0  0  0  3  0  0  0  0  0  0
  -21.0390   -5.9410   24.9790 C   0  0  0  0  0  3  0  0  0  0  0  0
  -21.3850   -4.5780   24.9230 C   0  0  0  0  0  0  0  0  0  0  0  0
  -21.8570   -4.0190   23.7230 C   0  0  0  0  0  3  0  0  0  0  0  0
  -21.9820   -4.8220   22.5760 C   0  0  0  0  0  0  0  0  0  0  0  0
  -22.4170   -4.2740   21.4160 F   0  0  0  0  0  0  0  0  0  0  0  0
  -21.2590   -3.8010   26.0250 F   0  0  0  0  0  0  0  0  0  0  0  0
  -22.7760  -13.5640   21.1750 C   0  0  0  0  0  0  0  0  0  0  0  0
  -22.0530  -12.8590   22.0390 N   0  0  0  0  0  0  0  0  0  0  0  0
  -22.3340  -14.5910   20.6630 O   0  0  0  0  0  0  0  0  0  0  0  0
  -22.4250  -12.0280   22.4750 H   0  0  0  0  0  0  0  0  0  0  0  0
  -21.1160  -13.1550   22.2690 H   0  0  0  0  0  0  0  0  0  0  0  0
  -25.3890  -15.2490   20.3560 N   0  0  0  0  0  0  0  0  0  0  0  0
  -24.6160  -15.8960   20.4690 H   0  0  0  0  0  0  0  0  0  0  0  0
  -26.2230  -15.6920   19.9940 H   0  0  0  0  0  0  0  0  0  0  0  0
  -27.7960  -24.7340   20.6630 C   0  0  0  0  0  2  0  0  0  0  0  0
  -28.2210  -26.1790   20.2740 O   0  0  0  0  0  0  0  0  0  0  0  0
  -24.6230  -31.9000   23.2490 C   0  0  0  0  0  0  0  0  0  0  0  0
  -27.1950  -27.1930   20.2170 C   0  0  0  0  0  0  0  0  0  0  0  0
  -23.4230  -30.5070   21.6100 C   0  0  0  0  0  3  0  0  0  0  0  0
  -24.8720  -28.9410   20.1820 C   0  0  0  0  0  0  0  0  0  0  0  0
  -25.9780  -30.7720   21.4490 C   0  0  0  0  0  2  0  0  0  0  0  0
  -26.0520  -29.3810   20.7980 C   0  0  0  0  0  0  0  0  0  0  0  0
  -27.2150  -28.5220   20.8030 C   0  0  0  0  0  3  0  0  0  0  0  0
  -26.0000  -26.8740   19.5340 C   0  0  0  0  0  3  0  0  0  0  0  0
  -24.8590  -27.7000   19.5330 C   0  0  0  0  0  3  0  0  0  0  0  0
  -23.6450  -29.8360   20.2300 C   0  0  0  0  0  2  0  0  0  0  0  0
  -24.6940  -31.0810   22.1580 N   0  0  0  0  0  0  0  0  0  0  0  0
  -23.5370  -32.1850   23.7760 O   0  0  0  0  0  0  0  0  0  0  0  0
  -22.7460  -29.4960   22.5690 C   0  0  0  0  0  0  0  0  0  0  0  0
  -21.4190  -29.3160   22.4350 N   0  0  0  0  0  0  0  0  0  0  0  0
  -23.4150  -28.8760   23.3990 O   0  0  0  0  0  0  0  0  0  0  0  0
  -20.9350  -29.8670   21.7390 H   0  0  0  0  0  0  0  0  0  0  0  0
  -18.0430  -28.0940   22.9140 C   0  0  0  0  0  0  0  0  0  0  0  0
  -20.5970  -28.3780   23.2040 C   0  0  0  0  0  3  0  0  0  0  0  0
  -20.7160  -26.9430   22.6430 C   0  0  0  0  0  2  0  0  0  0  0  0
  -19.6260  -26.6030   21.6200 C   0  0  0  0  0  2  0  0  0  0  0  0
  -18.2380  -26.7420   22.2490 C   0  0  0  0  0  2  0  0  0  0  0  0
  -19.1510  -28.8690   23.3480 C   0  0  0  0  0  0  0  0  0  0  0  0
  -18.9150  -30.1330   23.9310 C   0  0  0  0  0  3  0  0  0  0  0  0
  -17.6040  -30.6220   24.0830 C   0  0  0  0  0  3  0  0  0  0  0  0
  -16.5100  -29.8450   23.6640 C   0  0  0  0  0  3  0  0  0  0  0  0
  -16.7300  -28.5830   23.0860 C   0  0  0  0  0  3  0  0  0  0  0  0
  -25.9020  -32.5360   23.8760 C   0  0  0  0  0  3  0  0  0  0  0  0
  -26.4050  -31.7730   25.1630 C   0  0  1  0  0  0  0  0  0  0  0  0
  -25.3020  -31.5500   26.2240 C   0  0  0  0  0  1  0  0  0  0  0  0
  -26.9860  -30.3890   24.7910 C   0  0  0  0  0  1  0  0  0  0  0  0
  -27.5540  -32.5680   25.8260 C   0  0  0  0  0  1  0  0  0  0  0  0
  -25.5930  -33.9370   24.1980 N   0  0  0  0  0  0  0  0  0  0  0  0
  -25.9280  -34.9880   23.4380 C   0  0  0  0  0  0  0  0  0  0  0  0
  -26.5990  -34.8780   22.4070 O   0  0  0  0  0  0  0  0  0  0  0  0
  -24.9980  -34.0960   24.9970 H   0  0  0  0  0  0  0  0  0  0  0  0
  -24.2100  -36.7910   23.0770 C   0  0  0  0  0  1  0  0  0  0  0  0
  -25.4480  -36.3810   23.8920 C   0  0  0  0  0  3  0  0  0  0  0  0
  -27.5830  -37.2600   24.7290 C   0  0  0  0  0  1  0  0  0  0  0  0
  -26.4860  -37.4290   23.7790 N   0  0  0  0  0  0  0  0  0  0  0  0
  -26.0830  -38.3510   23.9190 H   0  0  0  0  0  0  0  0  0  0  0  0
  2  1  2  0
  2 44  1  0
  3  4  1  0
  3  1  1  0
  5 14  1  0
  5  4  2  0
  6 14  1  0
  7 12  1  0
  8  9  1  0
  8  7  1  0
 10  9  1  0
 10 19  1  0
 10 11  1  0
 12  6  1  0
 12 11  1  0
 13  6  2  0
 14 15  1  0
 16 17  2  0
 17 36  1  0
 18 17  1  0
 18 21  1  0
 19 16  1  0
 19 20  1  0
 20 18  2  0
 21 22  1  0
 22 23  2  0
 24 27  1  0
 24 23  1  0
 25 24  2  0
 26 25  1  0
 26 21  2  0
 27 28  1  0
 28 29  1  0
 29 30  2  0
 31 30  1  0
 31 35  1  0
 32 31  2  0
 33 28  2  0
 33 32  1  0
 34 33  1  0
 36 37  1  0
 37 40  1  0
 37 39  1  0
 38 36  2  0
 41 42  1  0
 41 16  1  0
 43 41  1  0
 45 44  1  0
 46 57  2  0
 47 45  1  0
 47 52  1  0
 48 56  1  0
 48 58  1  0
 49 55  1  0
 49 51  1  0
 50 56  1  0
 51 52  2  0
 51 50  1  0
 53 47  2  0
 54 53  1  0
 54 49  2  0
 55 48  1  0
 56 46  1  0
 58 60  2  0
 59 58  1  0
 61 59  1  0
 62 71  2  0
 62 67  1  0
 63 59  1  0
 63 67  1  0
 64 63  1  0
 65 66  1  0
 65 64  1  0
 66 62  1  0
 67 68  2  0
 68 69  1  0
 70 69  2  0
 71 70  1  0
 72 46  1  0
 72 77  1  0
 72 73  1  0
 73 76  1  1
 73 74  1  0
 75 73  1  0
 77 80  1  0
 78 82  1  0
 78 77  1  0
 79 78  2  0
 82 81  1  0
 84 82  1  0
 84 85  1  0
 84 83  1  0
M  ISO  4   6 100  14 100  44 101  45 101
M  END
>  <TORSDO>  (52) 
F 20

>  <SCORE>  (52) 
-13.532

>  <name>  (52) 
51

>  <ligand_id>  (52) 
51

>  <original_smiles>  (52) 
[H]C(=C([H])C([H])([H])C([H])([H])C([H])([H])N([H])C(=O)N1C([H])([H])C([H])([H])C([H])([H])C([H])(n2nc(-c3c([H])c([H])c(Oc4c([H])c([H])c(F)c([H])c4F)c([H])c3[H])c(C(=O)N([H])[H])c2N([H])[H])C1([H])[H])C([H])([H])Oc1c([H])c([H])c2c(c1[H])C([H])([H])N(C(=O)C([H])(N([H])C(=O)C([H])(N([H])C([H])([H])[H])C([H])([H])[H])C(C([H])([H])[H])(C([H])([H])[H])C([H])([H])[H])C([H])(C(=O)N([H])C1([H])c3c([H])c([H])c([H])c([H])c3C([H])([H])C([H])([H])C1([H])[H])C2([H])[H]

>  <smiles>  (52) 
[H]C(=C([H])C([H])([H])C([H])([H])C([H])([H])N([H])C(=O)N1C([H])([H])C([H])([H])C([H])([H])C([H])(n2nc(-c3c([H])c([H])c(Oc4c([H])c([H])c(F)c([H])c4F)c([H])c3[H])c(C(=O)N([H])[H])c2N([H])[H])C1([H])[H])C([H])([H])Oc1c([H])c([H])c2c(c1[H])C([H])([H])N(C(=O)C([H])(N([H])C(=O)C([H])(N([H])C([H])([H])[H])C([H])([H])[H])C(C([H])([H])[H])(C([H])([H])[H])C([H])([H])[H])C([H])(C(=O)N([H])C1([H])c3c([H])c([H])c([H])c([H])c3C([H])([H])C([H])([H])C1([H])[H])C2([H])[H]

$$$$
52:0:0
     RDKit          3D

 93101  0  0  1  0  0  0  0  0999 V2000
  -31.1240  -17.8940   20.3300 C   0  0  0  0  0  3  0  0  0  0  0  0
  -28.7340  -19.3660   20.3370 C   0  0  0  0  0  3  0  0  0  0  0  0
  -29.9060  -17.1730   20.4150 C   0  0  0  0  0  0  0  0  0  0  0  0
  -29.9500  -20.0950   20.2860 C   0  0  0  0  0  0  0  0  0  0  0  0
  -31.1540  -19.3290   20.2610 C   0  0  0  0  0  0  0  0  0  0  0  0
  -28.7180  -17.9420   20.3980 C   0  0  0  0  0  0  0  0  0  0  0  0
  -27.5300  -17.2920   20.4430 F   0  0  0  0  0  0  0  0  0  0  0  0
  -30.5640  -14.6690   20.1880 C   0  0  0  0  0  0  0  0  0  0  0  0
  -30.2940  -12.4590   19.1020 C   0  0  0  0  0  2  0  0  0  0  0  0
  -29.3120  -12.6260   17.9210 C   0  0  0  0  0  2  0  0  0  0  0  0
  -27.8520  -12.4780   18.3960 C   0  0  0  0  0  2  0  0  0  0  0  0
  -27.5420  -13.3190   19.6620 C   0  0  0  0  0  3  0  0  0  0  0  0
  -28.6370  -13.1250   20.7370 C   0  0  0  0  0  2  0  0  0  0  0  0
  -29.9320  -13.4580   20.1220 N   0  0  0  0  0  0  0  0  0  0  0  0
  -31.7210  -14.8160   19.7850 O   0  0  0  0  0  0  0  0  0  0  0  0
  -29.7700  -15.7240   20.5370 N   0  0  0  0  0  0  0  0  0  0  0  0
  -28.8440  -15.4420   20.8190 H   0  0  0  0  0  0  0  0  0  0  0  0
  -25.1720  -13.9230   20.4550 C   0  0  0  0  0  0  0  0  0  0  0  0
  -24.1110  -13.1530   20.8440 C   0  0  0  0  0  0  0  0  0  0  0  0
  -24.5650  -11.7990   20.7860 C   0  0  0  0  0  0  0  0  0  0  0  0
  -26.2060  -13.0410   20.1840 N   0  0  0  0  0  0  0  0  0  0  0  0
  -25.8460  -11.7570   20.4410 N   0  0  0  0  0  0  0  0  0  0  0  0
  -23.8360  -10.5400   20.9830 C   0  0  0  0  0  0  0  0  0  0  0  0
  -24.2780   -9.5660   21.9060 C   0  0  0  0  0  3  0  0  0  0  0  0
  -23.5490   -8.3710   22.0890 C   0  0  0  0  0  3  0  0  0  0  0  0
  -22.3640   -8.1420   21.3500 C   0  0  0  0  0  0  0  0  0  0  0  0
  -21.9410   -9.1040   20.4170 C   0  0  0  0  0  3  0  0  0  0  0  0
  -22.6710  -10.2910   20.2310 C   0  0  0  0  0  3  0  0  0  0  0  0
  -21.6050   -7.0000   21.4450 O   0  0  0  0  0  0  0  0  0  0  0  0
  -21.5530   -6.2650   22.6020 C   0  0  0  0  0  0  0  0  0  0  0  0
  -21.1100   -6.8230   23.8210 C   0  0  0  0  0  3  0  0  0  0  0  0
  -21.0060   -6.0130   24.9700 C   0  0  0  0  0  3  0  0  0  0  0  0
  -21.3340   -4.6460   24.9010 C   0  0  0  0  0  0  0  0  0  0  0  0
  -21.7700   -4.0870   23.6860 C   0  0  0  0  0  3  0  0  0  0  0  0
  -21.8760   -4.8930   22.5390 C   0  0  0  0  0  0  0  0  0  0  0  0
  -22.2770   -4.3450   21.3670 F   0  0  0  0  0  0  0  0  0  0  0  0
  -21.2260   -3.8670   26.0010 F   0  0  0  0  0  0  0  0  0  0  0  0
  -22.7250  -13.6360   21.1610 C   0  0  0  0  0  0  0  0  0  0  0  0
  -22.0170  -12.9350   22.0410 N   0  0  0  0  0  0  0  0  0  0  0  0
  -22.2780  -14.6690   20.6670 O   0  0  0  0  0  0  0  0  0  0  0  0
  -22.3900  -12.0970   22.4630 H   0  0  0  0  0  0  0  0  0  0  0  0
  -21.0890  -13.2410   22.2980 H   0  0  0  0  0  0  0  0  0  0  0  0
  -25.3390  -15.2960   20.2950 N   0  0  0  0  0  0  0  0  0  0  0  0
  -24.5830  -15.9480   20.4730 H   0  0  0  0  0  0  0  0  0  0  0  0
  -26.2030  -15.7640   20.0520 H   0  0  0  0  0  0  0  0  0  0  0  0
  -33.5260  -19.3260   19.8710 C   0  0  0  0  0  1  0  0  0  0  0  0
  -32.3320  -20.0430   20.1720 O   0  0  0  0  0  0  0  0  0  0  0  0
  -30.0310  -21.5290   20.2590 N   0  0  0  0  0  0  0  0  0  0  0  0
  -30.9730  -21.9020   20.1470 H   0  0  0  0  0  0  0  0  0  0  0  0
  -28.8980  -22.4940   20.1420 C   0  0  0  0  0  2  0  0  0  0  0  0
  -29.2740  -24.0420   20.2660 C   0  0  0  0  0  3  0  0  0  0  0  0
  -28.1510  -25.1000   19.8840 C   0  0  0  0  0  3  0  0  0  0  0  0
  -28.3470  -26.5420   20.1540 O   0  0  0  0  0  0  0  0  0  0  0  0
  -24.5800  -31.8630   23.2460 C   0  0  0  0  0  0  0  0  0  0  0  0
  -27.2140  -27.3750   20.1160 C   0  0  0  0  0  0  0  0  0  0  0  0
  -23.3800  -30.4900   21.5820 C   0  0  0  0  0  3  0  0  0  0  0  0
  -24.8350  -28.9680   20.1350 C   0  0  0  0  0  0  0  0  0  0  0  0
  -25.9170  -30.8220   21.4050 C   0  0  0  0  0  2  0  0  0  0  0  0
  -26.0020  -29.4560   20.7350 C   0  0  0  0  0  0  0  0  0  0  0  0
  -27.1930  -28.6720   20.7160 C   0  0  0  0  0  3  0  0  0  0  0  0
  -26.0170  -26.9380   19.4990 C   0  0  0  0  0  3  0  0  0  0  0  0
  -24.8430  -27.7110   19.5120 C   0  0  0  0  0  3  0  0  0  0  0  0
  -23.5970  -29.8360   20.1920 C   0  0  0  0  0  2  0  0  0  0  0  0
  -24.6440  -31.0730   22.1360 N   0  0  0  0  0  0  0  0  0  0  0  0
  -23.4970  -32.1340   23.7830 O   0  0  0  0  0  0  0  0  0  0  0  0
  -22.7190  -29.4570   22.5250 C   0  0  0  0  0  0  0  0  0  0  0  0
  -21.3930  -29.2880   22.4000 N   0  0  0  0  0  0  0  0  0  0  0  0
  -23.3990  -28.8120   23.3280 O   0  0  0  0  0  0  0  0  0  0  0  0
  -20.9060  -29.8640   21.7270 H   0  0  0  0  0  0  0  0  0  0  0  0
  -18.0080  -28.1110   22.9000 C   0  0  0  0  0  0  0  0  0  0  0  0
  -20.5710  -28.3410   23.1550 C   0  0  0  0  0  3  0  0  0  0  0  0
  -20.6550  -26.9210   22.5480 C   0  0  0  0  0  2  0  0  0  0  0  0
  -19.5420  -26.6300   21.5350 C   0  0  0  0  0  2  0  0  0  0  0  0
  -18.1660  -26.7740   22.1940 C   0  0  0  0  0  2  0  0  0  0  0  0
  -19.1380  -28.8520   23.3370 C   0  0  0  0  0  0  0  0  0  0  0  0
  -18.9370  -30.1030   23.9600 C   0  0  0  0  0  3  0  0  0  0  0  0
  -17.6390  -30.6140   24.1480 C   0  0  0  0  0  3  0  0  0  0  0  0
  -16.5240  -29.8670   23.7270 C   0  0  0  0  0  3  0  0  0  0  0  0
  -16.7090  -28.6170   23.1100 C   0  0  0  0  0  3  0  0  0  0  0  0
  -25.8640  -32.4860   23.8780 C   0  0  0  0  0  3  0  0  0  0  0  0
  -25.5570  -33.8820   24.2210 N   0  0  0  0  0  0  0  0  0  0  0  0
  -25.8660  -34.9390   23.4580 C   0  0  0  0  0  0  0  0  0  0  0  0
  -26.5090  -34.8420   22.4100 O   0  0  0  0  0  0  0  0  0  0  0  0
  -24.9790  -34.0300   25.0350 H   0  0  0  0  0  0  0  0  0  0  0  0
  -24.1140  -36.7190   23.1620 C   0  0  0  0  0  1  0  0  0  0  0  0
  -25.3840  -36.3250   23.9320 C   0  0  0  0  0  3  0  0  0  0  0  0
  -27.5380  -37.2300   24.6900 C   0  0  0  0  0  1  0  0  0  0  0  0
  -26.4050  -37.3860   23.7810 N   0  0  0  0  0  0  0  0  0  0  0  0
  -25.9970  -38.3040   23.9390 H   0  0  0  0  0  0  0  0  0  0  0  0
  -26.3730  -31.7020   25.1510 C   0  0  1  0  0  0  0  0  0  0  0  0
  -25.2710  -31.4600   26.2110 C   0  0  0  0  0  1  0  0  0  0  0  0
  -26.9530  -30.3260   24.7510 C   0  0  0  0  0  1  0  0  0  0  0  0
  -27.5230  -32.4870   25.8240 C   0  0  0  0  0  1  0  0  0  0  0  0
  1  3  1  0
  2  6  1  0
  3 16  1  0
  4  2  2  0
  5  4  1  0
  5  1  2  0
  6  3  2  0
  6  7  1  0
  8 16  1  0
  9 14  1  0
 10 11  1  0
 10  9  1  0
 12 11  1  0
 12 21  1  0
 12 13  1  0
 14  8  1  0
 14 13  1  0
 15  8  2  0
 16 17  1  0
 18 19  2  0
 19 38  1  0
 20 19  1  0
 20 23  1  0
 21 22  1  0
 21 18  1  0
 22 20  2  0
 23 24  1  0
 24 25  2  0
 26 29  1  0
 26 25  1  0
 27 26  2  0
 28 27  1  0
 28 23  2  0
 29 30  1  0
 30 31  1  0
 31 32  2  0
 33 32  1  0
 33 37  1  0
 34 33  2  0
 35 30  2  0
 35 34  1  0
 36 35  1  0
 38 39  1  0
 39 42  1  0
 39 41  1  0
 40 38  2  0
 43 18  1  0
 43 44  1  0
 45 43  1  0
 46 47  1  0
 47  5  1  0
 48  4  1  0
 49 48  1  0
 50 48  1  0
 50 51  1  0
 52 53  1  0
 52 51  2  0
 54 65  2  0
 55 53  1  0
 55 60  1  0
 56 64  1  0
 56 66  1  0
 57 63  1  0
 57 59  1  0
 58 64  1  0
 59 58  1  0
 60 59  2  0
 61 62  1  0
 61 55  2  0
 62 57  2  0
 63 56  1  0
 64 54  1  0
 66 68  2  0
 67 66  1  0
 69 67  1  0
 70 79  2  0
 70 75  1  0
 71 67  1  0
 71 75  1  0
 72 71  1  0
 73 74  1  0
 73 72  1  0
 74 70  1  0
 75 76  2  0
 76 77  1  0
 78 77  2  0
 79 78  1  0
 80 54  1  0
 80 81  1  0
 80 90  1  0
 81 84  1  0
 82 86  1  0
 82 81  1  0
 83 82  2  0
 86 85  1  0
 88 86  1  0
 88 89  1  0
 88 87  1  0
 90 93  1  1
 90 91  1  0
 92 90  1  0
M  ISO  4   8 100  16 100  52 101  53 101
M  END
>  <TORSDO>  (53) 
F 21

>  <SCORE>  (53) 
-13.766

>  <name>  (53) 
52

>  <ligand_id>  (53) 
52

>  <original_smiles>  (53) 
[H]c1c([H])c([H])c2c(c1[H])C([H])([H])C([H])([H])C([H])([H])C2([H])N([H])C(=O)C1([H])N(C(=O)C([H])(N([H])C(=O)C([H])(N([H])C([H])([H])[H])C([H])([H])[H])C(C([H])([H])[H])(C([H])([H])[H])C([H])([H])[H])C([H])([H])c2c([H])c(OC([H])([H])C([H])([H])C([H])([H])N([H])c3c([H])c(F)c(N([H])C(=O)N4C([H])([H])C([H])([H])C([H])([H])C([H])(n5nc(-c6c([H])c([H])c(Oc7c([H])c([H])c(F)c([H])c7F)c([H])c6[H])c(C(=O)N([H])[H])c5N([H])[H])C4([H])[H])c([H])c3OC([H])([H])[H])c([H])c([H])c2C1([H])[H]

>  <smiles>  (53) 
[H]c1c([H])c([H])c2c(c1[H])C([H])([H])C([H])([H])C([H])([H])C2([H])N([H])C(=O)C1([H])N(C(=O)C([H])(N([H])C(=O)C([H])(N([H])C([H])([H])[H])C([H])([H])[H])C(C([H])([H])[H])(C([H])([H])[H])C([H])([H])[H])C([H])([H])c2c([H])c(OC([H])([H])C([H])([H])C([H])([H])N([H])c3c([H])c(F)c(N([H])C(=O)N4C([H])([H])C([H])([H])C([H])([H])C([H])(n5nc(-c6c([H])c([H])c(Oc7c([H])c([H])c(F)c([H])c7F)c([H])c6[H])c(C(=O)N([H])[H])c5N([H])[H])C4([H])[H])c([H])c3OC([H])([H])[H])c([H])c([H])c2C1([H])[H]

$$$$
53:0:0
     RDKit          3D

 91 99  0  0  1  0  0  0  0  0999 V2000
  -28.9330  -23.2890   20.2810 C   0  0  0  0  0  0  0  0  0  0  0  0
  -28.6670  -21.8680   20.4380 N   0  0  0  0  0  0  0  0  0  0  0  0
  -30.0910  -23.6530   20.0710 O   0  0  0  0  0  0  0  0  0  0  0  0
  -27.6740  -21.6870   20.3910 H   0  0  0  0  0  0  0  0  0  0  0  0
  -31.5600  -19.4770   21.5900 C   0  0  0  0  0  3  0  0  0  0  0  0
  -31.2130  -18.1700   21.1990 C   0  0  0  0  0  3  0  0  0  0  0  0
  -29.1560  -19.1170   20.3400 C   0  0  0  0  0  3  0  0  0  0  0  0
  -30.7400  -20.6180   21.3990 C   0  0  0  0  0  0  0  0  0  0  0  0
  -29.9770  -17.8690   20.5980 C   0  0  0  0  0  0  0  0  0  0  0  0
  -29.5090  -20.5540   20.6730 C   0  0  0  0  0  0  0  0  0  0  0  0
  -31.2340  -21.8730   22.1020 C   0  0  0  0  0  1  0  0  0  0  0  0
  -30.4590  -15.1360   20.3120 C   0  0  0  0  0  0  0  0  0  0  0  0
  -30.3770  -12.7650   19.3550 C   0  0  0  0  0  2  0  0  0  0  0  0
  -29.4320  -12.6650   18.1360 C   0  0  0  0  0  2  0  0  0  0  0  0
  -27.9830  -12.4120   18.5950 C   0  0  0  0  0  2  0  0  0  0  0  0
  -27.5650  -13.3360   19.7670 C   0  0  0  0  0  3  0  0  0  0  0  0
  -28.6350  -13.4000   20.8760 C   0  0  0  0  0  2  0  0  0  0  0  0
  -29.8740  -13.8630   20.2370 N   0  0  0  0  0  0  0  0  0  0  0  0
  -31.6740  -15.1730   20.0740 O   0  0  0  0  0  0  0  0  0  0  0  0
  -29.6720  -16.3490   20.3880 N   0  0  0  0  0  0  0  0  0  0  0  0
  -28.6850  -16.1470   20.3390 H   0  0  0  0  0  0  0  0  0  0  0  0
  -25.1960  -13.8710   20.5600 C   0  0  0  0  0  0  0  0  0  0  0  0
  -24.1460  -13.0780   20.9320 C   0  0  0  0  0  0  0  0  0  0  0  0
  -24.6260  -11.7330   20.8720 C   0  0  0  0  0  0  0  0  0  0  0  0
  -26.2430  -13.0090   20.2870 N   0  0  0  0  0  0  0  0  0  0  0  0
  -25.9120  -11.7160   20.5420 N   0  0  0  0  0  0  0  0  0  0  0  0
  -23.9130  -10.4600   21.0490 C   0  0  0  0  0  0  0  0  0  0  0  0
  -24.3510   -9.4930   21.9800 C   0  0  0  0  0  3  0  0  0  0  0  0
  -23.6370   -8.2860   22.1470 C   0  0  0  0  0  3  0  0  0  0  0  0
  -22.4710   -8.0390   21.3830 C   0  0  0  0  0  0  0  0  0  0  0  0
  -22.0530   -8.9970   20.4420 C   0  0  0  0  0  3  0  0  0  0  0  0
  -22.7680  -10.1950   20.2730 C   0  0  0  0  0  3  0  0  0  0  0  0
  -21.7280   -6.8860   21.4590 O   0  0  0  0  0  0  0  0  0  0  0  0
  -21.6610   -6.1490   22.6140 C   0  0  0  0  0  0  0  0  0  0  0  0
  -21.1570   -6.6910   23.8160 C   0  0  0  0  0  3  0  0  0  0  0  0
  -21.0400   -5.8770   24.9600 C   0  0  0  0  0  3  0  0  0  0  0  0
  -21.4190   -4.5230   24.9040 C   0  0  0  0  0  0  0  0  0  0  0  0
  -21.9150   -3.9800   23.7060 C   0  0  0  0  0  3  0  0  0  0  0  0
  -22.0330   -4.7900   22.5640 C   0  0  0  0  0  0  0  0  0  0  0  0
  -22.4930   -4.2560   21.4070 F   0  0  0  0  0  0  0  0  0  0  0  0
  -21.3000   -3.7380   26.0010 F   0  0  0  0  0  0  0  0  0  0  0  0
  -22.7480  -13.5370   21.2270 C   0  0  0  0  0  0  0  0  0  0  0  0
  -22.0400  -12.8260   22.0960 N   0  0  0  0  0  0  0  0  0  0  0  0
  -22.2930  -14.5620   20.7210 O   0  0  0  0  0  0  0  0  0  0  0  0
  -22.4210  -11.9970   22.5270 H   0  0  0  0  0  0  0  0  0  0  0  0
  -21.1020  -13.1160   22.3360 H   0  0  0  0  0  0  0  0  0  0  0  0
  -25.3380  -15.2460   20.4010 N   0  0  0  0  0  0  0  0  0  0  0  0
  -24.5580  -15.8820   20.5320 H   0  0  0  0  0  0  0  0  0  0  0  0
  -26.1580  -15.7020   20.0220 H   0  0  0  0  0  0  0  0  0  0  0  0
  -27.8140  -24.5490   20.2470 C   0  0  0  0  0  2  0  0  0  0  0  0
  -28.1720  -26.1020   20.2810 O   0  0  0  0  0  0  0  0  0  0  0  0
  -24.6290  -31.9340   23.2550 C   0  0  0  0  0  0  0  0  0  0  0  0
  -27.1510  -27.1430   20.2240 C   0  0  0  0  0  0  0  0  0  0  0  0
  -23.4190  -30.5520   21.6150 C   0  0  0  0  0  3  0  0  0  0  0  0
  -24.8530  -28.9590   20.1870 C   0  0  0  0  0  0  0  0  0  0  0  0
  -25.9800  -30.7750   21.4570 C   0  0  0  0  0  2  0  0  0  0  0  0
  -26.0400  -29.3780   20.8010 C   0  0  0  0  0  0  0  0  0  0  0  0
  -27.1900  -28.4890   20.8000 C   0  0  0  0  0  3  0  0  0  0  0  0
  -25.9370  -26.8490   19.5640 C   0  0  0  0  0  3  0  0  0  0  0  0
  -24.8180  -27.7100   19.5510 C   0  0  0  0  0  3  0  0  0  0  0  0
  -23.6380  -29.8750   20.2350 C   0  0  0  0  0  2  0  0  0  0  0  0
  -24.6970  -31.1100   22.1640 N   0  0  0  0  0  0  0  0  0  0  0  0
  -23.5450  -32.2290   23.7810 O   0  0  0  0  0  0  0  0  0  0  0  0
  -22.7250  -29.5530   22.5750 C   0  0  0  0  0  0  0  0  0  0  0  0
  -21.3960  -29.3900   22.4440 N   0  0  0  0  0  0  0  0  0  0  0  0
  -23.3880  -28.9240   23.4050 O   0  0  0  0  0  0  0  0  0  0  0  0
  -20.9170  -29.9490   21.7520 H   0  0  0  0  0  0  0  0  0  0  0  0
  -18.0080  -28.2080   22.9460 C   0  0  0  0  0  0  0  0  0  0  0  0
  -20.5680  -28.4590   23.2140 C   0  0  0  0  0  3  0  0  0  0  0  0
  -20.6610  -27.0250   22.6450 C   0  0  0  0  0  2  0  0  0  0  0  0
  -19.5610  -26.7050   21.6290 C   0  0  0  0  0  2  0  0  0  0  0  0
  -18.1790  -26.8570   22.2700 C   0  0  0  0  0  2  0  0  0  0  0  0
  -19.1290  -28.9660   23.3750 C   0  0  0  0  0  0  0  0  0  0  0  0
  -18.9140  -30.2270   23.9710 C   0  0  0  0  0  3  0  0  0  0  0  0
  -17.6110  -30.7340   24.1370 C   0  0  0  0  0  3  0  0  0  0  0  0
  -16.5040  -29.9740   23.7220 C   0  0  0  0  0  3  0  0  0  0  0  0
  -16.7030  -28.7120   23.1330 C   0  0  0  0  0  3  0  0  0  0  0  0
  -25.9110  -32.5610   23.8830 C   0  0  0  0  0  3  0  0  0  0  0  0
  -25.6080  -33.9610   24.2220 N   0  0  0  0  0  0  0  0  0  0  0  0
  -25.9080  -35.0170   23.4550 C   0  0  0  0  0  0  0  0  0  0  0  0
  -26.5360  -34.9160   22.3980 O   0  0  0  0  0  0  0  0  0  0  0  0
  -25.0450  -34.1120   25.0470 H   0  0  0  0  0  0  0  0  0  0  0  0
  -24.1550  -36.8060   23.1930 C   0  0  0  0  0  1  0  0  0  0  0  0
  -25.4410  -36.4070   23.9350 C   0  0  0  0  0  3  0  0  0  0  0  0
  -27.6070  -37.3140   24.6520 C   0  0  0  0  0  1  0  0  0  0  0  0
  -26.4600  -37.4640   23.7610 N   0  0  0  0  0  0  0  0  0  0  0  0
  -26.0560  -38.3840   23.9200 H   0  0  0  0  0  0  0  0  0  0  0  0
  -26.4180  -31.7850   25.1620 C   0  0  1  0  0  0  0  0  0  0  0  0
  -25.3190  -31.5500   26.2260 C   0  0  0  0  0  1  0  0  0  0  0  0
  -26.9950  -30.4040   24.7770 C   0  0  0  0  0  1  0  0  0  0  0  0
  -27.5690  -32.5720   25.8280 C   0  0  0  0  0  1  0  0  0  0  0  0
  1  2  1  0
  2 10  1  0
  3  1  2  0
  4  2  1  0
  6  5  2  0
  7  9  2  0
  7 10  1  0
  8  5  1  0
  8 11  1  0
  9  6  1  0
 10  8  2  0
 12 20  1  0
 13 18  1  0
 14 15  1  0
 14 13  1  0
 16 15  1  0
 16 25  1  0
 16 17  1  0
 18 12  1  0
 18 17  1  0
 19 12  2  0
 20  9  1  0
 21 20  1  0
 22 23  2  0
 23 42  1  0
 24 23  1  0
 24 27  1  0
 25 26  1  0
 25 22  1  0
 26 24  2  0
 27 28  1  0
 28 29  2  0
 30 33  1  0
 30 29  1  0
 31 30  2  0
 32 31  1  0
 32 27  2  0
 33 34  1  0
 34 35  1  0
 35 36  2  0
 37 36  1  0
 37 41  1  0
 38 37  2  0
 39 34  2  0
 39 38  1  0
 40 39  1  0
 42 43  1  0
 43 46  1  0
 43 45  1  0
 44 42  2  0
 47 48  1  0
 47 22  1  0
 49 47  1  0
 50  1  1  0
 50 51  1  0
 52 63  2  0
 53 51  1  0
 53 58  1  0
 54 62  1  0
 54 64  1  0
 55 61  1  0
 55 57  1  0
 56 62  1  0
 57 56  1  0
 58 57  2  0
 59 53  2  0
 60 59  1  0
 60 55  2  0
 61 54  1  0
 62 52  1  0
 64 66  2  0
 65 64  1  0
 67 65  1  0
 68 77  2  0
 68 73  1  0
 69 65  1  0
 69 73  1  0
 70 69  1  0
 71 72  1  0
 71 70  1  0
 72 68  1  0
 73 74  2  0
 74 75  1  0
 76 75  2  0
 77 76  1  0
 78 52  1  0
 78 79  1  0
 78 88  1  0
 79 82  1  0
 80 84  1  0
 80 79  1  0
 81 80  2  0
 84 83  1  0
 86 87  1  0
 86 84  1  0
 86 85  1  0
 88 91  1  1
 88 89  1  0
 90 88  1  0
M  ISO  4  12 100  20 100  50 101  51 101
M  END
>  <TORSDO>  (54) 
F 18

>  <SCORE>  (54) 
-14.874

>  <name>  (54) 
53

>  <ligand_id>  (54) 
53

>  <original_smiles>  (54) 
[H]c1c([H])c([H])c2c(c1[H])C([H])([H])C([H])([H])C([H])([H])C2([H])N([H])C(=O)C1([H])N(C(=O)C([H])(N([H])C(=O)C([H])(N([H])C([H])([H])[H])C([H])([H])[H])C(C([H])([H])[H])(C([H])([H])[H])C([H])([H])[H])C([H])([H])c2c([H])c(OC([H])([H])C(=O)N([H])c3c([H])c(N([H])C(=O)N4C([H])([H])C([H])([H])C([H])([H])C([H])(n5nc(-c6c([H])c([H])c(Oc7c([H])c([H])c(F)c([H])c7F)c([H])c6[H])c(C(=O)N([H])[H])c5N([H])[H])C4([H])[H])c([H])c([H])c3C([H])([H])[H])c([H])c([H])c2C1([H])[H]

>  <smiles>  (54) 
[H]c1c([H])c([H])c2c(c1[H])C([H])([H])C([H])([H])C([H])([H])C2([H])N([H])C(=O)C1([H])N(C(=O)C([H])(N([H])C(=O)C([H])(N([H])C([H])([H])[H])C([H])([H])[H])C(C([H])([H])[H])(C([H])([H])[H])C([H])([H])[H])C([H])([H])c2c([H])c(OC([H])([H])C(=O)N([H])c3c([H])c(N([H])C(=O)N4C([H])([H])C([H])([H])C([H])([H])C([H])(n5nc(-c6c([H])c([H])c(Oc7c([H])c([H])c(F)c([H])c7F)c([H])c6[H])c(C(=O)N([H])[H])c5N([H])[H])C4([H])[H])c([H])c([H])c3C([H])([H])[H])c([H])c([H])c2C1([H])[H]

$$$$
54:0:0
     RDKit          3D

 92100  0  0  1  0  0  0  0  0999 V2000
  -28.8600  -22.4790   20.1720 C   0  0  0  0  0  0  0  0  0  0  0  0
  -29.8500  -21.5370   20.2620 N   0  0  0  0  0  0  0  0  0  0  0  0
  -27.6840  -22.1670   19.9720 O   0  0  0  0  0  0  0  0  0  0  0  0
  -30.7770  -21.9330   20.3270 H   0  0  0  0  0  0  0  0  0  0  0  0
  -31.0270  -19.3400   20.1400 C   0  0  0  0  0  3  0  0  0  0  0  0
  -31.0810  -17.9150   20.2060 C   0  0  0  0  0  3  0  0  0  0  0  0
  -28.6460  -19.2890   20.4840 C   0  0  0  0  0  3  0  0  0  0  0  0
  -29.8130  -20.0710   20.2750 C   0  0  0  0  0  0  0  0  0  0  0  0
  -29.9110  -17.1420   20.4250 C   0  0  0  0  0  0  0  0  0  0  0  0
  -28.6990  -17.8680   20.5590 C   0  0  0  0  0  0  0  0  0  0  0  0
  -27.5540  -17.1750   20.7700 F   0  0  0  0  0  0  0  0  0  0  0  0
  -30.6110  -14.6660   20.0610 C   0  0  0  0  0  0  0  0  0  0  0  0
  -30.3240  -12.4760   18.9270 C   0  0  0  0  0  2  0  0  0  0  0  0
  -29.3130  -12.6620   17.7740 C   0  0  0  0  0  2  0  0  0  0  0  0
  -27.8650  -12.4990   18.2800 C   0  0  0  0  0  2  0  0  0  0  0  0
  -27.5860  -13.3180   19.5680 C   0  0  0  0  0  3  0  0  0  0  0  0
  -28.7030  -13.0990   20.6140 C   0  0  0  0  0  2  0  0  0  0  0  0
  -29.9850  -13.4500   19.9810 N   0  0  0  0  0  0  0  0  0  0  0  0
  -31.7420  -14.8410   19.5970 O   0  0  0  0  0  0  0  0  0  0  0  0
  -29.8410  -15.6890   20.5390 N   0  0  0  0  0  0  0  0  0  0  0  0
  -28.9620  -15.3710   20.9160 H   0  0  0  0  0  0  0  0  0  0  0  0
  -25.2350  -13.9130   20.4230 C   0  0  0  0  0  0  0  0  0  0  0  0
  -24.1840  -13.1360   20.8290 C   0  0  0  0  0  0  0  0  0  0  0  0
  -24.6350  -11.7840   20.7400 C   0  0  0  0  0  0  0  0  0  0  0  0
  -26.2620  -13.0340   20.1160 N   0  0  0  0  0  0  0  0  0  0  0  0
  -25.9090  -11.7480   20.3640 N   0  0  0  0  0  0  0  0  0  0  0  0
  -23.9130  -10.5210   20.9380 C   0  0  0  0  0  0  0  0  0  0  0  0
  -24.3490   -9.5590   21.8760 C   0  0  0  0  0  3  0  0  0  0  0  0
  -23.6270   -8.3610   22.0590 C   0  0  0  0  0  3  0  0  0  0  0  0
  -22.4530   -8.1160   21.3060 C   0  0  0  0  0  0  0  0  0  0  0  0
  -22.0350   -9.0680   20.3600 C   0  0  0  0  0  3  0  0  0  0  0  0
  -22.7590  -10.2580   20.1740 C   0  0  0  0  0  3  0  0  0  0  0  0
  -21.7010   -6.9710   21.4000 O   0  0  0  0  0  0  0  0  0  0  0  0
  -21.6030   -6.2690   22.5750 C   0  0  0  0  0  0  0  0  0  0  0  0
  -21.1050   -6.8600   23.7570 C   0  0  0  0  0  3  0  0  0  0  0  0
  -20.9550   -6.0830   24.9230 C   0  0  0  0  0  3  0  0  0  0  0  0
  -21.2920   -4.7160   24.9080 C   0  0  0  0  0  0  0  0  0  0  0  0
  -21.7830   -4.1240   23.7310 C   0  0  0  0  0  3  0  0  0  0  0  0
  -21.9340   -4.8980   22.5670 C   0  0  0  0  0  0  0  0  0  0  0  0
  -22.3880   -4.3190   21.4290 F   0  0  0  0  0  0  0  0  0  0  0  0
  -21.1410   -3.9670   26.0250 F   0  0  0  0  0  0  0  0  0  0  0  0
  -22.8070  -13.6140   21.1890 C   0  0  0  0  0  0  0  0  0  0  0  0
  -22.1240  -12.9050   22.0810 N   0  0  0  0  0  0  0  0  0  0  0  0
  -22.3450  -14.6510   20.7140 O   0  0  0  0  0  0  0  0  0  0  0  0
  -22.5110  -12.0650   22.4880 H   0  0  0  0  0  0  0  0  0  0  0  0
  -21.2030  -13.2080   22.3630 H   0  0  0  0  0  0  0  0  0  0  0  0
  -25.3950  -15.2880   20.2780 N   0  0  0  0  0  0  0  0  0  0  0  0
  -24.6450  -15.9360   20.4870 H   0  0  0  0  0  0  0  0  0  0  0  0
  -26.2590  -15.7540   20.0330 H   0  0  0  0  0  0  0  0  0  0  0  0
  -29.2320  -24.0100   20.3100 C   0  0  0  0  0  3  0  0  0  0  0  0
  -28.1180  -25.0750   19.9290 C   0  0  0  0  0  3  0  0  0  0  0  0
  -28.3460  -26.5170   20.1790 O   0  0  0  0  0  0  0  0  0  0  0  0
  -24.6150  -31.8690   23.2600 C   0  0  0  0  0  0  0  0  0  0  0  0
  -27.2260  -27.3640   20.1360 C   0  0  0  0  0  0  0  0  0  0  0  0
  -23.4110  -30.4940   21.6030 C   0  0  0  0  0  3  0  0  0  0  0  0
  -24.8600  -28.9710   20.1540 C   0  0  0  0  0  0  0  0  0  0  0  0
  -25.9500  -30.8190   21.4230 C   0  0  0  0  0  2  0  0  0  0  0  0
  -26.0300  -29.4510   20.7570 C   0  0  0  0  0  0  0  0  0  0  0  0
  -27.2160  -28.6590   20.7390 C   0  0  0  0  0  3  0  0  0  0  0  0
  -26.0310  -26.9410   19.5060 C   0  0  0  0  0  3  0  0  0  0  0  0
  -24.8630  -27.7210   19.5210 C   0  0  0  0  0  3  0  0  0  0  0  0
  -23.6240  -29.8430   20.2130 C   0  0  0  0  0  2  0  0  0  0  0  0
  -24.6780  -31.0760   22.1520 N   0  0  0  0  0  0  0  0  0  0  0  0
  -23.5310  -32.1390   23.7990 O   0  0  0  0  0  0  0  0  0  0  0  0
  -22.7510  -29.4610   22.5480 C   0  0  0  0  0  0  0  0  0  0  0  0
  -21.4260  -29.2830   22.4170 N   0  0  0  0  0  0  0  0  0  0  0  0
  -23.4300  -28.8230   23.3570 O   0  0  0  0  0  0  0  0  0  0  0  0
  -20.9360  -29.8490   21.7380 H   0  0  0  0  0  0  0  0  0  0  0  0
  -18.0450  -28.0970   22.9120 C   0  0  0  0  0  0  0  0  0  0  0  0
  -20.6060  -28.3370   23.1760 C   0  0  0  0  0  3  0  0  0  0  0  0
  -20.6980  -26.9150   22.5750 C   0  0  0  0  0  2  0  0  0  0  0  0
  -19.5890  -26.6160   21.5620 C   0  0  0  0  0  2  0  0  0  0  0  0
  -18.2110  -26.7570   22.2150 C   0  0  0  0  0  2  0  0  0  0  0  0
  -19.1690  -28.8440   23.3510 C   0  0  0  0  0  0  0  0  0  0  0  0
  -18.9600  -30.0990   23.9650 C   0  0  0  0  0  3  0  0  0  0  0  0
  -17.6580  -30.6040   24.1450 C   0  0  0  0  0  3  0  0  0  0  0  0
  -16.5480  -29.8520   23.7220 C   0  0  0  0  0  3  0  0  0  0  0  0
  -16.7430  -28.6000   23.1120 C   0  0  0  0  0  3  0  0  0  0  0  0
  -25.8980  -32.4930   23.8910 C   0  0  0  0  0  3  0  0  0  0  0  0
  -26.4020  -31.7150   25.1690 C   0  0  1  0  0  0  0  0  0  0  0  0
  -25.3010  -31.4810   26.2290 C   0  0  0  0  0  1  0  0  0  0  0  0
  -26.9820  -30.3360   24.7770 C   0  0  0  0  0  1  0  0  0  0  0  0
  -27.5530  -32.5020   25.8390 C   0  0  0  0  0  1  0  0  0  0  0  0
  -25.5940  -33.8910   24.2220 N   0  0  0  0  0  0  0  0  0  0  0  0
  -25.9140  -34.9420   23.4550 C   0  0  0  0  0  0  0  0  0  0  0  0
  -26.5670  -34.8350   22.4130 O   0  0  0  0  0  0  0  0  0  0  0  0
  -25.0100  -34.0480   25.0320 H   0  0  0  0  0  0  0  0  0  0  0  0
  -24.1690  -36.7260   23.1380 C   0  0  0  0  0  1  0  0  0  0  0  0
  -25.4340  -36.3330   23.9160 C   0  0  0  0  0  3  0  0  0  0  0  0
  -27.5850  -37.2360   24.6830 C   0  0  0  0  0  1  0  0  0  0  0  0
  -26.4590  -37.3880   23.7660 N   0  0  0  0  0  0  0  0  0  0  0  0
  -26.0520  -38.3090   23.9130 H   0  0  0  0  0  0  0  0  0  0  0  0
  1  2  1  0
  1 50  1  0
  2  8  1  0
  2  4  1  0
  3  1  2  0
  5  6  2  0
  5  8  1  0
  6  9  1  0
  7 10  1  0
  8  7  2  0
  9 20  1  0
  9 10  2  0
 10 11  1  0
 12 20  1  0
 13 18  1  0
 14 15  1  0
 14 13  1  0
 16 15  1  0
 16 25  1  0
 16 17  1  0
 18 12  1  0
 18 17  1  0
 19 12  2  0
 20 21  1  0
 22 23  2  0
 23 42  1  0
 24 23  1  0
 24 27  1  0
 25 26  1  0
 25 22  1  0
 26 24  2  0
 27 28  1  0
 28 29  2  0
 30 33  1  0
 30 29  1  0
 31 30  2  0
 32 31  1  0
 32 27  2  0
 33 34  1  0
 34 35  1  0
 35 36  2  0
 37 36  1  0
 37 41  1  0
 38 37  2  0
 39 34  2  0
 39 38  1  0
 40 39  1  0
 42 43  1  0
 43 46  1  0
 43 45  1  0
 44 42  2  0
 47 22  1  0
 47 48  1  0
 49 47  1  0
 51 52  1  0
 51 50  2  0
 53 64  2  0
 54 52  1  0
 54 59  1  0
 55 63  1  0
 55 65  1  0
 56 62  1  0
 56 58  1  0
 57 63  1  0
 58 57  1  0
 59 58  2  0
 60 61  1  0
 60 54  2  0
 61 56  2  0
 62 55  1  0
 63 53  1  0
 65 67  2  0
 66 65  1  0
 68 66  1  0
 69 78  2  0
 69 74  1  0
 70 66  1  0
 70 74  1  0
 71 70  1  0
 72 73  1  0
 72 71  1  0
 73 69  1  0
 74 75  2  0
 75 76  1  0
 77 76  2  0
 78 77  1  0
 79 53  1  0
 79 84  1  0
 79 80  1  0
 80 83  1  1
 80 81  1  0
 82 80  1  0
 84 87  1  0
 85 89  1  0
 85 84  1  0
 86 85  2  0
 89 88  1  0
 91 92  1  0
 91 89  1  0
 91 90  1  0
M  ISO  4  12 100  20 100  51 101  52 101
M  END
>  <TORSDO>  (55) 
F 19

>  <SCORE>  (55) 
-14.241

>  <name>  (55) 
54

>  <ligand_id>  (55) 
54

>  <original_smiles>  (55) 
[H]c1c([H])c([H])c2c(c1[H])C([H])([H])C([H])([H])C([H])([H])C2([H])N([H])C(=O)C1([H])N(C(=O)C([H])(N([H])C(=O)C([H])(N([H])C([H])([H])[H])C([H])([H])[H])C(C([H])([H])[H])(C([H])([H])[H])C([H])([H])[H])C([H])([H])c2c([H])c(OC([H])([H])C([H])([H])C(=O)N([H])c3c([H])c([H])c(N([H])C(=O)N4C([H])([H])C([H])([H])C([H])([H])C([H])(n5nc(-c6c([H])c([H])c(Oc7c([H])c([H])c(F)c([H])c7F)c([H])c6[H])c(C(=O)N([H])[H])c5N([H])[H])C4([H])[H])c(F)c3[H])c([H])c([H])c2C1([H])[H]

>  <smiles>  (55) 
[H]c1c([H])c([H])c2c(c1[H])C([H])([H])C([H])([H])C([H])([H])C2([H])N([H])C(=O)C1([H])N(C(=O)C([H])(N([H])C(=O)C([H])(N([H])C([H])([H])[H])C([H])([H])[H])C(C([H])([H])[H])(C([H])([H])[H])C([H])([H])[H])C([H])([H])c2c([H])c(OC([H])([H])C([H])([H])C(=O)N([H])c3c([H])c([H])c(N([H])C(=O)N4C([H])([H])C([H])([H])C([H])([H])C([H])(n5nc(-c6c([H])c([H])c(Oc7c([H])c([H])c(F)c([H])c7F)c([H])c6[H])c(C(=O)N([H])[H])c5N([H])[H])C4([H])[H])c(F)c3[H])c([H])c([H])c2C1([H])[H]

$$$$
55:0:0
     RDKit          3D

 92100  0  0  1  0  0  0  0  0999 V2000
  -28.9080  -22.1840   20.3820 C   0  0  0  0  0  0  0  0  0  0  0  0
  -29.6230  -21.1860   18.2790 C   0  0  0  0  0  1  0  0  0  0  0  0
  -29.4240  -21.0450   19.7280 N   0  0  0  0  0  0  0  0  0  0  0  0
  -28.4170  -22.0980   21.5110 O   0  0  0  0  0  0  0  0  0  0  0  0
  -30.1100  -19.6250   21.7270 C   0  0  0  0  0  3  0  0  0  0  0  0
  -30.5420  -18.4230   22.3280 C   0  0  0  0  0  3  0  0  0  0  0  0
  -29.9560  -18.4480   19.6210 C   0  0  0  0  0  3  0  0  0  0  0  0
  -29.8100  -19.7160   20.3400 C   0  0  0  0  0  0  0  0  0  0  0  0
  -30.4200  -17.2050   20.2220 C   0  0  0  0  0  0  0  0  0  0  0  0
  -30.7160  -17.2350   21.5960 C   0  0  0  0  0  0  0  0  0  0  0  0
  -31.1320  -16.1130   22.2360 F   0  0  0  0  0  0  0  0  0  0  0  0
  -31.2330  -14.7940   19.7050 C   0  0  0  0  0  0  0  0  0  0  0  0
  -30.9340  -12.5160   18.7320 C   0  0  0  0  0  2  0  0  0  0  0  0
  -29.9120  -12.6260   17.5800 C   0  0  0  0  0  2  0  0  0  0  0  0
  -28.4670  -12.5350   18.1180 C   0  0  0  0  0  2  0  0  0  0  0  0
  -28.2150  -13.4410   19.3540 C   0  0  0  0  0  3  0  0  0  0  0  0
  -29.3420  -13.2930   20.3960 C   0  0  0  0  0  2  0  0  0  0  0  0
  -30.6020  -13.5770   19.7000 N   0  0  0  0  0  0  0  0  0  0  0  0
  -32.4350  -14.8880   19.4400 O   0  0  0  0  0  0  0  0  0  0  0  0
  -30.4010  -15.8860   19.5760 N   0  0  0  0  0  0  0  0  0  0  0  0
  -29.4640  -15.6050   19.3290 H   0  0  0  0  0  0  0  0  0  0  0  0
  -25.9270  -14.1660   20.2520 C   0  0  0  0  0  0  0  0  0  0  0  0
  -24.8410  -13.4540   20.6730 C   0  0  0  0  0  0  0  0  0  0  0  0
  -25.2160  -12.0750   20.5880 C   0  0  0  0  0  0  0  0  0  0  0  0
  -26.8950  -13.2300   19.9310 N   0  0  0  0  0  0  0  0  0  0  0  0
  -26.4780  -11.9650   20.1940 N   0  0  0  0  0  0  0  0  0  0  0  0
  -24.4310  -10.8550   20.7990 C   0  0  0  0  0  0  0  0  0  0  0  0
  -24.8090   -9.8860   21.7550 C   0  0  0  0  0  3  0  0  0  0  0  0
  -24.0220   -8.7310   21.9520 C   0  0  0  0  0  3  0  0  0  0  0  0
  -22.8450   -8.5350   21.1920 C   0  0  0  0  0  0  0  0  0  0  0  0
  -22.4860   -9.4920   20.2260 C   0  0  0  0  0  3  0  0  0  0  0  0
  -23.2720  -10.6380   20.0270 C   0  0  0  0  0  3  0  0  0  0  0  0
  -22.0370   -7.4310   21.2970 O   0  0  0  0  0  0  0  0  0  0  0  0
  -21.8710   -6.7700   22.4880 C   0  0  0  0  0  0  0  0  0  0  0  0
  -21.3810   -7.4230   23.6400 C   0  0  0  0  0  3  0  0  0  0  0  0
  -21.1610   -6.6910   24.8240 C   0  0  0  0  0  3  0  0  0  0  0  0
  -21.4190   -5.3080   24.8550 C   0  0  0  0  0  0  0  0  0  0  0  0
  -21.9010   -4.6540   23.7080 C   0  0  0  0  0  3  0  0  0  0  0  0
  -22.1220   -5.3830   22.5260 C   0  0  0  0  0  0  0  0  0  0  0  0
  -22.5660   -4.7450   21.4170 F   0  0  0  0  0  0  0  0  0  0  0  0
  -21.2000   -4.6030   25.9910 F   0  0  0  0  0  0  0  0  0  0  0  0
  -23.4940  -14.0050   21.0420 C   0  0  0  0  0  0  0  0  0  0  0  0
  -22.7930  -13.3490   21.9570 N   0  0  0  0  0  0  0  0  0  0  0  0
  -23.0790  -15.0560   20.5520 O   0  0  0  0  0  0  0  0  0  0  0  0
  -23.1430  -12.4970   22.3690 H   0  0  0  0  0  0  0  0  0  0  0  0
  -21.8920  -13.7040   22.2480 H   0  0  0  0  0  0  0  0  0  0  0  0
  -26.1630  -15.5300   20.0880 N   0  0  0  0  0  0  0  0  0  0  0  0
  -25.4510  -16.2250   20.2750 H   0  0  0  0  0  0  0  0  0  0  0  0
  -27.0060  -15.9300   19.7000 H   0  0  0  0  0  0  0  0  0  0  0  0
  -28.9120  -23.6710   19.7540 C   0  0  0  0  0  2  0  0  0  0  0  0
  -28.0160  -24.8470   20.4020 C   0  0  0  0  0  2  0  0  0  0  0  0
  -28.3700  -26.3110   20.2330 O   0  0  0  0  0  0  0  0  0  0  0  0
  -24.6550  -31.7630   23.2530 C   0  0  0  0  0  0  0  0  0  0  0  0
  -27.3060  -27.2360   20.1690 C   0  0  0  0  0  0  0  0  0  0  0  0
  -23.4830  -30.3720   21.5930 C   0  0  0  0  0  3  0  0  0  0  0  0
  -24.9570  -28.8740   20.1430 C   0  0  0  0  0  0  0  0  0  0  0  0
  -26.0210  -30.7210   21.4270 C   0  0  0  0  0  2  0  0  0  0  0  0
  -26.1220  -29.3480   20.7620 C   0  0  0  0  0  0  0  0  0  0  0  0
  -27.3080  -28.5420   20.7650 C   0  0  0  0  0  3  0  0  0  0  0  0
  -26.1400  -26.8600   19.4720 C   0  0  0  0  0  3  0  0  0  0  0  0
  -24.9710  -27.6410   19.4820 C   0  0  0  0  0  3  0  0  0  0  0  0
  -23.7150  -29.7420   20.1980 C   0  0  0  0  0  2  0  0  0  0  0  0
  -24.7400  -30.9670   22.1490 N   0  0  0  0  0  0  0  0  0  0  0  0
  -23.5620  -32.0150   23.7820 O   0  0  0  0  0  0  0  0  0  0  0  0
  -22.8360  -29.3200   22.5280 C   0  0  0  0  0  0  0  0  0  0  0  0
  -21.5190  -29.1010   22.3710 N   0  0  0  0  0  0  0  0  0  0  0  0
  -23.5170  -28.7090   23.3560 O   0  0  0  0  0  0  0  0  0  0  0  0
  -21.0240  -29.6540   21.6840 H   0  0  0  0  0  0  0  0  0  0  0  0
  -18.1840  -27.7540   22.7530 C   0  0  0  0  0  0  0  0  0  0  0  0
  -20.7150  -28.1380   23.1250 C   0  0  0  0  0  3  0  0  0  0  0  0
  -20.9050  -26.7030   22.5800 C   0  0  0  0  0  2  0  0  0  0  0  0
  -19.8650  -26.3140   21.5260 C   0  0  0  0  0  2  0  0  0  0  0  0
  -18.4510  -26.4050   22.1090 C   0  0  0  0  0  2  0  0  0  0  0  0
  -19.2480  -28.5730   23.2160 C   0  0  0  0  0  0  0  0  0  0  0  0
  -18.9450  -29.8340   23.7760 C   0  0  0  0  0  3  0  0  0  0  0  0
  -17.6130  -30.2770   23.8800 C   0  0  0  0  0  3  0  0  0  0  0  0
  -16.5640  -29.4550   23.4340 C   0  0  0  0  0  3  0  0  0  0  0  0
  -16.8500  -28.1970   22.8730 C   0  0  0  0  0  3  0  0  0  0  0  0
  -25.9180  -32.4110   23.8910 C   0  0  0  0  0  3  0  0  0  0  0  0
  -26.4200  -31.6510   25.1790 C   0  0  1  0  0  0  0  0  0  0  0  0
  -25.3090  -31.3930   26.2230 C   0  0  0  0  0  1  0  0  0  0  0  0
  -27.0380  -30.2860   24.7990 C   0  0  0  0  0  1  0  0  0  0  0  0
  -27.5370  -32.4700   25.8650 C   0  0  0  0  0  1  0  0  0  0  0  0
  -25.5900  -33.8100   24.2060 N   0  0  0  0  0  0  0  0  0  0  0  0
  -25.9510  -34.8620   23.4600 C   0  0  0  0  0  0  0  0  0  0  0  0
  -26.6650  -34.7620   22.4600 O   0  0  0  0  0  0  0  0  0  0  0  0
  -24.9600  -33.9660   24.9800 H   0  0  0  0  0  0  0  0  0  0  0  0
  -24.2300  -36.6450   23.0320 C   0  0  0  0  0  1  0  0  0  0  0  0
  -25.4370  -36.2470   23.8950 C   0  0  0  0  0  3  0  0  0  0  0  0
  -27.5350  -37.1390   24.8080 C   0  0  0  0  0  1  0  0  0  0  0  0
  -26.4680  -37.3060   23.8240 N   0  0  0  0  0  0  0  0  0  0  0  0
  -26.0510  -38.2250   23.9620 H   0  0  0  0  0  0  0  0  0  0  0  0
  1  4  2  0
  2  3  1  0
  3  8  1  0
  3  1  1  0
  5  6  1  0
  7  9  2  0
  7  8  1  0
  8  5  2  0
  9 10  1  0
 10 11  1  0
 10  6  2  0
 13 18  1  0
 14 15  1  0
 14 13  1  0
 16 15  1  0
 16 25  1  0
 16 17  1  0
 18 12  1  0
 18 17  1  0
 19 12  2  0
 20 12  1  0
 20  9  1  0
 21 20  1  0
 22 23  2  0
 23 42  1  0
 24 23  1  0
 24 27  1  0
 25 26  1  0
 25 22  1  0
 26 24  2  0
 27 28  1  0
 28 29  2  0
 30 33  1  0
 30 29  1  0
 31 30  2  0
 32 31  1  0
 32 27  2  0
 33 34  1  0
 34 39  2  0
 34 35  1  0
 35 36  2  0
 36 37  1  0
 37 41  1  0
 38 37  2  0
 39 38  1  0
 40 39  1  0
 42 43  1  0
 43 46  1  0
 43 45  1  0
 44 42  2  0
 47 22  1  0
 47 48  1  0
 49 47  1  0
 50  1  1  0
 50 51  1  0
 52 51  1  0
 53 64  2  0
 54 52  1  0
 54 59  1  0
 55 63  1  0
 55 65  1  0
 56 62  1  0
 56 58  1  0
 57 63  1  0
 58 59  2  0
 58 57  1  0
 60 61  1  0
 60 54  2  0
 61 56  2  0
 62 55  1  0
 63 53  1  0
 65 67  2  0
 66 65  1  0
 68 66  1  0
 69 78  2  0
 69 74  1  0
 70 66  1  0
 70 74  1  0
 71 70  1  0
 72 73  1  0
 72 71  1  0
 73 69  1  0
 74 75  2  0
 75 76  1  0
 77 76  2  0
 78 77  1  0
 79 53  1  0
 79 84  1  0
 79 80  1  0
 80 83  1  1
 80 81  1  0
 82 80  1  0
 84 87  1  0
 85 89  1  0
 85 84  1  0
 86 85  2  0
 89 88  1  0
 91 89  1  0
 91 92  1  0
 91 90  1  0
M  ISO  4  12 100  20 100  51 101  52 101
M  END
>  <TORSDO>  (56) 
F 19

>  <SCORE>  (56) 
-13.230

>  <name>  (56) 
55

>  <ligand_id>  (56) 
55

>  <original_smiles>  (56) 
[H]c1c([H])c([H])c2c(c1[H])C([H])([H])C([H])([H])C([H])([H])C2([H])N([H])C(=O)C1([H])N(C(=O)C([H])(N([H])C(=O)C([H])(N([H])C([H])([H])[H])C([H])([H])[H])C(C([H])([H])[H])(C([H])([H])[H])C([H])([H])[H])C([H])([H])c2c([H])c(OC([H])([H])C([H])([H])C(=O)N(c3c([H])c([H])c(F)c(N([H])C(=O)N4C([H])([H])C([H])([H])C([H])([H])C([H])(n5nc(-c6c([H])c([H])c(Oc7c([H])c([H])c(F)c([H])c7F)c([H])c6[H])c(C(=O)N([H])[H])c5N([H])[H])C4([H])[H])c3[H])C([H])([H])[H])c([H])c([H])c2C1([H])[H]

>  <smiles>  (56) 
[H]c1c([H])c([H])c2c(c1[H])C([H])([H])C([H])([H])C([H])([H])C2([H])N([H])C(=O)C1([H])N(C(=O)C([H])(N([H])C(=O)C([H])(N([H])C([H])([H])[H])C([H])([H])[H])C(C([H])([H])[H])(C([H])([H])[H])C([H])([H])[H])C([H])([H])c2c([H])c(OC([H])([H])C([H])([H])C(=O)N(c3c([H])c([H])c(F)c(N([H])C(=O)N4C([H])([H])C([H])([H])C([H])([H])C([H])(n5nc(-c6c([H])c([H])c(Oc7c([H])c([H])c(F)c([H])c7F)c([H])c6[H])c(C(=O)N([H])[H])c5N([H])[H])C4([H])[H])c3[H])C([H])([H])[H])c([H])c([H])c2C1([H])[H]

$$$$
56:0:0
     RDKit          3D

 92100  0  0  1  0  0  0  0  0999 V2000
  -29.4740  -18.4970   20.5800 C   0  0  0  0  0  3  0  0  0  0  0  0
  -30.7760  -17.4160   18.8380 C   0  0  0  0  0  3  0  0  0  0  0  0
  -30.0480  -17.2690   20.0390 C   0  0  0  0  0  0  0  0  0  0  0  0
  -29.6280  -19.8170   19.9700 C   0  0  0  0  0  0  0  0  0  0  0  0
  -30.9410  -18.6680   18.2200 C   0  0  0  0  0  0  0  0  0  0  0  0
  -30.3840  -19.8420   18.7660 C   0  0  0  0  0  0  0  0  0  0  0  0
  -31.6470  -18.7450   17.0650 F   0  0  0  0  0  0  0  0  0  0  0  0
  -30.5980  -20.9980   18.0880 F   0  0  0  0  0  0  0  0  0  0  0  0
  -30.6000  -14.7460   20.3740 C   0  0  0  0  0  0  0  0  0  0  0  0
  -30.3810  -12.4720   19.3890 C   0  0  0  0  0  2  0  0  0  0  0  0
  -29.4630  -12.5680   18.1490 C   0  0  0  0  0  2  0  0  0  0  0  0
  -27.9810  -12.4260   18.5520 C   0  0  0  0  0  2  0  0  0  0  0  0
  -27.6060  -13.2960   19.7830 C   0  0  0  0  0  3  0  0  0  0  0  0
  -28.6540  -13.1920   20.9140 C   0  0  0  0  0  2  0  0  0  0  0  0
  -29.9590  -13.5290   20.3370 N   0  0  0  0  0  0  0  0  0  0  0  0
  -31.7910  -14.8170   20.0560 O   0  0  0  0  0  0  0  0  0  0  0  0
  -29.8560  -15.8990   20.5930 N   0  0  0  0  0  0  0  0  0  0  0  0
  -28.9670  -15.7380   21.0410 H   0  0  0  0  0  0  0  0  0  0  0  0
  -25.2110  -13.8900   20.4900 C   0  0  0  0  0  0  0  0  0  0  0  0
  -24.1390  -13.1200   20.8490 C   0  0  0  0  0  0  0  0  0  0  0  0
  -24.6000  -11.7690   20.8300 C   0  0  0  0  0  0  0  0  0  0  0  0
  -26.2550  -13.0100   20.2630 N   0  0  0  0  0  0  0  0  0  0  0  0
  -25.8930  -11.7270   20.5310 N   0  0  0  0  0  0  0  0  0  0  0  0
  -23.8660  -10.5070   21.0200 C   0  0  0  0  0  0  0  0  0  0  0  0
  -24.2870   -9.5460   21.9650 C   0  0  0  0  0  3  0  0  0  0  0  0
  -23.5600   -8.3490   22.1430 C   0  0  0  0  0  3  0  0  0  0  0  0
  -22.3950   -8.1060   21.3760 C   0  0  0  0  0  0  0  0  0  0  0  0
  -21.9930   -9.0570   20.4200 C   0  0  0  0  0  3  0  0  0  0  0  0
  -22.7210  -10.2450   20.2410 C   0  0  0  0  0  3  0  0  0  0  0  0
  -21.6380   -6.9640   21.4620 O   0  0  0  0  0  0  0  0  0  0  0  0
  -21.5740   -6.2280   22.6180 C   0  0  0  0  0  0  0  0  0  0  0  0
  -21.1300   -6.7900   23.8360 C   0  0  0  0  0  3  0  0  0  0  0  0
  -21.0130   -5.9820   24.9830 C   0  0  0  0  0  3  0  0  0  0  0  0
  -21.3290   -4.6110   24.9150 C   0  0  0  0  0  0  0  0  0  0  0  0
  -21.7650   -4.0480   23.7020 C   0  0  0  0  0  3  0  0  0  0  0  0
  -21.8840   -4.8550   22.5570 C   0  0  0  0  0  0  0  0  0  0  0  0
  -22.2860   -4.3020   21.3860 F   0  0  0  0  0  0  0  0  0  0  0  0
  -21.2110   -3.8320   26.0150 F   0  0  0  0  0  0  0  0  0  0  0  0
  -22.7410  -13.6040   21.1070 C   0  0  0  0  0  0  0  0  0  0  0  0
  -21.9990  -12.9100   21.9630 N   0  0  0  0  0  0  0  0  0  0  0  0
  -22.3130  -14.6300   20.5820 O   0  0  0  0  0  0  0  0  0  0  0  0
  -22.3550  -12.0780   22.4100 H   0  0  0  0  0  0  0  0  0  0  0  0
  -21.0600  -13.2170   22.1720 H   0  0  0  0  0  0  0  0  0  0  0  0
  -25.3850  -15.2610   20.3130 N   0  0  0  0  0  0  0  0  0  0  0  0
  -24.6190  -15.9200   20.4060 H   0  0  0  0  0  0  0  0  0  0  0  0
  -26.2420  -15.6960   20.0000 H   0  0  0  0  0  0  0  0  0  0  0  0
  -29.0640  -21.0450   20.5170 N   0  0  0  0  0  0  0  0  0  0  0  0
  -28.5330  -20.9710   21.3810 H   0  0  0  0  0  0  0  0  0  0  0  0
  -29.1280  -22.4120   19.8520 C   0  0  0  0  0  2  0  0  0  0  0  0
  -28.4990  -23.7280   20.5490 C   0  0  0  0  0  3  0  0  0  0  0  0
  -28.5140  -25.1070   19.7010 C   0  0  0  0  0  3  0  0  0  0  0  0
  -28.3770  -26.4710   20.3100 O   0  0  0  0  0  0  0  0  0  0  0  0
  -24.5930  -31.9010   23.2170 C   0  0  0  0  0  0  0  0  0  0  0  0
  -27.2400  -27.3020   20.2070 C   0  0  0  0  0  0  0  0  0  0  0  0
  -23.4080  -30.4930   21.5690 C   0  0  0  0  0  3  0  0  0  0  0  0
  -24.8740  -28.9330   20.1590 C   0  0  0  0  0  0  0  0  0  0  0  0
  -25.9480  -30.8060   21.4100 C   0  0  0  0  0  2  0  0  0  0  0  0
  -26.0340  -29.4200   20.7720 C   0  0  0  0  0  0  0  0  0  0  0  0
  -27.2130  -28.6140   20.7880 C   0  0  0  0  0  3  0  0  0  0  0  0
  -26.0530  -26.8720   19.5720 C   0  0  0  0  0  3  0  0  0  0  0  0
  -24.8890  -27.6680   19.5470 C   0  0  0  0  0  3  0  0  0  0  0  0
  -23.6360  -29.8090   20.1940 C   0  0  0  0  0  2  0  0  0  0  0  0
  -24.6690  -31.0860   22.1230 N   0  0  0  0  0  0  0  0  0  0  0  0
  -23.5030  -32.1810   23.7380 O   0  0  0  0  0  0  0  0  0  0  0  0
  -22.7340  -29.4830   22.5290 C   0  0  0  0  0  0  0  0  0  0  0  0
  -21.4060  -29.3130   22.3970 N   0  0  0  0  0  0  0  0  0  0  0  0
  -23.4040  -28.8570   23.3520 O   0  0  0  0  0  0  0  0  0  0  0  0
  -20.9240  -29.8750   21.7090 H   0  0  0  0  0  0  0  0  0  0  0  0
  -18.0190  -28.1460   22.8940 C   0  0  0  0  0  0  0  0  0  0  0  0
  -20.5790  -28.3800   23.1640 C   0  0  0  0  0  3  0  0  0  0  0  0
  -20.6670  -26.9500   22.5820 C   0  0  0  0  0  2  0  0  0  0  0  0
  -19.5620  -26.6430   21.5660 C   0  0  0  0  0  2  0  0  0  0  0  0
  -18.1810  -26.7980   22.2110 C   0  0  0  0  0  2  0  0  0  0  0  0
  -19.1440  -28.8960   23.3270 C   0  0  0  0  0  0  0  0  0  0  0  0
  -18.9380  -30.1570   23.9260 C   0  0  0  0  0  3  0  0  0  0  0  0
  -17.6370  -30.6680   24.0960 C   0  0  0  0  0  3  0  0  0  0  0  0
  -16.5250  -29.9170   23.6790 C   0  0  0  0  0  3  0  0  0  0  0  0
  -16.7170  -28.6560   23.0840 C   0  0  0  0  0  3  0  0  0  0  0  0
  -25.8670  -32.5390   23.8520 C   0  0  0  0  0  3  0  0  0  0  0  0
  -26.3680  -31.7750   25.1400 C   0  0  1  0  0  0  0  0  0  0  0  0
  -25.2630  -31.5430   26.1970 C   0  0  0  0  0  1  0  0  0  0  0  0
  -26.9540  -30.3960   24.7610 C   0  0  0  0  0  1  0  0  0  0  0  0
  -27.5110  -32.5720   25.8110 C   0  0  0  0  0  1  0  0  0  0  0  0
  -25.5530  -33.9390   24.1750 N   0  0  0  0  0  0  0  0  0  0  0  0
  -25.8930  -34.9900   23.4170 C   0  0  0  0  0  0  0  0  0  0  0  0
  -26.5710  -34.8840   22.3920 O   0  0  0  0  0  0  0  0  0  0  0  0
  -24.9530  -34.0950   24.9710 H   0  0  0  0  0  0  0  0  0  0  0  0
  -24.1740  -36.7880   23.0330 C   0  0  0  0  0  1  0  0  0  0  0  0
  -25.4000  -36.3790   23.8660 C   0  0  0  0  0  3  0  0  0  0  0  0
  -27.5220  -37.2620   24.7340 C   0  0  0  0  0  1  0  0  0  0  0  0
  -26.4360  -37.4310   23.7710 N   0  0  0  0  0  0  0  0  0  0  0  0
  -26.0290  -38.3520   23.9100 H   0  0  0  0  0  0  0  0  0  0  0  0
  2  3  2  0
  3  1  1  0
  3 17  1  0
  4 47  1  0
  4  1  2  0
  5  6  2  0
  5  2  1  0
  6  4  1  0
  7  5  1  0
  8  6  1  0
  9 17  1  0
 10 15  1  0
 11 12  1  0
 11 10  1  0
 13 12  1  0
 13 22  1  0
 13 14  1  0
 15  9  1  0
 15 14  1  0
 16  9  2  0
 17 18  1  0
 19 20  2  0
 20 39  1  0
 21 20  1  0
 21 24  1  0
 22 19  1  0
 22 23  1  0
 23 21  2  0
 24 25  1  0
 25 26  2  0
 27 30  1  0
 27 26  1  0
 28 27  2  0
 29 28  1  0
 29 24  2  0
 30 31  1  0
 31 32  1  0
 32 33  2  0
 34 33  1  0
 34 38  1  0
 35 34  2  0
 36 31  2  0
 36 35  1  0
 37 36  1  0
 39 40  1  0
 40 43  1  0
 40 42  1  0
 41 39  2  0
 44 45  1  0
 44 19  1  0
 46 44  1  0
 47 48  1  0
 49 47  1  0
 49 50  1  0
 51 52  1  0
 51 50  2  0
 53 64  2  0
 54 52  1  0
 54 59  1  0
 55 63  1  0
 55 65  1  0
 56 62  1  0
 56 58  1  0
 57 63  1  0
 58 59  2  0
 58 57  1  0
 60 54  2  0
 61 60  1  0
 61 56  2  0
 62 55  1  0
 63 53  1  0
 65 67  2  0
 66 65  1  0
 68 66  1  0
 69 78  2  0
 69 74  1  0
 70 66  1  0
 70 74  1  0
 71 70  1  0
 72 73  1  0
 72 71  1  0
 73 69  1  0
 74 75  2  0
 75 76  1  0
 77 76  2  0
 78 77  1  0
 79 53  1  0
 79 84  1  0
 79 80  1  0
 80 83  1  1
 80 81  1  0
 82 80  1  0
 84 87  1  0
 85 89  1  0
 85 84  1  0
 86 85  2  0
 89 88  1  0
 91 89  1  0
 91 92  1  0
 91 90  1  0
M  ISO  4   9 100  17 100  51 101  52 101
M  END
>  <TORSDO>  (57) 
F 20

>  <SCORE>  (57) 
-13.881

>  <name>  (57) 
56

>  <ligand_id>  (57) 
56

>  <original_smiles>  (57) 
[H]c1c([H])c([H])c2c(c1[H])C([H])([H])C([H])([H])C([H])([H])C2([H])N([H])C(=O)C1([H])N(C(=O)C([H])(N([H])C(=O)C([H])(N([H])C([H])([H])[H])C([H])([H])[H])C(C([H])([H])[H])(C([H])([H])[H])C([H])([H])[H])C([H])([H])c2c([H])c(OC([H])([H])C([H])([H])C([H])([H])N([H])c3c([H])c(N([H])C(=O)N4C([H])([H])C([H])([H])C([H])([H])C([H])(n5nc(-c6c([H])c([H])c(Oc7c([H])c([H])c(F)c([H])c7F)c([H])c6[H])c(C(=O)N([H])[H])c5N([H])[H])C4([H])[H])c([H])c(F)c3F)c([H])c([H])c2C1([H])[H]

>  <smiles>  (57) 
[H]c1c([H])c([H])c2c(c1[H])C([H])([H])C([H])([H])C([H])([H])C2([H])N([H])C(=O)C1([H])N(C(=O)C([H])(N([H])C(=O)C([H])(N([H])C([H])([H])[H])C([H])([H])[H])C(C([H])([H])[H])(C([H])([H])[H])C([H])([H])[H])C([H])([H])c2c([H])c(OC([H])([H])C([H])([H])C([H])([H])N([H])c3c([H])c(N([H])C(=O)N4C([H])([H])C([H])([H])C([H])([H])C([H])(n5nc(-c6c([H])c([H])c(Oc7c([H])c([H])c(F)c([H])c7F)c([H])c6[H])c(C(=O)N([H])[H])c5N([H])[H])C4([H])[H])c([H])c(F)c3F)c([H])c([H])c2C1([H])[H]

$$$$
57:0:0
     RDKit          3D

 93102  0  0  1  0  0  0  0  0999 V2000
  -30.6400  -18.0590   20.0590 C   0  0  0  0  0  3  0  0  0  0  0  0
  -30.3170  -19.4530   19.9050 C   0  0  0  0  0  3  0  0  0  0  0  0
  -29.6300  -17.0580   20.1280 C   0  0  0  0  0  0  0  0  0  0  0  0
  -28.9760  -19.9370   19.7910 C   0  0  0  0  0  0  0  0  0  0  0  0
  -28.2920  -17.5180   20.0230 C   0  0  0  0  0  0  0  0  0  0  0  0
  -27.9800  -18.9050   19.8190 C   0  0  0  0  0  0  0  0  0  0  0  0
  -26.6860  -19.2560   19.6080 F   0  0  0  0  0  0  0  0  0  0  0  0
  -30.5730  -14.5960   19.8180 C   0  0  0  0  0  0  0  0  0  0  0  0
  -30.3540  -12.3040   18.8500 C   0  0  0  0  0  2  0  0  0  0  0  0
  -29.3410  -12.3770   17.6820 C   0  0  0  0  0  2  0  0  0  0  0  0
  -27.8920  -12.2350   18.1900 C   0  0  0  0  0  2  0  0  0  0  0  0
  -27.5970  -13.1490   19.4090 C   0  0  0  0  0  3  0  0  0  0  0  0
  -28.7100  -13.0130   20.4750 C   0  0  0  0  0  2  0  0  0  0  0  0
  -29.9900  -13.3510   19.8270 N   0  0  0  0  0  0  0  0  0  0  0  0
  -31.6870  -14.7820   19.3180 O   0  0  0  0  0  0  0  0  0  0  0  0
  -29.7770  -15.6030   20.3000 N   0  0  0  0  0  0  0  0  0  0  0  0
  -28.9670  -15.2190   20.7640 H   0  0  0  0  0  0  0  0  0  0  0  0
  -25.2530  -13.8020   20.2390 C   0  0  0  0  0  0  0  0  0  0  0  0
  -24.1930  -13.0550   20.6770 C   0  0  0  0  0  0  0  0  0  0  0  0
  -24.6260  -11.6950   20.6340 C   0  0  0  0  0  0  0  0  0  0  0  0
  -26.2700  -12.8990   19.9670 N   0  0  0  0  0  0  0  0  0  0  0  0
  -25.8980  -11.6270   20.2580 N   0  0  0  0  0  0  0  0  0  0  0  0
  -23.8850  -10.4520   20.8730 C   0  0  0  0  0  0  0  0  0  0  0  0
  -24.3540   -9.4740   21.7780 C   0  0  0  0  0  3  0  0  0  0  0  0
  -23.6120   -8.2950   22.0050 C   0  0  0  0  0  3  0  0  0  0  0  0
  -22.3880   -8.0850   21.3270 C   0  0  0  0  0  0  0  0  0  0  0  0
  -21.9370   -9.0500   20.4090 C   0  0  0  0  0  3  0  0  0  0  0  0
  -22.6790  -10.2220   20.1800 C   0  0  0  0  0  3  0  0  0  0  0  0
  -21.6130   -6.9590   21.4640 O   0  0  0  0  0  0  0  0  0  0  0  0
  -21.6270   -6.2120   22.6150 C   0  0  0  0  0  0  0  0  0  0  0  0
  -21.3190   -6.7770   23.8720 C   0  0  0  0  0  3  0  0  0  0  0  0
  -21.2770   -5.9590   25.0190 C   0  0  0  0  0  3  0  0  0  0  0  0
  -21.5330   -4.5790   24.9120 C   0  0  0  0  0  0  0  0  0  0  0  0
  -21.8350   -4.0140   23.6600 C   0  0  0  0  0  3  0  0  0  0  0  0
  -21.8790   -4.8290   22.5140 C   0  0  0  0  0  0  0  0  0  0  0  0
  -22.1490   -4.2770   21.3070 F   0  0  0  0  0  0  0  0  0  0  0  0
  -21.4850   -3.7920   26.0110 F   0  0  0  0  0  0  0  0  0  0  0  0
  -22.8250  -13.5670   21.0250 C   0  0  0  0  0  0  0  0  0  0  0  0
  -22.1400  -12.9010   21.9490 N   0  0  0  0  0  0  0  0  0  0  0  0
  -22.3750  -14.5910   20.5160 O   0  0  0  0  0  0  0  0  0  0  0  0
  -22.5180  -12.0720   22.3830 H   0  0  0  0  0  0  0  0  0  0  0  0
  -21.2250  -13.2270   22.2260 H   0  0  0  0  0  0  0  0  0  0  0  0
  -25.4240  -15.1640   20.0320 N   0  0  0  0  0  4  0  0  0  0  0  0
  -24.6790  -15.8300   20.2020 H   0  0  0  0  0  0  0  0  0  0  0  0
  -26.3040  -15.6060   19.7990 H   0  0  0  0  0  0  0  0  0  0  0  0
  -27.4790  -21.7540   20.5310 C   0  0  0  0  0  1  0  0  0  0  0  0
  -28.5970  -21.3440   19.6780 N   0  0  0  0  0  0  0  0  0  0  0  0
  -29.4870  -22.4810   19.2860 C   0  0  0  0  0  2  0  0  0  0  0  0
  -28.8310  -23.8840   18.8290 C   0  0  0  0  0  2  0  0  0  0  0  0
  -28.4250  -25.0360   19.8590 C   0  0  0  0  0  2  0  0  0  0  0  0
  -28.4550  -26.4580   19.4390 O   0  0  0  0  0  0  0  0  0  0  0  0
  -24.7160  -31.5150   23.0060 C   0  0  0  0  0  0  0  0  0  0  0  0
  -27.3070  -27.2500   19.5490 C   0  0  0  0  0  0  0  0  0  0  0  0
  -23.4900  -30.2480   21.2750 C   0  0  0  0  0  3  0  0  0  0  0  0
  -24.9240  -28.8200   19.7080 C   0  0  0  0  0  0  0  0  0  0  0  0
  -26.0200  -30.6030   21.0720 C   0  0  0  0  0  2  0  0  0  0  0  0
  -26.0980  -29.2810   20.3180 C   0  0  0  0  0  0  0  0  0  0  0  0
  -27.2940  -28.5110   20.2200 C   0  0  0  0  0  3  0  0  0  0  0  0
  -26.1090  -26.8280   18.9350 C   0  0  0  0  0  3  0  0  0  0  0  0
  -24.9290  -27.6010   19.0090 C   0  0  0  0  0  3  0  0  0  0  0  0
  -23.6830  -29.6810   19.8440 C   0  0  0  0  0  2  0  0  0  0  0  0
  -24.7620  -30.8020   21.8430 N   0  0  0  0  0  0  0  0  0  0  0  0
  -23.6410  -31.7410   23.5820 O   0  0  0  0  0  0  0  0  0  0  0  0
  -22.8470  -29.1550   22.1620 C   0  0  0  0  0  0  0  0  0  0  0  0
  -21.5150  -29.0040   22.0650 N   0  0  0  0  0  0  0  0  0  0  0  0
  -23.5450  -28.4500   22.8950 O   0  0  0  0  0  0  0  0  0  0  0  0
  -21.0120  -29.6260   21.4480 H   0  0  0  0  0  0  0  0  0  0  0  0
  -18.1400  -27.8130   22.5820 C   0  0  0  0  0  0  0  0  0  0  0  0
  -20.7110  -28.0070   22.7720 C   0  0  0  0  0  3  0  0  0  0  0  0
  -20.7630  -26.6380   22.0520 C   0  0  0  0  0  2  0  0  0  0  0  0
  -19.6170  -26.4340   21.0570 C   0  0  0  0  0  2  0  0  0  0  0  0
  -18.2640  -26.5360   21.7680 C   0  0  0  0  0  2  0  0  0  0  0  0
  -19.2880  -28.5120   23.0390 C   0  0  0  0  0  0  0  0  0  0  0  0
  -19.1170  -29.7130   23.7610 C   0  0  0  0  0  3  0  0  0  0  0  0
  -17.8290  -30.2140   24.0300 C   0  0  0  0  0  3  0  0  0  0  0  0
  -16.6950  -29.5090   23.5880 C   0  0  0  0  0  3  0  0  0  0  0  0
  -16.8520  -28.3110   22.8700 C   0  0  0  0  0  3  0  0  0  0  0  0
  -26.0060  -32.1000   23.6590 C   0  0  0  0  0  3  0  0  0  0  0  0
  -25.6960  -33.4620   24.1150 N   0  0  0  0  0  0  0  0  0  0  0  0
  -26.0120  -34.5800   23.4490 C   0  0  0  0  0  0  0  0  0  0  0  0
  -26.6650  -34.5720   22.4020 O   0  0  0  0  0  0  0  0  0  0  0  0
  -25.1130  -33.5420   24.9360 H   0  0  0  0  0  0  0  0  0  0  0  0
  -24.2670  -36.3840   23.2890 C   0  0  0  0  0  1  0  0  0  0  0  0
  -25.5280  -35.9200   24.0350 C   0  0  0  0  0  3  0  0  0  0  0  0
  -27.6750  -36.7460   24.8920 C   0  0  0  0  0  1  0  0  0  0  0  0
  -26.5510  -36.9870   23.9920 N   0  0  0  0  0  0  0  0  0  0  0  0
  -26.1430  -37.8880   24.2290 H   0  0  0  0  0  0  0  0  0  0  0  0
  -26.5500  -31.2240   24.8540 C   0  0  1  0  0  0  0  0  0  0  0  0
  -25.4800  -30.8970   25.9220 C   0  0  0  0  0  1  0  0  0  0  0  0
  -27.1240  -29.8870   24.3350 C   0  0  0  0  0  1  0  0  0  0  0  0
  -27.7150  -31.9620   25.5560 C   0  0  0  0  0  1  0  0  0  0  0  0
  -25.9900  -16.8760   20.3990 C   0  0  0  0  0  2  0  0  0  0  0  0
  -27.3380  -16.5200   20.1130 O   0  0  0  0  0  0  0  0  0  0  0  0
  1  3  1  0
  2  1  2  0
  3 16  1  0
  4  6  2  0
  4  2  1  0
  5 93  1  0
  5  3  2  0
  6  5  1  0
  7  6  1  0
  8 14  1  0
  8 16  1  0
  9 14  1  0
 10 11  1  0
 10  9  1  0
 12 11  1  0
 12 21  1  0
 12 13  1  0
 14 13  1  0
 15  8  2  0
 16 17  1  0
 18 19  2  0
 19 38  1  0
 20 19  1  0
 20 23  1  0
 21 18  1  0
 21 22  1  0
 22 20  2  0
 23 24  1  0
 24 25  2  0
 26 29  1  0
 26 25  1  0
 27 26  2  0
 28 27  1  0
 28 23  2  0
 29 30  1  0
 30 31  1  0
 31 32  2  0
 33 32  1  0
 33 37  1  0
 34 33  2  0
 35 30  2  0
 35 34  1  0
 36 35  1  0
 38 39  1  0
 39 42  1  0
 39 41  1  0
 40 38  2  0
 43 44  1  0
 43 18  1  0
 43 92  1  0
 45 43  1  0
 47  4  1  0
 47 46  1  0
 48 47  1  0
 49 48  1  0
 49 50  1  0
 51 53  1  0
 51 50  1  0
 52 63  2  0
 53 58  1  0
 54 62  1  0
 54 64  1  0
 55 61  1  0
 55 57  1  0
 56 62  1  0
 57 56  1  0
 58 57  2  0
 59 60  1  0
 59 53  2  0
 60 55  2  0
 61 54  1  0
 62 52  1  0
 64 66  2  0
 65 64  1  0
 67 65  1  0
 68 77  2  0
 68 73  1  0
 69 65  1  0
 69 73  1  0
 70 69  1  0
 71 72  1  0
 71 70  1  0
 72 68  1  0
 73 74  2  0
 74 75  1  0
 76 75  2  0
 77 76  1  0
 78 52  1  0
 78 79  1  0
 78 88  1  0
 79 82  1  0
 80 84  1  0
 80 79  1  0
 81 80  2  0
 84 83  1  0
 86 84  1  0
 86 87  1  0
 86 85  1  0
 88 91  1  1
 88 89  1  0
 90 88  1  0
 93 92  1  0
M  ISO  4   8 100  16 100  50 101  51 101
M  END
>  <TORSDO>  (58) 
F 21

>  <SCORE>  (58) 
-12.364

>  <name>  (58) 
57

>  <ligand_id>  (58) 
57

>  <original_smiles>  (58) 
[H]c1c([H])c([H])c2c(c1[H])C([H])([H])C([H])([H])C([H])([H])C2([H])N([H])C(=O)C1([H])N(C(=O)C([H])(N([H])C(=O)C([H])(N([H])C([H])([H])[H])C([H])([H])[H])C(C([H])([H])[H])(C([H])([H])[H])C([H])([H])[H])C([H])([H])c2c([H])c(OC([H])([H])C([H])([H])C([H])([H])N(c3c([H])c([H])c(N([H])C(=O)N4C([H])([H])C([H])([H])C([H])([H])C([H])(n5nc(-c6c([H])c([H])c(Oc7c([H])c([H])c(F)c([H])c7F)c([H])c6[H])c(C(=O)N([H])[H])c5N([H])[H])C4([H])[H])c(OC([H])([H])[H])c3F)C([H])([H])[H])c([H])c([H])c2C1([H])[H]

>  <smiles>  (58) 
[H]c1c([H])c([H])c2c(c1[H])C([H])([H])C([H])([H])C([H])([H])C2([H])N([H])C(=O)C1([H])N(C(=O)C([H])(N([H])C(=O)C([H])(N([H])C([H])([H])[H])C([H])([H])[H])C(C([H])([H])[H])(C([H])([H])[H])C([H])([H])[H])C([H])([H])c2c([H])c(OC([H])([H])C([H])([H])C([H])([H])N(c3c([H])c([H])c(N([H])C(=O)N4C([H])([H])C([H])([H])C([H])([H])C([H])(n5nc(-c6c([H])c([H])c(Oc7c([H])c([H])c(F)c([H])c7F)c([H])c6[H])c(C(=O)N([H])[H])c5N([H])[H])C4([H])[H])c(OC([H])([H])[H])c3F)C([H])([H])[H])c([H])c([H])c2C1([H])[H]

$$$$
58:0:0
     RDKit          3D

100108  0  0  1  0  0  0  0  0999 V2000
  -31.3140  -22.5300   23.3180 C   0  0  0  0  0  2  0  0  0  0  0  0
  -29.6840  -24.4670   23.2320 C   0  0  0  0  0  3  0  0  0  0  0  0
  -28.7050  -25.2980   24.0070 C   0  0  0  0  0  1  0  0  0  0  0  0
  -29.9570  -24.7420   21.9370 N   0  0  0  0  0  0  0  0  0  0  0  0
  -30.2970  -23.4450   23.8670 N   0  0  0  0  0  0  0  0  0  0  0  0
  -30.6530  -24.1780   21.4690 H   0  0  0  0  0  0  0  0  0  0  0  0
  -29.9940  -23.2110   24.8030 H   0  0  0  0  0  0  0  0  0  0  0  0
  -30.5420  -26.9760   21.1330 C   0  0  0  0  0  1  0  0  0  0  0  0
  -29.4600  -25.8790   21.1440 C   0  0  0  0  0  3  0  0  0  0  0  0
  -29.0350  -25.4110   19.7310 C   0  0  0  0  0  2  0  0  0  0  0  0
  -28.7310  -26.4970   18.8590 O   0  0  0  0  0  0  0  0  0  0  0  0
  -24.8310  -30.9590   22.7740 C   0  0  0  0  0  0  0  0  0  0  0  0
  -27.5200  -27.1110   19.0520 C   0  0  0  0  0  0  0  0  0  0  0  0
  -23.6160  -29.7660   20.9750 C   0  0  0  0  0  3  0  0  0  0  0  0
  -25.0730  -28.4810   19.3250 C   0  0  0  0  0  0  0  0  0  0  0  0
  -26.1170  -30.2400   20.7680 C   0  0  0  0  0  2  0  0  0  0  0  0
  -26.2260  -28.9740   19.9480 C   0  0  0  0  0  0  0  0  0  0  0  0
  -27.4540  -28.3010   19.8020 C   0  0  0  0  0  3  0  0  0  0  0  0
  -26.3560  -26.6120   18.4330 C   0  0  0  0  0  3  0  0  0  0  0  0
  -25.1300  -27.2960   18.5660 C   0  0  0  0  0  3  0  0  0  0  0  0
  -23.8060  -29.2830   19.5120 C   0  0  0  0  0  2  0  0  0  0  0  0
  -24.8740  -30.3280   21.5670 N   0  0  0  0  0  0  0  0  0  0  0  0
  -23.7580  -31.1190   23.3730 O   0  0  0  0  0  0  0  0  0  0  0  0
  -23.0190  -28.6040   21.7990 C   0  0  0  0  0  0  0  0  0  0  0  0
  -21.6930  -28.4180   21.6940 N   0  0  0  0  0  0  0  0  0  0  0  0
  -23.7420  -27.8770   22.4850 O   0  0  0  0  0  0  0  0  0  0  0  0
  -21.1700  -29.0610   21.1160 H   0  0  0  0  0  0  0  0  0  0  0  0
  -18.3540  -27.1200   22.1390 C   0  0  0  0  0  0  0  0  0  0  0  0
  -20.9180  -27.3620   22.3430 C   0  0  0  0  0  3  0  0  0  0  0  0
  -21.0060  -26.0400   21.5470 C   0  0  0  0  0  2  0  0  0  0  0  0
  -19.8640  -25.8640   20.5420 C   0  0  0  0  0  2  0  0  0  0  0  0
  -18.5100  -25.8920   21.2570 C   0  0  0  0  0  2  0  0  0  0  0  0
  -19.4850  -27.8190   22.6350 C   0  0  0  0  0  0  0  0  0  0  0  0
  -19.2860  -28.9750   23.4210 C   0  0  0  0  0  3  0  0  0  0  0  0
  -17.9860  -29.4310   23.7140 C   0  0  0  0  0  3  0  0  0  0  0  0
  -16.8710  -28.7250   23.2350 C   0  0  0  0  0  3  0  0  0  0  0  0
  -17.0550  -27.5710   22.4520 C   0  0  0  0  0  3  0  0  0  0  0  0
  -26.1180  -31.5310   23.4470 C   0  0  0  0  0  3  0  0  0  0  0  0
  -25.7800  -32.8480   24.0020 N   0  0  0  0  0  0  0  0  0  0  0  0
  -26.1220  -34.0170   23.4440 C   0  0  0  0  0  0  0  0  0  0  0  0
  -26.8270  -34.0970   22.4340 O   0  0  0  0  0  0  0  0  0  0  0  0
  -25.1580  -32.8580   24.7970 H   0  0  0  0  0  0  0  0  0  0  0  0
  -24.4330  -35.8730   23.2880 C   0  0  0  0  0  1  0  0  0  0  0  0
  -25.5980  -35.3030   24.1120 C   0  0  0  0  0  3  0  0  0  0  0  0
  -27.6460  -35.9820   25.2830 C   0  0  0  0  0  1  0  0  0  0  0  0
  -26.6370  -36.3400   24.2890 N   0  0  0  0  0  0  0  0  0  0  0  0
  -26.2210  -37.2240   24.5660 H   0  0  0  0  0  0  0  0  0  0  0  0
  -26.7060  -30.5870   24.5680 C   0  0  1  0  0  0  0  0  0  0  0  0
  -25.6590  -30.1350   25.6110 C   0  0  0  0  0  1  0  0  0  0  0  0
  -27.3280  -29.3190   23.9370 C   0  0  0  0  0  1  0  0  0  0  0  0
  -27.8470  -31.3130   25.3190 C   0  0  0  0  0  1  0  0  0  0  0  0
  -30.7620  -21.1120   23.1780 C   0  0  0  0  0  0  0  0  0  0  0  0
  -31.3810  -20.3260   22.2800 N   0  0  0  0  0  0  0  0  0  0  0  0
  -29.8270  -20.7440   23.8950 O   0  0  0  0  0  0  0  0  0  0  0  0
  -32.2040  -20.7280   21.8520 H   0  0  0  0  0  0  0  0  0  0  0  0
  -32.1460  -18.0970   21.7190 C   0  0  0  0  0  3  0  0  0  0  0  0
  -31.9150  -16.7690   21.3110 C   0  0  0  0  0  3  0  0  0  0  0  0
  -29.7550  -18.5450   21.6290 C   0  0  0  0  0  3  0  0  0  0  0  0
  -31.0720  -18.9930   21.8910 C   0  0  0  0  0  0  0  0  0  0  0  0
  -30.5990  -16.3240   21.0500 C   0  0  0  0  0  0  0  0  0  0  0  0
  -29.5200  -17.2190   21.2210 C   0  0  0  0  0  0  0  0  0  0  0  0
  -27.8960  -16.7030   20.9180 Cl  0  0  0  0  0  0  0  0  0  0  0  0
  -30.5610  -14.3560   19.5120 C   0  0  0  0  0  0  0  0  0  0  0  0
  -30.0000  -12.3840   18.1350 C   0  0  0  0  0  2  0  0  0  0  0  0
  -28.8420  -12.6930   17.1660 C   0  0  0  0  0  2  0  0  0  0  0  0
  -27.4790  -12.4750   17.8490 C   0  0  0  0  0  2  0  0  0  0  0  0
  -27.3870  -13.1780   19.2290 C   0  0  0  0  0  3  0  0  0  0  0  0
  -28.6250  -12.8420   20.0880 C   0  0  0  0  0  2  0  0  0  0  0  0
  -29.8370  -13.2200   19.3320 N   0  0  0  0  0  0  0  0  0  0  0  0
  -31.4270  -14.7350   18.7180 O   0  0  0  0  0  0  0  0  0  0  0  0
  -30.2830  -14.9980   20.6540 N   0  0  0  0  0  0  0  0  0  0  0  0
  -29.5580  -14.5610   21.2040 H   0  0  0  0  0  0  0  0  0  0  0  0
  -25.1350  -13.6690   20.3830 C   0  0  0  0  0  0  0  0  0  0  0  0
  -24.1690  -12.8420   20.8890 C   0  0  0  0  0  0  0  0  0  0  0  0
  -24.6490  -11.5100   20.6960 C   0  0  0  0  0  0  0  0  0  0  0  0
  -26.1440  -12.8370   19.9190 N   0  0  0  0  0  0  0  0  0  0  0  0
  -25.8620  -11.5300   20.1600 N   0  0  0  0  0  0  0  0  0  0  0  0
  -23.9990  -10.2160   20.9370 C   0  0  0  0  0  0  0  0  0  0  0  0
  -24.5240   -9.2860   21.8610 C   0  0  0  0  0  3  0  0  0  0  0  0
  -23.8720   -8.0560   22.0880 C   0  0  0  0  0  3  0  0  0  0  0  0
  -22.6800   -7.7450   21.3920 C   0  0  0  0  0  0  0  0  0  0  0  0
  -22.1730   -8.6640   20.4560 C   0  0  0  0  0  3  0  0  0  0  0  0
  -22.8270   -9.8860   20.2270 C   0  0  0  0  0  3  0  0  0  0  0  0
  -21.9920   -6.5640   21.5290 O   0  0  0  0  0  0  0  0  0  0  0  0
  -21.8450   -5.9540   22.7490 C   0  0  0  0  0  0  0  0  0  0  0  0
  -21.2940   -6.6300   23.8590 C   0  0  0  0  0  3  0  0  0  0  0  0
  -21.0980   -5.9450   25.0750 C   0  0  0  0  0  3  0  0  0  0  0  0
  -21.4400   -4.5830   25.1800 C   0  0  0  0  0  0  0  0  0  0  0  0
  -21.9840   -3.9070   24.0740 C   0  0  0  0  0  3  0  0  0  0  0  0
  -22.1830   -4.5890   22.8610 C   0  0  0  0  0  0  0  0  0  0  0  0
  -22.6870   -3.9270   21.7920 F   0  0  0  0  0  0  0  0  0  0  0  0
  -21.2450   -3.9230   26.3450 F   0  0  0  0  0  0  0  0  0  0  0  0
  -22.8330  -13.2560   21.4370 C   0  0  0  0  0  0  0  0  0  0  0  0
  -22.3070  -12.5070   22.4010 N   0  0  0  0  0  0  0  0  0  0  0  0
  -22.2700  -14.2770   21.0470 O   0  0  0  0  0  0  0  0  0  0  0  0
  -22.7800  -11.6810   22.7360 H   0  0  0  0  0  0  0  0  0  0  0  0
  -21.4200  -12.7650   22.8090 H   0  0  0  0  0  0  0  0  0  0  0  0
  -25.2320  -15.0520   20.2600 N   0  0  0  0  0  0  0  0  0  0  0  0
  -24.4940  -15.6760   20.5650 H   0  0  0  0  0  0  0  0  0  0  0  0
  -26.0280  -15.5390   19.8680 H   0  0  0  0  0  0  0  0  0  0  0  0
  1  5  1  0
  2  5  1  0
  2  3  1  0
  4  2  1  0
  5  7  1  0
  6  4  1  0
  9  8  1  0
  9  4  1  0
 10  9  1  0
 11 13  1  0
 11 10  1  0
 12 23  2  0
 13 18  1  0
 14 22  1  0
 14 24  1  0
 15 21  1  0
 15 17  1  0
 16 22  1  0
 17 16  1  0
 18 17  2  0
 19 20  1  0
 19 13  2  0
 20 15  2  0
 21 14  1  0
 22 12  1  0
 24 26  2  0
 25 24  1  0
 27 25  1  0
 28 37  2  0
 28 33  1  0
 29 25  1  0
 29 33  1  0
 30 29  1  0
 31 32  1  0
 31 30  1  0
 32 28  1  0
 33 34  2  0
 34 35  1  0
 36 35  2  0
 37 36  1  0
 38 12  1  0
 38 39  1  0
 38 48  1  0
 39 42  1  0
 40 39  1  0
 40 44  1  0
 41 40  2  0
 44 43  1  0
 44 46  1  0
 46 47  1  0
 46 45  1  0
 48 51  1  1
 48 49  1  0
 50 48  1  0
 52  1  1  0
 52 54  2  0
 53 52  1  0
 55 53  1  0
 56 59  1  0
 57 56  2  0
 58 59  2  0
 59 53  1  0
 60 61  2  0
 60 57  1  0
 61 58  1  0
 62 61  1  0
 63 71  1  0
 64 69  1  0
 65 66  1  0
 65 64  1  0
 67 66  1  0
 67 76  1  0
 67 68  1  0
 69 63  1  0
 69 68  1  0
 70 63  2  0
 71 60  1  0
 71 72  1  0
 73 74  2  0
 74 93  1  0
 75 74  1  0
 75 78  1  0
 76 77  1  0
 76 73  1  0
 77 75  2  0
 78 79  1  0
 79 80  2  0
 81 84  1  0
 81 80  1  0
 82 81  2  0
 83 82  1  0
 83 78  2  0
 84 85  1  0
 85 90  2  0
 85 86  1  0
 86 87  2  0
 87 88  1  0
 88 92  1  0
 89 88  2  0
 90 89  1  0
 91 90  1  0
 93 94  1  0
 94 96  1  0
 94 97  1  0
 95 93  2  0
 98 73  1  0
 98 99  1  0
100 98  1  0
M  ISO  4  10 101  11 101  63 100  71 100
M  END
>  <TORSDO>  (59) 
F 21

>  <SCORE>  (59) 
-7.578

>  <name>  (59) 
58

>  <ligand_id>  (59) 
58

>  <original_smiles>  (59) 
[H]c1c([H])c([H])c2c(c1[H])C([H])([H])C([H])([H])C([H])([H])C2([H])N([H])C(=O)C1([H])N(C(=O)C([H])(N([H])C(=O)C([H])(N([H])C([H])([H])[H])C([H])([H])[H])C(C([H])([H])[H])(C([H])([H])[H])C([H])([H])[H])C([H])([H])c2c([H])c(OC([H])([H])C([H])(N([H])C(=[N+]([H])C([H])([H])C(=O)N([H])c3c([H])c([H])c(N([H])C(=O)N4C([H])([H])C([H])([H])C([H])([H])C([H])(n5nc(-c6c([H])c([H])c(Oc7c([H])c([H])c(F)c([H])c7F)c([H])c6[H])c(C(=O)N([H])[H])c5N([H])[H])C4([H])[H])c(Cl)c3[H])C([H])([H])[H])C([H])([H])[H])c([H])c([H])c2C1([H])[H]

>  <smiles>  (59) 
[H]c1c([H])c([H])c2c(c1[H])C([H])([H])C([H])([H])C([H])([H])C2([H])N([H])C(=O)C1([H])N(C(=O)C([H])(N([H])C(=O)C([H])(N([H])C([H])([H])[H])C([H])([H])[H])C(C([H])([H])[H])(C([H])([H])[H])C([H])([H])[H])C([H])([H])c2c([H])c(OC([H])([H])C([H])(N([H])C(=[N+]([H])C([H])([H])C(=O)N([H])c3c([H])c([H])c(N([H])C(=O)N4C([H])([H])C([H])([H])C([H])([H])C([H])(n5nc(-c6c([H])c([H])c(Oc7c([H])c([H])c(F)c([H])c7F)c([H])c6[H])c(C(=O)N([H])[H])c5N([H])[H])C4([H])[H])c(Cl)c3[H])C([H])([H])[H])C([H])([H])[H])c([H])c([H])c2C1([H])[H]

$$$$
59:0:0
     RDKit          3D

 91 99  0  0  1  0  0  0  0  0999 V2000
  -30.6040  -19.7700   19.4730 C   0  0  0  0  0  3  0  0  0  0  0  0
  -30.7430  -18.3430   19.6870 C   0  0  0  0  0  3  0  0  0  0  0  0
  -28.2870  -19.6610   19.8350 C   0  0  0  0  0  3  0  0  0  0  0  0
  -29.3810  -20.5450   19.5400 C   0  0  0  0  0  0  0  0  0  0  0  0
  -29.6500  -17.4790   19.9820 C   0  0  0  0  0  0  0  0  0  0  0  0
  -28.4040  -18.2080   20.0350 C   0  0  0  0  0  0  0  0  0  0  0  0
  -30.5140  -14.8690   19.8310 C   0  0  0  0  0  0  0  0  0  0  0  0
  -30.3970  -12.5140   18.9150 C   0  0  0  0  0  2  0  0  0  0  0  0
  -29.3710  -12.4670   17.7560 C   0  0  0  0  0  2  0  0  0  0  0  0
  -27.9430  -12.2450   18.2950 C   0  0  0  0  0  2  0  0  0  0  0  0
  -27.6160  -13.1650   19.4990 C   0  0  0  0  0  3  0  0  0  0  0  0
  -28.7500  -13.1600   20.5460 C   0  0  0  0  0  2  0  0  0  0  0  0
  -29.9760  -13.5860   19.8580 N   0  0  0  0  0  0  0  0  0  0  0  0
  -31.6630  -15.0080   19.3970 O   0  0  0  0  0  0  0  0  0  0  0  0
  -29.6800  -15.9610   20.1620 N   0  0  0  0  0  0  0  0  0  0  0  0
  -28.8340  -15.6330   20.6010 H   0  0  0  0  0  0  0  0  0  0  0  0
  -25.3050  -13.7260   20.4520 C   0  0  0  0  0  0  0  0  0  0  0  0
  -24.2710  -12.9390   20.8790 C   0  0  0  0  0  0  0  0  0  0  0  0
  -24.7230  -11.5900   20.7570 C   0  0  0  0  0  0  0  0  0  0  0  0
  -26.3200  -12.8540   20.0920 N   0  0  0  0  0  0  0  0  0  0  0  0
  -25.9830  -11.5620   20.3400 N   0  0  0  0  0  0  0  0  0  0  0  0
  -24.0090  -10.3220   20.9580 C   0  0  0  0  0  0  0  0  0  0  0  0
  -24.4530   -9.3620   21.8930 C   0  0  0  0  0  3  0  0  0  0  0  0
  -23.7370   -8.1610   22.0820 C   0  0  0  0  0  3  0  0  0  0  0  0
  -22.5610   -7.9110   21.3340 C   0  0  0  0  0  0  0  0  0  0  0  0
  -22.1370   -8.8590   20.3870 C   0  0  0  0  0  3  0  0  0  0  0  0
  -22.8540  -10.0520   20.1970 C   0  0  0  0  0  3  0  0  0  0  0  0
  -21.8150   -6.7610   21.4330 O   0  0  0  0  0  0  0  0  0  0  0  0
  -21.7020   -6.0750   22.6160 C   0  0  0  0  0  0  0  0  0  0  0  0
  -21.1660   -6.6760   23.7760 C   0  0  0  0  0  3  0  0  0  0  0  0
  -21.0030   -5.9150   24.9510 C   0  0  0  0  0  3  0  0  0  0  0  0
  -21.3640   -4.5540   24.9660 C   0  0  0  0  0  0  0  0  0  0  0  0
  -21.8940   -3.9530   23.8090 C   0  0  0  0  0  3  0  0  0  0  0  0
  -22.0590   -4.7120   22.6370 C   0  0  0  0  0  0  0  0  0  0  0  0
  -22.5490   -4.1230   21.5200 F   0  0  0  0  0  0  0  0  0  0  0  0
  -21.2010   -3.8200   26.0910 F   0  0  0  0  0  0  0  0  0  0  0  0
  -22.9040  -13.4080   21.2840 C   0  0  0  0  0  0  0  0  0  0  0  0
  -22.2540  -12.6930   22.1960 N   0  0  0  0  0  0  0  0  0  0  0  0
  -22.4230  -14.4450   20.8280 O   0  0  0  0  0  0  0  0  0  0  0  0
  -22.6580  -11.8540   22.5850 H   0  0  0  0  0  0  0  0  0  0  0  0
  -21.3410  -12.9890   22.5090 H   0  0  0  0  0  0  0  0  0  0  0  0
  -25.4600  -15.1020   20.3180 N   0  0  0  0  0  0  0  0  0  0  0  0
  -24.7040  -15.7480   20.5210 H   0  0  0  0  0  0  0  0  0  0  0  0
  -26.2860  -15.5620   19.9560 H   0  0  0  0  0  0  0  0  0  0  0  0
  -30.6770  -22.5530   19.0120 C   0  0  0  0  0  1  0  0  0  0  0  0
  -29.3390  -22.0300   19.3090 N   0  0  0  0  0  0  0  0  0  0  0  0
  -28.4010  -23.1900   19.7750 C   0  0  0  0  0  2  0  0  0  0  0  0
  -28.2900  -24.6660   18.9530 C   0  0  0  0  0  2  0  0  0  0  0  0
  -28.2750  -26.1160   19.5190 O   0  0  0  0  0  0  0  0  0  0  0  0
  -24.6090  -31.5190   22.8830 C   0  0  0  0  0  0  0  0  0  0  0  0
  -27.1830  -27.0560   19.4920 C   0  0  0  0  0  0  0  0  0  0  0  0
  -23.3940  -30.2160   21.1790 C   0  0  0  0  0  3  0  0  0  0  0  0
  -24.8290  -28.7600   19.6240 C   0  0  0  0  0  0  0  0  0  0  0  0
  -25.9380  -30.5280   20.9830 C   0  0  0  0  0  2  0  0  0  0  0  0
  -26.0140  -29.1830   20.2390 C   0  0  0  0  0  0  0  0  0  0  0  0
  -27.1870  -28.3460   20.1590 C   0  0  0  0  0  3  0  0  0  0  0  0
  -25.9680  -26.7340   18.8450 C   0  0  0  0  0  3  0  0  0  0  0  0
  -24.8180  -27.5500   18.9150 C   0  0  0  0  0  3  0  0  0  0  0  0
  -23.5940  -29.6350   19.7550 C   0  0  0  0  0  2  0  0  0  0  0  0
  -24.6680  -30.7740   21.7380 N   0  0  0  0  0  0  0  0  0  0  0  0
  -23.5310  -31.7550   23.4500 O   0  0  0  0  0  0  0  0  0  0  0  0
  -22.7470  -29.1390   22.0860 C   0  0  0  0  0  0  0  0  0  0  0  0
  -21.4120  -28.9940   22.0110 N   0  0  0  0  0  0  0  0  0  0  0  0
  -23.4480  -28.4400   22.8220 O   0  0  0  0  0  0  0  0  0  0  0  0
  -20.9040  -29.6150   21.3970 H   0  0  0  0  0  0  0  0  0  0  0  0
  -18.0350  -27.8410   22.6300 C   0  0  0  0  0  0  0  0  0  0  0  0
  -20.6130  -28.0060   22.7420 C   0  0  0  0  0  3  0  0  0  0  0  0
  -20.6260  -26.6370   22.0220 C   0  0  0  0  0  2  0  0  0  0  0  0
  -19.4490  -26.4480   21.0610 C   0  0  0  0  0  2  0  0  0  0  0  0
  -18.1190  -26.5630   21.8120 C   0  0  0  0  0  2  0  0  0  0  0  0
  -19.2050  -28.5270   23.0530 C   0  0  0  0  0  0  0  0  0  0  0  0
  -19.0670  -29.7260   23.7850 C   0  0  0  0  0  3  0  0  0  0  0  0
  -17.7940  -30.2410   24.0940 C   0  0  0  0  0  3  0  0  0  0  0  0
  -16.6400  -29.5500   23.6850 C   0  0  0  0  0  3  0  0  0  0  0  0
  -16.7610  -28.3520   22.9590 C   0  0  0  0  0  3  0  0  0  0  0  0
  -25.8920  -32.1300   23.5260 C   0  0  0  0  0  3  0  0  0  0  0  0
  -26.4500  -31.2760   24.7310 C   0  0  1  0  0  0  0  0  0  0  0  0
  -25.3900  -30.9560   25.8110 C   0  0  0  0  0  1  0  0  0  0  0  0
  -27.0300  -29.9340   24.2290 C   0  0  0  0  0  1  0  0  0  0  0  0
  -27.6140  -32.0320   25.4150 C   0  0  0  0  0  1  0  0  0  0  0  0
  -25.5630  -33.4920   23.9750 N   0  0  0  0  0  0  0  0  0  0  0  0
  -25.8710  -34.6130   23.3080 C   0  0  0  0  0  0  0  0  0  0  0  0
  -26.5300  -34.6080   22.2650 O   0  0  0  0  0  0  0  0  0  0  0  0
  -24.9760  -33.5670   24.7930 H   0  0  0  0  0  0  0  0  0  0  0  0
  -24.1100  -36.4030   23.1390 C   0  0  0  0  0  1  0  0  0  0  0  0
  -25.3720  -35.9510   23.8910 C   0  0  0  0  0  3  0  0  0  0  0  0
  -27.5030  -36.8050   24.7630 C   0  0  0  0  0  1  0  0  0  0  0  0
  -26.3850  -37.0270   23.8490 N   0  0  0  0  0  0  0  0  0  0  0  0
  -25.9660  -37.9250   24.0770 H   0  0  0  0  0  0  0  0  0  0  0  0
  -26.0210  -17.8490   19.8890 C   0  0  0  0  0  1  0  0  0  0  0  0
  -27.3100  -17.4040   20.2900 O   0  0  0  0  0  0  0  0  0  0  0  0
  1  4  2  0
  1  2  1  0
  2  5  2  0
  3  6  2  0
  4  3  1  0
  5  6  1  0
  5 15  1  0
  6 91  1  0
  7 13  1  0
  7 15  1  0
  8 13  1  0
  9 10  1  0
  9  8  1  0
 11 10  1  0
 11 20  1  0
 11 12  1  0
 13 12  1  0
 14  7  2  0
 15 16  1  0
 17 18  2  0
 18 37  1  0
 19 18  1  0
 19 22  1  0
 20 21  1  0
 20 17  1  0
 21 19  2  0
 22 23  1  0
 23 24  2  0
 25 28  1  0
 25 24  1  0
 26 25  2  0
 27 26  1  0
 27 22  2  0
 28 29  1  0
 29 34  2  0
 29 30  1  0
 30 31  2  0
 31 32  1  0
 32 36  1  0
 33 32  2  0
 34 33  1  0
 35 34  1  0
 37 38  1  0
 38 41  1  0
 38 40  1  0
 39 37  2  0
 42 17  1  0
 42 43  1  0
 44 42  1  0
 45 46  1  0
 46  4  1  0
 46 47  1  0
 48 49  1  0
 48 47  1  0
 50 61  2  0
 51 49  1  0
 51 56  1  0
 52 60  1  0
 52 62  1  0
 53 59  1  0
 53 55  1  0
 54 60  1  0
 55 54  1  0
 56 55  2  0
 57 58  1  0
 57 51  2  0
 58 53  2  0
 59 52  1  0
 60 50  1  0
 62 64  2  0
 63 62  1  0
 65 63  1  0
 66 75  2  0
 66 71  1  0
 67 63  1  0
 67 71  1  0
 68 67  1  0
 69 70  1  0
 69 68  1  0
 70 66  1  0
 71 72  2  0
 72 73  1  0
 74 73  2  0
 75 74  1  0
 76 50  1  0
 76 81  1  0
 76 77  1  0
 77 80  1  1
 77 78  1  0
 79 77  1  0
 81 84  1  0
 82 86  1  0
 82 81  1  0
 83 82  2  0
 86 85  1  0
 88 86  1  0
 88 89  1  0
 88 87  1  0
 90 91  1  0
M  ISO  4   7 100  15 100  48 101  49 101
M  END
>  <TORSDO>  (60) 
F 20

>  <SCORE>  (60) 
-12.864

>  <name>  (60) 
59

>  <ligand_id>  (60) 
59

>  <original_smiles>  (60) 
[H]c1c([H])c([H])c2c(c1[H])C([H])([H])C([H])([H])C([H])([H])C2([H])N([H])C(=O)C1([H])N(C(=O)C([H])(N([H])C(=O)C([H])(N([H])C([H])([H])[H])C([H])([H])[H])C(C([H])([H])[H])(C([H])([H])[H])C([H])([H])[H])C([H])([H])c2c([H])c(OC([H])([H])C([H])([H])N(c3c([H])c([H])c(N([H])C(=O)N4C([H])([H])C([H])([H])C([H])([H])C([H])(n5nc(-c6c([H])c([H])c(Oc7c([H])c([H])c(F)c([H])c7F)c([H])c6[H])c(C(=O)N([H])[H])c5N([H])[H])C4([H])[H])c(OC([H])([H])[H])c3[H])C([H])([H])[H])c([H])c([H])c2C1([H])[H]

>  <smiles>  (60) 
[H]c1c([H])c([H])c2c(c1[H])C([H])([H])C([H])([H])C([H])([H])C2([H])N([H])C(=O)C1([H])N(C(=O)C([H])(N([H])C(=O)C([H])(N([H])C([H])([H])[H])C([H])([H])[H])C(C([H])([H])[H])(C([H])([H])[H])C([H])([H])[H])C([H])([H])c2c([H])c(OC([H])([H])C([H])([H])N(c3c([H])c([H])c(N([H])C(=O)N4C([H])([H])C([H])([H])C([H])([H])C([H])(n5nc(-c6c([H])c([H])c(Oc7c([H])c([H])c(F)c([H])c7F)c([H])c6[H])c(C(=O)N([H])[H])c5N([H])[H])C4([H])[H])c(OC([H])([H])[H])c3[H])C([H])([H])[H])c([H])c([H])c2C1([H])[H]

$$$$
60:0:0
     RDKit          3D

 92100  0  0  1  0  0  0  0  0999 V2000
  -31.2200  -18.1820   21.2180 C   0  0  0  0  0  3  0  0  0  0  0  0
  -29.1480  -19.1160   20.3920 C   0  0  0  0  0  3  0  0  0  0  0  0
  -31.5830  -19.4900   21.6160 C   0  0  0  0  0  0  0  0  0  0  0  0
  -29.9790  -17.8750   20.6300 C   0  0  0  0  0  0  0  0  0  0  0  0
  -29.4980  -20.5510   20.7300 C   0  0  0  0  0  0  0  0  0  0  0  0
  -30.7400  -20.6250   21.4360 C   0  0  0  0  0  0  0  0  0  0  0  0
  -32.9280  -19.6570   22.3100 C   0  0  0  0  0  1  0  0  0  0  0  0
  -31.2370  -22.0760   22.2470 Cl  0  0  0  0  0  0  0  0  0  0  0  0
  -30.4580  -15.1400   20.3450 C   0  0  0  0  0  0  0  0  0  0  0  0
  -30.3720  -12.7690   19.3860 C   0  0  0  0  0  2  0  0  0  0  0  0
  -29.4240  -12.6610   18.1690 C   0  0  0  0  0  2  0  0  0  0  0  0
  -27.9760  -12.4090   18.6260 C   0  0  0  0  0  2  0  0  0  0  0  0
  -27.5580  -13.3400   19.7930 C   0  0  0  0  0  3  0  0  0  0  0  0
  -28.6270  -13.4100   20.9020 C   0  0  0  0  0  2  0  0  0  0  0  0
  -29.8670  -13.8700   20.2640 N   0  0  0  0  0  0  0  0  0  0  0  0
  -31.6740  -15.1710   20.1160 O   0  0  0  0  0  0  0  0  0  0  0  0
  -29.6750  -16.3560   20.4150 N   0  0  0  0  0  0  0  0  0  0  0  0
  -28.6880  -16.1560   20.3460 H   0  0  0  0  0  0  0  0  0  0  0  0
  -25.1880  -13.8820   20.5820 C   0  0  0  0  0  0  0  0  0  0  0  0
  -24.1390  -13.0910   20.9570 C   0  0  0  0  0  0  0  0  0  0  0  0
  -24.6170  -11.7460   20.9030 C   0  0  0  0  0  0  0  0  0  0  0  0
  -26.2360  -13.0180   20.3140 N   0  0  0  0  0  0  0  0  0  0  0  0
  -25.9040  -11.7260   20.5760 N   0  0  0  0  0  0  0  0  0  0  0  0
  -23.9040  -10.4750   21.0840 C   0  0  0  0  0  0  0  0  0  0  0  0
  -24.3550   -9.4970   21.9970 C   0  0  0  0  0  3  0  0  0  0  0  0
  -23.6410   -8.2920   22.1680 C   0  0  0  0  0  3  0  0  0  0  0  0
  -22.4580   -8.0570   21.4260 C   0  0  0  0  0  0  0  0  0  0  0  0
  -22.0250   -9.0230   20.5010 C   0  0  0  0  0  3  0  0  0  0  0  0
  -22.7410  -10.2190   20.3280 C   0  0  0  0  0  3  0  0  0  0  0  0
  -21.7130   -6.9050   21.5080 O   0  0  0  0  0  0  0  0  0  0  0  0
  -21.6840   -6.1470   22.6510 C   0  0  0  0  0  0  0  0  0  0  0  0
  -21.2530   -6.6760   23.8870 C   0  0  0  0  0  3  0  0  0  0  0  0
  -21.1740   -5.8430   25.0200 C   0  0  0  0  0  3  0  0  0  0  0  0
  -21.5130   -4.4800   24.9200 C   0  0  0  0  0  0  0  0  0  0  0  0
  -21.9370   -3.9500   23.6870 C   0  0  0  0  0  3  0  0  0  0  0  0
  -22.0190   -4.7800   22.5560 C   0  0  0  0  0  0  0  0  0  0  0  0
  -22.4070   -4.2590   21.3680 F   0  0  0  0  0  0  0  0  0  0  0  0
  -21.4300   -3.6780   26.0060 F   0  0  0  0  0  0  0  0  0  0  0  0
  -22.7400  -13.5520   21.2470 C   0  0  0  0  0  0  0  0  0  0  0  0
  -22.0290  -12.8430   22.1150 N   0  0  0  0  0  0  0  0  0  0  0  0
  -22.2880  -14.5790   20.7400 O   0  0  0  0  0  0  0  0  0  0  0  0
  -22.4070  -12.0120   22.5460 H   0  0  0  0  0  0  0  0  0  0  0  0
  -21.0910  -13.1320   22.3520 H   0  0  0  0  0  0  0  0  0  0  0  0
  -25.3330  -15.2560   20.4150 N   0  0  0  0  0  0  0  0  0  0  0  0
  -24.5500  -15.8910   20.5240 H   0  0  0  0  0  0  0  0  0  0  0  0
  -26.1520  -15.7040   20.0240 H   0  0  0  0  0  0  0  0  0  0  0  0
  -28.9170  -23.2750   20.3350 C   0  0  0  0  0  0  0  0  0  0  0  0
  -28.6470  -21.8630   20.5360 N   0  0  0  0  0  0  0  0  0  0  0  0
  -30.0560  -23.6110   19.9980 O   0  0  0  0  0  0  0  0  0  0  0  0
  -27.6520  -21.6910   20.5890 H   0  0  0  0  0  0  0  0  0  0  0  0
  -27.8100  -24.5490   20.3880 C   0  0  0  0  0  2  0  0  0  0  0  0
  -28.1710  -26.1000   20.3560 O   0  0  0  0  0  0  0  0  0  0  0  0
  -24.6190  -31.9610   23.2650 C   0  0  0  0  0  0  0  0  0  0  0  0
  -27.1470  -27.1400   20.2890 C   0  0  0  0  0  0  0  0  0  0  0  0
  -23.4090  -30.5590   21.6420 C   0  0  0  0  0  3  0  0  0  0  0  0
  -24.8450  -28.9520   20.2320 C   0  0  0  0  0  0  0  0  0  0  0  0
  -25.9690  -30.7870   21.4750 C   0  0  0  0  0  2  0  0  0  0  0  0
  -26.0320  -29.3810   20.8400 C   0  0  0  0  0  0  0  0  0  0  0  0
  -27.1840  -28.4940   20.8460 C   0  0  0  0  0  3  0  0  0  0  0  0
  -25.9310  -26.8360   19.6350 C   0  0  0  0  0  3  0  0  0  0  0  0
  -24.8100  -27.6960   19.6130 C   0  0  0  0  0  3  0  0  0  0  0  0
  -23.6280  -29.8680   20.2700 C   0  0  0  0  0  2  0  0  0  0  0  0
  -24.6870  -31.1250   22.1830 N   0  0  0  0  0  0  0  0  0  0  0  0
  -23.5340  -32.2600   23.7880 O   0  0  0  0  0  0  0  0  0  0  0  0
  -22.7180  -29.5700   22.6140 C   0  0  0  0  0  0  0  0  0  0  0  0
  -21.3900  -29.3990   22.4790 N   0  0  0  0  0  0  0  0  0  0  0  0
  -23.3800  -28.9560   23.4530 O   0  0  0  0  0  0  0  0  0  0  0  0
  -20.9110  -29.9450   21.7770 H   0  0  0  0  0  0  0  0  0  0  0  0
  -18.0060  -28.1940   22.9660 C   0  0  0  0  0  0  0  0  0  0  0  0
  -20.5620  -28.4740   23.2580 C   0  0  0  0  0  3  0  0  0  0  0  0
  -20.6760  -27.0310   22.7140 C   0  0  0  0  0  2  0  0  0  0  0  0
  -19.5890  -26.6840   21.6930 C   0  0  0  0  0  2  0  0  0  0  0  0
  -18.1980  -26.8320   22.3170 C   0  0  0  0  0  2  0  0  0  0  0  0
  -19.1160  -28.9700   23.3930 C   0  0  0  0  0  0  0  0  0  0  0  0
  -18.8820  -30.2410   23.9620 C   0  0  0  0  0  3  0  0  0  0  0  0
  -17.5720  -30.7370   24.1050 C   0  0  0  0  0  3  0  0  0  0  0  0
  -16.4780  -29.9580   23.6920 C   0  0  0  0  0  3  0  0  0  0  0  0
  -16.6960  -28.6880   23.1280 C   0  0  0  0  0  3  0  0  0  0  0  0
  -25.8990  -32.5950   23.8870 C   0  0  0  0  0  3  0  0  0  0  0  0
  -25.5920  -33.9970   24.2170 N   0  0  0  0  0  0  0  0  0  0  0  0
  -25.9130  -35.0510   23.4550 C   0  0  0  0  0  0  0  0  0  0  0  0
  -26.5650  -34.9460   22.4130 O   0  0  0  0  0  0  0  0  0  0  0  0
  -25.0100  -34.1530   25.0270 H   0  0  0  0  0  0  0  0  0  0  0  0
  -24.1780  -36.8480   23.1390 C   0  0  0  0  0  1  0  0  0  0  0  0
  -25.4380  -36.4430   23.9210 C   0  0  0  0  0  3  0  0  0  0  0  0
  -27.5910  -37.3330   24.6980 C   0  0  0  0  0  1  0  0  0  0  0  0
  -26.4690  -37.4960   23.7790 N   0  0  0  0  0  0  0  0  0  0  0  0
  -26.0660  -38.4170   23.9310 H   0  0  0  0  0  0  0  0  0  0  0  0
  -26.4080  -31.8290   25.1700 C   0  0  1  0  0  0  0  0  0  0  0  0
  -25.3110  -31.6020   26.2360 C   0  0  0  0  0  1  0  0  0  0  0  0
  -26.9850  -30.4470   24.7900 C   0  0  0  0  0  1  0  0  0  0  0  0
  -27.5600  -32.6210   25.8300 C   0  0  0  0  0  1  0  0  0  0  0  0
  1  3  1  0
  2  4  1  0
  2  5  2  0
  3  7  1  0
  4  1  2  0
  5  6  1  0
  6  3  2  0
  6  8  1  0
  9 17  1  0
 10 15  1  0
 11 12  1  0
 11 10  1  0
 13 12  1  0
 13 22  1  0
 13 14  1  0
 15  9  1  0
 15 14  1  0
 16  9  2  0
 17  4  1  0
 18 17  1  0
 19 20  2  0
 20 39  1  0
 21 20  1  0
 21 24  1  0
 22 23  1  0
 22 19  1  0
 23 21  2  0
 24 25  1  0
 25 26  2  0
 27 30  1  0
 27 26  1  0
 28 27  2  0
 29 28  1  0
 29 24  2  0
 30 31  1  0
 31 32  1  0
 32 33  2  0
 34 33  1  0
 34 38  1  0
 35 34  2  0
 36 31  2  0
 36 35  1  0
 37 36  1  0
 39 40  1  0
 40 43  1  0
 40 42  1  0
 41 39  2  0
 44 45  1  0
 44 19  1  0
 46 44  1  0
 47 51  1  0
 47 48  1  0
 48 50  1  0
 48  5  1  0
 49 47  2  0
 52 51  1  0
 53 64  2  0
 54 52  1  0
 54 59  1  0
 55 63  1  0
 55 65  1  0
 56 62  1  0
 56 58  1  0
 57 63  1  0
 58 59  2  0
 58 57  1  0
 60 54  2  0
 61 60  1  0
 61 56  2  0
 62 55  1  0
 63 53  1  0
 65 67  2  0
 66 65  1  0
 68 66  1  0
 69 78  2  0
 69 74  1  0
 70 66  1  0
 70 74  1  0
 71 70  1  0
 72 73  1  0
 72 71  1  0
 73 69  1  0
 74 75  2  0
 75 76  1  0
 77 76  2  0
 78 77  1  0
 79 53  1  0
 79 80  1  0
 79 89  1  0
 80 83  1  0
 81 85  1  0
 81 80  1  0
 82 81  2  0
 85 84  1  0
 87 85  1  0
 87 88  1  0
 87 86  1  0
 89 92  1  1
 89 90  1  0
 91 89  1  0
M  ISO  4   9 100  17 100  51 101  52 101
M  END
>  <TORSDO>  (61) 
F 18

>  <SCORE>  (61) 
-14.857

>  <name>  (61) 
60

>  <ligand_id>  (61) 
60

>  <original_smiles>  (61) 
[H]c1c([H])c([H])c2c(c1[H])C([H])([H])C([H])([H])C([H])([H])C2([H])N([H])C(=O)C1([H])N(C(=O)C([H])(N([H])C(=O)C([H])(N([H])C([H])([H])[H])C([H])([H])[H])C(C([H])([H])[H])(C([H])([H])[H])C([H])([H])[H])C([H])([H])c2c([H])c(OC([H])([H])C(=O)N([H])c3c([H])c(N([H])C(=O)N4C([H])([H])C([H])([H])C([H])([H])C([H])(n5nc(-c6c([H])c([H])c(Oc7c([H])c([H])c(F)c([H])c7F)c([H])c6[H])c(C(=O)N([H])[H])c5N([H])[H])C4([H])[H])c([H])c(C([H])([H])[H])c3Cl)c([H])c([H])c2C1([H])[H]

>  <smiles>  (61) 
[H]c1c([H])c([H])c2c(c1[H])C([H])([H])C([H])([H])C([H])([H])C2([H])N([H])C(=O)C1([H])N(C(=O)C([H])(N([H])C(=O)C([H])(N([H])C([H])([H])[H])C([H])([H])[H])C(C([H])([H])[H])(C([H])([H])[H])C([H])([H])[H])C([H])([H])c2c([H])c(OC([H])([H])C(=O)N([H])c3c([H])c(N([H])C(=O)N4C([H])([H])C([H])([H])C([H])([H])C([H])(n5nc(-c6c([H])c([H])c(Oc7c([H])c([H])c(F)c([H])c7F)c([H])c6[H])c(C(=O)N([H])[H])c5N([H])[H])C4([H])[H])c([H])c(C([H])([H])[H])c3Cl)c([H])c([H])c2C1([H])[H]

$$$$
61:0:0
     RDKit          3D

 96104  0  0  1  0  0  0  0  0999 V2000
  -29.2580  -19.4680   19.7770 C   0  0  0  0  0  3  0  0  0  0  0  0
  -30.7560  -18.4060   21.8800 C   0  0  0  0  0  3  0  0  0  0  0  0
  -29.3210  -18.0510   19.9630 C   0  0  0  0  0  0  0  0  0  0  0  0
  -29.9160  -20.3890   20.6300 C   0  0  0  0  0  0  0  0  0  0  0  0
  -30.0910  -17.4860   21.0240 C   0  0  0  0  0  0  0  0  0  0  0  0
  -30.6770  -19.8210   21.6920 C   0  0  0  0  0  0  0  0  0  0  0  0
  -31.5690  -20.8470   22.7590 Cl  0  0  0  0  0  0  0  0  0  0  0  0
  -30.8930  -15.0280   21.1130 C   0  0  0  0  0  0  0  0  0  0  0  0
  -30.8500  -12.7680   20.0760 C   0  0  0  0  0  2  0  0  0  0  0  0
  -30.0200  -12.8530   18.7750 C   0  0  0  0  0  2  0  0  0  0  0  0
  -28.5130  -12.6880   19.0610 C   0  0  0  0  0  2  0  0  0  0  0  0
  -28.0240  -13.5540   20.2510 C   0  0  0  0  0  3  0  0  0  0  0  0
  -28.9750  -13.4230   21.4620 C   0  0  0  0  0  2  0  0  0  0  0  0
  -30.3250  -13.7860   21.0040 N   0  0  0  0  0  0  0  0  0  0  0  0
  -32.0900  -15.2160   20.8760 O   0  0  0  0  0  0  0  0  0  0  0  0
  -30.0090  -16.0540   21.3100 N   0  0  0  0  0  0  0  0  0  0  0  0
  -29.0610  -15.7160   21.3480 H   0  0  0  0  0  0  0  0  0  0  0  0
  -25.5680  -14.1310   20.7370 C   0  0  0  0  0  0  0  0  0  0  0  0
  -24.4790  -13.3480   21.0060 C   0  0  0  0  0  0  0  0  0  0  0  0
  -24.9580  -12.0020   21.0320 C   0  0  0  0  0  0  0  0  0  0  0  0
  -26.6390  -13.2620   20.6070 N   0  0  0  0  0  0  0  0  0  0  0  0
  -26.2720  -11.9780   20.8470 N   0  0  0  0  0  0  0  0  0  0  0  0
  -24.2330  -10.7320   21.1610 C   0  0  0  0  0  0  0  0  0  0  0  0
  -24.5870   -9.7770   22.1390 C   0  0  0  0  0  3  0  0  0  0  0  0
  -23.8630   -8.5710   22.2560 C   0  0  0  0  0  3  0  0  0  0  0  0
  -22.7710   -8.3130   21.3940 C   0  0  0  0  0  0  0  0  0  0  0  0
  -22.4380   -9.2570   20.4070 C   0  0  0  0  0  3  0  0  0  0  0  0
  -23.1630  -10.4540   20.2870 C   0  0  0  0  0  3  0  0  0  0  0  0
  -22.0260   -7.1590   21.4170 O   0  0  0  0  0  0  0  0  0  0  0  0
  -21.8590   -6.4330   22.5690 C   0  0  0  0  0  0  0  0  0  0  0  0
  -21.2760   -6.9960   23.7250 C   0  0  0  0  0  3  0  0  0  0  0  0
  -21.0600   -6.1960   24.8660 C   0  0  0  0  0  3  0  0  0  0  0  0
  -21.4150   -4.8340   24.8480 C   0  0  0  0  0  0  0  0  0  0  0  0
  -21.9920   -4.2710   23.6960 C   0  0  0  0  0  3  0  0  0  0  0  0
  -22.2100   -5.0680   22.5590 C   0  0  0  0  0  0  0  0  0  0  0  0
  -22.7460   -4.5160   21.4440 F   0  0  0  0  0  0  0  0  0  0  0  0
  -21.2010   -4.0630   25.9400 F   0  0  0  0  0  0  0  0  0  0  0  0
  -23.0570  -13.8080   21.1380 C   0  0  0  0  0  0  0  0  0  0  0  0
  -22.2640  -13.1270   21.9580 N   0  0  0  0  0  0  0  0  0  0  0  0
  -22.6500  -14.8080   20.5480 O   0  0  0  0  0  0  0  0  0  0  0  0
  -22.6050  -12.3190   22.4580 H   0  0  0  0  0  0  0  0  0  0  0  0
  -21.3060  -13.4180   22.0890 H   0  0  0  0  0  0  0  0  0  0  0  0
  -25.7320  -15.5010   20.5700 N   0  0  0  0  0  0  0  0  0  0  0  0
  -24.9480  -16.1420   20.5970 H   0  0  0  0  0  0  0  0  0  0  0  0
  -26.5940  -15.9390   20.2650 H   0  0  0  0  0  0  0  0  0  0  0  0
  -29.2410  -22.8330   20.8920 C   0  0  0  0  0  0  0  0  0  0  0  0
  -30.7260  -22.1230   19.0760 C   0  0  0  0  0  1  0  0  0  0  0  0
  -29.9450  -21.8130   20.2770 N   0  0  0  0  0  0  0  0  0  0  0  0
  -28.5180  -22.6040   21.8650 O   0  0  0  0  0  0  0  0  0  0  0  0
  -29.3430  -24.3310   20.3690 C   0  0  0  0  0  3  0  0  0  0  0  0
  -28.4160  -25.4470   21.0190 C   0  0  0  0  0  3  0  0  0  0  0  0
  -28.5490  -26.8450   20.5420 O   0  0  0  0  0  0  0  0  0  0  0  0
  -24.6260  -32.0940   23.5710 C   0  0  0  0  0  0  0  0  0  0  0  0
  -27.4040  -27.6500   20.5150 C   0  0  0  0  0  0  0  0  0  0  0  0
  -23.4920  -30.7070   21.8690 C   0  0  0  0  0  3  0  0  0  0  0  0
  -25.0090  -29.2050   20.4620 C   0  0  0  0  0  0  0  0  0  0  0  0
  -26.0280  -31.0760   21.7630 C   0  0  0  0  0  2  0  0  0  0  0  0
  -26.1510  -29.7110   21.0980 C   0  0  0  0  0  0  0  0  0  0  0  0
  -27.3530  -28.9460   21.1110 C   0  0  0  0  0  3  0  0  0  0  0  0
  -26.2430  -27.1930   19.8550 C   0  0  0  0  0  3  0  0  0  0  0  0
  -25.0560  -27.9520   19.8310 C   0  0  0  0  0  3  0  0  0  0  0  0
  -23.7570  -30.0580   20.4860 C   0  0  0  0  0  2  0  0  0  0  0  0
  -24.7320  -31.3080   22.4600 N   0  0  0  0  0  0  0  0  0  0  0  0
  -23.5240  -32.3450   24.0790 O   0  0  0  0  0  0  0  0  0  0  0  0
  -22.8170  -29.6650   22.7910 C   0  0  0  0  0  0  0  0  0  0  0  0
  -21.5110  -29.4280   22.5810 N   0  0  0  0  0  0  0  0  0  0  0  0
  -23.4700  -29.0720   23.6530 O   0  0  0  0  0  0  0  0  0  0  0  0
  -21.0440  -29.9620   21.8620 H   0  0  0  0  0  0  0  0  0  0  0  0
  -18.1670  -28.0810   22.8650 C   0  0  0  0  0  0  0  0  0  0  0  0
  -20.6870  -28.4580   23.3030 C   0  0  0  0  0  3  0  0  0  0  0  0
  -20.8920  -27.0310   22.7440 C   0  0  0  0  0  2  0  0  0  0  0  0
  -19.8750  -26.6540   21.6610 C   0  0  0  0  0  2  0  0  0  0  0  0
  -18.4480  -26.7390   22.2110 C   0  0  0  0  0  2  0  0  0  0  0  0
  -19.2180  -28.8950   23.3620 C   0  0  0  0  0  0  0  0  0  0  0  0
  -18.9040  -30.1490   23.9290 C   0  0  0  0  0  3  0  0  0  0  0  0
  -17.5700  -30.5910   24.0040 C   0  0  0  0  0  3  0  0  0  0  0  0
  -16.5310  -29.7750   23.5230 C   0  0  0  0  0  3  0  0  0  0  0  0
  -16.8300  -28.5220   22.9590 C   0  0  0  0  0  3  0  0  0  0  0  0
  -25.8810  -32.7320   24.2430 C   0  0  0  0  0  3  0  0  0  0  0  0
  -25.5690  -34.1410   24.5200 N   0  0  0  0  0  0  0  0  0  0  0  0
  -25.9380  -35.1700   23.7450 C   0  0  0  0  0  0  0  0  0  0  0  0
  -26.6470  -35.0310   22.7430 O   0  0  0  0  0  0  0  0  0  0  0  0
  -24.9440  -34.3230   25.2920 H   0  0  0  0  0  0  0  0  0  0  0  0
  -24.2220  -36.9510   23.2880 C   0  0  0  0  0  1  0  0  0  0  0  0
  -25.4430  -36.5740   24.1420 C   0  0  0  0  0  3  0  0  0  0  0  0
  -27.5570  -37.4860   24.9950 C   0  0  0  0  0  1  0  0  0  0  0  0
  -26.4810  -37.6200   24.0170 N   0  0  0  0  0  0  0  0  0  0  0  0
  -26.0730  -38.5460   24.1220 H   0  0  0  0  0  0  0  0  0  0  0  0
  -26.3220  -31.9910   25.5650 C   0  0  1  0  0  0  0  0  0  0  0  0
  -25.1600  -31.7370   26.5530 C   0  0  0  0  0  1  0  0  0  0  0  0
  -26.9690  -30.6250   25.2380 C   0  0  0  0  0  1  0  0  0  0  0  0
  -27.3990  -32.8240   26.2990 C   0  0  0  0  0  1  0  0  0  0  0  0
  -27.2240  -17.5020   18.8390 C   0  0  0  0  0  1  0  0  0  0  0  0
  -28.6370  -17.2000   19.0710 N   0  0  0  0  0  0  0  0  0  0  0  0
  -29.8610  -17.9590   17.0190 C   0  0  0  0  0  1  0  0  0  0  0  0
  -29.4280  -16.7870   17.9130 C   0  0  0  0  0  2  0  0  0  0  0  0
  1  3  2  0
  1  4  1  0
  3  5  1  0
  4  6  2  0
  5 16  1  0
  5  2  2  0
  6  2  1  0
  6  7  1  0
  8 16  1  0
  9 14  1  0
 10 11  1  0
 10  9  1  0
 12 11  1  0
 12 21  1  0
 12 13  1  0
 14  8  1  0
 14 13  1  0
 15  8  2  0
 16 17  1  0
 18 19  2  0
 19 20  1  0
 19 38  1  0
 20 23  1  0
 21 18  1  0
 21 22  1  0
 22 20  2  0
 23 24  1  0
 24 25  2  0
 26 29  1  0
 26 25  1  0
 27 26  2  0
 28 27  1  0
 28 23  2  0
 29 30  1  0
 30 31  1  0
 31 32  2  0
 33 32  1  0
 33 37  1  0
 34 33  2  0
 35 30  2  0
 35 34  1  0
 36 35  1  0
 38 39  1  0
 39 42  1  0
 39 41  1  0
 40 38  2  0
 43 44  1  0
 43 18  1  0
 45 43  1  0
 46 49  2  0
 47 48  1  0
 48  4  1  0
 48 46  1  0
 50 46  1  0
 50 51  2  0
 52 51  1  0
 53 64  2  0
 54 52  1  0
 54 59  1  0
 55 63  1  0
 55 65  1  0
 56 62  1  0
 56 58  1  0
 57 63  1  0
 58 59  2  0
 58 57  1  0
 60 54  2  0
 61 60  1  0
 61 56  2  0
 62 55  1  0
 63 53  1  0
 65 67  2  0
 66 65  1  0
 68 66  1  0
 69 78  2  0
 69 74  1  0
 70 66  1  0
 70 74  1  0
 71 70  1  0
 72 73  1  0
 72 71  1  0
 73 69  1  0
 74 75  2  0
 75 76  1  0
 77 76  2  0
 78 77  1  0
 79 53  1  0
 79 80  1  0
 79 89  1  0
 80 83  1  0
 81 85  1  0
 81 80  1  0
 82 81  2  0
 85 84  1  0
 87 88  1  0
 87 85  1  0
 87 86  1  0
 89 92  1  1
 89 90  1  0
 91 89  1  0
 93 94  1  0
 94  3  1  0
 95 96  1  0
 96 94  1  0
M  ISO  4   8 100  16 100  51 101  52 101
M  END
>  <TORSDO>  (62) 
F 21

>  <SCORE>  (62) 
-12.141

>  <name>  (62) 
61

>  <ligand_id>  (62) 
61

>  <original_smiles>  (62) 
[H]c1c([H])c([H])c2c(c1[H])C([H])([H])C([H])([H])C([H])([H])C2([H])N([H])C(=O)C1([H])N(C(=O)C([H])(N([H])C(=O)C([H])(N([H])C([H])([H])[H])C([H])([H])[H])C(C([H])([H])[H])(C([H])([H])[H])C([H])([H])[H])C([H])([H])c2c([H])c(OC([H])([H])C([H])([H])C(=O)N(c3c([H])c(N(C([H])([H])[H])C([H])([H])C([H])([H])[H])c(N([H])C(=O)N4C([H])([H])C([H])([H])C([H])([H])C([H])(n5nc(-c6c([H])c([H])c(Oc7c([H])c([H])c(F)c([H])c7F)c([H])c6[H])c(C(=O)N([H])[H])c5N([H])[H])C4([H])[H])c([H])c3Cl)C([H])([H])[H])c([H])c([H])c2C1([H])[H]

>  <smiles>  (62) 
[H]c1c([H])c([H])c2c(c1[H])C([H])([H])C([H])([H])C([H])([H])C2([H])N([H])C(=O)C1([H])N(C(=O)C([H])(N([H])C(=O)C([H])(N([H])C([H])([H])[H])C([H])([H])[H])C(C([H])([H])[H])(C([H])([H])[H])C([H])([H])[H])C([H])([H])c2c([H])c(OC([H])([H])C([H])([H])C(=O)N(c3c([H])c(N(C([H])([H])[H])C([H])([H])C([H])([H])[H])c(N([H])C(=O)N4C([H])([H])C([H])([H])C([H])([H])C([H])(n5nc(-c6c([H])c([H])c(Oc7c([H])c([H])c(F)c([H])c7F)c([H])c6[H])c(C(=O)N([H])[H])c5N([H])[H])C4([H])[H])c([H])c3Cl)C([H])([H])[H])c([H])c([H])c2C1([H])[H]

$$$$
62:0:0
     RDKit          3D

 91 99  0  0  1  0  0  0  0  0999 V2000
  -30.7330  -18.3730   19.3790 C   0  0  0  0  0  3  0  0  0  0  0  0
  -28.7260  -19.8680   20.5930 C   0  0  0  0  0  3  0  0  0  0  0  0
  -29.8210  -17.5790   20.1380 C   0  0  0  0  0  0  0  0  0  0  0  0
  -29.6270  -20.6790   19.8240 C   0  0  0  0  0  0  0  0  0  0  0  0
  -28.8140  -18.4170   20.7360 C   0  0  0  0  0  0  0  0  0  0  0  0
  -30.6370  -19.8160   19.2210 C   0  0  0  0  0  0  0  0  0  0  0  0
  -27.8700  -17.8040   21.4900 F   0  0  0  0  0  0  0  0  0  0  0  0
  -31.5750  -20.3630   18.4120 F   0  0  0  0  0  0  0  0  0  0  0  0
  -30.5400  -14.9260   19.8750 C   0  0  0  0  0  0  0  0  0  0  0  0
  -30.3270  -12.6050   18.8770 C   0  0  0  0  0  2  0  0  0  0  0  0
  -29.2930  -12.6070   17.7260 C   0  0  0  0  0  2  0  0  0  0  0  0
  -27.8740  -12.3870   18.2760 C   0  0  0  0  0  2  0  0  0  0  0  0
  -27.5700  -13.3030   19.4880 C   0  0  0  0  0  3  0  0  0  0  0  0
  -28.7040  -13.2640   20.5350 C   0  0  0  0  0  2  0  0  0  0  0  0
  -29.9440  -13.6670   19.8540 N   0  0  0  0  0  0  0  0  0  0  0  0
  -31.6910  -15.0290   19.4330 O   0  0  0  0  0  0  0  0  0  0  0  0
  -29.7790  -16.0490   20.2730 N   0  0  0  0  0  0  0  0  0  0  0  0
  -28.9370  -15.7470   20.7420 H   0  0  0  0  0  0  0  0  0  0  0  0
  -25.2510  -13.8990   20.4000 C   0  0  0  0  0  0  0  0  0  0  0  0
  -24.2070  -13.1280   20.8350 C   0  0  0  0  0  0  0  0  0  0  0  0
  -24.6550  -11.7740   20.7510 C   0  0  0  0  0  0  0  0  0  0  0  0
  -26.2660  -13.0150   20.0750 N   0  0  0  0  0  0  0  0  0  0  0  0
  -25.9200  -11.7310   20.3500 N   0  0  0  0  0  0  0  0  0  0  0  0
  -23.9340  -10.5140   20.9720 C   0  0  0  0  0  0  0  0  0  0  0  0
  -24.4080   -9.5400   21.8770 C   0  0  0  0  0  3  0  0  0  0  0  0
  -23.6840   -8.3460   22.0880 C   0  0  0  0  0  3  0  0  0  0  0  0
  -22.4730   -8.1180   21.3910 C   0  0  0  0  0  0  0  0  0  0  0  0
  -22.0180   -9.0800   20.4730 C   0  0  0  0  0  3  0  0  0  0  0  0
  -22.7420  -10.2660   20.2630 C   0  0  0  0  0  3  0  0  0  0  0  0
  -21.7180   -6.9760   21.5120 O   0  0  0  0  0  0  0  0  0  0  0  0
  -21.7070   -6.2390   22.6680 C   0  0  0  0  0  0  0  0  0  0  0  0
  -21.3180   -6.7990   23.9050 C   0  0  0  0  0  3  0  0  0  0  0  0
  -21.2550   -5.9890   25.0560 C   0  0  0  0  0  3  0  0  0  0  0  0
  -21.5700   -4.6190   24.9710 C   0  0  0  0  0  0  0  0  0  0  0  0
  -21.9540   -4.0590   23.7400 C   0  0  0  0  0  3  0  0  0  0  0  0
  -22.0180   -4.8670   22.5910 C   0  0  0  0  0  0  0  0  0  0  0  0
  -22.3670   -4.3170   21.4030 F   0  0  0  0  0  0  0  0  0  0  0  0
  -21.5020   -3.8390   26.0750 F   0  0  0  0  0  0  0  0  0  0  0  0
  -22.8360  -13.6120   21.2110 C   0  0  0  0  0  0  0  0  0  0  0  0
  -22.1660  -12.9100   22.1180 N   0  0  0  0  0  0  0  0  0  0  0  0
  -22.3720  -14.6460   20.7350 O   0  0  0  0  0  0  0  0  0  0  0  0
  -22.5570  -12.0710   22.5190 H   0  0  0  0  0  0  0  0  0  0  0  0
  -21.2510  -13.2170   22.4160 H   0  0  0  0  0  0  0  0  0  0  0  0
  -25.4170  -15.2710   20.2320 N   0  0  0  0  0  0  0  0  0  0  0  0
  -24.6690  -15.9300   20.4140 H   0  0  0  0  0  0  0  0  0  0  0  0
  -26.2440  -15.7050   19.8450 H   0  0  0  0  0  0  0  0  0  0  0  0
  -30.9170  -22.7360   19.4200 C   0  0  0  0  0  1  0  0  0  0  0  0
  -29.5830  -22.1780   19.6580 N   0  0  0  0  0  0  0  0  0  0  0  0
  -28.6440  -23.3080   20.1810 C   0  0  0  0  0  2  0  0  0  0  0  0
  -28.4440  -24.7760   19.3650 C   0  0  0  0  0  2  0  0  0  0  0  0
  -28.3990  -26.2210   19.9340 O   0  0  0  0  0  0  0  0  0  0  0  0
  -24.6920  -31.7380   23.0570 C   0  0  0  0  0  0  0  0  0  0  0  0
  -27.3050  -27.1570   19.8650 C   0  0  0  0  0  0  0  0  0  0  0  0
  -23.4990  -30.3800   21.3820 C   0  0  0  0  0  3  0  0  0  0  0  0
  -24.9530  -28.8650   19.9040 C   0  0  0  0  0  0  0  0  0  0  0  0
  -26.0470  -30.6820   21.2120 C   0  0  0  0  0  2  0  0  0  0  0  0
  -26.1300  -29.3100   20.5170 C   0  0  0  0  0  0  0  0  0  0  0  0
  -27.3030  -28.4700   20.4840 C   0  0  0  0  0  3  0  0  0  0  0  0
  -26.0950  -26.8070   19.2230 C   0  0  0  0  0  3  0  0  0  0  0  0
  -24.9470  -27.6270   19.2450 C   0  0  0  0  0  3  0  0  0  0  0  0
  -23.7200  -29.7500   19.9810 C   0  0  0  0  0  2  0  0  0  0  0  0
  -24.7650  -30.9530   21.9400 N   0  0  0  0  0  0  0  0  0  0  0  0
  -23.6060  -31.9950   23.6000 O   0  0  0  0  0  0  0  0  0  0  0  0
  -22.8380  -29.3360   22.3170 C   0  0  0  0  0  0  0  0  0  0  0  0
  -21.5100  -29.1640   22.2000 N   0  0  0  0  0  0  0  0  0  0  0  0
  -23.5220  -28.6840   23.1090 O   0  0  0  0  0  0  0  0  0  0  0  0
  -21.0180  -29.7500   21.5410 H   0  0  0  0  0  0  0  0  0  0  0  0
  -18.1340  -27.9530   22.7090 C   0  0  0  0  0  0  0  0  0  0  0  0
  -20.6980  -28.2000   22.9470 C   0  0  0  0  0  3  0  0  0  0  0  0
  -20.7860  -26.7920   22.3170 C   0  0  0  0  0  2  0  0  0  0  0  0
  -19.6670  -26.5090   21.3080 C   0  0  0  0  0  2  0  0  0  0  0  0
  -18.2960  -26.6300   21.9790 C   0  0  0  0  0  2  0  0  0  0  0  0
  -19.2620  -28.6970   23.1490 C   0  0  0  0  0  0  0  0  0  0  0  0
  -19.0550  -29.9340   23.7950 C   0  0  0  0  0  3  0  0  0  0  0  0
  -17.7540  -30.4280   24.0070 C   0  0  0  0  0  3  0  0  0  0  0  0
  -16.6410  -29.6810   23.5820 C   0  0  0  0  0  3  0  0  0  0  0  0
  -16.8320  -28.4460   22.9380 C   0  0  0  0  0  3  0  0  0  0  0  0
  -25.9660  -32.3680   23.6950 C   0  0  0  0  0  3  0  0  0  0  0  0
  -26.4880  -31.5710   24.9560 C   0  0  1  0  0  0  0  0  0  0  0  0
  -25.3970  -31.3040   26.0190 C   0  0  0  0  0  1  0  0  0  0  0  0
  -27.0810  -30.2080   24.5340 C   0  0  0  0  0  1  0  0  0  0  0  0
  -27.6320  -32.3580   25.6340 C   0  0  0  0  0  1  0  0  0  0  0  0
  -25.6440  -33.7550   24.0660 N   0  0  0  0  0  0  0  0  0  0  0  0
  -25.9720  -34.8360   23.3440 C   0  0  0  0  0  0  0  0  0  0  0  0
  -26.6470  -34.7690   22.3130 O   0  0  0  0  0  0  0  0  0  0  0  0
  -25.0470  -33.8790   24.8700 H   0  0  0  0  0  0  0  0  0  0  0  0
  -24.2330  -36.6300   23.0470 C   0  0  0  0  0  1  0  0  0  0  0  0
  -25.4760  -36.2070   23.8470 C   0  0  0  0  0  3  0  0  0  0  0  0
  -27.6030  -37.0840   24.7060 C   0  0  0  0  0  1  0  0  0  0  0  0
  -26.5010  -37.2700   23.7660 N   0  0  0  0  0  0  0  0  0  0  0  0
  -26.0900  -38.1840   23.9360 H   0  0  0  0  0  0  0  0  0  0  0  0
  1  3  1  0
  2  5  1  0
  3 17  1  0
  3  5  2  0
  4  2  2  0
  5  7  1  0
  6  1  2  0
  6  4  1  0
  8  6  1  0
  9 17  1  0
 10 15  1  0
 11 12  1  0
 11 10  1  0
 13 12  1  0
 13 22  1  0
 13 14  1  0
 15  9  1  0
 15 14  1  0
 16  9  2  0
 17 18  1  0
 19 20  2  0
 20 39  1  0
 21 20  1  0
 21 24  1  0
 22 23  1  0
 22 19  1  0
 23 21  2  0
 24 25  1  0
 25 26  2  0
 27 30  1  0
 27 26  1  0
 28 27  2  0
 29 28  1  0
 29 24  2  0
 30 31  1  0
 31 32  1  0
 32 33  2  0
 34 33  1  0
 34 38  1  0
 35 34  2  0
 36 31  2  0
 36 35  1  0
 37 36  1  0
 39 40  1  0
 40 43  1  0
 40 42  1  0
 41 39  2  0
 44 19  1  0
 44 45  1  0
 46 44  1  0
 47 48  1  0
 48  4  1  0
 48 49  1  0
 50 51  1  0
 50 49  1  0
 52 63  2  0
 53 51  1  0
 53 58  1  0
 54 62  1  0
 54 64  1  0
 55 61  1  0
 55 57  1  0
 56 62  1  0
 57 56  1  0
 58 57  2  0
 59 60  1  0
 59 53  2  0
 60 55  2  0
 61 54  1  0
 62 52  1  0
 64 66  2  0
 65 64  1  0
 67 65  1  0
 68 77  2  0
 68 73  1  0
 69 65  1  0
 69 73  1  0
 70 69  1  0
 71 72  1  0
 71 70  1  0
 72 68  1  0
 73 74  2  0
 74 75  1  0
 76 75  2  0
 77 76  1  0
 78 52  1  0
 78 83  1  0
 78 79  1  0
 79 82  1  1
 79 80  1  0
 81 79  1  0
 83 86  1  0
 84 88  1  0
 84 83  1  0
 85 84  2  0
 88 87  1  0
 90 88  1  0
 90 91  1  0
 90 89  1  0
M  ISO  4   9 100  17 100  50 101  51 101
M  END
>  <TORSDO>  (63) 
F 19

>  <SCORE>  (63) 
-13.018

>  <name>  (63) 
62

>  <ligand_id>  (63) 
62

>  <original_smiles>  (63) 
[H]c1c([H])c([H])c2c(c1[H])C([H])([H])C([H])([H])C([H])([H])C2([H])N([H])C(=O)C1([H])N(C(=O)C([H])(N([H])C(=O)C([H])(N([H])C([H])([H])[H])C([H])([H])[H])C(C([H])([H])[H])(C([H])([H])[H])C([H])([H])[H])C([H])([H])c2c([H])c(OC([H])([H])C([H])([H])N(c3c([H])c(F)c(N([H])C(=O)N4C([H])([H])C([H])([H])C([H])([H])C([H])(n5nc(-c6c([H])c([H])c(Oc7c([H])c([H])c(F)c([H])c7F)c([H])c6[H])c(C(=O)N([H])[H])c5N([H])[H])C4([H])[H])c([H])c3F)C([H])([H])[H])c([H])c([H])c2C1([H])[H]

>  <smiles>  (63) 
[H]c1c([H])c([H])c2c(c1[H])C([H])([H])C([H])([H])C([H])([H])C2([H])N([H])C(=O)C1([H])N(C(=O)C([H])(N([H])C(=O)C([H])(N([H])C([H])([H])[H])C([H])([H])[H])C(C([H])([H])[H])(C([H])([H])[H])C([H])([H])[H])C([H])([H])c2c([H])c(OC([H])([H])C([H])([H])N(c3c([H])c(F)c(N([H])C(=O)N4C([H])([H])C([H])([H])C([H])([H])C([H])(n5nc(-c6c([H])c([H])c(Oc7c([H])c([H])c(F)c([H])c7F)c([H])c6[H])c(C(=O)N([H])[H])c5N([H])[H])C4([H])[H])c([H])c3F)C([H])([H])[H])c([H])c([H])c2C1([H])[H]

$$$$
63:0:0
     RDKit          3D

 93101  0  0  1  0  0  0  0  0999 V2000
  -29.6890  -17.1800   18.5790 C   0  0  0  0  0  3  0  0  0  0  0  0
  -30.0190  -17.2580   19.9470 C   0  0  0  0  0  0  0  0  0  0  0  0
  -29.7460  -19.8180   19.7770 C   0  0  0  0  0  0  0  0  0  0  0  0
  -29.3660  -18.3280   17.8350 C   0  0  0  0  0  0  0  0  0  0  0  0
  -29.3860  -19.6170   18.4140 C   0  0  0  0  0  0  0  0  0  0  0  0
  -30.0370  -18.5950   20.5290 C   0  0  0  0  0  0  0  0  0  0  0  0
  -29.0050  -18.1930   16.5360 F   0  0  0  0  0  0  0  0  0  0  0  0
  -29.0400  -20.6510   17.6110 F   0  0  0  0  0  0  0  0  0  0  0  0
  -30.4060  -18.7410   22.2110 Cl  0  0  0  0  0  0  0  0  0  0  0  0
  -30.9090  -14.8630   20.3230 C   0  0  0  0  0  0  0  0  0  0  0  0
  -30.6850  -12.5780   19.3560 C   0  0  0  0  0  2  0  0  0  0  0  0
  -29.7510  -12.6860   18.1310 C   0  0  0  0  0  2  0  0  0  0  0  0
  -28.2810  -12.5360   18.5610 C   0  0  0  0  0  2  0  0  0  0  0  0
  -27.9240  -13.4070   19.7960 C   0  0  0  0  0  3  0  0  0  0  0  0
  -28.9860  -13.2990   20.9100 C   0  0  0  0  0  2  0  0  0  0  0  0
  -30.2900  -13.6310   20.3200 N   0  0  0  0  0  0  0  0  0  0  0  0
  -32.0600  -14.9800   19.8920 O   0  0  0  0  0  0  0  0  0  0  0  0
  -30.1770  -15.9790   20.6810 N   0  0  0  0  0  0  0  0  0  0  0  0
  -29.4350  -15.7880   21.3360 H   0  0  0  0  0  0  0  0  0  0  0  0
  -25.5390  -13.9900   20.5510 C   0  0  0  0  0  0  0  0  0  0  0  0
  -24.4750  -13.2110   20.9160 C   0  0  0  0  0  0  0  0  0  0  0  0
  -24.9320  -11.8590   20.8470 C   0  0  0  0  0  0  0  0  0  0  0  0
  -26.5820  -13.1130   20.2880 N   0  0  0  0  0  0  0  0  0  0  0  0
  -26.2190  -11.8250   20.5240 N   0  0  0  0  0  0  0  0  0  0  0  0
  -24.2010  -10.5960   21.0230 C   0  0  0  0  0  0  0  0  0  0  0  0
  -24.6110   -9.6310   21.9680 C   0  0  0  0  0  3  0  0  0  0  0  0
  -23.8820   -8.4340   22.1330 C   0  0  0  0  0  3  0  0  0  0  0  0
  -22.7250   -8.1930   21.3550 C   0  0  0  0  0  0  0  0  0  0  0  0
  -22.3330   -9.1490   20.3990 C   0  0  0  0  0  3  0  0  0  0  0  0
  -23.0610  -10.3390   20.2330 C   0  0  0  0  0  3  0  0  0  0  0  0
  -21.9710   -7.0470   21.4260 O   0  0  0  0  0  0  0  0  0  0  0  0
  -21.8530   -6.3340   22.5920 C   0  0  0  0  0  0  0  0  0  0  0  0
  -21.2930   -6.8970   23.7590 C   0  0  0  0  0  3  0  0  0  0  0  0
  -21.1230   -6.1040   24.9100 C   0  0  0  0  0  3  0  0  0  0  0  0
  -21.5040   -4.7490   24.8980 C   0  0  0  0  0  0  0  0  0  0  0  0
  -22.0580   -4.1860   23.7370 C   0  0  0  0  0  3  0  0  0  0  0  0
  -22.2280   -4.9750   22.5850 C   0  0  0  0  0  0  0  0  0  0  0  0
  -22.7390   -4.4210   21.4590 F   0  0  0  0  0  0  0  0  0  0  0  0
  -21.3350   -3.9870   26.0050 F   0  0  0  0  0  0  0  0  0  0  0  0
  -23.0850  -13.6880   21.2150 C   0  0  0  0  0  0  0  0  0  0  0  0
  -22.3650  -12.9770   22.0760 N   0  0  0  0  0  0  0  0  0  0  0  0
  -22.6490  -14.7280   20.7270 O   0  0  0  0  0  0  0  0  0  0  0  0
  -22.7340  -12.1360   22.4960 H   0  0  0  0  0  0  0  0  0  0  0  0
  -21.4360  -13.2800   22.3240 H   0  0  0  0  0  0  0  0  0  0  0  0
  -25.6990  -15.3640   20.3980 N   0  0  0  0  0  0  0  0  0  0  0  0
  -24.9270  -16.0060   20.5410 H   0  0  0  0  0  0  0  0  0  0  0  0
  -26.5320  -15.8220   20.0520 H   0  0  0  0  0  0  0  0  0  0  0  0
  -29.8230  -21.1610   20.3510 N   0  0  0  0  0  0  0  0  0  0  0  0
  -30.1370  -21.1910   21.3170 H   0  0  0  0  0  0  0  0  0  0  0  0
  -29.1410  -22.4190   19.8350 C   0  0  0  0  0  2  0  0  0  0  0  0
  -29.4050  -23.8660   20.5100 C   0  0  0  0  0  3  0  0  0  0  0  0
  -28.4320  -25.0790   20.0750 C   0  0  0  0  0  3  0  0  0  0  0  0
  -28.6240  -26.5140   20.4760 O   0  0  0  0  0  0  0  0  0  0  0  0
  -24.7540  -31.9260   23.3590 C   0  0  0  0  0  0  0  0  0  0  0  0
  -27.5250  -27.3990   20.3600 C   0  0  0  0  0  0  0  0  0  0  0  0
  -23.6290  -30.5270   21.6660 C   0  0  0  0  0  3  0  0  0  0  0  0
  -25.1510  -29.0160   20.2710 C   0  0  0  0  0  0  0  0  0  0  0  0
  -26.1720  -30.8760   21.5730 C   0  0  0  0  0  2  0  0  0  0  0  0
  -26.2940  -29.5010   20.9210 C   0  0  0  0  0  0  0  0  0  0  0  0
  -27.4810  -28.7040   20.9600 C   0  0  0  0  0  3  0  0  0  0  0  0
  -26.3660  -27.0000   19.6500 C   0  0  0  0  0  3  0  0  0  0  0  0
  -25.1940  -27.7760   19.6200 C   0  0  0  0  0  3  0  0  0  0  0  0
  -23.9010  -29.8730   20.2870 C   0  0  0  0  0  2  0  0  0  0  0  0
  -24.8690  -31.1290   22.2560 N   0  0  0  0  0  0  0  0  0  0  0  0
  -23.6500  -32.1780   23.8620 O   0  0  0  0  0  0  0  0  0  0  0  0
  -22.9490  -29.4890   22.5940 C   0  0  0  0  0  0  0  0  0  0  0  0
  -21.6280  -29.2960   22.4270 N   0  0  0  0  0  0  0  0  0  0  0  0
  -23.6090  -28.8650   23.4280 O   0  0  0  0  0  0  0  0  0  0  0  0
  -21.1530  -29.8460   21.7240 H   0  0  0  0  0  0  0  0  0  0  0  0
  -18.2440  -28.0950   22.8580 C   0  0  0  0  0  0  0  0  0  0  0  0
  -20.8000  -28.3420   23.1670 C   0  0  0  0  0  3  0  0  0  0  0  0
  -20.9100  -26.9260   22.5590 C   0  0  0  0  0  2  0  0  0  0  0  0
  -19.8210  -26.6290   21.5250 C   0  0  0  0  0  2  0  0  0  0  0  0
  -18.4290  -26.7620   22.1520 C   0  0  0  0  0  2  0  0  0  0  0  0
  -19.3590  -28.8430   23.3220 C   0  0  0  0  0  0  0  0  0  0  0  0
  -19.1330  -30.0900   23.9450 C   0  0  0  0  0  3  0  0  0  0  0  0
  -17.8280  -30.5920   24.1060 C   0  0  0  0  0  3  0  0  0  0  0  0
  -16.7270  -29.8400   23.6590 C   0  0  0  0  0  3  0  0  0  0  0  0
  -16.9350  -28.5920   23.0420 C   0  0  0  0  0  3  0  0  0  0  0  0
  -26.0040  -32.5760   24.0260 C   0  0  0  0  0  3  0  0  0  0  0  0
  -26.4620  -31.8290   25.3390 C   0  0  1  0  0  0  0  0  0  0  0  0
  -25.3120  -31.5830   26.3440 C   0  0  0  0  0  1  0  0  0  0  0  0
  -27.0860  -30.4570   24.9950 C   0  0  0  0  0  1  0  0  0  0  0  0
  -27.5570  -32.6500   26.0560 C   0  0  0  0  0  1  0  0  0  0  0  0
  -25.6750  -33.9790   24.3190 N   0  0  0  0  0  0  0  0  0  0  0  0
  -25.9930  -35.0160   23.5310 C   0  0  0  0  0  0  0  0  0  0  0  0
  -26.6640  -34.8890   22.5030 O   0  0  0  0  0  0  0  0  0  0  0  0
  -25.0840  -34.1470   25.1200 H   0  0  0  0  0  0  0  0  0  0  0  0
  -24.2240  -36.7630   23.1510 C   0  0  0  0  0  1  0  0  0  0  0  0
  -25.4900  -36.4110   23.9500 C   0  0  0  0  0  3  0  0  0  0  0  0
  -27.6140  -37.3730   24.7180 C   0  0  0  0  0  1  0  0  0  0  0  0
  -26.5000  -37.4780   23.7800 N   0  0  0  0  0  0  0  0  0  0  0  0
  -26.0780  -38.3960   23.8900 H   0  0  0  0  0  0  0  0  0  0  0  0
  1  2  1  0
  2  6  2  0
  2 18  1  0
  3 48  1  0
  3  6  1  0
  4  5  1  0
  4  1  2  0
  5  3  2  0
  6  9  1  0
  7  4  1  0
  8  5  1  0
 10 18  1  0
 11 16  1  0
 12 13  1  0
 12 11  1  0
 14 13  1  0
 14 23  1  0
 14 15  1  0
 16 10  1  0
 16 15  1  0
 17 10  2  0
 18 19  1  0
 20 21  2  0
 21 40  1  0
 22 21  1  0
 22 25  1  0
 23 24  1  0
 23 20  1  0
 24 22  2  0
 25 26  1  0
 26 27  2  0
 28 31  1  0
 28 27  1  0
 29 28  2  0
 30 29  1  0
 30 25  2  0
 31 32  1  0
 32 33  1  0
 33 34  2  0
 35 34  1  0
 35 39  1  0
 36 35  2  0
 37 32  2  0
 37 36  1  0
 38 37  1  0
 40 41  1  0
 41 44  1  0
 41 43  1  0
 42 40  2  0
 45 46  1  0
 45 20  1  0
 47 45  1  0
 48 49  1  0
 50 48  1  0
 50 51  1  0
 52 53  1  0
 52 51  2  0
 54 65  2  0
 55 53  1  0
 55 60  1  0
 56 64  1  0
 56 66  1  0
 57 63  1  0
 57 59  1  0
 58 64  1  0
 59 60  2  0
 59 58  1  0
 61 55  2  0
 62 61  1  0
 62 57  2  0
 63 56  1  0
 64 54  1  0
 66 68  2  0
 67 66  1  0
 69 67  1  0
 70 79  2  0
 70 75  1  0
 71 67  1  0
 71 75  1  0
 72 71  1  0
 73 74  1  0
 73 72  1  0
 74 70  1  0
 75 76  2  0
 76 77  1  0
 78 77  2  0
 79 78  1  0
 80 54  1  0
 80 85  1  0
 80 81  1  0
 81 84  1  1
 81 82  1  0
 83 81  1  0
 85 88  1  0
 86 90  1  0
 86 85  1  0
 87 86  2  0
 90 89  1  0
 92 93  1  0
 92 90  1  0
 92 91  1  0
M  ISO  4  10 100  18 100  52 101  53 101
M  END
>  <TORSDO>  (64) 
F 20

>  <SCORE>  (64) 
-13.357

>  <name>  (64) 
63

>  <ligand_id>  (64) 
63

>  <original_smiles>  (64) 
[H]c1c([H])c([H])c2c(c1[H])C([H])([H])C([H])([H])C([H])([H])C2([H])N([H])C(=O)C1([H])N(C(=O)C([H])(N([H])C(=O)C([H])(N([H])C([H])([H])[H])C([H])([H])[H])C(C([H])([H])[H])(C([H])([H])[H])C([H])([H])[H])C([H])([H])c2c([H])c(OC([H])([H])C([H])([H])C([H])([H])N([H])c3c(F)c(F)c([H])c(N([H])C(=O)N4C([H])([H])C([H])([H])C([H])([H])C([H])(n5nc(-c6c([H])c([H])c(Oc7c([H])c([H])c(F)c([H])c7F)c([H])c6[H])c(C(=O)N([H])[H])c5N([H])[H])C4([H])[H])c3Cl)c([H])c([H])c2C1([H])[H]

>  <smiles>  (64) 
[H]c1c([H])c([H])c2c(c1[H])C([H])([H])C([H])([H])C([H])([H])C2([H])N([H])C(=O)C1([H])N(C(=O)C([H])(N([H])C(=O)C([H])(N([H])C([H])([H])[H])C([H])([H])[H])C(C([H])([H])[H])(C([H])([H])[H])C([H])([H])[H])C([H])([H])c2c([H])c(OC([H])([H])C([H])([H])C([H])([H])N([H])c3c(F)c(F)c([H])c(N([H])C(=O)N4C([H])([H])C([H])([H])C([H])([H])C([H])(n5nc(-c6c([H])c([H])c(Oc7c([H])c([H])c(F)c([H])c7F)c([H])c6[H])c(C(=O)N([H])[H])c5N([H])[H])C4([H])[H])c3Cl)c([H])c([H])c2C1([H])[H]

$$$$
64:0:0
     RDKit          3D

 96104  0  0  1  0  0  0  0  0999 V2000
  -30.6520  -20.6350   21.4980 C   0  0  0  0  0  0  0  0  0  0  0  0
  -30.3640  -21.8780   21.0420 N   0  0  0  0  0  0  0  0  0  0  0  0
  -31.2220  -20.4530   22.5780 O   0  0  0  0  0  0  0  0  0  0  0  0
  -29.8570  -21.9400   20.1730 H   0  0  0  0  0  0  0  0  0  0  0  0
  -29.9060  -19.6230   19.2820 C   0  0  0  0  0  3  0  0  0  0  0  0
  -29.5770  -18.5140   18.4730 C   0  0  0  0  0  3  0  0  0  0  0  0
  -30.3050  -18.1120   21.1500 C   0  0  0  0  0  3  0  0  0  0  0  0
  -30.2710  -19.4430   20.6340 C   0  0  0  0  0  0  0  0  0  0  0  0
  -29.5920  -17.1990   18.9950 C   0  0  0  0  0  0  0  0  0  0  0  0
  -29.9740  -16.9850   20.3480 C   0  0  0  0  0  0  0  0  0  0  0  0
  -30.6740  -14.6350   20.8470 C   0  0  0  0  0  0  0  0  0  0  0  0
  -30.5450  -12.3530   19.9560 C   0  0  0  0  0  2  0  0  0  0  0  0
  -29.7110  -12.4270   18.6580 C   0  0  0  0  0  2  0  0  0  0  0  0
  -28.1980  -12.3120   18.9580 C   0  0  0  0  0  2  0  0  0  0  0  0
  -27.7350  -13.2180   20.1330 C   0  0  0  0  0  3  0  0  0  0  0  0
  -28.7050  -13.1350   21.3330 C   0  0  0  0  0  2  0  0  0  0  0  0
  -30.0610  -13.4200   20.8400 N   0  0  0  0  0  0  0  0  0  0  0  0
  -31.8700  -14.7830   20.5980 O   0  0  0  0  0  0  0  0  0  0  0  0
  -29.8310  -15.6880   20.9460 N   0  0  0  0  0  0  0  0  0  0  0  0
  -28.8790  -15.4240   21.1270 H   0  0  0  0  0  0  0  0  0  0  0  0
  -25.2900  -13.8010   20.6840 C   0  0  0  0  0  0  0  0  0  0  0  0
  -24.2050  -13.0210   20.9850 C   0  0  0  0  0  0  0  0  0  0  0  0
  -24.6810  -11.6740   21.0130 C   0  0  0  0  0  0  0  0  0  0  0  0
  -26.3540  -12.9270   20.5290 N   0  0  0  0  0  0  0  0  0  0  0  0
  -25.9910  -11.6480   20.7950 N   0  0  0  0  0  0  0  0  0  0  0  0
  -23.9600  -10.4040   21.1730 C   0  0  0  0  0  0  0  0  0  0  0  0
  -24.3450   -9.4400   22.1320 C   0  0  0  0  0  3  0  0  0  0  0  0
  -23.6210   -8.2350   22.2690 C   0  0  0  0  0  3  0  0  0  0  0  0
  -22.4910   -7.9880   21.4530 C   0  0  0  0  0  0  0  0  0  0  0  0
  -22.1250   -8.9380   20.4840 C   0  0  0  0  0  3  0  0  0  0  0  0
  -22.8520  -10.1350   20.3430 C   0  0  0  0  0  3  0  0  0  0  0  0
  -21.7440   -6.8340   21.5000 O   0  0  0  0  0  0  0  0  0  0  0  0
  -21.6480   -6.0890   22.6460 C   0  0  0  0  0  0  0  0  0  0  0  0
  -21.1490   -6.6300   23.8530 C   0  0  0  0  0  3  0  0  0  0  0  0
  -21.0030   -5.8060   24.9840 C   0  0  0  0  0  3  0  0  0  0  0  0
  -21.3480   -4.4430   24.9160 C   0  0  0  0  0  0  0  0  0  0  0  0
  -21.8430   -3.9020   23.7150 C   0  0  0  0  0  3  0  0  0  0  0  0
  -21.9900   -4.7220   22.5830 C   0  0  0  0  0  0  0  0  0  0  0  0
  -22.4470   -4.1910   21.4240 F   0  0  0  0  0  0  0  0  0  0  0  0
  -21.2030   -3.6500   26.0030 F   0  0  0  0  0  0  0  0  0  0  0  0
  -22.7810  -13.4830   21.1590 C   0  0  0  0  0  0  0  0  0  0  0  0
  -22.0030  -12.7900   21.9840 N   0  0  0  0  0  0  0  0  0  0  0  0
  -22.3720  -14.4990   20.6020 O   0  0  0  0  0  0  0  0  0  0  0  0
  -22.3380  -11.9670   22.4650 H   0  0  0  0  0  0  0  0  0  0  0  0
  -21.0470  -13.0810   22.1390 H   0  0  0  0  0  0  0  0  0  0  0  0
  -25.4730  -15.1740   20.5230 N   0  0  0  0  0  0  0  0  0  0  0  0
  -24.7150  -15.8360   20.6570 H   0  0  0  0  0  0  0  0  0  0  0  0
  -26.3810  -15.6190   20.4430 H   0  0  0  0  0  0  0  0  0  0  0  0
  -29.1820  -16.1550   18.1600 N   0  0  0  0  0  0  0  0  0  0  0  0
  -29.0200  -16.3500   17.1720 H   0  0  0  0  0  0  0  0  0  0  0  0
  -29.5550  -15.2240   18.3070 H   0  0  0  0  0  0  0  0  0  0  0  0
  -30.9140  -23.1330   21.5990 C   0  0  0  0  0  2  0  0  0  0  0  0
  -30.1310  -24.4610   21.3050 C   0  0  0  0  0  3  0  0  0  0  0  0
  -29.8870  -24.8610   19.8200 C   0  0  0  0  0  3  0  0  0  0  0  0
  -29.3770  -26.3210   19.5630 C   0  0  0  0  0  2  0  0  0  0  0  0
  -28.2970  -26.6210   20.4420 O   0  0  0  0  0  0  0  0  0  0  0  0
  -24.5560  -31.8900   23.2280 C   0  0  0  0  0  0  0  0  0  0  0  0
  -27.2490  -27.4710   20.1430 C   0  0  0  0  0  0  0  0  0  0  0  0
  -23.3580  -30.4920   21.5730 C   0  0  0  0  0  3  0  0  0  0  0  0
  -24.8310  -28.9660   20.1320 C   0  0  0  0  0  0  0  0  0  0  0  0
  -25.8810  -30.8620   21.3840 C   0  0  0  0  0  2  0  0  0  0  0  0
  -25.9810  -29.4970   20.7290 C   0  0  0  0  0  0  0  0  0  0  0  0
  -27.1880  -28.7530   20.7390 C   0  0  0  0  0  3  0  0  0  0  0  0
  -26.0870  -26.9590   19.5260 C   0  0  0  0  0  3  0  0  0  0  0  0
  -24.8830  -27.7000   19.5170 C   0  0  0  0  0  3  0  0  0  0  0  0
  -23.5750  -29.8100   20.1920 C   0  0  0  0  0  2  0  0  0  0  0  0
  -24.6150  -31.0990   22.1200 N   0  0  0  0  0  0  0  0  0  0  0  0
  -23.4750  -32.1590   23.7690 O   0  0  0  0  0  0  0  0  0  0  0  0
  -22.7020  -29.4740   22.5360 C   0  0  0  0  0  0  0  0  0  0  0  0
  -21.3750  -29.2900   22.4080 N   0  0  0  0  0  0  0  0  0  0  0  0
  -23.3820  -28.8500   23.3550 O   0  0  0  0  0  0  0  0  0  0  0  0
  -20.8870  -29.8410   21.7150 H   0  0  0  0  0  0  0  0  0  0  0  0
  -18.0040  -28.0810   22.9010 C   0  0  0  0  0  0  0  0  0  0  0  0
  -20.5600  -28.3500   23.1800 C   0  0  0  0  0  3  0  0  0  0  0  0
  -20.6710  -26.9200   22.6050 C   0  0  0  0  0  2  0  0  0  0  0  0
  -19.5750  -26.5930   21.5880 C   0  0  0  0  0  2  0  0  0  0  0  0
  -18.1890  -26.7330   22.2240 C   0  0  0  0  0  2  0  0  0  0  0  0
  -19.1170  -28.8480   23.3350 C   0  0  0  0  0  0  0  0  0  0  0  0
  -18.8930  -30.1100   23.9250 C   0  0  0  0  0  3  0  0  0  0  0  0
  -17.5840  -30.6050   24.0900 C   0  0  0  0  0  3  0  0  0  0  0  0
  -16.4850  -29.8350   23.6740 C   0  0  0  0  0  3  0  0  0  0  0  0
  -16.6960  -28.5750   23.0840 C   0  0  0  0  0  3  0  0  0  0  0  0
  -25.8390  -32.5250   23.8500 C   0  0  0  0  0  3  0  0  0  0  0  0
  -25.5390  -33.9260   24.1740 N   0  0  0  0  0  0  0  0  0  0  0  0
  -25.8840  -34.9720   23.4120 C   0  0  0  0  0  0  0  0  0  0  0  0
  -26.5650  -34.8600   22.3880 O   0  0  0  0  0  0  0  0  0  0  0  0
  -24.9420  -34.0880   24.9710 H   0  0  0  0  0  0  0  0  0  0  0  0
  -24.1850  -36.7840   23.0170 C   0  0  0  0  0  1  0  0  0  0  0  0
  -25.4020  -36.3660   23.8590 C   0  0  0  0  0  3  0  0  0  0  0  0
  -27.5250  -37.2330   24.7400 C   0  0  0  0  0  1  0  0  0  0  0  0
  -26.4470  -37.4100   23.7700 N   0  0  0  0  0  0  0  0  0  0  0  0
  -26.0450  -38.3340   23.9080 H   0  0  0  0  0  0  0  0  0  0  0  0
  -26.3550  -31.7600   25.1300 C   0  0  1  0  0  0  0  0  0  0  0  0
  -25.2660  -31.5290   26.2030 C   0  0  0  0  0  1  0  0  0  0  0  0
  -26.9320  -30.3750   24.7450 C   0  0  0  0  0  1  0  0  0  0  0  0
  -27.5100  -32.5500   25.7890 C   0  0  0  0  0  1  0  0  0  0  0  0
  1  3  2  0
  2  1  1  0
  2 52  1  0
  4  2  1  0
  5  8  1  0
  6  9  1  0
  6  5  2  0
  8  7  2  0
  8  1  1  0
  9 10  2  0
 10 19  1  0
 10  7  1  0
 11 19  1  0
 12 17  1  0
 13 14  1  0
 13 12  1  0
 15 14  1  0
 15 24  1  0
 15 16  1  0
 17 11  1  0
 17 16  1  0
 18 11  2  0
 19 20  1  0
 21 22  2  0
 22 23  1  0
 22 41  1  0
 23 26  1  0
 24 21  1  0
 24 25  1  0
 25 23  2  0
 26 27  1  0
 27 28  2  0
 29 32  1  0
 29 28  1  0
 30 29  2  0
 31 30  1  0
 31 26  2  0
 32 33  1  0
 33 34  1  0
 34 35  2  0
 36 35  1  0
 36 40  1  0
 37 36  2  0
 38 33  2  0
 38 37  1  0
 39 38  1  0
 41 42  1  0
 42 45  1  0
 42 44  1  0
 43 41  2  0
 46 47  1  0
 46 21  1  0
 48 46  1  0
 49 51  1  0
 49  9  1  0
 50 49  1  0
 53 52  1  0
 54 53  2  0
 55 54  1  0
 55 56  1  0
 57 68  2  0
 58 56  1  0
 58 63  1  0
 59 67  1  0
 59 69  1  0
 60 66  1  0
 60 62  1  0
 61 67  1  0
 62 63  2  0
 62 61  1  0
 64 58  2  0
 65 64  1  0
 65 60  2  0
 66 59  1  0
 67 57  1  0
 69 71  2  0
 70 69  1  0
 72 70  1  0
 73 82  2  0
 73 78  1  0
 74 70  1  0
 74 78  1  0
 75 74  1  0
 76 77  1  0
 76 75  1  0
 77 73  1  0
 78 79  2  0
 79 80  1  0
 81 80  2  0
 82 81  1  0
 83 57  1  0
 83 84  1  0
 83 93  1  0
 84 87  1  0
 85 89  1  0
 85 84  1  0
 86 85  2  0
 89 88  1  0
 91 89  1  0
 91 92  1  0
 91 90  1  0
 93 96  1  1
 93 94  1  0
 95 93  1  0
M  ISO  4  11 100  19 100  55 101  56 101
M  END
>  <TORSDO>  (65) 
F 22

>  <SCORE>  (65) 
-12.884

>  <name>  (65) 
64

>  <ligand_id>  (65) 
64

>  <original_smiles>  (65) 
[H]c1c([H])c([H])c2c(c1[H])C([H])([H])C([H])([H])C([H])([H])C2([H])N([H])C(=O)C1([H])N(C(=O)C([H])(N([H])C(=O)C([H])(N([H])C([H])([H])[H])C([H])([H])[H])C(C([H])([H])[H])(C([H])([H])[H])C([H])([H])[H])C([H])([H])c2c([H])c(OC([H])([H])C([H])([H])C([H])([H])C([H])([H])N([H])C(=O)c3c([H])c([H])c(N([H])[H])c(N([H])C(=O)N4C([H])([H])C([H])([H])C([H])([H])C([H])(n5nc(-c6c([H])c([H])c(Oc7c([H])c([H])c(F)c([H])c7F)c([H])c6[H])c(C(=O)N([H])[H])c5N([H])[H])C4([H])[H])c3[H])c([H])c([H])c2C1([H])[H]

>  <smiles>  (65) 
[H]c1c([H])c([H])c2c(c1[H])C([H])([H])C([H])([H])C([H])([H])C2([H])N([H])C(=O)C1([H])N(C(=O)C([H])(N([H])C(=O)C([H])(N([H])C([H])([H])[H])C([H])([H])[H])C(C([H])([H])[H])(C([H])([H])[H])C([H])([H])[H])C([H])([H])c2c([H])c(OC([H])([H])C([H])([H])C([H])([H])C([H])([H])N([H])C(=O)c3c([H])c([H])c(N([H])[H])c(N([H])C(=O)N4C([H])([H])C([H])([H])C([H])([H])C([H])(n5nc(-c6c([H])c([H])c(Oc7c([H])c([H])c(F)c([H])c7F)c([H])c6[H])c(C(=O)N([H])[H])c5N([H])[H])C4([H])[H])c3[H])c([H])c([H])c2C1([H])[H]

$$$$
65:0:0
     RDKit          3D

 99107  0  0  1  0  0  0  0  0999 V2000
  -31.4180  -22.8370   21.3740 C   0  0  0  0  0  2  0  0  0  0  0  0
  -31.5020  -21.3010   21.4480 C   0  0  0  0  0  2  0  0  0  0  0  0
  -31.1390  -20.6490   20.1030 C   0  0  0  0  0  2  0  0  0  0  0  0
  -31.4700  -16.9750   19.1530 C   0  0  0  0  0  3  0  0  0  0  0  0
  -31.5840  -18.3700   19.1030 C   0  0  0  0  0  3  0  0  0  0  0  0
  -30.8540  -16.3800   20.2820 C   0  0  0  0  0  0  0  0  0  0  0  0
  -31.0700  -19.1340   20.1630 C   0  0  0  0  0  0  0  0  0  0  0  0
  -30.3910  -17.2370   21.2960 C   0  0  0  0  0  0  0  0  0  0  0  0
  -30.4830  -18.5770   21.2470 N   0  0  0  0  0  0  0  0  0  0  0  0
  -31.1150  -14.0020   19.6350 C   0  0  0  0  0  0  0  0  0  0  0  0
  -30.5900  -11.8670   18.5360 C   0  0  0  0  0  2  0  0  0  0  0  0
  -29.5230  -12.1060   17.4490 C   0  0  0  0  0  2  0  0  0  0  0  0
  -28.1060  -12.0270   18.0460 C   0  0  0  0  0  2  0  0  0  0  0  0
  -27.9480  -12.8860   19.3300 C   0  0  0  0  0  3  0  0  0  0  0  0
  -29.1120  -12.6250   20.3120 C   0  0  0  0  0  2  0  0  0  0  0  0
  -30.3810  -12.8610   19.5970 N   0  0  0  0  0  0  0  0  0  0  0  0
  -32.1450  -14.1570   18.9710 O   0  0  0  0  0  0  0  0  0  0  0  0
  -30.6160  -14.9800   20.4020 N   0  0  0  0  0  0  0  0  0  0  0  0
  -29.8610  -14.7240   21.0220 H   0  0  0  0  0  0  0  0  0  0  0  0
  -25.6890  -13.5890   20.3440 C   0  0  0  0  0  0  0  0  0  0  0  0
  -24.6340  -12.8590   20.8220 C   0  0  0  0  0  0  0  0  0  0  0  0
  -25.0140  -11.4880   20.6940 C   0  0  0  0  0  0  0  0  0  0  0  0
  -26.6490  -12.6650   19.9610 N   0  0  0  0  0  0  0  0  0  0  0  0
  -26.2510  -11.3940   20.2250 N   0  0  0  0  0  0  0  0  0  0  0  0
  -24.2490  -10.2570   20.9370 C   0  0  0  0  0  0  0  0  0  0  0  0
  -24.6710   -9.3020   21.8870 C   0  0  0  0  0  3  0  0  0  0  0  0
  -23.9090   -8.1350   22.1170 C   0  0  0  0  0  3  0  0  0  0  0  0
  -22.7110   -7.9170   21.3950 C   0  0  0  0  0  0  0  0  0  0  0  0
  -22.3080   -8.8610   20.4350 C   0  0  0  0  0  3  0  0  0  0  0  0
  -23.0690  -10.0180   20.2030 C   0  0  0  0  0  3  0  0  0  0  0  0
  -21.9210   -6.8020   21.5330 O   0  0  0  0  0  0  0  0  0  0  0  0
  -21.7700   -6.1710   22.7420 C   0  0  0  0  0  0  0  0  0  0  0  0
  -21.2660   -6.8440   23.8750 C   0  0  0  0  0  3  0  0  0  0  0  0
  -21.0620   -6.1400   25.0790 C   0  0  0  0  0  3  0  0  0  0  0  0
  -21.3510   -4.7650   25.1480 C   0  0  0  0  0  0  0  0  0  0  0  0
  -21.8480   -4.0910   24.0180 C   0  0  0  0  0  3  0  0  0  0  0  0
  -22.0530   -4.7920   22.8180 C   0  0  0  0  0  0  0  0  0  0  0  0
  -22.5120   -4.1340   21.7260 F   0  0  0  0  0  0  0  0  0  0  0  0
  -21.1470   -4.0860   26.3030 F   0  0  0  0  0  0  0  0  0  0  0  0
  -23.3090  -13.3960   21.2840 C   0  0  0  0  0  0  0  0  0  0  0  0
  -22.6750  -12.7250   22.2390 N   0  0  0  0  0  0  0  0  0  0  0  0
  -22.8510  -14.4450   20.8320 O   0  0  0  0  0  0  0  0  0  0  0  0
  -23.0600  -11.8750   22.6240 H   0  0  0  0  0  0  0  0  0  0  0  0
  -21.7920  -13.0670   22.5910 H   0  0  0  0  0  0  0  0  0  0  0  0
  -25.9050  -14.9550   20.1870 N   0  0  0  0  0  0  0  0  0  0  0  0
  -25.2030  -15.6490   20.4210 H   0  0  0  0  0  0  0  0  0  0  0  0
  -26.7440  -15.3600   19.7900 H   0  0  0  0  0  0  0  0  0  0  0  0
  -29.7830  -16.7220   22.4310 N   0  0  0  0  0  0  0  0  0  0  0  0
  -30.0850  -15.7980   22.7090 H   0  0  0  0  0  0  0  0  0  0  0  0
  -29.7120  -17.3600   23.2130 H   0  0  0  0  0  0  0  0  0  0  0  0
  -30.8770  -23.5250   22.6460 C   0  0  0  0  0  2  0  0  0  0  0  0
  -29.4020  -23.2130   22.9930 C   0  0  0  0  0  2  0  0  0  0  0  0
  -28.1550  -24.5390   21.2880 C   0  0  0  0  0  0  0  0  0  0  0  0
  -28.5140  -23.3750   21.8440 N   0  0  0  0  0  0  0  0  0  0  0  0
  -28.3610  -25.6290   21.8270 O   0  0  0  0  0  0  0  0  0  0  0  0
  -28.2570  -22.5280   21.3530 H   0  0  0  0  0  0  0  0  0  0  0  0
  -27.5130  -24.4570   19.9000 C   0  0  0  0  0  2  0  0  0  0  0  0
  -28.4090  -25.0620   18.7940 C   0  0  0  0  0  2  0  0  0  0  0  0
  -28.5460  -26.4740   18.9250 O   0  0  0  0  0  0  0  0  0  0  0  0
  -24.9450  -31.0250   22.9990 C   0  0  0  0  0  0  0  0  0  0  0  0
  -27.3890  -27.2000   19.0730 C   0  0  0  0  0  0  0  0  0  0  0  0
  -23.6840  -30.0660   21.0970 C   0  0  0  0  0  3  0  0  0  0  0  0
  -25.0680  -28.7730   19.3940 C   0  0  0  0  0  0  0  0  0  0  0  0
  -26.2250  -30.3220   20.9820 C   0  0  0  0  0  2  0  0  0  0  0  0
  -26.2430  -29.1100   20.0770 C   0  0  0  0  0  0  0  0  0  0  0  0
  -27.4070  -28.3320   19.9130 C   0  0  0  0  0  3  0  0  0  0  0  0
  -26.1970  -26.8650   18.3930 C   0  0  0  0  0  3  0  0  0  0  0  0
  -25.0380  -27.6470   18.5510 C   0  0  0  0  0  3  0  0  0  0  0  0
  -23.8720  -29.6710   19.6090 C   0  0  0  0  0  2  0  0  0  0  0  0
  -24.9690  -30.4720   21.7540 N   0  0  0  0  0  0  0  0  0  0  0  0
  -23.8740  -31.2420   23.5830 O   0  0  0  0  0  0  0  0  0  0  0  0
  -22.9640  -28.9090   21.8250 C   0  0  0  0  0  0  0  0  0  0  0  0
  -21.6240  -28.8990   21.7470 N   0  0  0  0  0  0  0  0  0  0  0  0
  -23.6040  -28.0350   22.4150 O   0  0  0  0  0  0  0  0  0  0  0  0
  -21.1750  -29.6560   21.2500 H   0  0  0  0  0  0  0  0  0  0  0  0
  -18.1540  -28.0450   22.2760 C   0  0  0  0  0  0  0  0  0  0  0  0
  -20.7340  -27.8880   22.3170 C   0  0  0  0  0  3  0  0  0  0  0  0
  -20.5740  -26.6840   21.3610 C   0  0  0  0  0  2  0  0  0  0  0  0
  -19.3650  -26.8070   20.4290 C   0  0  0  0  0  2  0  0  0  0  0  0
  -18.0720  -26.9330   21.2420 C   0  0  0  0  0  2  0  0  0  0  0  0
  -19.4040  -28.5040   22.7670 C   0  0  0  0  0  0  0  0  0  0  0  0
  -19.4260  -29.5600   23.7030 C   0  0  0  0  0  3  0  0  0  0  0  0
  -18.2300  -30.1550   24.1440 C   0  0  0  0  0  3  0  0  0  0  0  0
  -16.9930  -29.6860   23.6660 C   0  0  0  0  0  3  0  0  0  0  0  0
  -16.9570  -28.6310   22.7390 C   0  0  0  0  0  3  0  0  0  0  0  0
  -26.2560  -31.4320   23.7420 C   0  0  0  0  0  3  0  0  0  0  0  0
  -26.6770  -30.4110   24.8670 C   0  0  1  0  0  0  0  0  0  0  0  0
  -25.5440  -30.0830   25.8670 C   0  0  0  0  0  1  0  0  0  0  0  0
  -27.1560  -29.0810   24.2380 C   0  0  0  0  0  1  0  0  0  0  0  0
  -27.8720  -30.9790   25.6690 C   0  0  0  0  0  1  0  0  0  0  0  0
  -26.0470  -32.7710   24.3060 N   0  0  0  0  0  0  0  0  0  0  0  0
  -26.5000  -33.9070   23.7570 C   0  0  0  0  0  0  0  0  0  0  0  0
  -27.2070  -33.9260   22.7460 O   0  0  0  0  0  0  0  0  0  0  0  0
  -25.4230  -32.8350   25.0970 H   0  0  0  0  0  0  0  0  0  0  0  0
  -24.9450  -35.8800   23.6620 C   0  0  0  0  0  1  0  0  0  0  0  0
  -26.1030  -35.2300   24.4370 C   0  0  0  0  0  3  0  0  0  0  0  0
  -28.2520  -35.7610   25.5000 C   0  0  0  0  0  1  0  0  0  0  0  0
  -27.2240  -36.1890   24.5560 N   0  0  0  0  0  0  0  0  0  0  0  0
  -26.8870  -37.1030   24.8450 H   0  0  0  0  0  0  0  0  0  0  0  0
  1  2  1  0
  1 51  1  0
  3  7  1  0
  3  2  1  0
  4  6  1  0
  5  4  2  0
  5  7  1  0
  6 18  1  0
  6  8  2  0
  7  9  2  0
  8 48  1  0
  9  8  1  0
 10 18  1  0
 11 16  1  0
 12 13  1  0
 12 11  1  0
 14 13  1  0
 14 23  1  0
 14 15  1  0
 16 10  1  0
 16 15  1  0
 17 10  2  0
 18 19  1  0
 20 21  2  0
 21 40  1  0
 22 21  1  0
 22 25  1  0
 23 24  1  0
 23 20  1  0
 24 22  2  0
 25 26  1  0
 26 27  2  0
 28 31  1  0
 28 27  1  0
 29 28  2  0
 30 29  1  0
 30 25  2  0
 31 32  1  0
 32 37  2  0
 32 33  1  0
 33 34  2  0
 34 35  1  0
 35 39  1  0
 36 35  2  0
 37 36  1  0
 38 37  1  0
 40 41  1  0
 41 44  1  0
 41 43  1  0
 42 40  2  0
 45 20  1  0
 45 46  1  0
 47 45  1  0
 48 49  1  0
 48 50  1  0
 51 52  1  0
 53 55  2  0
 53 54  1  0
 54 52  1  0
 56 54  1  0
 57 53  1  0
 58 59  1  0
 58 57  1  0
 59 61  1  0
 60 71  2  0
 61 66  1  0
 62 70  1  0
 62 72  1  0
 63 69  1  0
 63 65  1  0
 64 70  1  0
 65 64  1  0
 66 65  2  0
 67 68  1  0
 67 61  2  0
 68 63  2  0
 69 62  1  0
 70 60  1  0
 72 74  2  0
 73 72  1  0
 75 73  1  0
 76 85  2  0
 76 81  1  0
 77 73  1  0
 77 81  1  0
 78 77  1  0
 79 80  1  0
 79 78  1  0
 80 76  1  0
 81 82  2  0
 82 83  1  0
 84 83  2  0
 85 84  1  0
 86 60  1  0
 86 91  1  0
 86 87  1  0
 87 90  1  1
 87 88  1  0
 89 87  1  0
 91 94  1  0
 92 91  1  0
 92 96  1  0
 93 92  2  0
 96 95  1  0
 96 98  1  0
 98 99  1  0
 98 97  1  0
M  ISO  4  10 100  18 100  58 101  59 101
M  END
>  <TORSDO>  (66) 
F 25

>  <SCORE>  (66) 
-9.203

>  <name>  (66) 
65

>  <ligand_id>  (66) 
65

>  <original_smiles>  (66) 
[H]c1c(C([H])([H])C([H])([H])C([H])([H])C([H])([H])C([H])([H])N([H])C(=O)C([H])([H])C([H])([H])Oc2c([H])c([H])c3c(c2[H])C([H])([H])N(C(=O)C([H])(N([H])C(=O)C([H])(N([H])C([H])([H])[H])C([H])([H])[H])C(C([H])([H])[H])(C([H])([H])[H])C([H])([H])[H])C([H])(C(=O)N([H])C2([H])c4c([H])c([H])c([H])c([H])c4C([H])([H])C([H])([H])C2([H])[H])C3([H])[H])nc(N([H])[H])c(N([H])C(=O)N2C([H])([H])C([H])([H])C([H])([H])C([H])(n3nc(-c4c([H])c([H])c(Oc5c([H])c([H])c(F)c([H])c5F)c([H])c4[H])c(C(=O)N([H])[H])c3N([H])[H])C2([H])[H])c1[H]

>  <smiles>  (66) 
[H]c1c(C([H])([H])C([H])([H])C([H])([H])C([H])([H])C([H])([H])N([H])C(=O)C([H])([H])C([H])([H])Oc2c([H])c([H])c3c(c2[H])C([H])([H])N(C(=O)C([H])(N([H])C(=O)C([H])(N([H])C([H])([H])[H])C([H])([H])[H])C(C([H])([H])[H])(C([H])([H])[H])C([H])([H])[H])C([H])(C(=O)N([H])C2([H])c4c([H])c([H])c([H])c([H])c4C([H])([H])C([H])([H])C2([H])[H])C3([H])[H])nc(N([H])[H])c(N([H])C(=O)N2C([H])([H])C([H])([H])C([H])([H])C([H])(n3nc(-c4c([H])c([H])c(Oc5c([H])c([H])c(F)c([H])c5F)c([H])c4[H])c(C(=O)N([H])[H])c3N([H])[H])C2([H])[H])c1[H]

$$$$
66:0:0
     RDKit          3D

 92100  0  0  1  0  0  0  0  0999 V2000
  -28.9630  -18.0350   20.7690 C   0  0  0  0  0  3  0  0  0  0  0  0
  -31.2110  -17.9150   19.9400 C   0  0  0  0  0  3  0  0  0  0  0  0
  -30.0740  -17.2180   20.4210 C   0  0  0  0  0  0  0  0  0  0  0  0
  -30.1380  -20.1660   20.2340 C   0  0  0  0  0  0  0  0  0  0  0  0
  -28.9840  -19.4580   20.6790 C   0  0  0  0  0  0  0  0  0  0  0  0
  -31.2420  -19.3390   19.8500 C   0  0  0  0  0  0  0  0  0  0  0  0
  -27.8790  -20.1400   21.0710 F   0  0  0  0  0  0  0  0  0  0  0  0
  -32.3780  -19.9170   19.3840 F   0  0  0  0  0  0  0  0  0  0  0  0
  -30.7540  -14.7140   20.1810 C   0  0  0  0  0  0  0  0  0  0  0  0
  -30.5140  -12.4650   19.1520 C   0  0  0  0  0  2  0  0  0  0  0  0
  -29.5350  -12.5730   17.9610 C   0  0  0  0  0  2  0  0  0  0  0  0
  -28.0710  -12.4380   18.4280 C   0  0  0  0  0  2  0  0  0  0  0  0
  -27.7510  -13.3180   19.6650 C   0  0  0  0  0  3  0  0  0  0  0  0
  -28.8380  -13.1620   20.7530 C   0  0  0  0  0  2  0  0  0  0  0  0
  -30.1340  -13.4930   20.1410 N   0  0  0  0  0  0  0  0  0  0  0  0
  -31.9000  -14.8670   19.7480 O   0  0  0  0  0  0  0  0  0  0  0  0
  -29.9620  -15.7630   20.5690 N   0  0  0  0  0  0  0  0  0  0  0  0
  -29.0780  -15.4450   20.9360 H   0  0  0  0  0  0  0  0  0  0  0  0
  -25.3900  -13.9480   20.4650 C   0  0  0  0  0  0  0  0  0  0  0  0
  -24.3200  -13.1870   20.8510 C   0  0  0  0  0  0  0  0  0  0  0  0
  -24.7540  -11.8290   20.7790 C   0  0  0  0  0  0  0  0  0  0  0  0
  -26.4110  -13.0530   20.1840 N   0  0  0  0  0  0  0  0  0  0  0  0
  -26.0340  -11.7720   20.4320 N   0  0  0  0  0  0  0  0  0  0  0  0
  -24.0110  -10.5750   20.9640 C   0  0  0  0  0  0  0  0  0  0  0  0
  -24.4280   -9.6000   21.8960 C   0  0  0  0  0  3  0  0  0  0  0  0
  -23.6850   -8.4120   22.0710 C   0  0  0  0  0  3  0  0  0  0  0  0
  -22.5120   -8.1910   21.3110 C   0  0  0  0  0  0  0  0  0  0  0  0
  -22.1140   -9.1550   20.3680 C   0  0  0  0  0  3  0  0  0  0  0  0
  -22.8570  -10.3340   20.1920 C   0  0  0  0  0  3  0  0  0  0  0  0
  -21.7420   -7.0560   21.3950 O   0  0  0  0  0  0  0  0  0  0  0  0
  -21.6480   -6.3340   22.5570 C   0  0  0  0  0  0  0  0  0  0  0  0
  -21.1090   -6.8890   23.7380 C   0  0  0  0  0  3  0  0  0  0  0  0
  -20.9670   -6.0900   24.8910 C   0  0  0  0  0  3  0  0  0  0  0  0
  -21.3550   -4.7380   24.8630 C   0  0  0  0  0  0  0  0  0  0  0  0
  -21.8880   -4.1820   23.6860 C   0  0  0  0  0  3  0  0  0  0  0  0
  -22.0300   -4.9780   22.5350 C   0  0  0  0  0  0  0  0  0  0  0  0
  -22.5240   -4.4310   21.3980 F   0  0  0  0  0  0  0  0  0  0  0  0
  -21.2120   -3.9670   25.9670 F   0  0  0  0  0  0  0  0  0  0  0  0
  -22.9400  -13.6830   21.1730 C   0  0  0  0  0  0  0  0  0  0  0  0
  -22.2210  -12.9790   22.0410 N   0  0  0  0  0  0  0  0  0  0  0  0
  -22.5080  -14.7300   20.6910 O   0  0  0  0  0  0  0  0  0  0  0  0
  -22.5850  -12.1310   22.4520 H   0  0  0  0  0  0  0  0  0  0  0  0
  -21.2960  -13.2910   22.2980 H   0  0  0  0  0  0  0  0  0  0  0  0
  -25.5750  -15.3190   20.3080 N   0  0  0  0  0  0  0  0  0  0  0  0
  -24.8210  -15.9800   20.4540 H   0  0  0  0  0  0  0  0  0  0  0  0
  -26.3990  -15.7410   19.9020 H   0  0  0  0  0  0  0  0  0  0  0  0
  -31.4170  -22.0760   20.9980 C   0  0  0  0  0  1  0  0  0  0  0  0
  -30.2590  -21.6110   20.2310 N   0  0  0  0  0  0  0  0  0  0  0  0
  -29.1140  -22.5690   20.0920 C   0  0  0  0  0  2  0  0  0  0  0  0
  -29.4710  -24.1290   20.0390 C   0  0  0  0  0  3  0  0  0  0  0  0
  -28.2790  -25.1400   19.7640 C   0  0  0  0  0  3  0  0  0  0  0  0
  -28.4690  -26.5890   19.9990 O   0  0  0  0  0  0  0  0  0  0  0  0
  -24.6290  -31.7660   23.2340 C   0  0  0  0  0  0  0  0  0  0  0  0
  -27.3290  -27.4100   19.9830 C   0  0  0  0  0  0  0  0  0  0  0  0
  -23.4560  -30.4380   21.5140 C   0  0  0  0  0  3  0  0  0  0  0  0
  -24.9380  -28.9810   20.0300 C   0  0  0  0  0  0  0  0  0  0  0  0
  -25.9900  -30.8020   21.3680 C   0  0  0  0  0  2  0  0  0  0  0  0
  -26.0960  -29.4590   20.6570 C   0  0  0  0  0  0  0  0  0  0  0  0
  -27.2940  -28.6850   20.6240 C   0  0  0  0  0  3  0  0  0  0  0  0
  -26.1420  -26.9820   19.3400 C   0  0  0  0  0  3  0  0  0  0  0  0
  -24.9630  -27.7470   19.3640 C   0  0  0  0  0  3  0  0  0  0  0  0
  -23.6890  -29.8340   20.1060 C   0  0  0  0  0  2  0  0  0  0  0  0
  -24.7090  -31.0160   22.0970 N   0  0  0  0  0  0  0  0  0  0  0  0
  -23.5380  -32.0050   23.7720 O   0  0  0  0  0  0  0  0  0  0  0  0
  -22.7960  -29.3680   22.4160 C   0  0  0  0  0  0  0  0  0  0  0  0
  -21.4720  -29.1900   22.2740 N   0  0  0  0  0  0  0  0  0  0  0  0
  -23.4760  -28.7020   23.2020 O   0  0  0  0  0  0  0  0  0  0  0  0
  -20.9850  -29.7810   21.6140 H   0  0  0  0  0  0  0  0  0  0  0  0
  -18.0880  -28.0020   22.7380 C   0  0  0  0  0  0  0  0  0  0  0  0
  -20.6530  -28.2110   22.9890 C   0  0  0  0  0  3  0  0  0  0  0  0
  -20.7280  -26.8220   22.3130 C   0  0  0  0  0  2  0  0  0  0  0  0
  -19.6080  -26.5860   21.2960 C   0  0  0  0  0  2  0  0  0  0  0  0
  -18.2380  -26.7010   21.9680 C   0  0  0  0  0  2  0  0  0  0  0  0
  -19.2220  -28.7180   23.2030 C   0  0  0  0  0  0  0  0  0  0  0  0
  -19.0270  -29.9400   23.8840 C   0  0  0  0  0  3  0  0  0  0  0  0
  -17.7310  -30.4430   24.1060 C   0  0  0  0  0  3  0  0  0  0  0  0
  -16.6110  -29.7210   23.6560 C   0  0  0  0  0  3  0  0  0  0  0  0
  -16.7910  -28.5030   22.9760 C   0  0  0  0  0  3  0  0  0  0  0  0
  -25.8990  -32.3790   23.9000 C   0  0  0  0  0  3  0  0  0  0  0  0
  -26.3660  -31.5940   25.1870 C   0  0  1  0  0  0  0  0  0  0  0  0
  -25.2350  -31.3560   26.2140 C   0  0  0  0  0  1  0  0  0  0  0  0
  -26.9530  -30.2150   24.8030 C   0  0  0  0  0  1  0  0  0  0  0  0
  -27.4990  -32.3730   25.8940 C   0  0  0  0  0  1  0  0  0  0  0  0
  -25.5950  -33.7790   24.2280 N   0  0  0  0  0  0  0  0  0  0  0  0
  -25.9220  -34.8290   23.4630 C   0  0  0  0  0  0  0  0  0  0  0  0
  -26.5800  -34.7210   22.4260 O   0  0  0  0  0  0  0  0  0  0  0  0
  -25.0050  -33.9360   25.0330 H   0  0  0  0  0  0  0  0  0  0  0  0
  -24.1740  -36.6090   23.1470 C   0  0  0  0  0  1  0  0  0  0  0  0
  -25.4410  -36.2180   23.9230 C   0  0  0  0  0  3  0  0  0  0  0  0
  -27.5840  -37.1330   24.6960 C   0  0  0  0  0  1  0  0  0  0  0  0
  -26.4630  -37.2760   23.7720 N   0  0  0  0  0  0  0  0  0  0  0  0
  -26.0530  -38.1940   23.9150 H   0  0  0  0  0  0  0  0  0  0  0  0
  2  3  1  0
  3 17  1  0
  3  1  2  0
  4  5  2  0
  5  1  1  0
  5  7  1  0
  6  2  2  0
  6  4  1  0
  8  6  1  0
  9 17  1  0
 10 15  1  0
 11 12  1  0
 11 10  1  0
 13 12  1  0
 13 22  1  0
 13 14  1  0
 15  9  1  0
 15 14  1  0
 16  9  2  0
 17 18  1  0
 19 20  2  0
 20 39  1  0
 21 20  1  0
 21 24  1  0
 22 23  1  0
 22 19  1  0
 23 21  2  0
 24 25  1  0
 25 26  2  0
 27 30  1  0
 27 26  1  0
 28 27  2  0
 29 28  1  0
 29 24  2  0
 30 31  1  0
 31 32  1  0
 32 33  2  0
 34 33  1  0
 34 38  1  0
 35 34  2  0
 36 31  2  0
 36 35  1  0
 37 36  1  0
 39 40  1  0
 40 43  1  0
 40 42  1  0
 41 39  2  0
 44 45  1  0
 44 19  1  0
 46 44  1  0
 48  4  1  0
 48 47  1  0
 49 48  1  0
 50 49  1  0
 51 52  1  0
 51 50  2  0
 53 64  2  0
 54 52  1  0
 54 59  1  0
 55 63  1  0
 55 65  1  0
 56 62  1  0
 56 58  1  0
 57 63  1  0
 58 57  1  0
 59 58  2  0
 60 61  1  0
 60 54  2  0
 61 56  2  0
 62 55  1  0
 63 53  1  0
 65 67  2  0
 66 65  1  0
 68 66  1  0
 69 78  2  0
 69 74  1  0
 70 66  1  0
 70 74  1  0
 71 70  1  0
 72 73  1  0
 72 71  1  0
 73 69  1  0
 74 75  2  0
 75 76  1  0
 77 76  2  0
 78 77  1  0
 79 53  1  0
 79 84  1  0
 79 80  1  0
 80 83  1  1
 80 81  1  0
 82 80  1  0
 84 87  1  0
 85 89  1  0
 85 84  1  0
 86 85  2  0
 89 88  1  0
 91 92  1  0
 91 89  1  0
 91 90  1  0
M  ISO  4   9 100  17 100  51 101  52 101
M  END
>  <TORSDO>  (67) 
F 20

>  <SCORE>  (67) 
-13.744

>  <name>  (67) 
66

>  <ligand_id>  (67) 
66

>  <original_smiles>  (67) 
[H]c1c([H])c([H])c2c(c1[H])C([H])([H])C([H])([H])C([H])([H])C2([H])N([H])C(=O)C1([H])N(C(=O)C([H])(N([H])C(=O)C([H])(N([H])C([H])([H])[H])C([H])([H])[H])C(C([H])([H])[H])(C([H])([H])[H])C([H])([H])[H])C([H])([H])c2c([H])c(OC([H])([H])C([H])([H])C([H])([H])N(c3c(F)c([H])c(N([H])C(=O)N4C([H])([H])C([H])([H])C([H])([H])C([H])(n5nc(-c6c([H])c([H])c(Oc7c([H])c([H])c(F)c([H])c7F)c([H])c6[H])c(C(=O)N([H])[H])c5N([H])[H])C4([H])[H])c([H])c3F)C([H])([H])[H])c([H])c([H])c2C1([H])[H]

>  <smiles>  (67) 
[H]c1c([H])c([H])c2c(c1[H])C([H])([H])C([H])([H])C([H])([H])C2([H])N([H])C(=O)C1([H])N(C(=O)C([H])(N([H])C(=O)C([H])(N([H])C([H])([H])[H])C([H])([H])[H])C(C([H])([H])[H])(C([H])([H])[H])C([H])([H])[H])C([H])([H])c2c([H])c(OC([H])([H])C([H])([H])C([H])([H])N(c3c(F)c([H])c(N([H])C(=O)N4C([H])([H])C([H])([H])C([H])([H])C([H])(n5nc(-c6c([H])c([H])c(Oc7c([H])c([H])c(F)c([H])c7F)c([H])c6[H])c(C(=O)N([H])[H])c5N([H])[H])C4([H])[H])c([H])c3F)C([H])([H])[H])c([H])c([H])c2C1([H])[H]

$$$$
67:0:0
     RDKit          3D

 92100  0  0  1  0  0  0  0  0999 V2000
  -30.2920  -20.2550   18.8150 C   0  0  0  0  0  2  0  0  0  0  0  0
  -28.7530  -17.9350   18.5710 C   0  0  0  0  0  3  0  0  0  0  0  0
  -29.8140  -19.8440   17.5420 C   0  0  0  0  0  3  0  0  0  0  0  0
  -28.9040  -18.7660   17.4510 C   0  0  0  0  0  0  0  0  0  0  0  0
  -29.6280  -19.8170   19.9880 C   0  0  0  0  0  3  0  0  0  0  0  0
  -29.3610  -18.2460   19.8090 C   0  0  0  0  0  3  0  0  0  0  0  0
  -30.2070  -20.6430   16.3060 C   0  0  0  0  0  1  0  0  0  0  0  0
  -28.1450  -18.4300   16.1680 C   0  0  0  0  0  1  0  0  0  0  0  0
  -30.4210  -15.5110   20.1360 C   0  0  0  0  0  0  0  0  0  0  0  0
  -30.4030  -13.0380   19.2700 C   0  0  0  0  0  2  0  0  0  0  0  0
  -29.4720  -12.8490   18.0450 C   0  0  0  0  0  2  0  0  0  0  0  0
  -28.0350  -12.5560   18.5030 C   0  0  0  0  0  2  0  0  0  0  0  0
  -27.6130  -13.4840   19.6680 C   0  0  0  0  0  3  0  0  0  0  0  0
  -28.6800  -13.6360   20.7760 C   0  0  0  0  0  2  0  0  0  0  0  0
  -29.8820  -14.1790   20.1260 N   0  0  0  0  0  0  0  0  0  0  0  0
  -31.6100  -15.5090   19.7870 O   0  0  0  0  0  0  0  0  0  0  0  0
  -29.7140  -16.7960   20.4840 N   0  0  0  0  0  0  0  0  0  0  0  0
  -28.9330  -16.5190   21.0560 H   0  0  0  0  0  0  0  0  0  0  0  0
  -25.2520  -14.0090   20.4570 C   0  0  0  0  0  0  0  0  0  0  0  0
  -24.2020  -13.2240   20.8420 C   0  0  0  0  0  0  0  0  0  0  0  0
  -24.6850  -11.8760   20.7980 C   0  0  0  0  0  0  0  0  0  0  0  0
  -26.3030  -13.1490   20.1970 N   0  0  0  0  0  0  0  0  0  0  0  0
  -25.9760  -11.8580   20.4710 N   0  0  0  0  0  0  0  0  0  0  0  0
  -23.9670  -10.6080   20.9910 C   0  0  0  0  0  0  0  0  0  0  0  0
  -24.4070   -9.6430   21.9240 C   0  0  0  0  0  3  0  0  0  0  0  0
  -23.6900   -8.4420   22.1050 C   0  0  0  0  0  3  0  0  0  0  0  0
  -22.5170   -8.1930   21.3550 C   0  0  0  0  0  0  0  0  0  0  0  0
  -22.0950   -9.1460   20.4120 C   0  0  0  0  0  3  0  0  0  0  0  0
  -22.8120  -10.3410   20.2290 C   0  0  0  0  0  3  0  0  0  0  0  0
  -21.7700   -7.0450   21.4440 O   0  0  0  0  0  0  0  0  0  0  0  0
  -21.7310   -6.3060   22.5990 C   0  0  0  0  0  0  0  0  0  0  0  0
  -21.2780   -6.8560   23.8200 C   0  0  0  0  0  3  0  0  0  0  0  0
  -21.1810   -6.0410   24.9660 C   0  0  0  0  0  3  0  0  0  0  0  0
  -21.5310   -4.6810   24.8920 C   0  0  0  0  0  0  0  0  0  0  0  0
  -21.9800   -4.1310   23.6770 C   0  0  0  0  0  3  0  0  0  0  0  0
  -22.0770   -4.9410   22.5350 C   0  0  0  0  0  0  0  0  0  0  0  0
  -22.4880   -4.4040   21.3620 F   0  0  0  0  0  0  0  0  0  0  0  0
  -21.4340   -3.8970   25.9910 F   0  0  0  0  0  0  0  0  0  0  0  0
  -22.8100  -13.6900   21.1350 C   0  0  0  0  0  0  0  0  0  0  0  0
  -22.1000  -12.9840   22.0070 N   0  0  0  0  0  0  0  0  0  0  0  0
  -22.3630  -14.7210   20.6360 O   0  0  0  0  0  0  0  0  0  0  0  0
  -22.4890  -12.1500   22.4220 H   0  0  0  0  0  0  0  0  0  0  0  0
  -21.1690  -13.2840   22.2660 H   0  0  0  0  0  0  0  0  0  0  0  0
  -25.3850  -15.3780   20.2710 N   0  0  0  0  0  0  0  0  0  0  0  0
  -24.5580  -15.9630   20.2580 H   0  0  0  0  0  0  0  0  0  0  0  0
  -26.1900  -15.8130   19.8380 H   0  0  0  0  0  0  0  0  0  0  0  0
  -29.0010  -22.6920   20.4060 C   0  0  0  0  0  0  0  0  0  0  0  0
  -28.7600  -21.1920   20.3250 N   0  0  0  0  0  0  0  0  0  0  0  0
  -30.1890  -22.9950   20.5390 O   0  0  0  0  0  0  0  0  0  0  0  0
  -27.7670  -21.0010   20.3580 H   0  0  0  0  0  0  0  0  0  0  0  0
  -27.9220  -24.1420   20.4160 C   0  0  0  0  0  2  0  0  0  0  0  0
  -28.2220  -25.8170   20.4750 O   0  0  0  0  0  0  0  0  0  0  0  0
  -24.6350  -31.9830   23.2730 C   0  0  0  0  0  0  0  0  0  0  0  0
  -27.2330  -26.9710   20.3940 C   0  0  0  0  0  0  0  0  0  0  0  0
  -23.4690  -30.5590   21.6330 C   0  0  0  0  0  3  0  0  0  0  0  0
  -24.9450  -28.9130   20.2810 C   0  0  0  0  0  0  0  0  0  0  0  0
  -26.0450  -30.7450   21.5400 C   0  0  0  0  0  2  0  0  0  0  0  0
  -26.1290  -29.3120   20.9140 C   0  0  0  0  0  0  0  0  0  0  0  0
  -27.2670  -28.3650   20.9390 C   0  0  0  0  0  3  0  0  0  0  0  0
  -26.0180  -26.7520   19.7030 C   0  0  0  0  0  3  0  0  0  0  0  0
  -24.9190  -27.6560   19.6540 C   0  0  0  0  0  3  0  0  0  0  0  0
  -23.7340  -29.8500   20.2760 C   0  0  0  0  0  2  0  0  0  0  0  0
  -24.7370  -31.1300   22.2010 N   0  0  0  0  0  0  0  0  0  0  0  0
  -23.5380  -32.2840   23.7720 O   0  0  0  0  0  0  0  0  0  0  0  0
  -22.7510  -29.5870   22.6100 C   0  0  0  0  0  0  0  0  0  0  0  0
  -21.4230  -29.4230   22.4720 N   0  0  0  0  0  0  0  0  0  0  0  0
  -23.4020  -28.9830   23.4650 O   0  0  0  0  0  0  0  0  0  0  0  0
  -20.9500  -29.9670   21.7650 H   0  0  0  0  0  0  0  0  0  0  0  0
  -18.0330  -28.2140   22.9600 C   0  0  0  0  0  0  0  0  0  0  0  0
  -20.5890  -28.4970   23.2510 C   0  0  0  0  0  3  0  0  0  0  0  0
  -20.7000  -27.0550   22.7030 C   0  0  0  0  0  2  0  0  0  0  0  0
  -19.6130  -26.7130   21.6800 C   0  0  0  0  0  2  0  0  0  0  0  0
  -18.2240  -26.8560   22.3060 C   0  0  0  0  0  2  0  0  0  0  0  0
  -19.1420  -28.9900   23.3880 C   0  0  0  0  0  0  0  0  0  0  0  0
  -18.9040  -30.2560   23.9660 C   0  0  0  0  0  3  0  0  0  0  0  0
  -17.5920  -30.7460   24.1170 C   0  0  0  0  0  3  0  0  0  0  0  0
  -16.4980  -29.9670   23.6970 C   0  0  0  0  0  3  0  0  0  0  0  0
  -16.7190  -28.7030   23.1250 C   0  0  0  0  0  3  0  0  0  0  0  0
  -25.8960  -32.6420   23.9160 C   0  0  0  0  0  3  0  0  0  0  0  0
  -25.5710  -34.0460   24.2310 N   0  0  0  0  0  0  0  0  0  0  0  0
  -25.8980  -35.1000   23.4700 C   0  0  0  0  0  0  0  0  0  0  0  0
  -26.5710  -34.9910   22.4420 O   0  0  0  0  0  0  0  0  0  0  0  0
  -24.9780  -34.1970   25.0350 H   0  0  0  0  0  0  0  0  0  0  0  0
  -24.1680  -36.8930   23.1100 C   0  0  0  0  0  1  0  0  0  0  0  0
  -25.4110  -36.4920   23.9200 C   0  0  0  0  0  3  0  0  0  0  0  0
  -27.5400  -37.4040   24.7440 C   0  0  0  0  0  1  0  0  0  0  0  0
  -26.4410  -37.5470   23.7930 N   0  0  0  0  0  0  0  0  0  0  0  0
  -26.0300  -38.4680   23.9250 H   0  0  0  0  0  0  0  0  0  0  0  0
  -26.3830  -31.8960   25.2230 C   0  0  1  0  0  0  0  0  0  0  0  0
  -25.2650  -31.6770   26.2690 C   0  0  0  0  0  1  0  0  0  0  0  0
  -26.9840  -30.5120   24.8860 C   0  0  0  0  0  1  0  0  0  0  0  0
  -27.5120  -32.7090   25.8970 C   0  0  0  0  0  1  0  0  0  0  0  0
  1  5  1  0
  2  6  1  0
  3  7  1  0
  3  1  1  0
  4  3  1  0
  4  2  2  0
  5 48  1  0
  6  5  1  0
  6 17  1  0
  8  4  1  0
  9 17  1  0
 10 15  1  0
 11 12  1  0
 11 10  1  0
 13 12  1  0
 13 22  1  0
 13 14  1  0
 15  9  1  0
 15 14  1  0
 16  9  2  0
 17 18  1  0
 19 20  2  0
 20 39  1  0
 21 20  1  0
 21 24  1  0
 22 19  1  0
 22 23  1  0
 23 21  2  0
 24 25  1  0
 25 26  2  0
 27 30  1  0
 27 26  1  0
 28 27  2  0
 29 28  1  0
 29 24  2  0
 30 31  1  0
 31 32  1  0
 32 33  2  0
 34 33  1  0
 34 38  1  0
 35 34  2  0
 36 31  2  0
 36 35  1  0
 37 36  1  0
 39 40  1  0
 40 43  1  0
 40 42  1  0
 41 39  2  0
 44 19  1  0
 45 44  1  0
 46 44  1  0
 47 51  1  0
 47 49  2  0
 48 50  1  0
 48 47  1  0
 51 52  1  0
 53 64  2  0
 54 52  1  0
 54 59  1  0
 55 63  1  0
 55 65  1  0
 56 58  1  0
 57 63  1  0
 58 59  2  0
 58 57  1  0
 60 54  2  0
 61 60  1  0
 61 56  2  0
 62 56  1  0
 62 55  1  0
 63 53  1  0
 65 67  2  0
 66 65  1  0
 68 66  1  0
 69 78  2  0
 69 74  1  0
 70 66  1  0
 70 74  1  0
 71 70  1  0
 72 73  1  0
 72 71  1  0
 73 69  1  0
 74 75  2  0
 75 76  1  0
 77 76  2  0
 78 77  1  0
 79 53  1  0
 79 80  1  0
 79 89  1  0
 80 83  1  0
 81 85  1  0
 81 80  1  0
 82 81  2  0
 85 84  1  0
 87 85  1  0
 87 88  1  0
 87 86  1  0
 89 92  1  1
 89 90  1  0
 91 89  1  0
M  ISO  4   9 100  17 100  51 101  52 101
M  END
>  <TORSDO>  (68) 
F 18

>  <SCORE>  (68) 
-15.706

>  <name>  (68) 
67

>  <ligand_id>  (68) 
67

>  <original_smiles>  (68) 
[H]c1c([H])c([H])c2c(c1[H])C([H])([H])C([H])([H])C([H])([H])C2([H])N([H])C(=O)C1([H])N(C(=O)C([H])(N([H])C(=O)C([H])(N([H])C([H])([H])[H])C([H])([H])[H])C(C([H])([H])[H])(C([H])([H])[H])C([H])([H])[H])C([H])([H])c2c([H])c(OC([H])([H])C(=O)N([H])c3c([H])c(C([H])([H])[H])c(C([H])([H])[H])c([H])c3N([H])C(=O)N3C([H])([H])C([H])([H])C([H])([H])C([H])(n4nc(-c5c([H])c([H])c(Oc6c([H])c([H])c(F)c([H])c6F)c([H])c5[H])c(C(=O)N([H])[H])c4N([H])[H])C3([H])[H])c([H])c([H])c2C1([H])[H]

>  <smiles>  (68) 
[H]c1c([H])c([H])c2c(c1[H])C([H])([H])C([H])([H])C([H])([H])C2([H])N([H])C(=O)C1([H])N(C(=O)C([H])(N([H])C(=O)C([H])(N([H])C([H])([H])[H])C([H])([H])[H])C(C([H])([H])[H])(C([H])([H])[H])C([H])([H])[H])C([H])([H])c2c([H])c(OC([H])([H])C(=O)N([H])c3c([H])c(C([H])([H])[H])c(C([H])([H])[H])c([H])c3N([H])C(=O)N3C([H])([H])C([H])([H])C([H])([H])C([H])(n4nc(-c5c([H])c([H])c(Oc6c([H])c([H])c(F)c([H])c6F)c([H])c5[H])c(C(=O)N([H])[H])c4N([H])[H])C3([H])[H])c([H])c([H])c2C1([H])[H]

$$$$
68:0:0
     RDKit          3D

 93101  0  0  1  0  0  0  0  0999 V2000
  -30.0580  -21.6950   19.9050 C   0  0  0  0  0  2  0  0  0  0  0  0
  -29.2020  -19.2940   19.3690 C   0  0  0  0  0  3  0  0  0  0  0  0
  -30.6060  -18.0920   21.4560 C   0  0  0  0  0  3  0  0  0  0  0  0
  -29.9040  -20.1600   20.2480 C   0  0  0  0  0  0  0  0  0  0  0  0
  -29.2040  -17.8710   19.5090 C   0  0  0  0  0  0  0  0  0  0  0  0
  -30.5990  -19.5180   21.3140 C   0  0  0  0  0  0  0  0  0  0  0  0
  -29.9350  -17.2280   20.5490 C   0  0  0  0  0  0  0  0  0  0  0  0
  -28.3980  -17.0450   18.5210 C   0  0  0  0  0  1  0  0  0  0  0  0
  -31.3880  -20.3490   22.3110 C   0  0  0  0  0  1  0  0  0  0  0  0
  -30.6380  -14.7440   20.4120 C   0  0  0  0  0  0  0  0  0  0  0  0
  -30.4390  -12.5030   19.3510 C   0  0  0  0  0  2  0  0  0  0  0  0
  -29.4810  -12.6260   18.1440 C   0  0  0  0  0  2  0  0  0  0  0  0
  -28.0130  -12.4590   18.5840 C   0  0  0  0  0  2  0  0  0  0  0  0
  -27.6620  -13.3160   19.8290 C   0  0  0  0  0  3  0  0  0  0  0  0
  -28.7310  -13.1630   20.9350 C   0  0  0  0  0  2  0  0  0  0  0  0
  -30.0340  -13.5150   20.3460 N   0  0  0  0  0  0  0  0  0  0  0  0
  -31.7940  -14.9130   20.0090 O   0  0  0  0  0  0  0  0  0  0  0  0
  -29.8370  -15.7880   20.7950 N   0  0  0  0  0  0  0  0  0  0  0  0
  -28.9310  -15.4820   21.1180 H   0  0  0  0  0  0  0  0  0  0  0  0
  -25.2730  -13.9090   20.5660 C   0  0  0  0  0  0  0  0  0  0  0  0
  -24.2110  -13.1330   20.9410 C   0  0  0  0  0  0  0  0  0  0  0  0
  -24.6760  -11.7830   20.9040 C   0  0  0  0  0  0  0  0  0  0  0  0
  -26.3180  -13.0310   20.3230 N   0  0  0  0  0  0  0  0  0  0  0  0
  -25.9650  -11.7480   20.5860 N   0  0  0  0  0  0  0  0  0  0  0  0
  -23.9550  -10.5190   21.0960 C   0  0  0  0  0  0  0  0  0  0  0  0
  -24.3750   -9.5660   22.0500 C   0  0  0  0  0  3  0  0  0  0  0  0
  -23.6540   -8.3660   22.2290 C   0  0  0  0  0  3  0  0  0  0  0  0
  -22.4980   -8.1100   21.4550 C   0  0  0  0  0  0  0  0  0  0  0  0
  -22.0970   -9.0500   20.4910 C   0  0  0  0  0  3  0  0  0  0  0  0
  -22.8180  -10.2420   20.3090 C   0  0  0  0  0  3  0  0  0  0  0  0
  -21.7490   -6.9610   21.5430 O   0  0  0  0  0  0  0  0  0  0  0  0
  -21.6570   -6.2500   22.7120 C   0  0  0  0  0  0  0  0  0  0  0  0
  -21.1250   -6.8190   23.8910 C   0  0  0  0  0  3  0  0  0  0  0  0
  -20.9850   -6.0310   25.0510 C   0  0  0  0  0  3  0  0  0  0  0  0
  -21.3650   -4.6750   25.0320 C   0  0  0  0  0  0  0  0  0  0  0  0
  -21.8900   -4.1070   23.8580 C   0  0  0  0  0  3  0  0  0  0  0  0
  -22.0330   -4.8910   22.7010 C   0  0  0  0  0  0  0  0  0  0  0  0
  -22.5180   -4.3330   21.5660 F   0  0  0  0  0  0  0  0  0  0  0  0
  -21.2240   -3.9160   26.1450 F   0  0  0  0  0  0  0  0  0  0  0  0
  -22.8140  -13.6060   21.2230 C   0  0  0  0  0  0  0  0  0  0  0  0
  -22.0890  -12.8980   22.0830 N   0  0  0  0  0  0  0  0  0  0  0  0
  -22.3740  -14.6360   20.7180 O   0  0  0  0  0  0  0  0  0  0  0  0
  -22.4560  -12.0620   22.5140 H   0  0  0  0  0  0  0  0  0  0  0  0
  -21.1510  -13.1950   22.3140 H   0  0  0  0  0  0  0  0  0  0  0  0
  -25.4320  -15.2810   20.3920 N   0  0  0  0  0  0  0  0  0  0  0  0
  -24.6620  -15.9290   20.5180 H   0  0  0  0  0  0  0  0  0  0  0  0
  -26.2740  -15.7310   20.0620 H   0  0  0  0  0  0  0  0  0  0  0  0
  -29.2630  -24.1070   20.1780 C   0  0  0  0  0  0  0  0  0  0  0  0
  -29.1390  -22.7600   20.4340 N   0  0  0  0  0  0  0  0  0  0  0  0
  -30.2050  -24.5290   19.5020 O   0  0  0  0  0  0  0  0  0  0  0  0
  -28.3550  -22.4560   20.9940 H   0  0  0  0  0  0  0  0  0  0  0  0
  -28.2080  -25.1450   20.7300 C   0  0  0  0  0  2  0  0  0  0  0  0
  -28.4220  -26.5670   20.3470 O   0  0  0  0  0  0  0  0  0  0  0  0
  -24.5520  -31.9120   23.3020 C   0  0  0  0  0  0  0  0  0  0  0  0
  -27.2910  -27.3980   20.3010 C   0  0  0  0  0  0  0  0  0  0  0  0
  -23.4030  -30.4990   21.6340 C   0  0  0  0  0  3  0  0  0  0  0  0
  -24.9040  -28.9700   20.2410 C   0  0  0  0  0  0  0  0  0  0  0  0
  -25.9400  -30.8530   21.5050 C   0  0  0  0  0  2  0  0  0  0  0  0
  -26.0530  -29.4770   20.8630 C   0  0  0  0  0  0  0  0  0  0  0  0
  -27.2510  -28.7020   20.8820 C   0  0  0  0  0  3  0  0  0  0  0  0
  -26.1230  -26.9500   19.6430 C   0  0  0  0  0  3  0  0  0  0  0  0
  -24.9410  -27.7120   19.6230 C   0  0  0  0  0  3  0  0  0  0  0  0
  -23.6540  -29.8270   20.2600 C   0  0  0  0  0  2  0  0  0  0  0  0
  -24.6490  -31.1060   22.2040 N   0  0  0  0  0  0  0  0  0  0  0  0
  -23.4550  -32.1750   23.8130 O   0  0  0  0  0  0  0  0  0  0  0  0
  -22.7320  -29.4740   22.5800 C   0  0  0  0  0  0  0  0  0  0  0  0
  -21.4120  -29.2820   22.4250 N   0  0  0  0  0  0  0  0  0  0  0  0
  -23.4010  -28.8530   23.4100 O   0  0  0  0  0  0  0  0  0  0  0  0
  -20.9310  -29.8340   21.7280 H   0  0  0  0  0  0  0  0  0  0  0  0
  -18.0330  -28.0720   22.8770 C   0  0  0  0  0  0  0  0  0  0  0  0
  -20.5870  -28.3350   23.1780 C   0  0  0  0  0  3  0  0  0  0  0  0
  -20.6980  -26.9090   22.5900 C   0  0  0  0  0  2  0  0  0  0  0  0
  -19.6090  -26.5940   21.5600 C   0  0  0  0  0  2  0  0  0  0  0  0
  -18.2200  -26.7290   22.1910 C   0  0  0  0  0  2  0  0  0  0  0  0
  -19.1450  -28.8330   23.3260 C   0  0  0  0  0  0  0  0  0  0  0  0
  -18.9160  -30.0890   23.9280 C   0  0  0  0  0  3  0  0  0  0  0  0
  -17.6080  -30.5850   24.0850 C   0  0  0  0  0  3  0  0  0  0  0  0
  -16.5100  -29.8220   23.6510 C   0  0  0  0  0  3  0  0  0  0  0  0
  -16.7240  -28.5670   23.0530 C   0  0  0  0  0  3  0  0  0  0  0  0
  -25.8140  -32.5600   23.9520 C   0  0  0  0  0  3  0  0  0  0  0  0
  -26.2920  -31.8120   25.2570 C   0  0  1  0  0  0  0  0  0  0  0  0
  -25.1670  -31.5840   26.2920 C   0  0  0  0  0  1  0  0  0  0  0  0
  -26.8970  -30.4340   24.9060 C   0  0  0  0  0  1  0  0  0  0  0  0
  -27.4160  -32.6250   25.9420 C   0  0  0  0  0  1  0  0  0  0  0  0
  -25.4900  -33.9620   24.2490 N   0  0  0  0  0  0  0  0  0  0  0  0
  -25.8420  -35.0040   23.4830 C   0  0  0  0  0  0  0  0  0  0  0  0
  -26.5430  -34.8860   22.4750 O   0  0  0  0  0  0  0  0  0  0  0  0
  -24.8700  -34.1280   25.0280 H   0  0  0  0  0  0  0  0  0  0  0  0
  -24.1300  -36.7920   23.0360 C   0  0  0  0  0  1  0  0  0  0  0  0
  -25.3360  -36.3980   23.9020 C   0  0  0  0  0  3  0  0  0  0  0  0
  -27.4310  -37.2980   24.8140 C   0  0  0  0  0  1  0  0  0  0  0  0
  -26.3740  -37.4490   23.8190 N   0  0  0  0  0  0  0  0  0  0  0  0
  -25.9610  -38.3720   23.9320 H   0  0  0  0  0  0  0  0  0  0  0  0
  1  4  1  0
  1 49  1  0
  2  5  2  0
  2  4  1  0
  4  6  2  0
  5  7  1  0
  6  3  1  0
  6  9  1  0
  7 18  1  0
  7  3  2  0
  8  5  1  0
 10 18  1  0
 11 16  1  0
 12 13  1  0
 12 11  1  0
 14 13  1  0
 14 23  1  0
 14 15  1  0
 16 10  1  0
 16 15  1  0
 17 10  2  0
 18 19  1  0
 20 21  2  0
 21 40  1  0
 22 21  1  0
 22 25  1  0
 23 20  1  0
 23 24  1  0
 24 22  2  0
 25 26  1  0
 26 27  2  0
 28 31  1  0
 28 27  1  0
 29 28  2  0
 30 29  1  0
 30 25  2  0
 31 32  1  0
 32 33  1  0
 33 34  2  0
 35 34  1  0
 35 39  1  0
 36 35  2  0
 37 32  2  0
 37 36  1  0
 38 37  1  0
 40 41  1  0
 41 44  1  0
 41 43  1  0
 42 40  2  0
 45 46  1  0
 45 20  1  0
 47 45  1  0
 48 49  1  0
 48 52  1  0
 49 51  1  0
 50 48  2  0
 53 52  1  0
 54 65  2  0
 55 53  1  0
 55 60  1  0
 56 64  1  0
 56 66  1  0
 57 63  1  0
 57 59  1  0
 58 64  1  0
 59 60  2  0
 59 58  1  0
 61 55  2  0
 62 61  1  0
 62 57  2  0
 63 56  1  0
 64 54  1  0
 66 68  2  0
 67 66  1  0
 69 67  1  0
 70 79  2  0
 70 75  1  0
 71 67  1  0
 71 75  1  0
 72 71  1  0
 73 74  1  0
 73 72  1  0
 74 70  1  0
 75 76  2  0
 76 77  1  0
 78 77  2  0
 79 78  1  0
 80 54  1  0
 80 85  1  0
 80 81  1  0
 81 84  1  1
 81 82  1  0
 83 81  1  0
 85 88  1  0
 86 90  1  0
 86 85  1  0
 87 86  2  0
 90 89  1  0
 92 90  1  0
 92 93  1  0
 92 91  1  0
M  ISO  4  10 100  18 100  52 101  53 101
M  END
>  <TORSDO>  (69) 
F 19

>  <SCORE>  (69) 
-14.450

>  <name>  (69) 
68

>  <ligand_id>  (69) 
68

>  <original_smiles>  (69) 
[H]c1c([H])c([H])c2c(c1[H])C([H])([H])C([H])([H])C([H])([H])C2([H])N([H])C(=O)C1([H])N(C(=O)C([H])(N([H])C(=O)C([H])(N([H])C([H])([H])[H])C([H])([H])[H])C(C([H])([H])[H])(C([H])([H])[H])C([H])([H])[H])C([H])([H])c2c([H])c(OC([H])([H])C(=O)N([H])C([H])([H])c3c([H])c(C([H])([H])[H])c(N([H])C(=O)N4C([H])([H])C([H])([H])C([H])([H])C([H])(n5nc(-c6c([H])c([H])c(Oc7c([H])c([H])c(F)c([H])c7F)c([H])c6[H])c(C(=O)N([H])[H])c5N([H])[H])C4([H])[H])c([H])c3C([H])([H])[H])c([H])c([H])c2C1([H])[H]

>  <smiles>  (69) 
[H]c1c([H])c([H])c2c(c1[H])C([H])([H])C([H])([H])C([H])([H])C2([H])N([H])C(=O)C1([H])N(C(=O)C([H])(N([H])C(=O)C([H])(N([H])C([H])([H])[H])C([H])([H])[H])C(C([H])([H])[H])(C([H])([H])[H])C([H])([H])[H])C([H])([H])c2c([H])c(OC([H])([H])C(=O)N([H])C([H])([H])c3c([H])c(C([H])([H])[H])c(N([H])C(=O)N4C([H])([H])C([H])([H])C([H])([H])C([H])(n5nc(-c6c([H])c([H])c(Oc7c([H])c([H])c(F)c([H])c7F)c([H])c6[H])c(C(=O)N([H])[H])c5N([H])[H])C4([H])[H])c([H])c3C([H])([H])[H])c([H])c([H])c2C1([H])[H]

$$$$
69:0:0
     RDKit          3D

 98106  0  0  1  0  0  0  0  0999 V2000
  -27.2260  -20.7520   20.1350 C   0  0  0  0  0  0  0  0  0  0  0  0
  -27.5810  -19.6650   19.4420 N   0  0  0  0  0  0  0  0  0  0  0  0
  -27.6910  -21.0610   21.2360 O   0  0  0  0  0  0  0  0  0  0  0  0
  -27.2070  -19.5820   18.5060 H   0  0  0  0  0  0  0  0  0  0  0  0
  -29.8530  -16.7750   19.0280 C   0  0  0  0  0  3  0  0  0  0  0  0
  -29.1210  -18.5720   21.0680 C   0  0  0  0  0  3  0  0  0  0  0  0
  -30.3870  -16.6130   20.3320 C   0  0  0  0  0  0  0  0  0  0  0  0
  -28.5630  -18.7030   19.7760 C   0  0  0  0  0  0  0  0  0  0  0  0
  -28.9320  -17.8010   18.7620 C   0  0  0  0  0  0  0  0  0  0  0  0
  -30.0260  -17.5290   21.3470 C   0  0  0  0  0  0  0  0  0  0  0  0
  -28.3810  -17.9130   17.5280 F   0  0  0  0  0  0  0  0  0  0  0  0
  -30.6530  -17.3570   22.9500 Cl  0  0  0  0  0  0  0  0  0  0  0  0
  -31.6330  -14.5890   19.8240 C   0  0  0  0  0  0  0  0  0  0  0  0
  -31.2070  -12.3640   18.8590 C   0  0  0  0  0  2  0  0  0  0  0  0
  -30.1500  -12.4690   17.7410 C   0  0  0  0  0  2  0  0  0  0  0  0
  -28.7240  -12.3920   18.3190 C   0  0  0  0  0  2  0  0  0  0  0  0
  -28.5130  -13.3490   19.5230 C   0  0  0  0  0  3  0  0  0  0  0  0
  -29.6630  -13.1950   20.5450 C   0  0  0  0  0  2  0  0  0  0  0  0
  -30.9480  -13.4180   19.8480 N   0  0  0  0  0  0  0  0  0  0  0  0
  -32.5710  -14.8260   19.0570 O   0  0  0  0  0  0  0  0  0  0  0  0
  -31.2020  -15.5080   20.6930 N   0  0  0  0  0  0  0  0  0  0  0  0
  -30.9390  -15.1240   21.5910 H   0  0  0  0  0  0  0  0  0  0  0  0
  -26.2840  -14.0740   20.6000 C   0  0  0  0  0  0  0  0  0  0  0  0
  -25.2050  -13.3500   21.0370 C   0  0  0  0  0  0  0  0  0  0  0  0
  -25.5310  -11.9780   20.8110 C   0  0  0  0  0  0  0  0  0  0  0  0
  -27.2060  -13.1420   20.1470 N   0  0  0  0  0  0  0  0  0  0  0  0
  -26.7590  -11.8710   20.3230 N   0  0  0  0  0  0  0  0  0  0  0  0
  -24.7240  -10.7630   20.9750 C   0  0  0  0  0  0  0  0  0  0  0  0
  -25.0630   -9.7710   21.9230 C   0  0  0  0  0  3  0  0  0  0  0  0
  -24.2610   -8.6200   22.0750 C   0  0  0  0  0  3  0  0  0  0  0  0
  -23.1020   -8.4530   21.2800 C   0  0  0  0  0  0  0  0  0  0  0  0
  -22.7810   -9.4320   20.3230 C   0  0  0  0  0  3  0  0  0  0  0  0
  -23.5830  -10.5750   20.1680 C   0  0  0  0  0  3  0  0  0  0  0  0
  -22.2770   -7.3560   21.3400 O   0  0  0  0  0  0  0  0  0  0  0  0
  -21.9920   -6.7360   22.5300 C   0  0  0  0  0  0  0  0  0  0  0  0
  -21.4050   -7.4290   23.6100 C   0  0  0  0  0  3  0  0  0  0  0  0
  -21.0630   -6.7350   24.7890 C   0  0  0  0  0  3  0  0  0  0  0  0
  -21.2990   -5.3510   24.8860 C   0  0  0  0  0  0  0  0  0  0  0  0
  -21.8800   -4.6580   23.8090 C   0  0  0  0  0  3  0  0  0  0  0  0
  -22.2210   -5.3480   22.6330 C   0  0  0  0  0  0  0  0  0  0  0  0
  -22.7600   -4.6710   21.5910 F   0  0  0  0  0  0  0  0  0  0  0  0
  -20.9650   -4.6840   26.0150 F   0  0  0  0  0  0  0  0  0  0  0  0
  -23.9060  -13.9030   21.5510 C   0  0  0  0  0  0  0  0  0  0  0  0
  -23.2620  -13.1990   22.4750 N   0  0  0  0  0  0  0  0  0  0  0  0
  -23.4780  -14.9900   21.1680 O   0  0  0  0  0  0  0  0  0  0  0  0
  -23.6240  -12.3160   22.8060 H   0  0  0  0  0  0  0  0  0  0  0  0
  -22.3960  -13.5480   22.8620 H   0  0  0  0  0  0  0  0  0  0  0  0
  -26.5490  -15.4370   20.5350 N   0  0  0  0  0  0  0  0  0  0  0  0
  -25.8560  -16.1300   20.7970 H   0  0  0  0  0  0  0  0  0  0  0  0
  -27.3760  -15.8380   20.1160 H   0  0  0  0  0  0  0  0  0  0  0  0
  -26.2040  -21.6700   19.4770 C   0  0  0  0  0  2  0  0  0  0  0  0
  -25.2130  -23.8790   19.9280 C   0  0  0  0  0  1  0  0  0  0  0  0
  -26.4550  -23.0650   19.8990 N   0  0  2  0  0  4  0  0  0  0  0  0
  -26.7830  -22.9450   20.8510 H   0  0  0  0  0  0  0  0  0  0  0  0
  -27.5510  -23.7090   19.1280 C   0  0  0  0  0  2  0  0  0  0  0  0
  -28.3160  -24.7680   19.9460 C   0  0  0  0  0  2  0  0  0  0  0  0
  -29.0090  -25.8260   19.0620 C   0  0  0  0  0  2  0  0  0  0  0  0
  -28.9040  -27.1330   19.6250 O   0  0  0  0  0  0  0  0  0  0  0  0
  -24.8140  -31.5600   23.3450 C   0  0  0  0  0  0  0  0  0  0  0  0
  -27.6690  -27.7470   19.6830 C   0  0  0  0  0  0  0  0  0  0  0  0
  -23.6710  -30.3470   21.5170 C   0  0  0  0  0  3  0  0  0  0  0  0
  -25.1920  -29.0910   19.9030 C   0  0  0  0  0  0  0  0  0  0  0  0
  -26.1740  -30.8450   21.3880 C   0  0  0  0  0  2  0  0  0  0  0  0
  -26.3190  -29.5840   20.5690 C   0  0  0  0  0  0  0  0  0  0  0  0
  -27.5550  -28.9130   20.4670 C   0  0  0  0  0  3  0  0  0  0  0  0
  -26.5210  -27.2700   19.0030 C   0  0  0  0  0  3  0  0  0  0  0  0
  -25.2850  -27.9300   19.1220 C   0  0  0  0  0  3  0  0  0  0  0  0
  -23.9120  -29.8740   20.0590 C   0  0  0  0  0  2  0  0  0  0  0  0
  -24.9030  -30.9250   22.1440 N   0  0  0  0  0  0  0  0  0  0  0  0
  -23.7200  -31.7120   23.9080 O   0  0  0  0  0  0  0  0  0  0  0  0
  -23.0650  -29.1760   22.3230 C   0  0  0  0  0  0  0  0  0  0  0  0
  -21.7710  -28.9050   22.0930 N   0  0  0  0  0  0  0  0  0  0  0  0
  -23.7580  -28.5200   23.1040 O   0  0  0  0  0  0  0  0  0  0  0  0
  -21.2700  -29.4950   21.4430 H   0  0  0  0  0  0  0  0  0  0  0  0
  -18.5160  -27.3390   22.1700 C   0  0  0  0  0  0  0  0  0  0  0  0
  -20.9990  -27.8240   22.7030 C   0  0  0  0  0  3  0  0  0  0  0  0
  -21.3050  -26.4710   22.0220 C   0  0  0  0  0  2  0  0  0  0  0  0
  -20.3330  -26.1370   20.8840 C   0  0  0  0  0  2  0  0  0  0  0  0
  -18.8950  -26.0810   21.4070 C   0  0  0  0  0  2  0  0  0  0  0  0
  -19.5060  -28.1670   22.7630 C   0  0  0  0  0  0  0  0  0  0  0  0
  -19.1040  -29.3430   23.4310 C   0  0  0  0  0  3  0  0  0  0  0  0
  -17.7450  -29.6970   23.5140 C   0  0  0  0  0  3  0  0  0  0  0  0
  -16.7690  -28.8670   22.9370 C   0  0  0  0  0  3  0  0  0  0  0  0
  -17.1550  -27.6890   22.2720 C   0  0  0  0  0  3  0  0  0  0  0  0
  -26.0730  -32.1480   24.0560 C   0  0  0  0  0  3  0  0  0  0  0  0
  -25.7440  -33.5170   24.4750 N   0  0  0  0  0  0  0  0  0  0  0  0
  -26.1130  -34.6220   23.8140 C   0  0  0  0  0  0  0  0  0  0  0  0
  -26.8380  -34.5960   22.8160 O   0  0  0  0  0  0  0  0  0  0  0  0
  -25.1080  -33.6160   25.2530 H   0  0  0  0  0  0  0  0  0  0  0  0
  -24.4000  -36.4350   23.5000 C   0  0  0  0  0  1  0  0  0  0  0  0
  -25.5960  -35.9730   24.3460 C   0  0  0  0  0  3  0  0  0  0  0  0
  -27.6770  -36.7920   25.3580 C   0  0  0  0  0  1  0  0  0  0  0  0
  -26.6300  -37.0300   24.3680 N   0  0  0  0  0  0  0  0  0  0  0  0
  -26.2130  -37.9370   24.5620 H   0  0  0  0  0  0  0  0  0  0  0  0
  -26.5540  -31.2850   25.2870 C   0  0  1  0  0  0  0  0  0  0  0  0
  -25.4290  -30.9640   26.2970 C   0  0  0  0  0  1  0  0  0  0  0  0
  -27.1570  -29.9440   24.8060 C   0  0  0  0  0  1  0  0  0  0  0  0
  -27.6790  -32.0310   26.0430 C   0  0  0  0  0  1  0  0  0  0  0  0
  1  3  2  0
  2  8  1  0
  2  1  1  0
  4  2  1  0
  5  7  1  0
  6 10  1  0
  7 21  1  0
  7 10  2  0
  8  6  2  0
  9  5  2  0
  9  8  1  0
 10 12  1  0
 11  9  1  0
 13 19  1  0
 13 21  1  0
 14 19  1  0
 15 16  1  0
 15 14  1  0
 17 16  1  0
 17 26  1  0
 17 18  1  0
 19 18  1  0
 20 13  2  0
 21 22  1  0
 23 24  2  0
 24 43  1  0
 25 28  1  0
 25 24  1  0
 26 27  1  0
 26 23  1  0
 27 25  2  0
 28 29  1  0
 29 30  2  0
 31 34  1  0
 31 30  1  0
 32 31  2  0
 33 32  1  0
 33 28  2  0
 34 35  1  0
 35 40  2  0
 35 36  1  0
 36 37  2  0
 37 38  1  0
 38 42  1  0
 39 38  2  0
 40 39  1  0
 41 40  1  0
 43 44  1  0
 44 46  1  0
 44 47  1  0
 45 43  2  0
 48 23  1  0
 48 49  1  0
 50 48  1  0
 51 53  1  0
 51  1  1  0
 53 52  1  0
 53 54  1  1
 55 53  1  0
 55 56  1  0
 57 58  1  0
 57 56  1  0
 58 60  1  0
 59 70  2  0
 60 65  1  0
 61 69  1  0
 61 71  1  0
 62 68  1  0
 62 64  1  0
 63 69  1  0
 64 63  1  0
 65 64  2  0
 66 67  1  0
 66 60  2  0
 67 62  2  0
 68 61  1  0
 69 59  1  0
 71 73  2  0
 72 71  1  0
 74 72  1  0
 75 84  2  0
 75 80  1  0
 76 72  1  0
 76 80  1  0
 77 76  1  0
 78 79  1  0
 78 77  1  0
 79 75  1  0
 80 81  2  0
 81 82  1  0
 83 82  2  0
 84 83  1  0
 85 59  1  0
 85 86  1  0
 85 95  1  0
 86 89  1  0
 87 91  1  0
 87 86  1  0
 88 87  2  0
 91 90  1  0
 91 93  1  0
 93 94  1  0
 93 92  1  0
 95 98  1  1
 95 96  1  0
 97 95  1  0
M  ISO  4  13 100  21 100  57 101  58 101
M  END
>  <TORSDO>  (70) 
F 22

>  <SCORE>  (70) 
-9.706

>  <name>  (70) 
69

>  <ligand_id>  (70) 
69

>  <original_smiles>  (70) 
[H]c1c([H])c([H])c2c(c1[H])C([H])([H])C([H])([H])C([H])([H])C2([H])N([H])C(=O)C1([H])N(C(=O)C([H])(N([H])C(=O)C([H])(N([H])C([H])([H])[H])C([H])([H])[H])C(C([H])([H])[H])(C([H])([H])[H])C([H])([H])[H])C([H])([H])c2c([H])c(OC([H])([H])C([H])([H])C([H])([H])[N+]([H])(C([H])([H])[H])C([H])([H])C(=O)N([H])c3c([H])c(Cl)c(N([H])C(=O)N4C([H])([H])C([H])([H])C([H])([H])C([H])(n5nc(-c6c([H])c([H])c(Oc7c([H])c([H])c(F)c([H])c7F)c([H])c6[H])c(C(=O)N([H])[H])c5N([H])[H])C4([H])[H])c([H])c3F)c([H])c([H])c2C1([H])[H]

>  <smiles>  (70) 
[H]c1c([H])c([H])c2c(c1[H])C([H])([H])C([H])([H])C([H])([H])C2([H])N([H])C(=O)C1([H])N(C(=O)C([H])(N([H])C(=O)C([H])(N([H])C([H])([H])[H])C([H])([H])[H])C(C([H])([H])[H])(C([H])([H])[H])C([H])([H])[H])C([H])([H])c2c([H])c(OC([H])([H])C([H])([H])C([H])([H])[N+]([H])(C([H])([H])[H])C([H])([H])C(=O)N([H])c3c([H])c(Cl)c(N([H])C(=O)N4C([H])([H])C([H])([H])C([H])([H])C([H])(n5nc(-c6c([H])c([H])c(Oc7c([H])c([H])c(F)c([H])c7F)c([H])c6[H])c(C(=O)N([H])[H])c5N([H])[H])C4([H])[H])c([H])c3F)c([H])c([H])c2C1([H])[H]

$$$$
70:0:0
     RDKit          3D

 92100  0  0  1  0  0  0  0  0999 V2000
  -31.6540  -19.4530   21.4520 C   0  0  0  0  0  3  0  0  0  0  0  0
  -31.2680  -18.1470   21.0950 C   0  0  0  0  0  3  0  0  0  0  0  0
  -30.8300  -20.5970   21.3150 C   0  0  0  0  0  0  0  0  0  0  0  0
  -29.1530  -19.1030   20.3780 C   0  0  0  0  0  0  0  0  0  0  0  0
  -29.9930  -17.8560   20.5830 C   0  0  0  0  0  0  0  0  0  0  0  0
  -29.5430  -20.5380   20.6920 C   0  0  0  0  0  0  0  0  0  0  0  0
  -31.3920  -21.8550   21.9600 C   0  0  0  0  0  1  0  0  0  0  0  0
  -27.7670  -18.8880   19.8020 C   0  0  0  0  0  1  0  0  0  0  0  0
  -30.4470  -15.1200   20.2860 C   0  0  0  0  0  0  0  0  0  0  0  0
  -30.3400  -12.7630   19.3050 C   0  0  0  0  0  2  0  0  0  0  0  0
  -29.3810  -12.6840   18.0940 C   0  0  0  0  0  2  0  0  0  0  0  0
  -27.9360  -12.4320   18.5620 C   0  0  0  0  0  2  0  0  0  0  0  0
  -27.5350  -13.3450   19.7490 C   0  0  0  0  0  3  0  0  0  0  0  0
  -28.6140  -13.3910   20.8500 C   0  0  0  0  0  2  0  0  0  0  0  0
  -29.8510  -13.8530   20.2060 N   0  0  0  0  0  0  0  0  0  0  0  0
  -31.6560  -15.1520   20.0310 O   0  0  0  0  0  0  0  0  0  0  0  0
  -29.6690  -16.3370   20.3940 N   0  0  0  0  0  0  0  0  0  0  0  0
  -28.6800  -16.1400   20.3850 H   0  0  0  0  0  0  0  0  0  0  0  0
  -25.1680  -13.8790   20.5510 C   0  0  0  0  0  0  0  0  0  0  0  0
  -24.1220  -13.0860   20.9330 C   0  0  0  0  0  0  0  0  0  0  0  0
  -24.6030  -11.7420   20.8780 C   0  0  0  0  0  0  0  0  0  0  0  0
  -26.2160  -13.0180   20.2770 N   0  0  0  0  0  0  0  0  0  0  0  0
  -25.8890  -11.7260   20.5420 N   0  0  0  0  0  0  0  0  0  0  0  0
  -23.8960  -10.4680   21.0650 C   0  0  0  0  0  0  0  0  0  0  0  0
  -24.3550   -9.4950   21.9800 C   0  0  0  0  0  3  0  0  0  0  0  0
  -23.6440   -8.2880   22.1580 C   0  0  0  0  0  3  0  0  0  0  0  0
  -22.4600   -8.0460   21.4210 C   0  0  0  0  0  0  0  0  0  0  0  0
  -22.0200   -9.0090   20.4950 C   0  0  0  0  0  3  0  0  0  0  0  0
  -22.7320  -10.2070   20.3160 C   0  0  0  0  0  3  0  0  0  0  0  0
  -21.7190   -6.8920   21.5090 O   0  0  0  0  0  0  0  0  0  0  0  0
  -21.6940   -6.1390   22.6550 C   0  0  0  0  0  0  0  0  0  0  0  0
  -21.2580   -6.6700   23.8890 C   0  0  0  0  0  3  0  0  0  0  0  0
  -21.1840   -5.8410   25.0260 C   0  0  0  0  0  3  0  0  0  0  0  0
  -21.5340   -4.4820   24.9310 C   0  0  0  0  0  0  0  0  0  0  0  0
  -21.9640   -3.9490   23.7020 C   0  0  0  0  0  3  0  0  0  0  0  0
  -22.0410   -4.7750   22.5670 C   0  0  0  0  0  0  0  0  0  0  0  0
  -22.4350   -4.2520   21.3810 F   0  0  0  0  0  0  0  0  0  0  0  0
  -21.4560   -3.6830   26.0210 F   0  0  0  0  0  0  0  0  0  0  0  0
  -22.7240  -13.5420   21.2320 C   0  0  0  0  0  0  0  0  0  0  0  0
  -22.0210  -12.8330   22.1060 N   0  0  0  0  0  0  0  0  0  0  0  0
  -22.2650  -14.5660   20.7250 O   0  0  0  0  0  0  0  0  0  0  0  0
  -22.4060  -12.0050   22.5380 H   0  0  0  0  0  0  0  0  0  0  0  0
  -21.0840  -13.1210   22.3490 H   0  0  0  0  0  0  0  0  0  0  0  0
  -25.3080  -15.2530   20.3830 N   0  0  0  0  0  0  0  0  0  0  0  0
  -24.5290  -15.8910   20.5140 H   0  0  0  0  0  0  0  0  0  0  0  0
  -26.1270  -15.7050   20.0010 H   0  0  0  0  0  0  0  0  0  0  0  0
  -28.9510  -23.2770   20.3330 C   0  0  0  0  0  0  0  0  0  0  0  0
  -28.6940  -21.8600   20.5390 N   0  0  0  0  0  0  0  0  0  0  0  0
  -30.0810  -23.6290   19.9920 O   0  0  0  0  0  0  0  0  0  0  0  0
  -27.7010  -21.6930   20.6270 H   0  0  0  0  0  0  0  0  0  0  0  0
  -27.8380  -24.5450   20.3980 C   0  0  0  0  0  2  0  0  0  0  0  0
  -28.1970  -26.0980   20.3760 O   0  0  0  0  0  0  0  0  0  0  0  0
  -24.6610  -31.9770   23.2710 C   0  0  0  0  0  0  0  0  0  0  0  0
  -27.1740  -27.1400   20.3090 C   0  0  0  0  0  0  0  0  0  0  0  0
  -23.4490  -30.5770   21.6480 C   0  0  0  0  0  3  0  0  0  0  0  0
  -24.8790  -28.9620   20.2450 C   0  0  0  0  0  0  0  0  0  0  0  0
  -26.0110  -30.7910   21.4900 C   0  0  0  0  0  2  0  0  0  0  0  0
  -26.0680  -29.3850   20.8530 C   0  0  0  0  0  0  0  0  0  0  0  0
  -27.2150  -28.4930   20.8640 C   0  0  0  0  0  3  0  0  0  0  0  0
  -25.9590  -26.8380   19.6550 C   0  0  0  0  0  3  0  0  0  0  0  0
  -24.8430  -27.7040   19.6270 C   0  0  0  0  0  3  0  0  0  0  0  0
  -23.6670  -29.8800   20.2780 C   0  0  0  0  0  2  0  0  0  0  0  0
  -24.7280  -31.1390   22.1900 N   0  0  0  0  0  0  0  0  0  0  0  0
  -23.5760  -32.2820   23.7910 O   0  0  0  0  0  0  0  0  0  0  0  0
  -22.7520  -29.5920   22.6210 C   0  0  0  0  0  0  0  0  0  0  0  0
  -21.4240  -29.4240   22.4840 N   0  0  0  0  0  0  0  0  0  0  0  0
  -23.4100  -28.9800   23.4650 O   0  0  0  0  0  0  0  0  0  0  0  0
  -20.9480  -29.9680   21.7780 H   0  0  0  0  0  0  0  0  0  0  0  0
  -18.0350  -28.2330   22.9690 C   0  0  0  0  0  0  0  0  0  0  0  0
  -20.5910  -28.5040   23.2650 C   0  0  0  0  0  3  0  0  0  0  0  0
  -20.7010  -27.0600   22.7240 C   0  0  0  0  0  2  0  0  0  0  0  0
  -19.6130  -26.7130   21.7020 C   0  0  0  0  0  2  0  0  0  0  0  0
  -18.2220  -26.8710   22.3240 C   0  0  0  0  0  2  0  0  0  0  0  0
  -19.1470  -29.0070   23.3970 C   0  0  0  0  0  0  0  0  0  0  0  0
  -18.9180  -30.2800   23.9620 C   0  0  0  0  0  3  0  0  0  0  0  0
  -17.6090  -30.7810   24.1020 C   0  0  0  0  0  3  0  0  0  0  0  0
  -16.5120  -30.0050   23.6900 C   0  0  0  0  0  3  0  0  0  0  0  0
  -16.7260  -28.7340   23.1290 C   0  0  0  0  0  3  0  0  0  0  0  0
  -25.9430  -32.6090   23.8930 C   0  0  0  0  0  3  0  0  0  0  0  0
  -25.6380  -34.0100   24.2250 N   0  0  0  0  0  0  0  0  0  0  0  0
  -25.9520  -35.0650   23.4620 C   0  0  0  0  0  0  0  0  0  0  0  0
  -26.5950  -34.9600   22.4130 O   0  0  0  0  0  0  0  0  0  0  0  0
  -25.0640  -34.1650   25.0420 H   0  0  0  0  0  0  0  0  0  0  0  0
  -24.2130  -36.8610   23.1640 C   0  0  0  0  0  1  0  0  0  0  0  0
  -25.4820  -36.4560   23.9320 C   0  0  0  0  0  3  0  0  0  0  0  0
  -27.6400  -37.3490   24.6900 C   0  0  0  0  0  1  0  0  0  0  0  0
  -26.5090  -37.5090   23.7800 N   0  0  0  0  0  0  0  0  0  0  0  0
  -26.1070  -38.4290   23.9320 H   0  0  0  0  0  0  0  0  0  0  0  0
  -26.4500  -31.8400   25.1750 C   0  0  1  0  0  0  0  0  0  0  0  0
  -25.3530  -31.6140   26.2420 C   0  0  0  0  0  1  0  0  0  0  0  0
  -27.0270  -30.4570   24.7970 C   0  0  0  0  0  1  0  0  0  0  0  0
  -27.6040  -32.6310   25.8360 C   0  0  0  0  0  1  0  0  0  0  0  0
  2  1  2  0
  3  1  1  0
  3  7  1  0
  4  5  2  0
  4  6  1  0
  5  2  1  0
  6  3  2  0
  8  4  1  0
  9 17  1  0
 10 15  1  0
 11 12  1  0
 11 10  1  0
 13 12  1  0
 13 22  1  0
 13 14  1  0
 15  9  1  0
 15 14  1  0
 16  9  2  0
 17  5  1  0
 18 17  1  0
 19 20  2  0
 20 39  1  0
 21 20  1  0
 21 24  1  0
 22 23  1  0
 22 19  1  0
 23 21  2  0
 24 25  1  0
 25 26  2  0
 27 30  1  0
 27 26  1  0
 28 27  2  0
 29 28  1  0
 29 24  2  0
 30 31  1  0
 31 32  1  0
 32 33  2  0
 34 33  1  0
 34 38  1  0
 35 34  2  0
 36 31  2  0
 36 35  1  0
 37 36  1  0
 39 40  1  0
 40 43  1  0
 40 42  1  0
 41 39  2  0
 44 45  1  0
 44 19  1  0
 46 44  1  0
 47 51  1  0
 47 48  1  0
 48 50  1  0
 48  6  1  0
 49 47  2  0
 52 51  1  0
 53 64  2  0
 54 52  1  0
 54 59  1  0
 55 63  1  0
 55 65  1  0
 56 62  1  0
 56 58  1  0
 57 63  1  0
 58 59  2  0
 58 57  1  0
 60 54  2  0
 61 60  1  0
 61 56  2  0
 62 55  1  0
 63 53  1  0
 65 67  2  0
 66 65  1  0
 68 66  1  0
 69 78  2  0
 69 74  1  0
 70 66  1  0
 70 74  1  0
 71 70  1  0
 72 73  1  0
 72 71  1  0
 73 69  1  0
 74 75  2  0
 75 76  1  0
 77 76  2  0
 78 77  1  0
 79 53  1  0
 79 80  1  0
 79 89  1  0
 80 83  1  0
 81 85  1  0
 81 80  1  0
 82 81  2  0
 85 84  1  0
 87 85  1  0
 87 88  1  0
 87 86  1  0
 89 92  1  1
 89 90  1  0
 91 89  1  0
M  ISO  4   9 100  17 100  51 101  52 101
M  END
>  <TORSDO>  (71) 
F 18

>  <SCORE>  (71) 
-14.953

>  <name>  (71) 
70

>  <ligand_id>  (71) 
70

>  <original_smiles>  (71) 
[H]c1c([H])c([H])c2c(c1[H])C([H])([H])C([H])([H])C([H])([H])C2([H])N([H])C(=O)C1([H])N(C(=O)C([H])(N([H])C(=O)C([H])(N([H])C([H])([H])[H])C([H])([H])[H])C(C([H])([H])[H])(C([H])([H])[H])C([H])([H])[H])C([H])([H])c2c([H])c(OC([H])([H])C(=O)N([H])c3c(C([H])([H])[H])c([H])c([H])c(N([H])C(=O)N4C([H])([H])C([H])([H])C([H])([H])C([H])(n5nc(-c6c([H])c([H])c(Oc7c([H])c([H])c(F)c([H])c7F)c([H])c6[H])c(C(=O)N([H])[H])c5N([H])[H])C4([H])[H])c3C([H])([H])[H])c([H])c([H])c2C1([H])[H]

>  <smiles>  (71) 
[H]c1c([H])c([H])c2c(c1[H])C([H])([H])C([H])([H])C([H])([H])C2([H])N([H])C(=O)C1([H])N(C(=O)C([H])(N([H])C(=O)C([H])(N([H])C([H])([H])[H])C([H])([H])[H])C(C([H])([H])[H])(C([H])([H])[H])C([H])([H])[H])C([H])([H])c2c([H])c(OC([H])([H])C(=O)N([H])c3c(C([H])([H])[H])c([H])c([H])c(N([H])C(=O)N4C([H])([H])C([H])([H])C([H])([H])C([H])(n5nc(-c6c([H])c([H])c(Oc7c([H])c([H])c(F)c([H])c7F)c([H])c6[H])c(C(=O)N([H])[H])c5N([H])[H])C4([H])[H])c3C([H])([H])[H])c([H])c([H])c2C1([H])[H]

$$$$
71:0:0
     RDKit          3D

 92100  0  0  1  0  0  0  0  0999 V2000
  -28.5020  -20.2390   18.7540 C   0  0  0  0  0  3  0  0  0  0  0  0
  -29.5070  -19.2580   20.7270 C   0  0  0  0  0  3  0  0  0  0  0  0
  -28.5150  -18.9410   18.1780 C   0  0  0  0  0  0  0  0  0  0  0  0
  -29.0140  -20.5200   20.0400 C   0  0  0  0  0  0  0  0  0  0  0  0
  -29.5130  -17.8440   20.1730 C   0  0  0  0  0  0  0  0  0  0  0  0
  -29.0000  -17.7910   18.8570 C   0  0  0  0  0  0  0  0  0  0  0  0
  -27.9930  -18.7700   16.7640 C   0  0  0  0  0  1  0  0  0  0  0  0
  -28.9170  -16.5890   18.2350 F   0  0  0  0  0  0  0  0  0  0  0  0
  -30.5310  -15.2490   20.4780 C   0  0  0  0  0  0  0  0  0  0  0  0
  -30.5350  -12.8370   19.6280 C   0  0  0  0  0  2  0  0  0  0  0  0
  -29.6550  -12.7130   18.3600 C   0  0  0  0  0  2  0  0  0  0  0  0
  -28.1880  -12.4550   18.7420 C   0  0  0  0  0  2  0  0  0  0  0  0
  -27.7090  -13.3950   19.8780 C   0  0  0  0  0  3  0  0  0  0  0  0
  -28.7170  -13.4840   21.0430 C   0  0  0  0  0  2  0  0  0  0  0  0
  -29.9930  -13.9480   20.4800 N   0  0  0  0  0  0  0  0  0  0  0  0
  -31.7170  -15.3210   20.1350 O   0  0  0  0  0  0  0  0  0  0  0  0
  -29.7780  -16.4380   20.8210 N   0  0  0  0  0  0  0  0  0  0  0  0
  -29.0010  -16.1720   21.4070 H   0  0  0  0  0  0  0  0  0  0  0  0
  -25.2970  -13.9260   20.5370 C   0  0  0  0  0  0  0  0  0  0  0  0
  -24.2360  -13.1340   20.8790 C   0  0  0  0  0  0  0  0  0  0  0  0
  -24.7260  -11.7920   20.8720 C   0  0  0  0  0  0  0  0  0  0  0  0
  -26.3630  -13.0660   20.3340 N   0  0  0  0  0  0  0  0  0  0  0  0
  -26.0280  -11.7770   20.6030 N   0  0  0  0  0  0  0  0  0  0  0  0
  -24.0160  -10.5170   21.0480 C   0  0  0  0  0  0  0  0  0  0  0  0
  -24.4220   -9.5690   22.0130 C   0  0  0  0  0  3  0  0  0  0  0  0
  -23.7090   -8.3620   22.1760 C   0  0  0  0  0  3  0  0  0  0  0  0
  -22.5740   -8.0940   21.3750 C   0  0  0  0  0  0  0  0  0  0  0  0
  -22.1860   -9.0300   20.4010 C   0  0  0  0  0  3  0  0  0  0  0  0
  -22.9010  -10.2290   20.2350 C   0  0  0  0  0  3  0  0  0  0  0  0
  -21.8350   -6.9370   21.4460 O   0  0  0  0  0  0  0  0  0  0  0  0
  -21.7360   -6.2160   22.6090 C   0  0  0  0  0  0  0  0  0  0  0  0
  -21.2100   -6.7800   23.7920 C   0  0  0  0  0  3  0  0  0  0  0  0
  -21.0600   -5.9850   24.9450 C   0  0  0  0  0  3  0  0  0  0  0  0
  -21.4260   -4.6260   24.9160 C   0  0  0  0  0  0  0  0  0  0  0  0
  -21.9450   -4.0610   23.7370 C   0  0  0  0  0  3  0  0  0  0  0  0
  -22.0970   -4.8540   22.5860 C   0  0  0  0  0  0  0  0  0  0  0  0
  -22.5770   -4.3000   21.4470 F   0  0  0  0  0  0  0  0  0  0  0  0
  -21.2760   -3.8580   26.0210 F   0  0  0  0  0  0  0  0  0  0  0  0
  -22.8230  -13.5880   21.0980 C   0  0  0  0  0  0  0  0  0  0  0  0
  -22.0740  -12.8810   21.9370 N   0  0  0  0  0  0  0  0  0  0  0  0
  -22.3900  -14.6070   20.5610 O   0  0  0  0  0  0  0  0  0  0  0  0
  -22.4350  -12.0590   22.3950 H   0  0  0  0  0  0  0  0  0  0  0  0
  -21.1230  -13.1690   22.1250 H   0  0  0  0  0  0  0  0  0  0  0  0
  -25.4420  -15.2980   20.3550 N   0  0  0  0  0  0  0  0  0  0  0  0
  -24.6580  -15.9360   20.4330 H   0  0  0  0  0  0  0  0  0  0  0  0
  -26.2840  -15.7440   20.0140 H   0  0  0  0  0  0  0  0  0  0  0  0
  -28.1980  -23.1760   20.2260 C   0  0  0  0  0  0  0  0  0  0  0  0
  -30.4180  -22.4500   20.9300 C   0  0  0  0  0  1  0  0  0  0  0  0
  -29.1200  -22.0560   20.3900 N   0  0  0  0  0  0  0  0  0  0  0  0
  -27.0000  -22.9410   20.4190 O   0  0  0  0  0  0  0  0  0  0  0  0
  -28.5130  -24.7670   19.6960 C   0  0  0  0  0  2  0  0  0  0  0  0
  -28.2530  -26.1780   20.3900 O   0  0  0  0  0  0  0  0  0  0  0  0
  -24.6040  -31.9470   23.2430 C   0  0  0  0  0  0  0  0  0  0  0  0
  -27.2100  -27.1860   20.2140 C   0  0  0  0  0  0  0  0  0  0  0  0
  -23.4150  -30.5390   21.6040 C   0  0  0  0  0  3  0  0  0  0  0  0
  -24.8750  -28.9610   20.1700 C   0  0  0  0  0  0  0  0  0  0  0  0
  -25.9680  -30.8020   21.4450 C   0  0  0  0  0  2  0  0  0  0  0  0
  -26.0480  -29.4040   20.7910 C   0  0  0  0  0  0  0  0  0  0  0  0
  -27.2070  -28.5280   20.8010 C   0  0  0  0  0  3  0  0  0  0  0  0
  -26.0150  -26.8640   19.5360 C   0  0  0  0  0  3  0  0  0  0  0  0
  -24.8760  -27.7100   19.5270 C   0  0  0  0  0  3  0  0  0  0  0  0
  -23.6410  -29.8570   20.2260 C   0  0  0  0  0  2  0  0  0  0  0  0
  -24.6820  -31.1210   22.1520 N   0  0  0  0  0  0  0  0  0  0  0  0
  -23.5160  -32.2260   23.7700 O   0  0  0  0  0  0  0  0  0  0  0  0
  -22.7390  -29.5360   22.5720 C   0  0  0  0  0  0  0  0  0  0  0  0
  -21.4120  -29.3520   22.4430 N   0  0  0  0  0  0  0  0  0  0  0  0
  -23.4120  -28.9230   23.4050 O   0  0  0  0  0  0  0  0  0  0  0  0
  -20.9230  -29.8970   21.7470 H   0  0  0  0  0  0  0  0  0  0  0  0
  -18.0430  -28.1110   22.9410 C   0  0  0  0  0  0  0  0  0  0  0  0
  -20.5980  -28.4090   23.2160 C   0  0  0  0  0  3  0  0  0  0  0  0
  -20.7190  -26.9750   22.6490 C   0  0  0  0  0  2  0  0  0  0  0  0
  -19.6260  -26.6340   21.6320 C   0  0  0  0  0  2  0  0  0  0  0  0
  -18.2400  -26.7630   22.2700 C   0  0  0  0  0  2  0  0  0  0  0  0
  -19.1500  -28.8920   23.3720 C   0  0  0  0  0  0  0  0  0  0  0  0
  -18.9100  -30.1510   23.9610 C   0  0  0  0  0  3  0  0  0  0  0  0
  -17.5970  -30.6320   24.1250 C   0  0  0  0  0  3  0  0  0  0  0  0
  -16.5050  -29.8500   23.7100 C   0  0  0  0  0  3  0  0  0  0  0  0
  -16.7290  -28.5910   23.1230 C   0  0  0  0  0  3  0  0  0  0  0  0
  -25.8770  -32.5950   23.8700 C   0  0  0  0  0  3  0  0  0  0  0  0
  -25.5590  -33.9970   24.1850 N   0  0  0  0  0  0  0  0  0  0  0  0
  -25.9010  -35.0500   23.4310 C   0  0  0  0  0  0  0  0  0  0  0  0
  -26.5830  -34.9420   22.4080 O   0  0  0  0  0  0  0  0  0  0  0  0
  -24.9530  -34.1540   24.9780 H   0  0  0  0  0  0  0  0  0  0  0  0
  -24.1900  -36.8570   23.0470 C   0  0  0  0  0  1  0  0  0  0  0  0
  -25.4140  -36.4430   23.8790 C   0  0  0  0  0  3  0  0  0  0  0  0
  -27.5340  -37.3240   24.7530 C   0  0  0  0  0  1  0  0  0  0  0  0
  -26.4540  -37.4910   23.7840 N   0  0  0  0  0  0  0  0  0  0  0  0
  -26.0490  -38.4140   23.9170 H   0  0  0  0  0  0  0  0  0  0  0  0
  -26.3790  -31.8460   25.1670 C   0  0  1  0  0  0  0  0  0  0  0  0
  -25.2740  -31.6280   26.2280 C   0  0  0  0  0  1  0  0  0  0  0  0
  -26.9670  -30.4620   24.8120 C   0  0  0  0  0  1  0  0  0  0  0  0
  -27.5220  -32.6520   25.8290 C   0  0  0  0  0  1  0  0  0  0  0  0
  1  4  1  0
  3  1  2  0
  3  6  1  0
  4 49  1  0
  4  2  2  0
  5  2  1  0
  5 17  1  0
  6  5  2  0
  7  3  1  0
  8  6  1  0
  9 15  1  0
  9 17  1  0
 10 15  1  0
 11 12  1  0
 11 10  1  0
 13 12  1  0
 13 22  1  0
 13 14  1  0
 15 14  1  0
 16  9  2  0
 17 18  1  0
 19 20  2  0
 20 39  1  0
 21 20  1  0
 21 24  1  0
 22 19  1  0
 22 23  1  0
 23 21  2  0
 24 25  1  0
 25 26  2  0
 27 30  1  0
 27 26  1  0
 28 27  2  0
 29 28  1  0
 29 24  2  0
 30 31  1  0
 31 32  1  0
 32 33  2  0
 34 33  1  0
 34 38  1  0
 35 34  2  0
 36 31  2  0
 36 35  1  0
 37 36  1  0
 39 40  1  0
 40 43  1  0
 40 42  1  0
 41 39  2  0
 44 45  1  0
 44 19  1  0
 46 44  1  0
 47 49  1  0
 47 50  2  0
 49 48  1  0
 51 47  1  0
 51 52  1  0
 53 64  2  0
 54 52  1  0
 54 59  1  0
 55 63  1  0
 55 65  1  0
 56 62  1  0
 56 58  1  0
 57 63  1  0
 58 59  2  0
 58 57  1  0
 60 54  2  0
 61 60  1  0
 61 56  2  0
 62 55  1  0
 63 53  1  0
 65 67  2  0
 66 65  1  0
 68 66  1  0
 69 78  2  0
 69 74  1  0
 70 66  1  0
 70 74  1  0
 71 70  1  0
 72 73  1  0
 72 71  1  0
 73 69  1  0
 74 75  2  0
 75 76  1  0
 77 76  2  0
 78 77  1  0
 79 53  1  0
 79 80  1  0
 79 89  1  0
 80 83  1  0
 81 85  1  0
 81 80  1  0
 82 81  2  0
 85 84  1  0
 87 85  1  0
 87 88  1  0
 87 86  1  0
 89 92  1  1
 89 90  1  0
 91 89  1  0
M  ISO  4   9 100  17 100  51 101  52 101
M  END
>  <TORSDO>  (72) 
F 18

>  <SCORE>  (72) 
-15.386

>  <name>  (72) 
71

>  <ligand_id>  (72) 
71

>  <original_smiles>  (72) 
[H]c1c([H])c([H])c2c(c1[H])C([H])([H])C([H])([H])C([H])([H])C2([H])N([H])C(=O)C1([H])N(C(=O)C([H])(N([H])C(=O)C([H])(N([H])C([H])([H])[H])C([H])([H])[H])C(C([H])([H])[H])(C([H])([H])[H])C([H])([H])[H])C([H])([H])c2c([H])c(OC([H])([H])C(=O)N(c3c([H])c(N([H])C(=O)N4C([H])([H])C([H])([H])C([H])([H])C([H])(n5nc(-c6c([H])c([H])c(Oc7c([H])c([H])c(F)c([H])c7F)c([H])c6[H])c(C(=O)N([H])[H])c5N([H])[H])C4([H])[H])c(F)c(C([H])([H])[H])c3[H])C([H])([H])[H])c([H])c([H])c2C1([H])[H]

>  <smiles>  (72) 
[H]c1c([H])c([H])c2c(c1[H])C([H])([H])C([H])([H])C([H])([H])C2([H])N([H])C(=O)C1([H])N(C(=O)C([H])(N([H])C(=O)C([H])(N([H])C([H])([H])[H])C([H])([H])[H])C(C([H])([H])[H])(C([H])([H])[H])C([H])([H])[H])C([H])([H])c2c([H])c(OC([H])([H])C(=O)N(c3c([H])c(N([H])C(=O)N4C([H])([H])C([H])([H])C([H])([H])C([H])(n5nc(-c6c([H])c([H])c(Oc7c([H])c([H])c(F)c([H])c7F)c([H])c6[H])c(C(=O)N([H])[H])c5N([H])[H])C4([H])[H])c(F)c(C([H])([H])[H])c3[H])C([H])([H])[H])c([H])c([H])c2C1([H])[H]

$$$$
72:0:0
     RDKit          3D

101109  0  0  1  0  0  0  0  0999 V2000
  -31.1590  -22.3710   22.4610 C   0  0  0  0  0  0  0  0  0  0  0  0
  -31.7720  -21.3640   21.8310 N   0  0  0  0  0  0  0  0  0  0  0  0
  -31.5100  -23.5450   22.3270 O   0  0  0  0  0  0  0  0  0  0  0  0
  -31.4580  -20.4210   22.0200 H   0  0  0  0  0  0  0  0  0  0  0  0
  -32.7120  -21.5300   20.7280 C   0  0  0  0  0  2  0  0  0  0  0  0
  -33.0340  -19.0100   20.2680 C   0  0  0  0  0  3  0  0  0  0  0  0
  -33.5110  -20.2690   20.4140 C   0  0  0  0  0  0  0  0  0  0  0  0
  -35.0010  -20.5320   20.2710 C   0  0  0  0  0  1  0  0  0  0  0  0
  -30.5130  -19.2220   19.9190 C   0  0  0  0  0  3  0  0  0  0  0  0
  -29.2320  -18.6340   19.9500 C   0  0  0  0  0  3  0  0  0  0  0  0
  -31.4870  -17.1170   20.6400 C   0  0  0  0  0  3  0  0  0  0  0  0
  -31.6570  -18.4700   20.2740 C   0  0  0  0  0  0  0  0  0  0  0  0
  -30.2140  -16.5010   20.6090 C   0  0  0  0  0  0  0  0  0  0  0  0
  -29.0820  -17.2770   20.2910 C   0  0  0  0  0  0  0  0  0  0  0  0
  -27.8540  -16.7030   20.2750 F   0  0  0  0  0  0  0  0  0  0  0  0
  -30.6080  -14.1400   20.1460 C   0  0  0  0  0  0  0  0  0  0  0  0
  -30.1820  -12.0270   18.9620 C   0  0  0  0  0  2  0  0  0  0  0  0
  -29.1620  -12.2830   17.8350 C   0  0  0  0  0  2  0  0  0  0  0  0
  -27.7230  -12.1460   18.3680 C   0  0  0  0  0  2  0  0  0  0  0  0
  -27.4850  -12.9500   19.6750 C   0  0  0  0  0  3  0  0  0  0  0  0
  -28.6150  -12.6910   20.6960 C   0  0  0  0  0  2  0  0  0  0  0  0
  -29.9020  -12.9840   20.0430 N   0  0  0  0  0  0  0  0  0  0  0  0
  -31.6710  -14.3230   19.5470 O   0  0  0  0  0  0  0  0  0  0  0  0
  -30.0270  -15.1140   20.8610 N   0  0  0  0  0  0  0  0  0  0  0  0
  -29.1380  -14.8640   21.2660 H   0  0  0  0  0  0  0  0  0  0  0  0
  -25.1450  -13.5380   20.5760 C   0  0  0  0  0  0  0  0  0  0  0  0
  -24.1040  -12.7550   20.9970 C   0  0  0  0  0  0  0  0  0  0  0  0
  -24.5570  -11.4050   20.8940 C   0  0  0  0  0  0  0  0  0  0  0  0
  -26.1680  -12.6630   20.2430 N   0  0  0  0  0  0  0  0  0  0  0  0
  -25.8210  -11.3730   20.4900 N   0  0  0  0  0  0  0  0  0  0  0  0
  -23.8440  -10.1390   21.1040 C   0  0  0  0  0  0  0  0  0  0  0  0
  -24.3160   -9.1660   22.0120 C   0  0  0  0  0  3  0  0  0  0  0  0
  -23.6030   -7.9640   22.2090 C   0  0  0  0  0  3  0  0  0  0  0  0
  -22.4030   -7.7250   21.4980 C   0  0  0  0  0  0  0  0  0  0  0  0
  -21.9500   -8.6860   20.5780 C   0  0  0  0  0  3  0  0  0  0  0  0
  -22.6640   -9.8800   20.3790 C   0  0  0  0  0  3  0  0  0  0  0  0
  -21.6590   -6.5760   21.6060 O   0  0  0  0  0  0  0  0  0  0  0  0
  -21.6450   -5.8330   22.7590 C   0  0  0  0  0  0  0  0  0  0  0  0
  -21.1990   -6.3680   23.9860 C   0  0  0  0  0  3  0  0  0  0  0  0
  -21.1350   -5.5480   25.1300 C   0  0  0  0  0  3  0  0  0  0  0  0
  -21.5090   -4.1930   25.0480 C   0  0  0  0  0  0  0  0  0  0  0  0
  -21.9480   -3.6570   23.8250 C   0  0  0  0  0  3  0  0  0  0  0  0
  -22.0130   -4.4740   22.6830 C   0  0  0  0  0  0  0  0  0  0  0  0
  -22.4170   -3.9460   21.5030 F   0  0  0  0  0  0  0  0  0  0  0  0
  -21.4400   -3.4020   26.1450 F   0  0  0  0  0  0  0  0  0  0  0  0
  -22.7320  -13.2260   21.3880 C   0  0  0  0  0  0  0  0  0  0  0  0
  -22.0650  -12.4980   22.2770 N   0  0  0  0  0  0  0  0  0  0  0  0
  -22.2640  -14.2730   20.9440 O   0  0  0  0  0  0  0  0  0  0  0  0
  -22.4570  -11.6500   22.6590 H   0  0  0  0  0  0  0  0  0  0  0  0
  -21.1470  -12.7930   22.5800 H   0  0  0  0  0  0  0  0  0  0  0  0
  -25.3010  -14.9130   20.4340 N   0  0  0  0  0  0  0  0  0  0  0  0
  -24.5600  -15.5660   20.6600 H   0  0  0  0  0  0  0  0  0  0  0  0
  -26.1610  -15.3750   20.1590 H   0  0  0  0  0  0  0  0  0  0  0  0
  -29.9500  -22.0080   23.3330 C   0  0  0  0  0  2  0  0  0  0  0  0
  -28.8780  -23.1190   23.4600 C   0  0  0  0  0  2  0  0  0  0  0  0
  -28.4930  -24.9180   21.7680 C   0  0  0  0  0  0  0  0  0  0  0  0
  -28.4290  -23.6370   22.1610 N   0  0  0  0  0  0  0  0  0  0  0  0
  -28.8120  -25.8330   22.5330 O   0  0  0  0  0  0  0  0  0  0  0  0
  -28.1190  -22.9610   21.4760 H   0  0  0  0  0  0  0  0  0  0  0  0
  -28.1810  -25.1960   20.2900 C   0  0  0  0  0  2  0  0  0  0  0  0
  -28.2350  -26.6030   20.0210 O   0  0  0  0  0  0  0  0  0  0  0  0
  -24.5010  -31.7700   23.1540 C   0  0  0  0  0  0  0  0  0  0  0  0
  -27.0560  -27.3100   20.0470 C   0  0  0  0  0  0  0  0  0  0  0  0
  -23.2710  -30.4150   21.4900 C   0  0  0  0  0  3  0  0  0  0  0  0
  -24.6930  -28.8560   20.0630 C   0  0  0  0  0  0  0  0  0  0  0  0
  -25.8040  -30.7180   21.3100 C   0  0  0  0  0  2  0  0  0  0  0  0
  -25.8580  -29.3520   20.6590 C   0  0  0  0  0  0  0  0  0  0  0  0
  -27.0430  -28.5870   20.6460 C   0  0  0  0  0  3  0  0  0  0  0  0
  -25.8740  -26.8240   19.4420 C   0  0  0  0  0  3  0  0  0  0  0  0
  -24.6940  -27.5900   19.4530 C   0  0  0  0  0  3  0  0  0  0  0  0
  -23.4710  -29.7420   20.1050 C   0  0  0  0  0  2  0  0  0  0  0  0
  -24.5430  -30.9810   22.0440 N   0  0  0  0  0  0  0  0  0  0  0  0
  -23.4240  -32.0640   23.6900 O   0  0  0  0  0  0  0  0  0  0  0  0
  -22.5900  -29.3990   22.4350 C   0  0  0  0  0  0  0  0  0  0  0  0
  -21.2640  -29.2420   22.2890 N   0  0  0  0  0  0  0  0  0  0  0  0
  -23.2520  -28.7560   23.2540 O   0  0  0  0  0  0  0  0  0  0  0  0
  -20.7940  -29.8130   21.6010 H   0  0  0  0  0  0  0  0  0  0  0  0
  -17.8620  -28.1140   22.7320 C   0  0  0  0  0  0  0  0  0  0  0  0
  -20.4190  -28.3170   23.0430 C   0  0  0  0  0  3  0  0  0  0  0  0
  -20.5020  -26.8880   22.4580 C   0  0  0  0  0  2  0  0  0  0  0  0
  -19.4080  -26.5940   21.4260 C   0  0  0  0  0  2  0  0  0  0  0  0
  -18.0210  -26.7650   22.0520 C   0  0  0  0  0  2  0  0  0  0  0  0
  -18.9890  -28.8500   23.1830 C   0  0  0  0  0  0  0  0  0  0  0  0
  -18.7890  -30.1160   23.7770 C   0  0  0  0  0  3  0  0  0  0  0  0
  -17.4940  -30.6440   23.9250 C   0  0  0  0  0  3  0  0  0  0  0  0
  -16.3790  -29.9040   23.4930 C   0  0  0  0  0  3  0  0  0  0  0  0
  -16.5650  -28.6410   22.9020 C   0  0  0  0  0  3  0  0  0  0  0  0
  -25.8000  -32.3620   23.7870 C   0  0  0  0  0  3  0  0  0  0  0  0
  -25.5280  -33.7640   24.1250 N   0  0  0  0  0  0  0  0  0  0  0  0
  -25.8940  -34.8120   23.3750 C   0  0  0  0  0  0  0  0  0  0  0  0
  -26.5700  -34.6970   22.3480 O   0  0  0  0  0  0  0  0  0  0  0  0
  -24.9310  -33.9310   24.9220 H   0  0  0  0  0  0  0  0  0  0  0  0
  -24.2250  -36.6550   23.0050 C   0  0  0  0  0  1  0  0  0  0  0  0
  -25.4390  -36.2090   23.8350 C   0  0  0  0  0  3  0  0  0  0  0  0
  -27.5770  -37.0300   24.7210 C   0  0  0  0  0  1  0  0  0  0  0  0
  -26.5040  -37.2330   23.7510 N   0  0  0  0  0  0  0  0  0  0  0  0
  -26.1210  -38.1640   23.8910 H   0  0  0  0  0  0  0  0  0  0  0  0
  -26.2900  -31.5650   25.0570 C   0  0  1  0  0  0  0  0  0  0  0  0
  -25.1860  -31.3420   26.1160 C   0  0  0  0  0  1  0  0  0  0  0  0
  -26.8430  -30.1790   24.6520 C   0  0  0  0  0  1  0  0  0  0  0  0
  -27.4550  -32.3230   25.7350 C   0  0  0  0  0  1  0  0  0  0  0  0
  1 54  1  0
  2  4  1  0
  2  1  1  0
  3  1  2  0
  5  2  1  0
  6 12  1  0
  6  7  2  0
  7  5  1  0
  8  7  1  0
  9 10  2  0
  9 12  1  0
 10 14  1  0
 12 11  2  0
 13 11  1  0
 13 24  1  0
 14 13  2  0
 15 14  1  0
 16 24  1  0
 17 22  1  0
 18 19  1  0
 18 17  1  0
 20 19  1  0
 20 29  1  0
 20 21  1  0
 22 16  1  0
 22 21  1  0
 23 16  2  0
 24 25  1  0
 26 27  2  0
 27 46  1  0
 28 27  1  0
 28 31  1  0
 29 30  1  0
 29 26  1  0
 30 28  2  0
 31 32  1  0
 32 33  2  0
 34 37  1  0
 34 33  1  0
 35 34  2  0
 36 35  1  0
 36 31  2  0
 37 38  1  0
 38 39  1  0
 39 40  2  0
 41 40  1  0
 41 45  1  0
 42 41  2  0
 43 38  2  0
 43 42  1  0
 44 43  1  0
 46 47  1  0
 47 50  1  0
 47 49  1  0
 48 46  2  0
 51 26  1  0
 51 52  1  0
 53 51  1  0
 54 55  1  0
 56 57  1  0
 56 58  2  0
 57 55  1  0
 59 57  1  0
 60 56  1  0
 61 63  1  0
 61 60  1  0
 62 73  2  0
 63 68  1  0
 64 72  1  0
 64 74  1  0
 65 71  1  0
 65 67  1  0
 66 72  1  0
 67 66  1  0
 68 67  2  0
 69 70  1  0
 69 63  2  0
 70 65  2  0
 71 64  1  0
 72 62  1  0
 74 76  2  0
 75 74  1  0
 77 75  1  0
 78 87  2  0
 78 83  1  0
 79 75  1  0
 79 83  1  0
 80 79  1  0
 81 82  1  0
 81 80  1  0
 82 78  1  0
 83 84  2  0
 84 85  1  0
 86 85  2  0
 87 86  1  0
 88 62  1  0
 88 89  1  0
 88 98  1  0
 89 92  1  0
 90 94  1  0
 90 89  1  0
 91 90  2  0
 94 93  1  0
 96 94  1  0
 96 97  1  0
 96 95  1  0
 98101  1  1
 98 99  1  0
100 98  1  0
M  ISO  4  16 100  24 100  60 101  61 101
M  END
>  <TORSDO>  (73) 
F 23

>  <SCORE>  (73) 
-11.403

>  <name>  (73) 
72

>  <ligand_id>  (73) 
72

>  <original_smiles>  (73) 
[H]C(=C(C([H])([H])[H])C([H])([H])N([H])C(=O)C([H])([H])C([H])([H])N([H])C(=O)C([H])([H])Oc1c([H])c([H])c2c(c1[H])C([H])([H])N(C(=O)C([H])(N([H])C(=O)C([H])(N([H])C([H])([H])[H])C([H])([H])[H])C(C([H])([H])[H])(C([H])([H])[H])C([H])([H])[H])C([H])(C(=O)N([H])C1([H])c3c([H])c([H])c([H])c([H])c3C([H])([H])C([H])([H])C1([H])[H])C2([H])[H])c1c([H])c([H])c(F)c(N([H])C(=O)N2C([H])([H])C([H])([H])C([H])([H])C([H])(n3nc(-c4c([H])c([H])c(Oc5c([H])c([H])c(F)c([H])c5F)c([H])c4[H])c(C(=O)N([H])[H])c3N([H])[H])C2([H])[H])c1[H]

>  <smiles>  (73) 
[H]C(=C(C([H])([H])[H])C([H])([H])N([H])C(=O)C([H])([H])C([H])([H])N([H])C(=O)C([H])([H])Oc1c([H])c([H])c2c(c1[H])C([H])([H])N(C(=O)C([H])(N([H])C(=O)C([H])(N([H])C([H])([H])[H])C([H])([H])[H])C(C([H])([H])[H])(C([H])([H])[H])C([H])([H])[H])C([H])(C(=O)N([H])C1([H])c3c([H])c([H])c([H])c([H])c3C([H])([H])C([H])([H])C1([H])[H])C2([H])[H])c1c([H])c([H])c(F)c(N([H])C(=O)N2C([H])([H])C([H])([H])C([H])([H])C([H])(n3nc(-c4c([H])c([H])c(Oc5c([H])c([H])c(F)c([H])c5F)c([H])c4[H])c(C(=O)N([H])[H])c3N([H])[H])C2([H])[H])c1[H]

$$$$
73:0:0
     RDKit          3D

 91 99  0  0  1  0  0  0  0  0999 V2000
  -28.1950  -20.3560   20.4860 C   0  0  0  0  0  3  0  0  0  0  0  0
  -30.5790  -19.1220   19.9030 C   0  0  0  0  0  3  0  0  0  0  0  0
  -29.1930  -21.3830   20.2220 C   0  0  0  0  0  0  0  0  0  0  0  0
  -29.5790  -18.1160   20.1980 C   0  0  0  0  0  0  0  0  0  0  0  0
  -28.3650  -18.8800   20.4750 C   0  0  0  0  0  0  0  0  0  0  0  0
  -30.4060  -20.6020   19.9110 C   0  0  0  0  0  0  0  0  0  0  0  0
  -27.2660  -18.1450   20.7670 F   0  0  0  0  0  0  0  0  0  0  0  0
  -31.8440  -21.4710   19.4980 Cl  0  0  0  0  0  0  0  0  0  0  0  0
  -30.4600  -15.3250   19.9860 C   0  0  0  0  0  0  0  0  0  0  0  0
  -30.4130  -12.9170   19.0410 C   0  0  0  0  0  2  0  0  0  0  0  0
  -29.4150  -12.7750   17.8630 C   0  0  0  0  0  2  0  0  0  0  0  0
  -27.9910  -12.4960   18.3780 C   0  0  0  0  0  2  0  0  0  0  0  0
  -27.6130  -13.4140   19.5680 C   0  0  0  0  0  3  0  0  0  0  0  0
  -28.7290  -13.4950   20.6330 C   0  0  0  0  0  2  0  0  0  0  0  0
  -29.9280  -14.0110   19.9530 N   0  0  0  0  0  0  0  0  0  0  0  0
  -31.6500  -15.3950   19.6490 O   0  0  0  0  0  0  0  0  0  0  0  0
  -29.6230  -16.5070   20.2270 N   0  0  0  0  0  0  0  0  0  0  0  0
  -28.7140  -16.1660   20.5030 H   0  0  0  0  0  0  0  0  0  0  0  0
  -25.2860  -13.9400   20.4740 C   0  0  0  0  0  0  0  0  0  0  0  0
  -24.2510  -13.1460   20.8810 C   0  0  0  0  0  0  0  0  0  0  0  0
  -24.7200  -11.8010   20.7800 C   0  0  0  0  0  0  0  0  0  0  0  0
  -26.3170  -13.0790   20.1420 N   0  0  0  0  0  0  0  0  0  0  0  0
  -25.9910  -11.7830   20.3920 N   0  0  0  0  0  0  0  0  0  0  0  0
  -24.0100  -10.5290   20.9720 C   0  0  0  0  0  0  0  0  0  0  0  0
  -24.4630   -9.5600   21.8950 C   0  0  0  0  0  3  0  0  0  0  0  0
  -23.7490   -8.3560   22.0770 C   0  0  0  0  0  3  0  0  0  0  0  0
  -22.5680   -8.1110   21.3360 C   0  0  0  0  0  0  0  0  0  0  0  0
  -22.1350   -9.0680   20.4020 C   0  0  0  0  0  3  0  0  0  0  0  0
  -22.8490  -10.2640   20.2180 C   0  0  0  0  0  3  0  0  0  0  0  0
  -21.8250   -6.9580   21.4270 O   0  0  0  0  0  0  0  0  0  0  0  0
  -21.7500   -6.2430   22.5950 C   0  0  0  0  0  0  0  0  0  0  0  0
  -21.2350   -6.8060   23.7830 C   0  0  0  0  0  3  0  0  0  0  0  0
  -21.1100   -6.0130   24.9410 C   0  0  0  0  0  3  0  0  0  0  0  0
  -21.4880   -4.6580   24.9130 C   0  0  0  0  0  0  0  0  0  0  0  0
  -21.9960   -4.0940   23.7300 C   0  0  0  0  0  3  0  0  0  0  0  0
  -22.1230   -4.8840   22.5730 C   0  0  0  0  0  0  0  0  0  0  0  0
  -22.5920   -4.3290   21.4290 F   0  0  0  0  0  0  0  0  0  0  0  0
  -21.3620   -3.8940   26.0230 F   0  0  0  0  0  0  0  0  0  0  0  0
  -22.8690  -13.6070   21.2450 C   0  0  0  0  0  0  0  0  0  0  0  0
  -22.1980  -12.8850   22.1350 N   0  0  0  0  0  0  0  0  0  0  0  0
  -22.3980  -14.6420   20.7770 O   0  0  0  0  0  0  0  0  0  0  0  0
  -22.5950  -12.0480   22.5350 H   0  0  0  0  0  0  0  0  0  0  0  0
  -21.2740  -13.1760   22.4220 H   0  0  0  0  0  0  0  0  0  0  0  0
  -25.4290  -15.3170   20.3300 N   0  0  0  0  0  0  0  0  0  0  0  0
  -24.6660  -15.9560   20.5250 H   0  0  0  0  0  0  0  0  0  0  0  0
  -26.2450  -15.7860   19.9620 H   0  0  0  0  0  0  0  0  0  0  0  0
  -29.1080  -23.0900   20.4280 C   0  0  0  0  0  0  0  0  0  0  0  0
  -30.0990  -23.5700   21.0530 N   0  0  0  0  0  0  0  0  0  0  0  0
  -30.7680  -22.8500   21.3000 H   0  0  0  0  0  0  0  0  0  0  0  0
  -28.0290  -24.4120   20.0270 C   0  0  0  0  0  2  0  0  0  0  0  0
  -28.2530  -26.0100   20.3060 O   0  0  0  0  0  0  0  0  0  0  0  0
  -24.6500  -31.8990   23.2790 C   0  0  0  0  0  0  0  0  0  0  0  0
  -27.2310  -27.0830   20.2360 C   0  0  0  0  0  0  0  0  0  0  0  0
  -23.4650  -30.5190   21.6190 C   0  0  0  0  0  3  0  0  0  0  0  0
  -24.9240  -28.9320   20.1920 C   0  0  0  0  0  0  0  0  0  0  0  0
  -26.0300  -30.7420   21.4890 C   0  0  0  0  0  2  0  0  0  0  0  0
  -26.1050  -29.3420   20.8210 C   0  0  0  0  0  0  0  0  0  0  0  0
  -27.2550  -28.4380   20.8190 C   0  0  0  0  0  3  0  0  0  0  0  0
  -26.0200  -26.8130   19.5620 C   0  0  0  0  0  3  0  0  0  0  0  0
  -24.9040  -27.6870   19.5430 C   0  0  0  0  0  3  0  0  0  0  0  0
  -23.7020  -29.8480   20.2390 C   0  0  0  0  0  2  0  0  0  0  0  0
  -24.7360  -31.0790   22.1830 N   0  0  0  0  0  0  0  0  0  0  0  0
  -23.5580  -32.1840   23.7970 O   0  0  0  0  0  0  0  0  0  0  0  0
  -22.7670  -29.5140   22.5720 C   0  0  0  0  0  0  0  0  0  0  0  0
  -21.4380  -29.3470   22.4340 N   0  0  0  0  0  0  0  0  0  0  0  0
  -23.4260  -28.8830   23.4010 O   0  0  0  0  0  0  0  0  0  0  0  0
  -20.9600  -29.9070   21.7420 H   0  0  0  0  0  0  0  0  0  0  0  0
  -18.0490  -28.1490   22.9200 C   0  0  0  0  0  0  0  0  0  0  0  0
  -20.6100  -28.4030   23.1910 C   0  0  0  0  0  3  0  0  0  0  0  0
  -20.7080  -26.9780   22.5980 C   0  0  0  0  0  2  0  0  0  0  0  0
  -19.6060  -26.6730   21.5780 C   0  0  0  0  0  2  0  0  0  0  0  0
  -18.2230  -26.8100   22.2220 C   0  0  0  0  0  2  0  0  0  0  0  0
  -19.1700  -28.9040   23.3610 C   0  0  0  0  0  0  0  0  0  0  0  0
  -18.9500  -30.1550   23.9760 C   0  0  0  0  0  3  0  0  0  0  0  0
  -17.6450  -30.6530   24.1530 C   0  0  0  0  0  3  0  0  0  0  0  0
  -16.5410  -29.8960   23.7270 C   0  0  0  0  0  3  0  0  0  0  0  0
  -16.7430  -28.6460   23.1160 C   0  0  0  0  0  3  0  0  0  0  0  0
  -25.9180  -32.5350   23.9260 C   0  0  0  0  0  3  0  0  0  0  0  0
  -25.6090  -33.9400   24.2440 N   0  0  0  0  0  0  0  0  0  0  0  0
  -25.9310  -34.9900   23.4760 C   0  0  0  0  0  0  0  0  0  0  0  0
  -26.5810  -34.8770   22.4340 O   0  0  0  0  0  0  0  0  0  0  0  0
  -25.0270  -34.1000   25.0530 H   0  0  0  0  0  0  0  0  0  0  0  0
  -24.1830  -36.7770   23.1690 C   0  0  0  0  0  1  0  0  0  0  0  0
  -25.4570  -36.3850   23.9340 C   0  0  0  0  0  3  0  0  0  0  0  0
  -27.6130  -37.2990   24.6760 C   0  0  0  0  0  1  0  0  0  0  0  0
  -26.4810  -37.4400   23.7640 N   0  0  0  0  0  0  0  0  0  0  0  0
  -26.0740  -38.3620   23.9030 H   0  0  0  0  0  0  0  0  0  0  0  0
  -26.3960  -31.7760   25.2260 C   0  0  1  0  0  0  0  0  0  0  0  0
  -25.2750  -31.5600   26.2700 C   0  0  0  0  0  1  0  0  0  0  0  0
  -26.9800  -30.3890   24.8730 C   0  0  0  0  0  1  0  0  0  0  0  0
  -27.5350  -32.5710   25.9070 C   0  0  0  0  0  1  0  0  0  0  0  0
  2  6  2  0
  2  4  1  0
  3 47  1  0
  3  1  2  0
  4 17  1  0
  4  5  2  0
  5  1  1  0
  5  7  1  0
  6  3  1  0
  8  6  1  0
  9 17  1  0
 10 15  1  0
 11 12  1  0
 11 10  1  0
 13 12  1  0
 13 22  1  0
 13 14  1  0
 15  9  1  0
 15 14  1  0
 16  9  2  0
 17 18  1  0
 19 20  2  0
 20 39  1  0
 21 20  1  0
 21 24  1  0
 22 23  1  0
 22 19  1  0
 23 21  2  0
 24 25  1  0
 25 26  2  0
 27 30  1  0
 27 26  1  0
 28 27  2  0
 29 28  1  0
 29 24  2  0
 30 31  1  0
 31 32  1  0
 32 33  2  0
 34 33  1  0
 34 38  1  0
 35 34  2  0
 36 31  2  0
 36 35  1  0
 37 36  1  0
 39 40  1  0
 40 43  1  0
 40 42  1  0
 41 39  2  0
 44 19  1  0
 44 45  1  0
 46 44  1  0
 47 48  2  0
 48 49  1  0
 50 51  1  0
 50 47  1  0
 52 63  2  0
 53 51  1  0
 53 58  1  0
 54 62  1  0
 54 64  1  0
 55 61  1  0
 55 57  1  0
 56 62  1  0
 57 56  1  0
 58 57  2  0
 59 53  2  0
 60 59  1  0
 60 55  2  0
 61 54  1  0
 62 52  1  0
 64 66  2  0
 65 64  1  0
 67 65  1  0
 68 77  2  0
 68 73  1  0
 69 65  1  0
 69 73  1  0
 70 69  1  0
 71 72  1  0
 71 70  1  0
 72 68  1  0
 73 74  2  0
 74 75  1  0
 76 75  2  0
 77 76  1  0
 78 52  1  0
 78 79  1  0
 78 88  1  0
 79 82  1  0
 80 84  1  0
 80 79  1  0
 81 80  2  0
 84 83  1  0
 86 87  1  0
 86 84  1  0
 86 85  1  0
 88 91  1  1
 88 89  1  0
 90 88  1  0
M  ISO  4   9 100  17 100  50 101  51 101
M  END
>  <TORSDO>  (74) 
F 18

>  <SCORE>  (74) 
-15.770

>  <name>  (74) 
73

>  <ligand_id>  (74) 
73

>  <original_smiles>  (74) 
[H]N=C(c1c([H])c(F)c(N([H])C(=O)N2C([H])([H])C([H])([H])C([H])([H])C([H])(n3nc(-c4c([H])c([H])c(Oc5c([H])c([H])c(F)c([H])c5F)c([H])c4[H])c(C(=O)N([H])[H])c3N([H])[H])C2([H])[H])c([H])c1Cl)C([H])([H])Oc1c([H])c([H])c2c(c1[H])C([H])([H])N(C(=O)C([H])(N([H])C(=O)C([H])(N([H])C([H])([H])[H])C([H])([H])[H])C(C([H])([H])[H])(C([H])([H])[H])C([H])([H])[H])C([H])(C(=O)N([H])C1([H])c3c([H])c([H])c([H])c([H])c3C([H])([H])C([H])([H])C1([H])[H])C2([H])[H]

>  <smiles>  (74) 
[H]N=C(c1c([H])c(F)c(N([H])C(=O)N2C([H])([H])C([H])([H])C([H])([H])C([H])(n3nc(-c4c([H])c([H])c(Oc5c([H])c([H])c(F)c([H])c5F)c([H])c4[H])c(C(=O)N([H])[H])c3N([H])[H])C2([H])[H])c([H])c1Cl)C([H])([H])Oc1c([H])c([H])c2c(c1[H])C([H])([H])N(C(=O)C([H])(N([H])C(=O)C([H])(N([H])C([H])([H])[H])C([H])([H])[H])C(C([H])([H])[H])(C([H])([H])[H])C([H])([H])[H])C([H])(C(=O)N([H])C1([H])c3c([H])c([H])c([H])c([H])c3C([H])([H])C([H])([H])C1([H])[H])C2([H])[H]

$$$$
74:0:0
     RDKit          3D

 92100  0  0  1  0  0  0  0  0999 V2000
  -28.0290  -22.0200   20.6280 C   0  0  0  0  0  0  0  0  0  0  0  0
  -26.7770  -22.7850   21.0210 C   0  0  0  0  0  1  0  0  0  0  0  0
  -27.9540  -20.7410   20.7500 N   0  0  0  0  0  0  0  0  0  0  0  0
  -29.5850  -19.1930   21.6550 C   0  0  0  0  0  3  0  0  0  0  0  0
  -30.1170  -17.8830   21.6400 C   0  0  0  0  0  3  0  0  0  0  0  0
  -28.8830  -18.9290   19.3600 C   0  0  0  0  0  3  0  0  0  0  0  0
  -29.4170  -17.6080   19.3330 C   0  0  0  0  0  0  0  0  0  0  0  0
  -28.8990  -19.7130   20.5380 C   0  0  0  0  0  0  0  0  0  0  0  0
  -29.9960  -17.0430   20.5080 C   0  0  0  0  0  0  0  0  0  0  0  0
  -29.2370  -16.7970   18.0610 C   0  0  0  0  0  1  0  0  0  0  0  0
  -30.9100  -14.6960   20.0190 C   0  0  0  0  0  0  0  0  0  0  0  0
  -30.6680  -12.4720   18.9530 C   0  0  0  0  0  2  0  0  0  0  0  0
  -29.6600  -12.6060   17.7900 C   0  0  0  0  0  2  0  0  0  0  0  0
  -28.2130  -12.4320   18.2930 C   0  0  0  0  0  2  0  0  0  0  0  0
  -27.9110  -13.2960   19.5450 C   0  0  0  0  0  3  0  0  0  0  0  0
  -29.0210  -13.1270   20.6070 C   0  0  0  0  0  2  0  0  0  0  0  0
  -30.3110  -13.4690   19.9780 N   0  0  0  0  0  0  0  0  0  0  0  0
  -31.9700  -14.9370   19.4350 O   0  0  0  0  0  0  0  0  0  0  0  0
  -30.2330  -15.6340   20.7230 N   0  0  0  0  0  0  0  0  0  0  0  0
  -29.5900  -15.2180   21.3810 H   0  0  0  0  0  0  0  0  0  0  0  0
  -25.5660  -13.8930   20.4190 C   0  0  0  0  0  0  0  0  0  0  0  0
  -24.5150  -13.1140   20.8260 C   0  0  0  0  0  0  0  0  0  0  0  0
  -24.9600  -11.7610   20.7140 C   0  0  0  0  0  0  0  0  0  0  0  0
  -26.5870  -13.0130   20.0910 N   0  0  0  0  0  0  0  0  0  0  0  0
  -26.2280  -11.7240   20.3210 N   0  0  0  0  0  0  0  0  0  0  0  0
  -24.2360  -10.4980   20.9020 C   0  0  0  0  0  0  0  0  0  0  0  0
  -24.6440   -9.5500   21.8660 C   0  0  0  0  0  3  0  0  0  0  0  0
  -23.9200   -8.3500   22.0400 C   0  0  0  0  0  3  0  0  0  0  0  0
  -22.7780   -8.0900   21.2480 C   0  0  0  0  0  0  0  0  0  0  0  0
  -22.3900   -9.0260   20.2730 C   0  0  0  0  0  3  0  0  0  0  0  0
  -23.1140  -10.2180   20.0980 C   0  0  0  0  0  3  0  0  0  0  0  0
  -22.0290   -6.9410   21.3290 O   0  0  0  0  0  0  0  0  0  0  0  0
  -21.8420   -6.2860   22.5210 C   0  0  0  0  0  0  0  0  0  0  0  0
  -21.2460   -6.9190   23.6330 C   0  0  0  0  0  3  0  0  0  0  0  0
  -21.0080   -6.1900   24.8150 C   0  0  0  0  0  3  0  0  0  0  0  0
  -21.3570   -4.8270   24.8840 C   0  0  0  0  0  0  0  0  0  0  0  0
  -21.9470   -4.1940   23.7760 C   0  0  0  0  0  3  0  0  0  0  0  0
  -22.1850   -4.9210   22.5970 C   0  0  0  0  0  0  0  0  0  0  0  0
  -22.7350   -4.3010   21.5250 F   0  0  0  0  0  0  0  0  0  0  0  0
  -21.1230   -4.1230   26.0160 F   0  0  0  0  0  0  0  0  0  0  0  0
  -23.1430  -13.5900   21.2070 C   0  0  0  0  0  0  0  0  0  0  0  0
  -22.4720  -12.8730   22.1020 N   0  0  0  0  0  0  0  0  0  0  0  0
  -22.6770  -14.6320   20.7470 O   0  0  0  0  0  0  0  0  0  0  0  0
  -22.8640  -12.0300   22.4940 H   0  0  0  0  0  0  0  0  0  0  0  0
  -21.5530  -13.1710   22.3980 H   0  0  0  0  0  0  0  0  0  0  0  0
  -25.7350  -15.2680   20.2860 N   0  0  0  0  0  0  0  0  0  0  0  0
  -24.9920  -15.9280   20.4870 H   0  0  0  0  0  0  0  0  0  0  0  0
  -26.5780  -15.7110   19.9410 H   0  0  0  0  0  0  0  0  0  0  0  0
  -29.2220  -22.8920   20.1790 C   0  0  0  0  0  2  0  0  0  0  0  0
  -28.9180  -24.3400   19.6160 C   0  0  0  0  0  3  0  0  0  0  0  0
  -28.6390  -25.4900   20.6390 C   0  0  0  0  0  3  0  0  0  0  0  0
  -28.6890  -26.8320   20.0850 O   0  0  0  0  0  0  0  0  0  0  0  0
  -24.7350  -31.8380   23.3350 C   0  0  0  0  0  0  0  0  0  0  0  0
  -27.5150  -27.5660   20.1090 C   0  0  0  0  0  0  0  0  0  0  0  0
  -23.5880  -30.4970   21.6020 C   0  0  0  0  0  3  0  0  0  0  0  0
  -25.0980  -29.0490   20.1370 C   0  0  0  0  0  0  0  0  0  0  0  0
  -26.1140  -30.9010   21.4770 C   0  0  0  0  0  2  0  0  0  0  0  0
  -26.2370  -29.5630   20.7680 C   0  0  0  0  0  0  0  0  0  0  0  0
  -27.4530  -28.8350   20.7380 C   0  0  0  0  0  3  0  0  0  0  0  0
  -26.3560  -27.0690   19.4750 C   0  0  0  0  0  3  0  0  0  0  0  0
  -25.1530  -27.8050   19.4840 C   0  0  0  0  0  3  0  0  0  0  0  0
  -23.8380  -29.8880   20.1970 C   0  0  0  0  0  2  0  0  0  0  0  0
  -24.8290  -31.0910   22.1970 N   0  0  0  0  0  0  0  0  0  0  0  0
  -23.6390  -32.0660   23.8640 O   0  0  0  0  0  0  0  0  0  0  0  0
  -22.9340  -29.4230   22.5010 C   0  0  0  0  0  0  0  0  0  0  0  0
  -21.6170  -29.2180   22.3280 N   0  0  0  0  0  0  0  0  0  0  0  0
  -23.6090  -28.7780   23.3070 O   0  0  0  0  0  0  0  0  0  0  0  0
  -21.1340  -29.7960   21.6560 H   0  0  0  0  0  0  0  0  0  0  0  0
  -18.2650  -27.9050   22.6580 C   0  0  0  0  0  0  0  0  0  0  0  0
  -20.8040  -28.2230   23.0260 C   0  0  0  0  0  3  0  0  0  0  0  0
  -20.9700  -26.8250   22.3880 C   0  0  0  0  0  2  0  0  0  0  0  0
  -19.9070  -26.5120   21.3310 C   0  0  0  0  0  2  0  0  0  0  0  0
  -18.5050  -26.5880   21.9390 C   0  0  0  0  0  2  0  0  0  0  0  0
  -19.3450  -28.6790   23.1550 C   0  0  0  0  0  0  0  0  0  0  0  0
  -19.0700  -29.9110   23.7870 C   0  0  0  0  0  3  0  0  0  0  0  0
  -17.7460  -30.3700   23.9260 C   0  0  0  0  0  3  0  0  0  0  0  0
  -16.6800  -29.5910   23.4440 C   0  0  0  0  0  3  0  0  0  0  0  0
  -16.9390  -28.3600   22.8170 C   0  0  0  0  0  3  0  0  0  0  0  0
  -25.9960  -32.4600   24.0120 C   0  0  0  0  0  3  0  0  0  0  0  0
  -26.4840  -31.6540   25.2780 C   0  0  1  0  0  0  0  0  0  0  0  0
  -25.3660  -31.3720   26.3070 C   0  0  0  0  0  1  0  0  0  0  0  0
  -27.0930  -30.2960   24.8590 C   0  0  0  0  0  1  0  0  0  0  0  0
  -27.6090  -32.4390   25.9960 C   0  0  0  0  0  1  0  0  0  0  0  0
  -25.6670  -33.8450   24.3760 N   0  0  0  0  0  0  0  0  0  0  0  0
  -26.0130  -34.9230   23.6600 C   0  0  0  0  0  0  0  0  0  0  0  0
  -26.7150  -34.8550   22.6460 O   0  0  0  0  0  0  0  0  0  0  0  0
  -25.0500  -33.9710   25.1650 H   0  0  0  0  0  0  0  0  0  0  0  0
  -24.2830  -36.7110   23.3030 C   0  0  0  0  0  1  0  0  0  0  0  0
  -25.5010  -36.2930   24.1430 C   0  0  0  0  0  3  0  0  0  0  0  0
  -27.5960  -37.1670   25.0760 C   0  0  0  0  0  1  0  0  0  0  0  0
  -26.5280  -37.3560   24.0980 N   0  0  0  0  0  0  0  0  0  0  0  0
  -26.1090  -38.2690   24.2570 H   0  0  0  0  0  0  0  0  0  0  0  0
  1  3  2  0
  1  2  1  0
  5  4  1  0
  6  8  1  0
  7  6  2  0
  7  9  1  0
  8  3  1  0
  8  4  2  0
  9 19  1  0
  9  5  2  0
 10  7  1  0
 11 19  1  0
 12 17  1  0
 13 14  1  0
 13 12  1  0
 15 14  1  0
 15 24  1  0
 15 16  1  0
 17 11  1  0
 17 16  1  0
 18 11  2  0
 19 20  1  0
 21 22  2  0
 22 41  1  0
 23 22  1  0
 23 26  1  0
 24 25  1  0
 24 21  1  0
 25 23  2  0
 26 27  1  0
 27 28  2  0
 29 32  1  0
 29 28  1  0
 30 29  2  0
 31 30  1  0
 31 26  2  0
 32 33  1  0
 33 38  2  0
 33 34  1  0
 34 35  2  0
 35 36  1  0
 36 40  1  0
 37 36  2  0
 38 37  1  0
 39 38  1  0
 41 42  1  0
 42 45  1  0
 42 44  1  0
 43 41  2  0
 46 21  1  0
 46 47  1  0
 48 46  1  0
 49  1  1  0
 50 49  1  0
 50 51  2  0
 52 54  1  0
 52 51  1  0
 53 64  2  0
 54 59  1  0
 55 63  1  0
 55 65  1  0
 56 62  1  0
 56 58  1  0
 57 63  1  0
 58 57  1  0
 59 58  2  0
 60 61  1  0
 60 54  2  0
 61 56  2  0
 62 55  1  0
 63 53  1  0
 65 67  2  0
 66 65  1  0
 68 66  1  0
 69 78  2  0
 69 74  1  0
 70 66  1  0
 70 74  1  0
 71 70  1  0
 72 73  1  0
 72 71  1  0
 73 69  1  0
 74 75  2  0
 75 76  1  0
 77 76  2  0
 78 77  1  0
 79 53  1  0
 79 84  1  0
 79 80  1  0
 80 83  1  1
 80 81  1  0
 82 80  1  0
 84 87  1  0
 85 89  1  0
 85 84  1  0
 86 85  2  0
 89 88  1  0
 91 89  1  0
 91 92  1  0
 91 90  1  0
M  ISO  4  11 100  19 100  51 101  52 101
M  END
>  <TORSDO>  (75) 
F 20

>  <SCORE>  (75) 
-12.094

>  <name>  (75) 
74

>  <ligand_id>  (75) 
74

>  <original_smiles>  (75) 
[H]c1c([H])c([H])c2c(c1[H])C([H])([H])C([H])([H])C([H])([H])C2([H])N([H])C(=O)C1([H])N(C(=O)C([H])(N([H])C(=O)C([H])(N([H])C([H])([H])[H])C([H])([H])[H])C(C([H])([H])[H])(C([H])([H])[H])C([H])([H])[H])C([H])([H])c2c([H])c(OC([H])([H])C([H])([H])C([H])([H])C(=Nc3c([H])c([H])c(N([H])C(=O)N4C([H])([H])C([H])([H])C([H])([H])C([H])(n5nc(-c6c([H])c([H])c(Oc7c([H])c([H])c(F)c([H])c7F)c([H])c6[H])c(C(=O)N([H])[H])c5N([H])[H])C4([H])[H])c(C([H])([H])[H])c3[H])C([H])([H])[H])c([H])c([H])c2C1([H])[H]

>  <smiles>  (75) 
[H]c1c([H])c([H])c2c(c1[H])C([H])([H])C([H])([H])C([H])([H])C2([H])N([H])C(=O)C1([H])N(C(=O)C([H])(N([H])C(=O)C([H])(N([H])C([H])([H])[H])C([H])([H])[H])C(C([H])([H])[H])(C([H])([H])[H])C([H])([H])[H])C([H])([H])c2c([H])c(OC([H])([H])C([H])([H])C([H])([H])C(=Nc3c([H])c([H])c(N([H])C(=O)N4C([H])([H])C([H])([H])C([H])([H])C([H])(n5nc(-c6c([H])c([H])c(Oc7c([H])c([H])c(F)c([H])c7F)c([H])c6[H])c(C(=O)N([H])[H])c5N([H])[H])C4([H])[H])c(C([H])([H])[H])c3[H])C([H])([H])[H])c([H])c([H])c2C1([H])[H]

$$$$
75:0:0
     RDKit          3D

 91 99  0  0  1  0  0  0  0  0999 V2000
  -29.0610  -23.4450   20.0910 C   0  0  0  0  0  0  0  0  0  0  0  0
  -28.6380  -22.1120   19.8760 N   0  0  0  0  0  0  0  0  0  0  0  0
  -30.1620  -23.6750   20.5980 O   0  0  0  0  0  0  0  0  0  0  0  0
  -27.6940  -22.1210   19.5110 H   0  0  0  0  0  0  0  0  0  0  0  0
  -30.6760  -18.6590   20.4740 C   0  0  0  0  0  3  0  0  0  0  0  0
  -30.3890  -20.0980   20.4000 C   0  0  0  0  0  3  0  0  0  0  0  0
  -28.4350  -18.2030   19.9100 C   0  0  0  0  0  3  0  0  0  0  0  0
  -29.7010  -17.6200   20.2340 C   0  0  0  0  0  0  0  0  0  0  0  0
  -29.1000  -20.6600   20.0640 C   0  0  0  0  0  0  0  0  0  0  0  0
  -28.1500  -19.6160   19.8190 C   0  0  0  0  0  0  0  0  0  0  0  0
  -26.5400  -20.0680   19.3770 Cl  0  0  0  0  0  0  0  0  0  0  0  0
  -30.6570  -15.0090   20.0000 C   0  0  0  0  0  0  0  0  0  0  0  0
  -30.5170  -12.6940   18.9780 C   0  0  0  0  0  2  0  0  0  0  0  0
  -29.5020  -12.7160   17.8100 C   0  0  0  0  0  2  0  0  0  0  0  0
  -28.0640  -12.4930   18.3190 C   0  0  0  0  0  2  0  0  0  0  0  0
  -27.7380  -13.3590   19.5620 C   0  0  0  0  0  3  0  0  0  0  0  0
  -28.8620  -13.2950   20.6200 C   0  0  0  0  0  2  0  0  0  0  0  0
  -30.1030  -13.7310   19.9610 N   0  0  0  0  0  0  0  0  0  0  0  0
  -31.8250  -15.1520   19.6230 O   0  0  0  0  0  0  0  0  0  0  0  0
  -29.7920  -16.0880   20.2970 N   0  0  0  0  0  0  0  0  0  0  0  0
  -28.9060  -15.6880   20.5660 H   0  0  0  0  0  0  0  0  0  0  0  0
  -25.4040  -13.9140   20.4600 C   0  0  0  0  0  0  0  0  0  0  0  0
  -24.3620  -13.1260   20.8680 C   0  0  0  0  0  0  0  0  0  0  0  0
  -24.8220  -11.7780   20.7590 C   0  0  0  0  0  0  0  0  0  0  0  0
  -26.4290  -13.0460   20.1260 N   0  0  0  0  0  0  0  0  0  0  0  0
  -26.0920  -11.7540   20.3690 N   0  0  0  0  0  0  0  0  0  0  0  0
  -24.1050  -10.5090   20.9440 C   0  0  0  0  0  0  0  0  0  0  0  0
  -24.5260   -9.5550   21.8950 C   0  0  0  0  0  3  0  0  0  0  0  0
  -23.8090   -8.3520   22.0690 C   0  0  0  0  0  3  0  0  0  0  0  0
  -22.6540   -8.0950   21.2930 C   0  0  0  0  0  0  0  0  0  0  0  0
  -22.2510   -9.0380   20.3310 C   0  0  0  0  0  3  0  0  0  0  0  0
  -22.9700  -10.2330   20.1560 C   0  0  0  0  0  3  0  0  0  0  0  0
  -21.9100   -6.9430   21.3750 O   0  0  0  0  0  0  0  0  0  0  0  0
  -21.7500   -6.2720   22.5600 C   0  0  0  0  0  0  0  0  0  0  0  0
  -21.1550   -6.8830   23.6870 C   0  0  0  0  0  3  0  0  0  0  0  0
  -20.9440   -6.1370   24.8630 C   0  0  0  0  0  3  0  0  0  0  0  0
  -21.3190   -4.7810   24.9140 C   0  0  0  0  0  0  0  0  0  0  0  0
  -21.9070   -4.1700   23.7930 C   0  0  0  0  0  3  0  0  0  0  0  0
  -22.1180   -4.9130   22.6190 C   0  0  0  0  0  0  0  0  0  0  0  0
  -22.6650   -4.3130   21.5340 F   0  0  0  0  0  0  0  0  0  0  0  0
  -21.1110   -4.0630   26.0430 F   0  0  0  0  0  0  0  0  0  0  0  0
  -22.9830  -13.5940   21.2360 C   0  0  0  0  0  0  0  0  0  0  0  0
  -22.3100  -12.8740   22.1270 N   0  0  0  0  0  0  0  0  0  0  0  0
  -22.5160  -14.6310   20.7700 O   0  0  0  0  0  0  0  0  0  0  0  0
  -22.7030  -12.0350   22.5260 H   0  0  0  0  0  0  0  0  0  0  0  0
  -21.3880  -13.1690   22.4150 H   0  0  0  0  0  0  0  0  0  0  0  0
  -25.5550  -15.2900   20.3160 N   0  0  0  0  0  0  0  0  0  0  0  0
  -24.7750  -15.9230   20.4620 H   0  0  0  0  0  0  0  0  0  0  0  0
  -26.3270  -15.7230   19.8300 H   0  0  0  0  0  0  0  0  0  0  0  0
  -28.1030  -24.7250   19.6530 C   0  0  0  0  0  2  0  0  0  0  0  0
  -28.3840  -26.2240   19.9700 O   0  0  0  0  0  0  0  0  0  0  0  0
  -24.5450  -31.6820   23.1290 C   0  0  0  0  0  0  0  0  0  0  0  0
  -27.3000  -27.1790   19.9360 C   0  0  0  0  0  0  0  0  0  0  0  0
  -23.4000  -30.3040   21.4370 C   0  0  0  0  0  3  0  0  0  0  0  0
  -24.9080  -28.8380   19.9640 C   0  0  0  0  0  0  0  0  0  0  0  0
  -25.9450  -30.6660   21.2940 C   0  0  0  0  0  2  0  0  0  0  0  0
  -26.0710  -29.3030   20.5920 C   0  0  0  0  0  0  0  0  0  0  0  0
  -27.2670  -28.4900   20.5630 C   0  0  0  0  0  3  0  0  0  0  0  0
  -26.1030  -26.8200   19.2740 C   0  0  0  0  0  3  0  0  0  0  0  0
  -24.9360  -27.6090   19.2930 C   0  0  0  0  0  3  0  0  0  0  0  0
  -23.6500  -29.6880   20.0370 C   0  0  0  0  0  2  0  0  0  0  0  0
  -24.6490  -30.9030   22.0090 N   0  0  0  0  0  0  0  0  0  0  0  0
  -23.4460  -31.9100   23.6600 O   0  0  0  0  0  0  0  0  0  0  0  0
  -22.7550  -29.2380   22.3600 C   0  0  0  0  0  0  0  0  0  0  0  0
  -21.4390  -29.0080   22.2030 N   0  0  0  0  0  0  0  0  0  0  0  0
  -23.4410  -28.6230   23.1790 O   0  0  0  0  0  0  0  0  0  0  0  0
  -20.9390  -29.5590   21.5190 H   0  0  0  0  0  0  0  0  0  0  0  0
  -18.1020  -27.6660   22.6450 C   0  0  0  0  0  0  0  0  0  0  0  0
  -20.6490  -28.0130   22.9360 C   0  0  0  0  0  3  0  0  0  0  0  0
  -20.8070  -26.6070   22.3110 C   0  0  0  0  0  2  0  0  0  0  0  0
  -19.7210  -26.2800   21.2800 C   0  0  0  0  0  2  0  0  0  0  0  0
  -18.3320  -26.3500   21.9210 C   0  0  0  0  0  2  0  0  0  0  0  0
  -19.1900  -28.4550   23.1080 C   0  0  0  0  0  0  0  0  0  0  0  0
  -18.9190  -29.6840   23.7460 C   0  0  0  0  0  3  0  0  0  0  0  0
  -17.5960  -30.1270   23.9250 C   0  0  0  0  0  3  0  0  0  0  0  0
  -16.5230  -29.3370   23.4760 C   0  0  0  0  0  3  0  0  0  0  0  0
  -16.7780  -28.1080   22.8420 C   0  0  0  0  0  3  0  0  0  0  0  0
  -25.7970  -32.3410   23.7840 C   0  0  0  0  0  3  0  0  0  0  0  0
  -25.4530  -33.7330   24.1070 N   0  0  0  0  0  0  0  0  0  0  0  0
  -25.7520  -34.7930   23.3420 C   0  0  0  0  0  0  0  0  0  0  0  0
  -26.4130  -34.7000   22.3060 O   0  0  0  0  0  0  0  0  0  0  0  0
  -24.8610  -33.8770   24.9130 H   0  0  0  0  0  0  0  0  0  0  0  0
  -23.9630  -36.5340   23.0200 C   0  0  0  0  0  1  0  0  0  0  0  0
  -25.2380  -36.1720   23.8010 C   0  0  0  0  0  3  0  0  0  0  0  0
  -27.3590  -37.1370   24.5750 C   0  0  0  0  0  1  0  0  0  0  0  0
  -26.2370  -37.2530   23.6470 N   0  0  0  0  0  0  0  0  0  0  0  0
  -25.8060  -38.1640   23.7800 H   0  0  0  0  0  0  0  0  0  0  0  0
  -26.2900  -31.5810   25.0770 C   0  0  1  0  0  0  0  0  0  0  0  0
  -25.1720  -31.3290   26.1150 C   0  0  0  0  0  1  0  0  0  0  0  0
  -26.9070  -30.2120   24.7120 C   0  0  0  0  0  1  0  0  0  0  0  0
  -27.4070  -32.3980   25.7680 C   0  0  0  0  0  1  0  0  0  0  0  0
  1  3  2  0
  2  9  1  0
  2  1  1  0
  4  2  1  0
  6  5  1  0
  7  8  1  0
  8 20  1  0
  8  5  2  0
  9  6  2  0
 10  7  2  0
 10  9  1  0
 11 10  1  0
 12 20  1  0
 13 18  1  0
 14 15  1  0
 14 13  1  0
 16 15  1  0
 16 25  1  0
 16 17  1  0
 18 12  1  0
 18 17  1  0
 19 12  2  0
 20 21  1  0
 22 23  2  0
 23 42  1  0
 24 23  1  0
 24 27  1  0
 25 26  1  0
 25 22  1  0
 26 24  2  0
 27 28  1  0
 28 29  2  0
 30 33  1  0
 30 29  1  0
 31 30  2  0
 32 31  1  0
 32 27  2  0
 33 34  1  0
 34 39  2  0
 34 35  1  0
 35 36  2  0
 36 37  1  0
 37 41  1  0
 38 37  2  0
 39 38  1  0
 40 39  1  0
 42 43  1  0
 43 46  1  0
 43 45  1  0
 44 42  2  0
 47 22  1  0
 47 48  1  0
 49 47  1  0
 50 51  1  0
 50  1  1  0
 52 63  2  0
 53 51  1  0
 53 58  1  0
 54 62  1  0
 54 64  1  0
 55 61  1  0
 55 57  1  0
 56 62  1  0
 57 56  1  0
 58 57  2  0
 59 60  1  0
 59 53  2  0
 60 55  2  0
 61 54  1  0
 62 52  1  0
 64 66  2  0
 65 64  1  0
 67 65  1  0
 68 77  2  0
 68 73  1  0
 69 65  1  0
 69 73  1  0
 70 69  1  0
 71 72  1  0
 71 70  1  0
 72 68  1  0
 73 74  2  0
 74 75  1  0
 76 75  2  0
 77 76  1  0
 78 52  1  0
 78 79  1  0
 78 88  1  0
 79 82  1  0
 80 84  1  0
 80 79  1  0
 81 80  2  0
 84 83  1  0
 86 87  1  0
 86 84  1  0
 86 85  1  0
 88 91  1  1
 88 89  1  0
 90 88  1  0
M  ISO  4  12 100  20 100  50 101  51 101
M  END
>  <TORSDO>  (76) 
F 18

>  <SCORE>  (76) 
-13.863

>  <name>  (76) 
75

>  <ligand_id>  (76) 
75

>  <original_smiles>  (76) 
[H]c1c([H])c([H])c2c(c1[H])C([H])([H])C([H])([H])C([H])([H])C2([H])N([H])C(=O)C1([H])N(C(=O)C([H])(N([H])C(=O)C([H])(N([H])C([H])([H])[H])C([H])([H])[H])C(C([H])([H])[H])(C([H])([H])[H])C([H])([H])[H])C([H])([H])c2c([H])c(OC([H])([H])C(=O)N([H])c3c([H])c([H])c(N([H])C(=O)N4C([H])([H])C([H])([H])C([H])([H])C([H])(n5nc(-c6c([H])c([H])c(Oc7c([H])c([H])c(F)c([H])c7F)c([H])c6[H])c(C(=O)N([H])[H])c5N([H])[H])C4([H])[H])c([H])c3Cl)c([H])c([H])c2C1([H])[H]

>  <smiles>  (76) 
[H]c1c([H])c([H])c2c(c1[H])C([H])([H])C([H])([H])C([H])([H])C2([H])N([H])C(=O)C1([H])N(C(=O)C([H])(N([H])C(=O)C([H])(N([H])C([H])([H])[H])C([H])([H])[H])C(C([H])([H])[H])(C([H])([H])[H])C([H])([H])[H])C([H])([H])c2c([H])c(OC([H])([H])C(=O)N([H])c3c([H])c([H])c(N([H])C(=O)N4C([H])([H])C([H])([H])C([H])([H])C([H])(n5nc(-c6c([H])c([H])c(Oc7c([H])c([H])c(F)c([H])c7F)c([H])c6[H])c(C(=O)N([H])[H])c5N([H])[H])C4([H])[H])c([H])c3Cl)c([H])c([H])c2C1([H])[H]

$$$$
76:0:0
     RDKit          3D

 92100  0  0  1  0  0  0  0  0999 V2000
  -30.3650  -18.6290   21.0640 C   0  0  0  0  0  3  0  0  0  0  0  0
  -28.3240  -19.6300   19.5020 C   0  0  0  0  0  3  0  0  0  0  0  0
  -29.6150  -17.6100   20.3690 C   0  0  0  0  0  0  0  0  0  0  0  0
  -29.0340  -20.6550   20.2100 C   0  0  0  0  0  0  0  0  0  0  0  0
  -30.0980  -20.0700   20.9940 C   0  0  0  0  0  0  0  0  0  0  0  0
  -28.5850  -18.2090   19.5740 C   0  0  0  0  0  0  0  0  0  0  0  0
  -30.8760  -20.8900   21.7370 F   0  0  0  0  0  0  0  0  0  0  0  0
  -27.5600  -17.1700   18.6510 Cl  0  0  0  0  0  0  0  0  0  0  0  0
  -30.5030  -14.9840   20.3620 C   0  0  0  0  0  0  0  0  0  0  0  0
  -30.4090  -12.6450   19.3920 C   0  0  0  0  0  2  0  0  0  0  0  0
  -29.4670  -12.6350   18.1650 C   0  0  0  0  0  2  0  0  0  0  0  0
  -28.0010  -12.4270   18.5940 C   0  0  0  0  0  2  0  0  0  0  0  0
  -27.6020  -13.3280   19.7920 C   0  0  0  0  0  3  0  0  0  0  0  0
  -28.6630  -13.2950   20.9140 C   0  0  0  0  0  2  0  0  0  0  0  0
  -29.9400  -13.7120   20.3160 N   0  0  0  0  0  0  0  0  0  0  0  0
  -31.6980  -15.1040   20.0690 O   0  0  0  0  0  0  0  0  0  0  0  0
  -29.6410  -16.0860   20.5630 N   0  0  0  0  0  0  0  0  0  0  0  0
  -28.7060  -15.7290   20.6820 H   0  0  0  0  0  0  0  0  0  0  0  0
  -25.2170  -13.9070   20.5260 C   0  0  0  0  0  0  0  0  0  0  0  0
  -24.1530  -13.1300   20.8940 C   0  0  0  0  0  0  0  0  0  0  0  0
  -24.6190  -11.7800   20.8590 C   0  0  0  0  0  0  0  0  0  0  0  0
  -26.2610  -13.0300   20.2840 N   0  0  0  0  0  0  0  0  0  0  0  0
  -25.9100  -11.7460   20.5510 N   0  0  0  0  0  0  0  0  0  0  0  0
  -23.8930  -10.5170   21.0450 C   0  0  0  0  0  0  0  0  0  0  0  0
  -24.3220   -9.5490   21.9800 C   0  0  0  0  0  3  0  0  0  0  0  0
  -23.5950   -8.3510   22.1540 C   0  0  0  0  0  3  0  0  0  0  0  0
  -22.4260   -8.1140   21.3930 C   0  0  0  0  0  0  0  0  0  0  0  0
  -22.0170   -9.0700   20.4470 C   0  0  0  0  0  3  0  0  0  0  0  0
  -22.7440  -10.2600   20.2710 C   0  0  0  0  0  3  0  0  0  0  0  0
  -21.6710   -6.9690   21.4760 O   0  0  0  0  0  0  0  0  0  0  0  0
  -21.6100   -6.2300   22.6300 C   0  0  0  0  0  0  0  0  0  0  0  0
  -21.1550   -6.7830   23.8460 C   0  0  0  0  0  3  0  0  0  0  0  0
  -21.0430   -5.9690   24.9920 C   0  0  0  0  0  3  0  0  0  0  0  0
  -21.3750   -4.6030   24.9200 C   0  0  0  0  0  0  0  0  0  0  0  0
  -21.8230   -4.0490   23.7090 C   0  0  0  0  0  3  0  0  0  0  0  0
  -21.9370   -4.8600   22.5650 C   0  0  0  0  0  0  0  0  0  0  0  0
  -22.3490   -4.3160   21.3950 F   0  0  0  0  0  0  0  0  0  0  0  0
  -21.2600   -3.8190   26.0180 F   0  0  0  0  0  0  0  0  0  0  0  0
  -22.7550  -13.6070   21.1610 C   0  0  0  0  0  0  0  0  0  0  0  0
  -22.0270  -12.9130   22.0290 N   0  0  0  0  0  0  0  0  0  0  0  0
  -22.3150  -14.6280   20.6340 O   0  0  0  0  0  0  0  0  0  0  0  0
  -22.3950  -12.0880   22.4780 H   0  0  0  0  0  0  0  0  0  0  0  0
  -21.0890  -13.2140   22.2500 H   0  0  0  0  0  0  0  0  0  0  0  0
  -25.3720  -15.2770   20.3510 N   0  0  0  0  0  0  0  0  0  0  0  0
  -24.5830  -15.9080   20.4350 H   0  0  0  0  0  0  0  0  0  0  0  0
  -26.1700  -15.7110   19.9020 H   0  0  0  0  0  0  0  0  0  0  0  0
  -28.9040  -23.4320   20.4520 C   0  0  0  0  0  0  0  0  0  0  0  0
  -28.5560  -22.1110   20.0690 N   0  0  0  0  0  0  0  0  0  0  0  0
  -29.9330  -23.6480   21.0950 O   0  0  0  0  0  0  0  0  0  0  0  0
  -27.7070  -22.1580   19.5230 H   0  0  0  0  0  0  0  0  0  0  0  0
  -27.9470  -24.7240   20.0480 C   0  0  0  0  0  2  0  0  0  0  0  0
  -28.2620  -26.2150   20.3670 O   0  0  0  0  0  0  0  0  0  0  0  0
  -24.6420  -31.9310   23.3010 C   0  0  0  0  0  0  0  0  0  0  0  0
  -27.2190  -27.2120   20.2820 C   0  0  0  0  0  0  0  0  0  0  0  0
  -23.4460  -30.5410   21.6560 C   0  0  0  0  0  3  0  0  0  0  0  0
  -24.8960  -28.9640   20.2380 C   0  0  0  0  0  0  0  0  0  0  0  0
  -26.0020  -30.7950   21.5060 C   0  0  0  0  0  2  0  0  0  0  0  0
  -26.0740  -29.4040   20.8550 C   0  0  0  0  0  0  0  0  0  0  0  0
  -27.2360  -28.5430   20.8620 C   0  0  0  0  0  3  0  0  0  0  0  0
  -26.0150  -26.8780   19.6190 C   0  0  0  0  0  3  0  0  0  0  0  0
  -24.8790  -27.7140   19.6050 C   0  0  0  0  0  3  0  0  0  0  0  0
  -23.6720  -29.8640   20.2790 C   0  0  0  0  0  2  0  0  0  0  0  0
  -24.7170  -31.1100   22.2090 N   0  0  0  0  0  0  0  0  0  0  0  0
  -23.5550  -32.2210   23.8220 O   0  0  0  0  0  0  0  0  0  0  0  0
  -22.7580  -29.5360   22.6140 C   0  0  0  0  0  0  0  0  0  0  0  0
  -21.4300  -29.3690   22.4790 N   0  0  0  0  0  0  0  0  0  0  0  0
  -23.4210  -28.9080   23.4430 O   0  0  0  0  0  0  0  0  0  0  0  0
  -20.9510  -29.9240   21.7840 H   0  0  0  0  0  0  0  0  0  0  0  0
  -18.0400  -28.1860   22.9630 C   0  0  0  0  0  0  0  0  0  0  0  0
  -20.5990  -28.4370   23.2450 C   0  0  0  0  0  3  0  0  0  0  0  0
  -20.6970  -27.0030   22.6750 C   0  0  0  0  0  2  0  0  0  0  0  0
  -19.6000  -26.6830   21.6540 C   0  0  0  0  0  2  0  0  0  0  0  0
  -18.2150  -26.8350   22.2900 C   0  0  0  0  0  2  0  0  0  0  0  0
  -19.1590  -28.9450   23.3980 C   0  0  0  0  0  0  0  0  0  0  0  0
  -18.9410  -30.2090   23.9880 C   0  0  0  0  0  3  0  0  0  0  0  0
  -17.6360  -30.7130   24.1480 C   0  0  0  0  0  3  0  0  0  0  0  0
  -16.5320  -29.9510   23.7290 C   0  0  0  0  0  3  0  0  0  0  0  0
  -16.7340  -28.6900   23.1420 C   0  0  0  0  0  3  0  0  0  0  0  0
  -25.9200  -32.5610   23.9330 C   0  0  0  0  0  3  0  0  0  0  0  0
  -25.6150  -33.9640   24.2570 N   0  0  0  0  0  0  0  0  0  0  0  0
  -25.9310  -35.0120   23.4840 C   0  0  0  0  0  0  0  0  0  0  0  0
  -26.5760  -34.9000   22.4390 O   0  0  0  0  0  0  0  0  0  0  0  0
  -25.0370  -34.1250   25.0680 H   0  0  0  0  0  0  0  0  0  0  0  0
  -24.1800  -36.7950   23.1780 C   0  0  0  0  0  1  0  0  0  0  0  0
  -25.4560  -36.4050   23.9420 C   0  0  0  0  0  3  0  0  0  0  0  0
  -27.6160  -37.3150   24.6770 C   0  0  0  0  0  1  0  0  0  0  0  0
  -26.4780  -37.4610   23.7730 N   0  0  0  0  0  0  0  0  0  0  0  0
  -26.0720  -38.3820   23.9200 H   0  0  0  0  0  0  0  0  0  0  0  0
  -26.4140  -31.7960   25.2240 C   0  0  1  0  0  0  0  0  0  0  0  0
  -25.3060  -31.5760   26.2800 C   0  0  0  0  0  1  0  0  0  0  0  0
  -26.9910  -30.4100   24.8540 C   0  0  0  0  0  1  0  0  0  0  0  0
  -27.5640  -32.5870   25.8930 C   0  0  0  0  0  1  0  0  0  0  0  0
  2  6  2  0
  2  4  1  0
  3 17  1  0
  3  1  2  0
  4  5  2  0
  5  1  1  0
  5  7  1  0
  6  3  1  0
  8  6  1  0
  9 17  1  0
 10 15  1  0
 11 12  1  0
 11 10  1  0
 13 12  1  0
 13 22  1  0
 13 14  1  0
 15  9  1  0
 15 14  1  0
 16  9  2  0
 17 18  1  0
 19 20  2  0
 20 39  1  0
 21 20  1  0
 21 24  1  0
 22 19  1  0
 22 23  1  0
 23 21  2  0
 24 25  1  0
 25 26  2  0
 27 30  1  0
 27 26  1  0
 28 27  2  0
 29 28  1  0
 29 24  2  0
 30 31  1  0
 31 32  1  0
 32 33  2  0
 34 33  1  0
 34 38  1  0
 35 34  2  0
 36 31  2  0
 36 35  1  0
 37 36  1  0
 39 40  1  0
 40 43  1  0
 40 42  1  0
 41 39  2  0
 44 45  1  0
 44 19  1  0
 46 44  1  0
 47 49  2  0
 48  4  1  0
 48 47  1  0
 50 48  1  0
 51 52  1  0
 51 47  1  0
 53 64  2  0
 54 52  1  0
 54 59  1  0
 55 63  1  0
 55 65  1  0
 56 62  1  0
 56 58  1  0
 57 63  1  0
 58 59  2  0
 58 57  1  0
 60 54  2  0
 61 60  1  0
 61 56  2  0
 62 55  1  0
 63 53  1  0
 65 67  2  0
 66 65  1  0
 68 66  1  0
 69 78  2  0
 69 74  1  0
 70 66  1  0
 70 74  1  0
 71 70  1  0
 72 73  1  0
 72 71  1  0
 73 69  1  0
 74 75  2  0
 75 76  1  0
 77 76  2  0
 78 77  1  0
 79 53  1  0
 79 80  1  0
 79 89  1  0
 80 83  1  0
 81 85  1  0
 81 80  1  0
 82 81  2  0
 85 84  1  0
 87 88  1  0
 87 85  1  0
 87 86  1  0
 89 92  1  1
 89 90  1  0
 91 89  1  0
M  ISO  4   9 100  17 100  51 101  52 101
M  END
>  <TORSDO>  (77) 
F 18

>  <SCORE>  (77) 
-14.892

>  <name>  (77) 
76

>  <ligand_id>  (77) 
76

>  <original_smiles>  (77) 
[H]c1c([H])c([H])c2c(c1[H])C([H])([H])C([H])([H])C([H])([H])C2([H])N([H])C(=O)C1([H])N(C(=O)C([H])(N([H])C(=O)C([H])(N([H])C([H])([H])[H])C([H])([H])[H])C(C([H])([H])[H])(C([H])([H])[H])C([H])([H])[H])C([H])([H])c2c([H])c(OC([H])([H])C(=O)N([H])c3c([H])c(Cl)c(N([H])C(=O)N4C([H])([H])C([H])([H])C([H])([H])C([H])(n5nc(-c6c([H])c([H])c(Oc7c([H])c([H])c(F)c([H])c7F)c([H])c6[H])c(C(=O)N([H])[H])c5N([H])[H])C4([H])[H])c([H])c3F)c([H])c([H])c2C1([H])[H]

>  <smiles>  (77) 
[H]c1c([H])c([H])c2c(c1[H])C([H])([H])C([H])([H])C([H])([H])C2([H])N([H])C(=O)C1([H])N(C(=O)C([H])(N([H])C(=O)C([H])(N([H])C([H])([H])[H])C([H])([H])[H])C(C([H])([H])[H])(C([H])([H])[H])C([H])([H])[H])C([H])([H])c2c([H])c(OC([H])([H])C(=O)N([H])c3c([H])c(Cl)c(N([H])C(=O)N4C([H])([H])C([H])([H])C([H])([H])C([H])(n5nc(-c6c([H])c([H])c(Oc7c([H])c([H])c(F)c([H])c7F)c([H])c6[H])c(C(=O)N([H])[H])c5N([H])[H])C4([H])[H])c([H])c3F)c([H])c([H])c2C1([H])[H]

$$$$
77:0:0
     RDKit          3D

 91 99  0  0  1  0  0  0  0  0999 V2000
  -30.5250  -21.8700   22.0810 C   0  0  0  0  0  1  0  0  0  0  0  0
  -29.9750  -21.5390   20.7660 N   0  0  0  0  0  0  0  0  0  0  0  0
  -28.7260  -17.9370   20.6130 C   0  0  0  0  0  3  0  0  0  0  0  0
  -28.7310  -19.3630   20.6140 C   0  0  0  0  0  3  0  0  0  0  0  0
  -31.1240  -17.9050   20.4760 C   0  0  0  0  0  3  0  0  0  0  0  0
  -31.1380  -19.3350   20.4800 C   0  0  0  0  0  0  0  0  0  0  0  0
  -29.9180  -17.1660   20.5610 C   0  0  0  0  0  0  0  0  0  0  0  0
  -29.9360  -20.1100   20.5810 C   0  0  0  0  0  0  0  0  0  0  0  0
  -32.4920  -20.0210   20.3920 C   0  0  0  0  0  1  0  0  0  0  0  0
  -30.6240  -14.6830   20.2080 C   0  0  0  0  0  0  0  0  0  0  0  0
  -30.3770  -12.4770   19.0870 C   0  0  0  0  0  2  0  0  0  0  0  0
  -29.3930  -12.6500   17.9080 C   0  0  0  0  0  2  0  0  0  0  0  0
  -27.9320  -12.4890   18.3780 C   0  0  0  0  0  2  0  0  0  0  0  0
  -27.6220  -13.3170   19.6530 C   0  0  0  0  0  3  0  0  0  0  0  0
  -28.7130  -13.1100   20.7280 C   0  0  0  0  0  2  0  0  0  0  0  0
  -30.0070  -13.4620   20.1220 N   0  0  0  0  0  0  0  0  0  0  0  0
  -31.7690  -14.8570   19.7800 O   0  0  0  0  0  0  0  0  0  0  0  0
  -29.8180  -15.7080   20.6300 N   0  0  0  0  0  0  0  0  0  0  0  0
  -28.9170  -15.3720   20.9340 H   0  0  0  0  0  0  0  0  0  0  0  0
  -25.2470  -13.9170   20.4340 C   0  0  0  0  0  0  0  0  0  0  0  0
  -24.1900  -13.1440   20.8310 C   0  0  0  0  0  0  0  0  0  0  0  0
  -24.6490  -11.7920   20.7790 C   0  0  0  0  0  0  0  0  0  0  0  0
  -26.2840  -13.0360   20.1690 N   0  0  0  0  0  0  0  0  0  0  0  0
  -25.9300  -11.7530   20.4330 N   0  0  0  0  0  0  0  0  0  0  0  0
  -23.9270  -10.5300   20.9790 C   0  0  0  0  0  0  0  0  0  0  0  0
  -24.3730   -9.5610   21.9050 C   0  0  0  0  0  3  0  0  0  0  0  0
  -23.6490   -8.3640   22.0930 C   0  0  0  0  0  3  0  0  0  0  0  0
  -22.4650   -8.1270   21.3550 C   0  0  0  0  0  0  0  0  0  0  0  0
  -22.0370   -9.0850   20.4180 C   0  0  0  0  0  3  0  0  0  0  0  0
  -22.7620  -10.2730   20.2290 C   0  0  0  0  0  3  0  0  0  0  0  0
  -21.7120   -6.9810   21.4530 O   0  0  0  0  0  0  0  0  0  0  0  0
  -21.6650   -6.2480   22.6110 C   0  0  0  0  0  0  0  0  0  0  0  0
  -21.2360   -6.8100   23.8340 C   0  0  0  0  0  3  0  0  0  0  0  0
  -21.1360   -6.0020   24.9840 C   0  0  0  0  0  3  0  0  0  0  0  0
  -21.4560   -4.6340   24.9130 C   0  0  0  0  0  0  0  0  0  0  0  0
  -21.8800   -4.0710   23.6960 C   0  0  0  0  0  3  0  0  0  0  0  0
  -21.9810   -4.8760   22.5480 C   0  0  0  0  0  0  0  0  0  0  0  0
  -22.3690   -4.3230   21.3730 F   0  0  0  0  0  0  0  0  0  0  0  0
  -21.3540   -3.8560   26.0170 F   0  0  0  0  0  0  0  0  0  0  0  0
  -22.8020  -13.6220   21.1460 C   0  0  0  0  0  0  0  0  0  0  0  0
  -22.0960  -12.9220   22.0260 N   0  0  0  0  0  0  0  0  0  0  0  0
  -22.3510  -14.6510   20.6430 O   0  0  0  0  0  0  0  0  0  0  0  0
  -22.4730  -12.0890   22.4540 H   0  0  0  0  0  0  0  0  0  0  0  0
  -21.1650  -13.2250   22.2780 H   0  0  0  0  0  0  0  0  0  0  0  0
  -25.4090  -15.2890   20.2540 N   0  0  0  0  0  0  0  0  0  0  0  0
  -24.6320  -15.9320   20.3560 H   0  0  0  0  0  0  0  0  0  0  0  0
  -26.2200  -15.7130   19.8240 H   0  0  0  0  0  0  0  0  0  0  0  0
  -28.9250  -22.4900   20.2800 C   0  0  0  0  0  2  0  0  0  0  0  0
  -29.2530  -24.0480   20.4520 C   0  0  0  0  0  3  0  0  0  0  0  0
  -28.1630  -25.0910   19.9710 C   0  0  0  0  0  3  0  0  0  0  0  0
  -28.3770  -26.5360   20.2140 O   0  0  0  0  0  0  0  0  0  0  0  0
  -24.6240  -31.8930   23.2450 C   0  0  0  0  0  0  0  0  0  0  0  0
  -27.2560  -27.3770   20.1540 C   0  0  0  0  0  0  0  0  0  0  0  0
  -23.4280  -30.5050   21.5900 C   0  0  0  0  0  3  0  0  0  0  0  0
  -24.8860  -28.9780   20.1500 C   0  0  0  0  0  0  0  0  0  0  0  0
  -25.9680  -30.8340   21.4170 C   0  0  0  0  0  2  0  0  0  0  0  0
  -26.0510  -29.4650   20.7550 C   0  0  0  0  0  0  0  0  0  0  0  0
  -27.2400  -28.6760   20.7480 C   0  0  0  0  0  3  0  0  0  0  0  0
  -26.0650  -26.9450   19.5220 C   0  0  0  0  0  3  0  0  0  0  0  0
  -24.8940  -27.7210   19.5280 C   0  0  0  0  0  3  0  0  0  0  0  0
  -23.6450  -29.8460   20.2010 C   0  0  0  0  0  2  0  0  0  0  0  0
  -24.6920  -31.0940   22.1400 N   0  0  0  0  0  0  0  0  0  0  0  0
  -23.5390  -32.1640   23.7780 O   0  0  0  0  0  0  0  0  0  0  0  0
  -22.7680  -29.4760   22.5360 C   0  0  0  0  0  0  0  0  0  0  0  0
  -21.4420  -29.2990   22.4060 N   0  0  0  0  0  0  0  0  0  0  0  0
  -23.4450  -28.8400   23.3480 O   0  0  0  0  0  0  0  0  0  0  0  0
  -20.9550  -29.8620   21.7240 H   0  0  0  0  0  0  0  0  0  0  0  0
  -18.0620  -28.1090   22.8940 C   0  0  0  0  0  0  0  0  0  0  0  0
  -20.6200  -28.3550   23.1670 C   0  0  0  0  0  3  0  0  0  0  0  0
  -20.7190  -26.9300   22.5760 C   0  0  0  0  0  2  0  0  0  0  0  0
  -19.6160  -26.6230   21.5580 C   0  0  0  0  0  2  0  0  0  0  0  0
  -18.2340  -26.7660   22.2040 C   0  0  0  0  0  2  0  0  0  0  0  0
  -19.1830  -28.8620   23.3320 C   0  0  0  0  0  0  0  0  0  0  0  0
  -18.9690  -30.1190   23.9370 C   0  0  0  0  0  3  0  0  0  0  0  0
  -17.6670  -30.6220   24.1120 C   0  0  0  0  0  3  0  0  0  0  0  0
  -16.5590  -29.8670   23.6920 C   0  0  0  0  0  3  0  0  0  0  0  0
  -16.7580  -28.6120   23.0880 C   0  0  0  0  0  3  0  0  0  0  0  0
  -25.9050  -32.5220   23.8740 C   0  0  0  0  0  3  0  0  0  0  0  0
  -26.4110  -31.7510   25.1550 C   0  0  1  0  0  0  0  0  0  0  0  0
  -25.3090  -31.5140   26.2140 C   0  0  0  0  0  1  0  0  0  0  0  0
  -26.9970  -30.3740   24.7690 C   0  0  0  0  0  1  0  0  0  0  0  0
  -27.5570  -32.5450   25.8250 C   0  0  0  0  0  1  0  0  0  0  0  0
  -25.5950  -33.9200   24.2050 N   0  0  0  0  0  0  0  0  0  0  0  0
  -25.9140  -34.9710   23.4380 C   0  0  0  0  0  0  0  0  0  0  0  0
  -26.5700  -34.8670   22.3990 O   0  0  0  0  0  0  0  0  0  0  0  0
  -25.0090  -34.0750   25.0110 H   0  0  0  0  0  0  0  0  0  0  0  0
  -24.1650  -36.7520   23.1140 C   0  0  0  0  0  1  0  0  0  0  0  0
  -25.4280  -36.3600   23.8980 C   0  0  0  0  0  3  0  0  0  0  0  0
  -27.5730  -37.2670   24.6740 C   0  0  0  0  0  1  0  0  0  0  0  0
  -26.4500  -37.4200   23.7540 N   0  0  0  0  0  0  0  0  0  0  0  0
  -26.0400  -38.3380   23.9040 H   0  0  0  0  0  0  0  0  0  0  0  0
  2  1  1  0
  3  4  1  0
  5  6  2  0
  5  7  1  0
  6  8  1  0
  7  3  2  0
  7 18  1  0
  8  4  2  0
  8  2  1  0
  9  6  1  0
 10 18  1  0
 11 16  1  0
 12 13  1  0
 12 11  1  0
 14 13  1  0
 14 23  1  0
 14 15  1  0
 16 10  1  0
 16 15  1  0
 17 10  2  0
 18 19  1  0
 20 21  2  0
 21 40  1  0
 22 21  1  0
 22 25  1  0
 23 24  1  0
 23 20  1  0
 24 22  2  0
 25 26  1  0
 26 27  2  0
 28 31  1  0
 28 27  1  0
 29 28  2  0
 30 29  1  0
 30 25  2  0
 31 32  1  0
 32 33  1  0
 33 34  2  0
 35 34  1  0
 35 39  1  0
 36 35  2  0
 37 32  2  0
 37 36  1  0
 38 37  1  0
 40 41  1  0
 41 44  1  0
 41 43  1  0
 42 40  2  0
 45 46  1  0
 45 20  1  0
 47 45  1  0
 48 49  1  0
 48  2  1  0
 50 51  1  0
 50 49  2  0
 52 63  2  0
 53 51  1  0
 53 58  1  0
 54 62  1  0
 54 64  1  0
 55 61  1  0
 55 57  1  0
 56 62  1  0
 57 56  1  0
 58 57  2  0
 59 60  1  0
 59 53  2  0
 60 55  2  0
 61 54  1  0
 62 52  1  0
 64 66  2  0
 65 64  1  0
 67 65  1  0
 68 77  2  0
 68 73  1  0
 69 65  1  0
 69 73  1  0
 70 69  1  0
 71 72  1  0
 71 70  1  0
 72 68  1  0
 73 74  2  0
 74 75  1  0
 76 75  2  0
 77 76  1  0
 78 52  1  0
 78 83  1  0
 78 79  1  0
 79 82  1  1
 79 80  1  0
 81 79  1  0
 83 86  1  0
 84 88  1  0
 84 83  1  0
 85 84  2  0
 88 87  1  0
 90 88  1  0
 90 91  1  0
 90 89  1  0
M  ISO  4  10 100  18 100  50 101  51 101
M  END
>  <TORSDO>  (78) 
F 20

>  <SCORE>  (78) 
-14.064

>  <name>  (78) 
77

>  <ligand_id>  (78) 
77

>  <original_smiles>  (78) 
[H]c1c([H])c([H])c2c(c1[H])C([H])([H])C([H])([H])C([H])([H])C2([H])N([H])C(=O)C1([H])N(C(=O)C([H])(N([H])C(=O)C([H])(N([H])C([H])([H])[H])C([H])([H])[H])C(C([H])([H])[H])(C([H])([H])[H])C([H])([H])[H])C([H])([H])c2c([H])c(OC([H])([H])C([H])([H])C([H])([H])N(c3c([H])c([H])c(N([H])C(=O)N4C([H])([H])C([H])([H])C([H])([H])C([H])(n5nc(-c6c([H])c([H])c(Oc7c([H])c([H])c(F)c([H])c7F)c([H])c6[H])c(C(=O)N([H])[H])c5N([H])[H])C4([H])[H])c([H])c3C([H])([H])[H])C([H])([H])[H])c([H])c([H])c2C1([H])[H]

>  <smiles>  (78) 
[H]c1c([H])c([H])c2c(c1[H])C([H])([H])C([H])([H])C([H])([H])C2([H])N([H])C(=O)C1([H])N(C(=O)C([H])(N([H])C(=O)C([H])(N([H])C([H])([H])[H])C([H])([H])[H])C(C([H])([H])[H])(C([H])([H])[H])C([H])([H])[H])C([H])([H])c2c([H])c(OC([H])([H])C([H])([H])C([H])([H])N(c3c([H])c([H])c(N([H])C(=O)N4C([H])([H])C([H])([H])C([H])([H])C([H])(n5nc(-c6c([H])c([H])c(Oc7c([H])c([H])c(F)c([H])c7F)c([H])c6[H])c(C(=O)N([H])[H])c5N([H])[H])C4([H])[H])c([H])c3C([H])([H])[H])C([H])([H])[H])c([H])c([H])c2C1([H])[H]

$$$$
78:0:0
     RDKit          3D

 98106  0  0  1  0  0  0  0  0999 V2000
  -27.5810  -20.5270   20.2170 C   0  0  0  0  0  0  0  0  0  0  0  0
  -28.6210  -19.8330   19.7220 N   0  0  0  0  0  0  0  0  0  0  0  0
  -27.3990  -20.7530   21.4160 O   0  0  0  0  0  0  0  0  0  0  0  0
  -28.6100  -19.7300   18.7170 H   0  0  0  0  0  0  0  0  0  0  0  0
  -30.1410  -19.4440   21.6630 C   0  0  0  0  0  3  0  0  0  0  0  0
  -31.7340  -17.5990   21.5870 C   0  0  0  0  0  3  0  0  0  0  0  0
  -31.1710  -18.6970   22.2660 C   0  0  0  0  0  0  0  0  0  0  0  0
  -30.2030  -17.9790   19.7090 C   0  0  0  0  0  0  0  0  0  0  0  0
  -29.6440  -19.0920   20.3850 C   0  0  0  0  0  0  0  0  0  0  0  0
  -31.2620  -17.2430   20.3040 C   0  0  0  0  0  0  0  0  0  0  0  0
  -31.6830  -19.0920   23.6350 C   0  0  0  0  0  1  0  0  0  0  0  0
  -29.6700  -17.5740   18.3300 C   0  0  0  0  0  1  0  0  0  0  0  0
  -32.5770  -15.1530   19.9570 C   0  0  0  0  0  0  0  0  0  0  0  0
  -32.2100  -12.8490   19.2320 C   0  0  0  0  0  2  0  0  0  0  0  0
  -31.3050  -12.9080   17.9810 C   0  0  0  0  0  2  0  0  0  0  0  0
  -29.8150  -12.9110   18.3830 C   0  0  0  0  0  2  0  0  0  0  0  0
  -29.4880  -13.9500   19.4910 C   0  0  0  0  0  3  0  0  0  0  0  0
  -30.5190  -13.8860   20.6440 C   0  0  0  0  0  2  0  0  0  0  0  0
  -31.8640  -14.0050   20.0630 N   0  0  0  0  0  0  0  0  0  0  0  0
  -33.7780  -15.1950   19.6880 O   0  0  0  0  0  0  0  0  0  0  0  0
  -31.8300  -16.1850   19.5520 N   0  0  0  0  0  0  0  0  0  0  0  0
  -32.0940  -16.4800   18.6240 H   0  0  0  0  0  0  0  0  0  0  0  0
  -27.1630  -14.7830   20.2060 C   0  0  0  0  0  0  0  0  0  0  0  0
  -26.0250  -14.1140   20.5720 C   0  0  0  0  0  0  0  0  0  0  0  0
  -26.3570  -12.7260   20.5440 C   0  0  0  0  0  0  0  0  0  0  0  0
  -28.1190  -13.8060   19.9750 N   0  0  0  0  0  0  0  0  0  0  0  0
  -27.6370  -12.5640   20.2370 N   0  0  0  0  0  0  0  0  0  0  0  0
  -25.5160  -11.5370   20.7340 C   0  0  0  0  0  0  0  0  0  0  0  0
  -25.7870  -10.5980   21.7520 C   0  0  0  0  0  3  0  0  0  0  0  0
  -24.9550   -9.4710   21.9280 C   0  0  0  0  0  3  0  0  0  0  0  0
  -23.8360   -9.2770   21.0840 C   0  0  0  0  0  0  0  0  0  0  0  0
  -23.5820  -10.2040   20.0580 C   0  0  0  0  0  3  0  0  0  0  0  0
  -24.4140  -11.3220   19.8810 C   0  0  0  0  0  3  0  0  0  0  0  0
  -22.9880   -8.1990   21.1650 O   0  0  0  0  0  0  0  0  0  0  0  0
  -22.5790   -7.6940   22.3730 C   0  0  0  0  0  0  0  0  0  0  0  0
  -21.9260   -8.4960   23.3340 C   0  0  0  0  0  3  0  0  0  0  0  0
  -21.4580   -7.9200   24.5320 C   0  0  0  0  0  3  0  0  0  0  0  0
  -21.6340   -6.5430   24.7670 C   0  0  0  0  0  0  0  0  0  0  0  0
  -22.2800   -5.7420   23.8100 C   0  0  0  0  0  3  0  0  0  0  0  0
  -22.7490   -6.3160   22.6150 C   0  0  0  0  0  0  0  0  0  0  0  0
  -23.3520   -5.5340   21.6860 F   0  0  0  0  0  0  0  0  0  0  0  0
  -21.1790   -5.9880   25.9140 F   0  0  0  0  0  0  0  0  0  0  0  0
  -24.6780  -14.7210   20.8430 C   0  0  0  0  0  0  0  0  0  0  0  0
  -23.9230  -14.1500   21.7760 N   0  0  0  0  0  0  0  0  0  0  0  0
  -24.3040  -15.7360   20.2590 O   0  0  0  0  0  0  0  0  0  0  0  0
  -24.2390  -13.3310   22.2730 H   0  0  0  0  0  0  0  0  0  0  0  0
  -23.0190  -14.5400   21.9980 H   0  0  0  0  0  0  0  0  0  0  0  0
  -27.4560  -16.1310   20.0310 N   0  0  0  0  0  0  0  0  0  0  0  0
  -26.7650  -16.8590   20.1740 H   0  0  0  0  0  0  0  0  0  0  0  0
  -28.3710  -16.4910   19.7860 H   0  0  0  0  0  0  0  0  0  0  0  0
  -26.5520  -21.0140   19.1900 C   0  0  0  0  0  2  0  0  0  0  0  0
  -26.1290  -22.4930   19.3410 C   0  0  0  0  0  2  0  0  0  0  0  0
  -27.9470  -24.1730   18.9590 C   0  0  0  0  0  0  0  0  0  0  0  0
  -26.9480  -23.3930   18.5270 N   0  0  0  0  0  0  0  0  0  0  0  0
  -28.4160  -24.0900   20.0960 O   0  0  0  0  0  0  0  0  0  0  0  0
  -26.6510  -23.5310   17.5690 H   0  0  0  0  0  0  0  0  0  0  0  0
  -28.4650  -25.2410   17.9780 C   0  0  0  0  0  2  0  0  0  0  0  0
  -28.5870  -26.5200   18.6150 O   0  0  0  0  0  0  0  0  0  0  0  0
  -25.3720  -30.5650   23.4840 C   0  0  0  0  0  0  0  0  0  0  0  0
  -27.4570  -27.2600   18.9070 C   0  0  0  0  0  0  0  0  0  0  0  0
  -23.9660  -29.8930   21.5620 C   0  0  0  0  0  3  0  0  0  0  0  0
  -25.2050  -28.8290   19.6060 C   0  0  0  0  0  0  0  0  0  0  0  0
  -26.5020  -30.1110   21.3150 C   0  0  0  0  0  2  0  0  0  0  0  0
  -26.4290  -29.0340   20.2530 C   0  0  0  0  0  0  0  0  0  0  0  0
  -27.5520  -28.2500   19.9100 C   0  0  0  0  0  3  0  0  0  0  0  0
  -26.2140  -27.0840   18.2510 C   0  0  0  0  0  3  0  0  0  0  0  0
  -25.0900  -27.8520   18.6050 C   0  0  0  0  0  3  0  0  0  0  0  0
  -24.0480  -29.7080   20.0240 C   0  0  0  0  0  2  0  0  0  0  0  0
  -25.3010  -30.1810   22.1790 N   0  0  0  0  0  0  0  0  0  0  0  0
  -24.3470  -30.7180   24.1630 O   0  0  0  0  0  0  0  0  0  0  0  0
  -23.2690  -28.6560   22.1710 C   0  0  0  0  0  0  0  0  0  0  0  0
  -21.9430  -28.5640   21.9810 N   0  0  0  0  0  0  0  0  0  0  0  0
  -23.9150  -27.7970   22.7750 O   0  0  0  0  0  0  0  0  0  0  0  0
  -21.4850  -29.3120   21.4800 H   0  0  0  0  0  0  0  0  0  0  0  0
  -18.5520  -27.3230   21.9360 C   0  0  0  0  0  0  0  0  0  0  0  0
  -21.0840  -27.4710   22.4320 C   0  0  0  0  0  3  0  0  0  0  0  0
  -21.2320  -26.2320   21.5170 C   0  0  0  0  0  2  0  0  0  0  0  0
  -20.2000  -26.1910   20.3850 C   0  0  0  0  0  2  0  0  0  0  0  0
  -18.7780  -26.1870   20.9530 C   0  0  0  0  0  2  0  0  0  0  0  0
  -19.6350  -27.9360   22.6190 C   0  0  0  0  0  0  0  0  0  0  0  0
  -19.3730  -29.0120   23.4960 C   0  0  0  0  0  3  0  0  0  0  0  0
  -18.0580  -29.4730   23.6960 C   0  0  0  0  0  3  0  0  0  0  0  0
  -16.9880  -28.8520   23.0290 C   0  0  0  0  0  3  0  0  0  0  0  0
  -17.2350  -27.7790   22.1550 C   0  0  0  0  0  3  0  0  0  0  0  0
  -26.7390  -30.8530   24.1790 C   0  0  0  0  0  3  0  0  0  0  0  0
  -26.6280  -32.1570   24.8450 N   0  0  0  0  0  0  0  0  0  0  0  0
  -27.1850  -33.2900   24.3990 C   0  0  0  0  0  0  0  0  0  0  0  0
  -27.9180  -33.3290   23.4070 O   0  0  0  0  0  0  0  0  0  0  0  0
  -25.9960  -32.2100   25.6310 H   0  0  0  0  0  0  0  0  0  0  0  0
  -25.8560  -35.4260   24.3980 C   0  0  0  0  0  1  0  0  0  0  0  0
  -26.8830  -34.5850   25.1760 C   0  0  0  0  0  3  0  0  0  0  0  0
  -28.9950  -34.7760   26.4110 C   0  0  0  0  0  1  0  0  0  0  0  0
  -28.0850  -35.3990   25.4540 N   0  0  0  0  0  0  0  0  0  0  0  0
  -27.8250  -36.3130   25.8130 H   0  0  0  0  0  0  0  0  0  0  0  0
  -27.1610  -29.7320   25.2070 C   0  0  1  0  0  0  0  0  0  0  0  0
  -26.0630  -29.3970   26.2420 C   0  0  0  0  0  1  0  0  0  0  0  0
  -27.5310  -28.4240   24.4680 C   0  0  0  0  0  1  0  0  0  0  0  0
  -28.4250  -30.1790   25.9780 C   0  0  0  0  0  1  0  0  0  0  0  0
  1  3  2  0
  2  1  1  0
  2  9  1  0
  4  2  1  0
  5  7  1  0
  6  7  2  0
  7 11  1  0
  8 10  2  0
  8  9  1  0
  9  5  2  0
 10  6  1  0
 12  8  1  0
 13 19  1  0
 14 19  1  0
 15 16  1  0
 15 14  1  0
 17 16  1  0
 17 26  1  0
 17 18  1  0
 19 18  1  0
 20 13  2  0
 21 13  1  0
 21 10  1  0
 22 21  1  0
 23 24  2  0
 24 43  1  0
 25 24  1  0
 25 28  1  0
 26 23  1  0
 26 27  1  0
 27 25  2  0
 28 29  1  0
 29 30  2  0
 31 34  1  0
 31 30  1  0
 32 31  2  0
 33 32  1  0
 33 28  2  0
 34 35  1  0
 35 40  2  0
 35 36  1  0
 36 37  2  0
 37 38  1  0
 38 42  1  0
 39 38  2  0
 40 39  1  0
 41 40  1  0
 43 44  1  0
 44 47  1  0
 44 46  1  0
 45 43  2  0
 48 49  1  0
 48 23  1  0
 50 48  1  0
 51 52  1  0
 51  1  1  0
 53 55  2  0
 54 53  1  0
 54 52  1  0
 56 54  1  0
 57 58  1  0
 57 53  1  0
 58 60  1  0
 59 70  2  0
 60 65  1  0
 61 71  1  0
 61 69  1  0
 62 68  1  0
 62 64  1  0
 63 69  1  0
 64 63  1  0
 65 64  2  0
 66 67  1  0
 66 60  2  0
 67 62  2  0
 68 61  1  0
 69 59  1  0
 71 73  2  0
 72 71  1  0
 74 72  1  0
 75 84  2  0
 75 80  1  0
 76 72  1  0
 76 80  1  0
 77 76  1  0
 78 79  1  0
 78 77  1  0
 79 75  1  0
 80 81  2  0
 81 82  1  0
 83 82  2  0
 84 83  1  0
 85 59  1  0
 85 86  1  0
 85 95  1  0
 86 89  1  0
 87 86  1  0
 87 91  1  0
 88 87  2  0
 91 90  1  0
 91 93  1  0
 93 94  1  0
 93 92  1  0
 95 98  1  1
 95 96  1  0
 97 95  1  0
M  ISO  4  13 100  21 100  57 101  58 101
M  END
>  <TORSDO>  (79) 
F 21

>  <SCORE>  (79) 
-7.002

>  <name>  (79) 
78

>  <ligand_id>  (79) 
78

>  <original_smiles>  (79) 
[H]c1c([H])c([H])c2c(c1[H])C([H])([H])C([H])([H])C([H])([H])C2([H])N([H])C(=O)C1([H])N(C(=O)C([H])(N([H])C(=O)C([H])(N([H])C([H])([H])[H])C([H])([H])[H])C(C([H])([H])[H])(C([H])([H])[H])C([H])([H])[H])C([H])([H])c2c([H])c(OC([H])([H])C(=O)N([H])C([H])([H])C([H])([H])C(=O)N([H])c3c([H])c(C([H])([H])[H])c([H])c(N([H])C(=O)N4C([H])([H])C([H])([H])C([H])([H])C([H])(n5nc(-c6c([H])c([H])c(Oc7c([H])c([H])c(F)c([H])c7F)c([H])c6[H])c(C(=O)N([H])[H])c5N([H])[H])C4([H])[H])c3C([H])([H])[H])c([H])c([H])c2C1([H])[H]

>  <smiles>  (79) 
[H]c1c([H])c([H])c2c(c1[H])C([H])([H])C([H])([H])C([H])([H])C2([H])N([H])C(=O)C1([H])N(C(=O)C([H])(N([H])C(=O)C([H])(N([H])C([H])([H])[H])C([H])([H])[H])C(C([H])([H])[H])(C([H])([H])[H])C([H])([H])[H])C([H])([H])c2c([H])c(OC([H])([H])C(=O)N([H])C([H])([H])C([H])([H])C(=O)N([H])c3c([H])c(C([H])([H])[H])c([H])c(N([H])C(=O)N4C([H])([H])C([H])([H])C([H])([H])C([H])(n5nc(-c6c([H])c([H])c(Oc7c([H])c([H])c(F)c([H])c7F)c([H])c6[H])c(C(=O)N([H])[H])c5N([H])[H])C4([H])[H])c3C([H])([H])[H])c([H])c([H])c2C1([H])[H]

$$$$
79:0:0
     RDKit          3D

 91 99  0  0  1  0  0  0  0  0999 V2000
  -28.6730  -23.4880   20.0900 C   0  0  0  0  0  0  0  0  0  0  0  0
  -29.0210  -22.3480   20.8610 N   0  0  0  0  0  0  0  0  0  0  0  0
  -28.7490  -23.4290   18.8590 O   0  0  0  0  0  0  0  0  0  0  0  0
  -29.0720  -22.5810   21.8440 H   0  0  0  0  0  0  0  0  0  0  0  0
  -29.0810  -18.6030   19.5010 C   0  0  0  0  0  3  0  0  0  0  0  0
  -28.8150  -20.0260   19.6010 C   0  0  0  0  0  3  0  0  0  0  0  0
  -30.4750  -18.6620   21.3860 C   0  0  0  0  0  3  0  0  0  0  0  0
  -29.9490  -17.8120   20.3530 C   0  0  0  0  0  0  0  0  0  0  0  0
  -29.3560  -20.8670   20.6190 C   0  0  0  0  0  0  0  0  0  0  0  0
  -30.1860  -20.0920   21.5160 C   0  0  0  0  0  0  0  0  0  0  0  0
  -30.7410  -20.7480   22.5640 F   0  0  0  0  0  0  0  0  0  0  0  0
  -30.8650  -15.2040   20.7190 C   0  0  0  0  0  0  0  0  0  0  0  0
  -30.8320  -12.7940   19.9110 C   0  0  0  0  0  2  0  0  0  0  0  0
  -29.9790  -12.5900   18.6350 C   0  0  0  0  0  2  0  0  0  0  0  0
  -28.4860  -12.4360   18.9750 C   0  0  0  0  0  2  0  0  0  0  0  0
  -27.9920  -13.4370   20.0540 C   0  0  0  0  0  3  0  0  0  0  0  0
  -28.9710  -13.5500   21.2390 C   0  0  0  0  0  2  0  0  0  0  0  0
  -30.2650  -13.9430   20.6690 N   0  0  0  0  0  0  0  0  0  0  0  0
  -32.1020  -15.2200   20.7650 O   0  0  0  0  0  0  0  0  0  0  0  0
  -30.2650  -16.0640   18.6080 C   0  0  0  0  0  1  0  0  0  0  0  0
  -30.2090  -16.3040   20.0680 N   0  0  0  0  0  0  0  0  0  0  0  0
  -25.5680  -14.0280   20.6230 C   0  0  0  0  0  0  0  0  0  0  0  0
  -24.4810  -13.2570   20.9280 C   0  0  0  0  0  0  0  0  0  0  0  0
  -24.9490  -11.9080   20.9630 C   0  0  0  0  0  0  0  0  0  0  0  0
  -26.6260  -13.1480   20.4780 N   0  0  0  0  0  0  0  0  0  0  0  0
  -26.2590  -11.8710   20.7540 N   0  0  0  0  0  0  0  0  0  0  0  0
  -24.2140  -10.6460   21.1230 C   0  0  0  0  0  0  0  0  0  0  0  0
  -24.5720   -9.7040   22.1120 C   0  0  0  0  0  3  0  0  0  0  0  0
  -23.8370   -8.5070   22.2610 C   0  0  0  0  0  3  0  0  0  0  0  0
  -22.7310   -8.2450   21.4180 C   0  0  0  0  0  0  0  0  0  0  0  0
  -22.3930   -9.1760   20.4190 C   0  0  0  0  0  3  0  0  0  0  0  0
  -23.1290  -10.3640   20.2700 C   0  0  0  0  0  3  0  0  0  0  0  0
  -21.9740   -7.1000   21.4730 O   0  0  0  0  0  0  0  0  0  0  0  0
  -21.8090   -6.4020   22.6420 C   0  0  0  0  0  0  0  0  0  0  0  0
  -21.2000   -6.9810   23.7760 C   0  0  0  0  0  3  0  0  0  0  0  0
  -20.9880   -6.2060   24.9340 C   0  0  0  0  0  3  0  0  0  0  0  0
  -21.3730   -4.8530   24.9580 C   0  0  0  0  0  0  0  0  0  0  0  0
  -21.9750   -4.2730   23.8270 C   0  0  0  0  0  3  0  0  0  0  0  0
  -22.1890   -5.0440   22.6720 C   0  0  0  0  0  0  0  0  0  0  0  0
  -22.7500   -4.4750   21.5780 F   0  0  0  0  0  0  0  0  0  0  0  0
  -21.1630   -4.1060   26.0670 F   0  0  0  0  0  0  0  0  0  0  0  0
  -23.0660  -13.7340   21.0800 C   0  0  0  0  0  0  0  0  0  0  0  0
  -22.2780  -13.0580   21.9100 N   0  0  0  0  0  0  0  0  0  0  0  0
  -22.6640  -14.7410   20.4990 O   0  0  0  0  0  0  0  0  0  0  0  0
  -22.6150  -12.2450   22.4030 H   0  0  0  0  0  0  0  0  0  0  0  0
  -21.3250  -13.3610   22.0550 H   0  0  0  0  0  0  0  0  0  0  0  0
  -25.7430  -15.3960   20.4280 N   0  0  0  0  0  0  0  0  0  0  0  0
  -24.9730  -16.0540   20.4770 H   0  0  0  0  0  0  0  0  0  0  0  0
  -26.6220  -15.8310   20.1780 H   0  0  0  0  0  0  0  0  0  0  0  0
  -28.1330  -24.9100   20.7540 C   0  0  0  0  0  2  0  0  0  0  0  0
  -28.3000  -26.3170   20.1150 O   0  0  0  0  0  0  0  0  0  0  0  0
  -24.6230  -31.9240   23.2120 C   0  0  0  0  0  0  0  0  0  0  0  0
  -27.2250  -27.2730   20.1320 C   0  0  0  0  0  0  0  0  0  0  0  0
  -23.4170  -30.5120   21.5890 C   0  0  0  0  0  3  0  0  0  0  0  0
  -24.8660  -28.9640   20.1390 C   0  0  0  0  0  0  0  0  0  0  0  0
  -25.9600  -30.8270   21.3760 C   0  0  0  0  0  2  0  0  0  0  0  0
  -26.0480  -29.4360   20.7240 C   0  0  0  0  0  0  0  0  0  0  0  0
  -27.2320  -28.6090   20.6990 C   0  0  0  0  0  3  0  0  0  0  0  0
  -26.0160  -26.8930   19.5140 C   0  0  0  0  0  3  0  0  0  0  0  0
  -24.8610  -27.7060   19.5170 C   0  0  0  0  0  3  0  0  0  0  0  0
  -23.6250  -29.8400   20.2060 C   0  0  0  0  0  2  0  0  0  0  0  0
  -24.6880  -31.1090   22.1150 N   0  0  0  0  0  0  0  0  0  0  0  0
  -23.5420  -32.1890   23.7600 O   0  0  0  0  0  0  0  0  0  0  0  0
  -22.7720  -29.4920   22.5620 C   0  0  0  0  0  0  0  0  0  0  0  0
  -21.4480  -29.2890   22.4470 N   0  0  0  0  0  0  0  0  0  0  0  0
  -23.4670  -28.8850   23.3810 O   0  0  0  0  0  0  0  0  0  0  0  0
  -20.9430  -29.8300   21.7610 H   0  0  0  0  0  0  0  0  0  0  0  0
  -18.1020  -28.0080   22.9830 C   0  0  0  0  0  0  0  0  0  0  0  0
  -20.6560  -28.3350   23.2290 C   0  0  0  0  0  3  0  0  0  0  0  0
  -20.7890  -26.9020   22.6600 C   0  0  0  0  0  2  0  0  0  0  0  0
  -19.6870  -26.5480   21.6550 C   0  0  0  0  0  2  0  0  0  0  0  0
  -18.3070  -26.6600   22.3090 C   0  0  0  0  0  2  0  0  0  0  0  0
  -19.2050  -28.8000   23.4000 C   0  0  0  0  0  0  0  0  0  0  0  0
  -18.9580  -30.0570   23.9920 C   0  0  0  0  0  3  0  0  0  0  0  0
  -17.6410  -30.5240   24.1700 C   0  0  0  0  0  3  0  0  0  0  0  0
  -16.5540  -29.7290   23.7680 C   0  0  0  0  0  3  0  0  0  0  0  0
  -16.7850  -28.4730   23.1800 C   0  0  0  0  0  3  0  0  0  0  0  0
  -25.9020  -32.5790   23.8180 C   0  0  0  0  0  3  0  0  0  0  0  0
  -25.5790  -33.9780   24.1400 N   0  0  0  0  0  0  0  0  0  0  0  0
  -25.9080  -35.0320   23.3820 C   0  0  0  0  0  0  0  0  0  0  0  0
  -26.5830  -34.9300   22.3530 O   0  0  0  0  0  0  0  0  0  0  0  0
  -24.9800  -34.1310   24.9380 H   0  0  0  0  0  0  0  0  0  0  0  0
  -24.1940  -36.8340   22.9970 C   0  0  0  0  0  1  0  0  0  0  0  0
  -25.4140  -36.4200   23.8360 C   0  0  0  0  0  3  0  0  0  0  0  0
  -27.5250  -37.3030   24.7280 C   0  0  0  0  0  1  0  0  0  0  0  0
  -26.4520  -37.4710   23.7530 N   0  0  0  0  0  0  0  0  0  0  0  0
  -26.0440  -38.3920   23.8860 H   0  0  0  0  0  0  0  0  0  0  0  0
  -26.4340  -31.8280   25.1010 C   0  0  1  0  0  0  0  0  0  0  0  0
  -25.3500  -31.5930   26.1800 C   0  0  0  0  0  1  0  0  0  0  0  0
  -27.0270  -30.4510   24.7250 C   0  0  0  0  0  1  0  0  0  0  0  0
  -27.5800  -32.6420   25.7460 C   0  0  0  0  0  1  0  0  0  0  0  0
  1 50  1  0
  1  2  1  0
  2  4  1  0
  3  1  2  0
  5  6  2  0
  5  8  1  0
  6  9  1  0
  7 10  1  0
  8  7  2  0
  9  2  1  0
  9 10  2  0
 10 11  1  0
 12 19  2  0
 13 18  1  0
 14 15  1  0
 14 13  1  0
 16 15  1  0
 16 25  1  0
 16 17  1  0
 18 12  1  0
 18 17  1  0
 20 21  1  0
 21  8  1  0
 21 12  1  0
 22 23  2  0
 23 24  1  0
 23 42  1  0
 24 27  1  0
 25 22  1  0
 25 26  1  0
 26 24  2  0
 27 28  1  0
 28 29  2  0
 30 33  1  0
 30 29  1  0
 31 30  2  0
 32 31  1  0
 32 27  2  0
 33 34  1  0
 34 39  2  0
 34 35  1  0
 35 36  2  0
 36 37  1  0
 37 41  1  0
 38 37  2  0
 39 38  1  0
 40 39  1  0
 42 43  1  0
 43 46  1  0
 43 45  1  0
 44 42  2  0
 47 48  1  0
 47 22  1  0
 49 47  1  0
 51 53  1  0
 51 50  1  0
 52 63  2  0
 53 58  1  0
 54 62  1  0
 54 64  1  0
 55 61  1  0
 55 57  1  0
 56 62  1  0
 57 56  1  0
 58 57  2  0
 59 60  1  0
 59 53  2  0
 60 55  2  0
 61 54  1  0
 62 52  1  0
 64 66  2  0
 65 64  1  0
 67 65  1  0
 68 77  2  0
 68 73  1  0
 69 65  1  0
 69 73  1  0
 70 69  1  0
 71 72  1  0
 71 70  1  0
 72 68  1  0
 73 74  2  0
 74 75  1  0
 76 75  2  0
 77 76  1  0
 78 52  1  0
 78 79  1  0
 78 88  1  0
 79 82  1  0
 80 84  1  0
 80 79  1  0
 81 80  2  0
 84 83  1  0
 86 84  1  0
 86 87  1  0
 86 85  1  0
 88 91  1  1
 88 89  1  0
 90 88  1  0
M  ISO  4  12 100  21 100  50 101  51 101
M  END
>  <TORSDO>  (80) 
F 18

>  <SCORE>  (80) 
-14.091

>  <name>  (80) 
79

>  <ligand_id>  (80) 
79

>  <original_smiles>  (80) 
[H]c1c([H])c([H])c2c(c1[H])C([H])([H])C([H])([H])C([H])([H])C2([H])N([H])C(=O)C1([H])N(C(=O)C([H])(N([H])C(=O)C([H])(N([H])C([H])([H])[H])C([H])([H])[H])C(C([H])([H])[H])(C([H])([H])[H])C([H])([H])[H])C([H])([H])c2c([H])c(OC([H])([H])C(=O)N([H])c3c([H])c([H])c(N(C(=O)N4C([H])([H])C([H])([H])C([H])([H])C([H])(n5nc(-c6c([H])c([H])c(Oc7c([H])c([H])c(F)c([H])c7F)c([H])c6[H])c(C(=O)N([H])[H])c5N([H])[H])C4([H])[H])C([H])([H])[H])c([H])c3F)c([H])c([H])c2C1([H])[H]

>  <smiles>  (80) 
[H]c1c([H])c([H])c2c(c1[H])C([H])([H])C([H])([H])C([H])([H])C2([H])N([H])C(=O)C1([H])N(C(=O)C([H])(N([H])C(=O)C([H])(N([H])C([H])([H])[H])C([H])([H])[H])C(C([H])([H])[H])(C([H])([H])[H])C([H])([H])[H])C([H])([H])c2c([H])c(OC([H])([H])C(=O)N([H])c3c([H])c([H])c(N(C(=O)N4C([H])([H])C([H])([H])C([H])([H])C([H])(n5nc(-c6c([H])c([H])c(Oc7c([H])c([H])c(F)c([H])c7F)c([H])c6[H])c(C(=O)N([H])[H])c5N([H])[H])C4([H])[H])C([H])([H])[H])c([H])c3F)c([H])c([H])c2C1([H])[H]

$$$$
80:0:0
     RDKit          3D

 98106  0  0  1  0  0  0  0  0999 V2000
  -30.5370  -17.9070   18.7940 C   0  0  0  0  0  3  0  0  0  0  0  0
  -29.9730  -20.3300   18.6620 C   0  0  0  0  0  3  0  0  0  0  0  0
  -29.2440  -18.9780   20.5330 C   0  0  0  0  0  3  0  0  0  0  0  0
  -30.5440  -19.1510   18.1080 C   0  0  0  0  0  0  0  0  0  0  0  0
  -29.8740  -17.7060   20.0230 C   0  0  0  0  0  0  0  0  0  0  0  0
  -29.2950  -20.3450   19.8990 C   0  0  0  0  0  0  0  0  0  0  0  0
  -30.5320  -15.0190   20.3040 C   0  0  0  0  0  0  0  0  0  0  0  0
  -30.4300  -12.6420   19.3970 C   0  0  0  0  0  2  0  0  0  0  0  0
  -29.5180  -12.5690   18.1500 C   0  0  0  0  0  2  0  0  0  0  0  0
  -28.0450  -12.3800   18.5600 C   0  0  0  0  0  2  0  0  0  0  0  0
  -27.6260  -13.3090   19.7300 C   0  0  0  0  0  3  0  0  0  0  0  0
  -28.6640  -13.3230   20.8710 C   0  0  0  0  0  2  0  0  0  0  0  0
  -29.9400  -13.7490   20.2800 N   0  0  0  0  0  0  0  0  0  0  0  0
  -31.7360  -15.0500   20.0120 O   0  0  0  0  0  0  0  0  0  0  0  0
  -29.7850  -16.2330   20.5330 N   0  0  0  0  0  0  0  0  0  0  0  0
  -28.9110  -16.0330   20.9980 H   0  0  0  0  0  0  0  0  0  0  0  0
  -25.2350  -13.9010   20.4190 C   0  0  0  0  0  0  0  0  0  0  0  0
  -24.1630  -13.1340   20.7790 C   0  0  0  0  0  0  0  0  0  0  0  0
  -24.6240  -11.7830   20.7820 C   0  0  0  0  0  0  0  0  0  0  0  0
  -26.2790  -13.0170   20.2080 N   0  0  0  0  0  0  0  0  0  0  0  0
  -25.9200  -11.7370   20.4920 N   0  0  0  0  0  0  0  0  0  0  0  0
  -23.8910  -10.5260   20.9810 C   0  0  0  0  0  0  0  0  0  0  0  0
  -24.3050   -9.5690   21.9330 C   0  0  0  0  0  3  0  0  0  0  0  0
  -23.5690   -8.3790   22.1190 C   0  0  0  0  0  3  0  0  0  0  0  0
  -22.4030   -8.1380   21.3520 C   0  0  0  0  0  0  0  0  0  0  0  0
  -22.0090   -9.0840   20.3890 C   0  0  0  0  0  3  0  0  0  0  0  0
  -22.7460  -10.2640   20.2010 C   0  0  0  0  0  3  0  0  0  0  0  0
  -21.6400   -6.9980   21.4440 O   0  0  0  0  0  0  0  0  0  0  0  0
  -21.5950   -6.2550   22.5960 C   0  0  0  0  0  0  0  0  0  0  0  0
  -21.1930   -6.8140   23.8300 C   0  0  0  0  0  3  0  0  0  0  0  0
  -21.0940   -5.9970   24.9750 C   0  0  0  0  0  3  0  0  0  0  0  0
  -21.3910   -4.6230   24.8850 C   0  0  0  0  0  0  0  0  0  0  0  0
  -21.7890   -4.0640   23.6570 C   0  0  0  0  0  3  0  0  0  0  0  0
  -21.8890   -4.8790   22.5160 C   0  0  0  0  0  0  0  0  0  0  0  0
  -22.2520   -4.3320   21.3300 F   0  0  0  0  0  0  0  0  0  0  0  0
  -21.2900   -3.8380   25.9820 F   0  0  0  0  0  0  0  0  0  0  0  0
  -22.7610  -13.6220   21.0050 C   0  0  0  0  0  0  0  0  0  0  0  0
  -22.0110  -12.9620   21.8790 N   0  0  0  0  0  0  0  0  0  0  0  0
  -22.3380  -14.6290   20.4390 O   0  0  0  0  0  0  0  0  0  0  0  0
  -22.3620  -12.1500   22.3650 H   0  0  0  0  0  0  0  0  0  0  0  0
  -21.0720  -13.2780   22.0710 H   0  0  0  0  0  0  0  0  0  0  0  0
  -25.4040  -15.2690   20.2230 N   0  0  0  0  0  0  0  0  0  0  0  0
  -24.6390  -15.9230   20.3560 H   0  0  0  0  0  0  0  0  0  0  0  0
  -26.2310  -15.7030   19.8360 H   0  0  0  0  0  0  0  0  0  0  0  0
  -31.1270  -19.1910   16.7250 C   0  0  0  0  0  0  0  0  0  0  0  0
  -30.5620  -20.1050   15.9200 N   0  0  0  0  0  0  0  0  0  0  0  0
  -31.9570  -18.3530   16.3670 O   0  0  0  0  0  0  0  0  0  0  0  0
  -29.8890  -20.6910   16.3940 H   0  0  0  0  0  0  0  0  0  0  0  0
  -30.3700  -21.7400   14.1530 C   0  0  0  0  0  1  0  0  0  0  0  0
  -31.8640  -19.7700   13.7820 C   0  0  0  0  0  1  0  0  0  0  0  0
  -29.3610  -19.4450   13.9150 C   0  0  0  0  0  1  0  0  0  0  0  0
  -30.5590  -20.2450   14.4590 C   0  0  1  0  0  0  0  0  0  0  0  0
  -28.7100  -21.6590   20.3500 N   0  0  0  0  0  0  0  0  0  0  0  0
  -28.2010  -21.6150   21.2330 H   0  0  0  0  0  0  0  0  0  0  0  0
  -30.3800  -23.5230   19.9860 C   0  0  0  0  0  1  0  0  0  0  0  0
  -28.9020  -23.1480   19.8250 C   0  0  0  0  0  3  0  0  0  0  0  0
  -27.9730  -24.5100   20.3230 C   0  0  0  0  0  2  0  0  0  0  0  0
  -28.1880  -26.0550   20.0520 O   0  0  0  0  0  0  0  0  0  0  0  0
  -24.5430  -31.7750   23.1130 C   0  0  0  0  0  0  0  0  0  0  0  0
  -27.1280  -27.0500   20.0560 C   0  0  0  0  0  0  0  0  0  0  0  0
  -23.3510  -30.3990   21.4520 C   0  0  0  0  0  3  0  0  0  0  0  0
  -24.8060  -28.8230   20.0280 C   0  0  0  0  0  0  0  0  0  0  0  0
  -25.9100  -30.6520   21.3060 C   0  0  0  0  0  2  0  0  0  0  0  0
  -25.9860  -29.2590   20.6440 C   0  0  0  0  0  0  0  0  0  0  0  0
  -27.1500  -28.3920   20.6340 C   0  0  0  0  0  3  0  0  0  0  0  0
  -25.9190  -26.7260   19.4080 C   0  0  0  0  0  3  0  0  0  0  0  0
  -24.7860  -27.5710   19.3950 C   0  0  0  0  0  3  0  0  0  0  0  0
  -23.5830  -29.7300   20.0700 C   0  0  0  0  0  2  0  0  0  0  0  0
  -24.6230  -30.9620   22.0140 N   0  0  0  0  0  0  0  0  0  0  0  0
  -23.4530  -32.0580   23.6360 O   0  0  0  0  0  0  0  0  0  0  0  0
  -22.6600  -29.3870   22.3990 C   0  0  0  0  0  0  0  0  0  0  0  0
  -21.3310  -29.2220   22.2620 N   0  0  0  0  0  0  0  0  0  0  0  0
  -23.3210  -28.7530   23.2260 O   0  0  0  0  0  0  0  0  0  0  0  0
  -20.8520  -29.7840   21.5740 H   0  0  0  0  0  0  0  0  0  0  0  0
  -17.9460  -28.0140   22.7220 C   0  0  0  0  0  0  0  0  0  0  0  0
  -20.5020  -28.2790   23.0190 C   0  0  0  0  0  3  0  0  0  0  0  0
  -20.6120  -26.8510   22.4380 C   0  0  0  0  0  2  0  0  0  0  0  0
  -19.5240  -26.5310   21.4090 C   0  0  0  0  0  2  0  0  0  0  0  0
  -18.1340  -26.6700   22.0380 C   0  0  0  0  0  2  0  0  0  0  0  0
  -19.0590  -28.7760   23.1690 C   0  0  0  0  0  0  0  0  0  0  0  0
  -18.8300  -30.0320   23.7730 C   0  0  0  0  0  3  0  0  0  0  0  0
  -17.5230  -30.5280   23.9300 C   0  0  0  0  0  3  0  0  0  0  0  0
  -16.4250  -29.7630   23.4970 C   0  0  0  0  0  3  0  0  0  0  0  0
  -16.6370  -28.5080   22.9010 C   0  0  0  0  0  3  0  0  0  0  0  0
  -25.8170  -32.4030   23.7570 C   0  0  0  0  0  3  0  0  0  0  0  0
  -25.5040  -33.7990   24.1030 N   0  0  0  0  0  0  0  0  0  0  0  0
  -25.8510  -34.8670   23.3700 C   0  0  0  0  0  0  0  0  0  0  0  0
  -26.5350  -34.7780   22.3470 O   0  0  0  0  0  0  0  0  0  0  0  0
  -24.8950  -33.9400   24.8960 H   0  0  0  0  0  0  0  0  0  0  0  0
  -24.1390  -36.6790   23.0290 C   0  0  0  0  0  1  0  0  0  0  0  0
  -25.3670  -36.2510   23.8460 C   0  0  0  0  0  3  0  0  0  0  0  0
  -27.4950  -37.1120   24.7190 C   0  0  0  0  0  1  0  0  0  0  0  0
  -26.4070  -37.3000   23.7640 N   0  0  0  0  0  0  0  0  0  0  0  0
  -26.0040  -38.2210   23.9190 H   0  0  0  0  0  0  0  0  0  0  0  0
  -26.3130  -31.6210   25.0360 C   0  0  1  0  0  0  0  0  0  0  0  0
  -25.2060  -31.3820   26.0900 C   0  0  0  0  0  1  0  0  0  0  0  0
  -26.8910  -30.2420   24.6450 C   0  0  0  0  0  1  0  0  0  0  0  0
  -27.4610  -32.4040   25.7160 C   0  0  0  0  0  1  0  0  0  0  0  0
  1  5  1  0
  2  6  2  0
  4  2  1  0
  4  1  2  0
  5  3  2  0
  5 15  1  0
  6 53  1  0
  6  3  1  0
  7 15  1  0
  8 13  1  0
  9 10  1  0
  9  8  1  0
 11 10  1  0
 11 20  1  0
 11 12  1  0
 13  7  1  0
 13 12  1  0
 14  7  2  0
 15 16  1  0
 17 18  2  0
 18 19  1  0
 18 37  1  0
 19 22  1  0
 20 17  1  0
 20 21  1  0
 21 19  2  0
 22 23  1  0
 23 24  2  0
 25 28  1  0
 25 24  1  0
 26 25  2  0
 27 26  1  0
 27 22  2  0
 28 29  1  0
 29 30  1  0
 30 31  2  0
 32 31  1  0
 32 36  1  0
 33 32  2  0
 34 29  2  0
 34 33  1  0
 35 34  1  0
 37 38  1  0
 38 41  1  0
 38 40  1  0
 39 37  2  0
 42 43  1  0
 42 17  1  0
 44 42  1  0
 45  4  1  0
 46 48  1  0
 46 45  1  0
 47 45  2  0
 52 49  1  1
 50 52  1  0
 51 52  1  0
 52 46  1  0
 53 54  1  0
 56 55  1  0
 56 57  1  0
 56 53  1  0
 58 60  1  0
 58 57  1  0
 59 70  2  0
 60 65  1  0
 61 69  1  0
 61 71  1  0
 62 68  1  0
 62 64  1  0
 63 69  1  0
 64 63  1  0
 65 64  2  0
 66 60  2  0
 67 66  1  0
 67 62  2  0
 68 61  1  0
 69 59  1  0
 71 73  2  0
 72 71  1  0
 74 72  1  0
 75 84  2  0
 75 80  1  0
 76 72  1  0
 76 80  1  0
 77 76  1  0
 78 79  1  0
 78 77  1  0
 79 75  1  0
 80 81  2  0
 81 82  1  0
 83 82  2  0
 84 83  1  0
 85 59  1  0
 85 86  1  0
 85 95  1  0
 86 89  1  0
 87 91  1  0
 87 86  1  0
 88 87  2  0
 91 90  1  0
 93 91  1  0
 93 94  1  0
 93 92  1  0
 95 98  1  1
 95 96  1  0
 97 95  1  0
M  ISO  4   7 100  15 100  57 101  58 101
M  END
>  <TORSDO>  (81) 
F 21

>  <SCORE>  (81) 
-14.003

>  <name>  (81) 
80

>  <ligand_id>  (81) 
80

>  <original_smiles>  (81) 
[H]c1c([H])c([H])c2c(c1[H])C([H])([H])C([H])([H])C([H])([H])C2([H])N([H])C(=O)C1([H])N(C(=O)C([H])(N([H])C(=O)C([H])(N([H])C([H])([H])[H])C([H])([H])[H])C(C([H])([H])[H])(C([H])([H])[H])C([H])([H])[H])C([H])([H])c2c([H])c(OC([H])([H])C([H])(N([H])c3c([H])c(C(=O)N([H])C(C([H])([H])[H])(C([H])([H])[H])C([H])([H])[H])c([H])c(N([H])C(=O)N4C([H])([H])C([H])([H])C([H])([H])C([H])(n5nc(-c6c([H])c([H])c(Oc7c([H])c([H])c(F)c([H])c7F)c([H])c6[H])c(C(=O)N([H])[H])c5N([H])[H])C4([H])[H])c3[H])C([H])([H])[H])c([H])c([H])c2C1([H])[H]

>  <smiles>  (81) 
[H]c1c([H])c([H])c2c(c1[H])C([H])([H])C([H])([H])C([H])([H])C2([H])N([H])C(=O)C1([H])N(C(=O)C([H])(N([H])C(=O)C([H])(N([H])C([H])([H])[H])C([H])([H])[H])C(C([H])([H])[H])(C([H])([H])[H])C([H])([H])[H])C([H])([H])c2c([H])c(OC([H])([H])C([H])(N([H])c3c([H])c(C(=O)N([H])C(C([H])([H])[H])(C([H])([H])[H])C([H])([H])[H])c([H])c(N([H])C(=O)N4C([H])([H])C([H])([H])C([H])([H])C([H])(n5nc(-c6c([H])c([H])c(Oc7c([H])c([H])c(F)c([H])c7F)c([H])c6[H])c(C(=O)N([H])[H])c5N([H])[H])C4([H])[H])c3[H])C([H])([H])[H])c([H])c([H])c2C1([H])[H]

$$$$
81:0:0
     RDKit          3D

 90 98  0  0  1  0  0  0  0  0999 V2000
  -28.9490  -18.5190   21.1230 C   0  0  0  0  0  3  0  0  0  0  0  0
  -28.8490  -19.9680   20.9940 C   0  0  0  0  0  3  0  0  0  0  0  0
  -30.5540  -18.4360   19.4150 C   0  0  0  0  0  3  0  0  0  0  0  0
  -29.8030  -17.6540   20.3450 C   0  0  0  0  0  0  0  0  0  0  0  0
  -29.5900  -20.7590   20.0550 C   0  0  0  0  0  0  0  0  0  0  0  0
  -30.4490  -19.8790   19.2690 C   0  0  0  0  0  0  0  0  0  0  0  0
  -31.2150  -20.4100   18.2850 F   0  0  0  0  0  0  0  0  0  0  0  0
  -30.5470  -15.0040   20.1000 C   0  0  0  0  0  0  0  0  0  0  0  0
  -30.3810  -12.6820   19.0960 C   0  0  0  0  0  2  0  0  0  0  0  0
  -29.3870  -12.6810   17.9100 C   0  0  0  0  0  2  0  0  0  0  0  0
  -27.9500  -12.4530   18.4110 C   0  0  0  0  0  2  0  0  0  0  0  0
  -27.6000  -13.3660   19.6130 C   0  0  0  0  0  3  0  0  0  0  0  0
  -28.7000  -13.3320   20.6980 C   0  0  0  0  0  2  0  0  0  0  0  0
  -29.9590  -13.7410   20.0590 N   0  0  0  0  0  0  0  0  0  0  0  0
  -31.7110  -15.1130   19.6980 O   0  0  0  0  0  0  0  0  0  0  0  0
  -29.7650  -16.1240   20.4770 N   0  0  0  0  0  0  0  0  0  0  0  0
  -28.9120  -15.8010   20.9080 H   0  0  0  0  0  0  0  0  0  0  0  0
  -25.2470  -13.9470   20.4430 C   0  0  0  0  0  0  0  0  0  0  0  0
  -24.1950  -13.1690   20.8420 C   0  0  0  0  0  0  0  0  0  0  0  0
  -24.6570  -11.8190   20.7820 C   0  0  0  0  0  0  0  0  0  0  0  0
  -26.2800  -13.0700   20.1560 N   0  0  0  0  0  0  0  0  0  0  0  0
  -25.9340  -11.7850   20.4250 N   0  0  0  0  0  0  0  0  0  0  0  0
  -23.9380  -10.5540   20.9840 C   0  0  0  0  0  0  0  0  0  0  0  0
  -24.3930   -9.5830   21.9020 C   0  0  0  0  0  3  0  0  0  0  0  0
  -23.6730   -8.3840   22.0940 C   0  0  0  0  0  3  0  0  0  0  0  0
  -22.4830   -8.1470   21.3650 C   0  0  0  0  0  0  0  0  0  0  0  0
  -22.0460   -9.1070   20.4350 C   0  0  0  0  0  3  0  0  0  0  0  0
  -22.7670  -10.2970   20.2420 C   0  0  0  0  0  3  0  0  0  0  0  0
  -21.7330   -7.0010   21.4650 O   0  0  0  0  0  0  0  0  0  0  0  0
  -21.7000   -6.2610   22.6190 C   0  0  0  0  0  0  0  0  0  0  0  0
  -21.2680   -6.8110   23.8470 C   0  0  0  0  0  3  0  0  0  0  0  0
  -21.1870   -5.9970   24.9930 C   0  0  0  0  0  3  0  0  0  0  0  0
  -21.5250   -4.6320   24.9140 C   0  0  0  0  0  0  0  0  0  0  0  0
  -21.9520   -4.0820   23.6920 C   0  0  0  0  0  3  0  0  0  0  0  0
  -22.0350   -4.8940   22.5480 C   0  0  0  0  0  0  0  0  0  0  0  0
  -22.4260   -4.3540   21.3690 F   0  0  0  0  0  0  0  0  0  0  0  0
  -21.4380   -3.8490   26.0140 F   0  0  0  0  0  0  0  0  0  0  0  0
  -22.8080  -13.6440   21.1680 C   0  0  0  0  0  0  0  0  0  0  0  0
  -22.1070  -12.9330   22.0430 N   0  0  0  0  0  0  0  0  0  0  0  0
  -22.3570  -14.6800   20.6800 O   0  0  0  0  0  0  0  0  0  0  0  0
  -22.4850  -12.0930   22.4550 H   0  0  0  0  0  0  0  0  0  0  0  0
  -21.1790  -13.2330   22.3060 H   0  0  0  0  0  0  0  0  0  0  0  0
  -25.4090  -15.3200   20.2750 N   0  0  0  0  0  0  0  0  0  0  0  0
  -24.6510  -15.9760   20.4270 H   0  0  0  0  0  0  0  0  0  0  0  0
  -26.2460  -15.7590   19.9150 H   0  0  0  0  0  0  0  0  0  0  0  0
  -30.8330  -22.8070   19.4970 C   0  0  0  0  0  1  0  0  0  0  0  0
  -29.5330  -22.2560   19.8890 N   0  0  0  0  0  0  0  0  0  0  0  0
  -28.6630  -23.3910   20.5130 C   0  0  0  0  0  2  0  0  0  0  0  0
  -28.3570  -24.8450   19.7080 C   0  0  0  0  0  2  0  0  0  0  0  0
  -28.3090  -26.2900   20.2790 O   0  0  0  0  0  0  0  0  0  0  0  0
  -24.6110  -31.8990   23.2430 C   0  0  0  0  0  0  0  0  0  0  0  0
  -27.2210  -27.2300   20.1810 C   0  0  0  0  0  0  0  0  0  0  0  0
  -23.4210  -30.5050   21.5960 C   0  0  0  0  0  3  0  0  0  0  0  0
  -24.8780  -28.9500   20.1630 C   0  0  0  0  0  0  0  0  0  0  0  0
  -25.9720  -30.7920   21.4330 C   0  0  0  0  0  2  0  0  0  0  0  0
  -26.0540  -29.4030   20.7730 C   0  0  0  0  0  0  0  0  0  0  0  0
  -27.2230  -28.5570   20.7680 C   0  0  0  0  0  3  0  0  0  0  0  0
  -26.0120  -26.8710   19.5400 C   0  0  0  0  0  3  0  0  0  0  0  0
  -24.8680  -27.6960   19.5350 C   0  0  0  0  0  3  0  0  0  0  0  0
  -23.6480  -29.8430   20.2100 C   0  0  0  0  0  2  0  0  0  0  0  0
  -24.6880  -31.0870   22.1460 N   0  0  0  0  0  0  0  0  0  0  0  0
  -23.5230  -32.1740   23.7730 O   0  0  0  0  0  0  0  0  0  0  0  0
  -22.7500  -29.4860   22.5490 C   0  0  0  0  0  0  0  0  0  0  0  0
  -21.4230  -29.3120   22.4220 N   0  0  0  0  0  0  0  0  0  0  0  0
  -23.4240  -28.8580   23.3670 O   0  0  0  0  0  0  0  0  0  0  0  0
  -20.9380  -29.8780   21.7420 H   0  0  0  0  0  0  0  0  0  0  0  0
  -18.0420  -28.1070   22.9170 C   0  0  0  0  0  0  0  0  0  0  0  0
  -20.6030  -28.3680   23.1860 C   0  0  0  0  0  3  0  0  0  0  0  0
  -20.7040  -26.9420   22.6000 C   0  0  0  0  0  2  0  0  0  0  0  0
  -19.6000  -26.6250   21.5840 C   0  0  0  0  0  2  0  0  0  0  0  0
  -18.2190  -26.7640   22.2310 C   0  0  0  0  0  2  0  0  0  0  0  0
  -19.1630  -28.8680   23.3510 C   0  0  0  0  0  0  0  0  0  0  0  0
  -18.9440  -30.1230   23.9560 C   0  0  0  0  0  3  0  0  0  0  0  0
  -17.6380  -30.6200   24.1340 C   0  0  0  0  0  3  0  0  0  0  0  0
  -16.5330  -29.8580   23.7160 C   0  0  0  0  0  3  0  0  0  0  0  0
  -16.7370  -28.6040   23.1120 C   0  0  0  0  0  3  0  0  0  0  0  0
  -25.8850  -32.5370   23.8760 C   0  0  0  0  0  3  0  0  0  0  0  0
  -26.3810  -31.7820   25.1690 C   0  0  1  0  0  0  0  0  0  0  0  0
  -25.2730  -31.5620   26.2260 C   0  0  0  0  0  1  0  0  0  0  0  0
  -26.9700  -30.4010   24.8060 C   0  0  0  0  0  1  0  0  0  0  0  0
  -27.5220  -32.5840   25.8370 C   0  0  0  0  0  1  0  0  0  0  0  0
  -25.5740  -33.9410   24.1890 N   0  0  0  0  0  0  0  0  0  0  0  0
  -25.9090  -34.9890   23.4250 C   0  0  0  0  0  0  0  0  0  0  0  0
  -26.5830  -34.8760   22.3980 O   0  0  0  0  0  0  0  0  0  0  0  0
  -24.9780  -34.1020   24.9880 H   0  0  0  0  0  0  0  0  0  0  0  0
  -24.1890  -36.7870   23.0510 C   0  0  0  0  0  1  0  0  0  0  0  0
  -25.4240  -36.3840   23.8720 C   0  0  0  0  0  3  0  0  0  0  0  0
  -27.5540  -37.2730   24.7090 C   0  0  0  0  0  1  0  0  0  0  0  0
  -26.4590  -37.4330   23.7560 N   0  0  0  0  0  0  0  0  0  0  0  0
  -26.0550  -38.3570   23.8900 H   0  0  0  0  0  0  0  0  0  0  0  0
  2  1  1  0
  3  4  1  0
  4 16  1  0
  4  1  2  0
  5  2  2  0
  6  3  2  0
  6  5  1  0
  7  6  1  0
  8 16  1  0
  9 14  1  0
 10 11  1  0
 10  9  1  0
 12 11  1  0
 12 21  1  0
 12 13  1  0
 14  8  1  0
 14 13  1  0
 15  8  2  0
 16 17  1  0
 18 19  2  0
 19 38  1  0
 20 19  1  0
 20 23  1  0
 21 22  1  0
 21 18  1  0
 22 20  2  0
 23 24  1  0
 24 25  2  0
 26 29  1  0
 26 25  1  0
 27 26  2  0
 28 27  1  0
 28 23  2  0
 29 30  1  0
 30 31  1  0
 31 32  2  0
 33 32  1  0
 33 37  1  0
 34 33  2  0
 35 30  2  0
 35 34  1  0
 36 35  1  0
 38 39  1  0
 39 42  1  0
 39 41  1  0
 40 38  2  0
 43 44  1  0
 43 18  1  0
 45 43  1  0
 46 47  1  0
 47  5  1  0
 47 48  1  0
 49 50  1  0
 49 48  1  0
 51 62  2  0
 52 50  1  0
 52 57  1  0
 53 61  1  0
 53 63  1  0
 54 60  1  0
 54 56  1  0
 55 61  1  0
 56 55  1  0
 57 56  2  0
 58 52  2  0
 59 58  1  0
 59 54  2  0
 60 53  1  0
 61 51  1  0
 63 65  2  0
 64 63  1  0
 66 64  1  0
 67 76  2  0
 67 72  1  0
 68 64  1  0
 68 72  1  0
 69 68  1  0
 70 71  1  0
 70 69  1  0
 71 67  1  0
 72 73  2  0
 73 74  1  0
 75 74  2  0
 76 75  1  0
 77 51  1  0
 77 82  1  0
 77 78  1  0
 78 81  1  1
 78 79  1  0
 80 78  1  0
 82 85  1  0
 83 87  1  0
 83 82  1  0
 84 83  2  0
 87 86  1  0
 89 87  1  0
 89 90  1  0
 89 88  1  0
M  ISO  4   8 100  16 100  49 101  50 101
M  END
>  <TORSDO>  (82) 
F 19

>  <SCORE>  (82) 
-13.720

>  <name>  (82) 
81

>  <ligand_id>  (82) 
81

>  <original_smiles>  (82) 
[H]c1c([H])c([H])c2c(c1[H])C([H])([H])C([H])([H])C([H])([H])C2([H])N([H])C(=O)C1([H])N(C(=O)C([H])(N([H])C(=O)C([H])(N([H])C([H])([H])[H])C([H])([H])[H])C(C([H])([H])[H])(C([H])([H])[H])C([H])([H])[H])C([H])([H])c2c([H])c(OC([H])([H])C([H])([H])N(c3c([H])c([H])c(N([H])C(=O)N4C([H])([H])C([H])([H])C([H])([H])C([H])(n5nc(-c6c([H])c([H])c(Oc7c([H])c([H])c(F)c([H])c7F)c([H])c6[H])c(C(=O)N([H])[H])c5N([H])[H])C4([H])[H])c([H])c3F)C([H])([H])[H])c([H])c([H])c2C1([H])[H]

>  <smiles>  (82) 
[H]c1c([H])c([H])c2c(c1[H])C([H])([H])C([H])([H])C([H])([H])C2([H])N([H])C(=O)C1([H])N(C(=O)C([H])(N([H])C(=O)C([H])(N([H])C([H])([H])[H])C([H])([H])[H])C(C([H])([H])[H])(C([H])([H])[H])C([H])([H])[H])C([H])([H])c2c([H])c(OC([H])([H])C([H])([H])N(c3c([H])c([H])c(N([H])C(=O)N4C([H])([H])C([H])([H])C([H])([H])C([H])(n5nc(-c6c([H])c([H])c(Oc7c([H])c([H])c(F)c([H])c7F)c([H])c6[H])c(C(=O)N([H])[H])c5N([H])[H])C4([H])[H])c([H])c3F)C([H])([H])[H])c([H])c([H])c2C1([H])[H]

$$$$
82:0:0
     RDKit          3D

 91 99  0  0  1  0  0  0  0  0999 V2000
  -30.7330  -18.3730   19.3790 C   0  0  0  0  0  3  0  0  0  0  0  0
  -28.7260  -19.8680   20.5930 C   0  0  0  0  0  3  0  0  0  0  0  0
  -29.8210  -17.5790   20.1380 C   0  0  0  0  0  0  0  0  0  0  0  0
  -29.6270  -20.6790   19.8240 C   0  0  0  0  0  0  0  0  0  0  0  0
  -28.8140  -18.4170   20.7360 C   0  0  0  0  0  0  0  0  0  0  0  0
  -30.6370  -19.8160   19.2210 C   0  0  0  0  0  0  0  0  0  0  0  0
  -27.8700  -17.8040   21.4900 F   0  0  0  0  0  0  0  0  0  0  0  0
  -31.5750  -20.3630   18.4120 F   0  0  0  0  0  0  0  0  0  0  0  0
  -30.5400  -14.9260   19.8750 C   0  0  0  0  0  0  0  0  0  0  0  0
  -30.3270  -12.6050   18.8770 C   0  0  0  0  0  2  0  0  0  0  0  0
  -29.2930  -12.6070   17.7260 C   0  0  0  0  0  2  0  0  0  0  0  0
  -27.8740  -12.3870   18.2760 C   0  0  0  0  0  2  0  0  0  0  0  0
  -27.5700  -13.3030   19.4880 C   0  0  0  0  0  3  0  0  0  0  0  0
  -28.7040  -13.2640   20.5350 C   0  0  0  0  0  2  0  0  0  0  0  0
  -29.9440  -13.6670   19.8540 N   0  0  0  0  0  0  0  0  0  0  0  0
  -31.6910  -15.0290   19.4330 O   0  0  0  0  0  0  0  0  0  0  0  0
  -29.7790  -16.0490   20.2730 N   0  0  0  0  0  0  0  0  0  0  0  0
  -28.9370  -15.7470   20.7420 H   0  0  0  0  0  0  0  0  0  0  0  0
  -25.2510  -13.8990   20.4000 C   0  0  0  0  0  0  0  0  0  0  0  0
  -24.2070  -13.1280   20.8350 C   0  0  0  0  0  0  0  0  0  0  0  0
  -24.6550  -11.7740   20.7510 C   0  0  0  0  0  0  0  0  0  0  0  0
  -26.2660  -13.0150   20.0750 N   0  0  0  0  0  0  0  0  0  0  0  0
  -25.9200  -11.7310   20.3500 N   0  0  0  0  0  0  0  0  0  0  0  0
  -23.9340  -10.5140   20.9720 C   0  0  0  0  0  0  0  0  0  0  0  0
  -24.4080   -9.5400   21.8770 C   0  0  0  0  0  3  0  0  0  0  0  0
  -23.6840   -8.3460   22.0880 C   0  0  0  0  0  3  0  0  0  0  0  0
  -22.4730   -8.1180   21.3910 C   0  0  0  0  0  0  0  0  0  0  0  0
  -22.0180   -9.0800   20.4730 C   0  0  0  0  0  3  0  0  0  0  0  0
  -22.7420  -10.2660   20.2630 C   0  0  0  0  0  3  0  0  0  0  0  0
  -21.7180   -6.9760   21.5120 O   0  0  0  0  0  0  0  0  0  0  0  0
  -21.7070   -6.2390   22.6680 C   0  0  0  0  0  0  0  0  0  0  0  0
  -21.3180   -6.7990   23.9050 C   0  0  0  0  0  3  0  0  0  0  0  0
  -21.2550   -5.9890   25.0560 C   0  0  0  0  0  3  0  0  0  0  0  0
  -21.5700   -4.6190   24.9710 C   0  0  0  0  0  0  0  0  0  0  0  0
  -21.9540   -4.0590   23.7400 C   0  0  0  0  0  3  0  0  0  0  0  0
  -22.0180   -4.8670   22.5910 C   0  0  0  0  0  0  0  0  0  0  0  0
  -22.3670   -4.3170   21.4030 F   0  0  0  0  0  0  0  0  0  0  0  0
  -21.5020   -3.8390   26.0750 F   0  0  0  0  0  0  0  0  0  0  0  0
  -22.8360  -13.6120   21.2110 C   0  0  0  0  0  0  0  0  0  0  0  0
  -22.1660  -12.9100   22.1180 N   0  0  0  0  0  0  0  0  0  0  0  0
  -22.3720  -14.6460   20.7350 O   0  0  0  0  0  0  0  0  0  0  0  0
  -22.5570  -12.0710   22.5190 H   0  0  0  0  0  0  0  0  0  0  0  0
  -21.2510  -13.2170   22.4160 H   0  0  0  0  0  0  0  0  0  0  0  0
  -25.4170  -15.2710   20.2320 N   0  0  0  0  0  0  0  0  0  0  0  0
  -24.6690  -15.9300   20.4140 H   0  0  0  0  0  0  0  0  0  0  0  0
  -26.2440  -15.7050   19.8450 H   0  0  0  0  0  0  0  0  0  0  0  0
  -30.9170  -22.7360   19.4200 C   0  0  0  0  0  1  0  0  0  0  0  0
  -29.5830  -22.1780   19.6580 N   0  0  0  0  0  0  0  0  0  0  0  0
  -28.6440  -23.3080   20.1810 C   0  0  0  0  0  2  0  0  0  0  0  0
  -28.4440  -24.7760   19.3650 C   0  0  0  0  0  2  0  0  0  0  0  0
  -28.3990  -26.2210   19.9340 O   0  0  0  0  0  0  0  0  0  0  0  0
  -24.6920  -31.7380   23.0570 C   0  0  0  0  0  0  0  0  0  0  0  0
  -27.3050  -27.1570   19.8650 C   0  0  0  0  0  0  0  0  0  0  0  0
  -23.4990  -30.3800   21.3820 C   0  0  0  0  0  3  0  0  0  0  0  0
  -24.9530  -28.8650   19.9040 C   0  0  0  0  0  0  0  0  0  0  0  0
  -26.0470  -30.6820   21.2120 C   0  0  0  0  0  2  0  0  0  0  0  0
  -26.1300  -29.3100   20.5170 C   0  0  0  0  0  0  0  0  0  0  0  0
  -27.3030  -28.4700   20.4840 C   0  0  0  0  0  3  0  0  0  0  0  0
  -26.0950  -26.8070   19.2230 C   0  0  0  0  0  3  0  0  0  0  0  0
  -24.9470  -27.6270   19.2450 C   0  0  0  0  0  3  0  0  0  0  0  0
  -23.7200  -29.7500   19.9810 C   0  0  0  0  0  2  0  0  0  0  0  0
  -24.7650  -30.9530   21.9400 N   0  0  0  0  0  0  0  0  0  0  0  0
  -23.6060  -31.9950   23.6000 O   0  0  0  0  0  0  0  0  0  0  0  0
  -22.8380  -29.3360   22.3170 C   0  0  0  0  0  0  0  0  0  0  0  0
  -21.5100  -29.1640   22.2000 N   0  0  0  0  0  0  0  0  0  0  0  0
  -23.5220  -28.6840   23.1090 O   0  0  0  0  0  0  0  0  0  0  0  0
  -21.0180  -29.7500   21.5410 H   0  0  0  0  0  0  0  0  0  0  0  0
  -18.1340  -27.9530   22.7090 C   0  0  0  0  0  0  0  0  0  0  0  0
  -20.6980  -28.2000   22.9470 C   0  0  0  0  0  3  0  0  0  0  0  0
  -20.7860  -26.7920   22.3170 C   0  0  0  0  0  2  0  0  0  0  0  0
  -19.6670  -26.5090   21.3080 C   0  0  0  0  0  2  0  0  0  0  0  0
  -18.2960  -26.6300   21.9790 C   0  0  0  0  0  2  0  0  0  0  0  0
  -19.2620  -28.6970   23.1490 C   0  0  0  0  0  0  0  0  0  0  0  0
  -19.0550  -29.9340   23.7950 C   0  0  0  0  0  3  0  0  0  0  0  0
  -17.7540  -30.4280   24.0070 C   0  0  0  0  0  3  0  0  0  0  0  0
  -16.6410  -29.6810   23.5820 C   0  0  0  0  0  3  0  0  0  0  0  0
  -16.8320  -28.4460   22.9380 C   0  0  0  0  0  3  0  0  0  0  0  0
  -25.9660  -32.3680   23.6950 C   0  0  0  0  0  3  0  0  0  0  0  0
  -26.4880  -31.5710   24.9560 C   0  0  1  0  0  0  0  0  0  0  0  0
  -25.3970  -31.3040   26.0190 C   0  0  0  0  0  1  0  0  0  0  0  0
  -27.0810  -30.2080   24.5340 C   0  0  0  0  0  1  0  0  0  0  0  0
  -27.6320  -32.3580   25.6340 C   0  0  0  0  0  1  0  0  0  0  0  0
  -25.6440  -33.7550   24.0660 N   0  0  0  0  0  0  0  0  0  0  0  0
  -25.9720  -34.8360   23.3440 C   0  0  0  0  0  0  0  0  0  0  0  0
  -26.6470  -34.7690   22.3130 O   0  0  0  0  0  0  0  0  0  0  0  0
  -25.0470  -33.8790   24.8700 H   0  0  0  0  0  0  0  0  0  0  0  0
  -24.2330  -36.6300   23.0470 C   0  0  0  0  0  1  0  0  0  0  0  0
  -25.4760  -36.2070   23.8470 C   0  0  0  0  0  3  0  0  0  0  0  0
  -27.6030  -37.0840   24.7060 C   0  0  0  0  0  1  0  0  0  0  0  0
  -26.5010  -37.2700   23.7660 N   0  0  0  0  0  0  0  0  0  0  0  0
  -26.0900  -38.1840   23.9360 H   0  0  0  0  0  0  0  0  0  0  0  0
  1  3  1  0
  2  5  1  0
  3 17  1  0
  3  5  2  0
  4  2  2  0
  5  7  1  0
  6  1  2  0
  6  4  1  0
  8  6  1  0
  9 17  1  0
 10 15  1  0
 11 12  1  0
 11 10  1  0
 13 12  1  0
 13 22  1  0
 13 14  1  0
 15  9  1  0
 15 14  1  0
 16  9  2  0
 17 18  1  0
 19 20  2  0
 20 39  1  0
 21 20  1  0
 21 24  1  0
 22 23  1  0
 22 19  1  0
 23 21  2  0
 24 25  1  0
 25 26  2  0
 27 30  1  0
 27 26  1  0
 28 27  2  0
 29 28  1  0
 29 24  2  0
 30 31  1  0
 31 32  1  0
 32 33  2  0
 34 33  1  0
 34 38  1  0
 35 34  2  0
 36 31  2  0
 36 35  1  0
 37 36  1  0
 39 40  1  0
 40 43  1  0
 40 42  1  0
 41 39  2  0
 44 19  1  0
 44 45  1  0
 46 44  1  0
 47 48  1  0
 48  4  1  0
 48 49  1  0
 50 51  1  0
 50 49  1  0
 52 63  2  0
 53 51  1  0
 53 58  1  0
 54 62  1  0
 54 64  1  0
 55 61  1  0
 55 57  1  0
 56 62  1  0
 57 56  1  0
 58 57  2  0
 59 60  1  0
 59 53  2  0
 60 55  2  0
 61 54  1  0
 62 52  1  0
 64 66  2  0
 65 64  1  0
 67 65  1  0
 68 77  2  0
 68 73  1  0
 69 65  1  0
 69 73  1  0
 70 69  1  0
 71 72  1  0
 71 70  1  0
 72 68  1  0
 73 74  2  0
 74 75  1  0
 76 75  2  0
 77 76  1  0
 78 52  1  0
 78 83  1  0
 78 79  1  0
 79 82  1  1
 79 80  1  0
 81 79  1  0
 83 86  1  0
 84 88  1  0
 84 83  1  0
 85 84  2  0
 88 87  1  0
 90 88  1  0
 90 91  1  0
 90 89  1  0
M  ISO  4   9 100  17 100  50 101  51 101
M  END
>  <TORSDO>  (83) 
F 19

>  <SCORE>  (83) 
-13.018

>  <name>  (83) 
82

>  <ligand_id>  (83) 
82

>  <original_smiles>  (83) 
[H]c1c([H])c([H])c2c(c1[H])C([H])([H])C([H])([H])C([H])([H])C2([H])N([H])C(=O)C1([H])N(C(=O)C([H])(N([H])C(=O)C([H])(N([H])C([H])([H])[H])C([H])([H])[H])C(C([H])([H])[H])(C([H])([H])[H])C([H])([H])[H])C([H])([H])c2c([H])c(OC([H])([H])C([H])([H])N(c3c([H])c(F)c(N([H])C(=O)N4C([H])([H])C([H])([H])C([H])([H])C([H])(n5nc(-c6c([H])c([H])c(Oc7c([H])c([H])c(F)c([H])c7F)c([H])c6[H])c(C(=O)N([H])[H])c5N([H])[H])C4([H])[H])c([H])c3F)C([H])([H])[H])c([H])c([H])c2C1([H])[H]

>  <smiles>  (83) 
[H]c1c([H])c([H])c2c(c1[H])C([H])([H])C([H])([H])C([H])([H])C2([H])N([H])C(=O)C1([H])N(C(=O)C([H])(N([H])C(=O)C([H])(N([H])C([H])([H])[H])C([H])([H])[H])C(C([H])([H])[H])(C([H])([H])[H])C([H])([H])[H])C([H])([H])c2c([H])c(OC([H])([H])C([H])([H])N(c3c([H])c(F)c(N([H])C(=O)N4C([H])([H])C([H])([H])C([H])([H])C([H])(n5nc(-c6c([H])c([H])c(Oc7c([H])c([H])c(F)c([H])c7F)c([H])c6[H])c(C(=O)N([H])[H])c5N([H])[H])C4([H])[H])c([H])c3F)C([H])([H])[H])c([H])c([H])c2C1([H])[H]

$$$$
83:0:0
     RDKit          3D

 93101  0  0  1  0  0  0  0  0999 V2000
  -30.3580  -21.6810   20.1440 C   0  0  0  0  0  2  0  0  0  0  0  0
  -28.9630  -19.4330   20.3480 C   0  0  0  0  0  3  0  0  0  0  0  0
  -31.2720  -17.8560   20.0940 C   0  0  0  0  0  3  0  0  0  0  0  0
  -30.1860  -20.1130   20.1190 C   0  0  0  0  0  0  0  0  0  0  0  0
  -30.0520  -17.1730   20.3430 C   0  0  0  0  0  0  0  0  0  0  0  0
  -31.3350  -19.2780   19.9920 C   0  0  0  0  0  0  0  0  0  0  0  0
  -28.9010  -18.0070   20.4600 C   0  0  0  0  0  0  0  0  0  0  0  0
  -32.5470  -19.8490   19.7870 F   0  0  0  0  0  0  0  0  0  0  0  0
  -27.3660  -17.2800   20.7750 Cl  0  0  0  0  0  0  0  0  0  0  0  0
  -30.6410  -14.6520   20.0130 C   0  0  0  0  0  0  0  0  0  0  0  0
  -30.3310  -12.4540   18.8940 C   0  0  0  0  0  2  0  0  0  0  0  0
  -29.3340  -12.6370   17.7280 C   0  0  0  0  0  2  0  0  0  0  0  0
  -27.8790  -12.4950   18.2190 C   0  0  0  0  0  2  0  0  0  0  0  0
  -27.5970  -13.3200   19.5020 C   0  0  0  0  0  3  0  0  0  0  0  0
  -28.7040  -13.1120   20.5620 C   0  0  0  0  0  2  0  0  0  0  0  0
  -29.9920  -13.4470   19.9340 N   0  0  0  0  0  0  0  0  0  0  0  0
  -31.7830  -14.7870   19.5650 O   0  0  0  0  0  0  0  0  0  0  0  0
  -29.9020  -15.7140   20.4640 N   0  0  0  0  0  0  0  0  0  0  0  0
  -29.0260  -15.4370   20.8810 H   0  0  0  0  0  0  0  0  0  0  0  0
  -25.2380  -13.9310   20.3180 C   0  0  0  0  0  0  0  0  0  0  0  0
  -24.1800  -13.1650   20.7260 C   0  0  0  0  0  0  0  0  0  0  0  0
  -24.6290  -11.8100   20.6650 C   0  0  0  0  0  0  0  0  0  0  0  0
  -26.2660  -13.0450   20.0390 N   0  0  0  0  0  0  0  0  0  0  0  0
  -25.9060  -11.7630   20.3060 N   0  0  0  0  0  0  0  0  0  0  0  0
  -23.8980  -10.5530   20.8710 C   0  0  0  0  0  0  0  0  0  0  0  0
  -24.3160   -9.6040   21.8290 C   0  0  0  0  0  3  0  0  0  0  0  0
  -23.5860   -8.4110   22.0220 C   0  0  0  0  0  3  0  0  0  0  0  0
  -22.4220   -8.1600   21.2560 C   0  0  0  0  0  0  0  0  0  0  0  0
  -22.0230   -9.0980   20.2890 C   0  0  0  0  0  3  0  0  0  0  0  0
  -22.7540  -10.2820   20.0940 C   0  0  0  0  0  3  0  0  0  0  0  0
  -21.6640   -7.0190   21.3580 O   0  0  0  0  0  0  0  0  0  0  0  0
  -21.5400   -6.3400   22.5440 C   0  0  0  0  0  0  0  0  0  0  0  0
  -21.0230   -6.9560   23.7040 C   0  0  0  0  0  3  0  0  0  0  0  0
  -20.8480   -6.2020   24.8830 C   0  0  0  0  0  3  0  0  0  0  0  0
  -21.1790   -4.8350   24.8990 C   0  0  0  0  0  0  0  0  0  0  0  0
  -21.6890   -4.2180   23.7430 C   0  0  0  0  0  3  0  0  0  0  0  0
  -21.8650   -4.9690   22.5670 C   0  0  0  0  0  0  0  0  0  0  0  0
  -22.3360   -4.3650   21.4500 F   0  0  0  0  0  0  0  0  0  0  0  0
  -21.0040   -4.1080   26.0280 F   0  0  0  0  0  0  0  0  0  0  0  0
  -22.8010  -13.6530   21.0610 C   0  0  0  0  0  0  0  0  0  0  0  0
  -22.1090  -12.9650   21.9630 N   0  0  0  0  0  0  0  0  0  0  0  0
  -22.3460  -14.6800   20.5580 O   0  0  0  0  0  0  0  0  0  0  0  0
  -22.4910  -12.1350   22.3910 H   0  0  0  0  0  0  0  0  0  0  0  0
  -21.1850  -13.2740   22.2290 H   0  0  0  0  0  0  0  0  0  0  0  0
  -25.4040  -15.3000   20.1420 N   0  0  0  0  0  0  0  0  0  0  0  0
  -24.6540  -15.9600   20.3180 H   0  0  0  0  0  0  0  0  0  0  0  0
  -26.2560  -15.7460   19.8310 H   0  0  0  0  0  0  0  0  0  0  0  0
  -29.3540  -24.0280   20.0570 C   0  0  0  0  0  0  0  0  0  0  0  0
  -29.2370  -22.6610   19.9280 N   0  0  0  0  0  0  0  0  0  0  0  0
  -30.3970  -24.5280   20.4850 O   0  0  0  0  0  0  0  0  0  0  0  0
  -28.3670  -22.2980   19.5630 H   0  0  0  0  0  0  0  0  0  0  0  0
  -28.1760  -24.9880   19.6320 C   0  0  0  0  0  2  0  0  0  0  0  0
  -28.3650  -26.4400   19.8930 O   0  0  0  0  0  0  0  0  0  0  0  0
  -24.4910  -31.6320   23.0980 C   0  0  0  0  0  0  0  0  0  0  0  0
  -27.2200  -27.2570   19.8770 C   0  0  0  0  0  0  0  0  0  0  0  0
  -23.3180  -30.2490   21.4230 C   0  0  0  0  0  3  0  0  0  0  0  0
  -24.8040  -28.7950   19.9390 C   0  0  0  0  0  0  0  0  0  0  0  0
  -25.8450  -30.6520   21.2320 C   0  0  0  0  0  2  0  0  0  0  0  0
  -25.9630  -29.2990   20.5410 C   0  0  0  0  0  0  0  0  0  0  0  0
  -27.1730  -28.5430   20.5000 C   0  0  0  0  0  3  0  0  0  0  0  0
  -26.0300  -26.8070   19.2540 C   0  0  0  0  0  3  0  0  0  0  0  0
  -24.8390  -27.5530   19.2870 C   0  0  0  0  0  3  0  0  0  0  0  0
  -23.5410  -29.6270   20.0200 C   0  0  0  0  0  2  0  0  0  0  0  0
  -24.5700  -30.8600   21.9740 N   0  0  0  0  0  0  0  0  0  0  0  0
  -23.4030  -31.8580   23.6480 O   0  0  0  0  0  0  0  0  0  0  0  0
  -22.6950  -29.1810   22.3540 C   0  0  0  0  0  0  0  0  0  0  0  0
  -21.3760  -28.9580   22.2210 N   0  0  0  0  0  0  0  0  0  0  0  0
  -23.3970  -28.5580   23.1560 O   0  0  0  0  0  0  0  0  0  0  0  0
  -20.8670  -29.5160   21.5510 H   0  0  0  0  0  0  0  0  0  0  0  0
  -18.0400  -27.6460   22.7050 C   0  0  0  0  0  0  0  0  0  0  0  0
  -20.5920  -27.9710   22.9650 C   0  0  0  0  0  3  0  0  0  0  0  0
  -20.7310  -26.5640   22.3430 C   0  0  0  0  0  2  0  0  0  0  0  0
  -19.6320  -26.2420   21.3260 C   0  0  0  0  0  2  0  0  0  0  0  0
  -18.2510  -26.3250   21.9840 C   0  0  0  0  0  2  0  0  0  0  0  0
  -19.1390  -28.4260   23.1520 C   0  0  0  0  0  0  0  0  0  0  0  0
  -18.8870  -29.6630   23.7850 C   0  0  0  0  0  3  0  0  0  0  0  0
  -17.5690  -30.1190   23.9760 C   0  0  0  0  0  3  0  0  0  0  0  0
  -16.4840  -29.3350   23.5450 C   0  0  0  0  0  3  0  0  0  0  0  0
  -16.7210  -28.1010   22.9150 C   0  0  0  0  0  3  0  0  0  0  0  0
  -25.7580  -32.2840   23.7310 C   0  0  0  0  0  3  0  0  0  0  0  0
  -26.2840  -31.5110   25.0020 C   0  0  1  0  0  0  0  0  0  0  0  0
  -25.1910  -31.2410   26.0620 C   0  0  0  0  0  1  0  0  0  0  0  0
  -26.8960  -30.1500   24.6000 C   0  0  0  0  0  1  0  0  0  0  0  0
  -27.4140  -32.3220   25.6780 C   0  0  0  0  0  1  0  0  0  0  0  0
  -25.4190  -33.6720   24.0740 N   0  0  0  0  0  0  0  0  0  0  0  0
  -25.7120  -34.7380   23.3160 C   0  0  0  0  0  0  0  0  0  0  0  0
  -26.3680  -34.6560   22.2730 O   0  0  0  0  0  0  0  0  0  0  0  0
  -24.8340  -33.8080   24.8860 H   0  0  0  0  0  0  0  0  0  0  0  0
  -23.9270  -36.4820   23.0110 C   0  0  0  0  0  1  0  0  0  0  0  0
  -25.1990  -36.1100   23.7890 C   0  0  0  0  0  3  0  0  0  0  0  0
  -27.3250  -37.0580   24.5740 C   0  0  0  0  0  1  0  0  0  0  0  0
  -26.1990  -37.1930   23.6530 N   0  0  0  0  0  0  0  0  0  0  0  0
  -25.7690  -38.1010   23.8090 H   0  0  0  0  0  0  0  0  0  0  0  0
  2  7  1  0
  3  5  1  0
  4  1  1  0
  4  2  2  0
  5  7  2  0
  5 18  1  0
  6  3  2  0
  6  4  1  0
  7  9  1  0
  8  6  1  0
 10 18  1  0
 11 16  1  0
 12 13  1  0
 12 11  1  0
 14 13  1  0
 14 23  1  0
 14 15  1  0
 16 10  1  0
 16 15  1  0
 17 10  2  0
 18 19  1  0
 20 21  2  0
 21 40  1  0
 22 21  1  0
 22 25  1  0
 23 24  1  0
 23 20  1  0
 24 22  2  0
 25 26  1  0
 26 27  2  0
 28 31  1  0
 28 27  1  0
 29 28  2  0
 30 29  1  0
 30 25  2  0
 31 32  1  0
 32 37  2  0
 32 33  1  0
 33 34  2  0
 34 35  1  0
 35 39  1  0
 36 35  2  0
 37 36  1  0
 38 37  1  0
 40 41  1  0
 41 44  1  0
 41 43  1  0
 42 40  2  0
 45 20  1  0
 45 46  1  0
 47 45  1  0
 48 50  2  0
 49 48  1  0
 49  1  1  0
 51 49  1  0
 52 53  1  0
 52 48  1  0
 54 65  2  0
 55 53  1  0
 55 60  1  0
 56 64  1  0
 56 66  1  0
 57 63  1  0
 57 59  1  0
 58 64  1  0
 59 58  1  0
 60 59  2  0
 61 62  1  0
 61 55  2  0
 62 57  2  0
 63 56  1  0
 64 54  1  0
 66 68  2  0
 67 66  1  0
 69 67  1  0
 70 79  2  0
 70 75  1  0
 71 67  1  0
 71 75  1  0
 72 71  1  0
 73 74  1  0
 73 72  1  0
 74 70  1  0
 75 76  2  0
 76 77  1  0
 78 77  2  0
 79 78  1  0
 80 54  1  0
 80 85  1  0
 80 81  1  0
 81 84  1  1
 81 82  1  0
 83 81  1  0
 85 88  1  0
 86 90  1  0
 86 85  1  0
 87 86  2  0
 90 89  1  0
 92 90  1  0
 92 93  1  0
 92 91  1  0
M  ISO  4  10 100  18 100  52 101  53 101
M  END
>  <TORSDO>  (84) 
F 19

>  <SCORE>  (84) 
-13.425

>  <name>  (84) 
83

>  <ligand_id>  (84) 
83

>  <original_smiles>  (84) 
[H]c1c([H])c([H])c2c(c1[H])C([H])([H])C([H])([H])C([H])([H])C2([H])N([H])C(=O)C1([H])N(C(=O)C([H])(N([H])C(=O)C([H])(N([H])C([H])([H])[H])C([H])([H])[H])C(C([H])([H])[H])(C([H])([H])[H])C([H])([H])[H])C([H])([H])c2c([H])c(OC([H])([H])C(=O)N([H])C([H])([H])c3c([H])c(Cl)c(N([H])C(=O)N4C([H])([H])C([H])([H])C([H])([H])C([H])(n5nc(-c6c([H])c([H])c(Oc7c([H])c([H])c(F)c([H])c7F)c([H])c6[H])c(C(=O)N([H])[H])c5N([H])[H])C4([H])[H])c([H])c3F)c([H])c([H])c2C1([H])[H]

>  <smiles>  (84) 
[H]c1c([H])c([H])c2c(c1[H])C([H])([H])C([H])([H])C([H])([H])C2([H])N([H])C(=O)C1([H])N(C(=O)C([H])(N([H])C(=O)C([H])(N([H])C([H])([H])[H])C([H])([H])[H])C(C([H])([H])[H])(C([H])([H])[H])C([H])([H])[H])C([H])([H])c2c([H])c(OC([H])([H])C(=O)N([H])C([H])([H])c3c([H])c(Cl)c(N([H])C(=O)N4C([H])([H])C([H])([H])C([H])([H])C([H])(n5nc(-c6c([H])c([H])c(Oc7c([H])c([H])c(F)c([H])c7F)c([H])c6[H])c(C(=O)N([H])[H])c5N([H])[H])C4([H])[H])c([H])c3F)c([H])c([H])c2C1([H])[H]

$$$$
84:0:0
     RDKit          3D

 95103  0  0  1  0  0  0  0  0999 V2000
  -30.1150  -18.3680   21.8520 C   0  0  0  0  0  3  0  0  0  0  0  0
  -29.9940  -17.4390   20.7810 C   0  0  0  0  0  0  0  0  0  0  0  0
  -29.4620  -20.3100   20.4440 C   0  0  0  0  0  0  0  0  0  0  0  0
  -29.5460  -17.9610   19.5360 C   0  0  0  0  0  0  0  0  0  0  0  0
  -29.8530  -19.7620   21.6970 C   0  0  0  0  0  0  0  0  0  0  0  0
  -29.3180  -19.3760   19.3770 C   0  0  0  0  0  0  0  0  0  0  0  0
  -29.9570  -20.5630   22.7860 F   0  0  0  0  0  0  0  0  0  0  0  0
  -28.9380  -19.8780   18.1740 F   0  0  0  0  0  0  0  0  0  0  0  0
  -30.8680  -15.0180   20.4820 C   0  0  0  0  0  0  0  0  0  0  0  0
  -30.7080  -12.8070   19.3470 C   0  0  0  0  0  2  0  0  0  0  0  0
  -29.7730  -12.9590   18.1240 C   0  0  0  0  0  2  0  0  0  0  0  0
  -28.2970  -12.7860   18.5390 C   0  0  0  0  0  2  0  0  0  0  0  0
  -27.9260  -13.6230   19.7900 C   0  0  0  0  0  3  0  0  0  0  0  0
  -28.9670  -13.4170   20.9140 C   0  0  0  0  0  2  0  0  0  0  0  0
  -30.2840  -13.7830   20.3710 N   0  0  0  0  0  0  0  0  0  0  0  0
  -32.0060  -15.2310   20.0490 O   0  0  0  0  0  0  0  0  0  0  0  0
  -30.0850  -15.9990   21.0330 N   0  0  0  0  0  0  0  0  0  0  0  0
  -29.2740  -15.6210   21.4960 H   0  0  0  0  0  0  0  0  0  0  0  0
  -25.5390  -14.2330   20.5200 C   0  0  0  0  0  0  0  0  0  0  0  0
  -24.4570  -13.4610   20.8500 C   0  0  0  0  0  0  0  0  0  0  0  0
  -24.8970  -12.1050   20.7600 C   0  0  0  0  0  0  0  0  0  0  0  0
  -26.5700  -13.3450   20.2510 N   0  0  0  0  0  0  0  0  0  0  0  0
  -26.1880  -12.0590   20.4530 N   0  0  0  0  0  0  0  0  0  0  0  0
  -24.1510  -10.8480   20.8900 C   0  0  0  0  0  0  0  0  0  0  0  0
  -24.5340   -9.8550   21.8190 C   0  0  0  0  0  3  0  0  0  0  0  0
  -23.7910   -8.6610   21.9370 C   0  0  0  0  0  3  0  0  0  0  0  0
  -22.6510   -8.4500   21.1250 C   0  0  0  0  0  0  0  0  0  0  0  0
  -22.2890   -9.4300   20.1850 C   0  0  0  0  0  3  0  0  0  0  0  0
  -23.0320  -10.6170   20.0650 C   0  0  0  0  0  3  0  0  0  0  0  0
  -21.8860   -7.3080   21.1500 O   0  0  0  0  0  0  0  0  0  0  0  0
  -21.7590   -6.5550   22.2880 C   0  0  0  0  0  0  0  0  0  0  0  0
  -21.2150   -7.0860   23.4770 C   0  0  0  0  0  3  0  0  0  0  0  0
  -21.0350   -6.2570   24.6020 C   0  0  0  0  0  3  0  0  0  0  0  0
  -21.3890   -4.8960   24.5380 C   0  0  0  0  0  0  0  0  0  0  0  0
  -21.9280   -4.3640   23.3530 C   0  0  0  0  0  3  0  0  0  0  0  0
  -22.1080   -5.1900   22.2310 C   0  0  0  0  0  0  0  0  0  0  0  0
  -22.6060   -4.6680   21.0850 F   0  0  0  0  0  0  0  0  0  0  0  0
  -21.2110   -4.0970   25.6170 F   0  0  0  0  0  0  0  0  0  0  0  0
  -23.0650  -13.9480   21.1350 C   0  0  0  0  0  0  0  0  0  0  0  0
  -22.3270  -13.2360   21.9780 N   0  0  0  0  0  0  0  0  0  0  0  0
  -22.6410  -14.9940   20.6450 O   0  0  0  0  0  0  0  0  0  0  0  0
  -22.6850  -12.3940   22.4060 H   0  0  0  0  0  0  0  0  0  0  0  0
  -21.3910  -13.5410   22.2040 H   0  0  0  0  0  0  0  0  0  0  0  0
  -25.7280  -15.6050   20.4070 N   0  0  0  0  0  0  0  0  0  0  0  0
  -24.9690  -16.2650   20.5280 H   0  0  0  0  0  0  0  0  0  0  0  0
  -26.5800  -16.0400   20.0780 H   0  0  0  0  0  0  0  0  0  0  0  0
  -28.2740  -17.3090   17.6010 C   0  0  0  0  0  1  0  0  0  0  0  0
  -29.3050  -17.0310   18.5420 O   0  0  0  0  0  0  0  0  0  0  0  0
  -29.1690  -21.6970   20.1700 N   0  0  0  0  0  0  0  0  0  0  0  0
  -28.7980  -21.8580   19.2380 H   0  0  0  0  0  0  0  0  0  0  0  0
  -30.9840  -23.0490   21.1780 C   0  0  0  0  0  1  0  0  0  0  0  0
  -29.4610  -22.9150   20.9830 C   0  0  0  0  0  3  0  0  0  0  0  0
  -28.8800  -24.2750   20.3570 C   0  0  0  0  0  2  0  0  0  0  0  0
  -28.8670  -25.6000   21.2420 C   0  0  0  0  0  2  0  0  0  0  0  0
  -28.8670  -26.9260   20.5940 O   0  0  0  0  0  0  0  0  0  0  0  0
  -24.7330  -32.0910   23.4530 C   0  0  0  0  0  0  0  0  0  0  0  0
  -27.6890  -27.6710   20.5610 C   0  0  0  0  0  0  0  0  0  0  0  0
  -23.6660  -30.6290   21.7720 C   0  0  0  0  0  3  0  0  0  0  0  0
  -25.2490  -29.1360   20.4250 C   0  0  0  0  0  0  0  0  0  0  0  0
  -26.1850  -31.0820   21.6820 C   0  0  0  0  0  2  0  0  0  0  0  0
  -26.3610  -29.7010   21.0610 C   0  0  0  0  0  0  0  0  0  0  0  0
  -27.5880  -28.9810   21.1150 C   0  0  0  0  0  3  0  0  0  0  0  0
  -26.5580  -27.1410   19.9090 C   0  0  0  0  0  3  0  0  0  0  0  0
  -25.3470  -27.8620   19.8390 C   0  0  0  0  0  3  0  0  0  0  0  0
  -23.9710  -29.9510   20.4080 C   0  0  0  0  0  2  0  0  0  0  0  0
  -24.8770  -31.2840   22.3620 N   0  0  0  0  0  0  0  0  0  0  0  0
  -23.6160  -32.3180   23.9440 O   0  0  0  0  0  0  0  0  0  0  0  0
  -23.0110  -29.5890   22.7120 C   0  0  0  0  0  0  0  0  0  0  0  0
  -21.7040  -29.3420   22.5210 N   0  0  0  0  0  0  0  0  0  0  0  0
  -23.6810  -29.0050   23.5680 O   0  0  0  0  0  0  0  0  0  0  0  0
  -21.2230  -29.8660   21.8040 H   0  0  0  0  0  0  0  0  0  0  0  0
  -18.3700  -27.9860   22.8760 C   0  0  0  0  0  0  0  0  0  0  0  0
  -20.8990  -28.3700   23.2610 C   0  0  0  0  0  3  0  0  0  0  0  0
  -21.0960  -26.9430   22.6990 C   0  0  0  0  0  2  0  0  0  0  0  0
  -20.0570  -26.5630   21.6390 C   0  0  0  0  0  2  0  0  0  0  0  0
  -18.6410  -26.6440   22.2180 C   0  0  0  0  0  2  0  0  0  0  0  0
  -19.4300  -28.8030   23.3510 C   0  0  0  0  0  0  0  0  0  0  0  0
  -19.1240  -30.0560   23.9250 C   0  0  0  0  0  3  0  0  0  0  0  0
  -17.7900  -30.4940   24.0290 C   0  0  0  0  0  3  0  0  0  0  0  0
  -16.7440  -29.6750   23.5700 C   0  0  0  0  0  3  0  0  0  0  0  0
  -17.0330  -28.4240   22.9980 C   0  0  0  0  0  3  0  0  0  0  0  0
  -25.9570  -32.7850   24.1260 C   0  0  0  0  0  3  0  0  0  0  0  0
  -25.6010  -34.1930   24.3600 N   0  0  0  0  0  0  0  0  0  0  0  0
  -25.9530  -35.2080   23.5600 C   0  0  0  0  0  0  0  0  0  0  0  0
  -26.6810  -35.0630   22.5740 O   0  0  0  0  0  0  0  0  0  0  0  0
  -24.9620  -34.3780   25.1190 H   0  0  0  0  0  0  0  0  0  0  0  0
  -24.2050  -36.9320   23.0150 C   0  0  0  0  0  1  0  0  0  0  0  0
  -25.4120  -36.6080   23.9090 C   0  0  0  0  0  3  0  0  0  0  0  0
  -27.4770  -37.5980   24.7960 C   0  0  0  0  0  1  0  0  0  0  0  0
  -26.4260  -37.6780   23.7850 N   0  0  0  0  0  0  0  0  0  0  0  0
  -25.9920  -38.5950   23.8540 H   0  0  0  0  0  0  0  0  0  0  0  0
  -26.3990  -32.0940   25.4750 C   0  0  1  0  0  0  0  0  0  0  0  0
  -25.2350  -31.8600   26.4660 C   0  0  0  0  0  1  0  0  0  0  0  0
  -27.0650  -30.7280   25.1940 C   0  0  0  0  0  1  0  0  0  0  0  0
  -27.4620  -32.9660   26.1860 C   0  0  0  0  0  1  0  0  0  0  0  0
  2 17  1  0
  2  1  2  0
  3  5  2  0
  4  2  1  0
  5  1  1  0
  5  7  1  0
  6  4  2  0
  6  3  1  0
  8  6  1  0
  9 17  1  0
 10 15  1  0
 11 12  1  0
 11 10  1  0
 13 12  1  0
 13 22  1  0
 13 14  1  0
 15  9  1  0
 15 14  1  0
 16  9  2  0
 17 18  1  0
 19 20  2  0
 20 39  1  0
 21 20  1  0
 21 24  1  0
 22 23  1  0
 22 19  1  0
 23 21  2  0
 24 25  1  0
 25 26  2  0
 27 30  1  0
 27 26  1  0
 28 27  2  0
 29 28  1  0
 29 24  2  0
 30 31  1  0
 31 32  1  0
 32 33  2  0
 34 33  1  0
 34 38  1  0
 35 34  2  0
 36 31  2  0
 36 35  1  0
 37 36  1  0
 39 40  1  0
 40 43  1  0
 40 42  1  0
 41 39  2  0
 44 19  1  0
 44 45  1  0
 46 44  1  0
 47 48  1  0
 48  4  1  0
 49  3  1  0
 49 52  1  0
 50 49  1  0
 52 51  1  0
 53 52  1  0
 53 54  1  0
 55 54  1  0
 56 67  2  0
 57 55  1  0
 57 62  1  0
 58 66  1  0
 58 68  1  0
 59 61  1  0
 60 66  1  0
 61 62  2  0
 61 60  1  0
 63 57  2  0
 64 63  1  0
 64 59  2  0
 65 59  1  0
 65 58  1  0
 66 56  1  0
 68 70  2  0
 69 68  1  0
 71 69  1  0
 72 81  2  0
 72 77  1  0
 73 69  1  0
 73 77  1  0
 74 73  1  0
 75 76  1  0
 75 74  1  0
 76 72  1  0
 77 78  2  0
 78 79  1  0
 80 79  2  0
 81 80  1  0
 82 56  1  0
 82 83  1  0
 82 92  1  0
 83 86  1  0
 84 88  1  0
 84 83  1  0
 85 84  2  0
 88 87  1  0
 90 91  1  0
 90 88  1  0
 90 89  1  0
 92 95  1  1
 92 93  1  0
 94 92  1  0
M  ISO  4   9 100  17 100  54 101  55 101
M  END
>  <TORSDO>  (85) 
F 21

>  <SCORE>  (85) 
-11.603

>  <name>  (85) 
84

>  <ligand_id>  (85) 
84

>  <original_smiles>  (85) 
[H]c1c([H])c([H])c2c(c1[H])C([H])([H])C([H])([H])C([H])([H])C2([H])N([H])C(=O)C1([H])N(C(=O)C([H])(N([H])C(=O)C([H])(N([H])C([H])([H])[H])C([H])([H])[H])C(C([H])([H])[H])(C([H])([H])[H])C([H])([H])[H])C([H])([H])c2c([H])c(OC([H])([H])C([H])([H])C([H])(N([H])c3c(F)c([H])c(N([H])C(=O)N4C([H])([H])C([H])([H])C([H])([H])C([H])(n5nc(-c6c([H])c([H])c(Oc7c([H])c([H])c(F)c([H])c7F)c([H])c6[H])c(C(=O)N([H])[H])c5N([H])[H])C4([H])[H])c(OC([H])([H])[H])c3F)C([H])([H])[H])c([H])c([H])c2C1([H])[H]

>  <smiles>  (85) 
[H]c1c([H])c([H])c2c(c1[H])C([H])([H])C([H])([H])C([H])([H])C2([H])N([H])C(=O)C1([H])N(C(=O)C([H])(N([H])C(=O)C([H])(N([H])C([H])([H])[H])C([H])([H])[H])C(C([H])([H])[H])(C([H])([H])[H])C([H])([H])[H])C([H])([H])c2c([H])c(OC([H])([H])C([H])([H])C([H])(N([H])c3c(F)c([H])c(N([H])C(=O)N4C([H])([H])C([H])([H])C([H])([H])C([H])(n5nc(-c6c([H])c([H])c(Oc7c([H])c([H])c(F)c([H])c7F)c([H])c6[H])c(C(=O)N([H])[H])c5N([H])[H])C4([H])[H])c(OC([H])([H])[H])c3F)C([H])([H])[H])c([H])c([H])c2C1([H])[H]

$$$$
85:0:0
     RDKit          3D

 91 99  0  0  1  0  0  0  0  0999 V2000
  -28.9200  -23.4070   20.2880 C   0  0  0  0  0  0  0  0  0  0  0  0
  -28.4800  -22.0730   20.1000 N   0  0  0  0  0  0  0  0  0  0  0  0
  -30.0660  -23.6340   20.6870 O   0  0  0  0  0  0  0  0  0  0  0  0
  -27.5130  -22.1050   19.8010 H   0  0  0  0  0  0  0  0  0  0  0  0
  -30.2820  -20.0580   20.4200 C   0  0  0  0  0  3  0  0  0  0  0  0
  -30.5710  -18.6180   20.4870 C   0  0  0  0  0  3  0  0  0  0  0  0
  -27.9980  -19.5700   20.1140 C   0  0  0  0  0  3  0  0  0  0  0  0
  -28.9640  -20.6200   20.2310 C   0  0  0  0  0  0  0  0  0  0  0  0
  -29.5680  -17.5840   20.3820 C   0  0  0  0  0  0  0  0  0  0  0  0
  -28.2750  -18.1570   20.1900 C   0  0  0  0  0  0  0  0  0  0  0  0
  -27.2350  -17.2980   20.0710 F   0  0  0  0  0  0  0  0  0  0  0  0
  -30.5100  -14.9630   20.3310 C   0  0  0  0  0  0  0  0  0  0  0  0
  -30.4250  -12.6170   19.3750 C   0  0  0  0  0  2  0  0  0  0  0  0
  -29.4820  -12.5960   18.1490 C   0  0  0  0  0  2  0  0  0  0  0  0
  -28.0160  -12.3860   18.5800 C   0  0  0  0  0  2  0  0  0  0  0  0
  -27.6140  -13.2920   19.7720 C   0  0  0  0  0  3  0  0  0  0  0  0
  -28.6750  -13.2690   20.8940 C   0  0  0  0  0  2  0  0  0  0  0  0
  -29.9520  -13.6870   20.2940 N   0  0  0  0  0  0  0  0  0  0  0  0
  -31.7030  -15.0880   20.0360 O   0  0  0  0  0  0  0  0  0  0  0  0
  -29.6350  -16.0570   20.5100 N   0  0  0  0  0  0  0  0  0  0  0  0
  -28.7070  -15.6950   20.6650 H   0  0  0  0  0  0  0  0  0  0  0  0
  -25.2220  -13.8590   20.5000 C   0  0  0  0  0  0  0  0  0  0  0  0
  -24.1620  -13.0780   20.8700 C   0  0  0  0  0  0  0  0  0  0  0  0
  -24.6370  -11.7310   20.8440 C   0  0  0  0  0  0  0  0  0  0  0  0
  -26.2750  -12.9890   20.2680 N   0  0  0  0  0  0  0  0  0  0  0  0
  -25.9300  -11.7020   20.5400 N   0  0  0  0  0  0  0  0  0  0  0  0
  -23.9190  -10.4650   21.0370 C   0  0  0  0  0  0  0  0  0  0  0  0
  -24.3550   -9.5000   21.9720 C   0  0  0  0  0  3  0  0  0  0  0  0
  -23.6330   -8.3010   22.1520 C   0  0  0  0  0  3  0  0  0  0  0  0
  -22.4600   -8.0580   21.3990 C   0  0  0  0  0  0  0  0  0  0  0  0
  -22.0410   -9.0120   20.4550 C   0  0  0  0  0  3  0  0  0  0  0  0
  -22.7640  -10.2020   20.2720 C   0  0  0  0  0  3  0  0  0  0  0  0
  -21.7110   -6.9100   21.4890 O   0  0  0  0  0  0  0  0  0  0  0  0
  -21.6710   -6.1640   22.6410 C   0  0  0  0  0  0  0  0  0  0  0  0
  -21.2450   -6.7130   23.8690 C   0  0  0  0  0  3  0  0  0  0  0  0
  -21.1540   -5.8950   25.0120 C   0  0  0  0  0  3  0  0  0  0  0  0
  -21.4780   -4.5270   24.9270 C   0  0  0  0  0  0  0  0  0  0  0  0
  -21.8960   -3.9770   23.7040 C   0  0  0  0  0  3  0  0  0  0  0  0
  -21.9900   -4.7940   22.5620 C   0  0  0  0  0  0  0  0  0  0  0  0
  -22.3740   -4.2540   21.3800 F   0  0  0  0  0  0  0  0  0  0  0  0
  -21.3820   -3.7390   26.0230 F   0  0  0  0  0  0  0  0  0  0  0  0
  -22.7610  -13.5480   21.1340 C   0  0  0  0  0  0  0  0  0  0  0  0
  -22.0370  -12.8550   22.0060 N   0  0  0  0  0  0  0  0  0  0  0  0
  -22.3180  -14.5670   20.6060 O   0  0  0  0  0  0  0  0  0  0  0  0
  -22.4090  -12.0330   22.4580 H   0  0  0  0  0  0  0  0  0  0  0  0
  -21.0980  -13.1540   22.2280 H   0  0  0  0  0  0  0  0  0  0  0  0
  -25.3610  -15.2300   20.3230 N   0  0  0  0  0  0  0  0  0  0  0  0
  -24.5760  -15.8570   20.4490 H   0  0  0  0  0  0  0  0  0  0  0  0
  -26.2010  -15.7250   20.0400 H   0  0  0  0  0  0  0  0  0  0  0  0
  -27.9180  -24.6900   19.9720 C   0  0  0  0  0  2  0  0  0  0  0  0
  -28.2470  -26.1880   20.2400 O   0  0  0  0  0  0  0  0  0  0  0  0
  -24.6450  -31.8880   23.2390 C   0  0  0  0  0  0  0  0  0  0  0  0
  -27.1970  -27.1790   20.1790 C   0  0  0  0  0  0  0  0  0  0  0  0
  -23.4310  -30.4950   21.6090 C   0  0  0  0  0  3  0  0  0  0  0  0
  -24.8660  -28.9240   20.1720 C   0  0  0  0  0  0  0  0  0  0  0  0
  -25.9850  -30.7580   21.4260 C   0  0  0  0  0  2  0  0  0  0  0  0
  -26.0520  -29.3670   20.7720 C   0  0  0  0  0  0  0  0  0  0  0  0
  -27.2170  -28.5100   20.7610 C   0  0  0  0  0  3  0  0  0  0  0  0
  -25.9820  -26.8410   19.5390 C   0  0  0  0  0  3  0  0  0  0  0  0
  -24.8440  -27.6730   19.5410 C   0  0  0  0  0  3  0  0  0  0  0  0
  -23.6400  -29.8210   20.2290 C   0  0  0  0  0  2  0  0  0  0  0  0
  -24.7070  -31.0690   22.1470 N   0  0  0  0  0  0  0  0  0  0  0  0
  -23.5630  -32.1750   23.7740 O   0  0  0  0  0  0  0  0  0  0  0  0
  -22.7580  -29.4880   22.5750 C   0  0  0  0  0  0  0  0  0  0  0  0
  -21.4290  -29.3160   22.4540 N   0  0  0  0  0  0  0  0  0  0  0  0
  -23.4330  -28.8630   23.3970 O   0  0  0  0  0  0  0  0  0  0  0  0
  -20.9400  -29.8710   21.7670 H   0  0  0  0  0  0  0  0  0  0  0  0
  -18.0510  -28.1080   22.9660 C   0  0  0  0  0  0  0  0  0  0  0  0
  -20.6090  -28.3810   23.2310 C   0  0  0  0  0  3  0  0  0  0  0  0
  -20.7160  -26.9450   22.6660 C   0  0  0  0  0  2  0  0  0  0  0  0
  -19.6140  -26.6120   21.6540 C   0  0  0  0  0  2  0  0  0  0  0  0
  -18.2330  -26.7560   22.2980 C   0  0  0  0  0  2  0  0  0  0  0  0
  -19.1680  -28.8790   23.3910 C   0  0  0  0  0  0  0  0  0  0  0  0
  -18.9420  -30.1420   23.9770 C   0  0  0  0  0  3  0  0  0  0  0  0
  -17.6350  -30.6370   24.1430 C   0  0  0  0  0  3  0  0  0  0  0  0
  -16.5340  -29.8650   23.7330 C   0  0  0  0  0  3  0  0  0  0  0  0
  -16.7440  -28.6030   23.1500 C   0  0  0  0  0  3  0  0  0  0  0  0
  -25.9280  -32.5210   23.8570 C   0  0  0  0  0  3  0  0  0  0  0  0
  -25.6200  -33.9190   24.1960 N   0  0  0  0  0  0  0  0  0  0  0  0
  -25.9220  -34.9760   23.4320 C   0  0  0  0  0  0  0  0  0  0  0  0
  -26.5590  -34.8760   22.3780 O   0  0  0  0  0  0  0  0  0  0  0  0
  -25.0490  -34.0690   25.0160 H   0  0  0  0  0  0  0  0  0  0  0  0
  -24.1640  -36.7560   23.1570 C   0  0  0  0  0  1  0  0  0  0  0  0
  -25.4470  -36.3620   23.9080 C   0  0  0  0  0  3  0  0  0  0  0  0
  -27.6110  -37.2720   24.6310 C   0  0  0  0  0  1  0  0  0  0  0  0
  -26.4650  -37.4240   23.7400 N   0  0  0  0  0  0  0  0  0  0  0  0
  -26.0570  -38.3420   23.8980 H   0  0  0  0  0  0  0  0  0  0  0  0
  -26.4490  -31.7490   25.1330 C   0  0  1  0  0  0  0  0  0  0  0  0
  -25.3590  -31.5150   26.2060 C   0  0  0  0  0  1  0  0  0  0  0  0
  -27.0240  -30.3670   24.7420 C   0  0  0  0  0  1  0  0  0  0  0  0
  -27.6050  -32.5390   25.7870 C   0  0  0  0  0  1  0  0  0  0  0  0
  1  3  2  0
  2  8  1  0
  2  1  1  0
  4  2  1  0
  5  6  1  0
  7 10  2  0
  7  8  1  0
  8  5  2  0
  9  6  2  0
  9 20  1  0
 10  9  1  0
 11 10  1  0
 12 20  1  0
 13 18  1  0
 14 15  1  0
 14 13  1  0
 16 15  1  0
 16 25  1  0
 16 17  1  0
 18 12  1  0
 18 17  1  0
 19 12  2  0
 20 21  1  0
 22 23  2  0
 23 42  1  0
 24 23  1  0
 24 27  1  0
 25 22  1  0
 25 26  1  0
 26 24  2  0
 27 28  1  0
 28 29  2  0
 30 33  1  0
 30 29  1  0
 31 30  2  0
 32 31  1  0
 32 27  2  0
 33 34  1  0
 34 35  1  0
 35 36  2  0
 37 36  1  0
 37 41  1  0
 38 37  2  0
 39 34  2  0
 39 38  1  0
 40 39  1  0
 42 43  1  0
 43 46  1  0
 43 45  1  0
 44 42  2  0
 47 48  1  0
 47 22  1  0
 49 47  1  0
 50 51  1  0
 50  1  1  0
 52 63  2  0
 53 51  1  0
 53 58  1  0
 54 62  1  0
 54 64  1  0
 55 61  1  0
 55 57  1  0
 56 62  1  0
 57 56  1  0
 58 57  2  0
 59 60  1  0
 59 53  2  0
 60 55  2  0
 61 54  1  0
 62 52  1  0
 64 66  2  0
 65 64  1  0
 67 65  1  0
 68 77  2  0
 68 73  1  0
 69 65  1  0
 69 73  1  0
 70 69  1  0
 71 72  1  0
 71 70  1  0
 72 68  1  0
 73 74  2  0
 74 75  1  0
 76 75  2  0
 77 76  1  0
 78 52  1  0
 78 79  1  0
 78 88  1  0
 79 82  1  0
 80 84  1  0
 80 79  1  0
 81 80  2  0
 84 83  1  0
 86 87  1  0
 86 84  1  0
 86 85  1  0
 88 91  1  1
 88 89  1  0
 90 88  1  0
M  ISO  4  12 100  20 100  50 101  51 101
M  END
>  <TORSDO>  (86) 
F 18

>  <SCORE>  (86) 
-14.879

>  <name>  (86) 
85

>  <ligand_id>  (86) 
85

>  <original_smiles>  (86) 
[H]c1c([H])c([H])c2c(c1[H])C([H])([H])C([H])([H])C([H])([H])C2([H])N([H])C(=O)C1([H])N(C(=O)C([H])(N([H])C(=O)C([H])(N([H])C([H])([H])[H])C([H])([H])[H])C(C([H])([H])[H])(C([H])([H])[H])C([H])([H])[H])C([H])([H])c2c([H])c(OC([H])([H])C(=O)N([H])c3c([H])c([H])c(N([H])C(=O)N4C([H])([H])C([H])([H])C([H])([H])C([H])(n5nc(-c6c([H])c([H])c(Oc7c([H])c([H])c(F)c([H])c7F)c([H])c6[H])c(C(=O)N([H])[H])c5N([H])[H])C4([H])[H])c(F)c3[H])c([H])c([H])c2C1([H])[H]

>  <smiles>  (86) 
[H]c1c([H])c([H])c2c(c1[H])C([H])([H])C([H])([H])C([H])([H])C2([H])N([H])C(=O)C1([H])N(C(=O)C([H])(N([H])C(=O)C([H])(N([H])C([H])([H])[H])C([H])([H])[H])C(C([H])([H])[H])(C([H])([H])[H])C([H])([H])[H])C([H])([H])c2c([H])c(OC([H])([H])C(=O)N([H])c3c([H])c([H])c(N([H])C(=O)N4C([H])([H])C([H])([H])C([H])([H])C([H])(n5nc(-c6c([H])c([H])c(Oc7c([H])c([H])c(F)c([H])c7F)c([H])c6[H])c(C(=O)N([H])[H])c5N([H])[H])C4([H])[H])c(F)c3[H])c([H])c([H])c2C1([H])[H]

$$$$
86:0:0
     RDKit          3D

 92100  0  0  1  0  0  0  0  0999 V2000
  -30.3650  -18.6290   21.0640 C   0  0  0  0  0  3  0  0  0  0  0  0
  -28.3240  -19.6300   19.5020 C   0  0  0  0  0  3  0  0  0  0  0  0
  -29.6150  -17.6100   20.3690 C   0  0  0  0  0  0  0  0  0  0  0  0
  -29.0340  -20.6550   20.2100 C   0  0  0  0  0  0  0  0  0  0  0  0
  -30.0980  -20.0700   20.9940 C   0  0  0  0  0  0  0  0  0  0  0  0
  -28.5850  -18.2090   19.5740 C   0  0  0  0  0  0  0  0  0  0  0  0
  -30.8760  -20.8900   21.7370 F   0  0  0  0  0  0  0  0  0  0  0  0
  -27.5600  -17.1700   18.6510 Cl  0  0  0  0  0  0  0  0  0  0  0  0
  -30.5030  -14.9840   20.3620 C   0  0  0  0  0  0  0  0  0  0  0  0
  -30.4090  -12.6450   19.3920 C   0  0  0  0  0  2  0  0  0  0  0  0
  -29.4670  -12.6350   18.1650 C   0  0  0  0  0  2  0  0  0  0  0  0
  -28.0010  -12.4270   18.5940 C   0  0  0  0  0  2  0  0  0  0  0  0
  -27.6020  -13.3280   19.7920 C   0  0  0  0  0  3  0  0  0  0  0  0
  -28.6630  -13.2950   20.9140 C   0  0  0  0  0  2  0  0  0  0  0  0
  -29.9400  -13.7120   20.3160 N   0  0  0  0  0  0  0  0  0  0  0  0
  -31.6980  -15.1040   20.0690 O   0  0  0  0  0  0  0  0  0  0  0  0
  -29.6410  -16.0860   20.5630 N   0  0  0  0  0  0  0  0  0  0  0  0
  -28.7060  -15.7290   20.6820 H   0  0  0  0  0  0  0  0  0  0  0  0
  -25.2170  -13.9070   20.5260 C   0  0  0  0  0  0  0  0  0  0  0  0
  -24.1530  -13.1300   20.8940 C   0  0  0  0  0  0  0  0  0  0  0  0
  -24.6190  -11.7800   20.8590 C   0  0  0  0  0  0  0  0  0  0  0  0
  -26.2610  -13.0300   20.2840 N   0  0  0  0  0  0  0  0  0  0  0  0
  -25.9100  -11.7460   20.5510 N   0  0  0  0  0  0  0  0  0  0  0  0
  -23.8930  -10.5170   21.0450 C   0  0  0  0  0  0  0  0  0  0  0  0
  -24.3220   -9.5490   21.9800 C   0  0  0  0  0  3  0  0  0  0  0  0
  -23.5950   -8.3510   22.1540 C   0  0  0  0  0  3  0  0  0  0  0  0
  -22.4260   -8.1140   21.3930 C   0  0  0  0  0  0  0  0  0  0  0  0
  -22.0170   -9.0700   20.4470 C   0  0  0  0  0  3  0  0  0  0  0  0
  -22.7440  -10.2600   20.2710 C   0  0  0  0  0  3  0  0  0  0  0  0
  -21.6710   -6.9690   21.4760 O   0  0  0  0  0  0  0  0  0  0  0  0
  -21.6100   -6.2300   22.6300 C   0  0  0  0  0  0  0  0  0  0  0  0
  -21.1550   -6.7830   23.8460 C   0  0  0  0  0  3  0  0  0  0  0  0
  -21.0430   -5.9690   24.9920 C   0  0  0  0  0  3  0  0  0  0  0  0
  -21.3750   -4.6030   24.9200 C   0  0  0  0  0  0  0  0  0  0  0  0
  -21.8230   -4.0490   23.7090 C   0  0  0  0  0  3  0  0  0  0  0  0
  -21.9370   -4.8600   22.5650 C   0  0  0  0  0  0  0  0  0  0  0  0
  -22.3490   -4.3160   21.3950 F   0  0  0  0  0  0  0  0  0  0  0  0
  -21.2600   -3.8190   26.0180 F   0  0  0  0  0  0  0  0  0  0  0  0
  -22.7550  -13.6070   21.1610 C   0  0  0  0  0  0  0  0  0  0  0  0
  -22.0270  -12.9130   22.0290 N   0  0  0  0  0  0  0  0  0  0  0  0
  -22.3150  -14.6280   20.6340 O   0  0  0  0  0  0  0  0  0  0  0  0
  -22.3950  -12.0880   22.4780 H   0  0  0  0  0  0  0  0  0  0  0  0
  -21.0890  -13.2140   22.2500 H   0  0  0  0  0  0  0  0  0  0  0  0
  -25.3720  -15.2770   20.3510 N   0  0  0  0  0  0  0  0  0  0  0  0
  -24.5830  -15.9080   20.4350 H   0  0  0  0  0  0  0  0  0  0  0  0
  -26.1700  -15.7110   19.9020 H   0  0  0  0  0  0  0  0  0  0  0  0
  -28.9040  -23.4320   20.4520 C   0  0  0  0  0  0  0  0  0  0  0  0
  -28.5560  -22.1110   20.0690 N   0  0  0  0  0  0  0  0  0  0  0  0
  -29.9330  -23.6480   21.0950 O   0  0  0  0  0  0  0  0  0  0  0  0
  -27.7070  -22.1580   19.5230 H   0  0  0  0  0  0  0  0  0  0  0  0
  -27.9470  -24.7240   20.0480 C   0  0  0  0  0  2  0  0  0  0  0  0
  -28.2620  -26.2150   20.3670 O   0  0  0  0  0  0  0  0  0  0  0  0
  -24.6420  -31.9310   23.3010 C   0  0  0  0  0  0  0  0  0  0  0  0
  -27.2190  -27.2120   20.2820 C   0  0  0  0  0  0  0  0  0  0  0  0
  -23.4460  -30.5410   21.6560 C   0  0  0  0  0  3  0  0  0  0  0  0
  -24.8960  -28.9640   20.2380 C   0  0  0  0  0  0  0  0  0  0  0  0
  -26.0020  -30.7950   21.5060 C   0  0  0  0  0  2  0  0  0  0  0  0
  -26.0740  -29.4040   20.8550 C   0  0  0  0  0  0  0  0  0  0  0  0
  -27.2360  -28.5430   20.8620 C   0  0  0  0  0  3  0  0  0  0  0  0
  -26.0150  -26.8780   19.6190 C   0  0  0  0  0  3  0  0  0  0  0  0
  -24.8790  -27.7140   19.6050 C   0  0  0  0  0  3  0  0  0  0  0  0
  -23.6720  -29.8640   20.2790 C   0  0  0  0  0  2  0  0  0  0  0  0
  -24.7170  -31.1100   22.2090 N   0  0  0  0  0  0  0  0  0  0  0  0
  -23.5550  -32.2210   23.8220 O   0  0  0  0  0  0  0  0  0  0  0  0
  -22.7580  -29.5360   22.6140 C   0  0  0  0  0  0  0  0  0  0  0  0
  -21.4300  -29.3690   22.4790 N   0  0  0  0  0  0  0  0  0  0  0  0
  -23.4210  -28.9080   23.4430 O   0  0  0  0  0  0  0  0  0  0  0  0
  -20.9510  -29.9240   21.7840 H   0  0  0  0  0  0  0  0  0  0  0  0
  -18.0400  -28.1860   22.9630 C   0  0  0  0  0  0  0  0  0  0  0  0
  -20.5990  -28.4370   23.2450 C   0  0  0  0  0  3  0  0  0  0  0  0
  -20.6970  -27.0030   22.6750 C   0  0  0  0  0  2  0  0  0  0  0  0
  -19.6000  -26.6830   21.6540 C   0  0  0  0  0  2  0  0  0  0  0  0
  -18.2150  -26.8350   22.2900 C   0  0  0  0  0  2  0  0  0  0  0  0
  -19.1590  -28.9450   23.3980 C   0  0  0  0  0  0  0  0  0  0  0  0
  -18.9410  -30.2090   23.9880 C   0  0  0  0  0  3  0  0  0  0  0  0
  -17.6360  -30.7130   24.1480 C   0  0  0  0  0  3  0  0  0  0  0  0
  -16.5320  -29.9510   23.7290 C   0  0  0  0  0  3  0  0  0  0  0  0
  -16.7340  -28.6900   23.1420 C   0  0  0  0  0  3  0  0  0  0  0  0
  -25.9200  -32.5610   23.9330 C   0  0  0  0  0  3  0  0  0  0  0  0
  -25.6150  -33.9640   24.2570 N   0  0  0  0  0  0  0  0  0  0  0  0
  -25.9310  -35.0120   23.4840 C   0  0  0  0  0  0  0  0  0  0  0  0
  -26.5760  -34.9000   22.4390 O   0  0  0  0  0  0  0  0  0  0  0  0
  -25.0370  -34.1250   25.0680 H   0  0  0  0  0  0  0  0  0  0  0  0
  -24.1800  -36.7950   23.1780 C   0  0  0  0  0  1  0  0  0  0  0  0
  -25.4560  -36.4050   23.9420 C   0  0  0  0  0  3  0  0  0  0  0  0
  -27.6160  -37.3150   24.6770 C   0  0  0  0  0  1  0  0  0  0  0  0
  -26.4780  -37.4610   23.7730 N   0  0  0  0  0  0  0  0  0  0  0  0
  -26.0720  -38.3820   23.9200 H   0  0  0  0  0  0  0  0  0  0  0  0
  -26.4140  -31.7960   25.2240 C   0  0  1  0  0  0  0  0  0  0  0  0
  -25.3060  -31.5760   26.2800 C   0  0  0  0  0  1  0  0  0  0  0  0
  -26.9910  -30.4100   24.8540 C   0  0  0  0  0  1  0  0  0  0  0  0
  -27.5640  -32.5870   25.8930 C   0  0  0  0  0  1  0  0  0  0  0  0
  2  6  2  0
  2  4  1  0
  3 17  1  0
  3  1  2  0
  4  5  2  0
  5  1  1  0
  5  7  1  0
  6  3  1  0
  8  6  1  0
  9 17  1  0
 10 15  1  0
 11 12  1  0
 11 10  1  0
 13 12  1  0
 13 22  1  0
 13 14  1  0
 15  9  1  0
 15 14  1  0
 16  9  2  0
 17 18  1  0
 19 20  2  0
 20 39  1  0
 21 20  1  0
 21 24  1  0
 22 19  1  0
 22 23  1  0
 23 21  2  0
 24 25  1  0
 25 26  2  0
 27 30  1  0
 27 26  1  0
 28 27  2  0
 29 28  1  0
 29 24  2  0
 30 31  1  0
 31 32  1  0
 32 33  2  0
 34 33  1  0
 34 38  1  0
 35 34  2  0
 36 31  2  0
 36 35  1  0
 37 36  1  0
 39 40  1  0
 40 43  1  0
 40 42  1  0
 41 39  2  0
 44 45  1  0
 44 19  1  0
 46 44  1  0
 47 49  2  0
 48  4  1  0
 48 47  1  0
 50 48  1  0
 51 52  1  0
 51 47  1  0
 53 64  2  0
 54 52  1  0
 54 59  1  0
 55 63  1  0
 55 65  1  0
 56 62  1  0
 56 58  1  0
 57 63  1  0
 58 59  2  0
 58 57  1  0
 60 54  2  0
 61 60  1  0
 61 56  2  0
 62 55  1  0
 63 53  1  0
 65 67  2  0
 66 65  1  0
 68 66  1  0
 69 78  2  0
 69 74  1  0
 70 66  1  0
 70 74  1  0
 71 70  1  0
 72 73  1  0
 72 71  1  0
 73 69  1  0
 74 75  2  0
 75 76  1  0
 77 76  2  0
 78 77  1  0
 79 53  1  0
 79 80  1  0
 79 89  1  0
 80 83  1  0
 81 85  1  0
 81 80  1  0
 82 81  2  0
 85 84  1  0
 87 88  1  0
 87 85  1  0
 87 86  1  0
 89 92  1  1
 89 90  1  0
 91 89  1  0
M  ISO  4   9 100  17 100  51 101  52 101
M  END
>  <TORSDO>  (87) 
F 18

>  <SCORE>  (87) 
-14.892

>  <name>  (87) 
86

>  <ligand_id>  (87) 
86

>  <original_smiles>  (87) 
[H]c1c([H])c([H])c2c(c1[H])C([H])([H])C([H])([H])C([H])([H])C2([H])N([H])C(=O)C1([H])N(C(=O)C([H])(N([H])C(=O)C([H])(N([H])C([H])([H])[H])C([H])([H])[H])C(C([H])([H])[H])(C([H])([H])[H])C([H])([H])[H])C([H])([H])c2c([H])c(OC([H])([H])C(=O)N([H])c3c([H])c(Cl)c(N([H])C(=O)N4C([H])([H])C([H])([H])C([H])([H])C([H])(n5nc(-c6c([H])c([H])c(Oc7c([H])c([H])c(F)c([H])c7F)c([H])c6[H])c(C(=O)N([H])[H])c5N([H])[H])C4([H])[H])c([H])c3F)c([H])c([H])c2C1([H])[H]

>  <smiles>  (87) 
[H]c1c([H])c([H])c2c(c1[H])C([H])([H])C([H])([H])C([H])([H])C2([H])N([H])C(=O)C1([H])N(C(=O)C([H])(N([H])C(=O)C([H])(N([H])C([H])([H])[H])C([H])([H])[H])C(C([H])([H])[H])(C([H])([H])[H])C([H])([H])[H])C([H])([H])c2c([H])c(OC([H])([H])C(=O)N([H])c3c([H])c(Cl)c(N([H])C(=O)N4C([H])([H])C([H])([H])C([H])([H])C([H])(n5nc(-c6c([H])c([H])c(Oc7c([H])c([H])c(F)c([H])c7F)c([H])c6[H])c(C(=O)N([H])[H])c5N([H])[H])C4([H])[H])c([H])c3F)c([H])c([H])c2C1([H])[H]

$$$$
87:0:0
     RDKit          3D

 92100  0  0  1  0  0  0  0  0999 V2000
  -31.2450  -18.0260   21.3580 C   0  0  0  0  0  3  0  0  0  0  0  0
  -30.3580  -20.5990   20.8790 C   0  0  0  0  0  3  0  0  0  0  0  0
  -30.0540  -18.1060   20.5760 C   0  0  0  0  0  0  0  0  0  0  0  0
  -29.5420  -19.5580   20.3600 C   0  0  0  0  0  0  0  0  0  0  0  0
  -31.9750  -19.1140   21.8460 C   0  0  0  0  0  0  0  0  0  0  0  0
  -31.5370  -20.4050   21.5940 C   0  0  0  0  0  0  0  0  0  0  0  0
  -33.0980  -18.9060   22.5750 F   0  0  0  0  0  0  0  0  0  0  0  0
  -32.2320  -21.4680   22.0600 F   0  0  0  0  0  0  0  0  0  0  0  0
  -30.3740  -15.4100   20.2090 C   0  0  0  0  0  0  0  0  0  0  0  0
  -30.3890  -12.9730   19.4510 C   0  0  0  0  0  2  0  0  0  0  0  0
  -29.4780  -12.7240   18.2280 C   0  0  0  0  0  2  0  0  0  0  0  0
  -28.0350  -12.4400   18.6810 C   0  0  0  0  0  2  0  0  0  0  0  0
  -27.5510  -13.4310   19.7720 C   0  0  0  0  0  3  0  0  0  0  0  0
  -28.5970  -13.6500   20.8860 C   0  0  0  0  0  2  0  0  0  0  0  0
  -29.8180  -14.1220   20.2220 N   0  0  0  0  0  0  0  0  0  0  0  0
  -31.5810  -15.4430   19.9430 O   0  0  0  0  0  0  0  0  0  0  0  0
  -29.6100  -16.6460   20.2520 N   0  0  0  0  0  0  0  0  0  0  0  0
  -28.6130  -16.5170   20.1800 H   0  0  0  0  0  0  0  0  0  0  0  0
  -25.1800  -13.9090   20.5920 C   0  0  0  0  0  0  0  0  0  0  0  0
  -24.1490  -13.0900   20.9590 C   0  0  0  0  0  0  0  0  0  0  0  0
  -24.6510  -11.7550   20.8770 C   0  0  0  0  0  0  0  0  0  0  0  0
  -26.2420  -13.0710   20.2990 N   0  0  0  0  0  0  0  0  0  0  0  0
  -25.9360  -11.7670   20.5360 N   0  0  0  0  0  0  0  0  0  0  0  0
  -23.9640  -10.4670   21.0410 C   0  0  0  0  0  0  0  0  0  0  0  0
  -24.3890   -9.5200   21.9980 C   0  0  0  0  0  3  0  0  0  0  0  0
  -23.6970   -8.2980   22.1520 C   0  0  0  0  0  3  0  0  0  0  0  0
  -22.5670   -8.0150   21.3470 C   0  0  0  0  0  0  0  0  0  0  0  0
  -22.1620   -8.9540   20.3810 C   0  0  0  0  0  3  0  0  0  0  0  0
  -22.8550  -10.1650   20.2260 C   0  0  0  0  0  3  0  0  0  0  0  0
  -21.8480   -6.8460   21.4110 O   0  0  0  0  0  0  0  0  0  0  0  0
  -21.7050   -6.1530   22.5850 C   0  0  0  0  0  0  0  0  0  0  0  0
  -21.0630   -6.7160   23.7110 C   0  0  0  0  0  3  0  0  0  0  0  0
  -20.8750   -5.9430   24.8730 C   0  0  0  0  0  3  0  0  0  0  0  0
  -21.3180   -4.6070   24.9110 C   0  0  0  0  0  0  0  0  0  0  0  0
  -21.9520   -4.0430   23.7900 C   0  0  0  0  0  3  0  0  0  0  0  0
  -22.1410   -4.8140   22.6300 C   0  0  0  0  0  0  0  0  0  0  0  0
  -22.7350   -4.2590   21.5460 F   0  0  0  0  0  0  0  0  0  0  0  0
  -21.1290   -3.8620   26.0250 F   0  0  0  0  0  0  0  0  0  0  0  0
  -22.7450  -13.5190   21.2710 C   0  0  0  0  0  0  0  0  0  0  0  0
  -22.0510  -12.7730   22.1210 N   0  0  0  0  0  0  0  0  0  0  0  0
  -22.2740  -14.5530   20.7980 O   0  0  0  0  0  0  0  0  0  0  0  0
  -22.4470  -11.9380   22.5270 H   0  0  0  0  0  0  0  0  0  0  0  0
  -21.1090  -13.0400   22.3720 H   0  0  0  0  0  0  0  0  0  0  0  0
  -25.2980  -15.2870   20.4520 N   0  0  0  0  0  0  0  0  0  0  0  0
  -24.5080  -15.9070   20.5980 H   0  0  0  0  0  0  0  0  0  0  0  0
  -26.1100  -15.7630   20.0840 H   0  0  0  0  0  0  0  0  0  0  0  0
  -27.5140  -19.2420   19.1220 C   0  0  0  0  0  1  0  0  0  0  0  0
  -28.3560  -20.2400   19.7710 N   0  0  0  0  0  0  0  0  0  0  0  0
  -28.1810  -21.7400   19.2170 C   0  0  0  0  0  3  0  0  0  0  0  0
  -28.0420  -23.2600   20.0150 C   0  0  0  0  0  3  0  0  0  0  0  0
  -27.4490  -24.7340   19.3310 C   0  0  0  0  0  2  0  0  0  0  0  0
  -27.6830  -26.2700   19.6770 O   0  0  0  0  0  0  0  0  0  0  0  0
  -24.4420  -31.9510   23.1840 C   0  0  0  0  0  0  0  0  0  0  0  0
  -26.6630  -27.3150   19.7090 C   0  0  0  0  0  0  0  0  0  0  0  0
  -23.0860  -30.6550   21.5860 C   0  0  0  0  0  3  0  0  0  0  0  0
  -24.3830  -29.1360   19.9580 C   0  0  0  0  0  0  0  0  0  0  0  0
  -25.6250  -30.8790   21.2270 C   0  0  0  0  0  2  0  0  0  0  0  0
  -25.6170  -29.5160   20.4990 C   0  0  0  0  0  0  0  0  0  0  0  0
  -26.7520  -28.6180   20.3660 C   0  0  0  0  0  3  0  0  0  0  0  0
  -25.4070  -27.0720   19.1080 C   0  0  0  0  0  3  0  0  0  0  0  0
  -24.2950  -27.9320   19.2450 C   0  0  0  0  0  3  0  0  0  0  0  0
  -23.1820  -30.0500   20.1590 C   0  0  0  0  0  2  0  0  0  0  0  0
  -24.4090  -31.1820   22.0520 N   0  0  0  0  0  0  0  0  0  0  0  0
  -23.4090  -32.2230   23.8140 O   0  0  0  0  0  0  0  0  0  0  0  0
  -22.4720  -29.6120   22.5540 C   0  0  0  0  0  0  0  0  0  0  0  0
  -21.1570  -29.3610   22.4320 N   0  0  0  0  0  0  0  0  0  0  0  0
  -23.1840  -29.0330   23.3810 O   0  0  0  0  0  0  0  0  0  0  0  0
  -20.6380  -29.8700   21.7310 H   0  0  0  0  0  0  0  0  0  0  0  0
  -17.8920  -27.8500   22.8630 C   0  0  0  0  0  0  0  0  0  0  0  0
  -20.4000  -28.3740   23.2090 C   0  0  0  0  0  3  0  0  0  0  0  0
  -20.6630  -26.9410   22.6890 C   0  0  0  0  0  2  0  0  0  0  0  0
  -19.6350  -26.4770   21.6530 C   0  0  0  0  0  2  0  0  0  0  0  0
  -18.2250  -26.5030   22.2470 C   0  0  0  0  0  2  0  0  0  0  0  0
  -18.9110  -28.7340   23.3030 C   0  0  0  0  0  0  0  0  0  0  0  0
  -18.5460  -29.9840   23.8450 C   0  0  0  0  0  3  0  0  0  0  0  0
  -17.1920  -30.3560   23.9470 C   0  0  0  0  0  3  0  0  0  0  0  0
  -16.1870  -29.4720   23.5190 C   0  0  0  0  0  3  0  0  0  0  0  0
  -16.5370  -28.2210   22.9830 C   0  0  0  0  0  3  0  0  0  0  0  0
  -25.7770  -32.5420   23.7320 C   0  0  0  0  0  3  0  0  0  0  0  0
  -26.3480  -31.7420   24.9680 C   0  0  1  0  0  0  0  0  0  0  0  0
  -25.3110  -31.5100   26.0930 C   0  0  0  0  0  1  0  0  0  0  0  0
  -26.8780  -30.3570   24.5320 C   0  0  0  0  0  1  0  0  0  0  0  0
  -27.5510  -32.5010   25.5730 C   0  0  0  0  0  1  0  0  0  0  0  0
  -25.5290  -33.9460   24.1050 N   0  0  0  0  0  0  0  0  0  0  0  0
  -25.8720  -35.0060   23.3620 C   0  0  0  0  0  0  0  0  0  0  0  0
  -26.4960  -34.9030   22.3020 O   0  0  0  0  0  0  0  0  0  0  0  0
  -24.9730  -34.1010   24.9330 H   0  0  0  0  0  0  0  0  0  0  0  0
  -24.2180  -36.8860   23.1060 C   0  0  0  0  0  1  0  0  0  0  0  0
  -25.4600  -36.4020   23.8720 C   0  0  0  0  0  3  0  0  0  0  0  0
  -27.6420  -37.1780   24.6890 C   0  0  0  0  0  1  0  0  0  0  0  0
  -26.5360  -37.4110   23.7640 N   0  0  0  0  0  0  0  0  0  0  0  0
  -26.1720  -38.3450   23.9320 H   0  0  0  0  0  0  0  0  0  0  0  0
  1  5  1  0
  2  6  1  0
  3  1  2  0
  4  3  1  0
  4  2  2  0
  5  7  1  0
  6  5  2  0
  6  8  1  0
  9 15  1  0
  9 17  1  0
 10 15  1  0
 11 12  1  0
 11 10  1  0
 13 12  1  0
 13 22  1  0
 13 14  1  0
 15 14  1  0
 16  9  2  0
 17  3  1  0
 18 17  1  0
 19 20  2  0
 20 39  1  0
 21 20  1  0
 21 24  1  0
 22 23  1  0
 22 19  1  0
 23 21  2  0
 24 25  1  0
 25 26  2  0
 27 30  1  0
 27 26  1  0
 28 27  2  0
 29 28  1  0
 29 24  2  0
 30 31  1  0
 31 36  2  0
 31 32  1  0
 32 33  2  0
 33 34  1  0
 34 38  1  0
 35 34  2  0
 36 35  1  0
 37 36  1  0
 39 40  1  0
 40 43  1  0
 40 42  1  0
 41 39  2  0
 44 19  1  0
 44 45  1  0
 46 44  1  0
 47 48  1  0
 48  4  1  0
 49 48  1  0
 49 50  2  0
 51 52  1  0
 51 50  1  0
 52 54  1  0
 53 64  2  0
 54 59  1  0
 55 63  1  0
 55 65  1  0
 56 62  1  0
 56 58  1  0
 57 63  1  0
 58 57  1  0
 59 58  2  0
 60 61  1  0
 60 54  2  0
 61 56  2  0
 62 55  1  0
 63 53  1  0
 65 67  2  0
 66 65  1  0
 68 66  1  0
 69 78  2  0
 69 74  1  0
 70 66  1  0
 70 74  1  0
 71 70  1  0
 72 73  1  0
 72 71  1  0
 73 69  1  0
 74 75  2  0
 75 76  1  0
 77 76  2  0
 78 77  1  0
 79 53  1  0
 79 84  1  0
 79 80  1  0
 80 83  1  1
 80 81  1  0
 82 80  1  0
 84 87  1  0
 85 89  1  0
 85 84  1  0
 86 85  2  0
 89 88  1  0
 91 89  1  0
 91 92  1  0
 91 90  1  0
M  ISO  4   9 100  17 100  51 101  52 101
M  END
>  <TORSDO>  (88) 
F 20

>  <SCORE>  (88) 
-14.745

>  <name>  (88) 
87

>  <ligand_id>  (88) 
87

>  <original_smiles>  (88) 
[H]c1c([H])c([H])c2c(c1[H])C([H])([H])C([H])([H])C([H])([H])C2([H])N([H])C(=O)C1([H])N(C(=O)C([H])(N([H])C(=O)C([H])(N([H])C([H])([H])[H])C([H])([H])[H])C(C([H])([H])[H])(C([H])([H])[H])C([H])([H])[H])C([H])([H])c2c([H])c(OC([H])([H])C([H])([H])C([H])([H])N(c3c([H])c(F)c(F)c([H])c3N([H])C(=O)N3C([H])([H])C([H])([H])C([H])([H])C([H])(n4nc(-c5c([H])c([H])c(Oc6c([H])c([H])c(F)c([H])c6F)c([H])c5[H])c(C(=O)N([H])[H])c4N([H])[H])C3([H])[H])C([H])([H])[H])c([H])c([H])c2C1([H])[H]

>  <smiles>  (88) 
[H]c1c([H])c([H])c2c(c1[H])C([H])([H])C([H])([H])C([H])([H])C2([H])N([H])C(=O)C1([H])N(C(=O)C([H])(N([H])C(=O)C([H])(N([H])C([H])([H])[H])C([H])([H])[H])C(C([H])([H])[H])(C([H])([H])[H])C([H])([H])[H])C([H])([H])c2c([H])c(OC([H])([H])C([H])([H])C([H])([H])N(c3c([H])c(F)c(F)c([H])c3N([H])C(=O)N3C([H])([H])C([H])([H])C([H])([H])C([H])(n4nc(-c5c([H])c([H])c(Oc6c([H])c([H])c(F)c([H])c6F)c([H])c5[H])c(C(=O)N([H])[H])c4N([H])[H])C3([H])[H])C([H])([H])[H])c([H])c([H])c2C1([H])[H]

$$$$
88:0:0
     RDKit          3D

 94102  0  0  1  0  0  0  0  0999 V2000
  -29.0010  -23.4300   20.1530 C   0  0  0  0  0  0  0  0  0  0  0  0
  -28.6500  -22.0030   20.2000 N   0  0  0  0  0  0  0  0  0  0  0  0
  -30.1890  -23.7420   20.0460 O   0  0  0  0  0  0  0  0  0  0  0  0
  -31.3000  -18.4480   21.2440 C   0  0  0  0  0  3  0  0  0  0  0  0
  -31.5640  -19.7940   21.5810 C   0  0  0  0  0  3  0  0  0  0  0  0
  -30.1470  -18.0720   20.5280 C   0  0  0  0  0  0  0  0  0  0  0  0
  -29.5430  -20.7190   20.4590 C   0  0  0  0  0  0  0  0  0  0  0  0
  -30.7170  -20.8770   21.2420 C   0  0  0  0  0  0  0  0  0  0  0  0
  -29.3030  -19.2540   20.1260 C   0  0  0  0  0  0  0  0  0  0  0  0
  -31.0380  -22.0810   21.7690 F   0  0  0  0  0  0  0  0  0  0  0  0
  -28.2190  -18.9410   19.3780 F   0  0  0  0  0  0  0  0  0  0  0  0
  -30.6880  -15.3470   20.2970 C   0  0  0  0  0  0  0  0  0  0  0  0
  -30.6190  -12.9650   19.3750 C   0  0  0  0  0  2  0  0  0  0  0  0
  -29.6800  -12.8570   18.1520 C   0  0  0  0  0  2  0  0  0  0  0  0
  -28.2400  -12.5760   18.6160 C   0  0  0  0  0  2  0  0  0  0  0  0
  -27.8020  -13.5280   19.7570 C   0  0  0  0  0  3  0  0  0  0  0  0
  -28.8610  -13.6300   20.8760 C   0  0  0  0  0  2  0  0  0  0  0  0
  -30.1080  -14.0740   20.2390 N   0  0  0  0  0  0  0  0  0  0  0  0
  -31.9030  -15.3940   20.0690 O   0  0  0  0  0  0  0  0  0  0  0  0
  -29.8880  -16.5460   20.3420 N   0  0  0  0  0  0  0  0  0  0  0  0
  -28.9050  -16.3310   20.2800 H   0  0  0  0  0  0  0  0  0  0  0  0
  -25.4330  -14.0650   20.5450 C   0  0  0  0  0  0  0  0  0  0  0  0
  -24.3810  -13.2720   20.9150 C   0  0  0  0  0  0  0  0  0  0  0  0
  -24.8620  -11.9280   20.8570 C   0  0  0  0  0  0  0  0  0  0  0  0
  -26.4790  -13.2030   20.2740 N   0  0  0  0  0  0  0  0  0  0  0  0
  -26.1480  -11.9110   20.5290 N   0  0  0  0  0  0  0  0  0  0  0  0
  -24.1510  -10.6550   21.0330 C   0  0  0  0  0  0  0  0  0  0  0  0
  -24.5700   -9.7000   21.9860 C   0  0  0  0  0  3  0  0  0  0  0  0
  -23.8570   -8.4920   22.1490 C   0  0  0  0  0  3  0  0  0  0  0  0
  -22.7130   -8.2300   21.3580 C   0  0  0  0  0  0  0  0  0  0  0  0
  -22.3160   -9.1730   20.3940 C   0  0  0  0  0  3  0  0  0  0  0  0
  -23.0280  -10.3720   20.2300 C   0  0  0  0  0  3  0  0  0  0  0  0
  -21.9750   -7.0740   21.4290 O   0  0  0  0  0  0  0  0  0  0  0  0
  -21.8600   -6.3660   22.5970 C   0  0  0  0  0  0  0  0  0  0  0  0
  -21.3010   -6.9340   23.7620 C   0  0  0  0  0  3  0  0  0  0  0  0
  -21.1360   -6.1490   24.9200 C   0  0  0  0  0  3  0  0  0  0  0  0
  -21.5210   -4.7950   24.9160 C   0  0  0  0  0  0  0  0  0  0  0  0
  -22.0740   -4.2250   23.7550 C   0  0  0  0  0  3  0  0  0  0  0  0
  -22.2400   -5.0080   22.5980 C   0  0  0  0  0  0  0  0  0  0  0  0
  -22.7530   -4.4480   21.4770 F   0  0  0  0  0  0  0  0  0  0  0  0
  -21.3580   -4.0380   26.0250 F   0  0  0  0  0  0  0  0  0  0  0  0
  -22.9840  -13.7310   21.2070 C   0  0  0  0  0  0  0  0  0  0  0  0
  -22.2740  -13.0170   22.0730 N   0  0  0  0  0  0  0  0  0  0  0  0
  -22.5300  -14.7600   20.7070 O   0  0  0  0  0  0  0  0  0  0  0  0
  -22.6510  -12.1840   22.5000 H   0  0  0  0  0  0  0  0  0  0  0  0
  -21.3380  -13.3120   22.3140 H   0  0  0  0  0  0  0  0  0  0  0  0
  -25.5800  -15.4410   20.3900 N   0  0  0  0  0  0  0  0  0  0  0  0
  -24.8100  -16.0870   20.5250 H   0  0  0  0  0  0  0  0  0  0  0  0
  -26.4140  -15.8920   20.0380 H   0  0  0  0  0  0  0  0  0  0  0  0
  -26.8250  -21.4730   18.5210 C   0  0  0  0  0  1  0  0  0  0  0  0
  -26.2100  -22.4980   20.8030 C   0  0  0  0  0  1  0  0  0  0  0  0
  -27.2170  -21.6500   20.0050 C   0  0  0  0  0  3  0  0  0  0  0  0
  -27.9500  -24.7640   20.1480 C   0  0  0  0  0  2  0  0  0  0  0  0
  -28.3370  -26.3100   20.1150 O   0  0  0  0  0  0  0  0  0  0  0  0
  -24.7080  -31.9700   23.3420 C   0  0  0  0  0  0  0  0  0  0  0  0
  -27.3130  -27.3540   20.1100 C   0  0  0  0  0  0  0  0  0  0  0  0
  -23.5330  -30.6590   21.6190 C   0  0  0  0  0  3  0  0  0  0  0  0
  -25.0000  -29.1520   20.1400 C   0  0  0  0  0  0  0  0  0  0  0  0
  -26.0940  -30.9120   21.5080 C   0  0  0  0  0  2  0  0  0  0  0  0
  -26.1760  -29.5460   20.7890 C   0  0  0  0  0  0  0  0  0  0  0  0
  -27.3340  -28.6670   20.7560 C   0  0  0  0  0  3  0  0  0  0  0  0
  -26.1120  -27.0920   19.4160 C   0  0  0  0  0  3  0  0  0  0  0  0
  -24.9840  -27.9410   19.4360 C   0  0  0  0  0  3  0  0  0  0  0  0
  -23.7770  -30.0530   20.2110 C   0  0  0  0  0  2  0  0  0  0  0  0
  -24.7980  -31.2000   22.2110 N   0  0  0  0  0  0  0  0  0  0  0  0
  -23.6130  -32.2290   23.8640 O   0  0  0  0  0  0  0  0  0  0  0  0
  -22.8370  -29.6070   22.5210 C   0  0  0  0  0  0  0  0  0  0  0  0
  -21.5130  -29.4360   22.3580 N   0  0  0  0  0  0  0  0  0  0  0  0
  -23.4940  -28.9480   23.3320 O   0  0  0  0  0  0  0  0  0  0  0  0
  -21.0380  -30.0240   21.6880 H   0  0  0  0  0  0  0  0  0  0  0  0
  -18.1340  -28.1810   22.7370 C   0  0  0  0  0  0  0  0  0  0  0  0
  -20.6830  -28.4540   23.0650 C   0  0  0  0  0  3  0  0  0  0  0  0
  -20.8130  -27.0520   22.4260 C   0  0  0  0  0  2  0  0  0  0  0  0
  -19.7310  -26.7630   21.3790 C   0  0  0  0  0  2  0  0  0  0  0  0
  -18.3380  -26.8650   22.0050 C   0  0  0  0  0  2  0  0  0  0  0  0
  -19.2360  -28.9340   23.2230 C   0  0  0  0  0  0  0  0  0  0  0  0
  -18.9900  -30.1620   23.8740 C   0  0  0  0  0  3  0  0  0  0  0  0
  -17.6780  -30.6410   24.0400 C   0  0  0  0  0  3  0  0  0  0  0  0
  -16.5900  -29.8860   23.5660 C   0  0  0  0  0  3  0  0  0  0  0  0
  -16.8190  -28.6560   22.9230 C   0  0  0  0  0  3  0  0  0  0  0  0
  -25.9740  -32.5760   24.0180 C   0  0  0  0  0  3  0  0  0  0  0  0
  -26.4440  -31.7670   25.2890 C   0  0  1  0  0  0  0  0  0  0  0  0
  -25.3160  -31.5140   26.3180 C   0  0  0  0  0  1  0  0  0  0  0  0
  -27.0260  -30.3940   24.8830 C   0  0  0  0  0  1  0  0  0  0  0  0
  -27.5820  -32.5300   26.0060 C   0  0  0  0  0  1  0  0  0  0  0  0
  -25.6640  -33.9680   24.3840 N   0  0  0  0  0  0  0  0  0  0  0  0
  -25.9820  -35.0420   23.6470 C   0  0  0  0  0  0  0  0  0  0  0  0
  -26.6330  -34.9630   22.6020 O   0  0  0  0  0  0  0  0  0  0  0  0
  -25.0850  -34.1010   25.2000 H   0  0  0  0  0  0  0  0  0  0  0  0
  -24.2300  -36.8300   23.3980 C   0  0  0  0  0  1  0  0  0  0  0  0
  -25.5070  -36.4210   24.1480 C   0  0  0  0  0  3  0  0  0  0  0  0
  -27.6650  -37.3160   24.9090 C   0  0  0  0  0  1  0  0  0  0  0  0
  -26.5280  -37.4830   24.0070 N   0  0  0  0  0  0  0  0  0  0  0  0
  -26.1210  -38.4000   24.1740 H   0  0  0  0  0  0  0  0  0  0  0  0
  1  2  1  0
  2  7  1  0
  3  1  2  0
  4  5  1  0
  6  4  2  0
  7  8  1  0
  8  5  2  0
  8 10  1  0
  9  7  2  0
  9  6  1  0
 11  9  1  0
 12 20  1  0
 13 18  1  0
 14 15  1  0
 14 13  1  0
 16 15  1  0
 16 25  1  0
 16 17  1  0
 18 12  1  0
 18 17  1  0
 19 12  2  0
 20  6  1  0
 21 20  1  0
 22 23  2  0
 23 42  1  0
 24 23  1  0
 24 27  1  0
 25 26  1  0
 25 22  1  0
 26 24  2  0
 27 28  1  0
 28 29  2  0
 30 33  1  0
 30 29  1  0
 31 30  2  0
 32 31  1  0
 32 27  2  0
 33 34  1  0
 34 39  2  0
 34 35  1  0
 35 36  2  0
 37 36  1  0
 37 41  1  0
 38 37  2  0
 39 38  1  0
 40 39  1  0
 42 43  1  0
 43 46  1  0
 43 45  1  0
 44 42  2  0
 47 48  1  0
 47 22  1  0
 49 47  1  0
 50 52  1  0
 52  2  1  0
 52 51  1  0
 53  1  1  0
 54 53  1  0
 55 66  2  0
 56 54  1  0
 56 61  1  0
 57 65  1  0
 57 67  1  0
 58 64  1  0
 58 60  1  0
 59 65  1  0
 60 59  1  0
 61 60  2  0
 62 63  1  0
 62 56  2  0
 63 58  2  0
 64 57  1  0
 65 55  1  0
 67 69  2  0
 68 67  1  0
 70 68  1  0
 71 80  2  0
 71 76  1  0
 72 68  1  0
 72 76  1  0
 73 72  1  0
 74 75  1  0
 74 73  1  0
 75 71  1  0
 76 77  2  0
 77 78  1  0
 79 78  2  0
 80 79  1  0
 81 55  1  0
 81 86  1  0
 81 82  1  0
 82 85  1  1
 82 83  1  0
 84 82  1  0
 86 89  1  0
 87 91  1  0
 87 86  1  0
 88 87  2  0
 91 90  1  0
 93 91  1  0
 93 94  1  0
 93 92  1  0
M  ISO  4  12 100  20 100  53 101  54 101
M  END
>  <TORSDO>  (89) 
F 19

>  <SCORE>  (89) 
-14.537

>  <name>  (89) 
88

>  <ligand_id>  (89) 
88

>  <original_smiles>  (89) 
[H]c1c([H])c([H])c2c(c1[H])C([H])([H])C([H])([H])C([H])([H])C2([H])N([H])C(=O)C1([H])N(C(=O)C([H])(N([H])C(=O)C([H])(N([H])C([H])([H])[H])C([H])([H])[H])C(C([H])([H])[H])(C([H])([H])[H])C([H])([H])[H])C([H])([H])c2c([H])c(OC([H])([H])C(=O)N(c3c(F)c([H])c([H])c(N([H])C(=O)N4C([H])([H])C([H])([H])C([H])([H])C([H])(n5nc(-c6c([H])c([H])c(Oc7c([H])c([H])c(F)c([H])c7F)c([H])c6[H])c(C(=O)N([H])[H])c5N([H])[H])C4([H])[H])c3F)C([H])(C([H])([H])[H])C([H])([H])[H])c([H])c([H])c2C1([H])[H]

>  <smiles>  (89) 
[H]c1c([H])c([H])c2c(c1[H])C([H])([H])C([H])([H])C([H])([H])C2([H])N([H])C(=O)C1([H])N(C(=O)C([H])(N([H])C(=O)C([H])(N([H])C([H])([H])[H])C([H])([H])[H])C(C([H])([H])[H])(C([H])([H])[H])C([H])([H])[H])C([H])([H])c2c([H])c(OC([H])([H])C(=O)N(c3c(F)c([H])c([H])c(N([H])C(=O)N4C([H])([H])C([H])([H])C([H])([H])C([H])(n5nc(-c6c([H])c([H])c(Oc7c([H])c([H])c(F)c([H])c7F)c([H])c6[H])c(C(=O)N([H])[H])c5N([H])[H])C4([H])[H])c3F)C([H])(C([H])([H])[H])C([H])([H])[H])c([H])c([H])c2C1([H])[H]

$$$$
89:0:0
     RDKit          3D

 93101  0  0  1  0  0  0  0  0999 V2000
  -29.4160  -19.7710   18.8080 C   0  0  0  0  0  3  0  0  0  0  0  0
  -29.4600  -18.5080   18.1930 C   0  0  0  0  0  3  0  0  0  0  0  0
  -29.6890  -18.6730   20.9550 C   0  0  0  0  0  3  0  0  0  0  0  0
  -29.5090  -19.9180   20.2080 C   0  0  0  0  0  0  0  0  0  0  0  0
  -29.6060  -17.3220   18.9340 C   0  0  0  0  0  0  0  0  0  0  0  0
  -29.7660  -17.3520   20.3450 C   0  0  0  0  0  0  0  0  0  0  0  0
  -30.6680  -14.9830   20.9370 C   0  0  0  0  0  0  0  0  0  0  0  0
  -30.6670  -12.6340   20.0990 C   0  0  0  0  0  2  0  0  0  0  0  0
  -29.8600  -12.5710   18.7820 C   0  0  0  0  0  2  0  0  0  0  0  0
  -28.3530  -12.4080   19.0630 C   0  0  0  0  0  2  0  0  0  0  0  0
  -27.8310  -13.3520   20.1800 C   0  0  0  0  0  3  0  0  0  0  0  0
  -28.7700  -13.3620   21.4070 C   0  0  0  0  0  2  0  0  0  0  0  0
  -30.1110  -13.7260   20.9320 N   0  0  0  0  0  0  0  0  0  0  0  0
  -31.8620  -15.1310   20.6590 O   0  0  0  0  0  0  0  0  0  0  0  0
  -29.8270  -16.0710   21.0950 N   0  0  0  0  0  0  0  0  0  0  0  0
  -28.9550  -15.8260   21.5390 H   0  0  0  0  0  0  0  0  0  0  0  0
  -25.3690  -13.8960   20.6670 C   0  0  0  0  0  0  0  0  0  0  0  0
  -24.2930  -13.1030   20.9620 C   0  0  0  0  0  0  0  0  0  0  0  0
  -24.7890  -11.7640   21.0050 C   0  0  0  0  0  0  0  0  0  0  0  0
  -26.4520  -13.0410   20.5520 N   0  0  0  0  0  0  0  0  0  0  0  0
  -26.1030  -11.7540   20.8140 N   0  0  0  0  0  0  0  0  0  0  0  0
  -24.0790  -10.4870   21.1560 C   0  0  0  0  0  0  0  0  0  0  0  0
  -24.4500   -9.5440   22.1410 C   0  0  0  0  0  3  0  0  0  0  0  0
  -23.7360   -8.3340   22.2780 C   0  0  0  0  0  3  0  0  0  0  0  0
  -22.6380   -8.0570   21.4290 C   0  0  0  0  0  0  0  0  0  0  0  0
  -22.2870   -8.9890   20.4360 C   0  0  0  0  0  3  0  0  0  0  0  0
  -23.0030  -10.1900   20.2980 C   0  0  0  0  0  3  0  0  0  0  0  0
  -21.9060   -6.8950   21.4720 O   0  0  0  0  0  0  0  0  0  0  0  0
  -21.7700   -6.1720   22.6290 C   0  0  0  0  0  0  0  0  0  0  0  0
  -21.2080   -6.7300   23.7980 C   0  0  0  0  0  3  0  0  0  0  0  0
  -21.0260   -5.9310   24.9450 C   0  0  0  0  0  3  0  0  0  0  0  0
  -21.3970   -4.5730   24.9230 C   0  0  0  0  0  0  0  0  0  0  0  0
  -21.9540   -4.0140   23.7590 C   0  0  0  0  0  3  0  0  0  0  0  0
  -22.1380   -4.8100   22.6150 C   0  0  0  0  0  0  0  0  0  0  0  0
  -22.6540   -4.2620   21.4900 F   0  0  0  0  0  0  0  0  0  0  0  0
  -21.2160   -3.8030   26.0210 F   0  0  0  0  0  0  0  0  0  0  0  0
  -22.8660  -13.5510   21.0990 C   0  0  0  0  0  0  0  0  0  0  0  0
  -22.0800  -12.8530   21.9100 N   0  0  0  0  0  0  0  0  0  0  0  0
  -22.4540  -14.5570   20.5210 O   0  0  0  0  0  0  0  0  0  0  0  0
  -22.4260  -12.0440   22.4020 H   0  0  0  0  0  0  0  0  0  0  0  0
  -21.1200  -13.1370   22.0470 H   0  0  0  0  0  0  0  0  0  0  0  0
  -25.5110  -15.2650   20.4610 N   0  0  0  0  0  0  0  0  0  0  0  0
  -24.7010  -15.8690   20.3830 H   0  0  0  0  0  0  0  0  0  0  0  0
  -26.3630  -15.7060   20.1360 H   0  0  0  0  0  0  0  0  0  0  0  0
  -29.5220  -16.1240   18.2310 N   0  0  0  0  0  0  0  0  0  0  0  0
  -29.6480  -16.1500   17.2240 H   0  0  0  0  0  0  0  0  0  0  0  0
  -29.8840  -15.2820   18.6540 H   0  0  0  0  0  0  0  0  0  0  0  0
  -29.8160  -21.3510   22.1730 C   0  0  0  0  0  1  0  0  0  0  0  0
  -29.4550  -21.2670   20.7600 N   0  0  0  0  0  0  0  0  0  0  0  0
  -28.6300  -22.4080   20.1720 C   0  0  0  0  0  2  0  0  0  0  0  0
  -29.0630  -23.9540   20.3930 C   0  0  0  0  0  3  0  0  0  0  0  0
  -28.0490  -25.1040   19.8950 C   0  0  0  0  0  3  0  0  0  0  0  0
  -28.3100  -26.5730   20.0550 O   0  0  0  0  0  0  0  0  0  0  0  0
  -24.5940  -31.9420   23.1980 C   0  0  0  0  0  0  0  0  0  0  0  0
  -27.2040  -27.4540   20.0120 C   0  0  0  0  0  0  0  0  0  0  0  0
  -23.3790  -30.5550   21.5580 C   0  0  0  0  0  3  0  0  0  0  0  0
  -24.8250  -29.0620   20.0690 C   0  0  0  0  0  0  0  0  0  0  0  0
  -25.9120  -30.9120   21.3330 C   0  0  0  0  0  2  0  0  0  0  0  0
  -26.0000  -29.5450   20.6580 C   0  0  0  0  0  0  0  0  0  0  0  0
  -27.1910  -28.7540   20.6220 C   0  0  0  0  0  3  0  0  0  0  0  0
  -26.0030  -27.0470   19.3830 C   0  0  0  0  0  3  0  0  0  0  0  0
  -24.8310  -27.8210   19.4190 C   0  0  0  0  0  3  0  0  0  0  0  0
  -23.5780  -29.9170   20.1580 C   0  0  0  0  0  2  0  0  0  0  0  0
  -24.6480  -31.1540   22.0860 N   0  0  0  0  0  0  0  0  0  0  0  0
  -23.5170  -32.1920   23.7590 O   0  0  0  0  0  0  0  0  0  0  0  0
  -22.7540  -29.5060   22.5110 C   0  0  0  0  0  0  0  0  0  0  0  0
  -21.4300  -29.3040   22.4030 N   0  0  0  0  0  0  0  0  0  0  0  0
  -23.4590  -28.8810   23.3080 O   0  0  0  0  0  0  0  0  0  0  0  0
  -20.9190  -29.8610   21.7320 H   0  0  0  0  0  0  0  0  0  0  0  0
  -18.0870  -28.0200   22.9260 C   0  0  0  0  0  0  0  0  0  0  0  0
  -20.6420  -28.3400   23.1740 C   0  0  0  0  0  3  0  0  0  0  0  0
  -20.7740  -26.9170   22.5840 C   0  0  0  0  0  2  0  0  0  0  0  0
  -19.6690  -26.5770   21.5780 C   0  0  0  0  0  2  0  0  0  0  0  0
  -18.2910  -26.6810   22.2360 C   0  0  0  0  0  2  0  0  0  0  0  0
  -19.1910  -28.8060   23.3520 C   0  0  0  0  0  0  0  0  0  0  0  0
  -18.9460  -30.0570   23.9590 C   0  0  0  0  0  3  0  0  0  0  0  0
  -17.6310  -30.5220   24.1440 C   0  0  0  0  0  3  0  0  0  0  0  0
  -16.5420  -29.7340   23.7340 C   0  0  0  0  0  3  0  0  0  0  0  0
  -16.7700  -28.4850   23.1300 C   0  0  0  0  0  3  0  0  0  0  0  0
  -25.8790  -32.5850   23.8040 C   0  0  0  0  0  3  0  0  0  0  0  0
  -25.5560  -33.9760   24.1530 N   0  0  0  0  0  0  0  0  0  0  0  0
  -25.8810  -35.0430   23.4110 C   0  0  0  0  0  0  0  0  0  0  0  0
  -26.5530  -34.9610   22.3800 O   0  0  0  0  0  0  0  0  0  0  0  0
  -24.9630  -34.1140   24.9580 H   0  0  0  0  0  0  0  0  0  0  0  0
  -24.1570  -36.8430   23.0630 C   0  0  0  0  0  1  0  0  0  0  0  0
  -25.3810  -36.4200   23.8900 C   0  0  0  0  0  3  0  0  0  0  0  0
  -27.4950  -37.2910   24.7850 C   0  0  0  0  0  1  0  0  0  0  0  0
  -26.4110  -37.4780   23.8250 N   0  0  0  0  0  0  0  0  0  0  0  0
  -25.9970  -38.3920   23.9890 H   0  0  0  0  0  0  0  0  0  0  0  0
  -26.4260  -31.8090   25.0650 C   0  0  1  0  0  0  0  0  0  0  0  0
  -25.3540  -31.5520   26.1490 C   0  0  0  0  0  1  0  0  0  0  0  0
  -27.0190  -30.4400   24.6550 C   0  0  0  0  0  1  0  0  0  0  0  0
  -27.5760  -32.6110   25.7170 C   0  0  0  0  0  1  0  0  0  0  0  0
  1  4  1  0
  2  1  2  0
  2  5  1  0
  4 49  1  0
  4  3  2  0
  5  6  2  0
  6  3  1  0
  6 15  1  0
  7 15  1  0
  8 13  1  0
  9 10  1  0
  9  8  1  0
 11 10  1  0
 11 20  1  0
 11 12  1  0
 13  7  1  0
 13 12  1  0
 14  7  2  0
 15 16  1  0
 17 18  2  0
 18 19  1  0
 18 37  1  0
 19 22  1  0
 20 17  1  0
 20 21  1  0
 21 19  2  0
 22 23  1  0
 23 24  2  0
 25 28  1  0
 25 24  1  0
 26 25  2  0
 27 26  1  0
 27 22  2  0
 28 29  1  0
 29 30  1  0
 30 31  2  0
 32 31  1  0
 32 36  1  0
 33 32  2  0
 34 29  2  0
 34 33  1  0
 35 34  1  0
 37 38  1  0
 38 41  1  0
 38 40  1  0
 39 37  2  0
 42 17  1  0
 43 42  1  0
 44 42  1  0
 45 47  1  0
 45  5  1  0
 46 45  1  0
 49 48  1  0
 50 51  1  0
 50 49  1  0
 52 53  1  0
 52 51  2  0
 54 65  2  0
 55 53  1  0
 55 60  1  0
 56 64  1  0
 56 66  1  0
 57 63  1  0
 57 59  1  0
 58 64  1  0
 59 58  1  0
 60 59  2  0
 61 62  1  0
 61 55  2  0
 62 57  2  0
 63 56  1  0
 64 54  1  0
 66 68  2  0
 67 66  1  0
 69 67  1  0
 70 79  2  0
 70 75  1  0
 71 67  1  0
 71 75  1  0
 72 71  1  0
 73 74  1  0
 73 72  1  0
 74 70  1  0
 75 76  2  0
 76 77  1  0
 78 77  2  0
 79 78  1  0
 80 54  1  0
 80 81  1  0
 80 90  1  0
 81 84  1  0
 82 86  1  0
 82 81  1  0
 83 82  2  0
 86 85  1  0
 88 86  1  0
 88 89  1  0
 88 87  1  0
 90 93  1  1
 90 91  1  0
 92 90  1  0
M  ISO  4   7 100  15 100  52 101  53 101
M  END
>  <TORSDO>  (90) 
F 21

>  <SCORE>  (90) 
-13.138

>  <name>  (90) 
89

>  <ligand_id>  (90) 
89

>  <original_smiles>  (90) 
[H]c1c([H])c([H])c2c(c1[H])C([H])([H])C([H])([H])C([H])([H])C2([H])N([H])C(=O)C1([H])N(C(=O)C([H])(N([H])C(=O)C([H])(N([H])C([H])([H])[H])C([H])([H])[H])C(C([H])([H])[H])(C([H])([H])[H])C([H])([H])[H])C([H])([H])c2c([H])c(OC([H])([H])C([H])([H])C([H])([H])N(c3c([H])c([H])c(N([H])[H])c(N([H])C(=O)N4C([H])([H])C([H])([H])C([H])([H])C([H])(n5nc(-c6c([H])c([H])c(Oc7c([H])c([H])c(F)c([H])c7F)c([H])c6[H])c(C(=O)N([H])[H])c5N([H])[H])C4([H])[H])c3[H])C([H])([H])[H])c([H])c([H])c2C1([H])[H]

>  <smiles>  (90) 
[H]c1c([H])c([H])c2c(c1[H])C([H])([H])C([H])([H])C([H])([H])C2([H])N([H])C(=O)C1([H])N(C(=O)C([H])(N([H])C(=O)C([H])(N([H])C([H])([H])[H])C([H])([H])[H])C(C([H])([H])[H])(C([H])([H])[H])C([H])([H])[H])C([H])([H])c2c([H])c(OC([H])([H])C([H])([H])C([H])([H])N(c3c([H])c([H])c(N([H])[H])c(N([H])C(=O)N4C([H])([H])C([H])([H])C([H])([H])C([H])(n5nc(-c6c([H])c([H])c(Oc7c([H])c([H])c(F)c([H])c7F)c([H])c6[H])c(C(=O)N([H])[H])c5N([H])[H])C4([H])[H])c3[H])C([H])([H])[H])c([H])c([H])c2C1([H])[H]

$$$$
90:0:0
     RDKit          3D

 91 99  0  0  1  0  0  0  0  0999 V2000
  -28.9840  -23.4060   20.2160 C   0  0  0  0  0  0  0  0  0  0  0  0
  -28.5330  -22.0740   20.0580 N   0  0  0  0  0  0  0  0  0  0  0  0
  -30.1440  -23.6320   20.5700 O   0  0  0  0  0  0  0  0  0  0  0  0
  -27.5480  -22.0810   19.8230 H   0  0  0  0  0  0  0  0  0  0  0  0
  -30.6150  -18.6040   20.2960 C   0  0  0  0  0  3  0  0  0  0  0  0
  -30.3410  -20.0470   20.2500 C   0  0  0  0  0  3  0  0  0  0  0  0
  -28.2990  -18.1820   20.2110 C   0  0  0  0  0  3  0  0  0  0  0  0
  -29.5970  -17.5800   20.2820 C   0  0  0  0  0  0  0  0  0  0  0  0
  -29.0190  -20.6250   20.1720 C   0  0  0  0  0  0  0  0  0  0  0  0
  -28.0240  -19.5980   20.1470 C   0  0  0  0  0  0  0  0  0  0  0  0
  -26.7300  -19.9890   20.0570 F   0  0  0  0  0  0  0  0  0  0  0  0
  -30.5510  -14.9620   20.1150 C   0  0  0  0  0  0  0  0  0  0  0  0
  -30.4380  -12.6340   19.1180 C   0  0  0  0  0  2  0  0  0  0  0  0
  -29.4590  -12.6410   17.9190 C   0  0  0  0  0  2  0  0  0  0  0  0
  -28.0060  -12.4260   18.3900 C   0  0  0  0  0  2  0  0  0  0  0  0
  -27.6440  -13.3100   19.6110 C   0  0  0  0  0  3  0  0  0  0  0  0
  -28.7370  -13.2580   20.7010 C   0  0  0  0  0  2  0  0  0  0  0  0
  -29.9960  -13.6850   20.0730 N   0  0  0  0  0  0  0  0  0  0  0  0
  -31.7310  -15.0980   19.7720 O   0  0  0  0  0  0  0  0  0  0  0  0
  -29.6790  -16.0480   20.3690 N   0  0  0  0  0  0  0  0  0  0  0  0
  -28.7830  -15.6540   20.6080 H   0  0  0  0  0  0  0  0  0  0  0  0
  -25.2800  -13.8790   20.4200 C   0  0  0  0  0  0  0  0  0  0  0  0
  -24.2290  -13.0980   20.8130 C   0  0  0  0  0  0  0  0  0  0  0  0
  -24.6940  -11.7480   20.7490 C   0  0  0  0  0  0  0  0  0  0  0  0
  -26.3180  -13.0050   20.1380 N   0  0  0  0  0  0  0  0  0  0  0  0
  -25.9750  -11.7180   20.4010 N   0  0  0  0  0  0  0  0  0  0  0  0
  -23.9740  -10.4820   20.9410 C   0  0  0  0  0  0  0  0  0  0  0  0
  -24.4040   -9.5240   21.8840 C   0  0  0  0  0  3  0  0  0  0  0  0
  -23.6830   -8.3230   22.0640 C   0  0  0  0  0  3  0  0  0  0  0  0
  -22.5180   -8.0720   21.3000 C   0  0  0  0  0  0  0  0  0  0  0  0
  -22.1080   -9.0210   20.3460 C   0  0  0  0  0  3  0  0  0  0  0  0
  -22.8300  -10.2120   20.1650 C   0  0  0  0  0  3  0  0  0  0  0  0
  -21.7710   -6.9240   21.3890 O   0  0  0  0  0  0  0  0  0  0  0  0
  -21.6710   -6.2170   22.5600 C   0  0  0  0  0  0  0  0  0  0  0  0
  -21.1670   -6.8020   23.7430 C   0  0  0  0  0  3  0  0  0  0  0  0
  -21.0170   -6.0230   24.9060 C   0  0  0  0  0  3  0  0  0  0  0  0
  -21.3610   -4.6570   24.8890 C   0  0  0  0  0  0  0  0  0  0  0  0
  -21.8590   -4.0710   23.7110 C   0  0  0  0  0  3  0  0  0  0  0  0
  -22.0100   -4.8490   22.5500 C   0  0  0  0  0  0  0  0  0  0  0  0
  -22.4700   -4.2740   21.4130 F   0  0  0  0  0  0  0  0  0  0  0  0
  -21.2100   -3.9060   26.0050 F   0  0  0  0  0  0  0  0  0  0  0  0
  -22.8380  -13.5690   21.1280 C   0  0  0  0  0  0  0  0  0  0  0  0
  -22.1370  -12.8660   22.0090 N   0  0  0  0  0  0  0  0  0  0  0  0
  -22.3840  -14.5970   20.6260 O   0  0  0  0  0  0  0  0  0  0  0  0
  -22.5180  -12.0350   22.4370 H   0  0  0  0  0  0  0  0  0  0  0  0
  -21.2060  -13.1640   22.2620 H   0  0  0  0  0  0  0  0  0  0  0  0
  -25.4330  -15.2520   20.2490 N   0  0  0  0  0  0  0  0  0  0  0  0
  -24.6480  -15.8850   20.3550 H   0  0  0  0  0  0  0  0  0  0  0  0
  -26.2200  -15.6750   19.7760 H   0  0  0  0  0  0  0  0  0  0  0  0
  -27.9800  -24.6920   19.9200 C   0  0  0  0  0  2  0  0  0  0  0  0
  -28.3120  -26.1880   20.1970 O   0  0  0  0  0  0  0  0  0  0  0  0
  -24.6660  -31.8440   23.2340 C   0  0  0  0  0  0  0  0  0  0  0  0
  -27.2610  -27.1790   20.1420 C   0  0  0  0  0  0  0  0  0  0  0  0
  -23.4720  -30.4670   21.5760 C   0  0  0  0  0  3  0  0  0  0  0  0
  -24.9260  -28.9180   20.1340 C   0  0  0  0  0  0  0  0  0  0  0  0
  -26.0270  -30.7400   21.4210 C   0  0  0  0  0  2  0  0  0  0  0  0
  -26.1060  -29.3580   20.7490 C   0  0  0  0  0  0  0  0  0  0  0  0
  -27.2740  -28.5040   20.7380 C   0  0  0  0  0  3  0  0  0  0  0  0
  -26.0520  -26.8450   19.4880 C   0  0  0  0  0  3  0  0  0  0  0  0
  -24.9120  -27.6740   19.4900 C   0  0  0  0  0  3  0  0  0  0  0  0
  -23.6970  -29.8110   20.1890 C   0  0  0  0  0  2  0  0  0  0  0  0
  -24.7420  -31.0380   22.1320 N   0  0  0  0  0  0  0  0  0  0  0  0
  -23.5780  -32.1210   23.7620 O   0  0  0  0  0  0  0  0  0  0  0  0
  -22.7940  -29.4450   22.5230 C   0  0  0  0  0  0  0  0  0  0  0  0
  -21.4650  -29.2810   22.3990 N   0  0  0  0  0  0  0  0  0  0  0  0
  -23.4660  -28.8030   23.3340 O   0  0  0  0  0  0  0  0  0  0  0  0
  -20.9790  -29.8510   21.7200 H   0  0  0  0  0  0  0  0  0  0  0  0
  -18.0770  -28.1010   22.9080 C   0  0  0  0  0  0  0  0  0  0  0  0
  -20.6410  -28.3360   23.1580 C   0  0  0  0  0  3  0  0  0  0  0  0
  -20.7240  -26.9140   22.5550 C   0  0  0  0  0  2  0  0  0  0  0  0
  -19.6100  -26.6210   21.5450 C   0  0  0  0  0  2  0  0  0  0  0  0
  -18.2360  -26.7640   22.2040 C   0  0  0  0  0  2  0  0  0  0  0  0
  -19.2060  -28.8470   23.3430 C   0  0  0  0  0  0  0  0  0  0  0  0
  -19.0010  -30.0970   23.9630 C   0  0  0  0  0  3  0  0  0  0  0  0
  -17.7010  -30.6040   24.1540 C   0  0  0  0  0  3  0  0  0  0  0  0
  -16.5880  -29.8560   23.7330 C   0  0  0  0  0  3  0  0  0  0  0  0
  -16.7770  -28.6060   23.1170 C   0  0  0  0  0  3  0  0  0  0  0  0
  -25.9420  -32.4740   23.8720 C   0  0  0  0  0  3  0  0  0  0  0  0
  -25.6290  -33.8700   24.2110 N   0  0  0  0  0  0  0  0  0  0  0  0
  -25.9410  -34.9310   23.4540 C   0  0  0  0  0  0  0  0  0  0  0  0
  -26.5900  -34.8350   22.4080 O   0  0  0  0  0  0  0  0  0  0  0  0
  -25.0490  -34.0180   25.0240 H   0  0  0  0  0  0  0  0  0  0  0  0
  -24.1860  -36.7120   23.1640 C   0  0  0  0  0  1  0  0  0  0  0  0
  -25.4600  -36.3150   23.9290 C   0  0  0  0  0  3  0  0  0  0  0  0
  -27.6110  -37.2250   24.6860 C   0  0  0  0  0  1  0  0  0  0  0  0
  -26.4790  -37.3770   23.7770 N   0  0  0  0  0  0  0  0  0  0  0  0
  -26.0690  -38.2950   23.9310 H   0  0  0  0  0  0  0  0  0  0  0  0
  -26.4440  -31.6960   25.1500 C   0  0  1  0  0  0  0  0  0  0  0  0
  -25.3410  -31.4590   26.2070 C   0  0  0  0  0  1  0  0  0  0  0  0
  -27.0260  -30.3170   24.7630 C   0  0  0  0  0  1  0  0  0  0  0  0
  -27.5910  -32.4850   25.8250 C   0  0  0  0  0  1  0  0  0  0  0  0
  1  3  2  0
  2  9  1  0
  2  1  1  0
  4  2  1  0
  6  5  2  0
  7  8  2  0
  8  5  1  0
  8 20  1  0
  9  6  1  0
 10  9  2  0
 10  7  1  0
 11 10  1  0
 12 20  1  0
 13 18  1  0
 14 15  1  0
 14 13  1  0
 16 15  1  0
 16 25  1  0
 16 17  1  0
 18 12  1  0
 18 17  1  0
 19 12  2  0
 20 21  1  0
 22 23  2  0
 23 42  1  0
 24 23  1  0
 24 27  1  0
 25 26  1  0
 25 22  1  0
 26 24  2  0
 27 28  1  0
 28 29  2  0
 30 33  1  0
 30 29  1  0
 31 30  2  0
 32 31  1  0
 32 27  2  0
 33 34  1  0
 34 35  1  0
 35 36  2  0
 37 36  1  0
 37 41  1  0
 38 37  2  0
 39 34  2  0
 39 38  1  0
 40 39  1  0
 42 43  1  0
 43 46  1  0
 43 45  1  0
 44 42  2  0
 47 48  1  0
 47 22  1  0
 49 47  1  0
 50 51  1  0
 50  1  1  0
 52 63  2  0
 53 51  1  0
 53 58  1  0
 54 62  1  0
 54 64  1  0
 55 61  1  0
 55 57  1  0
 56 62  1  0
 57 56  1  0
 58 57  2  0
 59 60  1  0
 59 53  2  0
 60 55  2  0
 61 54  1  0
 62 52  1  0
 64 66  2  0
 65 64  1  0
 67 65  1  0
 68 77  2  0
 68 73  1  0
 69 65  1  0
 69 73  1  0
 70 69  1  0
 71 72  1  0
 71 70  1  0
 72 68  1  0
 73 74  2  0
 74 75  1  0
 76 75  2  0
 77 76  1  0
 78 52  1  0
 78 79  1  0
 78 88  1  0
 79 82  1  0
 80 84  1  0
 80 79  1  0
 81 80  2  0
 84 83  1  0
 86 84  1  0
 86 87  1  0
 86 85  1  0
 88 91  1  1
 88 89  1  0
 90 88  1  0
M  ISO  4  12 100  20 100  50 101  51 101
M  END
>  <TORSDO>  (91) 
F 18

>  <SCORE>  (91) 
-14.264

>  <name>  (91) 
90

>  <ligand_id>  (91) 
90

>  <original_smiles>  (91) 
[H]c1c([H])c([H])c2c(c1[H])C([H])([H])C([H])([H])C([H])([H])C2([H])N([H])C(=O)C1([H])N(C(=O)C([H])(N([H])C(=O)C([H])(N([H])C([H])([H])[H])C([H])([H])[H])C(C([H])([H])[H])(C([H])([H])[H])C([H])([H])[H])C([H])([H])c2c([H])c(OC([H])([H])C(=O)N([H])c3c([H])c([H])c(N([H])C(=O)N4C([H])([H])C([H])([H])C([H])([H])C([H])(n5nc(-c6c([H])c([H])c(Oc7c([H])c([H])c(F)c([H])c7F)c([H])c6[H])c(C(=O)N([H])[H])c5N([H])[H])C4([H])[H])c([H])c3F)c([H])c([H])c2C1([H])[H]

>  <smiles>  (91) 
[H]c1c([H])c([H])c2c(c1[H])C([H])([H])C([H])([H])C([H])([H])C2([H])N([H])C(=O)C1([H])N(C(=O)C([H])(N([H])C(=O)C([H])(N([H])C([H])([H])[H])C([H])([H])[H])C(C([H])([H])[H])(C([H])([H])[H])C([H])([H])[H])C([H])([H])c2c([H])c(OC([H])([H])C(=O)N([H])c3c([H])c([H])c(N([H])C(=O)N4C([H])([H])C([H])([H])C([H])([H])C([H])(n5nc(-c6c([H])c([H])c(Oc7c([H])c([H])c(F)c([H])c7F)c([H])c6[H])c(C(=O)N([H])[H])c5N([H])[H])C4([H])[H])c([H])c3F)c([H])c([H])c2C1([H])[H]

$$$$
91:0:0
     RDKit          3D

 90 98  0  0  1  0  0  0  0  0999 V2000
  -30.7010  -19.8590   19.6520 C   0  0  0  0  0  3  0  0  0  0  0  0
  -30.8080  -18.4180   19.7880 C   0  0  0  0  0  3  0  0  0  0  0  0
  -28.4390  -19.8110   20.2760 C   0  0  0  0  0  3  0  0  0  0  0  0
  -29.5200  -20.6730   19.8840 C   0  0  0  0  0  0  0  0  0  0  0  0
  -29.7200  -17.5760   20.1580 C   0  0  0  0  0  0  0  0  0  0  0  0
  -28.5320  -18.3590   20.3930 C   0  0  0  0  0  0  0  0  0  0  0  0
  -27.4120  -17.6810   20.7400 F   0  0  0  0  0  0  0  0  0  0  0  0
  -30.5190  -14.9440   19.9530 C   0  0  0  0  0  0  0  0  0  0  0  0
  -30.3550  -12.6220   18.9590 C   0  0  0  0  0  2  0  0  0  0  0  0
  -29.3370  -12.6350   17.7950 C   0  0  0  0  0  2  0  0  0  0  0  0
  -27.9040  -12.4190   18.3170 C   0  0  0  0  0  2  0  0  0  0  0  0
  -27.5860  -13.3070   19.5480 C   0  0  0  0  0  3  0  0  0  0  0  0
  -28.7120  -13.2590   20.6040 C   0  0  0  0  0  2  0  0  0  0  0  0
  -29.9510  -13.6750   19.9320 N   0  0  0  0  0  0  0  0  0  0  0  0
  -31.6810  -15.0640   19.5500 O   0  0  0  0  0  0  0  0  0  0  0  0
  -29.6990  -16.0500   20.2770 N   0  0  0  0  0  0  0  0  0  0  0  0
  -28.8170  -15.7250   20.6420 H   0  0  0  0  0  0  0  0  0  0  0  0
  -25.2560  -13.8770   20.4490 C   0  0  0  0  0  0  0  0  0  0  0  0
  -24.2120  -13.0970   20.8620 C   0  0  0  0  0  0  0  0  0  0  0  0
  -24.6670  -11.7450   20.7670 C   0  0  0  0  0  0  0  0  0  0  0  0
  -26.2780  -13.0030   20.1200 N   0  0  0  0  0  0  0  0  0  0  0  0
  -25.9360  -11.7130   20.3740 N   0  0  0  0  0  0  0  0  0  0  0  0
  -23.9470  -10.4810   20.9670 C   0  0  0  0  0  0  0  0  0  0  0  0
  -24.4000   -9.5090   21.8840 C   0  0  0  0  0  3  0  0  0  0  0  0
  -23.6780   -8.3110   22.0740 C   0  0  0  0  0  3  0  0  0  0  0  0
  -22.4870   -8.0770   21.3450 C   0  0  0  0  0  0  0  0  0  0  0  0
  -22.0530   -9.0380   20.4150 C   0  0  0  0  0  3  0  0  0  0  0  0
  -22.7760  -10.2270   20.2240 C   0  0  0  0  0  3  0  0  0  0  0  0
  -21.7340   -6.9320   21.4440 O   0  0  0  0  0  0  0  0  0  0  0  0
  -21.6830   -6.2030   22.6050 C   0  0  0  0  0  0  0  0  0  0  0  0
  -21.2310   -6.7660   23.8180 C   0  0  0  0  0  3  0  0  0  0  0  0
  -21.1260   -5.9630   24.9720 C   0  0  0  0  0  3  0  0  0  0  0  0
  -21.4660   -4.5990   24.9120 C   0  0  0  0  0  0  0  0  0  0  0  0
  -21.9100   -4.0350   23.7030 C   0  0  0  0  0  3  0  0  0  0  0  0
  -22.0150   -4.8350   22.5520 C   0  0  0  0  0  0  0  0  0  0  0  0
  -22.4250   -4.2820   21.3850 F   0  0  0  0  0  0  0  0  0  0  0  0
  -21.3580   -3.8250   26.0170 F   0  0  0  0  0  0  0  0  0  0  0  0
  -22.8370  -13.5730   21.2330 C   0  0  0  0  0  0  0  0  0  0  0  0
  -22.1590  -12.8520   22.1210 N   0  0  0  0  0  0  0  0  0  0  0  0
  -22.3770  -14.6170   20.7750 O   0  0  0  0  0  0  0  0  0  0  0  0
  -22.5480  -12.0060   22.5100 H   0  0  0  0  0  0  0  0  0  0  0  0
  -21.2410  -13.1530   22.4150 H   0  0  0  0  0  0  0  0  0  0  0  0
  -25.4150  -15.2530   20.3040 N   0  0  0  0  0  0  0  0  0  0  0  0
  -24.6700  -15.9060   20.5160 H   0  0  0  0  0  0  0  0  0  0  0  0
  -26.2560  -15.7130   19.9810 H   0  0  0  0  0  0  0  0  0  0  0  0
  -30.8240  -22.6670   19.3290 C   0  0  0  0  0  1  0  0  0  0  0  0
  -29.4960  -22.1660   19.6910 N   0  0  0  0  0  0  0  0  0  0  0  0
  -28.5840  -23.3240   20.2180 C   0  0  0  0  0  2  0  0  0  0  0  0
  -28.3960  -24.8050   19.4140 C   0  0  0  0  0  2  0  0  0  0  0  0
  -28.3370  -26.2440   19.9960 O   0  0  0  0  0  0  0  0  0  0  0  0
  -24.6440  -31.7830   23.0820 C   0  0  0  0  0  0  0  0  0  0  0  0
  -27.2430  -27.1750   19.9240 C   0  0  0  0  0  0  0  0  0  0  0  0
  -23.4390  -30.4130   21.4230 C   0  0  0  0  0  3  0  0  0  0  0  0
  -24.8880  -28.8830   19.9540 C   0  0  0  0  0  0  0  0  0  0  0  0
  -25.9870  -30.7110   21.2390 C   0  0  0  0  0  2  0  0  0  0  0  0
  -26.0670  -29.3350   20.5580 C   0  0  0  0  0  0  0  0  0  0  0  0
  -27.2390  -28.4950   20.5320 C   0  0  0  0  0  3  0  0  0  0  0  0
  -26.0310  -26.8160   19.2920 C   0  0  0  0  0  3  0  0  0  0  0  0
  -24.8810  -27.6350   19.3130 C   0  0  0  0  0  3  0  0  0  0  0  0
  -23.6540  -29.7670   20.0280 C   0  0  0  0  0  2  0  0  0  0  0  0
  -24.7100  -30.9890   21.9700 N   0  0  0  0  0  0  0  0  0  0  0  0
  -23.5600  -32.0450   23.6270 O   0  0  0  0  0  0  0  0  0  0  0  0
  -22.7810  -29.3790   22.3700 C   0  0  0  0  0  0  0  0  0  0  0  0
  -21.4530  -29.2040   22.2560 N   0  0  0  0  0  0  0  0  0  0  0  0
  -23.4670  -28.7420   23.1730 O   0  0  0  0  0  0  0  0  0  0  0  0
  -20.9570  -29.7770   21.5890 H   0  0  0  0  0  0  0  0  0  0  0  0
  -18.0820  -27.9800   22.7690 C   0  0  0  0  0  0  0  0  0  0  0  0
  -20.6430  -28.2460   23.0150 C   0  0  0  0  0  3  0  0  0  0  0  0
  -20.7420  -26.8260   22.4080 C   0  0  0  0  0  2  0  0  0  0  0  0
  -19.6300  -26.5220   21.3990 C   0  0  0  0  0  2  0  0  0  0  0  0
  -18.2550  -26.6460   22.0620 C   0  0  0  0  0  2  0  0  0  0  0  0
  -19.2030  -28.7370   23.2020 C   0  0  0  0  0  0  0  0  0  0  0  0
  -18.9870  -29.9830   23.8290 C   0  0  0  0  0  3  0  0  0  0  0  0
  -17.6820  -30.4730   24.0250 C   0  0  0  0  0  3  0  0  0  0  0  0
  -16.5760  -29.7130   23.6080 C   0  0  0  0  0  3  0  0  0  0  0  0
  -16.7760  -28.4700   22.9840 C   0  0  0  0  0  3  0  0  0  0  0  0
  -25.9230  -32.4170   23.7090 C   0  0  0  0  0  3  0  0  0  0  0  0
  -26.4550  -31.6220   24.9650 C   0  0  1  0  0  0  0  0  0  0  0  0
  -25.3720  -31.3550   26.0380 C   0  0  0  0  0  1  0  0  0  0  0  0
  -27.0480  -30.2580   24.5430 C   0  0  0  0  0  1  0  0  0  0  0  0
  -27.6030  -32.4120   25.6350 C   0  0  0  0  0  1  0  0  0  0  0  0
  -25.6010  -33.8040   24.0790 N   0  0  0  0  0  0  0  0  0  0  0  0
  -25.9210  -34.8840   23.3530 C   0  0  0  0  0  0  0  0  0  0  0  0
  -26.5850  -34.8160   22.3140 O   0  0  0  0  0  0  0  0  0  0  0  0
  -25.0110  -33.9290   24.8880 H   0  0  0  0  0  0  0  0  0  0  0  0
  -24.1810  -36.6790   23.0600 C   0  0  0  0  0  1  0  0  0  0  0  0
  -25.4270  -36.2560   23.8560 C   0  0  0  0  0  3  0  0  0  0  0  0
  -27.5570  -37.1310   24.7080 C   0  0  0  0  0  1  0  0  0  0  0  0
  -26.4520  -37.3190   23.7720 N   0  0  0  0  0  0  0  0  0  0  0  0
  -26.0400  -38.2320   23.9440 H   0  0  0  0  0  0  0  0  0  0  0  0
  1  2  2  0
  1  4  1  0
  2  5  1  0
  3  6  1  0
  4  3  2  0
  5 16  1  0
  5  6  2  0
  6  7  1  0
  8 16  1  0
  9 14  1  0
 10 11  1  0
 10  9  1  0
 12 11  1  0
 12 21  1  0
 12 13  1  0
 14  8  1  0
 14 13  1  0
 15  8  2  0
 16 17  1  0
 18 19  2  0
 19 38  1  0
 20 19  1  0
 20 23  1  0
 21 22  1  0
 21 18  1  0
 22 20  2  0
 23 24  1  0
 24 25  2  0
 26 29  1  0
 26 25  1  0
 27 26  2  0
 28 27  1  0
 28 23  2  0
 29 30  1  0
 30 31  1  0
 31 32  2  0
 33 32  1  0
 33 37  1  0
 34 33  2  0
 35 30  2  0
 35 34  1  0
 36 35  1  0
 38 39  1  0
 39 42  1  0
 39 41  1  0
 40 38  2  0
 43 18  1  0
 43 44  1  0
 45 43  1  0
 46 47  1  0
 47  4  1  0
 47 48  1  0
 49 50  1  0
 49 48  1  0
 51 62  2  0
 52 50  1  0
 52 57  1  0
 53 61  1  0
 53 63  1  0
 54 60  1  0
 54 56  1  0
 55 61  1  0
 56 55  1  0
 57 56  2  0
 58 59  1  0
 58 52  2  0
 59 54  2  0
 60 53  1  0
 61 51  1  0
 63 65  2  0
 64 63  1  0
 66 64  1  0
 67 76  2  0
 67 72  1  0
 68 64  1  0
 68 72  1  0
 69 68  1  0
 70 71  1  0
 70 69  1  0
 71 67  1  0
 72 73  2  0
 73 74  1  0
 75 74  2  0
 76 75  1  0
 77 51  1  0
 77 82  1  0
 77 78  1  0
 78 81  1  1
 78 79  1  0
 80 78  1  0
 82 85  1  0
 83 87  1  0
 83 82  1  0
 84 83  2  0
 87 86  1  0
 89 87  1  0
 89 90  1  0
 89 88  1  0
M  ISO  4   8 100  16 100  49 101  50 101
M  END
>  <TORSDO>  (92) 
F 19

>  <SCORE>  (92) 
-14.999

>  <name>  (92) 
91

>  <ligand_id>  (92) 
91

>  <original_smiles>  (92) 
[H]c1c([H])c([H])c2c(c1[H])C([H])([H])C([H])([H])C([H])([H])C2([H])N([H])C(=O)C1([H])N(C(=O)C([H])(N([H])C(=O)C([H])(N([H])C([H])([H])[H])C([H])([H])[H])C(C([H])([H])[H])(C([H])([H])[H])C([H])([H])[H])C([H])([H])c2c([H])c(OC([H])([H])C([H])([H])N(c3c([H])c([H])c(N([H])C(=O)N4C([H])([H])C([H])([H])C([H])([H])C([H])(n5nc(-c6c([H])c([H])c(Oc7c([H])c([H])c(F)c([H])c7F)c([H])c6[H])c(C(=O)N([H])[H])c5N([H])[H])C4([H])[H])c(F)c3[H])C([H])([H])[H])c([H])c([H])c2C1([H])[H]

>  <smiles>  (92) 
[H]c1c([H])c([H])c2c(c1[H])C([H])([H])C([H])([H])C([H])([H])C2([H])N([H])C(=O)C1([H])N(C(=O)C([H])(N([H])C(=O)C([H])(N([H])C([H])([H])[H])C([H])([H])[H])C(C([H])([H])[H])(C([H])([H])[H])C([H])([H])[H])C([H])([H])c2c([H])c(OC([H])([H])C([H])([H])N(c3c([H])c([H])c(N([H])C(=O)N4C([H])([H])C([H])([H])C([H])([H])C([H])(n5nc(-c6c([H])c([H])c(Oc7c([H])c([H])c(F)c([H])c7F)c([H])c6[H])c(C(=O)N([H])[H])c5N([H])[H])C4([H])[H])c(F)c3[H])C([H])([H])[H])c([H])c([H])c2C1([H])[H]

$$$$
92:0:0
     RDKit          3D

 89 97  0  0  1  0  0  0  0  0999 V2000
  -31.3780  -18.2460   20.5400 C   0  0  0  0  0  3  0  0  0  0  0  0
  -30.8570  -20.6820   20.4990 C   0  0  0  0  0  3  0  0  0  0  0  0
  -29.0950  -19.0250   20.4070 C   0  0  0  0  0  3  0  0  0  0  0  0
  -31.7800  -19.6070   20.5600 C   0  0  0  0  0  0  0  0  0  0  0  0
  -30.0240  -17.8420   20.4630 C   0  0  0  0  0  0  0  0  0  0  0  0
  -29.4630  -20.4860   20.4180 C   0  0  0  0  0  0  0  0  0  0  0  0
  -33.2620  -19.9270   20.6410 C   0  0  0  0  0  1  0  0  0  0  0  0
  -30.4790  -15.0980   20.3170 C   0  0  0  0  0  0  0  0  0  0  0  0
  -30.3620  -12.7340   19.3610 C   0  0  0  0  0  2  0  0  0  0  0  0
  -29.4140  -12.6600   18.1420 C   0  0  0  0  0  2  0  0  0  0  0  0
  -27.9640  -12.4120   18.5980 C   0  0  0  0  0  2  0  0  0  0  0  0
  -27.5560  -13.3370   19.7750 C   0  0  0  0  0  3  0  0  0  0  0  0
  -28.6280  -13.3870   20.8860 C   0  0  0  0  0  2  0  0  0  0  0  0
  -29.8780  -13.8320   20.2550 N   0  0  0  0  0  0  0  0  0  0  0  0
  -31.6840  -15.1240   20.0340 O   0  0  0  0  0  0  0  0  0  0  0  0
  -29.7120  -16.3120   20.4730 N   0  0  0  0  0  0  0  0  0  0  0  0
  -28.7340  -16.1060   20.6090 H   0  0  0  0  0  0  0  0  0  0  0  0
  -25.1870  -13.8850   20.5640 C   0  0  0  0  0  0  0  0  0  0  0  0
  -24.1340  -13.0960   20.9430 C   0  0  0  0  0  0  0  0  0  0  0  0
  -24.6090  -11.7500   20.8870 C   0  0  0  0  0  0  0  0  0  0  0  0
  -26.2330  -13.0180   20.2950 N   0  0  0  0  0  0  0  0  0  0  0  0
  -25.8960  -11.7270   20.5570 N   0  0  0  0  0  0  0  0  0  0  0  0
  -23.8940  -10.4800   21.0730 C   0  0  0  0  0  0  0  0  0  0  0  0
  -24.3420   -9.5050   21.9920 C   0  0  0  0  0  3  0  0  0  0  0  0
  -23.6250   -8.3010   22.1660 C   0  0  0  0  0  3  0  0  0  0  0  0
  -22.4450   -8.0640   21.4200 C   0  0  0  0  0  0  0  0  0  0  0  0
  -22.0160   -9.0280   20.4910 C   0  0  0  0  0  3  0  0  0  0  0  0
  -22.7340  -10.2230   20.3150 C   0  0  0  0  0  3  0  0  0  0  0  0
  -21.6980   -6.9150   21.5050 O   0  0  0  0  0  0  0  0  0  0  0  0
  -21.6580   -6.1640   22.6540 C   0  0  0  0  0  0  0  0  0  0  0  0
  -21.2130   -6.7030   23.8800 C   0  0  0  0  0  3  0  0  0  0  0  0
  -21.1220   -5.8780   25.0190 C   0  0  0  0  0  3  0  0  0  0  0  0
  -21.4670   -4.5160   24.9330 C   0  0  0  0  0  0  0  0  0  0  0  0
  -21.9060   -3.9770   23.7110 C   0  0  0  0  0  3  0  0  0  0  0  0
  -21.9980   -4.7990   22.5740 C   0  0  0  0  0  0  0  0  0  0  0  0
  -22.4020   -4.2690   21.3930 F   0  0  0  0  0  0  0  0  0  0  0  0
  -21.3730   -3.7210   26.0250 F   0  0  0  0  0  0  0  0  0  0  0  0
  -22.7370  -13.5610   21.2370 C   0  0  0  0  0  0  0  0  0  0  0  0
  -22.0260  -12.8560   22.1080 N   0  0  0  0  0  0  0  0  0  0  0  0
  -22.2840  -14.5850   20.7280 O   0  0  0  0  0  0  0  0  0  0  0  0
  -22.4050  -12.0290   22.5450 H   0  0  0  0  0  0  0  0  0  0  0  0
  -21.0890  -13.1510   22.3470 H   0  0  0  0  0  0  0  0  0  0  0  0
  -25.3360  -15.2580   20.4000 N   0  0  0  0  0  0  0  0  0  0  0  0
  -24.5640  -15.9020   20.5360 H   0  0  0  0  0  0  0  0  0  0  0  0
  -26.1580  -15.7040   20.0150 H   0  0  0  0  0  0  0  0  0  0  0  0
  -28.5800  -21.6770   20.3460 O   0  0  0  0  0  0  0  0  0  0  0  0
  -28.9720  -23.2050   20.4080 C   0  0  0  0  0  3  0  0  0  0  0  0
  -27.9470  -24.5760   20.2080 C   0  0  0  0  0  3  0  0  0  0  0  0
  -28.2250  -26.1310   20.3500 O   0  0  0  0  0  0  0  0  0  0  0  0
  -24.6360  -31.9400   23.2650 C   0  0  0  0  0  0  0  0  0  0  0  0
  -27.1850  -27.1480   20.2770 C   0  0  0  0  0  0  0  0  0  0  0  0
  -23.4330  -30.5440   21.6310 C   0  0  0  0  0  3  0  0  0  0  0  0
  -24.8740  -28.9430   20.2210 C   0  0  0  0  0  0  0  0  0  0  0  0
  -25.9930  -30.7780   21.4750 C   0  0  0  0  0  2  0  0  0  0  0  0
  -26.0580  -29.3760   20.8300 C   0  0  0  0  0  0  0  0  0  0  0  0
  -27.2120  -28.4970   20.8360 C   0  0  0  0  0  3  0  0  0  0  0  0
  -25.9710  -26.8270   19.6310 C   0  0  0  0  0  3  0  0  0  0  0  0
  -24.8470  -27.6830   19.6040 C   0  0  0  0  0  3  0  0  0  0  0  0
  -23.6550  -29.8550   20.2580 C   0  0  0  0  0  2  0  0  0  0  0  0
  -24.7090  -31.1100   22.1780 N   0  0  0  0  0  0  0  0  0  0  0  0
  -23.5500  -32.2370   23.7850 O   0  0  0  0  0  0  0  0  0  0  0  0
  -22.7390  -29.5510   22.5980 C   0  0  0  0  0  0  0  0  0  0  0  0
  -21.4090  -29.3930   22.4670 N   0  0  0  0  0  0  0  0  0  0  0  0
  -23.4000  -28.9260   23.4310 O   0  0  0  0  0  0  0  0  0  0  0  0
  -20.9310  -29.9470   21.7700 H   0  0  0  0  0  0  0  0  0  0  0  0
  -18.0150  -28.2230   22.9660 C   0  0  0  0  0  0  0  0  0  0  0  0
  -20.5750  -28.4670   23.2400 C   0  0  0  0  0  3  0  0  0  0  0  0
  -20.6680  -27.0310   22.6750 C   0  0  0  0  0  2  0  0  0  0  0  0
  -19.5670  -26.7110   21.6580 C   0  0  0  0  0  2  0  0  0  0  0  0
  -18.1840  -26.8700   22.2960 C   0  0  0  0  0  2  0  0  0  0  0  0
  -19.1370  -28.9800   23.3950 C   0  0  0  0  0  0  0  0  0  0  0  0
  -18.9250  -30.2450   23.9830 C   0  0  0  0  0  3  0  0  0  0  0  0
  -17.6220  -30.7540   24.1460 C   0  0  0  0  0  3  0  0  0  0  0  0
  -16.5140  -29.9960   23.7310 C   0  0  0  0  0  3  0  0  0  0  0  0
  -16.7110  -28.7320   23.1470 C   0  0  0  0  0  3  0  0  0  0  0  0
  -25.9150  -32.5720   23.8950 C   0  0  0  0  0  3  0  0  0  0  0  0
  -26.4060  -31.8110   25.1890 C   0  0  1  0  0  0  0  0  0  0  0  0
  -25.2980  -31.6020   26.2480 C   0  0  0  0  0  1  0  0  0  0  0  0
  -26.9770  -30.4220   24.8270 C   0  0  0  0  0  1  0  0  0  0  0  0
  -27.5580  -32.6010   25.8530 C   0  0  0  0  0  1  0  0  0  0  0  0
  -25.6110  -33.9760   24.2130 N   0  0  0  0  0  0  0  0  0  0  0  0
  -25.9350  -35.0220   23.4410 C   0  0  0  0  0  0  0  0  0  0  0  0
  -26.5840  -34.9060   22.4000 O   0  0  0  0  0  0  0  0  0  0  0  0
  -25.0310  -34.1380   25.0220 H   0  0  0  0  0  0  0  0  0  0  0  0
  -24.1980  -36.8180   23.1270 C   0  0  0  0  0  1  0  0  0  0  0  0
  -25.4670  -36.4200   23.8980 C   0  0  0  0  0  3  0  0  0  0  0  0
  -27.6280  -37.3200   24.6420 C   0  0  0  0  0  1  0  0  0  0  0  0
  -26.4960  -37.4700   23.7320 N   0  0  0  0  0  0  0  0  0  0  0  0
  -26.0960  -38.3940   23.8740 H   0  0  0  0  0  0  0  0  0  0  0  0
  1  4  1  0
  2  4  2  0
  3  6  2  0
  3  5  1  0
  4  7  1  0
  5 16  1  0
  5  1  2  0
  6  2  1  0
  8 16  1  0
  9 14  1  0
 10 11  1  0
 10  9  1  0
 12 11  1  0
 12 21  1  0
 12 13  1  0
 14  8  1  0
 14 13  1  0
 15  8  2  0
 16 17  1  0
 18 19  2  0
 19 38  1  0
 20 19  1  0
 20 23  1  0
 21 22  1  0
 21 18  1  0
 22 20  2  0
 23 24  1  0
 24 25  2  0
 26 29  1  0
 26 25  1  0
 27 26  2  0
 28 27  1  0
 28 23  2  0
 29 30  1  0
 30 31  1  0
 31 32  2  0
 33 32  1  0
 33 37  1  0
 34 33  2  0
 35 30  2  0
 35 34  1  0
 36 35  1  0
 38 39  1  0
 39 42  1  0
 39 41  1  0
 40 38  2  0
 43 44  1  0
 43 18  1  0
 45 43  1  0
 46 47  1  0
 46  6  1  0
 48 49  1  0
 48 47  2  0
 50 61  2  0
 51 49  1  0
 51 56  1  0
 52 60  1  0
 52 62  1  0
 53 59  1  0
 53 55  1  0
 54 60  1  0
 55 56  2  0
 55 54  1  0
 57 51  2  0
 58 57  1  0
 58 53  2  0
 59 52  1  0
 60 50  1  0
 62 64  2  0
 63 62  1  0
 65 63  1  0
 66 75  2  0
 66 71  1  0
 67 63  1  0
 67 71  1  0
 68 67  1  0
 69 70  1  0
 69 68  1  0
 70 66  1  0
 71 72  2  0
 72 73  1  0
 74 73  2  0
 75 74  1  0
 76 50  1  0
 76 81  1  0
 76 77  1  0
 77 80  1  1
 77 78  1  0
 79 77  1  0
 81 84  1  0
 82 86  1  0
 82 81  1  0
 83 82  2  0
 86 85  1  0
 88 89  1  0
 88 86  1  0
 88 87  1  0
M  ISO  4   8 100  16 100  48 101  49 101
M  END
>  <TORSDO>  (93) 
F 19

>  <SCORE>  (93) 
-15.105

>  <name>  (93) 
92

>  <ligand_id>  (93) 
92

>  <original_smiles>  (93) 
[H]c1c([H])c([H])c2c(c1[H])C([H])([H])C([H])([H])C([H])([H])C2([H])N([H])C(=O)C1([H])N(C(=O)C([H])(N([H])C(=O)C([H])(N([H])C([H])([H])[H])C([H])([H])[H])C(C([H])([H])[H])(C([H])([H])[H])C([H])([H])[H])C([H])([H])c2c([H])c(OC([H])([H])C([H])([H])Oc3c([H])c(N([H])C(=O)N4C([H])([H])C([H])([H])C([H])([H])C([H])(n5nc(-c6c([H])c([H])c(Oc7c([H])c([H])c(F)c([H])c7F)c([H])c6[H])c(C(=O)N([H])[H])c5N([H])[H])C4([H])[H])c([H])c(C([H])([H])[H])c3[H])c([H])c([H])c2C1([H])[H]

>  <smiles>  (93) 
[H]c1c([H])c([H])c2c(c1[H])C([H])([H])C([H])([H])C([H])([H])C2([H])N([H])C(=O)C1([H])N(C(=O)C([H])(N([H])C(=O)C([H])(N([H])C([H])([H])[H])C([H])([H])[H])C(C([H])([H])[H])(C([H])([H])[H])C([H])([H])[H])C([H])([H])c2c([H])c(OC([H])([H])C([H])([H])Oc3c([H])c(N([H])C(=O)N4C([H])([H])C([H])([H])C([H])([H])C([H])(n5nc(-c6c([H])c([H])c(Oc7c([H])c([H])c(F)c([H])c7F)c([H])c6[H])c(C(=O)N([H])[H])c5N([H])[H])C4([H])[H])c([H])c(C([H])([H])[H])c3[H])c([H])c([H])c2C1([H])[H]

$$$$
93:0:0
     RDKit          3D

 93101  0  0  1  0  0  0  0  0999 V2000
  -30.9740  -18.7050   19.0190 C   0  0  0  0  0  3  0  0  0  0  0  0
  -30.6940  -20.0830   18.6110 C   0  0  0  0  0  3  0  0  0  0  0  0
  -28.7850  -18.5270   19.9130 C   0  0  0  0  0  0  0  0  0  0  0  0
  -30.0280  -17.8410   19.6770 C   0  0  0  0  0  0  0  0  0  0  0  0
  -29.4300  -20.7440   18.8050 C   0  0  0  0  0  0  0  0  0  0  0  0
  -28.5100  -19.8950   19.5020 C   0  0  0  0  0  0  0  0  0  0  0  0
  -27.6960  -17.7620   20.6560 C   0  0  0  0  0  1  0  0  0  0  0  0
  -31.0120  -15.2550   19.9820 C   0  0  0  0  0  0  0  0  0  0  0  0
  -31.0010  -12.7670   19.5100 C   0  0  0  0  0  2  0  0  0  0  0  0
  -30.1130  -12.4810   18.2750 C   0  0  0  0  0  2  0  0  0  0  0  0
  -28.6330  -12.3310   18.6790 C   0  0  0  0  0  2  0  0  0  0  0  0
  -28.1700  -13.4540   19.6420 C   0  0  0  0  0  3  0  0  0  0  0  0
  -29.1770  -13.6680   20.7940 C   0  0  0  0  0  2  0  0  0  0  0  0
  -30.4780  -13.9860   20.1850 N   0  0  0  0  0  0  0  0  0  0  0  0
  -32.1960  -15.3450   19.6400 O   0  0  0  0  0  0  0  0  0  0  0  0
  -30.1350  -16.3590   20.0590 N   0  0  0  0  0  0  0  0  0  0  0  0
  -29.2750  -16.0350   20.4710 H   0  0  0  0  0  0  0  0  0  0  0  0
  -25.8220  -14.1700   20.3850 C   0  0  0  0  0  0  0  0  0  0  0  0
  -24.7130  -13.4570   20.7450 C   0  0  0  0  0  0  0  0  0  0  0  0
  -25.0900  -12.0800   20.6770 C   0  0  0  0  0  0  0  0  0  0  0  0
  -26.8110  -13.2340   20.1280 N   0  0  0  0  0  0  0  0  0  0  0  0
  -26.3750  -11.9690   20.3640 N   0  0  0  0  0  0  0  0  0  0  0  0
  -24.2830  -10.8640   20.8320 C   0  0  0  0  0  0  0  0  0  0  0  0
  -24.6570   -9.8370   21.7270 C   0  0  0  0  0  3  0  0  0  0  0  0
  -23.8520   -8.6860   21.8720 C   0  0  0  0  0  3  0  0  0  0  0  0
  -22.6580   -8.5550   21.1230 C   0  0  0  0  0  0  0  0  0  0  0  0
  -22.3030   -9.5690   20.2170 C   0  0  0  0  0  3  0  0  0  0  0  0
  -23.1070  -10.7110   20.0680 C   0  0  0  0  0  3  0  0  0  0  0  0
  -21.8300   -7.4610   21.1810 O   0  0  0  0  0  0  0  0  0  0  0  0
  -21.7460   -6.6800   22.3050 C   0  0  0  0  0  0  0  0  0  0  0  0
  -21.3620   -7.2120   23.5550 C   0  0  0  0  0  3  0  0  0  0  0  0
  -21.2220   -6.3610   24.6710 C   0  0  0  0  0  3  0  0  0  0  0  0
  -21.4540   -4.9800   24.5360 C   0  0  0  0  0  0  0  0  0  0  0  0
  -21.8320   -4.4470   23.2900 C   0  0  0  0  0  3  0  0  0  0  0  0
  -21.9740   -5.2940   22.1780 C   0  0  0  0  0  0  0  0  0  0  0  0
  -22.3160   -4.7730   20.9750 F   0  0  0  0  0  0  0  0  0  0  0  0
  -21.3120   -4.1600   25.6040 F   0  0  0  0  0  0  0  0  0  0  0  0
  -23.3500  -14.0170   21.0310 C   0  0  0  0  0  0  0  0  0  0  0  0
  -22.5820  -13.3540   21.8890 N   0  0  0  0  0  0  0  0  0  0  0  0
  -22.9760  -15.0770   20.5300 O   0  0  0  0  0  0  0  0  0  0  0  0
  -22.8960  -12.4950   22.3150 H   0  0  0  0  0  0  0  0  0  0  0  0
  -21.6670  -13.7120   22.1230 H   0  0  0  0  0  0  0  0  0  0  0  0
  -26.0630  -15.5300   20.2240 N   0  0  0  0  0  0  0  0  0  0  0  0
  -25.3200  -16.2130   20.3240 H   0  0  0  0  0  0  0  0  0  0  0  0
  -26.8980  -15.9170   19.8050 H   0  0  0  0  0  0  0  0  0  0  0  0
  -27.3170  -21.5720   20.6040 C   0  0  0  0  0  1  0  0  0  0  0  0
  -27.2710  -20.4240   19.7670 O   0  0  0  0  0  0  0  0  0  0  0  0
  -28.9400  -22.0670   18.3340 N   0  0  0  0  0  0  0  0  0  0  0  0
  -27.9240  -22.0710   18.3730 H   0  0  0  0  0  0  0  0  0  0  0  0
  -30.4760  -23.8080   19.2730 C   0  0  0  0  0  1  0  0  0  0  0  0
  -29.4810  -23.5070   18.1470 C   0  0  0  0  0  3  0  0  0  0  0  0
  -28.3810  -24.7770   18.0340 C   0  0  0  0  0  2  0  0  0  0  0  0
  -28.6040  -26.2950   18.2610 O   0  0  0  0  0  0  0  0  0  0  0  0
  -24.8030  -30.7690   22.7120 C   0  0  0  0  0  0  0  0  0  0  0  0
  -27.4950  -27.1880   18.4860 C   0  0  0  0  0  0  0  0  0  0  0  0
  -23.6190  -29.8160   20.7720 C   0  0  0  0  0  3  0  0  0  0  0  0
  -25.0910  -28.7530   18.9580 C   0  0  0  0  0  0  0  0  0  0  0  0
  -26.1530  -30.2370   20.6500 C   0  0  0  0  0  2  0  0  0  0  0  0
  -26.2670  -29.0780   19.6470 C   0  0  0  0  0  0  0  0  0  0  0  0
  -27.4690  -28.3160   19.3980 C   0  0  0  0  0  3  0  0  0  0  0  0
  -26.2840  -26.9640   17.7910 C   0  0  0  0  0  3  0  0  0  0  0  0
  -25.1110  -27.7120   18.0190 C   0  0  0  0  0  3  0  0  0  0  0  0
  -23.8320  -29.5470   19.2590 C   0  0  0  0  0  2  0  0  0  0  0  0
  -24.8790  -30.2800   21.4360 N   0  0  0  0  0  0  0  0  0  0  0  0
  -23.7200  -30.8530   23.3110 O   0  0  0  0  0  0  0  0  0  0  0  0
  -23.0040  -28.5570   21.4330 C   0  0  0  0  0  0  0  0  0  0  0  0
  -21.6790  -28.3750   21.2910 N   0  0  0  0  0  0  0  0  0  0  0  0
  -23.7200  -27.7570   22.0400 O   0  0  0  0  0  0  0  0  0  0  0  0
  -21.1550  -29.0800   20.7920 H   0  0  0  0  0  0  0  0  0  0  0  0
  -18.3480  -26.9760   21.5570 C   0  0  0  0  0  0  0  0  0  0  0  0
  -20.9110  -27.2320   21.7920 C   0  0  0  0  0  3  0  0  0  0  0  0
  -21.0150  -26.0260   20.8300 C   0  0  0  0  0  2  0  0  0  0  0  0
  -19.8760  -25.9700   19.8070 C   0  0  0  0  0  2  0  0  0  0  0  0
  -18.5210  -25.8810   20.5170 C   0  0  0  0  0  2  0  0  0  0  0  0
  -19.4700  -27.6190   22.1430 C   0  0  0  0  0  0  0  0  0  0  0  0
  -19.2520  -28.6520   23.0820 C   0  0  0  0  0  3  0  0  0  0  0  0
  -17.9460  -29.0400   23.4350 C   0  0  0  0  0  3  0  0  0  0  0  0
  -16.8400  -28.3900   22.8610 C   0  0  0  0  0  3  0  0  0  0  0  0
  -17.0430  -27.3580   21.9280 C   0  0  0  0  0  3  0  0  0  0  0  0
  -26.0720  -31.2670   23.4700 C   0  0  0  0  0  3  0  0  0  0  0  0
  -26.6110  -30.2250   24.5270 C   0  0  1  0  0  0  0  0  0  0  0  0
  -25.5300  -29.7180   25.5100 C   0  0  0  0  0  1  0  0  0  0  0  0
  -27.2180  -28.9900   23.8210 C   0  0  0  0  0  1  0  0  0  0  0  0
  -27.7510  -30.8630   25.3550 C   0  0  0  0  0  1  0  0  0  0  0  0
  -25.7280  -32.5360   24.1310 N   0  0  0  0  0  0  0  0  0  0  0  0
  -26.0270  -33.7510   23.6540 C   0  0  0  0  0  0  0  0  0  0  0  0
  -26.6870  -33.9210   22.6260 O   0  0  0  0  0  0  0  0  0  0  0  0
  -25.1370  -32.4750   24.9460 H   0  0  0  0  0  0  0  0  0  0  0  0
  -24.2540  -35.5340   23.7610 C   0  0  0  0  0  1  0  0  0  0  0  0
  -25.5140  -34.9730   24.4400 C   0  0  0  0  0  3  0  0  0  0  0  0
  -27.6340  -35.6850   25.4530 C   0  0  0  0  0  1  0  0  0  0  0  0
  -26.5200  -36.0490   24.5820 N   0  0  0  0  0  0  0  0  0  0  0  0
  -26.0940  -36.8950   24.9490 H   0  0  0  0  0  0  0  0  0  0  0  0
  1  4  1  0
  2  5  1  0
  2  1  2  0
  3  7  1  0
  4  3  2  0
  4 16  1  0
  5  6  2  0
  6 47  1  0
  6  3  1  0
  8 16  1  0
  8 14  1  0
  9 14  1  0
 10 11  1  0
 10  9  1  0
 12 11  1  0
 12 21  1  0
 12 13  1  0
 14 13  1  0
 15  8  2  0
 16 17  1  0
 18 19  2  0
 19 38  1  0
 20 19  1  0
 20 23  1  0
 21 22  1  0
 21 18  1  0
 22 20  2  0
 23 24  1  0
 24 25  2  0
 26 29  1  0
 26 25  1  0
 27 26  2  0
 28 27  1  0
 28 23  2  0
 29 30  1  0
 30 31  1  0
 31 32  2  0
 33 32  1  0
 33 37  1  0
 34 33  2  0
 35 30  2  0
 35 34  1  0
 36 35  1  0
 38 39  1  0
 39 42  1  0
 39 41  1  0
 40 38  2  0
 43 44  1  0
 43 18  1  0
 45 43  1  0
 47 46  1  0
 48 49  1  0
 48  5  1  0
 51 48  1  0
 51 50  1  0
 52 51  1  0
 52 53  1  0
 53 55  1  0
 54 65  2  0
 55 60  1  0
 56 66  1  0
 56 64  1  0
 57 63  1  0
 57 59  1  0
 58 64  1  0
 59 58  1  0
 60 59  2  0
 61 62  1  0
 61 55  2  0
 62 57  2  0
 63 56  1  0
 64 54  1  0
 66 68  2  0
 67 66  1  0
 69 67  1  0
 70 79  2  0
 70 75  1  0
 71 67  1  0
 71 75  1  0
 72 71  1  0
 73 74  1  0
 73 72  1  0
 74 70  1  0
 75 76  2  0
 76 77  1  0
 78 77  2  0
 79 78  1  0
 80 54  1  0
 80 85  1  0
 80 81  1  0
 81 84  1  1
 81 82  1  0
 83 81  1  0
 85 88  1  0
 86 85  1  0
 86 90  1  0
 87 86  2  0
 90 89  1  0
 90 92  1  0
 92 93  1  0
 92 91  1  0
M  ISO  4   8 100  16 100  52 101  53 101
M  END
>  <TORSDO>  (94) 
F 20

>  <SCORE>  (94) 
-9.742

>  <name>  (94) 
93

>  <ligand_id>  (94) 
93

>  <original_smiles>  (94) 
[H]c1c([H])c([H])c2c(c1[H])C([H])([H])C([H])([H])C([H])([H])C2([H])N([H])C(=O)C1([H])N(C(=O)C([H])(N([H])C(=O)C([H])(N([H])C([H])([H])[H])C([H])([H])[H])C(C([H])([H])[H])(C([H])([H])[H])C([H])([H])[H])C([H])([H])c2c([H])c(OC([H])([H])C([H])(N([H])c3c([H])c([H])c(N([H])C(=O)N4C([H])([H])C([H])([H])C([H])([H])C([H])(n5nc(-c6c([H])c([H])c(Oc7c([H])c([H])c(F)c([H])c7F)c([H])c6[H])c(C(=O)N([H])[H])c5N([H])[H])C4([H])[H])c(C([H])([H])[H])c3OC([H])([H])[H])C([H])([H])[H])c([H])c([H])c2C1([H])[H]

>  <smiles>  (94) 
[H]c1c([H])c([H])c2c(c1[H])C([H])([H])C([H])([H])C([H])([H])C2([H])N([H])C(=O)C1([H])N(C(=O)C([H])(N([H])C(=O)C([H])(N([H])C([H])([H])[H])C([H])([H])[H])C(C([H])([H])[H])(C([H])([H])[H])C([H])([H])[H])C([H])([H])c2c([H])c(OC([H])([H])C([H])(N([H])c3c([H])c([H])c(N([H])C(=O)N4C([H])([H])C([H])([H])C([H])([H])C([H])(n5nc(-c6c([H])c([H])c(Oc7c([H])c([H])c(F)c([H])c7F)c([H])c6[H])c(C(=O)N([H])[H])c5N([H])[H])C4([H])[H])c(C([H])([H])[H])c3OC([H])([H])[H])C([H])([H])[H])c([H])c([H])c2C1([H])[H]

$$$$
94:0:0
     RDKit          3D

 96104  0  0  1  0  0  0  0  0999 V2000
  -29.9380  -18.7150   19.4280 C   0  0  0  0  0  3  0  0  0  0  0  0
  -31.1890  -20.4840   20.5270 C   0  0  0  0  0  3  0  0  0  0  0  0
  -32.0470  -18.1760   20.5070 C   0  0  0  0  0  3  0  0  0  0  0  0
  -30.0480  -20.1250   19.7850 C   0  0  0  0  0  0  0  0  0  0  0  0
  -30.9380  -17.7130   19.7630 C   0  0  0  0  0  0  0  0  0  0  0  0
  -32.1630  -19.5320   20.9180 C   0  0  0  0  0  0  0  0  0  0  0  0
  -31.6100  -15.1630   19.8340 C   0  0  0  0  0  0  0  0  0  0  0  0
  -31.4500  -12.7180   19.3160 C   0  0  0  0  0  2  0  0  0  0  0  0
  -30.5040  -12.4940   18.1150 C   0  0  0  0  0  2  0  0  0  0  0  0
  -29.0360  -12.4010   18.5830 C   0  0  0  0  0  2  0  0  0  0  0  0
  -28.6460  -13.5370   19.5660 C   0  0  0  0  0  3  0  0  0  0  0  0
  -29.7080  -13.7110   20.6720 C   0  0  0  0  0  2  0  0  0  0  0  0
  -30.9960  -13.9430   20.0040 N   0  0  0  0  0  0  0  0  0  0  0  0
  -32.8160  -15.2220   19.5900 O   0  0  0  0  0  0  0  0  0  0  0  0
  -30.7780  -16.2480   19.5870 N   0  0  0  0  0  0  0  0  0  0  0  0
  -29.8250  -15.9630   19.4270 H   0  0  0  0  0  0  0  0  0  0  0  0
  -26.3910  -14.3180   20.5070 C   0  0  0  0  0  0  0  0  0  0  0  0
  -25.2590  -13.6370   20.8610 C   0  0  0  0  0  0  0  0  0  0  0  0
  -25.5540  -12.2530   20.6690 C   0  0  0  0  0  0  0  0  0  0  0  0
  -27.3050  -13.3550   20.1130 N   0  0  0  0  0  0  0  0  0  0  0  0
  -26.8120  -12.0990   20.2740 N   0  0  0  0  0  0  0  0  0  0  0  0
  -24.6920  -11.0690   20.7790 C   0  0  0  0  0  0  0  0  0  0  0  0
  -25.0280   -9.9860   21.6210 C   0  0  0  0  0  3  0  0  0  0  0  0
  -24.1710   -8.8680   21.7230 C   0  0  0  0  0  3  0  0  0  0  0  0
  -22.9670   -8.8270   20.9820 C   0  0  0  0  0  0  0  0  0  0  0  0
  -22.6500   -9.8960   20.1260 C   0  0  0  0  0  3  0  0  0  0  0  0
  -23.5050  -11.0060   20.0220 C   0  0  0  0  0  3  0  0  0  0  0  0
  -22.0910   -7.7690   20.9940 O   0  0  0  0  0  0  0  0  0  0  0  0
  -21.9610   -6.9550   22.0930 C   0  0  0  0  0  0  0  0  0  0  0  0
  -21.5240   -7.4540   23.3400 C   0  0  0  0  0  3  0  0  0  0  0  0
  -21.3380   -6.5710   24.4220 C   0  0  0  0  0  3  0  0  0  0  0  0
  -21.5780   -5.1930   24.2590 C   0  0  0  0  0  0  0  0  0  0  0  0
  -22.0090   -4.6960   23.0170 C   0  0  0  0  0  3  0  0  0  0  0  0
  -22.1970   -5.5750   21.9350 C   0  0  0  0  0  0  0  0  0  0  0  0
  -22.5910   -5.0880   20.7340 F   0  0  0  0  0  0  0  0  0  0  0  0
  -21.3920   -4.3450   25.2970 F   0  0  0  0  0  0  0  0  0  0  0  0
  -23.9430  -14.2410   21.2590 C   0  0  0  0  0  0  0  0  0  0  0  0
  -23.1890  -13.5630   22.1170 N   0  0  0  0  0  0  0  0  0  0  0  0
  -23.5970  -15.3490   20.8490 O   0  0  0  0  0  0  0  0  0  0  0  0
  -23.4830  -12.6690   22.4800 H   0  0  0  0  0  0  0  0  0  0  0  0
  -22.3070  -13.9510   22.4210 H   0  0  0  0  0  0  0  0  0  0  0  0
  -26.7070  -15.6720   20.4650 N   0  0  0  0  0  0  0  0  0  0  0  0
  -26.0270  -16.3860   20.7100 H   0  0  0  0  0  0  0  0  0  0  0  0
  -27.5860  -16.0610   20.1560 H   0  0  0  0  0  0  0  0  0  0  0  0
  -29.0050  -21.2630   19.3720 C   0  0  0  0  0  2  0  0  0  0  0  0
  -28.5470  -23.8440   19.6820 C   0  0  0  0  0  0  0  0  0  0  0  0
  -28.8340  -22.5680   20.1590 N   0  0  0  0  0  0  0  0  0  0  0  0
  -28.5360  -24.0560   18.4680 O   0  0  0  0  0  0  0  0  0  0  0  0
  -28.8430  -22.4680   21.1640 H   0  0  0  0  0  0  0  0  0  0  0  0
  -28.1920  -25.0680   20.6640 C   0  0  0  0  0  2  0  0  0  0  0  0
  -28.3840  -26.4840   20.1750 O   0  0  0  0  0  0  0  0  0  0  0  0
  -24.6410  -31.9250   23.2330 C   0  0  0  0  0  0  0  0  0  0  0  0
  -27.2720  -27.3570   20.1730 C   0  0  0  0  0  0  0  0  0  0  0  0
  -23.4380  -30.5160   21.6000 C   0  0  0  0  0  3  0  0  0  0  0  0
  -24.8960  -28.9720   20.1660 C   0  0  0  0  0  0  0  0  0  0  0  0
  -25.9770  -30.8510   21.3990 C   0  0  0  0  0  2  0  0  0  0  0  0
  -26.0660  -29.4690   20.7540 C   0  0  0  0  0  0  0  0  0  0  0  0
  -27.2600  -28.6780   20.7400 C   0  0  0  0  0  3  0  0  0  0  0  0
  -26.0810  -26.9260   19.5540 C   0  0  0  0  0  3  0  0  0  0  0  0
  -24.9080  -27.7090   19.5530 C   0  0  0  0  0  3  0  0  0  0  0  0
  -23.6510  -29.8390   20.2200 C   0  0  0  0  0  2  0  0  0  0  0  0
  -24.7040  -31.1170   22.1330 N   0  0  0  0  0  0  0  0  0  0  0  0
  -23.5590  -32.1930   23.7760 O   0  0  0  0  0  0  0  0  0  0  0  0
  -22.7890  -29.4980   22.5670 C   0  0  0  0  0  0  0  0  0  0  0  0
  -21.4700  -29.2820   22.4270 N   0  0  0  0  0  0  0  0  0  0  0  0
  -23.4750  -28.9010   23.4020 O   0  0  0  0  0  0  0  0  0  0  0  0
  -20.9740  -29.8160   21.7270 H   0  0  0  0  0  0  0  0  0  0  0  0
  -18.1250  -27.9810   22.8940 C   0  0  0  0  0  0  0  0  0  0  0  0
  -20.6690  -28.3320   23.2010 C   0  0  0  0  0  3  0  0  0  0  0  0
  -20.8280  -26.8940   22.6550 C   0  0  0  0  0  2  0  0  0  0  0  0
  -19.7560  -26.5160   21.6280 C   0  0  0  0  0  2  0  0  0  0  0  0
  -18.3590  -26.6270   22.2450 C   0  0  0  0  0  2  0  0  0  0  0  0
  -19.2100  -28.7870   23.3290 C   0  0  0  0  0  0  0  0  0  0  0  0
  -18.9390  -30.0520   23.8950 C   0  0  0  0  0  3  0  0  0  0  0  0
  -17.6150  -30.5110   24.0290 C   0  0  0  0  0  3  0  0  0  0  0  0
  -16.5450  -29.7020   23.6080 C   0  0  0  0  0  3  0  0  0  0  0  0
  -16.8010  -28.4380   23.0460 C   0  0  0  0  0  3  0  0  0  0  0  0
  -25.9220  -32.5700   23.8460 C   0  0  0  0  0  3  0  0  0  0  0  0
  -25.6140  -33.9780   24.1400 N   0  0  0  0  0  0  0  0  0  0  0  0
  -25.9120  -35.0080   23.3360 C   0  0  0  0  0  0  0  0  0  0  0  0
  -26.5440  -34.8730   22.2860 O   0  0  0  0  0  0  0  0  0  0  0  0
  -25.0470  -34.1540   24.9560 H   0  0  0  0  0  0  0  0  0  0  0  0
  -24.1470  -36.7710   23.0080 C   0  0  0  0  0  1  0  0  0  0  0  0
  -25.4320  -36.4090   23.7670 C   0  0  0  0  0  3  0  0  0  0  0  0
  -27.5920  -37.3540   24.4580 C   0  0  0  0  0  1  0  0  0  0  0  0
  -26.4450  -37.4670   23.5600 N   0  0  0  0  0  0  0  0  0  0  0  0
  -26.0320  -38.3880   23.6880 H   0  0  0  0  0  0  0  0  0  0  0  0
  -26.4270  -31.8320   25.1470 C   0  0  1  0  0  0  0  0  0  0  0  0
  -25.3180  -31.5960   26.1980 C   0  0  0  0  0  1  0  0  0  0  0  0
  -27.0390  -30.4570   24.7920 C   0  0  0  0  0  1  0  0  0  0  0  0
  -27.5500  -32.6580   25.8150 C   0  0  0  0  0  1  0  0  0  0  0  0
  -33.1950  -19.9450   21.7880 N   0  0  0  0  0  0  0  0  0  0  0  0
  -32.0670  -21.0790   23.7470 C   0  0  0  0  0  1  0  0  0  0  0  0
  -32.9730  -21.2090   22.5060 C   0  0  0  0  0  2  0  0  0  0  0  0
  -35.5220  -19.5050   22.5730 C   0  0  0  0  0  1  0  0  0  0  0  0
  -34.1110  -18.9400   22.3350 C   0  0  0  0  0  2  0  0  0  0  0  0
  1  5  2  0
  1  4  1  0
  2  6  1  0
  3  6  2  0
  4  2  2  0
  5  3  1  0
  6 92  1  0
  7 13  1  0
  8 13  1  0
  9 10  1  0
  9  8  1  0
 11 10  1  0
 11 20  1  0
 11 12  1  0
 13 12  1  0
 14  7  2  0
 15  5  1  0
 15  7  1  0
 16 15  1  0
 17 18  2  0
 18 37  1  0
 19 22  1  0
 19 18  1  0
 20 21  1  0
 20 17  1  0
 21 19  2  0
 22 23  1  0
 23 24  2  0
 25 28  1  0
 25 24  1  0
 26 25  2  0
 27 26  1  0
 27 22  2  0
 28 29  1  0
 29 30  1  0
 30 31  2  0
 32 31  1  0
 32 36  1  0
 33 32  2  0
 34 29  2  0
 34 33  1  0
 35 34  1  0
 37 38  1  0
 38 41  1  0
 38 40  1  0
 39 37  2  0
 42 17  1  0
 42 43  1  0
 44 42  1  0
 45  4  1  0
 45 47  1  0
 46 47  1  0
 46 50  1  0
 47 49  1  0
 48 46  2  0
 51 50  1  0
 52 63  2  0
 53 51  1  0
 53 58  1  0
 54 62  1  0
 54 64  1  0
 55 61  1  0
 55 57  1  0
 56 62  1  0
 57 56  1  0
 58 57  2  0
 59 53  2  0
 60 59  1  0
 60 55  2  0
 61 54  1  0
 62 52  1  0
 64 66  2  0
 65 64  1  0
 67 65  1  0
 68 77  2  0
 68 73  1  0
 69 65  1  0
 69 73  1  0
 70 69  1  0
 71 72  1  0
 71 70  1  0
 72 68  1  0
 73 74  2  0
 74 75  1  0
 76 75  2  0
 77 76  1  0
 78 52  1  0
 78 79  1  0
 78 88  1  0
 79 82  1  0
 80 84  1  0
 80 79  1  0
 81 80  2  0
 84 83  1  0
 86 87  1  0
 86 84  1  0
 86 85  1  0
 88 91  1  1
 88 89  1  0
 90 88  1  0
 92 96  1  0
 92 94  1  0
 94 93  1  0
 96 95  1  0
M  ISO  4   7 100  15 100  50 101  51 101
M  END
>  <TORSDO>  (95) 
F 22

>  <SCORE>  (95) 
-10.848

>  <name>  (95) 
94

>  <ligand_id>  (95) 
94

>  <original_smiles>  (95) 
[H]c1c([H])c([H])c2c(c1[H])C([H])([H])C([H])([H])C([H])([H])C2([H])N([H])C(=O)C1([H])N(C(=O)C([H])(N([H])C(=O)C([H])(N([H])C([H])([H])[H])C([H])([H])[H])C(C([H])([H])[H])(C([H])([H])[H])C([H])([H])[H])C([H])([H])c2c([H])c(OC([H])([H])C(=O)N([H])C([H])([H])c3c([H])c(N([H])C(=O)N4C([H])([H])C([H])([H])C([H])([H])C([H])(n5nc(-c6c([H])c([H])c(Oc7c([H])c([H])c(F)c([H])c7F)c([H])c6[H])c(C(=O)N([H])[H])c5N([H])[H])C4([H])[H])c([H])c(N(C([H])([H])C([H])([H])[H])C([H])([H])C([H])([H])[H])c3[H])c([H])c([H])c2C1([H])[H]

>  <smiles>  (95) 
[H]c1c([H])c([H])c2c(c1[H])C([H])([H])C([H])([H])C([H])([H])C2([H])N([H])C(=O)C1([H])N(C(=O)C([H])(N([H])C(=O)C([H])(N([H])C([H])([H])[H])C([H])([H])[H])C(C([H])([H])[H])(C([H])([H])[H])C([H])([H])[H])C([H])([H])c2c([H])c(OC([H])([H])C(=O)N([H])C([H])([H])c3c([H])c(N([H])C(=O)N4C([H])([H])C([H])([H])C([H])([H])C([H])(n5nc(-c6c([H])c([H])c(Oc7c([H])c([H])c(F)c([H])c7F)c([H])c6[H])c(C(=O)N([H])[H])c5N([H])[H])C4([H])[H])c([H])c(N(C([H])([H])C([H])([H])[H])C([H])([H])C([H])([H])[H])c3[H])c([H])c([H])c2C1([H])[H]

$$$$
95:0:0
     RDKit          3D

 91 99  0  0  1  0  0  0  0  0999 V2000
  -29.0610  -23.4450   20.0910 C   0  0  0  0  0  0  0  0  0  0  0  0
  -28.6380  -22.1120   19.8760 N   0  0  0  0  0  0  0  0  0  0  0  0
  -30.1620  -23.6750   20.5980 O   0  0  0  0  0  0  0  0  0  0  0  0
  -27.6940  -22.1210   19.5110 H   0  0  0  0  0  0  0  0  0  0  0  0
  -30.6760  -18.6590   20.4740 C   0  0  0  0  0  3  0  0  0  0  0  0
  -30.3890  -20.0980   20.4000 C   0  0  0  0  0  3  0  0  0  0  0  0
  -28.4350  -18.2030   19.9100 C   0  0  0  0  0  3  0  0  0  0  0  0
  -29.7010  -17.6200   20.2340 C   0  0  0  0  0  0  0  0  0  0  0  0
  -29.1000  -20.6600   20.0640 C   0  0  0  0  0  0  0  0  0  0  0  0
  -28.1500  -19.6160   19.8190 C   0  0  0  0  0  0  0  0  0  0  0  0
  -26.5400  -20.0680   19.3770 Cl  0  0  0  0  0  0  0  0  0  0  0  0
  -30.6570  -15.0090   20.0000 C   0  0  0  0  0  0  0  0  0  0  0  0
  -30.5170  -12.6940   18.9780 C   0  0  0  0  0  2  0  0  0  0  0  0
  -29.5020  -12.7160   17.8100 C   0  0  0  0  0  2  0  0  0  0  0  0
  -28.0640  -12.4930   18.3190 C   0  0  0  0  0  2  0  0  0  0  0  0
  -27.7380  -13.3590   19.5620 C   0  0  0  0  0  3  0  0  0  0  0  0
  -28.8620  -13.2950   20.6200 C   0  0  0  0  0  2  0  0  0  0  0  0
  -30.1030  -13.7310   19.9610 N   0  0  0  0  0  0  0  0  0  0  0  0
  -31.8250  -15.1520   19.6230 O   0  0  0  0  0  0  0  0  0  0  0  0
  -29.7920  -16.0880   20.2970 N   0  0  0  0  0  0  0  0  0  0  0  0
  -28.9060  -15.6880   20.5660 H   0  0  0  0  0  0  0  0  0  0  0  0
  -25.4040  -13.9140   20.4600 C   0  0  0  0  0  0  0  0  0  0  0  0
  -24.3620  -13.1260   20.8680 C   0  0  0  0  0  0  0  0  0  0  0  0
  -24.8220  -11.7780   20.7590 C   0  0  0  0  0  0  0  0  0  0  0  0
  -26.4290  -13.0460   20.1260 N   0  0  0  0  0  0  0  0  0  0  0  0
  -26.0920  -11.7540   20.3690 N   0  0  0  0  0  0  0  0  0  0  0  0
  -24.1050  -10.5090   20.9440 C   0  0  0  0  0  0  0  0  0  0  0  0
  -24.5260   -9.5550   21.8950 C   0  0  0  0  0  3  0  0  0  0  0  0
  -23.8090   -8.3520   22.0690 C   0  0  0  0  0  3  0  0  0  0  0  0
  -22.6540   -8.0950   21.2930 C   0  0  0  0  0  0  0  0  0  0  0  0
  -22.2510   -9.0380   20.3310 C   0  0  0  0  0  3  0  0  0  0  0  0
  -22.9700  -10.2330   20.1560 C   0  0  0  0  0  3  0  0  0  0  0  0
  -21.9100   -6.9430   21.3750 O   0  0  0  0  0  0  0  0  0  0  0  0
  -21.7500   -6.2720   22.5600 C   0  0  0  0  0  0  0  0  0  0  0  0
  -21.1550   -6.8830   23.6870 C   0  0  0  0  0  3  0  0  0  0  0  0
  -20.9440   -6.1370   24.8630 C   0  0  0  0  0  3  0  0  0  0  0  0
  -21.3190   -4.7810   24.9140 C   0  0  0  0  0  0  0  0  0  0  0  0
  -21.9070   -4.1700   23.7930 C   0  0  0  0  0  3  0  0  0  0  0  0
  -22.1180   -4.9130   22.6190 C   0  0  0  0  0  0  0  0  0  0  0  0
  -22.6650   -4.3130   21.5340 F   0  0  0  0  0  0  0  0  0  0  0  0
  -21.1110   -4.0630   26.0430 F   0  0  0  0  0  0  0  0  0  0  0  0
  -22.9830  -13.5940   21.2360 C   0  0  0  0  0  0  0  0  0  0  0  0
  -22.3100  -12.8740   22.1270 N   0  0  0  0  0  0  0  0  0  0  0  0
  -22.5160  -14.6310   20.7700 O   0  0  0  0  0  0  0  0  0  0  0  0
  -22.7030  -12.0350   22.5260 H   0  0  0  0  0  0  0  0  0  0  0  0
  -21.3880  -13.1690   22.4150 H   0  0  0  0  0  0  0  0  0  0  0  0
  -25.5550  -15.2900   20.3160 N   0  0  0  0  0  0  0  0  0  0  0  0
  -24.7750  -15.9230   20.4620 H   0  0  0  0  0  0  0  0  0  0  0  0
  -26.3270  -15.7230   19.8300 H   0  0  0  0  0  0  0  0  0  0  0  0
  -28.1030  -24.7250   19.6530 C   0  0  0  0  0  2  0  0  0  0  0  0
  -28.3840  -26.2240   19.9700 O   0  0  0  0  0  0  0  0  0  0  0  0
  -24.5450  -31.6820   23.1290 C   0  0  0  0  0  0  0  0  0  0  0  0
  -27.3000  -27.1790   19.9360 C   0  0  0  0  0  0  0  0  0  0  0  0
  -23.4000  -30.3040   21.4370 C   0  0  0  0  0  3  0  0  0  0  0  0
  -24.9080  -28.8380   19.9640 C   0  0  0  0  0  0  0  0  0  0  0  0
  -25.9450  -30.6660   21.2940 C   0  0  0  0  0  2  0  0  0  0  0  0
  -26.0710  -29.3030   20.5920 C   0  0  0  0  0  0  0  0  0  0  0  0
  -27.2670  -28.4900   20.5630 C   0  0  0  0  0  3  0  0  0  0  0  0
  -26.1030  -26.8200   19.2740 C   0  0  0  0  0  3  0  0  0  0  0  0
  -24.9360  -27.6090   19.2930 C   0  0  0  0  0  3  0  0  0  0  0  0
  -23.6500  -29.6880   20.0370 C   0  0  0  0  0  2  0  0  0  0  0  0
  -24.6490  -30.9030   22.0090 N   0  0  0  0  0  0  0  0  0  0  0  0
  -23.4460  -31.9100   23.6600 O   0  0  0  0  0  0  0  0  0  0  0  0
  -22.7550  -29.2380   22.3600 C   0  0  0  0  0  0  0  0  0  0  0  0
  -21.4390  -29.0080   22.2030 N   0  0  0  0  0  0  0  0  0  0  0  0
  -23.4410  -28.6230   23.1790 O   0  0  0  0  0  0  0  0  0  0  0  0
  -20.9390  -29.5590   21.5190 H   0  0  0  0  0  0  0  0  0  0  0  0
  -18.1020  -27.6660   22.6450 C   0  0  0  0  0  0  0  0  0  0  0  0
  -20.6490  -28.0130   22.9360 C   0  0  0  0  0  3  0  0  0  0  0  0
  -20.8070  -26.6070   22.3110 C   0  0  0  0  0  2  0  0  0  0  0  0
  -19.7210  -26.2800   21.2800 C   0  0  0  0  0  2  0  0  0  0  0  0
  -18.3320  -26.3500   21.9210 C   0  0  0  0  0  2  0  0  0  0  0  0
  -19.1900  -28.4550   23.1080 C   0  0  0  0  0  0  0  0  0  0  0  0
  -18.9190  -29.6840   23.7460 C   0  0  0  0  0  3  0  0  0  0  0  0
  -17.5960  -30.1270   23.9250 C   0  0  0  0  0  3  0  0  0  0  0  0
  -16.5230  -29.3370   23.4760 C   0  0  0  0  0  3  0  0  0  0  0  0
  -16.7780  -28.1080   22.8420 C   0  0  0  0  0  3  0  0  0  0  0  0
  -25.7970  -32.3410   23.7840 C   0  0  0  0  0  3  0  0  0  0  0  0
  -25.4530  -33.7330   24.1070 N   0  0  0  0  0  0  0  0  0  0  0  0
  -25.7520  -34.7930   23.3420 C   0  0  0  0  0  0  0  0  0  0  0  0
  -26.4130  -34.7000   22.3060 O   0  0  0  0  0  0  0  0  0  0  0  0
  -24.8610  -33.8770   24.9130 H   0  0  0  0  0  0  0  0  0  0  0  0
  -23.9630  -36.5340   23.0200 C   0  0  0  0  0  1  0  0  0  0  0  0
  -25.2380  -36.1720   23.8010 C   0  0  0  0  0  3  0  0  0  0  0  0
  -27.3590  -37.1370   24.5750 C   0  0  0  0  0  1  0  0  0  0  0  0
  -26.2370  -37.2530   23.6470 N   0  0  0  0  0  0  0  0  0  0  0  0
  -25.8060  -38.1640   23.7800 H   0  0  0  0  0  0  0  0  0  0  0  0
  -26.2900  -31.5810   25.0770 C   0  0  1  0  0  0  0  0  0  0  0  0
  -25.1720  -31.3290   26.1150 C   0  0  0  0  0  1  0  0  0  0  0  0
  -26.9070  -30.2120   24.7120 C   0  0  0  0  0  1  0  0  0  0  0  0
  -27.4070  -32.3980   25.7680 C   0  0  0  0  0  1  0  0  0  0  0  0
  1  3  2  0
  2  9  1  0
  2  1  1  0
  4  2  1  0
  6  5  1  0
  7  8  1  0
  8 20  1  0
  8  5  2  0
  9  6  2  0
 10  7  2  0
 10  9  1  0
 11 10  1  0
 12 20  1  0
 13 18  1  0
 14 15  1  0
 14 13  1  0
 16 15  1  0
 16 25  1  0
 16 17  1  0
 18 12  1  0
 18 17  1  0
 19 12  2  0
 20 21  1  0
 22 23  2  0
 23 42  1  0
 24 23  1  0
 24 27  1  0
 25 26  1  0
 25 22  1  0
 26 24  2  0
 27 28  1  0
 28 29  2  0
 30 33  1  0
 30 29  1  0
 31 30  2  0
 32 31  1  0
 32 27  2  0
 33 34  1  0
 34 39  2  0
 34 35  1  0
 35 36  2  0
 36 37  1  0
 37 41  1  0
 38 37  2  0
 39 38  1  0
 40 39  1  0
 42 43  1  0
 43 46  1  0
 43 45  1  0
 44 42  2  0
 47 22  1  0
 47 48  1  0
 49 47  1  0
 50 51  1  0
 50  1  1  0
 52 63  2  0
 53 51  1  0
 53 58  1  0
 54 62  1  0
 54 64  1  0
 55 61  1  0
 55 57  1  0
 56 62  1  0
 57 56  1  0
 58 57  2  0
 59 60  1  0
 59 53  2  0
 60 55  2  0
 61 54  1  0
 62 52  1  0
 64 66  2  0
 65 64  1  0
 67 65  1  0
 68 77  2  0
 68 73  1  0
 69 65  1  0
 69 73  1  0
 70 69  1  0
 71 72  1  0
 71 70  1  0
 72 68  1  0
 73 74  2  0
 74 75  1  0
 76 75  2  0
 77 76  1  0
 78 52  1  0
 78 79  1  0
 78 88  1  0
 79 82  1  0
 80 84  1  0
 80 79  1  0
 81 80  2  0
 84 83  1  0
 86 87  1  0
 86 84  1  0
 86 85  1  0
 88 91  1  1
 88 89  1  0
 90 88  1  0
M  ISO  4  12 100  20 100  50 101  51 101
M  END
>  <TORSDO>  (96) 
F 18

>  <SCORE>  (96) 
-13.863

>  <name>  (96) 
95

>  <ligand_id>  (96) 
95

>  <original_smiles>  (96) 
[H]c1c([H])c([H])c2c(c1[H])C([H])([H])C([H])([H])C([H])([H])C2([H])N([H])C(=O)C1([H])N(C(=O)C([H])(N([H])C(=O)C([H])(N([H])C([H])([H])[H])C([H])([H])[H])C(C([H])([H])[H])(C([H])([H])[H])C([H])([H])[H])C([H])([H])c2c([H])c(OC([H])([H])C(=O)N([H])c3c([H])c([H])c(N([H])C(=O)N4C([H])([H])C([H])([H])C([H])([H])C([H])(n5nc(-c6c([H])c([H])c(Oc7c([H])c([H])c(F)c([H])c7F)c([H])c6[H])c(C(=O)N([H])[H])c5N([H])[H])C4([H])[H])c([H])c3Cl)c([H])c([H])c2C1([H])[H]

>  <smiles>  (96) 
[H]c1c([H])c([H])c2c(c1[H])C([H])([H])C([H])([H])C([H])([H])C2([H])N([H])C(=O)C1([H])N(C(=O)C([H])(N([H])C(=O)C([H])(N([H])C([H])([H])[H])C([H])([H])[H])C(C([H])([H])[H])(C([H])([H])[H])C([H])([H])[H])C([H])([H])c2c([H])c(OC([H])([H])C(=O)N([H])c3c([H])c([H])c(N([H])C(=O)N4C([H])([H])C([H])([H])C([H])([H])C([H])(n5nc(-c6c([H])c([H])c(Oc7c([H])c([H])c(F)c([H])c7F)c([H])c6[H])c(C(=O)N([H])[H])c5N([H])[H])C4([H])[H])c([H])c3Cl)c([H])c([H])c2C1([H])[H]

$$$$
