0:0:0
     RDKit          3D

 89 97  0  0  1  0  0  0  0  0999 V2000
  -28.8840  -21.1910   18.9310 C   0  0  0  0  0  3  0  0  0  0  0  0
  -28.9790  -22.2680   19.9580 C   0  0  0  0  0  0  0  0  0  0  0  0
  -29.5510  -21.4190   21.0490 C   0  0  0  0  0  0  0  0  0  0  0  0
  -29.9090  -19.9120   21.0790 C   0  0  0  0  0  0  0  0  0  0  0  0
  -29.8010  -18.8500   20.0240 C   0  0  0  0  0  0  0  0  0  0  0  0
  -29.2330  -19.7020   18.9460 C   0  0  0  0  0  0  0  0  0  0  0  0
  -29.7530  -22.1850   22.3510 C   0  0  0  0  0  1  0  0  0  0  0  0
  -30.4320  -19.3750   22.4060 C   0  0  0  0  0  1  0  0  0  0  0  0
  -28.8450  -18.8520   17.4930 Cl  0  0  0  0  0  0  0  0  0  0  0  0
  -30.7750  -15.8420   20.1080 C   0  0  0  0  0  0  0  0  0  0  0  0
  -30.9640  -13.2660   19.4250 C   0  0  0  0  0  2  0  0  0  0  0  0
  -30.0820  -12.7910   18.2340 C   0  0  0  0  0  2  0  0  0  0  0  0
  -28.6660  -12.4240   18.7070 C   0  0  0  0  0  2  0  0  0  0  0  0
  -28.1290  -13.4580   19.7220 C   0  0  0  0  0  3  0  0  0  0  0  0
  -29.1510  -13.8410   20.8180 C   0  0  0  0  0  2  0  0  0  0  0  0
  -30.3110  -14.4560   20.1330 N   0  0  0  0  0  0  0  0  0  0  0  0
  -32.0040  -15.8360   19.9050 O   0  0  0  0  0  0  0  0  0  0  0  0
  -29.9180  -17.1350   20.1560 N   0  0  0  0  0  0  0  0  0  0  0  0
  -28.9860  -16.7900   20.3360 H   0  0  0  0  0  0  0  0  0  0  0  0
  -25.7820  -13.9650   20.5540 C   0  0  0  0  0  0  0  0  0  0  0  0
  -24.7320  -13.1730   20.9210 C   0  0  0  0  0  0  0  0  0  0  0  0
  -25.2040  -11.8260   20.8380 C   0  0  0  0  0  0  0  0  0  0  0  0
  -26.8230  -13.1040   20.2580 N   0  0  0  0  0  0  0  0  0  0  0  0
  -26.4900  -11.8080   20.4960 N   0  0  0  0  0  0  0  0  0  0  0  0
  -24.4820  -10.5570   21.0030 C   0  0  0  0  0  0  0  0  0  0  0  0
  -24.8690   -9.6050   21.9720 C   0  0  0  0  0  3  0  0  0  0  0  0
  -24.1430   -8.4050   22.1280 C   0  0  0  0  0  3  0  0  0  0  0  0
  -23.0150   -8.1470   21.3130 C   0  0  0  0  0  0  0  0  0  0  0  0
  -22.6470   -9.0860   20.3350 C   0  0  0  0  0  3  0  0  0  0  0  0
  -23.3740  -10.2780   20.1770 C   0  0  0  0  0  3  0  0  0  0  0  0
  -22.2660   -6.9960   21.3740 O   0  0  0  0  0  0  0  0  0  0  0  0
  -22.0310   -6.3530   22.5630 C   0  0  0  0  0  0  0  0  0  0  0  0
  -21.3750   -6.9900   23.6380 C   0  0  0  0  0  3  0  0  0  0  0  0
  -21.0910   -6.2710   24.8170 C   0  0  0  0  0  3  0  0  0  0  0  0
  -21.4550   -4.9150   24.9200 C   0  0  0  0  0  0  0  0  0  0  0  0
  -22.1040   -4.2770   23.8480 C   0  0  0  0  0  3  0  0  0  0  0  0
  -22.3880   -4.9940   22.6720 C   0  0  0  0  0  0  0  0  0  0  0  0
  -22.9950   -4.3680   21.6340 F   0  0  0  0  0  0  0  0  0  0  0  0
  -21.1770   -4.2210   26.0480 F   0  0  0  0  0  0  0  0  0  0  0  0
  -23.3400  -13.6390   21.2270 C   0  0  0  0  0  0  0  0  0  0  0  0
  -22.6330  -12.9270   22.0960 N   0  0  0  0  0  0  0  0  0  0  0  0
  -22.8890  -14.6700   20.7320 O   0  0  0  0  0  0  0  0  0  0  0  0
  -23.0130  -12.0930   22.5190 H   0  0  0  0  0  0  0  0  0  0  0  0
  -21.6990  -13.2210   22.3440 H   0  0  0  0  0  0  0  0  0  0  0  0
  -25.9330  -15.3420   20.4110 N   0  0  0  0  0  0  0  0  0  0  0  0
  -25.1570  -15.9810   20.5460 H   0  0  0  0  0  0  0  0  0  0  0  0
  -26.7500  -15.7900   20.0180 H   0  0  0  0  0  0  0  0  0  0  0  0
  -28.1860  -23.9660   19.9440 C   0  0  0  0  0  2  0  0  0  0  0  0
  -28.4870  -25.6820   20.1130 O   0  0  0  0  0  0  0  0  0  0  0  0
  -24.8900  -31.7860   23.2850 C   0  0  0  0  0  0  0  0  0  0  0  0
  -27.5230  -26.9010   20.0870 C   0  0  0  0  0  0  0  0  0  0  0  0
  -23.7510  -30.4760   21.5450 C   0  0  0  0  0  3  0  0  0  0  0  0
  -25.2430  -28.9160   20.0810 C   0  0  0  0  0  0  0  0  0  0  0  0
  -26.3310  -30.6390   21.4960 C   0  0  0  0  0  2  0  0  0  0  0  0
  -26.4210  -29.2450   20.7650 C   0  0  0  0  0  0  0  0  0  0  0  0
  -27.5460  -28.2670   20.7370 C   0  0  0  0  0  3  0  0  0  0  0  0
  -26.3130  -26.7850   19.3570 C   0  0  0  0  0  3  0  0  0  0  0  0
  -25.2280  -27.7130   19.3550 C   0  0  0  0  0  3  0  0  0  0  0  0
  -24.0290  -29.8560   20.1450 C   0  0  0  0  0  2  0  0  0  0  0  0
  -25.0130  -30.9960   22.1630 N   0  0  0  0  0  0  0  0  0  0  0  0
  -23.7830  -32.0530   23.7840 O   0  0  0  0  0  0  0  0  0  0  0  0
  -23.0160  -29.4430   22.4420 C   0  0  0  0  0  0  0  0  0  0  0  0
  -21.6850  -29.3060   22.2900 N   0  0  0  0  0  0  0  0  0  0  0  0
  -23.6570  -28.7640   23.2480 O   0  0  0  0  0  0  0  0  0  0  0  0
  -21.2180  -29.9070   21.6250 H   0  0  0  0  0  0  0  0  0  0  0  0
  -18.2740  -28.1350   22.7330 C   0  0  0  0  0  0  0  0  0  0  0  0
  -20.8420  -28.3300   22.9910 C   0  0  0  0  0  3  0  0  0  0  0  0
  -20.9060  -26.9450   22.3040 C   0  0  0  0  0  2  0  0  0  0  0  0
  -19.7920  -26.7290   21.2760 C   0  0  0  0  0  2  0  0  0  0  0  0
  -18.4180  -26.8450   21.9420 C   0  0  0  0  0  2  0  0  0  0  0  0
  -19.4110  -28.8400   23.2110 C   0  0  0  0  0  0  0  0  0  0  0  0
  -19.2180  -30.0480   23.9150 C   0  0  0  0  0  3  0  0  0  0  0  0
  -17.9230  -30.5520   24.1410 C   0  0  0  0  0  3  0  0  0  0  0  0
  -16.8010  -29.8440   23.6760 C   0  0  0  0  0  3  0  0  0  0  0  0
  -16.9780  -28.6370   22.9780 C   0  0  0  0  0  3  0  0  0  0  0  0
  -26.1340  -32.4060   23.9920 C   0  0  0  0  0  3  0  0  0  0  0  0
  -25.8100  -33.7980   24.3580 N   0  0  0  0  0  0  0  0  0  0  0  0
  -26.1380  -34.8810   23.6410 C   0  0  0  0  0  0  0  0  0  0  0  0
  -26.8020  -34.8130   22.6040 O   0  0  0  0  0  0  0  0  0  0  0  0
  -25.2170  -33.9230   25.1660 H   0  0  0  0  0  0  0  0  0  0  0  0
  -24.3910  -36.6810   23.3870 C   0  0  0  0  0  1  0  0  0  0  0  0
  -25.6570  -36.2570   24.1500 C   0  0  0  0  0  3  0  0  0  0  0  0
  -27.8020  -37.1480   24.9530 C   0  0  0  0  0  1  0  0  0  0  0  0
  -26.6800  -37.3210   24.0350 N   0  0  0  0  0  0  0  0  0  0  0  0
  -26.2690  -38.2360   24.2060 H   0  0  0  0  0  0  0  0  0  0  0  0
  -26.5740  -31.6040   25.2800 C   0  0  1  0  0  0  0  0  0  0  0  0
  -25.4260  -31.3620   26.2900 C   0  0  0  0  0  1  0  0  0  0  0  0
  -27.1580  -30.2240   24.9040 C   0  0  0  0  0  1  0  0  0  0  0  0
  -27.7020  -32.3690   26.0130 C   0  0  0  0  0  1  0  0  0  0  0  0
  1  6  2  0
  1  2  1  0
  2  3  2  0
  3  4  1  0
  3  7  1  0
  4  8  1  0
  5 18  1  0
  5  4  2  0
  6  5  1  0
  9  6  1  0
 10 16  1  0
 10 18  1  0
 11 16  1  0
 12 13  1  0
 12 11  1  0
 14 13  1  0
 14 23  1  0
 14 15  1  0
 16 15  1  0
 17 10  2  0
 18 19  1  0
 20 21  2  0
 21 40  1  0
 22 21  1  0
 22 25  1  0
 23 24  1  0
 23 20  1  0
 24 22  2  0
 25 26  1  0
 26 27  2  0
 28 31  1  0
 28 27  1  0
 29 28  2  0
 30 29  1  0
 30 25  2  0
 31 32  1  0
 32 37  2  0
 32 33  1  0
 33 34  2  0
 34 35  1  0
 35 39  1  0
 36 35  2  0
 37 36  1  0
 38 37  1  0
 40 41  1  0
 41 44  1  0
 41 43  1  0
 42 40  2  0
 45 46  1  0
 45 20  1  0
 47 45  1  0
 48  2  1  0
 48 49  1  0
 50 61  2  0
 51 49  1  0
 51 56  1  0
 52 60  1  0
 52 62  1  0
 53 59  1  0
 53 55  1  0
 54 60  1  0
 55 54  1  0
 56 55  2  0
 57 51  2  0
 58 57  1  0
 58 53  2  0
 59 52  1  0
 60 50  1  0
 62 64  2  0
 63 62  1  0
 65 63  1  0
 66 75  2  0
 66 71  1  0
 67 63  1  0
 67 71  1  0
 68 67  1  0
 69 70  1  0
 69 68  1  0
 70 66  1  0
 71 72  2  0
 72 73  1  0
 74 73  2  0
 75 74  1  0
 76 50  1  0
 76 77  1  0
 76 86  1  0
 77 80  1  0
 78 82  1  0
 78 77  1  0
 79 78  2  0
 82 81  1  0
 84 82  1  0
 84 85  1  0
 84 83  1  0
 86 89  1  1
 86 87  1  0
 88 86  1  0
M  ISO  4  10 100  18 100  48 101  49 101
M  END
>  <TORSDO>  (1) 
F 17

>  <SCORE>  (1) 
-15.494

>  <name>  (1) 
0

>  <ligand_id>  (1) 
0

>  <original_smiles>  (1) 
[H]c1c([H])c([H])c2c(c1[H])C([H])([H])C([H])([H])C([H])([H])C2([H])N([H])C(=O)C1([H])N(C(=O)C([H])(N([H])C(=O)C([H])(N([H])C([H])([H])[H])C([H])([H])[H])C(C([H])([H])[H])(C([H])([H])[H])C([H])([H])[H])C([H])([H])c2c([H])c(OC([H])([H])c3c([H])c(Cl)c(N([H])C(=O)N4C([H])([H])C([H])([H])C([H])([H])C([H])(n5nc(-c6c([H])c([H])c(Oc7c([H])c([H])c(F)c([H])c7F)c([H])c6[H])c(C(=O)N([H])[H])c5N([H])[H])C4([H])[H])c(C([H])([H])[H])c3C([H])([H])[H])c([H])c([H])c2C1([H])[H]

>  <smiles>  (1) 
[H]c1c([H])c([H])c2c(c1[H])C([H])([H])C([H])([H])C([H])([H])C2([H])N([H])C(=O)C1([H])N(C(=O)C([H])(N([H])C(=O)C([H])(N([H])C([H])([H])[H])C([H])([H])[H])C(C([H])([H])[H])(C([H])([H])[H])C([H])([H])[H])C([H])([H])c2c([H])c(OC([H])([H])c3c([H])c(Cl)c(N([H])C(=O)N4C([H])([H])C([H])([H])C([H])([H])C([H])(n5nc(-c6c([H])c([H])c(Oc7c([H])c([H])c(F)c([H])c7F)c([H])c6[H])c(C(=O)N([H])[H])c5N([H])[H])C4([H])[H])c(C([H])([H])[H])c3C([H])([H])[H])c([H])c([H])c2C1([H])[H]

$$$$
1:0:0
     RDKit          3D

 97105  0  0  1  0  0  0  0  0999 V2000
  -29.8310  -19.4240   22.5400 C   0  0  0  0  0  1  0  0  0  0  0  0
  -29.4920  -20.3450   21.3130 C   0  0  0  0  0  3  0  0  0  0  0  0
  -28.6270  -20.5890   18.8470 C   0  0  0  0  0  1  0  0  0  0  0  0
  -27.6040  -18.9610   20.3950 C   0  0  0  0  0  1  0  0  0  0  0  0
  -28.9750  -19.6090   20.0100 C   0  0  2  0  0  0  0  0  0  0  0  0
  -29.9860  -16.5020   18.9060 C   0  0  0  0  0  2  0  0  0  0  0  0
  -30.9530  -16.7170   19.9170 C   0  0  0  0  0  3  0  0  0  0  0  0
  -31.1100  -18.0530   19.9600 C   0  0  0  0  0  3  0  0  0  0  0  0
  -32.4100  -18.7110   20.3200 C   0  0  0  0  0  1  0  0  0  0  0  0
  -29.3180  -17.6190   18.7000 N   0  0  0  0  0  2  0  0  0  0  0  0
  -29.8750  -18.5440   19.5260 N   0  0  0  0  0  0  0  0  0  0  0  0
  -32.0900  -14.6360   20.3520 C   0  0  0  0  0  0  0  0  0  0  0  0
  -31.4760  -12.3980   19.6750 C   0  0  0  0  0  2  0  0  0  0  0  0
  -30.7210  -12.3990   18.3370 C   0  0  0  0  0  2  0  0  0  0  0  0
  -29.2160  -12.7240   18.5010 C   0  0  0  0  0  2  0  0  0  0  0  0
  -28.8150  -13.1520   19.9330 C   0  0  0  0  0  3  0  0  0  0  0  0
  -29.8120  -13.7740   20.9180 C   0  0  0  0  0  2  0  0  0  0  0  0
  -31.1650  -13.6590   20.3630 N   0  0  0  0  0  0  0  0  0  0  0  0
  -33.2330  -14.5010   19.9390 O   0  0  0  0  0  0  0  0  0  0  0  0
  -31.7580  -15.8610   20.6910 N   0  0  0  0  0  0  0  0  0  0  0  0
  -32.6400  -16.3110   20.8770 H   0  0  0  0  0  0  0  0  0  0  0  0
  -26.4580  -14.3700   20.2230 C   0  0  0  0  0  0  0  0  0  0  0  0
  -25.2610  -13.7830   20.5070 C   0  0  0  0  0  0  0  0  0  0  0  0
  -25.5190  -12.3830   20.5980 C   0  0  0  0  0  0  0  0  0  0  0  0
  -27.3880  -13.3220   20.1840 N   0  0  0  0  0  0  0  0  0  0  0  0
  -26.7870  -12.1470   20.4260 N   0  0  0  0  0  0  0  0  0  0  0  0
  -24.6670  -11.2260   20.7870 C   0  0  0  0  0  0  0  0  0  0  0  0
  -25.0030  -10.2190   21.7200 C   0  0  0  0  0  3  0  0  0  0  0  0
  -24.1630   -9.0990   21.8860 C   0  0  0  0  0  3  0  0  0  0  0  0
  -22.9820   -8.9850   21.1150 C   0  0  0  0  0  0  0  0  0  0  0  0
  -22.6740   -9.9770   20.1660 C   0  0  0  0  0  3  0  0  0  0  0  0
  -23.5110  -11.0870   19.9990 C   0  0  0  0  0  3  0  0  0  0  0  0
  -22.1080   -7.9330   21.2020 O   0  0  0  0  0  0  0  0  0  0  0  0
  -21.9630   -7.2210   22.3630 C   0  0  0  0  0  0  0  0  0  0  0  0
  -21.5920   -7.8410   23.5760 C   0  0  0  0  0  3  0  0  0  0  0  0
  -21.3880   -7.0570   24.7290 C   0  0  0  0  0  3  0  0  0  0  0  0
  -21.5410   -5.6590   24.6650 C   0  0  0  0  0  0  0  0  0  0  0  0
  -21.9080   -5.0420   23.4580 C   0  0  0  0  0  3  0  0  0  0  0  0
  -22.1190   -5.8220   22.3070 C   0  0  0  0  0  0  0  0  0  0  0  0
  -22.4530   -5.2220   21.1370 F   0  0  0  0  0  0  0  0  0  0  0  0
  -21.3320   -4.9060   25.7710 F   0  0  0  0  0  0  0  0  0  0  0  0
  -23.9100  -14.4350   20.6080 C   0  0  0  0  0  0  0  0  0  0  0  0
  -23.0510  -13.9020   21.4610 N   0  0  0  0  0  0  0  0  0  0  0  0
  -23.6280  -15.4450   19.9580 O   0  0  0  0  0  0  0  0  0  0  0  0
  -23.2940  -13.0840   22.0070 H   0  0  0  0  0  0  0  0  0  0  0  0
  -22.1480  -14.3340   21.6020 H   0  0  0  0  0  0  0  0  0  0  0  0
  -26.8100  -15.6940   20.0060 N   0  0  0  0  0  0  0  0  0  0  0  0
  -26.1410  -16.4480   20.1160 H   0  0  0  0  0  0  0  0  0  0  0  0
  -27.7300  -16.0270   19.7660 H   0  0  0  0  0  0  0  0  0  0  0  0
  -30.5580  -21.4490   21.0210 C   0  0  0  0  0  2  0  0  0  0  0  0
  -30.6530  -23.0450   22.8930 C   0  0  0  0  0  1  0  0  0  0  0  0
  -30.1240  -22.7740   21.5400 N   0  0  1  0  0  4  0  0  0  0  0  0
  -29.1220  -22.6930   21.6260 H   0  0  0  0  0  0  0  0  0  0  0  0
  -30.3640  -23.8930   20.5880 C   0  0  0  0  0  2  0  0  0  0  0  0
  -29.7230  -25.2280   20.9990 C   0  0  0  0  0  2  0  0  0  0  0  0
  -28.9610  -25.8610   19.8380 C   0  0  0  0  0  2  0  0  0  0  0  0
  -28.7090  -27.1800   20.2640 O   0  0  0  0  0  0  0  0  0  0  0  0
  -24.5180  -31.9960   23.2440 C   0  0  0  0  0  0  0  0  0  0  0  0
  -27.4560  -27.7240   20.2240 C   0  0  0  0  0  0  0  0  0  0  0  0
  -23.4440  -30.5990   21.5080 C   0  0  0  0  0  3  0  0  0  0  0  0
  -25.0100  -29.1180   20.1530 C   0  0  0  0  0  0  0  0  0  0  0  0
  -25.9600  -31.0260   21.4640 C   0  0  0  0  0  2  0  0  0  0  0  0
  -26.1120  -29.6680   20.8170 C   0  0  0  0  0  0  0  0  0  0  0  0
  -27.3320  -28.9740   20.8560 C   0  0  0  0  0  3  0  0  0  0  0  0
  -26.3370  -27.1630   19.5650 C   0  0  0  0  0  3  0  0  0  0  0  0
  -25.1130  -27.8590   19.5370 C   0  0  0  0  0  3  0  0  0  0  0  0
  -23.7440  -29.9430   20.1330 C   0  0  0  0  0  2  0  0  0  0  0  0
  -24.6560  -31.2200   22.1330 N   0  0  0  0  0  0  0  0  0  0  0  0
  -23.4020  -32.2330   23.7250 O   0  0  0  0  0  0  0  0  0  0  0  0
  -22.7660  -29.5440   22.4080 C   0  0  0  0  0  0  0  0  0  0  0  0
  -21.4390  -29.4030   22.2610 N   0  0  0  0  0  0  0  0  0  0  0  0
  -23.4290  -28.8590   23.1920 O   0  0  0  0  0  0  0  0  0  0  0  0
  -20.9710  -30.0060   21.5980 H   0  0  0  0  0  0  0  0  0  0  0  0
  -18.0180  -28.3570   22.7490 C   0  0  0  0  0  0  0  0  0  0  0  0
  -20.5910  -28.4470   22.9720 C   0  0  0  0  0  3  0  0  0  0  0  0
  -20.5990  -27.0660   22.2760 C   0  0  0  0  0  2  0  0  0  0  0  0
  -19.4590  -26.8900   21.2700 C   0  0  0  0  0  2  0  0  0  0  0  0
  -18.1020  -27.0590   21.9620 C   0  0  0  0  0  2  0  0  0  0  0  0
  -19.1880  -29.0180   23.2090 C   0  0  0  0  0  0  0  0  0  0  0  0
  -19.0560  -30.2390   23.9030 C   0  0  0  0  0  3  0  0  0  0  0  0
  -17.7870  -30.7980   24.1420 C   0  0  0  0  0  3  0  0  0  0  0  0
  -16.6320  -30.1320   23.6990 C   0  0  0  0  0  3  0  0  0  0  0  0
  -16.7480  -28.9140   23.0080 C   0  0  0  0  0  3  0  0  0  0  0  0
  -25.7510  -32.6390   23.9540 C   0  0  0  0  0  3  0  0  0  0  0  0
  -25.4100  -34.0360   24.2510 N   0  0  0  0  0  0  0  0  0  0  0  0
  -25.7850  -35.0850   23.5040 C   0  0  0  0  0  0  0  0  0  0  0  0
  -26.5250  -34.9790   22.5230 O   0  0  0  0  0  0  0  0  0  0  0  0
  -24.7590  -34.1930   25.0070 H   0  0  0  0  0  0  0  0  0  0  0  0
  -24.0550  -36.8460   23.0260 C   0  0  0  0  0  1  0  0  0  0  0  0
  -25.2550  -36.4720   23.9120 C   0  0  0  0  0  3  0  0  0  0  0  0
  -27.3260  -37.4010   24.8480 C   0  0  0  0  0  1  0  0  0  0  0  0
  -26.2800  -37.5370   23.8370 N   0  0  0  0  0  0  0  0  0  0  0  0
  -25.8570  -38.4560   23.9360 H   0  0  0  0  0  0  0  0  0  0  0  0
  -26.1840  -31.8790   25.2670 C   0  0  1  0  0  0  0  0  0  0  0  0
  -25.0160  -31.6050   26.2430 C   0  0  0  0  0  1  0  0  0  0  0  0
  -26.8340  -30.5210   24.9130 C   0  0  0  0  0  1  0  0  0  0  0  0
  -27.2520  -32.7050   26.0230 C   0  0  0  0  0  1  0  0  0  0  0  0
  2  1  1  0
  5  3  1  6
  5  4  1  0
  5  2  1  0
  6  7  1  0
  7  8  1  0
  7 20  1  0
  8  9  1  0
 10  6  1  0
 10 11  1  0
 11  8  1  0
 11  5  1  0
 12 18  1  0
 12 20  1  0
 13 18  1  0
 14 15  1  0
 14 13  1  0
 16 15  1  0
 16 25  1  0
 16 17  1  0
 18 17  1  0
 19 12  2  0
 20 21  1  0
 22 23  2  0
 23 24  1  0
 23 42  1  0
 24 27  1  0
 25 22  1  0
 25 26  1  0
 26 24  2  0
 27 28  1  0
 28 29  2  0
 30 33  1  0
 30 29  1  0
 31 30  2  0
 32 31  1  0
 32 27  2  0
 33 34  1  0
 34 35  1  0
 35 36  2  0
 37 36  1  0
 37 41  1  0
 38 37  2  0
 39 34  2  0
 39 38  1  0
 40 39  1  0
 42 43  1  0
 43 46  1  0
 43 45  1  0
 44 42  2  0
 47 48  1  0
 47 22  1  0
 49 47  1  0
 50  2  1  0
 50 52  1  0
 52 53  1  1
 52 51  1  0
 54 55  1  0
 54 52  1  0
 56 57  1  0
 56 55  1  0
 58 69  2  0
 59 57  1  0
 59 64  1  0
 60 68  1  0
 60 70  1  0
 61 63  1  0
 62 68  1  0
 63 64  2  0
 63 62  1  0
 65 59  2  0
 66 65  1  0
 66 61  2  0
 67 61  1  0
 67 60  1  0
 68 58  1  0
 70 72  2  0
 71 70  1  0
 73 71  1  0
 74 83  2  0
 74 79  1  0
 75 71  1  0
 75 79  1  0
 76 75  1  0
 77 78  1  0
 77 76  1  0
 78 74  1  0
 79 80  2  0
 80 81  1  0
 82 81  2  0
 83 82  1  0
 84 58  1  0
 84 85  1  0
 84 94  1  0
 85 88  1  0
 86 90  1  0
 86 85  1  0
 87 86  2  0
 90 89  1  0
 92 90  1  0
 92 93  1  0
 92 91  1  0
 94 97  1  1
 94 95  1  0
 96 94  1  0
M  ISO  4  12 100  20 100  56 101  57 101
M  END
>  <TORSDO>  (2) 
F 23

>  <SCORE>  (2) 
-10.235

>  <name>  (2) 
1

>  <ligand_id>  (2) 
1

>  <original_smiles>  (2) 
[H]c1nn(C(C([H])([H])[H])(C([H])([H])[H])C([H])(C([H])([H])[H])C([H])([H])[N+]([H])(C([H])([H])[H])C([H])([H])C([H])([H])C([H])([H])Oc2c([H])c([H])c3c(c2[H])C([H])([H])N(C(=O)C([H])(N([H])C(=O)C([H])(N([H])C([H])([H])[H])C([H])([H])[H])C(C([H])([H])[H])(C([H])([H])[H])C([H])([H])[H])C([H])(C(=O)N([H])C2([H])c4c([H])c([H])c([H])c([H])c4C([H])([H])C([H])([H])C2([H])[H])C3([H])[H])c(C([H])([H])[H])c1N([H])C(=O)N1C([H])([H])C([H])([H])C([H])([H])C([H])(n2nc(-c3c([H])c([H])c(Oc4c([H])c([H])c(F)c([H])c4F)c([H])c3[H])c(C(=O)N([H])[H])c2N([H])[H])C1([H])[H]

>  <smiles>  (2) 
[H]c1nn(C(C([H])([H])[H])(C([H])([H])[H])C([H])(C([H])([H])[H])C([H])([H])[N+]([H])(C([H])([H])[H])C([H])([H])C([H])([H])C([H])([H])Oc2c([H])c([H])c3c(c2[H])C([H])([H])N(C(=O)C([H])(N([H])C(=O)C([H])(N([H])C([H])([H])[H])C([H])([H])[H])C(C([H])([H])[H])(C([H])([H])[H])C([H])([H])[H])C([H])(C(=O)N([H])C2([H])c4c([H])c([H])c([H])c([H])c4C([H])([H])C([H])([H])C2([H])[H])C3([H])[H])c(C([H])([H])[H])c1N([H])C(=O)N1C([H])([H])C([H])([H])C([H])([H])C([H])(n2nc(-c3c([H])c([H])c(Oc4c([H])c([H])c(F)c([H])c4F)c([H])c3[H])c(C(=O)N([H])[H])c2N([H])[H])C1([H])[H]

$$$$
2:0:0
     RDKit          3D

 82 86  0  0  1  0  0  0  0  0999 V2000
  -28.2050  -25.2050   20.1810 O   0  0  0  0  0  1  0  0  0  0  0  0
  -24.6630  -31.8080   23.1260 C   0  0  0  0  0  0  0  0  0  0  0  0
  -27.2220  -26.5040   20.2220 C   0  0  0  0  0  0  0  0  0  0  0  0
  -23.4970  -30.3850   21.5020 C   0  0  0  0  0  3  0  0  0  0  0  0
  -24.9590  -28.6800   20.1340 C   0  0  0  0  0  0  0  0  0  0  0  0
  -26.0880  -30.4680   21.4190 C   0  0  0  0  0  2  0  0  0  0  0  0
  -26.1600  -29.0030   20.7770 C   0  0  0  0  0  0  0  0  0  0  0  0
  -27.2650  -27.9550   20.7750 C   0  0  0  0  0  3  0  0  0  0  0  0
  -25.9780  -26.4560   19.5220 C   0  0  0  0  0  3  0  0  0  0  0  0
  -24.9220  -27.4330   19.4830 C   0  0  0  0  0  3  0  0  0  0  0  0
  -23.7610  -29.6570   20.1490 C   0  0  0  0  0  2  0  0  0  0  0  0
  -24.7760  -30.9260   22.0670 N   0  0  0  0  0  0  0  0  0  0  0  0
  -23.5610  -32.1170   23.6170 O   0  0  0  0  0  0  0  0  0  0  0  0
  -22.7590  -29.4350   22.4830 C   0  0  0  0  0  0  0  0  0  0  0  0
  -21.4230  -29.2990   22.3640 N   0  0  0  0  0  0  0  0  0  0  0  0
  -23.4070  -28.8130   23.3290 O   0  0  0  0  0  0  0  0  0  0  0  0
  -20.9470  -29.8480   21.6620 H   0  0  0  0  0  0  0  0  0  0  0  0
  -18.0300  -28.1040   22.9050 C   0  0  0  0  0  0  0  0  0  0  0  0
  -20.5940  -28.3680   23.1430 C   0  0  0  0  0  3  0  0  0  0  0  0
  -20.6850  -26.9330   22.5730 C   0  0  0  0  0  2  0  0  0  0  0  0
  -19.5770  -26.6140   21.5660 C   0  0  0  0  0  2  0  0  0  0  0  0
  -18.1990  -26.7580   22.2190 C   0  0  0  0  0  2  0  0  0  0  0  0
  -19.1530  -28.8670   23.3230 C   0  0  0  0  0  0  0  0  0  0  0  0
  -18.9380  -30.1230   23.9300 C   0  0  0  0  0  3  0  0  0  0  0  0
  -17.6340  -30.6180   24.1200 C   0  0  0  0  0  3  0  0  0  0  0  0
  -16.5260  -29.8540   23.7130 C   0  0  0  0  0  3  0  0  0  0  0  0
  -16.7250  -28.5990   23.1120 C   0  0  0  0  0  3  0  0  0  0  0  0
  -25.9100  -32.4810   23.7750 C   0  0  0  0  0  3  0  0  0  0  0  0
  -25.5650  -33.8790   24.1160 N   0  0  0  0  0  0  0  0  0  0  0  0
  -25.8860  -34.9580   23.3920 C   0  0  0  0  0  0  0  0  0  0  0  0
  -26.5550  -34.8840   22.3590 O   0  0  0  0  0  0  0  0  0  0  0  0
  -24.9630  -34.0060   24.9160 H   0  0  0  0  0  0  0  0  0  0  0  0
  -24.1370  -36.7510   23.1000 C   0  0  0  0  0  1  0  0  0  0  0  0
  -25.3920  -36.3360   23.8840 C   0  0  0  0  0  3  0  0  0  0  0  0
  -27.5270  -37.2420   24.7020 C   0  0  0  0  0  1  0  0  0  0  0  0
  -26.4110  -37.4050   23.7740 N   0  0  0  0  0  0  0  0  0  0  0  0
  -25.9940  -38.3170   23.9380 H   0  0  0  0  0  0  0  0  0  0  0  0
  -26.4070  -31.7320   25.0750 C   0  0  1  0  0  0  0  0  0  0  0  0
  -25.2940  -31.5040   26.1250 C   0  0  0  0  0  1  0  0  0  0  0  0
  -27.0060  -30.3500   24.7310 C   0  0  0  0  0  1  0  0  0  0  0  0
  -27.5440  -32.5410   25.7410 C   0  0  0  0  0  1  0  0  0  0  0  0
  -28.2600  -23.3270   20.4490 C   0  0  0  0  0 15  0  0  0  0  0  0
  -28.8130  -21.3740   19.8690 C   0  0  0  0  0 15  0  0  0  0  0  0
  -29.3900  -19.4240   20.4190 C   0  0  0  0  0  1  0  0  0  0  0  0
  -30.1320  -16.0760   20.0710 C   0  0  0  0  0  0  0  0  0  0  0  0
  -30.3210  -13.4470   19.2590 C   0  0  0  0  0  2  0  0  0  0  0  0
  -29.4440  -12.8330   18.1190 C   0  0  0  0  0  2  0  0  0  0  0  0
  -28.0700  -12.3920   18.6390 C   0  0  0  0  0  2  0  0  0  0  0  0
  -27.5180  -13.4260   19.6370 C   0  0  0  0  0  3  0  0  0  0  0  0
  -28.5530  -13.9140   20.6890 C   0  0  0  0  0  2  0  0  0  0  0  0
  -29.6300  -14.6560   19.9560 N   0  0  0  0  0  0  0  0  0  0  0  0
  -31.3780  -15.9210   20.0610 O   0  0  0  0  0  0  0  0  0  0  0  0
  -28.1020  -17.4350   19.3330 C   0  0  0  0  0  1  0  0  0  0  0  0
  -29.3880  -17.5580   20.0160 N   0  0  0  0  0  0  0  0  0  0  0  0
  -25.1830  -13.9270   20.4730 C   0  0  0  0  0  0  0  0  0  0  0  0
  -24.1320  -13.1430   20.8550 C   0  0  0  0  0  0  0  0  0  0  0  0
  -24.6060  -11.7950   20.8040 C   0  0  0  0  0  0  0  0  0  0  0  0
  -26.2260  -13.0640   20.2030 N   0  0  0  0  0  0  0  0  0  0  0  0
  -25.8940  -11.7710   20.4640 N   0  0  0  0  0  0  0  0  0  0  0  0
  -23.8800  -10.5310   21.0000 C   0  0  0  0  0  0  0  0  0  0  0  0
  -24.3230   -9.5560   21.9210 C   0  0  0  0  0  3  0  0  0  0  0  0
  -23.5910   -8.3620   22.1070 C   0  0  0  0  0  3  0  0  0  0  0  0
  -22.4020   -8.1360   21.3740 C   0  0  0  0  0  0  0  0  0  0  0  0
  -21.9770   -9.1010   20.4430 C   0  0  0  0  0  3  0  0  0  0  0  0
  -22.7110  -10.2850   20.2540 C   0  0  0  0  0  3  0  0  0  0  0  0
  -21.6420   -6.9940   21.4690 O   0  0  0  0  0  0  0  0  0  0  0  0
  -21.6130   -6.2440   22.6170 C   0  0  0  0  0  0  0  0  0  0  0  0
  -21.2160   -6.7910   23.8560 C   0  0  0  0  0  3  0  0  0  0  0  0
  -21.1320   -5.9670   24.9970 C   0  0  0  0  0  3  0  0  0  0  0  0
  -21.4380   -4.5960   24.8990 C   0  0  0  0  0  0  0  0  0  0  0  0
  -21.8300   -4.0480   23.6650 C   0  0  0  0  0  3  0  0  0  0  0  0
  -21.9140   -4.8690   22.5270 C   0  0  0  0  0  0  0  0  0  0  0  0
  -22.2710   -4.3300   21.3360 F   0  0  0  0  0  0  0  0  0  0  0  0
  -21.3530   -3.8020   25.9920 F   0  0  0  0  0  0  0  0  0  0  0  0
  -22.7400  -13.6190   21.1450 C   0  0  0  0  0  0  0  0  0  0  0  0
  -22.0220  -12.9210   22.0180 N   0  0  0  0  0  0  0  0  0  0  0  0
  -22.3000  -14.6470   20.6350 O   0  0  0  0  0  0  0  0  0  0  0  0
  -22.3880  -12.0890   22.4530 H   0  0  0  0  0  0  0  0  0  0  0  0
  -21.0890  -13.2290   22.2540 H   0  0  0  0  0  0  0  0  0  0  0  0
  -25.3360  -15.2990   20.2950 N   0  0  0  0  0  0  0  0  0  0  0  0
  -24.5650  -15.9500   20.3980 H   0  0  0  0  0  0  0  0  0  0  0  0
  -26.1710  -15.7290   19.9240 H   0  0  0  0  0  0  0  0  0  0  0  0
  1  3  1  0
  2 13  2  0
  3  8  1  0
  4 12  1  0
  4 14  1  0
  5 11  1  0
  5  7  1  0
  6 12  1  0
  7  6  1  0
  8  7  2  0
  9  3  2  0
 10  9  1  0
 10  5  2  0
 11  4  1  0
 12  2  1  0
 14 16  2  0
 15 14  1  0
 17 15  1  0
 18 27  2  0
 18 23  1  0
 19 15  1  0
 19 23  1  0
 20 19  1  0
 21 22  1  0
 21 20  1  0
 22 18  1  0
 23 24  2  0
 24 25  1  0
 26 25  2  0
 27 26  1  0
 28  2  1  0
 28 29  1  0
 28 38  1  0
 29 32  1  0
 30 34  1  0
 30 29  1  0
 31 30  2  0
 34 33  1  0
 36 34  1  0
 36 37  1  0
 36 35  1  0
 38 41  1  1
 38 39  1  0
 40 38  1  0
 46 51  1  0
 47 48  1  0
 47 46  1  0
 49 48  1  0
 49 58  1  0
 49 50  1  0
 51 45  1  0
 51 50  1  0
 52 45  2  0
 53 54  1  0
 54 45  1  0
 54 44  1  0
 55 56  2  0
 56 75  1  0
 57 56  1  0
 57 60  1  0
 58 59  1  0
 58 55  1  0
 59 57  2  0
 60 61  1  0
 61 62  2  0
 63 66  1  0
 63 62  1  0
 64 63  2  0
 65 64  1  0
 65 60  2  0
 66 67  1  0
 67 68  1  0
 68 69  2  0
 70 69  1  0
 70 74  1  0
 71 70  2  0
 72 67  2  0
 72 71  1  0
 73 72  1  0
 75 76  1  0
 76 79  1  0
 76 78  1  0
 77 75  2  0
 80 81  1  0
 80 55  1  0
 82 80  1  0
M  ISO  4   1 101  42 101  45 100  54 100
M  END
>  <TORSDO>  (3) 
F 18

>  <SCORE>  (3) 
-16.265

>  <name>  (3) 
2

>  <ligand_id>  (3) 
2

>  <original_smiles>  (3) 
[H]c1c([H])c([H])c2c(c1[H])C([H])([H])C([H])([H])C([H])([H])C2([H])N([H])C(=O)C1([H])N(C(=O)C([H])(N([H])C(=O)C([H])(N([H])C([H])([H])[H])C([H])([H])[H])C(C([H])([H])[H])(C([H])([H])[H])C([H])([H])[H])C([H])([H])c2c([H])c(OC([H])([H])C([H])([H])C([H])([H])N(C(=O)N3C([H])([H])C([H])([H])C([H])([H])C([H])(n4nc(-c5c([H])c([H])c(Oc6c([H])c([H])c(F)c([H])c6F)c([H])c5[H])c(C(=O)N([H])[H])c4N([H])[H])C3([H])[H])C([H])([H])[H])c([H])c([H])c2C1([H])[H]

>  <smiles>  (3) 
[H]c1c([H])c([H])c2c(c1[H])C([H])([H])C([H])([H])C([H])([H])C2([H])N([H])C(=O)C1([H])N(C(=O)C([H])(N([H])C(=O)C([H])(N([H])C([H])([H])[H])C([H])([H])[H])C(C([H])([H])[H])(C([H])([H])[H])C([H])([H])[H])C([H])([H])c2c([H])c(OC([H])([H])C([H])([H])C([H])([H])N(C(=O)N3C([H])([H])C([H])([H])C([H])([H])C([H])(n4nc(-c5c([H])c([H])c(Oc6c([H])c([H])c(F)c([H])c6F)c([H])c5[H])c(C(=O)N([H])[H])c4N([H])[H])C3([H])[H])C([H])([H])[H])c([H])c([H])c2C1([H])[H]

$$$$
3:0:0
     RDKit          3D

 93101  0  0  1  0  0  0  0  0999 V2000
  -30.5300  -20.5660   21.2320 C   0  0  0  0  0  3  0  0  0  0  0  0
  -31.2000  -19.4630   21.8110 C   0  0  0  0  0  0  0  0  0  0  0  0
  -29.4420  -20.4350   20.3560 C   0  0  0  0  0  0  0  0  0  0  0  0
  -30.8630  -18.1090   21.5200 C   0  0  0  0  0  0  0  0  0  0  0  0
  -29.8650  -17.7900   20.5470 C   0  0  0  0  0  0  0  0  0  0  0  0
  -29.1500  -19.0030   20.0180 C   0  0  0  0  0  0  0  0  0  0  0  0
  -32.2970  -19.7870   22.8150 C   0  0  0  0  0  1  0  0  0  0  0  0
  -31.5610  -17.0130   22.3320 C   0  0  0  0  0  1  0  0  0  0  0  0
  -27.8520  -18.7070   18.9160 Cl  0  0  0  0  0  0  0  0  0  0  0  0
  -30.3070  -15.1090   20.0260 C   0  0  0  0  0  0  0  0  0  0  0  0
  -30.1420  -12.7850   19.0100 C   0  0  0  0  0  2  0  0  0  0  0  0
  -29.1370  -12.7500   17.8380 C   0  0  0  0  0  2  0  0  0  0  0  0
  -27.7080  -12.4960   18.3560 C   0  0  0  0  0  2  0  0  0  0  0  0
  -27.3570  -13.3860   19.5770 C   0  0  0  0  0  3  0  0  0  0  0  0
  -28.4810  -13.4010   20.6360 C   0  0  0  0  0  2  0  0  0  0  0  0
  -29.7000  -13.8540   19.9540 N   0  0  0  0  0  0  0  0  0  0  0  0
  -31.4880  -15.1620   19.6770 O   0  0  0  0  0  0  0  0  0  0  0  0
  -29.5420  -16.3010   20.2540 N   0  0  0  0  0  0  0  0  0  0  0  0
  -28.5510  -16.1180   20.2510 H   0  0  0  0  0  0  0  0  0  0  0  0
  -25.0150  -13.9020   20.4750 C   0  0  0  0  0  0  0  0  0  0  0  0
  -23.9870  -13.1000   20.8850 C   0  0  0  0  0  0  0  0  0  0  0  0
  -24.4660  -11.7580   20.7820 C   0  0  0  0  0  0  0  0  0  0  0  0
  -26.0560  -13.0490   20.1480 N   0  0  0  0  0  0  0  0  0  0  0  0
  -25.7390  -11.7520   20.3970 N   0  0  0  0  0  0  0  0  0  0  0  0
  -23.7670  -10.4800   20.9720 C   0  0  0  0  0  0  0  0  0  0  0  0
  -24.2190   -9.5260   21.9100 C   0  0  0  0  0  3  0  0  0  0  0  0
  -23.5240   -8.3130   22.0910 C   0  0  0  0  0  3  0  0  0  0  0  0
  -22.3600   -8.0420   21.3340 C   0  0  0  0  0  0  0  0  0  0  0  0
  -21.9240   -8.9850   20.3860 C   0  0  0  0  0  3  0  0  0  0  0  0
  -22.6200  -10.1910   20.2030 C   0  0  0  0  0  3  0  0  0  0  0  0
  -21.6330   -6.8790   21.4220 O   0  0  0  0  0  0  0  0  0  0  0  0
  -21.5520   -6.1670   22.5910 C   0  0  0  0  0  0  0  0  0  0  0  0
  -21.0240   -6.7330   23.7720 C   0  0  0  0  0  3  0  0  0  0  0  0
  -20.8950   -5.9460   24.9320 C   0  0  0  0  0  3  0  0  0  0  0  0
  -21.2850   -4.5930   24.9140 C   0  0  0  0  0  0  0  0  0  0  0  0
  -21.8040   -4.0260   23.7370 C   0  0  0  0  0  3  0  0  0  0  0  0
  -21.9350   -4.8100   22.5770 C   0  0  0  0  0  0  0  0  0  0  0  0
  -22.4180   -4.2530   21.4410 F   0  0  0  0  0  0  0  0  0  0  0  0
  -21.1540   -3.8350   26.0270 F   0  0  0  0  0  0  0  0  0  0  0  0
  -22.6000  -13.5480   21.2460 C   0  0  0  0  0  0  0  0  0  0  0  0
  -21.9260  -12.8130   22.1230 N   0  0  0  0  0  0  0  0  0  0  0  0
  -22.1220  -14.5830   20.7830 O   0  0  0  0  0  0  0  0  0  0  0  0
  -22.3230  -11.9750   22.5220 H   0  0  0  0  0  0  0  0  0  0  0  0
  -20.9960  -13.0930   22.4030 H   0  0  0  0  0  0  0  0  0  0  0  0
  -25.1470  -15.2800   20.3270 N   0  0  0  0  0  0  0  0  0  0  0  0
  -24.3740  -15.9140   20.4980 H   0  0  0  0  0  0  0  0  0  0  0  0
  -25.9460  -15.7400   19.9110 H   0  0  0  0  0  0  0  0  0  0  0  0
  -28.6460  -21.8350   19.8910 C   0  0  0  0  0  2  0  0  0  0  0  0
  -29.4250  -23.7570   21.6230 C   0  0  0  0  0  1  0  0  0  0  0  0
  -30.3140  -23.7470   19.2660 C   0  0  0  0  0  1  0  0  0  0  0  0
  -29.0580  -23.4940   20.1380 C   0  0  1  0  0  0  0  0  0  0  0  0
  -28.0010  -24.7730   19.7520 C   0  0  0  0  0  2  0  0  0  0  0  0
  -28.1920  -26.2930   20.0830 O   0  0  0  0  0  0  0  0  0  0  0  0
  -24.5770  -31.9250   23.2540 C   0  0  0  0  0  0  0  0  0  0  0  0
  -27.1120  -27.2560   20.0810 C   0  0  0  0  0  0  0  0  0  0  0  0
  -23.3470  -30.5440   21.6280 C   0  0  0  0  0  3  0  0  0  0  0  0
  -24.7680  -28.9910   20.1490 C   0  0  0  0  0  0  0  0  0  0  0  0
  -25.8970  -30.8170   21.4090 C   0  0  0  0  0  2  0  0  0  0  0  0
  -25.9620  -29.4340   20.7310 C   0  0  0  0  0  0  0  0  0  0  0  0
  -27.1330  -28.5840   20.6780 C   0  0  0  0  0  3  0  0  0  0  0  0
  -25.8800  -26.9060   19.4850 C   0  0  0  0  0  3  0  0  0  0  0  0
  -24.7400  -27.7390   19.5140 C   0  0  0  0  0  3  0  0  0  0  0  0
  -23.5390  -29.8850   20.2360 C   0  0  0  0  0  2  0  0  0  0  0  0
  -24.6290  -31.1140   22.1520 N   0  0  0  0  0  0  0  0  0  0  0  0
  -23.5010  -32.1990   23.8090 O   0  0  0  0  0  0  0  0  0  0  0  0
  -22.6910  -29.5220   22.5910 C   0  0  0  0  0  0  0  0  0  0  0  0
  -21.3650  -29.3260   22.4680 N   0  0  0  0  0  0  0  0  0  0  0  0
  -23.3760  -28.9110   23.4130 O   0  0  0  0  0  0  0  0  0  0  0  0
  -20.8660  -29.8710   21.7780 H   0  0  0  0  0  0  0  0  0  0  0  0
  -18.0120  -28.0460   22.9650 C   0  0  0  0  0  0  0  0  0  0  0  0
  -20.5640  -28.3710   23.2390 C   0  0  0  0  0  3  0  0  0  0  0  0
  -20.7020  -26.9400   22.6680 C   0  0  0  0  0  2  0  0  0  0  0  0
  -19.6110  -26.5860   21.6530 C   0  0  0  0  0  2  0  0  0  0  0  0
  -18.2240  -26.6990   22.2920 C   0  0  0  0  0  2  0  0  0  0  0  0
  -19.1100  -28.8370   23.3950 C   0  0  0  0  0  0  0  0  0  0  0  0
  -18.8560  -30.0950   23.9830 C   0  0  0  0  0  3  0  0  0  0  0  0
  -17.5390  -30.5620   24.1470 C   0  0  0  0  0  3  0  0  0  0  0  0
  -16.4550  -29.7670   23.7350 C   0  0  0  0  0  3  0  0  0  0  0  0
  -16.6930  -28.5120   23.1480 C   0  0  0  0  0  3  0  0  0  0  0  0
  -25.8640  -32.5600   23.8640 C   0  0  0  0  0  3  0  0  0  0  0  0
  -26.3900  -31.7880   25.1360 C   0  0  1  0  0  0  0  0  0  0  0  0
  -25.3030  -31.5340   26.2080 C   0  0  0  0  0  1  0  0  0  0  0  0
  -26.9820  -30.4170   24.7390 C   0  0  0  0  0  1  0  0  0  0  0  0
  -27.5390  -32.5870   25.7960 C   0  0  0  0  0  1  0  0  0  0  0  0
  -25.5580  -33.9580   24.2060 N   0  0  0  0  0  0  0  0  0  0  0  0
  -25.8560  -35.0160   23.4410 C   0  0  0  0  0  0  0  0  0  0  0  0
  -26.4840  -34.9180   22.3830 O   0  0  0  0  0  0  0  0  0  0  0  0
  -24.9950  -34.1080   25.0300 H   0  0  0  0  0  0  0  0  0  0  0  0
  -24.0970  -36.7980   23.1840 C   0  0  0  0  0  1  0  0  0  0  0  0
  -25.3870  -36.4040   23.9240 C   0  0  0  0  0  3  0  0  0  0  0  0
  -27.5530  -37.3160   24.6360 C   0  0  0  0  0  1  0  0  0  0  0  0
  -26.4030  -37.4650   23.7470 N   0  0  0  0  0  0  0  0  0  0  0  0
  -25.9980  -38.3840   23.9050 H   0  0  0  0  0  0  0  0  0  0  0  0
  1  2  1  0
  2  7  1  0
  3  1  2  0
  4  2  2  0
  4  8  1  0
  5  4  1  0
  6  3  1  0
  6  5  2  0
  9  6  1  0
 10 18  1  0
 11 16  1  0
 12 13  1  0
 12 11  1  0
 14 13  1  0
 14 23  1  0
 14 15  1  0
 16 10  1  0
 16 15  1  0
 17 10  2  0
 18  5  1  0
 19 18  1  0
 20 21  2  0
 21 40  1  0
 22 21  1  0
 22 25  1  0
 23 24  1  0
 23 20  1  0
 24 22  2  0
 25 26  1  0
 26 27  2  0
 28 31  1  0
 28 27  1  0
 29 28  2  0
 30 29  1  0
 30 25  2  0
 31 32  1  0
 32 33  1  0
 33 34  2  0
 35 34  1  0
 35 39  1  0
 36 35  2  0
 37 32  2  0
 37 36  1  0
 38 37  1  0
 40 41  1  0
 41 44  1  0
 41 43  1  0
 42 40  2  0
 45 20  1  0
 45 46  1  0
 47 45  1  0
 48 51  1  0
 48  3  1  0
 51 50  1  6
 51 49  1  0
 52 53  1  0
 52 51  1  0
 54 65  2  0
 55 53  1  0
 55 60  1  0
 56 64  1  0
 56 66  1  0
 57 63  1  0
 57 59  1  0
 58 64  1  0
 59 58  1  0
 60 59  2  0
 61 62  1  0
 61 55  2  0
 62 57  2  0
 63 56  1  0
 64 54  1  0
 66 68  2  0
 67 66  1  0
 69 67  1  0
 70 79  2  0
 70 75  1  0
 71 67  1  0
 71 75  1  0
 72 71  1  0
 73 74  1  0
 73 72  1  0
 74 70  1  0
 75 76  2  0
 76 77  1  0
 78 77  2  0
 79 78  1  0
 80 54  1  0
 80 85  1  0
 80 81  1  0
 81 84  1  1
 81 82  1  0
 83 81  1  0
 85 88  1  0
 86 90  1  0
 86 85  1  0
 87 86  2  0
 90 89  1  0
 92 93  1  0
 92 90  1  0
 92 91  1  0
M  ISO  4  10 100  18 100  52 101  53 101
M  END
>  <TORSDO>  (4) 
F 19

>  <SCORE>  (4) 
-15.067

>  <name>  (4) 
3

>  <ligand_id>  (4) 
3

>  <original_smiles>  (4) 
[H]c1c([H])c([H])c2c(c1[H])C([H])([H])C([H])([H])C([H])([H])C2([H])N([H])C(=O)C1([H])N(C(=O)C([H])(N([H])C(=O)C([H])(N([H])C([H])([H])[H])C([H])([H])[H])C(C([H])([H])[H])(C([H])([H])[H])C([H])([H])[H])C([H])([H])c2c([H])c(OC([H])([H])C(C([H])([H])[H])(C([H])([H])[H])C([H])([H])c3c([H])c(C([H])([H])[H])c(C([H])([H])[H])c(N([H])C(=O)N4C([H])([H])C([H])([H])C([H])([H])C([H])(n5nc(-c6c([H])c([H])c(Oc7c([H])c([H])c(F)c([H])c7F)c([H])c6[H])c(C(=O)N([H])[H])c5N([H])[H])C4([H])[H])c3Cl)c([H])c([H])c2C1([H])[H]

>  <smiles>  (4) 
[H]c1c([H])c([H])c2c(c1[H])C([H])([H])C([H])([H])C([H])([H])C2([H])N([H])C(=O)C1([H])N(C(=O)C([H])(N([H])C(=O)C([H])(N([H])C([H])([H])[H])C([H])([H])[H])C(C([H])([H])[H])(C([H])([H])[H])C([H])([H])[H])C([H])([H])c2c([H])c(OC([H])([H])C(C([H])([H])[H])(C([H])([H])[H])C([H])([H])c3c([H])c(C([H])([H])[H])c(C([H])([H])[H])c(N([H])C(=O)N4C([H])([H])C([H])([H])C([H])([H])C([H])(n5nc(-c6c([H])c([H])c(Oc7c([H])c([H])c(F)c([H])c7F)c([H])c6[H])c(C(=O)N([H])[H])c5N([H])[H])C4([H])[H])c3Cl)c([H])c([H])c2C1([H])[H]

$$$$
4:0:0
     RDKit          3D

 96104  0  0  1  0  0  0  0  0999 V2000
  -27.6390  -21.8500   18.8050 C   0  0  0  0  0  1  0  0  0  0  0  0
  -28.9500  -21.3030   19.4090 C   0  0  0  0  0  3  0  0  0  0  0  0
  -29.5270  -22.2830   20.3640 N   0  0  0  0  0  4  0  0  0  0  0  0
  -28.7730  -22.6920   20.8920 H   0  0  0  0  0  0  0  0  0  0  0  0
  -30.1240  -21.8040   21.0220 H   0  0  0  0  0  0  0  0  0  0  0  0
  -30.3440  -23.3580   19.7520 C   0  0  0  0  0  2  0  0  0  0  0  0
  -29.9940  -24.7540   20.3010 C   0  0  0  0  0  2  0  0  0  0  0  0
  -28.6320  -25.2910   19.8300 C   0  0  0  0  0  2  0  0  0  0  0  0
  -28.4910  -26.5810   20.4010 O   0  0  0  0  0  0  0  0  0  0  0  0
  -24.5670  -31.7310   23.2540 C   0  0  0  0  0  0  0  0  0  0  0  0
  -27.2770  -27.2260   20.3440 C   0  0  0  0  0  0  0  0  0  0  0  0
  -23.3960  -30.3070   21.6020 C   0  0  0  0  0  3  0  0  0  0  0  0
  -24.8770  -28.7200   20.2660 C   0  0  0  0  0  0  0  0  0  0  0  0
  -25.9280  -30.6390   21.4750 C   0  0  0  0  0  2  0  0  0  0  0  0
  -26.0140  -29.2540   20.8750 C   0  0  0  0  0  0  0  0  0  0  0  0
  -27.2110  -28.5130   20.9180 C   0  0  0  0  0  3  0  0  0  0  0  0
  -26.1190  -26.6890   19.7340 C   0  0  0  0  0  3  0  0  0  0  0  0
  -24.9210  -27.4330   19.6980 C   0  0  0  0  0  3  0  0  0  0  0  0
  -23.6400  -29.5900   20.2470 C   0  0  0  0  0  2  0  0  0  0  0  0
  -24.6480  -30.9120   22.1680 N   0  0  0  0  0  0  0  0  0  0  0  0
  -23.4750  -32.0250   23.7570 O   0  0  0  0  0  0  0  0  0  0  0  0
  -22.7090  -29.3110   22.5620 C   0  0  0  0  0  0  0  0  0  0  0  0
  -21.3780  -29.1730   22.4270 N   0  0  0  0  0  0  0  0  0  0  0  0
  -23.3650  -28.6640   23.3820 O   0  0  0  0  0  0  0  0  0  0  0  0
  -20.9100  -29.7430   21.7360 H   0  0  0  0  0  0  0  0  0  0  0  0
  -17.9590  -28.1390   22.9350 C   0  0  0  0  0  0  0  0  0  0  0  0
  -20.5280  -28.2670   23.1930 C   0  0  0  0  0  3  0  0  0  0  0  0
  -20.5590  -26.8380   22.6030 C   0  0  0  0  0  2  0  0  0  0  0  0
  -19.4360  -26.5790   21.5940 C   0  0  0  0  0  2  0  0  0  0  0  0
  -18.0660  -26.7880   22.2470 C   0  0  0  0  0  2  0  0  0  0  0  0
  -19.1170  -28.8380   23.3660 C   0  0  0  0  0  0  0  0  0  0  0  0
  -18.9670  -30.1070   23.9670 C   0  0  0  0  0  3  0  0  0  0  0  0
  -17.6900  -30.6720   24.1470 C   0  0  0  0  0  3  0  0  0  0  0  0
  -16.5460  -29.9650   23.7380 C   0  0  0  0  0  3  0  0  0  0  0  0
  -16.6810  -28.7010   23.1350 C   0  0  0  0  0  3  0  0  0  0  0  0
  -25.8410  -32.3610   23.9010 C   0  0  0  0  0  3  0  0  0  0  0  0
  -25.5360  -33.7650   24.2090 N   0  0  0  0  0  0  0  0  0  0  0  0
  -25.8860  -34.8060   23.4430 C   0  0  0  0  0  0  0  0  0  0  0  0
  -26.5770  -34.6890   22.4270 O   0  0  0  0  0  0  0  0  0  0  0  0
  -24.9310  -33.9360   25.0000 H   0  0  0  0  0  0  0  0  0  0  0  0
  -24.1690  -36.6020   23.0330 C   0  0  0  0  0  1  0  0  0  0  0  0
  -25.3930  -36.2010   23.8730 C   0  0  0  0  0  3  0  0  0  0  0  0
  -27.5100  -37.0920   24.7390 C   0  0  0  0  0  1  0  0  0  0  0  0
  -26.4280  -37.2500   23.7710 N   0  0  0  0  0  0  0  0  0  0  0  0
  -26.0210  -38.1710   23.9080 H   0  0  0  0  0  0  0  0  0  0  0  0
  -26.3270  -31.5970   25.1940 C   0  0  1  0  0  0  0  0  0  0  0  0
  -25.2130  -31.3730   26.2410 C   0  0  0  0  0  1  0  0  0  0  0  0
  -26.9110  -30.2140   24.8220 C   0  0  0  0  0  1  0  0  0  0  0  0
  -27.4650  -32.3930   25.8760 C   0  0  0  0  0  1  0  0  0  0  0  0
  -28.7790  -19.9270   20.0960 C   0  0  0  0  0  2  0  0  0  0  0  0
  -28.2050  -18.8160   19.1920 C   0  0  0  0  0  2  0  0  0  0  0  0
  -29.7800  -16.7640   19.4530 C   0  0  0  0  0  0  0  0  0  0  0  0
  -28.5650  -17.4560   19.7140 C   0  0  0  0  0  0  0  0  0  0  0  0
  -29.6820  -15.6730   20.2760 C   0  0  0  0  0  0  0  0  0  0  0  0
  -30.8740  -17.2380   18.5300 C   0  0  0  0  0  1  0  0  0  0  0  0
  -27.8850  -14.7870   21.8860 C   0  0  0  0  0  1  0  0  0  0  0  0
  -27.7820  -16.8230   20.5790 N   0  0  0  0  0  0  0  0  0  0  0  0
  -28.4690  -15.7140   20.9330 N   0  0  0  0  0  0  0  0  0  0  0  0
  -30.9740  -13.8250   19.5820 C   0  0  0  0  0  0  0  0  0  0  0  0
  -30.4230  -11.6690   18.5150 C   0  0  0  0  0  2  0  0  0  0  0  0
  -29.3680  -11.8050   17.4020 C   0  0  0  0  0  2  0  0  0  0  0  0
  -27.9390  -11.7620   17.9790 C   0  0  0  0  0  2  0  0  0  0  0  0
  -27.7590  -12.7120   19.1920 C   0  0  0  0  0  3  0  0  0  0  0  0
  -28.9030  -12.5060   20.2050 C   0  0  0  0  0  2  0  0  0  0  0  0
  -30.1760  -12.7270   19.5040 N   0  0  0  0  0  0  0  0  0  0  0  0
  -31.9910  -13.9570   18.8940 O   0  0  0  0  0  0  0  0  0  0  0  0
  -31.6560  -15.0980   21.5120 C   0  0  0  0  0  1  0  0  0  0  0  0
  -30.6430  -14.7390   20.5180 N   0  0  0  0  0  0  0  0  0  0  0  0
  -25.4960  -13.4970   20.1380 C   0  0  0  0  0  0  0  0  0  0  0  0
  -24.4220  -12.8050   20.6290 C   0  0  0  0  0  0  0  0  0  0  0  0
  -24.7820  -11.4240   20.5740 C   0  0  0  0  0  0  0  0  0  0  0  0
  -26.4490  -12.5430   19.8170 N   0  0  0  0  0  0  0  0  0  0  0  0
  -26.0260  -11.2900   20.1310 N   0  0  0  0  0  0  0  0  0  0  0  0
  -23.9970  -10.2160   20.8640 C   0  0  0  0  0  0  0  0  0  0  0  0
  -24.4220   -9.2700   21.8220 C   0  0  0  0  0  3  0  0  0  0  0  0
  -23.6410   -8.1260   22.0940 C   0  0  0  0  0  3  0  0  0  0  0  0
  -22.4200   -7.9210   21.4100 C   0  0  0  0  0  0  0  0  0  0  0  0
  -22.0130   -8.8520   20.4400 C   0  0  0  0  0  3  0  0  0  0  0  0
  -22.7930   -9.9870   20.1650 C   0  0  0  0  0  3  0  0  0  0  0  0
  -21.6100   -6.8260   21.5870 O   0  0  0  0  0  0  0  0  0  0  0  0
  -21.5470   -6.1670   22.7880 C   0  0  0  0  0  0  0  0  0  0  0  0
  -21.1720   -6.8240   23.9810 C   0  0  0  0  0  3  0  0  0  0  0  0
  -21.0520   -6.0920   25.1800 C   0  0  0  0  0  3  0  0  0  0  0  0
  -21.2950   -4.7060   25.1870 C   0  0  0  0  0  0  0  0  0  0  0  0
  -21.6650   -4.0490   24.0000 C   0  0  0  0  0  3  0  0  0  0  0  0
  -21.7890   -4.7780   22.8040 C   0  0  0  0  0  0  0  0  0  0  0  0
  -22.1240   -4.1380   21.6580 F   0  0  0  0  0  0  0  0  0  0  0  0
  -21.1700   -4.0000   26.3350 F   0  0  0  0  0  0  0  0  0  0  0  0
  -23.1010  -13.3810   21.0480 C   0  0  0  0  0  0  0  0  0  0  0  0
  -22.4370  -12.7540   22.0130 N   0  0  0  0  0  0  0  0  0  0  0  0
  -22.6690  -14.4210   20.5530 O   0  0  0  0  0  0  0  0  0  0  0  0
  -22.8000  -11.9120   22.4340 H   0  0  0  0  0  0  0  0  0  0  0  0
  -21.5540  -13.1230   22.3360 H   0  0  0  0  0  0  0  0  0  0  0  0
  -25.7320  -14.8530   19.9200 N   0  0  0  0  0  0  0  0  0  0  0  0
  -25.0460  -15.5650   20.1470 H   0  0  0  0  0  0  0  0  0  0  0  0
  -26.6290  -15.2450   19.6620 H   0  0  0  0  0  0  0  0  0  0  0  0
  2  1  1  0
  2 50  1  0
  2  3  1  0
  3  4  1  0
  3  5  1  0
  6  7  1  0
  6  3  1  0
  8  7  1  0
  8  9  1  0
 10 21  2  0
 11  9  1  0
 11 16  1  0
 12 20  1  0
 12 22  1  0
 13 15  1  0
 14 20  1  0
 15 16  2  0
 15 14  1  0
 17 11  2  0
 18 17  1  0
 18 13  2  0
 19 13  1  0
 19 12  1  0
 20 10  1  0
 22 24  2  0
 23 22  1  0
 25 23  1  0
 26 35  2  0
 26 31  1  0
 27 23  1  0
 27 31  1  0
 28 27  1  0
 29 30  1  0
 29 28  1  0
 30 26  1  0
 31 32  2  0
 32 33  1  0
 34 33  2  0
 35 34  1  0
 36 10  1  0
 36 37  1  0
 36 46  1  0
 37 40  1  0
 38 42  1  0
 38 37  1  0
 39 38  2  0
 42 41  1  0
 44 42  1  0
 44 45  1  0
 44 43  1  0
 46 49  1  1
 46 47  1  0
 48 46  1  0
 51 53  1  0
 51 50  1  0
 52 53  1  0
 52 54  2  0
 53 57  2  0
 54 68  1  0
 54 58  1  0
 55 52  1  0
 57 58  1  0
 58 56  1  0
 59 68  1  0
 60 65  1  0
 61 62  1  0
 61 60  1  0
 63 62  1  0
 63 72  1  0
 63 64  1  0
 65 59  1  0
 65 64  1  0
 66 59  2  0
 68 67  1  0
 69 70  2  0
 70 89  1  0
 71 70  1  0
 71 74  1  0
 72 73  1  0
 72 69  1  0
 73 71  2  0
 74 75  1  0
 75 76  2  0
 77 80  1  0
 77 76  1  0
 78 77  2  0
 79 78  1  0
 79 74  2  0
 80 81  1  0
 81 86  2  0
 81 82  1  0
 82 83  2  0
 83 84  1  0
 84 88  1  0
 85 84  2  0
 86 85  1  0
 87 86  1  0
 89 90  1  0
 90 93  1  0
 90 92  1  0
 91 89  2  0
 94 69  1  0
 94 95  1  0
 96 94  1  0
M  ISO  4   8 101   9 101  59 100  68 100
M  END
>  <TORSDO>  (5) 
F 23

>  <SCORE>  (5) 
-10.551

>  <name>  (5) 
4

>  <ligand_id>  (5) 
4

>  <original_smiles>  (5) 
[H]c1c([H])c([H])c2c(c1[H])C([H])([H])C([H])([H])C([H])([H])C2([H])N([H])C(=O)C1([H])N(C(=O)C([H])(N([H])C(=O)C([H])(N([H])C([H])([H])[H])C([H])([H])[H])C(C([H])([H])[H])(C([H])([H])[H])C([H])([H])[H])C([H])([H])c2c([H])c(OC([H])([H])C([H])([H])C([H])([H])[N+]([H])([H])C([H])(C([H])([H])[H])C([H])([H])C([H])([H])c3nn(C([H])([H])[H])c(N(C(=O)N4C([H])([H])C([H])([H])C([H])([H])C([H])(n5nc(-c6c([H])c([H])c(Oc7c([H])c([H])c(F)c([H])c7F)c([H])c6[H])c(C(=O)N([H])[H])c5N([H])[H])C4([H])[H])C([H])([H])[H])c3C([H])([H])[H])c([H])c([H])c2C1([H])[H]

>  <smiles>  (5) 
[H]c1c([H])c([H])c2c(c1[H])C([H])([H])C([H])([H])C([H])([H])C2([H])N([H])C(=O)C1([H])N(C(=O)C([H])(N([H])C(=O)C([H])(N([H])C([H])([H])[H])C([H])([H])[H])C(C([H])([H])[H])(C([H])([H])[H])C([H])([H])[H])C([H])([H])c2c([H])c(OC([H])([H])C([H])([H])C([H])([H])[N+]([H])([H])C([H])(C([H])([H])[H])C([H])([H])C([H])([H])c3nn(C([H])([H])[H])c(N(C(=O)N4C([H])([H])C([H])([H])C([H])([H])C([H])(n5nc(-c6c([H])c([H])c(Oc7c([H])c([H])c(F)c([H])c7F)c([H])c6[H])c(C(=O)N([H])[H])c5N([H])[H])C4([H])[H])C([H])([H])[H])c3C([H])([H])[H])c([H])c([H])c2C1([H])[H]

$$$$
6:0:0
     RDKit          3D

 94102  0  0  1  0  0  0  0  0999 V2000
  -30.2070  -22.8220   21.9280 C   0  0  0  0  0  1  0  0  0  0  0  0
  -30.2030  -22.5560   20.4000 C   0  0  2  0  0  0  0  0  0  0  0  0
  -30.8670  -19.9140   21.1890 C   0  0  0  0  0  2  0  0  0  0  0  0
  -30.1420  -20.1660   18.8200 C   0  0  0  0  0  2  0  0  0  0  0  0
  -31.2840  -18.4320   20.7240 C   0  0  0  0  0  2  0  0  0  0  0  0
  -29.6340  -18.6450   18.7710 C   0  0  0  0  0  3  0  0  0  0  0  0
  -30.0280  -20.8880   20.2170 C   0  0  0  0  0  3  0  0  0  0  0  0
  -30.1660  -17.7080   19.9240 C   0  0  0  0  0  0  0  0  0  0  0  0
  -30.5800  -15.0030   19.5850 C   0  0  0  0  0  0  0  0  0  0  0  0
  -30.4300  -12.7560   18.3790 C   0  0  0  0  0  2  0  0  0  0  0  0
  -29.3350  -12.7700   17.2800 C   0  0  0  0  0  2  0  0  0  0  0  0
  -27.9270  -12.5050   17.8550 C   0  0  0  0  0  2  0  0  0  0  0  0
  -27.6820  -13.2970   19.1600 C   0  0  0  0  0  3  0  0  0  0  0  0
  -28.8750  -13.0700   20.1210 C   0  0  0  0  0  2  0  0  0  0  0  0
  -30.0320  -13.7070   19.4650 N   0  0  0  0  0  0  0  0  0  0  0  0
  -31.7000  -15.1450   19.0750 O   0  0  0  0  0  0  0  0  0  0  0  0
  -29.8400  -16.1590   20.0580 N   0  0  0  0  0  0  0  0  0  0  0  0
  -25.3320  -13.8410   20.0460 C   0  0  0  0  0  0  0  0  0  0  0  0
  -24.3360  -13.0530   20.5450 C   0  0  0  0  0  0  0  0  0  0  0  0
  -24.8390  -11.7180   20.5010 C   0  0  0  0  0  0  0  0  0  0  0  0
  -26.3910  -12.9910   19.7660 N   0  0  0  0  0  0  0  0  0  0  0  0
  -26.1010  -11.7070   20.0880 N   0  0  0  0  0  0  0  0  0  0  0  0
  -24.1670  -10.4440   20.7670 C   0  0  0  0  0  0  0  0  0  0  0  0
  -24.6470   -9.5560   21.7530 C   0  0  0  0  0  3  0  0  0  0  0  0
  -23.9770   -8.3400   22.0040 C   0  0  0  0  0  3  0  0  0  0  0  0
  -22.8140   -8.0090   21.2690 C   0  0  0  0  0  0  0  0  0  0  0  0
  -22.3550   -8.8870   20.2720 C   0  0  0  0  0  3  0  0  0  0  0  0
  -23.0280  -10.0920   20.0190 C   0  0  0  0  0  3  0  0  0  0  0  0
  -22.1100   -6.8400   21.4290 O   0  0  0  0  0  0  0  0  0  0  0  0
  -22.0050   -6.2250   22.6510 C   0  0  0  0  0  0  0  0  0  0  0  0
  -21.5030   -6.8980   23.7850 C   0  0  0  0  0  3  0  0  0  0  0  0
  -21.3490   -6.2060   25.0020 C   0  0  0  0  0  3  0  0  0  0  0  0
  -21.6890   -4.8430   25.0870 C   0  0  0  0  0  0  0  0  0  0  0  0
  -22.1850   -4.1710   23.9570 C   0  0  0  0  0  3  0  0  0  0  0  0
  -22.3420   -4.8590   22.7410 C   0  0  0  0  0  0  0  0  0  0  0  0
  -22.8010   -4.2000   21.6480 F   0  0  0  0  0  0  0  0  0  0  0  0
  -21.5330   -4.1760   26.2530 F   0  0  0  0  0  0  0  0  0  0  0  0
  -22.9560  -13.4990   20.9370 C   0  0  0  0  0  0  0  0  0  0  0  0
  -22.3540  -12.8270   21.9110 N   0  0  0  0  0  0  0  0  0  0  0  0
  -22.4280  -14.4810   20.4180 O   0  0  0  0  0  0  0  0  0  0  0  0
  -22.8000  -12.0360   22.3510 H   0  0  0  0  0  0  0  0  0  0  0  0
  -21.4340  -13.1050   22.2230 H   0  0  0  0  0  0  0  0  0  0  0  0
  -25.4020  -15.2000   19.7780 N   0  0  0  0  0  0  0  0  0  0  0  0
  -24.6060  -15.8110   19.9130 H   0  0  0  0  0  0  0  0  0  0  0  0
  -26.1940  -15.6630   19.3550 H   0  0  0  0  0  0  0  0  0  0  0  0
  -29.4300  -16.0640   22.5090 C   0  0  0  0  0  1  0  0  0  0  0  0
  -27.4450  -16.8630   21.1030 C   0  0  0  0  0  1  0  0  0  0  0  0
  -28.7690  -16.0130   21.1210 C   0  0  0  0  0  3  0  0  0  0  0  0
  -32.8630  -22.4280   20.3710 C   0  0  0  0  0  1  0  0  0  0  0  0
  -31.5650  -23.0140   19.7820 C   0  0  0  0  0  2  0  0  0  0  0  0
  -29.0880  -23.6490   19.8120 C   0  0  0  0  0  3  0  0  0  0  0  0
  -27.8960  -23.0580   19.9270 F   0  0  0  0  0  0  0  0  0  0  0  0
  -28.8750  -25.1730   20.4600 C   0  0  0  0  0  2  0  0  0  0  0  0
  -28.5760  -26.4880   19.7690 O   0  0  0  0  0  0  0  0  0  0  0  0
  -24.5790  -31.6890   23.0870 C   0  0  0  0  0  0  0  0  0  0  0  0
  -27.3900  -27.2620   19.9330 C   0  0  0  0  0  0  0  0  0  0  0  0
  -23.4340  -30.2870   21.4100 C   0  0  0  0  0  3  0  0  0  0  0  0
  -24.9470  -28.8100   19.9580 C   0  0  0  0  0  0  0  0  0  0  0  0
  -25.9620  -30.6990   21.2320 C   0  0  0  0  0  2  0  0  0  0  0  0
  -26.1010  -29.3270   20.5620 C   0  0  0  0  0  0  0  0  0  0  0  0
  -27.3220  -28.5700   20.5300 C   0  0  0  0  0  3  0  0  0  0  0  0
  -26.2050  -26.8060   19.3160 C   0  0  0  0  0  3  0  0  0  0  0  0
  -25.0040  -27.5580   19.3230 C   0  0  0  0  0  3  0  0  0  0  0  0
  -23.6770  -29.6440   20.0150 C   0  0  0  0  0  2  0  0  0  0  0  0
  -24.6770  -30.9090   21.9690 N   0  0  0  0  0  0  0  0  0  0  0  0
  -23.4810  -31.9080   23.6280 O   0  0  0  0  0  0  0  0  0  0  0  0
  -22.8010  -29.2280   22.3500 C   0  0  0  0  0  0  0  0  0  0  0  0
  -21.4820  -29.0070   22.2170 N   0  0  0  0  0  0  0  0  0  0  0  0
  -23.5000  -28.6080   23.1540 O   0  0  0  0  0  0  0  0  0  0  0  0
  -20.9740  -29.5590   21.5430 H   0  0  0  0  0  0  0  0  0  0  0  0
  -18.1450  -27.6820   22.6980 C   0  0  0  0  0  0  0  0  0  0  0  0
  -20.6980  -28.0190   22.9630 C   0  0  0  0  0  3  0  0  0  0  0  0
  -20.8470  -26.6110   22.3430 C   0  0  0  0  0  2  0  0  0  0  0  0
  -19.7500  -26.2840   21.3240 C   0  0  0  0  0  2  0  0  0  0  0  0
  -18.3650  -26.3640   21.9750 C   0  0  0  0  0  2  0  0  0  0  0  0
  -19.2420  -28.4660   23.1450 C   0  0  0  0  0  0  0  0  0  0  0  0
  -18.9840  -29.7020   23.7770 C   0  0  0  0  0  3  0  0  0  0  0  0
  -17.6630  -30.1530   23.9670 C   0  0  0  0  0  3  0  0  0  0  0  0
  -16.5820  -29.3650   23.5320 C   0  0  0  0  0  3  0  0  0  0  0  0
  -16.8250  -28.1330   22.9020 C   0  0  0  0  0  3  0  0  0  0  0  0
  -25.8280  -32.3590   23.7330 C   0  0  0  0  0  3  0  0  0  0  0  0
  -25.4700  -33.7440   24.0770 N   0  0  0  0  0  0  0  0  0  0  0  0
  -25.7800  -34.8180   23.3410 C   0  0  0  0  0  0  0  0  0  0  0  0
  -26.4640  -34.7470   22.3150 O   0  0  0  0  0  0  0  0  0  0  0  0
  -24.8590  -33.8700   24.8750 H   0  0  0  0  0  0  0  0  0  0  0  0
  -24.0080  -36.5630   22.9800 C   0  0  0  0  0  1  0  0  0  0  0  0
  -25.2470  -36.1840   23.8070 C   0  0  0  0  0  3  0  0  0  0  0  0
  -27.3400  -37.1130   24.6900 C   0  0  0  0  0  1  0  0  0  0  0  0
  -26.2540  -37.2650   23.7270 N   0  0  0  0  0  0  0  0  0  0  0  0
  -25.8210  -38.1740   23.8780 H   0  0  0  0  0  0  0  0  0  0  0  0
  -26.3490  -31.5920   25.0090 C   0  0  1  0  0  0  0  0  0  0  0  0
  -25.2440  -31.3040   26.0520 C   0  0  0  0  0  1  0  0  0  0  0  0
  -26.9900  -30.2430   24.6110 C   0  0  0  0  0  1  0  0  0  0  0  0
  -27.4510  -32.4220   25.7040 C   0  0  0  0  0  1  0  0  0  0  0  0
  2  1  1  1
  4  7  1  0
  5  3  1  0
  6  4  1  0
  6  8  2  0
  7  2  1  0
  7  3  1  0
  8 17  1  0
  8  5  1  0
  9 17  1  0
 10 15  1  0
 11 12  1  0
 11 10  1  0
 13 12  1  0
 13 21  1  0
 13 14  1  0
 15  9  1  0
 15 14  1  0
 16  9  2  0
 17 48  1  0
 18 19  2  0
 19 38  1  0
 20 19  1  0
 20 23  1  0
 21 18  1  0
 21 22  1  0
 22 20  2  0
 23 24  1  0
 24 25  2  0
 26 29  1  0
 26 25  1  0
 27 26  2  0
 28 27  1  0
 28 23  2  0
 29 30  1  0
 30 35  2  0
 30 31  1  0
 31 32  2  0
 32 33  1  0
 33 37  1  0
 34 33  2  0
 35 34  1  0
 36 35  1  0
 38 39  1  0
 39 42  1  0
 39 41  1  0
 40 38  2  0
 43 44  1  0
 43 18  1  0
 45 43  1  0
 47 48  1  0
 48 46  1  0
 50 49  1  0
 50  2  1  0
 51 52  1  0
 51  2  1  0
 51 53  1  0
 54 56  1  0
 54 53  1  0
 55 66  2  0
 56 61  1  0
 57 65  1  0
 57 67  1  0
 58 64  1  0
 58 60  1  0
 59 65  1  0
 60 59  1  0
 61 60  2  0
 62 63  1  0
 62 56  2  0
 63 58  2  0
 64 57  1  0
 65 55  1  0
 67 69  2  0
 68 67  1  0
 70 68  1  0
 71 80  2  0
 71 76  1  0
 72 68  1  0
 72 76  1  0
 73 72  1  0
 74 75  1  0
 74 73  1  0
 75 71  1  0
 76 77  2  0
 77 78  1  0
 79 78  2  0
 80 79  1  0
 81 55  1  0
 81 82  1  0
 81 91  1  0
 82 85  1  0
 83 87  1  0
 83 82  1  0
 84 83  2  0
 87 86  1  0
 89 87  1  0
 89 90  1  0
 89 88  1  0
 91 94  1  1
 91 92  1  0
 93 91  1  0
M  ISO  4   9 100  17 100  53 101  54 101
M  END
>  <TORSDO>  (6) 
F 21

>  <SCORE>  (6) 
-8.917

>  <name>  (6) 
6

>  <ligand_id>  (6) 
6

>  <original_smiles>  (6) 
[H]c1c([H])c([H])c2c(c1[H])C([H])([H])C([H])([H])C([H])([H])C2([H])N([H])C(=O)C1([H])N(C(=O)C([H])(N([H])C(=O)C([H])(N([H])C([H])([H])[H])C([H])([H])[H])C(C([H])([H])[H])(C([H])([H])[H])C([H])([H])[H])C([H])([H])c2c([H])c(OC([H])([H])C([H])(F)C(C([H])([H])[H])(C([H])([H])C([H])([H])[H])C3([H])C([H])([H])C([H])([H])C([H])(N(C(=O)N4C([H])([H])C([H])([H])C([H])([H])C([H])(n5nc(-c6c([H])c([H])c(Oc7c([H])c([H])c(F)c([H])c7F)c([H])c6[H])c(C(=O)N([H])[H])c5N([H])[H])C4([H])[H])C([H])(C([H])([H])[H])C([H])([H])[H])C([H])([H])C3([H])[H])c([H])c([H])c2C1([H])[H]

>  <smiles>  (6) 
[H]c1c([H])c([H])c2c(c1[H])C([H])([H])C([H])([H])C([H])([H])C2([H])N([H])C(=O)C1([H])N(C(=O)C([H])(N([H])C(=O)C([H])(N([H])C([H])([H])[H])C([H])([H])[H])C(C([H])([H])[H])(C([H])([H])[H])C([H])([H])[H])C([H])([H])c2c([H])c(OC([H])([H])C([H])(F)C(C([H])([H])[H])(C([H])([H])C([H])([H])[H])C3([H])C([H])([H])C([H])([H])C([H])(N(C(=O)N4C([H])([H])C([H])([H])C([H])([H])C([H])(n5nc(-c6c([H])c([H])c(Oc7c([H])c([H])c(F)c([H])c7F)c([H])c6[H])c(C(=O)N([H])[H])c5N([H])[H])C4([H])[H])C([H])(C([H])([H])[H])C([H])([H])[H])C([H])([H])C3([H])[H])c([H])c([H])c2C1([H])[H]

$$$$
7:0:0
     RDKit          3D

 95103  0  0  1  0  0  0  0  0999 V2000
  -30.1600  -20.8980   18.8600 C   0  0  0  0  0  2  0  0  0  0  0  0
  -29.0750  -17.3070   19.8220 C   0  0  0  0  0  3  0  0  0  0  0  0
  -31.3980  -18.9020   19.9780 C   0  0  0  0  0  0  0  0  0  0  0  0
  -30.1960  -19.4720   19.4550 C   0  0  0  0  0  0  0  0  0  0  0  0
  -30.2640  -16.7270   20.3020 C   0  0  0  0  0  0  0  0  0  0  0  0
  -29.0320  -18.6570   19.4120 C   0  0  0  0  0  0  0  0  0  0  0  0
  -31.4200  -17.5460   20.4090 C   0  0  0  0  0  0  0  0  0  0  0  0
  -32.6940  -19.7090   20.0920 C   0  0  0  0  0  1  0  0  0  0  0  0
  -27.5190  -19.2690   18.8410 Cl  0  0  0  0  0  0  0  0  0  0  0  0
  -32.8840  -16.8940   21.0730 Cl  0  0  0  0  0  0  0  0  0  0  0  0
  -30.6750  -14.3930   19.8120 C   0  0  0  0  0  0  0  0  0  0  0  0
  -30.1020  -12.3820   18.4880 C   0  0  0  0  0  2  0  0  0  0  0  0
  -29.0450  -12.7140   17.4170 C   0  0  0  0  0  2  0  0  0  0  0  0
  -27.6250  -12.5710   17.9990 C   0  0  0  0  0  2  0  0  0  0  0  0
  -27.4630  -13.3080   19.3520 C   0  0  0  0  0  3  0  0  0  0  0  0
  -28.6220  -12.9720   20.3130 C   0  0  0  0  0  2  0  0  0  0  0  0
  -29.8950  -13.2840   19.6390 N   0  0  0  0  0  0  0  0  0  0  0  0
  -31.6680  -14.5930   19.1070 O   0  0  0  0  0  0  0  0  0  0  0  0
  -30.2610  -15.0700   22.1360 C   0  0  0  0  0  1  0  0  0  0  0  0
  -30.2590  -15.3440   20.6940 N   0  0  0  0  0  0  0  0  0  0  0  0
  -25.1620  -13.9110   20.3300 C   0  0  0  0  0  0  0  0  0  0  0  0
  -24.1300  -13.1380   20.7890 C   0  0  0  0  0  0  0  0  0  0  0  0
  -24.5690  -11.7840   20.6700 C   0  0  0  0  0  0  0  0  0  0  0  0
  -26.1650  -13.0290   19.9620 N   0  0  0  0  0  0  0  0  0  0  0  0
  -25.8180  -11.7430   20.2250 N   0  0  0  0  0  0  0  0  0  0  0  0
  -23.8510  -10.5250   20.9010 C   0  0  0  0  0  0  0  0  0  0  0  0
  -24.3410   -9.5510   21.7980 C   0  0  0  0  0  3  0  0  0  0  0  0
  -23.6250   -8.3550   22.0170 C   0  0  0  0  0  3  0  0  0  0  0  0
  -22.4050   -8.1240   21.3380 C   0  0  0  0  0  0  0  0  0  0  0  0
  -21.9330   -9.0880   20.4300 C   0  0  0  0  0  3  0  0  0  0  0  0
  -22.6490  -10.2740   20.2090 C   0  0  0  0  0  3  0  0  0  0  0  0
  -21.6540   -6.9810   21.4670 O   0  0  0  0  0  0  0  0  0  0  0  0
  -21.6450   -6.2530   22.6290 C   0  0  0  0  0  0  0  0  0  0  0  0
  -21.2730   -6.8260   23.8640 C   0  0  0  0  0  3  0  0  0  0  0  0
  -21.2110   -6.0260   25.0220 C   0  0  0  0  0  3  0  0  0  0  0  0
  -21.5090   -4.6520   24.9460 C   0  0  0  0  0  0  0  0  0  0  0  0
  -21.8740   -4.0780   23.7160 C   0  0  0  0  0  3  0  0  0  0  0  0
  -21.9400   -4.8750   22.5610 C   0  0  0  0  0  0  0  0  0  0  0  0
  -22.2710   -4.3130   21.3730 F   0  0  0  0  0  0  0  0  0  0  0  0
  -21.4420   -3.8810   26.0570 F   0  0  0  0  0  0  0  0  0  0  0  0
  -22.7770  -13.6220   21.2230 C   0  0  0  0  0  0  0  0  0  0  0  0
  -22.1420  -12.9140   22.1510 N   0  0  0  0  0  0  0  0  0  0  0  0
  -22.2950  -14.6600   20.7730 O   0  0  0  0  0  0  0  0  0  0  0  0
  -22.5490  -12.0740   22.5360 H   0  0  0  0  0  0  0  0  0  0  0  0
  -21.2370  -13.2210   22.4800 H   0  0  0  0  0  0  0  0  0  0  0  0
  -25.3230  -15.2860   20.1800 N   0  0  0  0  0  0  0  0  0  0  0  0
  -24.5780  -15.9410   20.3840 H   0  0  0  0  0  0  0  0  0  0  0  0
  -26.1330  -15.7250   19.7630 H   0  0  0  0  0  0  0  0  0  0  0  0
  -29.9180  -22.0050   19.8260 N   0  0  0  0  0  4  0  0  0  0  0  0
  -30.6350  -21.9840   20.5330 H   0  0  0  0  0  0  0  0  0  0  0  0
  -29.0320  -21.8520   20.2750 H   0  0  0  0  0  0  0  0  0  0  0  0
  -29.9180  -23.3480   19.1750 C   0  0  0  0  0  2  0  0  0  0  0  0
  -29.6300  -24.5570   20.1170 C   0  0  0  0  0  2  0  0  0  0  0  0
  -28.3140  -25.3050   19.7990 C   0  0  0  0  0  2  0  0  0  0  0  0
  -28.3120  -26.6420   20.3220 O   0  0  0  0  0  0  0  0  0  0  0  0
  -24.5210  -31.9150   23.2510 C   0  0  0  0  0  0  0  0  0  0  0  0
  -27.1310  -27.3670   20.2760 C   0  0  0  0  0  0  0  0  0  0  0  0
  -23.3050  -30.4860   21.6390 C   0  0  0  0  0  3  0  0  0  0  0  0
  -24.7440  -28.8990   20.2590 C   0  0  0  0  0  0  0  0  0  0  0  0
  -25.8360  -30.8100   21.4420 C   0  0  0  0  0  2  0  0  0  0  0  0
  -25.9080  -29.4230   20.8360 C   0  0  0  0  0  0  0  0  0  0  0  0
  -27.0990  -28.6630   20.8470 C   0  0  0  0  0  3  0  0  0  0  0  0
  -25.9460  -26.8640   19.6880 C   0  0  0  0  0  3  0  0  0  0  0  0
  -24.7580  -27.6160   19.6880 C   0  0  0  0  0  3  0  0  0  0  0  0
  -23.5090  -29.7690   20.2790 C   0  0  0  0  0  2  0  0  0  0  0  0
  -24.5720  -31.0870   22.1680 N   0  0  0  0  0  0  0  0  0  0  0  0
  -23.4400  -32.2100   23.7820 O   0  0  0  0  0  0  0  0  0  0  0  0
  -22.6410  -29.4950   22.6230 C   0  0  0  0  0  0  0  0  0  0  0  0
  -21.3190  -29.3050   22.4820 N   0  0  0  0  0  0  0  0  0  0  0  0
  -23.3130  -28.8990   23.4670 O   0  0  0  0  0  0  0  0  0  0  0  0
  -20.8390  -29.8420   21.7730 H   0  0  0  0  0  0  0  0  0  0  0  0
  -17.9470  -28.0910   22.9490 C   0  0  0  0  0  0  0  0  0  0  0  0
  -20.4940  -28.3880   23.2690 C   0  0  0  0  0  3  0  0  0  0  0  0
  -20.6230  -26.9360   22.7540 C   0  0  0  0  0  2  0  0  0  0  0  0
  -19.5500  -26.5600   21.7270 C   0  0  0  0  0  2  0  0  0  0  0  0
  -18.1530  -26.7170   22.3330 C   0  0  0  0  0  2  0  0  0  0  0  0
  -19.0470  -28.8820   23.3740 C   0  0  0  0  0  0  0  0  0  0  0  0
  -18.8040  -30.1650   23.9090 C   0  0  0  0  0  3  0  0  0  0  0  0
  -17.4910  -30.6610   24.0190 C   0  0  0  0  0  3  0  0  0  0  0  0
  -16.4050  -29.8700   23.6100 C   0  0  0  0  0  3  0  0  0  0  0  0
  -16.6320  -28.5850   23.0840 C   0  0  0  0  0  3  0  0  0  0  0  0
  -25.8120  -32.5480   23.8580 C   0  0  0  0  0  3  0  0  0  0  0  0
  -25.5050  -33.9470   24.1840 N   0  0  0  0  0  0  0  0  0  0  0  0
  -25.8240  -34.9950   23.4130 C   0  0  0  0  0  0  0  0  0  0  0  0
  -26.4800  -34.8850   22.3740 O   0  0  0  0  0  0  0  0  0  0  0  0
  -24.9180  -34.1060   24.9900 H   0  0  0  0  0  0  0  0  0  0  0  0
  -24.0870  -36.7800   23.0680 C   0  0  0  0  0  1  0  0  0  0  0  0
  -25.3400  -36.3850   23.8670 C   0  0  0  0  0  3  0  0  0  0  0  0
  -27.4840  -37.2800   24.6600 C   0  0  0  0  0  1  0  0  0  0  0  0
  -26.3680  -37.4390   23.7310 N   0  0  0  0  0  0  0  0  0  0  0  0
  -25.9620  -38.3590   23.8780 H   0  0  0  0  0  0  0  0  0  0  0  0
  -26.3420  -31.7820   25.1310 C   0  0  1  0  0  0  0  0  0  0  0  0
  -25.2610  -31.5430   26.2090 C   0  0  0  0  0  1  0  0  0  0  0  0
  -26.9270  -30.4050   24.7360 C   0  0  0  0  0  1  0  0  0  0  0  0
  -27.4950  -32.5820   25.7830 C   0  0  0  0  0  1  0  0  0  0  0  0
  1  4  1  0
  1 49  1  0
  2  5  1  0
  3  8  1  0
  3  7  1  0
  4  3  2  0
  5  7  2  0
  5 20  1  0
  6  4  1  0
  6  2  2  0
  7 10  1  0
  9  6  1  0
 11 20  1  0
 12 17  1  0
 13 14  1  0
 13 12  1  0
 15 14  1  0
 15 24  1  0
 15 16  1  0
 17 11  1  0
 17 16  1  0
 18 11  2  0
 20 19  1  0
 21 22  2  0
 22 41  1  0
 23 22  1  0
 23 26  1  0
 24 25  1  0
 24 21  1  0
 25 23  2  0
 26 27  1  0
 27 28  2  0
 29 32  1  0
 29 28  1  0
 30 29  2  0
 31 30  1  0
 31 26  2  0
 32 33  1  0
 33 34  1  0
 34 35  2  0
 36 35  1  0
 36 40  1  0
 37 36  2  0
 38 33  2  0
 38 37  1  0
 39 38  1  0
 41 42  1  0
 42 45  1  0
 42 44  1  0
 43 41  2  0
 46 21  1  0
 46 47  1  0
 48 46  1  0
 49 51  1  0
 49 50  1  0
 52 49  1  0
 52 53  1  0
 54 53  1  0
 54 55  1  0
 56 67  2  0
 57 55  1  0
 57 62  1  0
 58 66  1  0
 58 68  1  0
 59 65  1  0
 59 61  1  0
 60 66  1  0
 61 62  2  0
 61 60  1  0
 63 64  1  0
 63 57  2  0
 64 59  2  0
 65 58  1  0
 66 56  1  0
 68 70  2  0
 69 68  1  0
 71 69  1  0
 72 81  2  0
 72 77  1  0
 73 69  1  0
 73 77  1  0
 74 73  1  0
 75 76  1  0
 75 74  1  0
 76 72  1  0
 77 78  2  0
 78 79  1  0
 80 79  2  0
 81 80  1  0
 82 56  1  0
 82 83  1  0
 82 92  1  0
 83 86  1  0
 84 88  1  0
 84 83  1  0
 85 84  2  0
 88 87  1  0
 90 88  1  0
 90 91  1  0
 90 89  1  0
 92 95  1  1
 92 93  1  0
 94 92  1  0
M  ISO  4  11 100  20 100  54 101  55 101
M  END
>  <TORSDO>  (7) 
F 21

>  <SCORE>  (7) 
-11.404

>  <name>  (7) 
7

>  <ligand_id>  (7) 
7

>  <original_smiles>  (7) 
[H]c1c([H])c([H])c2c(c1[H])C([H])([H])C([H])([H])C([H])([H])C2([H])N([H])C(=O)C1([H])N(C(=O)C([H])(N([H])C(=O)C([H])(N([H])C([H])([H])[H])C([H])([H])[H])C(C([H])([H])[H])(C([H])([H])[H])C([H])([H])[H])C([H])([H])c2c([H])c(OC([H])([H])C([H])([H])C([H])([H])[N+]([H])([H])C([H])([H])c3c(Cl)c([H])c(N(C(=O)N4C([H])([H])C([H])([H])C([H])([H])C([H])(n5nc(-c6c([H])c([H])c(Oc7c([H])c([H])c(F)c([H])c7F)c([H])c6[H])c(C(=O)N([H])[H])c5N([H])[H])C4([H])[H])C([H])([H])[H])c(Cl)c3C([H])([H])[H])c([H])c([H])c2C1([H])[H]

>  <smiles>  (7) 
[H]c1c([H])c([H])c2c(c1[H])C([H])([H])C([H])([H])C([H])([H])C2([H])N([H])C(=O)C1([H])N(C(=O)C([H])(N([H])C(=O)C([H])(N([H])C([H])([H])[H])C([H])([H])[H])C(C([H])([H])[H])(C([H])([H])[H])C([H])([H])[H])C([H])([H])c2c([H])c(OC([H])([H])C([H])([H])C([H])([H])[N+]([H])([H])C([H])([H])c3c(Cl)c([H])c(N(C(=O)N4C([H])([H])C([H])([H])C([H])([H])C([H])(n5nc(-c6c([H])c([H])c(Oc7c([H])c([H])c(F)c([H])c7F)c([H])c6[H])c(C(=O)N([H])[H])c5N([H])[H])C4([H])[H])C([H])([H])[H])c(Cl)c3C([H])([H])[H])c([H])c([H])c2C1([H])[H]

$$$$
8:0:0
     RDKit          3D

 94102  0  0  1  0  0  0  0  0999 V2000
  -27.7250  -20.1700   20.4190 C   0  0  0  0  0  3  0  0  0  0  0  0
  -27.4210  -18.9400   19.8190 C   0  0  0  0  0  0  0  0  0  0  0  0
  -28.4700  -18.0190   19.5720 C   0  0  0  0  0  0  0  0  0  0  0  0
  -29.7220  -18.1820   20.2210 C   0  0  0  0  0  0  0  0  0  0  0  0
  -30.0320  -19.4640   20.7800 C   0  0  0  0  0  0  0  0  0  0  0  0
  -29.0490  -20.4940   20.7830 C   0  0  0  0  0  0  0  0  0  0  0  0
  -25.9610  -18.6710   19.4570 C   0  0  0  0  0  1  0  0  0  0  0  0
  -28.2860  -16.9730   18.4750 C   0  0  0  0  0  1  0  0  0  0  0  0
  -31.3950  -19.7770   21.4160 C   0  0  0  0  0  1  0  0  0  0  0  0
  -29.3940  -21.8070   21.1630 N   0  0  0  0  0  0  0  0  0  0  0  0
  -30.3740  -22.0170   21.3250 H   0  0  0  0  0  0  0  0  0  0  0  0
  -28.4530  -22.9290   21.0430 C   0  0  0  0  0  2  0  0  0  0  0  0
  -29.1040  -24.2820   20.6650 C   0  0  0  0  0  2  0  0  0  0  0  0
  -28.1490  -25.4330   21.0610 C   0  0  0  0  0  2  0  0  0  0  0  0
  -28.3660  -26.6830   20.3920 O   0  0  0  0  0  0  0  0  0  0  0  0
  -24.5400  -31.9560   23.2730 C   0  0  0  0  0  0  0  0  0  0  0  0
  -27.2280  -27.4580   20.3290 C   0  0  0  0  0  0  0  0  0  0  0  0
  -23.3600  -30.5420   21.6230 C   0  0  0  0  0  3  0  0  0  0  0  0
  -24.8380  -28.9710   20.2590 C   0  0  0  0  0  0  0  0  0  0  0  0
  -25.8890  -30.8770   21.4830 C   0  0  0  0  0  2  0  0  0  0  0  0
  -25.9850  -29.4930   20.8750 C   0  0  0  0  0  0  0  0  0  0  0  0
  -27.1820  -28.7430   20.9140 C   0  0  0  0  0  3  0  0  0  0  0  0
  -26.0690  -26.9500   19.6980 C   0  0  0  0  0  3  0  0  0  0  0  0
  -24.8730  -27.6930   19.6760 C   0  0  0  0  0  3  0  0  0  0  0  0
  -23.6030  -29.8440   20.2590 C   0  0  0  0  0  2  0  0  0  0  0  0
  -24.6120  -31.1400   22.1840 N   0  0  0  0  0  0  0  0  0  0  0  0
  -23.4480  -32.2440   23.7860 O   0  0  0  0  0  0  0  0  0  0  0  0
  -22.6770  -29.5400   22.5850 C   0  0  0  0  0  0  0  0  0  0  0  0
  -21.3460  -29.3980   22.4570 N   0  0  0  0  0  0  0  0  0  0  0  0
  -23.3410  -28.8970   23.3990 O   0  0  0  0  0  0  0  0  0  0  0  0
  -20.8600  -30.0040   21.8110 H   0  0  0  0  0  0  0  0  0  0  0  0
  -17.9360  -28.2990   22.9720 C   0  0  0  0  0  0  0  0  0  0  0  0
  -20.5040  -28.4770   23.2240 C   0  0  0  0  0  3  0  0  0  0  0  0
  -20.5510  -27.0490   22.6380 C   0  0  0  0  0  2  0  0  0  0  0  0
  -19.4290  -26.7660   21.6340 C   0  0  0  0  0  2  0  0  0  0  0  0
  -18.0600  -26.9470   22.2970 C   0  0  0  0  0  2  0  0  0  0  0  0
  -19.0830  -29.0230   23.3930 C   0  0  0  0  0  0  0  0  0  0  0  0
  -18.9140  -30.2940   23.9800 C   0  0  0  0  0  3  0  0  0  0  0  0
  -17.6250  -30.8340   24.1660 C   0  0  0  0  0  3  0  0  0  0  0  0
  -16.4930  -30.1060   23.7590 C   0  0  0  0  0  3  0  0  0  0  0  0
  -16.6500  -28.8440   23.1650 C   0  0  0  0  0  3  0  0  0  0  0  0
  -25.8180  -32.5870   23.9110 C   0  0  0  0  0  3  0  0  0  0  0  0
  -25.5110  -33.9930   24.2080 N   0  0  0  0  0  0  0  0  0  0  0  0
  -25.8740  -35.0290   23.4400 C   0  0  0  0  0  0  0  0  0  0  0  0
  -26.5740  -34.9000   22.4310 O   0  0  0  0  0  0  0  0  0  0  0  0
  -24.8980  -34.1660   24.9910 H   0  0  0  0  0  0  0  0  0  0  0  0
  -24.1870  -36.8370   22.9920 C   0  0  0  0  0  1  0  0  0  0  0  0
  -25.3880  -36.4300   23.8580 C   0  0  0  0  0  3  0  0  0  0  0  0
  -27.5030  -37.3030   24.7560 C   0  0  0  0  0  1  0  0  0  0  0  0
  -26.4400  -37.4680   23.7670 N   0  0  0  0  0  0  0  0  0  0  0  0
  -26.0400  -38.3950   23.8850 H   0  0  0  0  0  0  0  0  0  0  0  0
  -26.2980  -31.8330   25.2110 C   0  0  1  0  0  0  0  0  0  0  0  0
  -25.1770  -31.6240   26.2550 C   0  0  0  0  0  1  0  0  0  0  0  0
  -26.8810  -30.4460   24.8520 C   0  0  0  0  0  1  0  0  0  0  0  0
  -27.4390  -32.6300   25.8870 C   0  0  0  0  0  1  0  0  0  0  0  0
  -30.7310  -17.0130   20.2540 C   0  0  0  0  0  2  0  0  0  0  0  0
  -30.9310  -14.5780   20.6760 C   0  0  0  0  0  0  0  0  0  0  0  0
  -30.6200  -12.4030   19.5860 C   0  0  0  0  0  2  0  0  0  0  0  0
  -29.7530  -12.6490   18.3330 C   0  0  0  0  0  2  0  0  0  0  0  0
  -28.2590  -12.5190   18.6940 C   0  0  0  0  0  2  0  0  0  0  0  0
  -27.8650  -13.3570   19.9440 C   0  0  0  0  0  3  0  0  0  0  0  0
  -28.8760  -13.1540   21.0980 C   0  0  0  0  0  2  0  0  0  0  0  0
  -30.2260  -13.4130   20.5790 N   0  0  0  0  0  0  0  0  0  0  0  0
  -32.1300  -14.6440   20.4040 O   0  0  0  0  0  0  0  0  0  0  0  0
  -30.2080  -15.7130   20.7430 N   0  0  0  0  0  0  0  0  0  0  0  0
  -29.2200  -15.6540   20.9240 H   0  0  0  0  0  0  0  0  0  0  0  0
  -25.4300  -13.9600   20.5400 C   0  0  0  0  0  0  0  0  0  0  0  0
  -24.3480  -13.1850   20.8570 C   0  0  0  0  0  0  0  0  0  0  0  0
  -24.8220  -11.8390   20.8750 C   0  0  0  0  0  0  0  0  0  0  0  0
  -26.4920  -13.0810   20.3670 N   0  0  0  0  0  0  0  0  0  0  0  0
  -26.1250  -11.8020   20.6330 N   0  0  0  0  0  0  0  0  0  0  0  0
  -24.0920  -10.5800   21.0500 C   0  0  0  0  0  0  0  0  0  0  0  0
  -24.4710   -9.6360   22.0280 C   0  0  0  0  0  3  0  0  0  0  0  0
  -23.7380   -8.4410   22.1900 C   0  0  0  0  0  3  0  0  0  0  0  0
  -22.6120   -8.1840   21.3730 C   0  0  0  0  0  0  0  0  0  0  0  0
  -22.2510   -9.1200   20.3870 C   0  0  0  0  0  3  0  0  0  0  0  0
  -22.9850  -10.3050   20.2220 C   0  0  0  0  0  3  0  0  0  0  0  0
  -21.8540   -7.0410   21.4440 O   0  0  0  0  0  0  0  0  0  0  0  0
  -21.7290   -6.3280   22.6100 C   0  0  0  0  0  0  0  0  0  0  0  0
  -21.2090   -6.9080   23.7880 C   0  0  0  0  0  3  0  0  0  0  0  0
  -21.0370   -6.1200   24.9440 C   0  0  0  0  0  3  0  0  0  0  0  0
  -21.3720   -4.7530   24.9200 C   0  0  0  0  0  0  0  0  0  0  0  0
  -21.8840   -4.1730   23.7470 C   0  0  0  0  0  3  0  0  0  0  0  0
  -22.0600   -4.9580   22.5950 C   0  0  0  0  0  0  0  0  0  0  0  0
  -22.5360   -4.3890   21.4600 F   0  0  0  0  0  0  0  0  0  0  0  0
  -21.1990   -3.9960   26.0270 F   0  0  0  0  0  0  0  0  0  0  0  0
  -22.9400  -13.6630   21.0480 C   0  0  0  0  0  0  0  0  0  0  0  0
  -22.1690  -12.9890   21.8950 N   0  0  0  0  0  0  0  0  0  0  0  0
  -22.5240  -14.6720   20.4790 O   0  0  0  0  0  0  0  0  0  0  0  0
  -22.5130  -12.1760   22.3840 H   0  0  0  0  0  0  0  0  0  0  0  0
  -21.2210  -13.3000   22.0600 H   0  0  0  0  0  0  0  0  0  0  0  0
  -25.5820  -15.3290   20.3860 N   0  0  0  0  0  0  0  0  0  0  0  0
  -24.7850  -15.9490   20.4650 H   0  0  0  0  0  0  0  0  0  0  0  0
  -26.4400  -15.8180   20.1670 H   0  0  0  0  0  0  0  0  0  0  0  0
  1  6  1  0
  2  1  2  0
  3  2  1  0
  3  4  2  0
  4 56  1  0
  4  5  1  0
  5  6  2  0
  5  9  1  0
  6 10  1  0
  7  2  1  0
  8  3  1  0
 10 11  1  0
 12 10  1  0
 13 12  1  0
 13 14  1  0
 15 14  1  0
 16 27  2  0
 17 15  1  0
 17 22  1  0
 18 26  1  0
 18 28  1  0
 19 21  1  0
 20 26  1  0
 21 22  2  0
 21 20  1  0
 23 17  2  0
 24 23  1  0
 24 19  2  0
 25 19  1  0
 25 18  1  0
 26 16  1  0
 28 30  2  0
 29 28  1  0
 31 29  1  0
 32 41  2  0
 32 37  1  0
 33 29  1  0
 33 37  1  0
 34 33  1  0
 35 36  1  0
 35 34  1  0
 36 32  1  0
 37 38  2  0
 38 39  1  0
 40 39  2  0
 41 40  1  0
 42 16  1  0
 42 43  1  0
 42 52  1  0
 43 46  1  0
 44 48  1  0
 44 43  1  0
 45 44  2  0
 48 47  1  0
 50 48  1  0
 50 51  1  0
 50 49  1  0
 52 55  1  1
 52 53  1  0
 54 52  1  0
 56 65  1  0
 57 65  1  0
 58 63  1  0
 59 60  1  0
 59 58  1  0
 61 60  1  0
 61 70  1  0
 61 62  1  0
 63 57  1  0
 63 62  1  0
 64 57  2  0
 65 66  1  0
 67 68  2  0
 68 69  1  0
 68 87  1  0
 69 72  1  0
 70 67  1  0
 70 71  1  0
 71 69  2  0
 72 73  1  0
 73 74  2  0
 75 78  1  0
 75 74  1  0
 76 75  2  0
 77 76  1  0
 77 72  2  0
 78 79  1  0
 79 80  1  0
 80 81  2  0
 82 81  1  0
 82 86  1  0
 83 82  2  0
 84 79  2  0
 84 83  1  0
 85 84  1  0
 87 88  1  0
 88 91  1  0
 88 90  1  0
 89 87  2  0
 92 93  1  0
 92 67  1  0
 94 92  1  0
M  ISO  4  14 101  15 101  57 100  65 100
M  END
>  <TORSDO>  (8) 
F 21

>  <SCORE>  (8) 
-12.989

>  <name>  (8) 
8

>  <ligand_id>  (8) 
8

>  <original_smiles>  (8) 
[H]c1c([H])c([H])c2c(c1[H])C([H])([H])C([H])([H])C([H])([H])C2([H])N([H])C(=O)C1([H])N(C(=O)C([H])(N([H])C(=O)C([H])(N([H])C([H])([H])[H])C([H])([H])[H])C(C([H])([H])[H])(C([H])([H])[H])C([H])([H])[H])C([H])([H])c2c([H])c(OC([H])([H])C([H])([H])C([H])([H])N([H])c3c([H])c(C([H])([H])[H])c(C([H])([H])[H])c(C([H])([H])N([H])C(=O)N4C([H])([H])C([H])([H])C([H])([H])C([H])(n5nc(-c6c([H])c([H])c(Oc7c([H])c([H])c(F)c([H])c7F)c([H])c6[H])c(C(=O)N([H])[H])c5N([H])[H])C4([H])[H])c3C([H])([H])[H])c([H])c([H])c2C1([H])[H]

>  <smiles>  (8) 
[H]c1c([H])c([H])c2c(c1[H])C([H])([H])C([H])([H])C([H])([H])C2([H])N([H])C(=O)C1([H])N(C(=O)C([H])(N([H])C(=O)C([H])(N([H])C([H])([H])[H])C([H])([H])[H])C(C([H])([H])[H])(C([H])([H])[H])C([H])([H])[H])C([H])([H])c2c([H])c(OC([H])([H])C([H])([H])C([H])([H])N([H])c3c([H])c(C([H])([H])[H])c(C([H])([H])[H])c(C([H])([H])N([H])C(=O)N4C([H])([H])C([H])([H])C([H])([H])C([H])(n5nc(-c6c([H])c([H])c(Oc7c([H])c([H])c(F)c([H])c7F)c([H])c6[H])c(C(=O)N([H])[H])c5N([H])[H])C4([H])[H])c3C([H])([H])[H])c([H])c([H])c2C1([H])[H]

$$$$
9:0:0
     RDKit          3D

 88 96  0  0  1  0  0  0  0  0999 V2000
  -30.1890  -21.7130   19.6950 C   0  0  0  0  0  2  0  0  0  0  0  0
  -28.2050  -21.1870   20.7940 C   0  0  0  0  0  2  0  0  0  0  0  0
  -30.2200  -20.0230   19.3810 C   0  0  0  0  0  2  0  0  0  0  0  0
  -28.8810  -19.6870   21.2720 C   0  0  0  0  0  2  0  0  0  0  0  0
  -29.0210  -22.6020   20.4840 C   0  0  0  0  0  3  0  0  0  0  0  0
  -30.0250  -18.7740   20.4730 C   0  0  0  0  0  3  0  0  0  0  0  0
  -30.6700  -15.7440   20.4090 C   0  0  0  0  0  0  0  0  0  0  0  0
  -30.7730  -13.2210   19.6560 C   0  0  0  0  0  2  0  0  0  0  0  0
  -29.9300  -12.8280   18.4140 C   0  0  0  0  0  2  0  0  0  0  0  0
  -28.4760  -12.5130   18.8080 C   0  0  0  0  0  2  0  0  0  0  0  0
  -27.9250  -13.5310   19.8350 C   0  0  0  0  0  3  0  0  0  0  0  0
  -28.9120  -13.8510   20.9770 C   0  0  0  0  0  2  0  0  0  0  0  0
  -30.1230  -14.4080   20.3410 N   0  0  0  0  0  0  0  0  0  0  0  0
  -31.9120  -15.6890   20.4680 O   0  0  0  0  0  0  0  0  0  0  0  0
  -29.9330  -17.0680   20.1440 N   0  0  0  0  0  0  0  0  0  0  0  0
  -25.5270  -14.0830   20.5030 C   0  0  0  0  0  0  0  0  0  0  0  0
  -24.4480  -13.3050   20.8050 C   0  0  0  0  0  0  0  0  0  0  0  0
  -24.9210  -11.9580   20.7960 C   0  0  0  0  0  0  0  0  0  0  0  0
  -26.5830  -13.2110   20.3010 N   0  0  0  0  0  0  0  0  0  0  0  0
  -26.2270  -11.9250   20.5510 N   0  0  0  0  0  0  0  0  0  0  0  0
  -24.1870  -10.6970   20.9520 C   0  0  0  0  0  0  0  0  0  0  0  0
  -24.5730   -9.7290   21.9050 C   0  0  0  0  0  3  0  0  0  0  0  0
  -23.8360   -8.5330   22.0500 C   0  0  0  0  0  3  0  0  0  0  0  0
  -22.6970   -8.3010   21.2430 C   0  0  0  0  0  0  0  0  0  0  0  0
  -22.3280   -9.2590   20.2810 C   0  0  0  0  0  3  0  0  0  0  0  0
  -23.0660  -10.4450   20.1350 C   0  0  0  0  0  3  0  0  0  0  0  0
  -21.9340   -7.1600   21.2980 O   0  0  0  0  0  0  0  0  0  0  0  0
  -21.8330   -6.4140   22.4450 C   0  0  0  0  0  0  0  0  0  0  0  0
  -21.3280   -6.9610   23.6450 C   0  0  0  0  0  3  0  0  0  0  0  0
  -21.1750   -6.1410   24.7820 C   0  0  0  0  0  3  0  0  0  0  0  0
  -21.5180   -4.7780   24.7190 C   0  0  0  0  0  0  0  0  0  0  0  0
  -22.0160   -4.2320   23.5230 C   0  0  0  0  0  3  0  0  0  0  0  0
  -22.1700   -5.0470   22.3890 C   0  0  0  0  0  0  0  0  0  0  0  0
  -22.6310   -4.5100   21.2340 F   0  0  0  0  0  0  0  0  0  0  0  0
  -21.3630   -3.9880   25.8070 F   0  0  0  0  0  0  0  0  0  0  0  0
  -23.0380  -13.7810   20.9950 C   0  0  0  0  0  0  0  0  0  0  0  0
  -22.2700  -13.1050   21.8400 N   0  0  0  0  0  0  0  0  0  0  0  0
  -22.6260  -14.7920   20.4250 O   0  0  0  0  0  0  0  0  0  0  0  0
  -22.6140  -12.2910   22.3250 H   0  0  0  0  0  0  0  0  0  0  0  0
  -21.3240  -13.4130   22.0100 H   0  0  0  0  0  0  0  0  0  0  0  0
  -25.6870  -15.4550   20.3600 N   0  0  0  0  0  0  0  0  0  0  0  0
  -24.9100  -16.1010   20.4410 H   0  0  0  0  0  0  0  0  0  0  0  0
  -26.5600  -15.9120   20.1310 H   0  0  0  0  0  0  0  0  0  0  0  0
  -29.3890  -17.0480   18.7660 C   0  0  0  0  0  2  0  0  0  0  0  0
  -27.7930  -18.6110   17.4730 C   0  0  0  0  0  1  0  0  0  0  0  0
  -27.9620  -17.6190   18.6320 C   0  0  0  0  0  2  0  0  0  0  0  0
  -28.2400  -24.2540   20.0360 C   0  0  0  0  0  2  0  0  0  0  0  0
  -28.3850  -25.9290   20.2820 O   0  0  0  0  0  0  0  0  0  0  0  0
  -24.6770  -31.9430   23.1920 C   0  0  0  0  0  0  0  0  0  0  0  0
  -27.3610  -27.0500   20.1930 C   0  0  0  0  0  0  0  0  0  0  0  0
  -23.5290  -30.5280   21.5360 C   0  0  0  0  0  3  0  0  0  0  0  0
  -25.0260  -28.9410   20.1240 C   0  0  0  0  0  0  0  0  0  0  0  0
  -26.0980  -30.7670   21.4230 C   0  0  0  0  0  2  0  0  0  0  0  0
  -26.2020  -29.3500   20.7640 C   0  0  0  0  0  0  0  0  0  0  0  0
  -27.3570  -28.4280   20.7720 C   0  0  0  0  0  3  0  0  0  0  0  0
  -26.1510  -26.8140   19.4990 C   0  0  0  0  0  3  0  0  0  0  0  0
  -25.0320  -27.6960   19.4680 C   0  0  0  0  0  3  0  0  0  0  0  0
  -23.7910  -29.8480   20.1610 C   0  0  0  0  0  2  0  0  0  0  0  0
  -24.7890  -31.1090   22.1040 N   0  0  0  0  0  0  0  0  0  0  0  0
  -23.5750  -32.2120   23.6980 O   0  0  0  0  0  0  0  0  0  0  0  0
  -22.8360  -29.5220   22.4940 C   0  0  0  0  0  0  0  0  0  0  0  0
  -21.5070  -29.3480   22.3700 N   0  0  0  0  0  0  0  0  0  0  0  0
  -23.5060  -28.9000   23.3210 O   0  0  0  0  0  0  0  0  0  0  0  0
  -21.0190  -29.9080   21.6860 H   0  0  0  0  0  0  0  0  0  0  0  0
  -18.1340  -28.1070   22.8820 C   0  0  0  0  0  0  0  0  0  0  0  0
  -20.6940  -28.3930   23.1310 C   0  0  0  0  0  3  0  0  0  0  0  0
  -20.8030  -26.9700   22.5340 C   0  0  0  0  0  2  0  0  0  0  0  0
  -19.6950  -26.6540   21.5220 C   0  0  0  0  0  2  0  0  0  0  0  0
  -18.3180  -26.7730   22.1780 C   0  0  0  0  0  2  0  0  0  0  0  0
  -19.2490  -28.8750   23.3160 C   0  0  0  0  0  0  0  0  0  0  0  0
  -19.0180  -30.1200   23.9380 C   0  0  0  0  0  3  0  0  0  0  0  0
  -17.7100  -30.6010   24.1280 C   0  0  0  0  0  3  0  0  0  0  0  0
  -16.6110  -29.8310   23.7090 C   0  0  0  0  0  3  0  0  0  0  0  0
  -16.8240  -28.5850   23.0930 C   0  0  0  0  0  3  0  0  0  0  0  0
  -25.9250  -32.6120   23.8420 C   0  0  0  0  0  3  0  0  0  0  0  0
  -26.4150  -31.8690   25.1450 C   0  0  1  0  0  0  0  0  0  0  0  0
  -25.2950  -31.6300   26.1870 C   0  0  0  0  0  1  0  0  0  0  0  0
  -27.0310  -30.4940   24.8000 C   0  0  0  0  0  1  0  0  0  0  0  0
  -27.5350  -32.6900   25.8270 C   0  0  0  0  0  1  0  0  0  0  0  0
  -25.5800  -34.0100   24.1600 N   0  0  0  0  0  0  0  0  0  0  0  0
  -25.9160  -35.0750   23.4190 C   0  0  0  0  0  0  0  0  0  0  0  0
  -26.6080  -34.9840   22.4020 O   0  0  0  0  0  0  0  0  0  0  0  0
  -24.9650  -34.1530   24.9480 H   0  0  0  0  0  0  0  0  0  0  0  0
  -24.1800  -36.8620   23.0380 C   0  0  0  0  0  1  0  0  0  0  0  0
  -25.4070  -36.4600   23.8730 C   0  0  0  0  0  3  0  0  0  0  0  0
  -27.5140  -37.3680   24.7560 C   0  0  0  0  0  1  0  0  0  0  0  0
  -26.4330  -37.5230   23.7860 N   0  0  0  0  0  0  0  0  0  0  0  0
  -26.0140  -38.4390   23.9220 H   0  0  0  0  0  0  0  0  0  0  0  0
  1  5  1  0
  2  4  1  0
  3  1  1  0
  3  6  1  0
  5 47  1  0
  5  2  1  0
  6 15  1  0
  6  4  1  0
  7 14  2  0
  8 13  1  0
  9 10  1  0
  9  8  1  0
 11 10  1  0
 11 19  1  0
 11 12  1  0
 13  7  1  0
 13 12  1  0
 15  7  1  0
 16 17  2  0
 17 36  1  0
 18 17  1  0
 18 21  1  0
 19 16  1  0
 19 20  1  0
 20 18  2  0
 21 22  1  0
 22 23  2  0
 24 27  1  0
 24 23  1  0
 25 24  2  0
 26 25  1  0
 26 21  2  0
 27 28  1  0
 28 29  1  0
 29 30  2  0
 31 30  1  0
 31 35  1  0
 32 31  2  0
 33 28  2  0
 33 32  1  0
 34 33  1  0
 36 37  1  0
 37 40  1  0
 37 39  1  0
 38 36  2  0
 41 42  1  0
 41 16  1  0
 43 41  1  0
 44 15  1  0
 45 46  1  0
 46 44  1  0
 47 48  1  0
 49 60  2  0
 50 48  1  0
 50 55  1  0
 51 59  1  0
 51 61  1  0
 52 58  1  0
 52 54  1  0
 53 59  1  0
 54 55  2  0
 54 53  1  0
 56 50  2  0
 57 56  1  0
 57 52  2  0
 58 51  1  0
 59 49  1  0
 61 63  2  0
 62 61  1  0
 64 62  1  0
 65 74  2  0
 65 70  1  0
 66 62  1  0
 66 70  1  0
 67 66  1  0
 68 69  1  0
 68 67  1  0
 69 65  1  0
 70 71  2  0
 71 72  1  0
 73 72  2  0
 74 73  1  0
 75 49  1  0
 75 80  1  0
 75 76  1  0
 76 79  1  1
 76 77  1  0
 78 76  1  0
 80 83  1  0
 81 85  1  0
 81 80  1  0
 82 81  2  0
 85 84  1  0
 87 85  1  0
 87 88  1  0
 87 86  1  0
M  ISO  4   7 100  15 100  47 101  48 101
M  END
>  <TORSDO>  (9) 
F 19

>  <SCORE>  (9) 
-15.014

>  <name>  (9) 
9

>  <ligand_id>  (9) 
9

>  <original_smiles>  (9) 
[H]c1c([H])c([H])c2c(c1[H])C([H])([H])C([H])([H])C([H])([H])C2([H])N([H])C(=O)C1([H])N(C(=O)C([H])(N([H])C(=O)C([H])(N([H])C([H])([H])[H])C([H])([H])[H])C(C([H])([H])[H])(C([H])([H])[H])C([H])([H])[H])C([H])([H])c2c([H])c(OC([H])([H])C3([H])C([H])([H])C([H])([H])C([H])(N(C(=O)N4C([H])([H])C([H])([H])C([H])([H])C([H])(n5nc(-c6c([H])c([H])c(Oc7c([H])c([H])c(F)c([H])c7F)c([H])c6[H])c(C(=O)N([H])[H])c5N([H])[H])C4([H])[H])C([H])([H])C([H])([H])C([H])([H])[H])C([H])([H])C3([H])[H])c([H])c([H])c2C1([H])[H]

>  <smiles>  (9) 
[H]c1c([H])c([H])c2c(c1[H])C([H])([H])C([H])([H])C([H])([H])C2([H])N([H])C(=O)C1([H])N(C(=O)C([H])(N([H])C(=O)C([H])(N([H])C([H])([H])[H])C([H])([H])[H])C(C([H])([H])[H])(C([H])([H])[H])C([H])([H])[H])C([H])([H])c2c([H])c(OC([H])([H])C3([H])C([H])([H])C([H])([H])C([H])(N(C(=O)N4C([H])([H])C([H])([H])C([H])([H])C([H])(n5nc(-c6c([H])c([H])c(Oc7c([H])c([H])c(F)c([H])c7F)c([H])c6[H])c(C(=O)N([H])[H])c5N([H])[H])C4([H])[H])C([H])([H])C([H])([H])C([H])([H])[H])C([H])([H])C3([H])[H])c([H])c([H])c2C1([H])[H]

$$$$
10:0:0
     RDKit          3D

 93101  0  0  1  0  0  0  0  0999 V2000
  -30.1240  -20.6720   20.9240 C   0  0  0  0  0  3  0  0  0  0  0  0
  -30.7300  -19.5940   21.5940 C   0  0  0  0  0  3  0  0  0  0  0  0
  -29.1650  -20.4750   19.9280 C   0  0  0  0  0  0  0  0  0  0  0  0
  -30.4410  -18.2130   21.3710 C   0  0  0  0  0  0  0  0  0  0  0  0
  -29.0000  -19.0320   19.5530 C   0  0  0  0  0  0  0  0  0  0  0  0
  -29.6730  -17.8530   20.2000 C   0  0  0  0  0  0  0  0  0  0  0  0
  -28.0310  -18.7150   18.4300 C   0  0  0  0  0  1  0  0  0  0  0  0
  -30.2300  -15.2270   19.4910 C   0  0  0  0  0  0  0  0  0  0  0  0
  -30.0600  -12.8950   18.4800 C   0  0  0  0  0  2  0  0  0  0  0  0
  -28.9920  -12.8470   17.3620 C   0  0  0  0  0  2  0  0  0  0  0  0
  -27.5960  -12.5820   17.9540 C   0  0  0  0  0  2  0  0  0  0  0  0
  -27.3030  -13.4700   19.1910 C   0  0  0  0  0  3  0  0  0  0  0  0
  -28.4790  -13.4850   20.1900 C   0  0  0  0  0  2  0  0  0  0  0  0
  -29.6590  -13.9530   19.4520 N   0  0  0  0  0  0  0  0  0  0  0  0
  -31.3750  -15.3300   19.0370 O   0  0  0  0  0  0  0  0  0  0  0  0
  -29.4350  -16.3700   19.8210 N   0  0  0  0  0  0  0  0  0  0  0  0
  -28.4640  -16.1140   19.8900 H   0  0  0  0  0  0  0  0  0  0  0  0
  -25.0160  -13.9720   20.2210 C   0  0  0  0  0  0  0  0  0  0  0  0
  -24.0140  -13.1620   20.6820 C   0  0  0  0  0  0  0  0  0  0  0  0
  -24.4950  -11.8240   20.5480 C   0  0  0  0  0  0  0  0  0  0  0  0
  -26.0390  -13.1250   19.8310 N   0  0  0  0  0  0  0  0  0  0  0  0
  -25.7430  -11.8260   20.0920 N   0  0  0  0  0  0  0  0  0  0  0  0
  -23.8160  -10.5400   20.7720 C   0  0  0  0  0  0  0  0  0  0  0  0
  -24.2840   -9.6120   21.7280 C   0  0  0  0  0  3  0  0  0  0  0  0
  -23.6010   -8.3950   21.9390 C   0  0  0  0  0  3  0  0  0  0  0  0
  -22.4360   -8.0970   21.1930 C   0  0  0  0  0  0  0  0  0  0  0  0
  -21.9870   -9.0140   20.2260 C   0  0  0  0  0  3  0  0  0  0  0  0
  -22.6720  -10.2220   20.0140 C   0  0  0  0  0  3  0  0  0  0  0  0
  -21.7220   -6.9300   21.3110 O   0  0  0  0  0  0  0  0  0  0  0  0
  -21.6150   -6.2700   22.5100 C   0  0  0  0  0  0  0  0  0  0  0  0
  -21.0600   -6.8860   23.6520 C   0  0  0  0  0  3  0  0  0  0  0  0
  -20.9050   -6.1510   24.8440 C   0  0  0  0  0  3  0  0  0  0  0  0
  -21.2940   -4.7990   24.8930 C   0  0  0  0  0  0  0  0  0  0  0  0
  -21.8430   -4.1820   23.7560 C   0  0  0  0  0  3  0  0  0  0  0  0
  -21.9990   -4.9150   22.5660 C   0  0  0  0  0  0  0  0  0  0  0  0
  -22.5080   -4.3090   21.4660 F   0  0  0  0  0  0  0  0  0  0  0  0
  -21.1390   -4.0890   26.0360 F   0  0  0  0  0  0  0  0  0  0  0  0
  -22.6490  -13.6010   21.1250 C   0  0  0  0  0  0  0  0  0  0  0  0
  -22.0430  -12.8720   22.0540 N   0  0  0  0  0  0  0  0  0  0  0  0
  -22.1330  -14.6260   20.6810 O   0  0  0  0  0  0  0  0  0  0  0  0
  -22.4750  -12.0420   22.4320 H   0  0  0  0  0  0  0  0  0  0  0  0
  -21.1330  -13.1480   22.3930 H   0  0  0  0  0  0  0  0  0  0  0  0
  -25.1310  -15.3520   20.0750 N   0  0  0  0  0  0  0  0  0  0  0  0
  -24.3630  -15.9770   20.2910 H   0  0  0  0  0  0  0  0  0  0  0  0
  -25.9040  -15.8200   19.6240 H   0  0  0  0  0  0  0  0  0  0  0  0
  -30.9390  -17.9350   23.9030 C   0  0  0  0  0  1  0  0  0  0  0  0
  -32.3430  -16.7470   22.2570 C   0  0  0  0  0  1  0  0  0  0  0  0
  -29.9440  -16.0470   22.7530 C   0  0  0  0  0  1  0  0  0  0  0  0
  -30.9070  -17.2380   22.5100 C   0  0  2  0  0  0  0  0  0  0  0  0
  -28.3970  -21.8440   19.3740 C   0  0  0  0  0  2  0  0  0  0  0  0
  -28.6800  -23.4590   19.8480 C   0  0  0  0  0  3  0  0  0  0  0  0
  -27.7570  -24.8290   19.4290 C   0  0  0  0  0  3  0  0  0  0  0  0
  -28.0000  -26.3480   19.7490 O   0  0  0  0  0  0  0  0  0  0  0  0
  -24.5690  -31.9610   23.1120 C   0  0  0  0  0  0  0  0  0  0  0  0
  -26.9400  -27.3380   19.7690 C   0  0  0  0  0  0  0  0  0  0  0  0
  -23.2580  -30.5990   21.5300 C   0  0  0  0  0  3  0  0  0  0  0  0
  -24.6050  -29.0760   19.9560 C   0  0  0  0  0  0  0  0  0  0  0  0
  -25.7920  -30.8860   21.1840 C   0  0  0  0  0  2  0  0  0  0  0  0
  -25.8250  -29.5120   20.4890 C   0  0  0  0  0  0  0  0  0  0  0  0
  -26.9900  -28.6600   20.3790 C   0  0  0  0  0  3  0  0  0  0  0  0
  -25.6910  -27.0120   19.1940 C   0  0  0  0  0  3  0  0  0  0  0  0
  -24.5520  -27.8400   19.2910 C   0  0  0  0  0  3  0  0  0  0  0  0
  -23.3790  -29.9610   20.1210 C   0  0  0  0  0  2  0  0  0  0  0  0
  -24.5640  -31.1700   21.9960 N   0  0  0  0  0  0  0  0  0  0  0  0
  -23.5230  -32.2230   23.7270 O   0  0  0  0  0  0  0  0  0  0  0  0
  -22.6610  -29.5610   22.5140 C   0  0  0  0  0  0  0  0  0  0  0  0
  -21.3550  -29.2680   22.3800 N   0  0  0  0  0  0  0  0  0  0  0  0
  -23.3750  -29.0220   23.3640 O   0  0  0  0  0  0  0  0  0  0  0  0
  -20.8300  -29.7590   21.6700 H   0  0  0  0  0  0  0  0  0  0  0  0
  -18.1180  -27.6970   22.8080 C   0  0  0  0  0  0  0  0  0  0  0  0
  -20.6110  -28.2830   23.1700 C   0  0  0  0  0  3  0  0  0  0  0  0
  -20.9110  -26.8440   22.6900 C   0  0  0  0  0  2  0  0  0  0  0  0
  -19.9080  -26.3340   21.6500 C   0  0  0  0  0  2  0  0  0  0  0  0
  -18.4880  -26.3450   22.2210 C   0  0  0  0  0  2  0  0  0  0  0  0
  -19.1150  -28.6120   23.2380 C   0  0  0  0  0  0  0  0  0  0  0  0
  -18.7150  -29.8680   23.7450 C   0  0  0  0  0  3  0  0  0  0  0  0
  -17.3530  -30.2140   23.8270 C   0  0  0  0  0  3  0  0  0  0  0  0
  -16.3710  -29.2980   23.4120 C   0  0  0  0  0  3  0  0  0  0  0  0
  -16.7530  -28.0420   22.9080 C   0  0  0  0  0  3  0  0  0  0  0  0
  -25.8850  -32.5940   23.6580 C   0  0  0  0  0  3  0  0  0  0  0  0
  -26.4830  -31.8100   24.8920 C   0  0  1  0  0  0  0  0  0  0  0  0
  -25.4510  -31.5210   26.0070 C   0  0  0  0  0  1  0  0  0  0  0  0
  -27.0850  -30.4570   24.4480 C   0  0  0  0  0  1  0  0  0  0  0  0
  -27.6440  -32.6230   25.5140 C   0  0  0  0  0  1  0  0  0  0  0  0
  -25.5940  -33.9860   24.0300 N   0  0  0  0  0  0  0  0  0  0  0  0
  -25.8500  -35.0540   23.2620 C   0  0  0  0  0  0  0  0  0  0  0  0
  -26.4250  -34.9690   22.1740 O   0  0  0  0  0  0  0  0  0  0  0  0
  -25.0720  -34.1250   24.8830 H   0  0  0  0  0  0  0  0  0  0  0  0
  -24.0870  -36.8430   23.0960 C   0  0  0  0  0  1  0  0  0  0  0  0
  -25.4010  -36.4340   23.7820 C   0  0  0  0  0  3  0  0  0  0  0  0
  -27.5920  -37.3300   24.4340 C   0  0  0  0  0  1  0  0  0  0  0  0
  -26.4120  -37.4960   23.5890 N   0  0  0  0  0  0  0  0  0  0  0  0
  -26.0130  -38.4120   23.7770 H   0  0  0  0  0  0  0  0  0  0  0  0
  1  2  1  0
  3  1  2  0
  4  2  2  0
  4 49  1  0
  5  3  1  0
  5  6  2  0
  6  4  1  0
  7  5  1  0
  8 16  1  0
  9 14  1  0
 10 11  1  0
 10  9  1  0
 12 11  1  0
 12 21  1  0
 12 13  1  0
 14  8  1  0
 14 13  1  0
 15  8  2  0
 16 17  1  0
 16  6  1  0
 18 19  2  0
 19 38  1  0
 20 19  1  0
 20 23  1  0
 21 22  1  0
 21 18  1  0
 22 20  2  0
 23 24  1  0
 24 25  2  0
 26 29  1  0
 26 25  1  0
 27 26  2  0
 28 27  1  0
 28 23  2  0
 29 30  1  0
 30 35  2  0
 30 31  1  0
 31 32  2  0
 32 33  1  0
 33 37  1  0
 34 33  2  0
 35 34  1  0
 36 35  1  0
 38 39  1  0
 39 42  1  0
 39 41  1  0
 40 38  2  0
 43 18  1  0
 43 44  1  0
 45 43  1  0
 49 47  1  6
 49 48  1  0
 49 46  1  0
 50 51  1  0
 50  3  1  0
 52 53  1  0
 52 51  2  0
 53 55  1  0
 54 65  2  0
 55 60  1  0
 56 64  1  0
 56 66  1  0
 57 63  1  0
 57 59  1  0
 58 64  1  0
 59 58  1  0
 60 59  2  0
 61 62  1  0
 61 55  2  0
 62 57  2  0
 63 56  1  0
 64 54  1  0
 66 68  2  0
 67 66  1  0
 69 67  1  0
 70 79  2  0
 70 75  1  0
 71 67  1  0
 71 75  1  0
 72 71  1  0
 73 74  1  0
 73 72  1  0
 74 70  1  0
 75 76  2  0
 76 77  1  0
 78 77  2  0
 79 78  1  0
 80 54  1  0
 80 85  1  0
 80 81  1  0
 81 84  1  1
 81 82  1  0
 83 81  1  0
 85 88  1  0
 86 90  1  0
 86 85  1  0
 87 86  2  0
 90 89  1  0
 92 93  1  0
 92 90  1  0
 92 91  1  0
M  ISO  4   8 100  16 100  52 101  53 101
M  END
>  <TORSDO>  (10) 
F 20

>  <SCORE>  (10) 
-8.896

>  <name>  (10) 
10

>  <ligand_id>  (10) 
10

>  <original_smiles>  (10) 
[H]c1c([H])c([H])c2c(c1[H])C([H])([H])C([H])([H])C([H])([H])C2([H])N([H])C(=O)C1([H])N(C(=O)C([H])(N([H])C(=O)C([H])(N([H])C([H])([H])[H])C([H])([H])[H])C(C([H])([H])[H])(C([H])([H])[H])C([H])([H])[H])C([H])([H])c2c([H])c(OC([H])([H])C([H])([H])C([H])([H])c3c([H])c([H])c(C(C([H])([H])[H])(C([H])([H])[H])C([H])([H])[H])c(N([H])C(=O)N4C([H])([H])C([H])([H])C([H])([H])C([H])(n5nc(-c6c([H])c([H])c(Oc7c([H])c([H])c(F)c([H])c7F)c([H])c6[H])c(C(=O)N([H])[H])c5N([H])[H])C4([H])[H])c3C([H])([H])[H])c([H])c([H])c2C1([H])[H]

>  <smiles>  (10) 
[H]c1c([H])c([H])c2c(c1[H])C([H])([H])C([H])([H])C([H])([H])C2([H])N([H])C(=O)C1([H])N(C(=O)C([H])(N([H])C(=O)C([H])(N([H])C([H])([H])[H])C([H])([H])[H])C(C([H])([H])[H])(C([H])([H])[H])C([H])([H])[H])C([H])([H])c2c([H])c(OC([H])([H])C([H])([H])C([H])([H])c3c([H])c([H])c(C(C([H])([H])[H])(C([H])([H])[H])C([H])([H])[H])c(N([H])C(=O)N4C([H])([H])C([H])([H])C([H])([H])C([H])(n5nc(-c6c([H])c([H])c(Oc7c([H])c([H])c(F)c([H])c7F)c([H])c6[H])c(C(=O)N([H])[H])c5N([H])[H])C4([H])[H])c3C([H])([H])[H])c([H])c([H])c2C1([H])[H]

$$$$
11:0:0
     RDKit          3D

 89 97  0  0  1  0  0  0  0  0999 V2000
  -31.1690  -20.9560   20.7620 C   0  0  0  0  0  3  0  0  0  0  0  0
  -30.2970  -22.0820   20.5840 C   0  0  0  0  0  0  0  0  0  0  0  0
  -28.9280  -21.9720   20.2320 C   0  0  0  0  0  0  0  0  0  0  0  0
  -28.6760  -20.3510   20.1020 C   0  0  0  0  0  0  0  0  0  0  0  0
  -29.6140  -19.0110   20.2790 C   0  0  0  0  0  0  0  0  0  0  0  0
  -30.8830  -19.5550   20.6360 C   0  0  0  0  0  0  0  0  0  0  0  0
  -30.8820  -23.4690   20.7940 C   0  0  0  0  0  1  0  0  0  0  0  0
  -27.2500  -20.0020   19.7360 C   0  0  0  0  0  1  0  0  0  0  0  0
  -32.2120  -18.5140   20.9900 Cl  0  0  0  0  0  0  0  0  0  0  0  0
  -30.2440  -15.8410   20.1580 C   0  0  0  0  0  0  0  0  0  0  0  0
  -30.3760  -13.2670   19.3320 C   0  0  0  0  0  2  0  0  0  0  0  0
  -29.4910  -12.7930   18.1410 C   0  0  0  0  0  2  0  0  0  0  0  0
  -28.0860  -12.4000   18.6170 C   0  0  0  0  0  2  0  0  0  0  0  0
  -27.5600  -13.4050   19.6650 C   0  0  0  0  0  3  0  0  0  0  0  0
  -28.5920  -13.7820   20.7580 C   0  0  0  0  0  2  0  0  0  0  0  0
  -29.7290  -14.4560   20.0750 N   0  0  0  0  0  0  0  0  0  0  0  0
  -31.4770  -15.7310   19.9960 O   0  0  0  0  0  0  0  0  0  0  0  0
  -29.4820  -17.2450   20.2020 N   0  0  0  0  0  0  0  0  0  0  0  0
  -28.5040  -17.0040   20.1850 H   0  0  0  0  0  0  0  0  0  0  0  0
  -25.2030  -13.8990   20.4570 C   0  0  0  0  0  0  0  0  0  0  0  0
  -24.1570  -13.1060   20.8310 C   0  0  0  0  0  0  0  0  0  0  0  0
  -24.6440  -11.7620   20.7940 C   0  0  0  0  0  0  0  0  0  0  0  0
  -26.2560  -13.0430   20.2030 N   0  0  0  0  0  0  0  0  0  0  0  0
  -25.9360  -11.7490   20.4720 N   0  0  0  0  0  0  0  0  0  0  0  0
  -23.9320  -10.4910   20.9850 C   0  0  0  0  0  0  0  0  0  0  0  0
  -24.3610   -9.5370   21.9340 C   0  0  0  0  0  3  0  0  0  0  0  0
  -23.6430   -8.3350   22.1170 C   0  0  0  0  0  3  0  0  0  0  0  0
  -22.4800   -8.0790   21.3520 C   0  0  0  0  0  0  0  0  0  0  0  0
  -22.0700   -9.0220   20.3930 C   0  0  0  0  0  3  0  0  0  0  0  0
  -22.7880  -10.2150   20.2090 C   0  0  0  0  0  3  0  0  0  0  0  0
  -21.7340   -6.9280   21.4430 O   0  0  0  0  0  0  0  0  0  0  0  0
  -21.6590   -6.2090   22.6090 C   0  0  0  0  0  0  0  0  0  0  0  0
  -21.1700   -6.7780   23.8050 C   0  0  0  0  0  3  0  0  0  0  0  0
  -21.0450   -5.9850   24.9630 C   0  0  0  0  0  3  0  0  0  0  0  0
  -21.3970   -4.6230   24.9250 C   0  0  0  0  0  0  0  0  0  0  0  0
  -21.8800   -4.0520   23.7340 C   0  0  0  0  0  3  0  0  0  0  0  0
  -22.0060   -4.8430   22.5790 C   0  0  0  0  0  0  0  0  0  0  0  0
  -22.4510   -4.2830   21.4280 F   0  0  0  0  0  0  0  0  0  0  0  0
  -21.2710   -3.8580   26.0350 F   0  0  0  0  0  0  0  0  0  0  0  0
  -22.7550  -13.5660   21.1030 C   0  0  0  0  0  0  0  0  0  0  0  0
  -22.0420  -12.8720   21.9820 N   0  0  0  0  0  0  0  0  0  0  0  0
  -22.3040  -14.5800   20.5720 O   0  0  0  0  0  0  0  0  0  0  0  0
  -22.4230  -12.0530   22.4320 H   0  0  0  0  0  0  0  0  0  0  0  0
  -21.1020  -13.1640   22.2070 H   0  0  0  0  0  0  0  0  0  0  0  0
  -25.3420  -15.2730   20.2770 N   0  0  0  0  0  0  0  0  0  0  0  0
  -24.5610  -15.9110   20.3860 H   0  0  0  0  0  0  0  0  0  0  0  0
  -26.1710  -15.7200   19.9110 H   0  0  0  0  0  0  0  0  0  0  0  0
  -27.9720  -23.6260   20.0540 C   0  0  0  0  0  2  0  0  0  0  0  0
  -28.1840  -25.4140   20.2290 O   0  0  0  0  0  0  0  0  0  0  0  0
  -24.7250  -31.8330   23.1760 C   0  0  0  0  0  0  0  0  0  0  0  0
  -27.2360  -26.6800   20.1780 C   0  0  0  0  0  0  0  0  0  0  0  0
  -23.5400  -30.4460   21.5290 C   0  0  0  0  0  3  0  0  0  0  0  0
  -24.9860  -28.7820   20.1190 C   0  0  0  0  0  0  0  0  0  0  0  0
  -26.1240  -30.5520   21.4280 C   0  0  0  0  0  2  0  0  0  0  0  0
  -26.1840  -29.1130   20.7650 C   0  0  0  0  0  0  0  0  0  0  0  0
  -27.2880  -28.0940   20.7580 C   0  0  0  0  0  3  0  0  0  0  0  0
  -26.0030  -26.5850   19.4760 C   0  0  0  0  0  3  0  0  0  0  0  0
  -24.9410  -27.5460   19.4500 C   0  0  0  0  0  3  0  0  0  0  0  0
  -23.7870  -29.7490   20.1590 C   0  0  0  0  0  2  0  0  0  0  0  0
  -24.8210  -30.9790   22.0960 N   0  0  0  0  0  0  0  0  0  0  0  0
  -23.6290  -32.1370   23.6810 O   0  0  0  0  0  0  0  0  0  0  0  0
  -22.8070  -29.4750   22.4950 C   0  0  0  0  0  0  0  0  0  0  0  0
  -21.4720  -29.3390   22.3720 N   0  0  0  0  0  0  0  0  0  0  0  0
  -23.4550  -28.8400   23.3310 O   0  0  0  0  0  0  0  0  0  0  0  0
  -20.9990  -29.9010   21.6780 H   0  0  0  0  0  0  0  0  0  0  0  0
  -18.0700  -28.1690   22.8970 C   0  0  0  0  0  0  0  0  0  0  0  0
  -20.6360  -28.4050   23.1390 C   0  0  0  0  0  3  0  0  0  0  0  0
  -20.7130  -26.9780   22.5480 C   0  0  0  0  0  2  0  0  0  0  0  0
  -19.6000  -26.6830   21.5370 C   0  0  0  0  0  2  0  0  0  0  0  0
  -18.2250  -26.8310   22.1940 C   0  0  0  0  0  2  0  0  0  0  0  0
  -19.2000  -28.9160   23.3250 C   0  0  0  0  0  0  0  0  0  0  0  0
  -18.9950  -30.1660   23.9480 C   0  0  0  0  0  3  0  0  0  0  0  0
  -17.6960  -30.6710   24.1430 C   0  0  0  0  0  3  0  0  0  0  0  0
  -16.5810  -29.9230   23.7260 C   0  0  0  0  0  3  0  0  0  0  0  0
  -16.7690  -28.6730   23.1090 C   0  0  0  0  0  3  0  0  0  0  0  0
  -25.9840  -32.4780   23.8290 C   0  0  0  0  0  3  0  0  0  0  0  0
  -25.6620  -33.8780   24.1750 N   0  0  0  0  0  0  0  0  0  0  0  0
  -25.9700  -34.9500   23.4340 C   0  0  0  0  0  0  0  0  0  0  0  0
  -26.6120  -34.8660   22.3840 O   0  0  0  0  0  0  0  0  0  0  0  0
  -25.0850  -34.0140   24.9930 H   0  0  0  0  0  0  0  0  0  0  0  0
  -24.2140  -36.7430   23.1890 C   0  0  0  0  0  1  0  0  0  0  0  0
  -25.4980  -36.3350   23.9310 C   0  0  0  0  0  3  0  0  0  0  0  0
  -27.6600  -37.2420   24.6670 C   0  0  0  0  0  1  0  0  0  0  0  0
  -26.5150  -37.3990   23.7740 N   0  0  0  0  0  0  0  0  0  0  0  0
  -26.1070  -38.3150   23.9420 H   0  0  0  0  0  0  0  0  0  0  0  0
  -26.4710  -31.7110   25.1220 C   0  0  1  0  0  0  0  0  0  0  0  0
  -25.3570  -31.4880   26.1740 C   0  0  0  0  0  1  0  0  0  0  0  0
  -27.0530  -30.3270   24.7620 C   0  0  0  0  0  1  0  0  0  0  0  0
  -27.6150  -32.5020   25.7990 C   0  0  0  0  0  1  0  0  0  0  0  0
  2  1  2  0
  2  7  1  0
  3  2  1  0
  4  3  2  0
  4  5  1  0
  5  6  2  0
  6  1  1  0
  6  9  1  0
  8  4  1  0
 10 18  1  0
 11 16  1  0
 12 13  1  0
 12 11  1  0
 14 13  1  0
 14 23  1  0
 14 15  1  0
 16 10  1  0
 16 15  1  0
 17 10  2  0
 18  5  1  0
 19 18  1  0
 20 21  2  0
 21 40  1  0
 22 21  1  0
 22 25  1  0
 23 20  1  0
 23 24  1  0
 24 22  2  0
 25 26  1  0
 26 27  2  0
 28 31  1  0
 28 27  1  0
 29 28  2  0
 30 29  1  0
 30 25  2  0
 31 32  1  0
 32 33  1  0
 33 34  2  0
 35 34  1  0
 35 39  1  0
 36 35  2  0
 37 32  2  0
 37 36  1  0
 38 37  1  0
 40 41  1  0
 41 44  1  0
 41 43  1  0
 42 40  2  0
 45 46  1  0
 45 20  1  0
 47 45  1  0
 48 49  1  0
 48  3  1  0
 50 61  2  0
 51 49  1  0
 51 56  1  0
 52 60  1  0
 52 62  1  0
 53 59  1  0
 53 55  1  0
 54 60  1  0
 55 54  1  0
 56 55  2  0
 57 51  2  0
 58 57  1  0
 58 53  2  0
 59 52  1  0
 60 50  1  0
 62 64  2  0
 63 62  1  0
 65 63  1  0
 66 75  2  0
 66 71  1  0
 67 63  1  0
 67 71  1  0
 68 67  1  0
 69 70  1  0
 69 68  1  0
 70 66  1  0
 71 72  2  0
 72 73  1  0
 74 73  2  0
 75 74  1  0
 76 50  1  0
 76 77  1  0
 76 86  1  0
 77 80  1  0
 78 82  1  0
 78 77  1  0
 79 78  2  0
 82 81  1  0
 84 82  1  0
 84 85  1  0
 84 83  1  0
 86 89  1  1
 86 87  1  0
 88 86  1  0
M  ISO  4  10 100  18 100  48 101  49 101
M  END
>  <TORSDO>  (11) 
F 17

>  <SCORE>  (11) 
-16.525

>  <name>  (11) 
11

>  <ligand_id>  (11) 
11

>  <original_smiles>  (11) 
[H]c1c([H])c([H])c2c(c1[H])C([H])([H])C([H])([H])C([H])([H])C2([H])N([H])C(=O)C1([H])N(C(=O)C([H])(N([H])C(=O)C([H])(N([H])C([H])([H])[H])C([H])([H])[H])C(C([H])([H])[H])(C([H])([H])[H])C([H])([H])[H])C([H])([H])c2c([H])c(OC([H])([H])c3c(C([H])([H])[H])c([H])c(Cl)c(N([H])C(=O)N4C([H])([H])C([H])([H])C([H])([H])C([H])(n5nc(-c6c([H])c([H])c(Oc7c([H])c([H])c(F)c([H])c7F)c([H])c6[H])c(C(=O)N([H])[H])c5N([H])[H])C4([H])[H])c3C([H])([H])[H])c([H])c([H])c2C1([H])[H]

>  <smiles>  (11) 
[H]c1c([H])c([H])c2c(c1[H])C([H])([H])C([H])([H])C([H])([H])C2([H])N([H])C(=O)C1([H])N(C(=O)C([H])(N([H])C(=O)C([H])(N([H])C([H])([H])[H])C([H])([H])[H])C(C([H])([H])[H])(C([H])([H])[H])C([H])([H])[H])C([H])([H])c2c([H])c(OC([H])([H])c3c(C([H])([H])[H])c([H])c(Cl)c(N([H])C(=O)N4C([H])([H])C([H])([H])C([H])([H])C([H])(n5nc(-c6c([H])c([H])c(Oc7c([H])c([H])c(F)c([H])c7F)c([H])c6[H])c(C(=O)N([H])[H])c5N([H])[H])C4([H])[H])c3C([H])([H])[H])c([H])c([H])c2C1([H])[H]

$$$$
12:0:0
     RDKit          3D

 85 88  0  0  1  0  0  0  0  0999 V2000
  -30.7590  -21.3780   20.1110 C   0  0  0  0  0  1  0  0  0  0  0  0
  -29.3860  -20.9950   20.6710 C   0  0  0  0  0  2  0  0  0  0  0  0
  -30.4170  -20.6530   22.8960 C   0  0  0  0  0  1  0  0  0  0  0  0
  -29.3700  -21.1870   22.0930 O   0  0  0  0  0  0  0  0  0  0  0  0
  -28.4070  -23.0200   20.3620 C   0  0  0  0  0 15  0  0  0  0  0  0
  -28.3660  -25.0460   20.4630 O   0  0  0  0  0  1  0  0  0  0  0  0
  -24.7530  -31.9460   23.1920 C   0  0  0  0  0  0  0  0  0  0  0  0
  -27.4260  -26.4650   20.3660 C   0  0  0  0  0  0  0  0  0  0  0  0
  -23.6580  -30.4990   21.5450 C   0  0  0  0  0  3  0  0  0  0  0  0
  -25.1730  -28.7700   20.2180 C   0  0  0  0  0  0  0  0  0  0  0  0
  -26.2550  -30.5460   21.5460 C   0  0  0  0  0  2  0  0  0  0  0  0
  -26.3540  -29.0570   20.9090 C   0  0  0  0  0  0  0  0  0  0  0  0
  -27.4410  -27.9510   20.9300 C   0  0  0  0  0  3  0  0  0  0  0  0
  -26.2000  -26.5130   19.6100 C   0  0  0  0  0  3  0  0  0  0  0  0
  -25.1650  -27.5310   19.5420 C   0  0  0  0  0  3  0  0  0  0  0  0
  -23.9780  -29.7670   20.2030 C   0  0  0  0  0  2  0  0  0  0  0  0
  -24.9180  -31.0450   22.1480 N   0  0  0  0  0  0  0  0  0  0  0  0
  -23.6310  -32.2500   23.6380 O   0  0  0  0  0  0  0  0  0  0  0  0
  -22.8880  -29.5550   22.5160 C   0  0  0  0  0  0  0  0  0  0  0  0
  -21.5620  -29.3800   22.3420 N   0  0  0  0  0  0  0  0  0  0  0  0
  -23.5080  -28.9710   23.4070 O   0  0  0  0  0  0  0  0  0  0  0  0
  -21.1030  -29.9130   21.6180 H   0  0  0  0  0  0  0  0  0  0  0  0
  -18.1850  -28.0570   22.7540 C   0  0  0  0  0  0  0  0  0  0  0  0
  -20.7250  -28.4340   23.1000 C   0  0  0  0  0  3  0  0  0  0  0  0
  -20.8960  -26.9910   22.5660 C   0  0  0  0  0  2  0  0  0  0  0  0
  -19.8480  -26.6080   21.5170 C   0  0  0  0  0  2  0  0  0  0  0  0
  -18.4380  -26.7080   22.1020 C   0  0  0  0  0  2  0  0  0  0  0  0
  -19.2560  -28.8760   23.2060 C   0  0  0  0  0  0  0  0  0  0  0  0
  -18.9590  -30.1310   23.7800 C   0  0  0  0  0  3  0  0  0  0  0  0
  -17.6270  -30.5730   23.8970 C   0  0  0  0  0  3  0  0  0  0  0  0
  -16.5730  -29.7560   23.4510 C   0  0  0  0  0  3  0  0  0  0  0  0
  -16.8520  -28.4990   22.8890 C   0  0  0  0  0  3  0  0  0  0  0  0
  -25.9580  -32.6570   23.8840 C   0  0  0  0  0  3  0  0  0  0  0  0
  -26.4050  -31.9440   25.2210 C   0  0  1  0  0  0  0  0  0  0  0  0
  -25.2570  -31.7210   26.2360 C   0  0  0  0  0  1  0  0  0  0  0  0
  -27.0380  -30.5680   24.9350 C   0  0  0  0  0  1  0  0  0  0  0  0
  -27.5000  -32.7870   25.9220 C   0  0  0  0  0  1  0  0  0  0  0  0
  -25.5850  -34.0600   24.1860 N   0  0  0  0  0  0  0  0  0  0  0  0
  -25.9140  -35.1320   23.4500 C   0  0  0  0  0  0  0  0  0  0  0  0
  -26.6100  -35.0460   22.4360 O   0  0  0  0  0  0  0  0  0  0  0  0
  -24.9740  -34.2010   24.9780 H   0  0  0  0  0  0  0  0  0  0  0  0
  -24.1490  -36.9010   23.0940 C   0  0  0  0  0  1  0  0  0  0  0  0
  -25.3990  -36.5200   23.9040 C   0  0  0  0  0  3  0  0  0  0  0  0
  -27.5090  -37.4720   24.7320 C   0  0  0  0  0  1  0  0  0  0  0  0
  -26.4090  -37.5970   23.7810 N   0  0  0  0  0  0  0  0  0  0  0  0
  -25.9810  -38.5110   23.9090 H   0  0  0  0  0  0  0  0  0  0  0  0
  -29.3920  -18.7160   20.5040 C   0  0  0  0  0  1  0  0  0  0  0  0
  -30.2800  -16.7410   20.6950 C   0  0  0  0  0  2  0  0  0  0  0  0
  -30.7570  -13.9930   20.0360 C   0  0  0  0  0  2  0  0  0  0  0  0
  -30.0820  -13.2100   18.8400 C   0  0  0  0  0  2  0  0  0  0  0  0
  -28.6910  -12.6740   19.1910 C   0  0  0  0  0  2  0  0  0  0  0  0
  -27.9670  -13.6960   20.0800 C   0  0  0  0  0  3  0  0  0  0  0  0
  -28.8270  -14.3440   21.2130 C   0  0  0  0  0  2  0  0  0  0  0  0
  -29.9240  -15.2150   20.6220 N   0  0  0  0  0  0  0  0  0  0  0  0
  -31.5330  -16.5740   20.7240 O   0  0  0  0  0  1  0  0  0  0  0  0
  -25.5460  -14.1100   20.6580 C   0  0  0  0  0  0  0  0  0  0  0  0
  -24.4870  -13.2980   20.9380 C   0  0  0  0  0  0  0  0  0  0  0  0
  -24.9970  -11.9620   20.9610 C   0  0  0  0  0  0  0  0  0  0  0  0
  -26.6370  -13.2750   20.5130 N   0  0  0  0  0  0  0  0  0  0  0  0
  -26.3170  -11.9720   20.7560 N   0  0  0  0  0  0  0  0  0  0  0  0
  -24.2780  -10.6830   21.1070 C   0  0  0  0  0  0  0  0  0  0  0  0
  -24.6250   -9.7480   22.1050 C   0  0  0  0  0  3  0  0  0  0  0  0
  -23.9030   -8.5420   22.2440 C   0  0  0  0  0  3  0  0  0  0  0  0
  -22.8160   -8.2640   21.3810 C   0  0  0  0  0  0  0  0  0  0  0  0
  -22.4870   -9.1870   20.3730 C   0  0  0  0  0  3  0  0  0  0  0  0
  -23.2110  -10.3830   20.2350 C   0  0  0  0  0  3  0  0  0  0  0  0
  -22.0720   -7.1090   21.4200 O   0  0  0  0  0  0  0  0  0  0  0  0
  -21.8900   -6.4070   22.5850 C   0  0  0  0  0  0  0  0  0  0  0  0
  -21.2680   -6.9840   23.7140 C   0  0  0  0  0  3  0  0  0  0  0  0
  -21.0430   -6.2100   24.8680 C   0  0  0  0  0  3  0  0  0  0  0  0
  -21.4240   -4.8550   24.8940 C   0  0  0  0  0  0  0  0  0  0  0  0
  -22.0390   -4.2760   23.7710 C   0  0  0  0  0  3  0  0  0  0  0  0
  -22.2690   -5.0490   22.6190 C   0  0  0  0  0  0  0  0  0  0  0  0
  -22.8410   -4.4810   21.5330 F   0  0  0  0  0  0  0  0  0  0  0  0
  -21.2010   -4.1070   26.0010 F   0  0  0  0  0  0  0  0  0  0  0  0
  -23.0600  -13.7400   21.0710 C   0  0  0  0  0  0  0  0  0  0  0  0
  -22.2780  -13.0470   21.8910 N   0  0  0  0  0  0  0  0  0  0  0  0
  -22.6450  -14.7400   20.4850 O   0  0  0  0  0  0  0  0  0  0  0  0
  -22.6320  -12.2440   22.3890 H   0  0  0  0  0  0  0  0  0  0  0  0
  -21.3150  -13.3190   22.0210 H   0  0  0  0  0  0  0  0  0  0  0  0
  -25.6770  -15.4850   20.4730 N   0  0  0  0  0  0  0  0  0  0  0  0
  -24.8780  -16.1110   20.5020 H   0  0  0  0  0  0  0  0  0  0  0  0
  -26.5360  -15.9450   20.2020 H   0  0  0  0  0  0  0  0  0  0  0  0
  -27.8080  -17.5910   18.7490 C   0  0  0  0  0  1  0  0  0  0  0  0
  -28.8860  -18.6560   19.0470 C   0  0  0  0  0  2  0  0  0  0  0  0
  1  2  1  0
  2  4  1  0
  4  3  1  0
  7 18  2  0
  8  6  1  0
  8 13  1  0
  9 17  1  0
  9 19  1  0
 10 12  1  0
 11 17  1  0
 12 13  2  0
 12 11  1  0
 14  8  2  0
 15 14  1  0
 15 10  2  0
 16 10  1  0
 16  9  1  0
 17  7  1  0
 19 21  2  0
 20 19  1  0
 22 20  1  0
 23 32  2  0
 23 28  1  0
 24 20  1  0
 24 28  1  0
 25 24  1  0
 26 27  1  0
 26 25  1  0
 27 23  1  0
 28 29  2  0
 29 30  1  0
 31 30  2  0
 32 31  1  0
 33  7  1  0
 33 38  1  0
 33 34  1  0
 34 37  1  1
 34 35  1  0
 36 34  1  0
 38 41  1  0
 39 43  1  0
 39 38  1  0
 40 39  2  0
 43 42  1  0
 45 43  1  0
 45 46  1  0
 45 44  1  0
 48 55  1  0
 49 54  1  0
 50 51  1  0
 50 49  1  0
 52 51  1  0
 52 59  1  0
 52 53  1  0
 54 48  1  0
 54 53  1  0
 56 57  2  0
 57 58  1  0
 57 76  1  0
 58 61  1  0
 59 56  1  0
 59 60  1  0
 60 58  2  0
 61 62  1  0
 62 63  2  0
 64 67  1  0
 64 63  1  0
 65 64  2  0
 66 65  1  0
 66 61  2  0
 67 68  1  0
 68 73  2  0
 68 69  1  0
 69 70  2  0
 70 71  1  0
 71 75  1  0
 72 71  2  0
 73 72  1  0
 74 73  1  0
 76 77  1  0
 77 80  1  0
 77 79  1  0
 78 76  2  0
 81 82  1  0
 81 56  1  0
 83 81  1  0
 84 85  1  0
 85 47  1  0
M  ISO  4   5 101   6 101  47 100  48 100
M  END
>  <TORSDO>  (12) 
F 20

>  <SCORE>  (12) 
-15.305

>  <name>  (12) 
12

>  <ligand_id>  (12) 
12

>  <original_smiles>  (12) 
[H]c1c([H])c([H])c2c(c1[H])C([H])([H])C([H])([H])C([H])([H])C2([H])N([H])C(=O)C1([H])N(C(=O)C([H])(N([H])C(=O)C([H])(N([H])C([H])([H])[H])C([H])([H])[H])C(C([H])([H])[H])(C([H])([H])[H])C([H])([H])[H])C([H])([H])c2c([H])c(OC([H])([H])C(OC([H])([H])[H])(C([H])([H])[H])C([H])(C(=O)N3C([H])([H])C([H])([H])C([H])([H])C([H])(n4nc(-c5c([H])c([H])c(Oc6c([H])c([H])c(F)c([H])c6F)c([H])c5[H])c(C(=O)N([H])[H])c4N([H])[H])C3([H])[H])C([H])([H])C([H])([H])[H])c([H])c([H])c2C1([H])[H]

>  <smiles>  (12) 
[H]c1c([H])c([H])c2c(c1[H])C([H])([H])C([H])([H])C([H])([H])C2([H])N([H])C(=O)C1([H])N(C(=O)C([H])(N([H])C(=O)C([H])(N([H])C([H])([H])[H])C([H])([H])[H])C(C([H])([H])[H])(C([H])([H])[H])C([H])([H])[H])C([H])([H])c2c([H])c(OC([H])([H])C(OC([H])([H])[H])(C([H])([H])[H])C([H])(C(=O)N3C([H])([H])C([H])([H])C([H])([H])C([H])(n4nc(-c5c([H])c([H])c(Oc6c([H])c([H])c(F)c([H])c6F)c([H])c5[H])c(C(=O)N([H])[H])c4N([H])[H])C3([H])[H])C([H])([H])C([H])([H])[H])c([H])c([H])c2C1([H])[H]

$$$$
13:0:0
     RDKit          3D

 90 98  0  0  1  0  0  0  0  0999 V2000
  -30.1210  -21.3020   19.9380 C   0  0  0  0  0  3  0  0  0  0  0  0
  -27.9340  -20.9560   19.9450 C   0  0  0  0  0  3  0  0  0  0  0  0
  -28.8620  -22.1160   19.9090 C   0  0  0  0  0  0  0  0  0  0  0  0
  -30.3880  -19.7840   19.9870 C   0  0  0  0  0  0  0  0  0  0  0  0
  -28.1670  -19.4460   20.0010 C   0  0  0  0  0  0  0  0  0  0  0  0
  -29.4270  -18.6450   20.0070 C   0  0  0  0  0  0  0  0  0  0  0  0
  -31.8450  -19.3620   19.9950 C   0  0  0  0  0  1  0  0  0  0  0  0
  -26.8960  -18.6160   20.0250 C   0  0  0  0  0  1  0  0  0  0  0  0
  -30.3310  -15.6150   19.8120 C   0  0  0  0  0  0  0  0  0  0  0  0
  -30.3540  -13.0960   18.9340 C   0  0  0  0  0  2  0  0  0  0  0  0
  -29.3640  -12.7600   17.7830 C   0  0  0  0  0  2  0  0  0  0  0  0
  -27.9690  -12.4160   18.3300 C   0  0  0  0  0  2  0  0  0  0  0  0
  -27.5580  -13.3840   19.4630 C   0  0  0  0  0  3  0  0  0  0  0  0
  -28.6750  -13.6390   20.5020 C   0  0  0  0  0  2  0  0  0  0  0  0
  -29.8120  -14.2520   19.7770 N   0  0  0  0  0  0  0  0  0  0  0  0
  -31.5400  -15.5820   19.5080 O   0  0  0  0  0  0  0  0  0  0  0  0
  -29.5300  -16.9260   20.0070 N   0  0  0  0  0  0  0  0  0  0  0  0
  -28.6070  -16.5810   20.2230 H   0  0  0  0  0  0  0  0  0  0  0  0
  -25.2660  -13.9090   20.4310 C   0  0  0  0  0  0  0  0  0  0  0  0
  -24.2340  -13.1240   20.8580 C   0  0  0  0  0  0  0  0  0  0  0  0
  -24.6890  -11.7740   20.7480 C   0  0  0  0  0  0  0  0  0  0  0  0
  -26.2810  -13.0400   20.0730 N   0  0  0  0  0  0  0  0  0  0  0  0
  -25.9530  -11.7460   20.3300 N   0  0  0  0  0  0  0  0  0  0  0  0
  -23.9670  -10.5100   20.9540 C   0  0  0  0  0  0  0  0  0  0  0  0
  -24.4240   -9.5380   21.8700 C   0  0  0  0  0  3  0  0  0  0  0  0
  -23.6980   -8.3430   22.0690 C   0  0  0  0  0  3  0  0  0  0  0  0
  -22.5010   -8.1120   21.3510 C   0  0  0  0  0  0  0  0  0  0  0  0
  -22.0630   -9.0720   20.4230 C   0  0  0  0  0  3  0  0  0  0  0  0
  -22.7880  -10.2580   20.2230 C   0  0  0  0  0  3  0  0  0  0  0  0
  -21.7440   -6.9710   21.4600 O   0  0  0  0  0  0  0  0  0  0  0  0
  -21.6780   -6.2580   22.6310 C   0  0  0  0  0  0  0  0  0  0  0  0
  -21.1990   -6.8360   23.8280 C   0  0  0  0  0  3  0  0  0  0  0  0
  -21.0840   -6.0510   24.9920 C   0  0  0  0  0  3  0  0  0  0  0  0
  -21.4350   -4.6880   24.9610 C   0  0  0  0  0  0  0  0  0  0  0  0
  -21.9040   -4.1090   23.7680 C   0  0  0  0  0  3  0  0  0  0  0  0
  -22.0240   -4.8920   22.6070 C   0  0  0  0  0  0  0  0  0  0  0  0
  -22.4570   -4.3260   21.4560 F   0  0  0  0  0  0  0  0  0  0  0  0
  -21.3170   -3.9300   26.0760 F   0  0  0  0  0  0  0  0  0  0  0  0
  -22.8650  -13.6000   21.2450 C   0  0  0  0  0  0  0  0  0  0  0  0
  -22.2000  -12.8870   22.1460 N   0  0  0  0  0  0  0  0  0  0  0  0
  -22.3990  -14.6410   20.7850 O   0  0  0  0  0  0  0  0  0  0  0  0
  -22.5930  -12.0450   22.5410 H   0  0  0  0  0  0  0  0  0  0  0  0
  -21.2830  -13.1870   22.4470 H   0  0  0  0  0  0  0  0  0  0  0  0
  -25.4170  -15.2840   20.2780 N   0  0  0  0  0  0  0  0  0  0  0  0
  -24.6470  -15.9220   20.4440 H   0  0  0  0  0  0  0  0  0  0  0  0
  -26.1940  -15.7190   19.8020 H   0  0  0  0  0  0  0  0  0  0  0  0
  -29.8420  -24.2670   18.6990 C   0  0  0  0  0  1  0  0  0  0  0  0
  -27.4700  -23.7300   18.3320 C   0  0  0  0  0  1  0  0  0  0  0  0
  -28.5350  -23.8960   19.4200 C   0  0  1  0  0  0  0  0  0  0  0  0
  -28.3080  -25.5130   20.0940 O   0  0  0  0  0  0  0  0  0  0  0  0
  -24.5900  -31.6860   22.9700 C   0  0  0  0  0  0  0  0  0  0  0  0
  -27.3220  -26.7200   19.9430 C   0  0  0  0  0  0  0  0  0  0  0  0
  -23.4680  -30.2660   21.3100 C   0  0  0  0  0  3  0  0  0  0  0  0
  -24.9870  -28.6940   19.8920 C   0  0  0  0  0  0  0  0  0  0  0  0
  -26.0460  -30.4880   21.2290 C   0  0  0  0  0  2  0  0  0  0  0  0
  -26.1630  -29.0690   20.5500 C   0  0  0  0  0  0  0  0  0  0  0  0
  -27.3060  -28.1090   20.5520 C   0  0  0  0  0  3  0  0  0  0  0  0
  -26.0960  -26.5690   19.2360 C   0  0  0  0  0  3  0  0  0  0  0  0
  -24.9920  -27.4680   19.2170 C   0  0  0  0  0  3  0  0  0  0  0  0
  -23.7470  -29.5970   19.9340 C   0  0  0  0  0  2  0  0  0  0  0  0
  -24.7240  -30.8460   21.8880 N   0  0  0  0  0  0  0  0  0  0  0  0
  -23.4810  -31.9500   23.4670 O   0  0  0  0  0  0  0  0  0  0  0  0
  -22.7730  -29.2540   22.2630 C   0  0  0  0  0  0  0  0  0  0  0  0
  -21.4420  -29.0830   22.1420 N   0  0  0  0  0  0  0  0  0  0  0  0
  -23.4430  -28.6250   23.0850 O   0  0  0  0  0  0  0  0  0  0  0  0
  -20.9510  -29.6440   21.4590 H   0  0  0  0  0  0  0  0  0  0  0  0
  -18.0670  -27.8570   22.7040 C   0  0  0  0  0  0  0  0  0  0  0  0
  -20.6340  -28.1200   22.9010 C   0  0  0  0  0  3  0  0  0  0  0  0
  -20.7170  -26.7080   22.2750 C   0  0  0  0  0  2  0  0  0  0  0  0
  -19.5880  -26.4220   21.2790 C   0  0  0  0  0  2  0  0  0  0  0  0
  -18.2240  -26.5370   21.9660 C   0  0  0  0  0  2  0  0  0  0  0  0
  -19.1960  -28.6070   23.1290 C   0  0  0  0  0  0  0  0  0  0  0  0
  -18.9900  -29.8400   23.7850 C   0  0  0  0  0  3  0  0  0  0  0  0
  -17.6890  -30.3250   24.0160 C   0  0  0  0  0  3  0  0  0  0  0  0
  -16.5750  -29.5730   23.6050 C   0  0  0  0  0  3  0  0  0  0  0  0
  -16.7650  -28.3410   22.9550 C   0  0  0  0  0  3  0  0  0  0  0  0
  -25.8240  -32.3710   23.6330 C   0  0  0  0  0  3  0  0  0  0  0  0
  -25.4410  -33.7480   24.0040 N   0  0  0  0  0  0  0  0  0  0  0  0
  -25.7350  -34.8490   23.3000 C   0  0  0  0  0  0  0  0  0  0  0  0
  -26.4150  -34.8150   22.2720 O   0  0  0  0  0  0  0  0  0  0  0  0
  -24.8300  -33.8460   24.8010 H   0  0  0  0  0  0  0  0  0  0  0  0
  -23.9390  -36.5960   23.0180 C   0  0  0  0  0  1  0  0  0  0  0  0
  -25.1940  -36.2010   23.8140 C   0  0  0  0  0  3  0  0  0  0  0  0
  -27.2840  -37.1450   24.6950 C   0  0  0  0  0  1  0  0  0  0  0  0
  -26.1850  -37.2990   23.7460 N   0  0  0  0  0  0  0  0  0  0  0  0
  -25.7410  -38.1970   23.9160 H   0  0  0  0  0  0  0  0  0  0  0  0
  -26.3490  -31.6010   24.9090 C   0  0  1  0  0  0  0  0  0  0  0  0
  -25.2500  -31.3060   25.9570 C   0  0  0  0  0  1  0  0  0  0  0  0
  -26.9920  -30.2510   24.5220 C   0  0  0  0  0  1  0  0  0  0  0  0
  -27.4600  -32.4300   25.5970 C   0  0  0  0  0  1  0  0  0  0  0  0
  1  4  1  0
  2  5  2  0
  3  1  2  0
  3  2  1  0
  4  7  1  0
  4  6  2  0
  5  6  1  0
  5  8  1  0
  6 17  1  0
  9 17  1  0
 10 15  1  0
 11 12  1  0
 11 10  1  0
 13 12  1  0
 13 22  1  0
 13 14  1  0
 15  9  1  0
 15 14  1  0
 16  9  2  0
 17 18  1  0
 19 20  2  0
 20 39  1  0
 21 20  1  0
 21 24  1  0
 22 23  1  0
 22 19  1  0
 23 21  2  0
 24 25  1  0
 25 26  2  0
 27 30  1  0
 27 26  1  0
 28 27  2  0
 29 28  1  0
 29 24  2  0
 30 31  1  0
 31 32  1  0
 32 33  2  0
 34 33  1  0
 34 38  1  0
 35 34  2  0
 36 31  2  0
 36 35  1  0
 37 36  1  0
 39 40  1  0
 40 43  1  0
 40 42  1  0
 41 39  2  0
 44 19  1  0
 44 45  1  0
 46 44  1  0
 49 47  1  6
 48 49  1  0
 49  3  1  0
 49 50  1  0
 51 62  2  0
 52 50  1  0
 52 57  1  0
 53 61  1  0
 53 63  1  0
 54 60  1  0
 54 56  1  0
 55 61  1  0
 56 57  2  0
 56 55  1  0
 58 52  2  0
 59 58  1  0
 59 54  2  0
 60 53  1  0
 61 51  1  0
 63 65  2  0
 64 63  1  0
 66 64  1  0
 67 76  2  0
 67 72  1  0
 68 64  1  0
 68 72  1  0
 69 68  1  0
 70 71  1  0
 70 69  1  0
 71 67  1  0
 72 73  2  0
 73 74  1  0
 75 74  2  0
 76 75  1  0
 77 51  1  0
 77 78  1  0
 77 87  1  0
 78 81  1  0
 79 83  1  0
 79 78  1  0
 80 79  2  0
 83 82  1  0
 85 83  1  0
 85 86  1  0
 85 84  1  0
 87 90  1  1
 87 88  1  0
 89 87  1  0
M  ISO  4   9 100  17 100  49 101  50 101
M  END
>  <TORSDO>  (13) 
F 17

>  <SCORE>  (13) 
-16.329

>  <name>  (13) 
13

>  <ligand_id>  (13) 
13

>  <original_smiles>  (13) 
[H]c1c([H])c([H])c2c(c1[H])C([H])([H])C([H])([H])C([H])([H])C2([H])N([H])C(=O)C1([H])N(C(=O)C([H])(N([H])C(=O)C([H])(N([H])C([H])([H])[H])C([H])([H])[H])C(C([H])([H])[H])(C([H])([H])[H])C([H])([H])[H])C([H])([H])c2c([H])c(OC(c3c([H])c(C([H])([H])[H])c(N([H])C(=O)N4C([H])([H])C([H])([H])C([H])([H])C([H])(n5nc(-c6c([H])c([H])c(Oc7c([H])c([H])c(F)c([H])c7F)c([H])c6[H])c(C(=O)N([H])[H])c5N([H])[H])C4([H])[H])c(C([H])([H])[H])c3[H])(C([H])([H])[H])C([H])([H])[H])c([H])c([H])c2C1([H])[H]

>  <smiles>  (13) 
[H]c1c([H])c([H])c2c(c1[H])C([H])([H])C([H])([H])C([H])([H])C2([H])N([H])C(=O)C1([H])N(C(=O)C([H])(N([H])C(=O)C([H])(N([H])C([H])([H])[H])C([H])([H])[H])C(C([H])([H])[H])(C([H])([H])[H])C([H])([H])[H])C([H])([H])c2c([H])c(OC(c3c([H])c(C([H])([H])[H])c(N([H])C(=O)N4C([H])([H])C([H])([H])C([H])([H])C([H])(n5nc(-c6c([H])c([H])c(Oc7c([H])c([H])c(F)c([H])c7F)c([H])c6[H])c(C(=O)N([H])[H])c5N([H])[H])C4([H])[H])c(C([H])([H])[H])c3[H])(C([H])([H])[H])C([H])([H])[H])c([H])c([H])c2C1([H])[H]

$$$$
14:0:0
     RDKit          3D

 89 97  0  0  1  0  0  0  0  0999 V2000
  -30.4680  -22.9830   20.2290 C   0  0  0  0  0  1  0  0  0  0  0  0
  -28.7840  -22.5700   22.0390 C   0  0  0  0  0  1  0  0  0  0  0  0
  -29.0060  -22.5580   20.5050 C   0  0  2  0  0  0  0  0  0  0  0  0
  -29.2230  -19.4470   20.8980 C   0  0  0  0  0  3  0  0  0  0  0  0
  -29.0400  -20.7750   20.1220 C   0  0  0  0  0  0  0  0  0  0  0  0
  -29.4930  -18.2330   20.1170 C   0  0  0  0  0  0  0  0  0  0  0  0
  -29.3870  -18.1790   17.5410 C   0  0  0  0  0  1  0  0  0  0  0  0
  -29.1940  -20.2560   18.8710 N   0  0  0  0  0  0  0  0  0  0  0  0
  -29.3910  -18.8450   18.8500 N   0  0  0  0  0  0  0  0  0  0  0  0
  -30.3450  -15.4680   20.1280 C   0  0  0  0  0  0  0  0  0  0  0  0
  -30.3620  -12.9760   19.3300 C   0  0  0  0  0  2  0  0  0  0  0  0
  -29.4320  -12.7320   18.1120 C   0  0  0  0  0  2  0  0  0  0  0  0
  -28.0080  -12.4180   18.5870 C   0  0  0  0  0  2  0  0  0  0  0  0
  -27.5510  -13.3980   19.6900 C   0  0  0  0  0  3  0  0  0  0  0  0
  -28.6060  -13.5960   20.8040 C   0  0  0  0  0  2  0  0  0  0  0  0
  -29.8250  -14.1260   20.1610 N   0  0  0  0  0  0  0  0  0  0  0  0
  -31.5330  -15.4690   19.7610 O   0  0  0  0  0  0  0  0  0  0  0  0
  -29.5960  -16.7370   20.4420 N   0  0  0  0  0  0  0  0  0  0  0  0
  -28.8600  -16.4810   21.0810 H   0  0  0  0  0  0  0  0  0  0  0  0
  -25.2060  -13.9430   20.5030 C   0  0  0  0  0  0  0  0  0  0  0  0
  -24.1530  -13.1590   20.8920 C   0  0  0  0  0  0  0  0  0  0  0  0
  -24.6200  -11.8110   20.8320 C   0  0  0  0  0  0  0  0  0  0  0  0
  -26.2380  -13.0690   20.2200 N   0  0  0  0  0  0  0  0  0  0  0  0
  -25.9030  -11.7810   20.4860 N   0  0  0  0  0  0  0  0  0  0  0  0
  -23.8940  -10.5480   21.0190 C   0  0  0  0  0  0  0  0  0  0  0  0
  -24.3330   -9.5760   21.9430 C   0  0  0  0  0  3  0  0  0  0  0  0
  -23.6020   -8.3810   22.1250 C   0  0  0  0  0  3  0  0  0  0  0  0
  -22.4200   -8.1510   21.3810 C   0  0  0  0  0  0  0  0  0  0  0  0
  -21.9990   -9.1150   20.4490 C   0  0  0  0  0  3  0  0  0  0  0  0
  -22.7310  -10.3010   20.2640 C   0  0  0  0  0  3  0  0  0  0  0  0
  -21.6580   -7.0100   21.4740 O   0  0  0  0  0  0  0  0  0  0  0  0
  -21.6090   -6.2730   22.6300 C   0  0  0  0  0  0  0  0  0  0  0  0
  -21.1710   -6.8280   23.8530 C   0  0  0  0  0  3  0  0  0  0  0  0
  -21.0650   -6.0120   24.9980 C   0  0  0  0  0  3  0  0  0  0  0  0
  -21.3900   -4.6440   24.9230 C   0  0  0  0  0  0  0  0  0  0  0  0
  -21.8200   -4.0880   23.7040 C   0  0  0  0  0  3  0  0  0  0  0  0
  -21.9280   -4.9010   22.5600 C   0  0  0  0  0  0  0  0  0  0  0  0
  -22.3220   -4.3520   21.3870 F   0  0  0  0  0  0  0  0  0  0  0  0
  -21.2800   -3.8620   26.0210 F   0  0  0  0  0  0  0  0  0  0  0  0
  -22.7660  -13.6390   21.2000 C   0  0  0  0  0  0  0  0  0  0  0  0
  -22.0550  -12.9370   22.0760 N   0  0  0  0  0  0  0  0  0  0  0  0
  -22.3230  -14.6710   20.7010 O   0  0  0  0  0  0  0  0  0  0  0  0
  -22.4270  -12.1020   22.5010 H   0  0  0  0  0  0  0  0  0  0  0  0
  -21.1250  -13.2400   22.3260 H   0  0  0  0  0  0  0  0  0  0  0  0
  -25.3500  -15.3170   20.3330 N   0  0  0  0  0  0  0  0  0  0  0  0
  -24.5510  -15.9350   20.4450 H   0  0  0  0  0  0  0  0  0  0  0  0
  -26.1520  -15.7810   19.9220 H   0  0  0  0  0  0  0  0  0  0  0  0
  -28.0540  -24.0800   20.0010 C   0  0  0  0  0  2  0  0  0  0  0  0
  -28.1930  -25.7560   20.2890 O   0  0  0  0  0  0  0  0  0  0  0  0
  -24.6430  -31.8580   23.2120 C   0  0  0  0  0  0  0  0  0  0  0  0
  -27.1950  -26.9000   20.2040 C   0  0  0  0  0  0  0  0  0  0  0  0
  -23.4610  -30.4700   21.5640 C   0  0  0  0  0  3  0  0  0  0  0  0
  -24.9120  -28.8480   20.1410 C   0  0  0  0  0  0  0  0  0  0  0  0
  -26.0320  -30.6500   21.4390 C   0  0  0  0  0  2  0  0  0  0  0  0
  -26.1000  -29.2290   20.7780 C   0  0  0  0  0  0  0  0  0  0  0  0
  -27.2310  -28.2770   20.7800 C   0  0  0  0  0  3  0  0  0  0  0  0
  -25.9750  -26.6920   19.5210 C   0  0  0  0  0  3  0  0  0  0  0  0
  -24.8790  -27.6010   19.4920 C   0  0  0  0  0  3  0  0  0  0  0  0
  -23.7040  -29.7890   20.1860 C   0  0  0  0  0  2  0  0  0  0  0  0
  -24.7360  -31.0220   22.1250 N   0  0  0  0  0  0  0  0  0  0  0  0
  -23.5490  -32.1510   23.7230 O   0  0  0  0  0  0  0  0  0  0  0  0
  -22.7530  -29.4790   22.5240 C   0  0  0  0  0  0  0  0  0  0  0  0
  -21.4220  -29.3230   22.3990 N   0  0  0  0  0  0  0  0  0  0  0  0
  -23.4130  -28.8470   23.3540 O   0  0  0  0  0  0  0  0  0  0  0  0
  -20.9360  -29.8880   21.7160 H   0  0  0  0  0  0  0  0  0  0  0  0
  -18.0340  -28.1240   22.9190 C   0  0  0  0  0  0  0  0  0  0  0  0
  -20.5950  -28.3850   23.1690 C   0  0  0  0  0  3  0  0  0  0  0  0
  -20.6900  -26.9570   22.5850 C   0  0  0  0  0  2  0  0  0  0  0  0
  -19.5820  -26.6430   21.5720 C   0  0  0  0  0  2  0  0  0  0  0  0
  -18.2050  -26.7830   22.2270 C   0  0  0  0  0  2  0  0  0  0  0  0
  -19.1560  -28.8850   23.3460 C   0  0  0  0  0  0  0  0  0  0  0  0
  -18.9390  -30.1380   23.9580 C   0  0  0  0  0  3  0  0  0  0  0  0
  -17.6350  -30.6360   24.1400 C   0  0  0  0  0  3  0  0  0  0  0  0
  -16.5280  -29.8780   23.7190 C   0  0  0  0  0  3  0  0  0  0  0  0
  -16.7280  -28.6240   23.1170 C   0  0  0  0  0  3  0  0  0  0  0  0
  -25.9070  -32.5020   23.8570 C   0  0  0  0  0  3  0  0  0  0  0  0
  -25.5880  -33.9030   24.1930 N   0  0  0  0  0  0  0  0  0  0  0  0
  -25.9080  -34.9670   23.4420 C   0  0  0  0  0  0  0  0  0  0  0  0
  -26.5650  -34.8750   22.4020 O   0  0  0  0  0  0  0  0  0  0  0  0
  -25.0010  -34.0490   24.9990 H   0  0  0  0  0  0  0  0  0  0  0  0
  -24.1610  -36.7610   23.1540 C   0  0  0  0  0  1  0  0  0  0  0  0
  -25.4300  -36.3540   23.9220 C   0  0  0  0  0  3  0  0  0  0  0  0
  -27.5800  -37.2590   24.6930 C   0  0  0  0  0  1  0  0  0  0  0  0
  -26.4520  -37.4140   23.7780 N   0  0  0  0  0  0  0  0  0  0  0  0
  -26.0430  -38.3320   23.9310 H   0  0  0  0  0  0  0  0  0  0  0  0
  -26.4030  -31.7380   25.1460 C   0  0  1  0  0  0  0  0  0  0  0  0
  -25.2970  -31.5170   26.2040 C   0  0  0  0  0  1  0  0  0  0  0  0
  -26.9860  -30.3530   24.7840 C   0  0  0  0  0  1  0  0  0  0  0  0
  -27.5480  -32.5330   25.8200 C   0  0  0  0  0  1  0  0  0  0  0  0
  3  1  1  1
  3  2  1  0
  5  3  1  0
  5  4  1  0
  6 18  1  0
  6  4  2  0
  7  9  1  0
  8  5  2  0
  9  8  1  0
  9  6  1  0
 10 16  1  0
 10 18  1  0
 11 16  1  0
 12 13  1  0
 12 11  1  0
 14 13  1  0
 14 23  1  0
 14 15  1  0
 16 15  1  0
 17 10  2  0
 18 19  1  0
 20 21  2  0
 21 40  1  0
 22 21  1  0
 22 25  1  0
 23 24  1  0
 23 20  1  0
 24 22  2  0
 25 26  1  0
 26 27  2  0
 28 31  1  0
 28 27  1  0
 29 28  2  0
 30 29  1  0
 30 25  2  0
 31 32  1  0
 32 33  1  0
 33 34  2  0
 35 34  1  0
 35 39  1  0
 36 35  2  0
 37 32  2  0
 37 36  1  0
 38 37  1  0
 40 41  1  0
 41 44  1  0
 41 43  1  0
 42 40  2  0
 45 46  1  0
 45 20  1  0
 47 45  1  0
 48 49  1  0
 48  3  1  0
 50 61  2  0
 51 49  1  0
 51 56  1  0
 52 60  1  0
 52 62  1  0
 53 59  1  0
 53 55  1  0
 54 60  1  0
 55 56  2  0
 55 54  1  0
 57 51  2  0
 58 57  1  0
 58 53  2  0
 59 52  1  0
 60 50  1  0
 62 64  2  0
 63 62  1  0
 65 63  1  0
 66 75  2  0
 66 71  1  0
 67 63  1  0
 67 71  1  0
 68 67  1  0
 69 70  1  0
 69 68  1  0
 70 66  1  0
 71 72  2  0
 72 73  1  0
 74 73  2  0
 75 74  1  0
 76 50  1  0
 76 77  1  0
 76 86  1  0
 77 80  1  0
 78 82  1  0
 78 77  1  0
 79 78  2  0
 82 81  1  0
 84 82  1  0
 84 85  1  0
 84 83  1  0
 86 89  1  1
 86 87  1  0
 88 86  1  0
M  ISO  4  10 100  18 100  48 101  49 101
M  END
>  <TORSDO>  (14) 
F 18

>  <SCORE>  (14) 
-16.084

>  <name>  (14) 
14

>  <ligand_id>  (14) 
14

>  <original_smiles>  (14) 
[H]c1c([H])c([H])c2c(c1[H])C([H])([H])C([H])([H])C([H])([H])C2([H])N([H])C(=O)C1([H])N(C(=O)C([H])(N([H])C(=O)C([H])(N([H])C([H])([H])[H])C([H])([H])[H])C(C([H])([H])[H])(C([H])([H])[H])C([H])([H])[H])C([H])([H])c2c([H])c(OC([H])([H])C(c3nn(C([H])([H])[H])c(N([H])C(=O)N4C([H])([H])C([H])([H])C([H])([H])C([H])(n5nc(-c6c([H])c([H])c(Oc7c([H])c([H])c(F)c([H])c7F)c([H])c6[H])c(C(=O)N([H])[H])c5N([H])[H])C4([H])[H])c3[H])(C([H])([H])[H])C([H])([H])[H])c([H])c([H])c2C1([H])[H]

>  <smiles>  (14) 
[H]c1c([H])c([H])c2c(c1[H])C([H])([H])C([H])([H])C([H])([H])C2([H])N([H])C(=O)C1([H])N(C(=O)C([H])(N([H])C(=O)C([H])(N([H])C([H])([H])[H])C([H])([H])[H])C(C([H])([H])[H])(C([H])([H])[H])C([H])([H])[H])C([H])([H])c2c([H])c(OC([H])([H])C(c3nn(C([H])([H])[H])c(N([H])C(=O)N4C([H])([H])C([H])([H])C([H])([H])C([H])(n5nc(-c6c([H])c([H])c(Oc7c([H])c([H])c(F)c([H])c7F)c([H])c6[H])c(C(=O)N([H])[H])c5N([H])[H])C4([H])[H])c3[H])(C([H])([H])[H])C([H])([H])[H])c([H])c([H])c2C1([H])[H]

$$$$
15:0:0
     RDKit          3D

 89 97  0  0  1  0  0  0  0  0999 V2000
  -30.8400  -15.3820   19.9210 C   0  0  0  0  0  0  0  0  0  0  0  0
  -30.9210  -12.8220   19.5250 C   0  0  0  0  0  2  0  0  0  0  0  0
  -30.0700  -12.3990   18.2990 C   0  0  0  0  0  2  0  0  0  0  0  0
  -28.6000  -12.1820   18.7020 C   0  0  0  0  0  2  0  0  0  0  0  0
  -28.0770  -13.3260   19.6050 C   0  0  0  0  0  3  0  0  0  0  0  0
  -29.0570  -13.6760   20.7460 C   0  0  0  0  0  2  0  0  0  0  0  0
  -30.3270  -14.0740   20.1180 N   0  0  0  0  0  0  0  0  0  0  0  0
  -32.0560  -15.4060   19.6770 O   0  0  0  0  0  0  0  0  0  0  0  0
  -30.4510  -20.3140   18.3820 C   0  0  0  0  0  3  0  0  0  0  0  0
  -29.3930  -21.2250   18.8120 C   0  0  0  0  0  0  0  0  0  0  0  0
  -28.5710  -20.4200   19.6990 C   0  0  0  0  0  0  0  0  0  0  0  0
  -28.7840  -18.9690   19.9920 C   0  0  0  0  0  0  0  0  0  0  0  0
  -29.8830  -18.1340   19.5020 C   0  0  0  0  0  0  0  0  0  0  0  0
  -27.4640  -21.1700   20.4340 C   0  0  0  0  0  1  0  0  0  0  0  0
  -27.8060  -18.2640   20.9330 C   0  0  0  0  0  1  0  0  0  0  0  0
  -30.6750  -18.9400   18.6870 N   0  0  0  0  0  0  0  0  0  0  0  0
  -29.9770  -16.5720   19.8790 N   0  0  0  0  0  0  0  0  0  0  0  0
  -29.0790  -16.2660   20.2160 H   0  0  0  0  0  0  0  0  0  0  0  0
  -25.7240  -14.0060   20.3290 C   0  0  0  0  0  0  0  0  0  0  0  0
  -24.6230  -13.2830   20.6900 C   0  0  0  0  0  0  0  0  0  0  0  0
  -25.0220  -11.9120   20.6520 C   0  0  0  0  0  0  0  0  0  0  0  0
  -26.7250  -13.0810   20.0910 N   0  0  0  0  0  0  0  0  0  0  0  0
  -26.3130  -11.8130   20.3520 N   0  0  0  0  0  0  0  0  0  0  0  0
  -24.2290  -10.6860   20.8230 C   0  0  0  0  0  0  0  0  0  0  0  0
  -24.6440   -9.6510   21.6910 C   0  0  0  0  0  3  0  0  0  0  0  0
  -23.8530   -8.4940   21.8550 C   0  0  0  0  0  3  0  0  0  0  0  0
  -22.6320   -8.3630   21.1520 C   0  0  0  0  0  0  0  0  0  0  0  0
  -22.2340   -9.3840   20.2720 C   0  0  0  0  0  3  0  0  0  0  0  0
  -23.0250  -10.5340   20.1060 C   0  0  0  0  0  3  0  0  0  0  0  0
  -21.8110   -7.2630   21.2300 O   0  0  0  0  0  0  0  0  0  0  0  0
  -21.8410   -6.4160   22.3100 C   0  0  0  0  0  0  0  0  0  0  0  0
  -21.5930   -6.8740   23.6230 C   0  0  0  0  0  3  0  0  0  0  0  0
  -21.5650   -5.9580   24.6940 C   0  0  0  0  0  3  0  0  0  0  0  0
  -21.7760   -4.5870   24.4540 C   0  0  0  0  0  0  0  0  0  0  0  0
  -22.0200   -4.1290   23.1470 C   0  0  0  0  0  3  0  0  0  0  0  0
  -22.0490   -5.0430   22.0790 C   0  0  0  0  0  0  0  0  0  0  0  0
  -22.2640   -4.5940   20.8180 F   0  0  0  0  0  0  0  0  0  0  0  0
  -21.7430   -3.7060   25.4810 F   0  0  0  0  0  0  0  0  0  0  0  0
  -23.2490  -13.8280   20.9460 C   0  0  0  0  0  0  0  0  0  0  0  0
  -22.4940  -13.1960   21.8380 N   0  0  0  0  0  0  0  0  0  0  0  0
  -22.8540  -14.8520   20.3880 O   0  0  0  0  0  0  0  0  0  0  0  0
  -22.8270  -12.3700   22.3130 H   0  0  0  0  0  0  0  0  0  0  0  0
  -21.5710  -13.5460   22.0510 H   0  0  0  0  0  0  0  0  0  0  0  0
  -25.9520  -15.3670   20.1490 N   0  0  0  0  0  0  0  0  0  0  0  0
  -25.1850  -16.0280   20.1940 H   0  0  0  0  0  0  0  0  0  0  0  0
  -26.7650  -15.7410   19.6800 H   0  0  0  0  0  0  0  0  0  0  0  0
  -29.3910  -22.9560   18.5820 C   0  0  0  0  0  3  0  0  0  0  0  0
  -28.2170  -24.2770   18.3480 C   0  0  0  0  0  3  0  0  0  0  0  0
  -28.3590  -25.9000   18.5070 O   0  0  0  0  0  0  0  0  0  0  0  0
  -24.6660  -30.9990   22.5980 C   0  0  0  0  0  0  0  0  0  0  0  0
  -27.2770  -26.9030   18.6620 C   0  0  0  0  0  0  0  0  0  0  0  0
  -23.4380  -29.8300   20.8080 C   0  0  0  0  0  3  0  0  0  0  0  0
  -24.8740  -28.5890   19.0510 C   0  0  0  0  0  0  0  0  0  0  0  0
  -25.9720  -30.2320   20.5610 C   0  0  0  0  0  2  0  0  0  0  0  0
  -26.0740  -28.9670   19.6680 C   0  0  0  0  0  0  0  0  0  0  0  0
  -27.2660  -28.1470   19.4550 C   0  0  0  0  0  3  0  0  0  0  0  0
  -26.0410  -26.6710   18.0170 C   0  0  0  0  0  3  0  0  0  0  0  0
  -24.8780  -27.4620   18.2090 C   0  0  0  0  0  3  0  0  0  0  0  0
  -23.6120  -29.4060   19.3240 C   0  0  0  0  0  2  0  0  0  0  0  0
  -24.7150  -30.3730   21.3780 N   0  0  0  0  0  0  0  0  0  0  0  0
  -23.6020  -31.1300   23.2220 O   0  0  0  0  0  0  0  0  0  0  0  0
  -22.8670  -28.6410   21.6220 C   0  0  0  0  0  0  0  0  0  0  0  0
  -21.5410  -28.4200   21.5460 N   0  0  0  0  0  0  0  0  0  0  0  0
  -23.6180  -27.9230   22.2860 O   0  0  0  0  0  0  0  0  0  0  0  0
  -20.9840  -29.0620   21.0000 H   0  0  0  0  0  0  0  0  0  0  0  0
  -18.2820  -26.8730   21.9190 C   0  0  0  0  0  0  0  0  0  0  0  0
  -20.8170  -27.3140   22.1830 C   0  0  0  0  0  3  0  0  0  0  0  0
  -21.0190  -25.9900   21.4080 C   0  0  0  0  0  2  0  0  0  0  0  0
  -19.9240  -25.7250   20.3710 C   0  0  0  0  0  2  0  0  0  0  0  0
  -18.5520  -25.6550   21.0480 C   0  0  0  0  0  2  0  0  0  0  0  0
  -19.3450  -27.6600   22.4360 C   0  0  0  0  0  0  0  0  0  0  0  0
  -19.0390  -28.7990   23.2110 C   0  0  0  0  0  3  0  0  0  0  0  0
  -17.7020  -29.1540   23.4730 C   0  0  0  0  0  3  0  0  0  0  0  0
  -16.6550  -28.3620   22.9700 C   0  0  0  0  0  3  0  0  0  0  0  0
  -16.9460  -27.2220   22.2000 C   0  0  0  0  0  3  0  0  0  0  0  0
  -25.9450  -31.5970   23.2580 C   0  0  0  0  0  3  0  0  0  0  0  0
  -25.5960  -32.9210   23.8000 N   0  0  0  0  0  0  0  0  0  0  0  0
  -25.9720  -34.0920   23.2690 C   0  0  0  0  0  0  0  0  0  0  0  0
  -26.7150  -34.1690   22.2870 O   0  0  0  0  0  0  0  0  0  0  0  0
  -24.9410  -32.9330   24.5680 H   0  0  0  0  0  0  0  0  0  0  0  0
  -24.2860  -35.9560   23.0990 C   0  0  0  0  0  1  0  0  0  0  0  0
  -25.4450  -35.3820   23.9300 C   0  0  0  0  0  3  0  0  0  0  0  0
  -27.4880  -36.0730   25.1100 C   0  0  0  0  0  1  0  0  0  0  0  0
  -26.4850  -36.4210   24.1060 N   0  0  0  0  0  0  0  0  0  0  0  0
  -26.0680  -37.3090   24.3700 H   0  0  0  0  0  0  0  0  0  0  0  0
  -26.5390  -30.6810   24.4020 C   0  0  1  0  0  0  0  0  0  0  0  0
  -25.5010  -30.2750   25.4740 C   0  0  0  0  0  1  0  0  0  0  0  0
  -27.1420  -29.3820   23.8190 C   0  0  0  0  0  1  0  0  0  0  0  0
  -27.6940  -31.4220   25.1150 C   0  0  0  0  0  1  0  0  0  0  0  0
  1  7  1  0
  2  7  1  0
  3  4  1  0
  3  2  1  0
  5  4  1  0
  5 22  1  0
  5  6  1  0
  7  6  1  0
  8  1  2  0
  9 16  2  0
  9 10  1  0
 10 11  2  0
 11 12  1  0
 11 14  1  0
 12 15  1  0
 13 17  1  0
 13 12  2  0
 16 13  1  0
 17  1  1  0
 17 18  1  0
 19 20  2  0
 20 39  1  0
 21 20  1  0
 21 24  1  0
 22 19  1  0
 22 23  1  0
 23 21  2  0
 24 25  1  0
 25 26  2  0
 27 30  1  0
 27 26  1  0
 28 27  2  0
 29 28  1  0
 29 24  2  0
 30 31  1  0
 31 32  1  0
 32 33  2  0
 34 33  1  0
 34 38  1  0
 35 34  2  0
 36 31  2  0
 36 35  1  0
 37 36  1  0
 39 40  1  0
 40 43  1  0
 40 42  1  0
 41 39  2  0
 44 45  1  0
 44 19  1  0
 46 44  1  0
 47 10  1  0
 48 49  1  0
 48 47  2  0
 49 51  1  0
 50 61  2  0
 51 56  1  0
 52 60  1  0
 52 62  1  0
 53 59  1  0
 53 55  1  0
 54 60  1  0
 55 54  1  0
 56 55  2  0
 57 58  1  0
 57 51  2  0
 58 53  2  0
 59 52  1  0
 60 50  1  0
 62 64  2  0
 63 62  1  0
 65 63  1  0
 66 75  2  0
 66 71  1  0
 67 63  1  0
 67 71  1  0
 68 67  1  0
 69 70  1  0
 69 68  1  0
 70 66  1  0
 71 72  2  0
 72 73  1  0
 74 73  2  0
 75 74  1  0
 76 50  1  0
 76 77  1  0
 76 86  1  0
 77 80  1  0
 78 77  1  0
 78 82  1  0
 79 78  2  0
 82 81  1  0
 82 84  1  0
 84 85  1  0
 84 83  1  0
 86 89  1  1
 86 87  1  0
 88 86  1  0
M  ISO  4   1 100  17 100  48 101  49 101
M  END
>  <TORSDO>  (15) 
F 17

>  <SCORE>  (15) 
-11.944

>  <name>  (15) 
15

>  <ligand_id>  (15) 
15

>  <original_smiles>  (15) 
[H]c1nc(N([H])C(=O)N2C([H])([H])C([H])([H])C([H])([H])C([H])(n3nc(-c4c([H])c([H])c(Oc5c([H])c([H])c(F)c([H])c5F)c([H])c4[H])c(C(=O)N([H])[H])c3N([H])[H])C2([H])[H])c(C([H])([H])[H])c(C([H])([H])[H])c1C([H])([H])C([H])([H])Oc1c([H])c([H])c2c(c1[H])C([H])([H])N(C(=O)C([H])(N([H])C(=O)C([H])(N([H])C([H])([H])[H])C([H])([H])[H])C(C([H])([H])[H])(C([H])([H])[H])C([H])([H])[H])C([H])(C(=O)N([H])C1([H])c3c([H])c([H])c([H])c([H])c3C([H])([H])C([H])([H])C1([H])[H])C2([H])[H]

>  <smiles>  (15) 
[H]c1nc(N([H])C(=O)N2C([H])([H])C([H])([H])C([H])([H])C([H])(n3nc(-c4c([H])c([H])c(Oc5c([H])c([H])c(F)c([H])c5F)c([H])c4[H])c(C(=O)N([H])[H])c3N([H])[H])C2([H])[H])c(C([H])([H])[H])c(C([H])([H])[H])c1C([H])([H])C([H])([H])Oc1c([H])c([H])c2c(c1[H])C([H])([H])N(C(=O)C([H])(N([H])C(=O)C([H])(N([H])C([H])([H])[H])C([H])([H])[H])C(C([H])([H])[H])(C([H])([H])[H])C([H])([H])[H])C([H])(C(=O)N([H])C1([H])c3c([H])c([H])c([H])c([H])c3C([H])([H])C([H])([H])C1([H])[H])C2([H])[H]

$$$$
16:0:0
     RDKit          3D

 89 97  0  0  1  0  0  0  0  0999 V2000
  -31.1750  -20.9830   20.7590 C   0  0  0  0  0  3  0  0  0  0  0  0
  -30.3060  -22.1070   20.5680 C   0  0  0  0  0  0  0  0  0  0  0  0
  -28.9420  -21.9920   20.1950 C   0  0  0  0  0  0  0  0  0  0  0  0
  -29.6310  -19.0340   20.2510 C   0  0  0  0  0  0  0  0  0  0  0  0
  -30.8940  -19.5810   20.6270 C   0  0  0  0  0  0  0  0  0  0  0  0
  -28.6950  -20.3710   20.0600 C   0  0  0  0  0  0  0  0  0  0  0  0
  -30.8820  -23.4960   20.7890 C   0  0  0  0  0  1  0  0  0  0  0  0
  -32.2200  -18.5420   20.9990 Cl  0  0  0  0  0  0  0  0  0  0  0  0
  -27.0750  -19.9810   19.6170 Cl  0  0  0  0  0  0  0  0  0  0  0  0
  -30.2680  -15.8670   20.1060 C   0  0  0  0  0  0  0  0  0  0  0  0
  -30.3900  -13.2950   19.2700 C   0  0  0  0  0  2  0  0  0  0  0  0
  -29.4780  -12.8180   18.0990 C   0  0  0  0  0  2  0  0  0  0  0  0
  -28.0870  -12.4180   18.6080 C   0  0  0  0  0  2  0  0  0  0  0  0
  -27.5810  -13.4190   19.6710 C   0  0  0  0  0  3  0  0  0  0  0  0
  -28.6380  -13.7980   20.7400 C   0  0  0  0  0  2  0  0  0  0  0  0
  -29.7550  -14.4790   20.0330 N   0  0  0  0  0  0  0  0  0  0  0  0
  -31.4970  -15.7610   19.9150 O   0  0  0  0  0  0  0  0  0  0  0  0
  -29.5040  -17.2670   20.1720 N   0  0  0  0  0  0  0  0  0  0  0  0
  -28.5240  -17.0290   20.1770 H   0  0  0  0  0  0  0  0  0  0  0  0
  -25.2510  -13.9040   20.5430 C   0  0  0  0  0  0  0  0  0  0  0  0
  -24.2140  -13.1070   20.9290 C   0  0  0  0  0  0  0  0  0  0  0  0
  -24.6930  -11.7630   20.8480 C   0  0  0  0  0  0  0  0  0  0  0  0
  -26.2930  -13.0500   20.2380 N   0  0  0  0  0  0  0  0  0  0  0  0
  -25.9740  -11.7520   20.4870 N   0  0  0  0  0  0  0  0  0  0  0  0
  -23.9800  -10.4900   21.0320 C   0  0  0  0  0  0  0  0  0  0  0  0
  -24.4280   -9.5170   21.9510 C   0  0  0  0  0  3  0  0  0  0  0  0
  -23.7100   -8.3140   22.1270 C   0  0  0  0  0  3  0  0  0  0  0  0
  -22.5280   -8.0760   21.3860 C   0  0  0  0  0  0  0  0  0  0  0  0
  -22.0980   -9.0400   20.4550 C   0  0  0  0  0  3  0  0  0  0  0  0
  -22.8180  -10.2330   20.2770 C   0  0  0  0  0  3  0  0  0  0  0  0
  -21.7800   -6.9260   21.4720 O   0  0  0  0  0  0  0  0  0  0  0  0
  -21.7220   -6.1910   22.6290 C   0  0  0  0  0  0  0  0  0  0  0  0
  -21.2410   -6.7400   23.8370 C   0  0  0  0  0  3  0  0  0  0  0  0
  -21.1330   -5.9290   24.9850 C   0  0  0  0  0  3  0  0  0  0  0  0
  -21.4960   -4.5700   24.9250 C   0  0  0  0  0  0  0  0  0  0  0  0
  -21.9710   -4.0210   23.7220 C   0  0  0  0  0  3  0  0  0  0  0  0
  -22.0810   -4.8290   22.5760 C   0  0  0  0  0  0  0  0  0  0  0  0
  -22.5180   -4.2890   21.4130 F   0  0  0  0  0  0  0  0  0  0  0  0
  -21.3850   -3.7890   26.0240 F   0  0  0  0  0  0  0  0  0  0  0  0
  -22.8220  -13.5660   21.2530 C   0  0  0  0  0  0  0  0  0  0  0  0
  -22.1330  -12.8560   22.1370 N   0  0  0  0  0  0  0  0  0  0  0  0
  -22.3590  -14.5930   20.7580 O   0  0  0  0  0  0  0  0  0  0  0  0
  -22.5230  -12.0260   22.5590 H   0  0  0  0  0  0  0  0  0  0  0  0
  -21.2010  -13.1460   22.3970 H   0  0  0  0  0  0  0  0  0  0  0  0
  -25.3920  -15.2810   20.3910 N   0  0  0  0  0  0  0  0  0  0  0  0
  -24.6190  -15.9200   20.5430 H   0  0  0  0  0  0  0  0  0  0  0  0
  -26.2120  -15.7350   20.0120 H   0  0  0  0  0  0  0  0  0  0  0  0
  -27.9830  -23.6410   20.0030 C   0  0  0  0  0  2  0  0  0  0  0  0
  -28.1820  -25.4310   20.1940 O   0  0  0  0  0  0  0  0  0  0  0  0
  -24.6340  -31.7980   23.1460 C   0  0  0  0  0  0  0  0  0  0  0  0
  -27.2260  -26.6910   20.1390 C   0  0  0  0  0  0  0  0  0  0  0  0
  -23.4860  -30.4240   21.4620 C   0  0  0  0  0  3  0  0  0  0  0  0
  -24.9670  -28.7820   20.0610 C   0  0  0  0  0  0  0  0  0  0  0  0
  -26.0710  -30.5440   21.4100 C   0  0  0  0  0  2  0  0  0  0  0  0
  -26.1510  -29.1120   20.7320 C   0  0  0  0  0  0  0  0  0  0  0  0
  -27.2610  -28.0980   20.7360 C   0  0  0  0  0  3  0  0  0  0  0  0
  -26.0080  -26.5980   19.4130 C   0  0  0  0  0  3  0  0  0  0  0  0
  -24.9410  -27.5530   19.3780 C   0  0  0  0  0  3  0  0  0  0  0  0
  -23.7610  -29.7420   20.0900 C   0  0  0  0  0  2  0  0  0  0  0  0
  -24.7540  -30.9570   22.0590 N   0  0  0  0  0  0  0  0  0  0  0  0
  -23.5270  -32.0930   23.6320 O   0  0  0  0  0  0  0  0  0  0  0  0
  -22.7410  -29.4390   22.4040 C   0  0  0  0  0  0  0  0  0  0  0  0
  -21.4080  -29.3060   22.2610 N   0  0  0  0  0  0  0  0  0  0  0  0
  -23.3770  -28.7920   23.2390 O   0  0  0  0  0  0  0  0  0  0  0  0
  -20.9440  -29.8760   21.5680 H   0  0  0  0  0  0  0  0  0  0  0  0
  -17.9940  -28.1490   22.7450 C   0  0  0  0  0  0  0  0  0  0  0  0
  -20.5610  -28.3610   23.0020 C   0  0  0  0  0  3  0  0  0  0  0  0
  -20.6310  -26.9470   22.3790 C   0  0  0  0  0  2  0  0  0  0  0  0
  -19.5190  -26.6830   21.3570 C   0  0  0  0  0  2  0  0  0  0  0  0
  -18.1430  -26.8270   22.0120 C   0  0  0  0  0  2  0  0  0  0  0  0
  -19.1290  -28.8780   23.1950 C   0  0  0  0  0  0  0  0  0  0  0  0
  -18.9300  -30.1130   23.8460 C   0  0  0  0  0  3  0  0  0  0  0  0
  -17.6330  -30.6240   24.0460 C   0  0  0  0  0  3  0  0  0  0  0  0
  -16.5150  -29.8940   23.6080 C   0  0  0  0  0  3  0  0  0  0  0  0
  -16.6970  -28.6570   22.9640 C   0  0  0  0  0  3  0  0  0  0  0  0
  -25.8770  -32.4430   23.8290 C   0  0  0  0  0  3  0  0  0  0  0  0
  -25.5470  -33.8420   24.1690 N   0  0  0  0  0  0  0  0  0  0  0  0
  -25.8650  -34.9140   23.4320 C   0  0  0  0  0  0  0  0  0  0  0  0
  -26.5230  -34.8300   22.3930 O   0  0  0  0  0  0  0  0  0  0  0  0
  -24.9580  -33.9790   24.9780 H   0  0  0  0  0  0  0  0  0  0  0  0
  -24.1080  -36.7030   23.1610 C   0  0  0  0  0  1  0  0  0  0  0  0
  -25.3830  -36.2980   23.9200 C   0  0  0  0  0  3  0  0  0  0  0  0
  -27.5300  -37.2140   24.6890 C   0  0  0  0  0  1  0  0  0  0  0  0
  -26.4000  -37.3640   23.7760 N   0  0  0  0  0  0  0  0  0  0  0  0
  -25.9870  -38.2800   23.9320 H   0  0  0  0  0  0  0  0  0  0  0  0
  -26.3320  -31.6740   25.1320 C   0  0  1  0  0  0  0  0  0  0  0  0
  -25.1940  -31.4500   26.1550 C   0  0  0  0  0  1  0  0  0  0  0  0
  -26.9230  -30.2900   24.7860 C   0  0  0  0  0  1  0  0  0  0  0  0
  -27.4610  -32.4650   25.8390 C   0  0  0  0  0  1  0  0  0  0  0  0
  2  1  2  0
  2  7  1  0
  3  2  1  0
  4  5  2  0
  5  1  1  0
  5  8  1  0
  6  3  2  0
  6  4  1  0
  9  6  1  0
 10 18  1  0
 11 16  1  0
 12 13  1  0
 12 11  1  0
 14 13  1  0
 14 23  1  0
 14 15  1  0
 16 10  1  0
 16 15  1  0
 17 10  2  0
 18 19  1  0
 18  4  1  0
 20 21  2  0
 21 40  1  0
 22 21  1  0
 22 25  1  0
 23 24  1  0
 23 20  1  0
 24 22  2  0
 25 26  1  0
 26 27  2  0
 28 31  1  0
 28 27  1  0
 29 28  2  0
 30 29  1  0
 30 25  2  0
 31 32  1  0
 32 33  1  0
 33 34  2  0
 35 34  1  0
 35 39  1  0
 36 35  2  0
 37 32  2  0
 37 36  1  0
 38 37  1  0
 40 41  1  0
 41 44  1  0
 41 43  1  0
 42 40  2  0
 45 20  1  0
 45 46  1  0
 47 45  1  0
 48 49  1  0
 48  3  1  0
 50 61  2  0
 51 49  1  0
 51 56  1  0
 52 60  1  0
 52 62  1  0
 53 59  1  0
 53 55  1  0
 54 60  1  0
 55 56  2  0
 55 54  1  0
 57 51  2  0
 58 57  1  0
 58 53  2  0
 59 52  1  0
 60 50  1  0
 62 64  2  0
 63 62  1  0
 65 63  1  0
 66 75  2  0
 66 71  1  0
 67 63  1  0
 67 71  1  0
 68 67  1  0
 69 70  1  0
 69 68  1  0
 70 66  1  0
 71 72  2  0
 72 73  1  0
 74 73  2  0
 75 74  1  0
 76 50  1  0
 76 77  1  0
 76 86  1  0
 77 80  1  0
 78 82  1  0
 78 77  1  0
 79 78  2  0
 82 81  1  0
 84 82  1  0
 84 85  1  0
 84 83  1  0
 86 89  1  1
 86 87  1  0
 88 86  1  0
M  ISO  4  10 100  18 100  48 101  49 101
M  END
>  <TORSDO>  (16) 
F 17

>  <SCORE>  (16) 
-16.589

>  <name>  (16) 
16

>  <ligand_id>  (16) 
16

>  <original_smiles>  (16) 
[H]c1c([H])c([H])c2c(c1[H])C([H])([H])C([H])([H])C([H])([H])C2([H])N([H])C(=O)C1([H])N(C(=O)C([H])(N([H])C(=O)C([H])(N([H])C([H])([H])[H])C([H])([H])[H])C(C([H])([H])[H])(C([H])([H])[H])C([H])([H])[H])C([H])([H])c2c([H])c(OC([H])([H])c3c(Cl)c(N([H])C(=O)N4C([H])([H])C([H])([H])C([H])([H])C([H])(n5nc(-c6c([H])c([H])c(Oc7c([H])c([H])c(F)c([H])c7F)c([H])c6[H])c(C(=O)N([H])[H])c5N([H])[H])C4([H])[H])c(Cl)c([H])c3C([H])([H])[H])c([H])c([H])c2C1([H])[H]

>  <smiles>  (16) 
[H]c1c([H])c([H])c2c(c1[H])C([H])([H])C([H])([H])C([H])([H])C2([H])N([H])C(=O)C1([H])N(C(=O)C([H])(N([H])C(=O)C([H])(N([H])C([H])([H])[H])C([H])([H])[H])C(C([H])([H])[H])(C([H])([H])[H])C([H])([H])[H])C([H])([H])c2c([H])c(OC([H])([H])c3c(Cl)c(N([H])C(=O)N4C([H])([H])C([H])([H])C([H])([H])C([H])(n5nc(-c6c([H])c([H])c(Oc7c([H])c([H])c(F)c([H])c7F)c([H])c6[H])c(C(=O)N([H])[H])c5N([H])[H])C4([H])[H])c(Cl)c([H])c3C([H])([H])[H])c([H])c([H])c2C1([H])[H]

$$$$
17:0:0
     RDKit          3D

 86 94  0  0  1  0  0  0  0  0999 V2000
  -29.9690  -21.7210   20.4360 C   0  0  0  0  0  3  0  0  0  0  0  0
  -30.2990  -20.2040   20.4420 C   0  0  0  0  0  0  0  0  0  0  0  0
  -28.6620  -22.2660   20.2810 C   0  0  0  0  0  0  0  0  0  0  0  0
  -29.3330  -19.1670   20.2920 C   0  0  0  0  0  0  0  0  0  0  0  0
  -27.9080  -20.4800   20.1470 S   0  0  0  0  0  0  0  0  0  0  0  0
  -31.9420  -19.8120   20.6240 Cl  0  0  0  0  0  0  0  0  0  0  0  0
  -28.5150  -17.1490   18.8260 C   0  0  0  0  0  1  0  0  0  0  0  0
  -29.2570  -17.3040   20.1670 C   0  0  0  0  0  3  0  0  0  0  0  0
  -30.2220  -15.7010   20.2220 C   0  0  0  0  0  0  0  0  0  0  0  0
  -30.3800  -13.1570   19.4180 C   0  0  0  0  0  2  0  0  0  0  0  0
  -29.4830  -12.8000   18.1950 C   0  0  0  0  0  2  0  0  0  0  0  0
  -28.0520  -12.4410   18.6330 C   0  0  0  0  0  2  0  0  0  0  0  0
  -27.5410  -13.4140   19.7170 C   0  0  0  0  0  3  0  0  0  0  0  0
  -28.5720  -13.6970   20.8320 C   0  0  0  0  0  2  0  0  0  0  0  0
  -29.7640  -14.3110   20.2060 N   0  0  0  0  0  0  0  0  0  0  0  0
  -31.4570  -15.6860   20.0560 O   0  0  0  0  0  0  0  0  0  0  0  0
  -25.1710  -13.9220   20.4780 C   0  0  0  0  0  0  0  0  0  0  0  0
  -24.1210  -13.1310   20.8470 C   0  0  0  0  0  0  0  0  0  0  0  0
  -24.6110  -11.7880   20.8210 C   0  0  0  0  0  0  0  0  0  0  0  0
  -26.2270  -13.0630   20.2360 N   0  0  0  0  0  0  0  0  0  0  0  0
  -25.9050  -11.7720   20.5120 N   0  0  0  0  0  0  0  0  0  0  0  0
  -23.9010  -10.5140   21.0140 C   0  0  0  0  0  0  0  0  0  0  0  0
  -24.3330   -9.5630   21.9630 C   0  0  0  0  0  3  0  0  0  0  0  0
  -23.6190   -8.3590   22.1460 C   0  0  0  0  0  3  0  0  0  0  0  0
  -22.4580   -8.0980   21.3770 C   0  0  0  0  0  0  0  0  0  0  0  0
  -22.0470   -9.0380   20.4170 C   0  0  0  0  0  3  0  0  0  0  0  0
  -22.7620  -10.2340   20.2330 C   0  0  0  0  0  3  0  0  0  0  0  0
  -21.7190   -6.9440   21.4660 O   0  0  0  0  0  0  0  0  0  0  0  0
  -21.6550   -6.2160   22.6280 C   0  0  0  0  0  0  0  0  0  0  0  0
  -21.1550   -6.7690   23.8270 C   0  0  0  0  0  3  0  0  0  0  0  0
  -21.0450   -5.9660   24.9810 C   0  0  0  0  0  3  0  0  0  0  0  0
  -21.4220   -4.6110   24.9330 C   0  0  0  0  0  0  0  0  0  0  0  0
  -21.9140   -4.0570   23.7380 C   0  0  0  0  0  3  0  0  0  0  0  0
  -22.0260   -4.8580   22.5880 C   0  0  0  0  0  0  0  0  0  0  0  0
  -22.4810   -4.3130   21.4330 F   0  0  0  0  0  0  0  0  0  0  0  0
  -21.3090   -3.8370   26.0380 F   0  0  0  0  0  0  0  0  0  0  0  0
  -22.7150  -13.5880   21.1030 C   0  0  0  0  0  0  0  0  0  0  0  0
  -21.9940  -12.8940   21.9760 N   0  0  0  0  0  0  0  0  0  0  0  0
  -22.2650  -14.5980   20.5640 O   0  0  0  0  0  0  0  0  0  0  0  0
  -22.3730  -12.0790   22.4350 H   0  0  0  0  0  0  0  0  0  0  0  0
  -21.0510  -13.1830   22.1890 H   0  0  0  0  0  0  0  0  0  0  0  0
  -25.3110  -15.2950   20.2950 N   0  0  0  0  0  0  0  0  0  0  0  0
  -24.5290  -15.9320   20.3980 H   0  0  0  0  0  0  0  0  0  0  0  0
  -26.1490  -15.7470   19.9520 H   0  0  0  0  0  0  0  0  0  0  0  0
  -27.8150  -23.9240   20.1510 C   0  0  0  0  0  2  0  0  0  0  0  0
  -28.1570  -25.6180   20.3540 O   0  0  0  0  0  0  0  0  0  0  0  0
  -24.6910  -31.9070   23.2800 C   0  0  0  0  0  0  0  0  0  0  0  0
  -27.2070  -26.8410   20.2900 C   0  0  0  0  0  0  0  0  0  0  0  0
  -23.5030  -30.5230   21.6330 C   0  0  0  0  0  3  0  0  0  0  0  0
  -24.9490  -28.8750   20.2250 C   0  0  0  0  0  0  0  0  0  0  0  0
  -26.0830  -30.6560   21.5250 C   0  0  0  0  0  2  0  0  0  0  0  0
  -26.1440  -29.2260   20.8660 C   0  0  0  0  0  0  0  0  0  0  0  0
  -27.2590  -28.2380   20.8670 C   0  0  0  0  0  3  0  0  0  0  0  0
  -25.9800  -26.6970   19.5930 C   0  0  0  0  0  3  0  0  0  0  0  0
  -24.9050  -27.6360   19.5650 C   0  0  0  0  0  3  0  0  0  0  0  0
  -23.7470  -29.8300   20.2620 C   0  0  0  0  0  2  0  0  0  0  0  0
  -24.7830  -31.0610   22.1990 N   0  0  0  0  0  0  0  0  0  0  0  0
  -23.5970  -32.2150   23.7840 O   0  0  0  0  0  0  0  0  0  0  0  0
  -22.7750  -29.5470   22.5960 C   0  0  0  0  0  0  0  0  0  0  0  0
  -21.4440  -29.3960   22.4560 N   0  0  0  0  0  0  0  0  0  0  0  0
  -23.4190  -28.9240   23.4430 O   0  0  0  0  0  0  0  0  0  0  0  0
  -20.9740  -29.9490   21.7520 H   0  0  0  0  0  0  0  0  0  0  0  0
  -18.0480  -28.1900   22.9270 C   0  0  0  0  0  0  0  0  0  0  0  0
  -20.6060  -28.4640   23.2200 C   0  0  0  0  0  3  0  0  0  0  0  0
  -20.7150  -27.0280   22.6540 C   0  0  0  0  0  2  0  0  0  0  0  0
  -19.6270  -26.6980   21.6280 C   0  0  0  0  0  2  0  0  0  0  0  0
  -18.2370  -26.8400   22.2540 C   0  0  0  0  0  2  0  0  0  0  0  0
  -19.1600  -28.9590   23.3650 C   0  0  0  0  0  0  0  0  0  0  0  0
  -18.9260  -30.2180   23.9580 C   0  0  0  0  0  3  0  0  0  0  0  0
  -17.6160  -30.7110   24.1140 C   0  0  0  0  0  3  0  0  0  0  0  0
  -16.5200  -29.9410   23.6860 C   0  0  0  0  0  3  0  0  0  0  0  0
  -16.7370  -28.6820   23.0990 C   0  0  0  0  0  3  0  0  0  0  0  0
  -25.9570  -32.5450   23.9310 C   0  0  0  0  0  3  0  0  0  0  0  0
  -25.6480  -33.9520   24.2570 N   0  0  0  0  0  0  0  0  0  0  0  0
  -25.9760  -35.0080   23.4990 C   0  0  0  0  0  0  0  0  0  0  0  0
  -26.6280  -34.9010   22.4580 O   0  0  0  0  0  0  0  0  0  0  0  0
  -25.0660  -34.1070   25.0660 H   0  0  0  0  0  0  0  0  0  0  0  0
  -24.2440  -36.8150   23.2020 C   0  0  0  0  0  1  0  0  0  0  0  0
  -25.5120  -36.4040   23.9690 C   0  0  0  0  0  3  0  0  0  0  0  0
  -27.6730  -37.2950   24.7280 C   0  0  0  0  0  1  0  0  0  0  0  0
  -26.5430  -37.4550   23.8150 N   0  0  0  0  0  0  0  0  0  0  0  0
  -26.1430  -38.3760   23.9650 H   0  0  0  0  0  0  0  0  0  0  0  0
  -26.4300  -31.7870   25.2340 C   0  0  1  0  0  0  0  0  0  0  0  0
  -25.3100  -31.5840   26.2820 C   0  0  0  0  0  1  0  0  0  0  0  0
  -26.9990  -30.3920   24.8880 C   0  0  0  0  0  1  0  0  0  0  0  0
  -27.5790  -32.5730   25.9090 C   0  0  0  0  0  1  0  0  0  0  0  0
  1  2  1  0
  2  6  1  0
  3  1  2  0
  4  2  2  0
  5  3  1  0
  5  4  1  0
  8  7  1  0
  8  9  1  0
  8  4  1  0
 10 15  1  0
 11 12  1  0
 11 10  1  0
 13 12  1  0
 13 20  1  0
 13 14  1  0
 15  9  1  0
 15 14  1  0
 16  9  2  0
 17 18  2  0
 18 37  1  0
 19 18  1  0
 19 22  1  0
 20 17  1  0
 20 21  1  0
 21 19  2  0
 22 23  1  0
 23 24  2  0
 25 28  1  0
 25 24  1  0
 26 25  2  0
 27 26  1  0
 27 22  2  0
 28 29  1  0
 29 30  1  0
 30 31  2  0
 32 31  1  0
 32 36  1  0
 33 32  2  0
 34 29  2  0
 34 33  1  0
 35 34  1  0
 37 38  1  0
 38 41  1  0
 38 40  1  0
 39 37  2  0
 42 43  1  0
 42 17  1  0
 44 42  1  0
 45  3  1  0
 45 46  1  0
 47 58  2  0
 48 46  1  0
 48 53  1  0
 49 57  1  0
 49 59  1  0
 50 56  1  0
 50 52  1  0
 51 57  1  0
 52 53  2  0
 52 51  1  0
 54 48  2  0
 55 54  1  0
 55 50  2  0
 56 49  1  0
 57 47  1  0
 59 61  2  0
 60 59  1  0
 62 60  1  0
 63 72  2  0
 63 68  1  0
 64 60  1  0
 64 68  1  0
 65 64  1  0
 66 67  1  0
 66 65  1  0
 67 63  1  0
 68 69  2  0
 69 70  1  0
 71 70  2  0
 72 71  1  0
 73 47  1  0
 73 74  1  0
 73 83  1  0
 74 77  1  0
 75 79  1  0
 75 74  1  0
 76 75  2  0
 79 78  1  0
 81 82  1  0
 81 79  1  0
 81 80  1  0
 83 86  1  1
 83 84  1  0
 85 83  1  0
M  ISO  4   8 100   9 100  45 101  46 101
M  END
>  <TORSDO>  (17) 
F 18

>  <SCORE>  (17) 
-16.569

>  <name>  (17) 
17

>  <ligand_id>  (17) 
17

>  <original_smiles>  (17) 
[H]c1c([H])c([H])c2c(c1[H])C([H])([H])C([H])([H])C([H])([H])C2([H])N([H])C(=O)C1([H])N(C(=O)C([H])(N([H])C(=O)C([H])(N([H])C([H])([H])[H])C([H])([H])[H])C(C([H])([H])[H])(C([H])([H])[H])C([H])([H])[H])C([H])([H])c2c([H])c(OC([H])([H])c3sc(C([H])(C(=O)N4C([H])([H])C([H])([H])C([H])([H])C([H])(n5nc(-c6c([H])c([H])c(Oc7c([H])c([H])c(F)c([H])c7F)c([H])c6[H])c(C(=O)N([H])[H])c5N([H])[H])C4([H])[H])C([H])([H])[H])c(Cl)c3[H])c([H])c([H])c2C1([H])[H]

>  <smiles>  (17) 
[H]c1c([H])c([H])c2c(c1[H])C([H])([H])C([H])([H])C([H])([H])C2([H])N([H])C(=O)C1([H])N(C(=O)C([H])(N([H])C(=O)C([H])(N([H])C([H])([H])[H])C([H])([H])[H])C(C([H])([H])[H])(C([H])([H])[H])C([H])([H])[H])C([H])([H])c2c([H])c(OC([H])([H])c3sc(C([H])(C(=O)N4C([H])([H])C([H])([H])C([H])([H])C([H])(n5nc(-c6c([H])c([H])c(Oc7c([H])c([H])c(F)c([H])c7F)c([H])c6[H])c(C(=O)N([H])[H])c5N([H])[H])C4([H])[H])C([H])([H])[H])c(Cl)c3[H])c([H])c([H])c2C1([H])[H]

$$$$
18:0:0
     RDKit          3D

 93101  0  0  1  0  0  0  0  0999 V2000
  -31.6700  -23.7280   20.7570 C   0  0  0  0  0  3  0  0  0  0  0  0
  -30.6500  -24.6710   20.5380 C   0  0  0  0  0  0  0  0  0  0  0  0
  -31.4650  -22.3420   20.6180 C   0  0  0  0  0  0  0  0  0  0  0  0
  -29.3580  -24.2270   20.1550 C   0  0  0  0  0  0  0  0  0  0  0  0
  -29.1430  -22.8130   20.0170 C   0  0  0  0  0  0  0  0  0  0  0  0
  -30.1680  -21.8480   20.2740 C   0  0  0  0  0  0  0  0  0  0  0  0
  -31.0090  -26.1380   20.7060 C   0  0  0  0  0  1  0  0  0  0  0  0
  -32.7060  -21.4770   20.7860 C   0  0  0  0  0  1  0  0  0  0  0  0
  -27.7670  -22.3070   19.5800 C   0  0  0  0  0  1  0  0  0  0  0  0
  -28.1900  -25.2060   19.8550 C   0  0  0  0  0  2  0  0  0  0  0  0
  -28.3260  -26.6140   20.1740 O   0  0  0  0  0  0  0  0  0  0  0  0
  -24.5760  -31.8690   23.2480 C   0  0  0  0  0  0  0  0  0  0  0  0
  -27.1710  -27.3870   20.1420 C   0  0  0  0  0  0  0  0  0  0  0  0
  -23.3540  -30.4770   21.6140 C   0  0  0  0  0  3  0  0  0  0  0  0
  -24.7890  -28.9390   20.1740 C   0  0  0  0  0  0  0  0  0  0  0  0
  -25.8850  -30.8140   21.4020 C   0  0  0  0  0  2  0  0  0  0  0  0
  -25.9590  -29.4440   20.7550 C   0  0  0  0  0  0  0  0  0  0  0  0
  -27.1520  -28.6760   20.7340 C   0  0  0  0  0  3  0  0  0  0  0  0
  -25.9750  -26.9150   19.5460 C   0  0  0  0  0  3  0  0  0  0  0  0
  -24.7940  -27.6760   19.5660 C   0  0  0  0  0  3  0  0  0  0  0  0
  -23.5510  -29.8060   20.2310 C   0  0  0  0  0  2  0  0  0  0  0  0
  -24.6240  -31.0680   22.1450 N   0  0  0  0  0  0  0  0  0  0  0  0
  -23.4990  -32.1460   23.7930 O   0  0  0  0  0  0  0  0  0  0  0  0
  -22.7050  -29.4540   22.5760 C   0  0  0  0  0  0  0  0  0  0  0  0
  -21.3800  -29.2730   22.4520 N   0  0  0  0  0  0  0  0  0  0  0  0
  -23.3900  -28.8290   23.3890 O   0  0  0  0  0  0  0  0  0  0  0  0
  -20.8880  -29.8290   21.7670 H   0  0  0  0  0  0  0  0  0  0  0  0
  -18.0070  -28.0740   22.9560 C   0  0  0  0  0  0  0  0  0  0  0  0
  -20.5640  -28.3360   23.2260 C   0  0  0  0  0  3  0  0  0  0  0  0
  -20.6690  -26.9040   22.6540 C   0  0  0  0  0  2  0  0  0  0  0  0
  -19.5670  -26.5750   21.6420 C   0  0  0  0  0  2  0  0  0  0  0  0
  -18.1850  -26.7210   22.2860 C   0  0  0  0  0  2  0  0  0  0  0  0
  -19.1250  -28.8380   23.3840 C   0  0  0  0  0  0  0  0  0  0  0  0
  -18.9040  -30.1030   23.9690 C   0  0  0  0  0  3  0  0  0  0  0  0
  -17.6000  -30.6050   24.1330 C   0  0  0  0  0  3  0  0  0  0  0  0
  -16.4960  -29.8370   23.7210 C   0  0  0  0  0  3  0  0  0  0  0  0
  -16.7010  -28.5730   23.1390 C   0  0  0  0  0  3  0  0  0  0  0  0
  -25.8680  -32.4960   23.8580 C   0  0  0  0  0  3  0  0  0  0  0  0
  -25.5630  -33.8920   24.1990 N   0  0  0  0  0  0  0  0  0  0  0  0
  -25.8790  -34.9470   23.4360 C   0  0  0  0  0  0  0  0  0  0  0  0
  -26.5300  -34.8470   22.3930 O   0  0  0  0  0  0  0  0  0  0  0  0
  -24.9830  -34.0430   25.0110 H   0  0  0  0  0  0  0  0  0  0  0  0
  -24.1380  -36.7330   23.1230 C   0  0  0  0  0  1  0  0  0  0  0  0
  -25.3980  -36.3330   23.9060 C   0  0  0  0  0  3  0  0  0  0  0  0
  -27.5480  -37.2230   24.6890 C   0  0  0  0  0  1  0  0  0  0  0  0
  -26.4250  -37.3880   23.7700 N   0  0  0  0  0  0  0  0  0  0  0  0
  -26.0210  -38.3080   23.9270 H   0  0  0  0  0  0  0  0  0  0  0  0
  -26.3970  -31.7150   25.1240 C   0  0  1  0  0  0  0  0  0  0  0  0
  -25.3150  -31.4710   26.2000 C   0  0  0  0  0  1  0  0  0  0  0  0
  -26.9750  -30.3390   24.7150 C   0  0  0  0  0  1  0  0  0  0  0  0
  -27.5560  -32.5040   25.7780 C   0  0  0  0  0  1  0  0  0  0  0  0
  -29.8150  -20.5010   20.1140 O   0  0  0  0  0  0  0  0  0  0  0  0
  -30.5000  -19.4260   20.7850 C   0  0  0  0  0  2  0  0  0  0  0  0
  -29.7920  -18.0440   20.6410 C   0  0  0  0  0  2  0  0  0  0  0  0
  -30.5650  -16.8830   21.3450 C   0  0  0  0  0  2  0  0  0  0  0  0
  -30.6890  -14.4980   20.5220 C   0  0  0  0  0  0  0  0  0  0  0  0
  -30.3910  -12.3320   19.3730 C   0  0  0  0  0  2  0  0  0  0  0  0
  -29.4650  -12.5210   18.1550 C   0  0  0  0  0  2  0  0  0  0  0  0
  -27.9870  -12.3810   18.5660 C   0  0  0  0  0  2  0  0  0  0  0  0
  -27.6320  -13.2230   19.8220 C   0  0  0  0  0  3  0  0  0  0  0  0
  -28.6770  -13.0230   20.9440 C   0  0  0  0  0  2  0  0  0  0  0  0
  -30.0030  -13.3270   20.3850 N   0  0  0  0  0  0  0  0  0  0  0  0
  -31.8150  -14.6630   20.0440 O   0  0  0  0  0  0  0  0  0  0  0  0
  -30.0290  -15.5210   21.1040 N   0  0  0  0  0  0  0  0  0  0  0  0
  -29.1010  -15.3180   21.4460 H   0  0  0  0  0  0  0  0  0  0  0  0
  -25.2230  -13.8240   20.5000 C   0  0  0  0  0  0  0  0  0  0  0  0
  -24.1530  -13.0510   20.8620 C   0  0  0  0  0  0  0  0  0  0  0  0
  -24.6200  -11.7000   20.8480 C   0  0  0  0  0  0  0  0  0  0  0  0
  -26.2740  -12.9450   20.2890 N   0  0  0  0  0  0  0  0  0  0  0  0
  -25.9130  -11.6640   20.5560 N   0  0  0  0  0  0  0  0  0  0  0  0
  -23.8950  -10.4370   21.0400 C   0  0  0  0  0  0  0  0  0  0  0  0
  -24.3300   -9.4700   21.9750 C   0  0  0  0  0  3  0  0  0  0  0  0
  -23.6050   -8.2730   22.1560 C   0  0  0  0  0  3  0  0  0  0  0  0
  -22.4320   -8.0320   21.4020 C   0  0  0  0  0  0  0  0  0  0  0  0
  -22.0170   -8.9870   20.4580 C   0  0  0  0  0  3  0  0  0  0  0  0
  -22.7430  -10.1760   20.2740 C   0  0  0  0  0  3  0  0  0  0  0  0
  -21.6800   -6.8860   21.4900 O   0  0  0  0  0  0  0  0  0  0  0  0
  -21.6430   -6.1360   22.6390 C   0  0  0  0  0  0  0  0  0  0  0  0
  -21.2300   -6.6840   23.8740 C   0  0  0  0  0  3  0  0  0  0  0  0
  -21.1370   -5.8610   25.0130 C   0  0  0  0  0  3  0  0  0  0  0  0
  -21.4510   -4.4920   24.9220 C   0  0  0  0  0  0  0  0  0  0  0  0
  -21.8590   -3.9440   23.6940 C   0  0  0  0  0  3  0  0  0  0  0  0
  -21.9510   -4.7640   22.5550 C   0  0  0  0  0  0  0  0  0  0  0  0
  -22.3220   -4.2260   21.3680 F   0  0  0  0  0  0  0  0  0  0  0  0
  -21.3560   -3.6990   26.0150 F   0  0  0  0  0  0  0  0  0  0  0  0
  -22.7510  -13.5250   21.1130 C   0  0  0  0  0  0  0  0  0  0  0  0
  -22.0150  -12.8350   21.9770 N   0  0  0  0  0  0  0  0  0  0  0  0
  -22.3140  -14.5440   20.5790 O   0  0  0  0  0  0  0  0  0  0  0  0
  -22.3810  -12.0110   22.4320 H   0  0  0  0  0  0  0  0  0  0  0  0
  -21.0750  -13.1350   22.1880 H   0  0  0  0  0  0  0  0  0  0  0  0
  -25.3870  -15.1930   20.3120 N   0  0  0  0  0  0  0  0  0  0  0  0
  -24.6200  -15.8510   20.4020 H   0  0  0  0  0  0  0  0  0  0  0  0
  -26.2430  -15.6290   19.9900 H   0  0  0  0  0  0  0  0  0  0  0  0
  2  7  1  0
  2  1  2  0
  3  1  1  0
  3  8  1  0
  4  2  1  0
  5  4  2  0
  5  6  1  0
  6  3  2  0
  9  5  1  0
 10  4  1  0
 10 11  1  0
 12 23  2  0
 13 11  1  0
 13 18  1  0
 14 22  1  0
 14 24  1  0
 15 21  1  0
 15 17  1  0
 16 22  1  0
 17 16  1  0
 18 17  2  0
 19 20  1  0
 19 13  2  0
 20 15  2  0
 21 14  1  0
 22 12  1  0
 24 26  2  0
 25 24  1  0
 27 25  1  0
 28 37  2  0
 28 33  1  0
 29 25  1  0
 29 33  1  0
 30 29  1  0
 31 32  1  0
 31 30  1  0
 32 28  1  0
 33 34  2  0
 34 35  1  0
 36 35  2  0
 37 36  1  0
 38 12  1  0
 38 39  1  0
 38 48  1  0
 39 42  1  0
 40 44  1  0
 40 39  1  0
 41 40  2  0
 44 43  1  0
 46 44  1  0
 46 47  1  0
 46 45  1  0
 48 51  1  1
 48 49  1  0
 50 48  1  0
 52  6  1  0
 52 53  1  0
 54 53  1  0
 54 55  1  0
 56 64  1  0
 57 62  1  0
 58 59  1  0
 58 57  1  0
 60 59  1  0
 60 69  1  0
 60 61  1  0
 62 56  1  0
 62 61  1  0
 63 56  2  0
 64 55  1  0
 64 65  1  0
 66 67  2  0
 67 86  1  0
 68 67  1  0
 68 71  1  0
 69 66  1  0
 69 70  1  0
 70 68  2  0
 71 72  1  0
 72 73  2  0
 74 77  1  0
 74 73  1  0
 75 74  2  0
 76 75  1  0
 76 71  2  0
 77 78  1  0
 78 79  1  0
 79 80  2  0
 81 80  1  0
 81 85  1  0
 82 81  2  0
 83 78  2  0
 83 82  1  0
 84 83  1  0
 86 87  1  0
 87 90  1  0
 87 89  1  0
 88 86  2  0
 91 92  1  0
 91 66  1  0
 93 91  1  0
M  ISO  4  10 101  11 101  56 100  64 100
M  END
>  <TORSDO>  (18) 
F 21

>  <SCORE>  (18) 
-13.512

>  <name>  (18) 
18

>  <ligand_id>  (18) 
18

>  <original_smiles>  (18) 
[H]c1c([H])c([H])c2c(c1[H])C([H])([H])C([H])([H])C([H])([H])C2([H])N([H])C(=O)C1([H])N(C(=O)C([H])(N([H])C(=O)C([H])(N([H])C([H])([H])[H])C([H])([H])[H])C(C([H])([H])[H])(C([H])([H])[H])C([H])([H])[H])C([H])([H])c2c([H])c(OC([H])([H])c3c(C([H])([H])[H])c([H])c(C([H])([H])[H])c(OC([H])([H])C([H])([H])C([H])([H])N([H])C(=O)N4C([H])([H])C([H])([H])C([H])([H])C([H])(n5nc(-c6c([H])c([H])c(Oc7c([H])c([H])c(F)c([H])c7F)c([H])c6[H])c(C(=O)N([H])[H])c5N([H])[H])C4([H])[H])c3C([H])([H])[H])c([H])c([H])c2C1([H])[H]

>  <smiles>  (18) 
[H]c1c([H])c([H])c2c(c1[H])C([H])([H])C([H])([H])C([H])([H])C2([H])N([H])C(=O)C1([H])N(C(=O)C([H])(N([H])C(=O)C([H])(N([H])C([H])([H])[H])C([H])([H])[H])C(C([H])([H])[H])(C([H])([H])[H])C([H])([H])[H])C([H])([H])c2c([H])c(OC([H])([H])c3c(C([H])([H])[H])c([H])c(C([H])([H])[H])c(OC([H])([H])C([H])([H])C([H])([H])N([H])C(=O)N4C([H])([H])C([H])([H])C([H])([H])C([H])(n5nc(-c6c([H])c([H])c(Oc7c([H])c([H])c(F)c([H])c7F)c([H])c6[H])c(C(=O)N([H])[H])c5N([H])[H])C4([H])[H])c3C([H])([H])[H])c([H])c([H])c2C1([H])[H]

$$$$
19:0:0
     RDKit          3D

 89 97  0  0  1  0  0  0  0  0999 V2000
  -29.1460  -22.6700   21.6560 C   0  0  0  0  0  3  0  0  0  0  0  0
  -29.6830  -21.4990   22.2610 C   0  0  0  0  0  3  0  0  0  0  0  0
  -28.6970  -22.7140   20.3210 C   0  0  0  0  0  0  0  0  0  0  0  0
  -29.4940  -19.9950   20.2760 C   0  0  0  0  0  0  0  0  0  0  0  0
  -29.8500  -20.2350   21.6260 C   0  0  0  0  0  0  0  0  0  0  0  0
  -28.9070  -21.3100   19.6740 C   0  0  0  0  0  0  0  0  0  0  0  0
  -30.5540  -18.9660   22.5640 Cl  0  0  0  0  0  0  0  0  0  0  0  0
  -28.4070  -21.1910   18.0260 Cl  0  0  0  0  0  0  0  0  0  0  0  0
  -29.9130  -18.4110   19.5870 C   0  0  0  0  0  2  0  0  0  0  0  0
  -30.5970  -15.4950   19.8170 C   0  0  0  0  0  0  0  0  0  0  0  0
  -30.5630  -13.0350   18.9470 C   0  0  0  0  0  2  0  0  0  0  0  0
  -29.5810  -12.8110   17.7670 C   0  0  0  0  0  2  0  0  0  0  0  0
  -28.1650  -12.5100   18.2860 C   0  0  0  0  0  2  0  0  0  0  0  0
  -27.7660  -13.4600   19.4430 C   0  0  0  0  0  3  0  0  0  0  0  0
  -28.8720  -13.6290   20.5070 C   0  0  0  0  0  2  0  0  0  0  0  0
  -30.0540  -14.1700   19.8130 N   0  0  0  0  0  0  0  0  0  0  0  0
  -31.7850  -15.5020   19.4580 O   0  0  0  0  0  0  0  0  0  0  0  0
  -29.8380  -16.7710   20.0210 N   0  0  0  0  0  0  0  0  0  0  0  0
  -28.9210  -16.5520   20.3820 H   0  0  0  0  0  0  0  0  0  0  0  0
  -25.4450  -13.9780   20.3560 C   0  0  0  0  0  0  0  0  0  0  0  0
  -24.4130  -13.1850   20.7710 C   0  0  0  0  0  0  0  0  0  0  0  0
  -24.8850  -11.8390   20.6780 C   0  0  0  0  0  0  0  0  0  0  0  0
  -26.4750  -13.1170   20.0250 N   0  0  0  0  0  0  0  0  0  0  0  0
  -26.1550  -11.8220   20.2860 N   0  0  0  0  0  0  0  0  0  0  0  0
  -24.1770  -10.5670   20.8800 C   0  0  0  0  0  0  0  0  0  0  0  0
  -24.5710   -9.6520   21.8810 C   0  0  0  0  0  3  0  0  0  0  0  0
  -23.8590   -8.4480   22.0700 C   0  0  0  0  0  3  0  0  0  0  0  0
  -22.7380   -8.1510   21.2580 C   0  0  0  0  0  0  0  0  0  0  0  0
  -22.3630   -9.0550   20.2500 C   0  0  0  0  0  3  0  0  0  0  0  0
  -23.0770  -10.2490   20.0590 C   0  0  0  0  0  3  0  0  0  0  0  0
  -22.0020   -6.9940   21.3540 O   0  0  0  0  0  0  0  0  0  0  0  0
  -21.7670   -6.3870   22.5620 C   0  0  0  0  0  0  0  0  0  0  0  0
  -21.0750   -7.0440   23.6030 C   0  0  0  0  0  3  0  0  0  0  0  0
  -20.7940   -6.3590   24.8020 C   0  0  0  0  0  3  0  0  0  0  0  0
  -21.1930   -5.0190   24.9590 C   0  0  0  0  0  0  0  0  0  0  0  0
  -21.8770   -4.3620   23.9210 C   0  0  0  0  0  3  0  0  0  0  0  0
  -22.1590   -5.0440   22.7250 C   0  0  0  0  0  0  0  0  0  0  0  0
  -22.8000   -4.3990   21.7200 F   0  0  0  0  0  0  0  0  0  0  0  0
  -20.9180   -4.3590   26.1080 F   0  0  0  0  0  0  0  0  0  0  0  0
  -23.0320  -13.6460   21.1340 C   0  0  0  0  0  0  0  0  0  0  0  0
  -22.3690  -12.9400   22.0430 N   0  0  0  0  0  0  0  0  0  0  0  0
  -22.5530  -14.6690   20.6460 O   0  0  0  0  0  0  0  0  0  0  0  0
  -22.7740  -12.1140   22.4590 H   0  0  0  0  0  0  0  0  0  0  0  0
  -21.4450  -13.2300   22.3280 H   0  0  0  0  0  0  0  0  0  0  0  0
  -25.5850  -15.3540   20.2000 N   0  0  0  0  0  0  0  0  0  0  0  0
  -24.8170  -15.9930   20.3710 H   0  0  0  0  0  0  0  0  0  0  0  0
  -26.3920  -15.8070   19.7900 H   0  0  0  0  0  0  0  0  0  0  0  0
  -27.8970  -24.2110   19.8120 C   0  0  0  0  0  2  0  0  0  0  0  0
  -28.0900  -25.8370   20.1480 O   0  0  0  0  0  0  0  0  0  0  0  0
  -24.6940  -31.9280   23.1200 C   0  0  0  0  0  0  0  0  0  0  0  0
  -27.1060  -26.9730   20.0560 C   0  0  0  0  0  0  0  0  0  0  0  0
  -23.4340  -30.5260   21.5370 C   0  0  0  0  0  3  0  0  0  0  0  0
  -24.8230  -28.8960   20.0720 C   0  0  0  0  0  0  0  0  0  0  0  0
  -25.9970  -30.7060   21.3030 C   0  0  0  0  0  2  0  0  0  0  0  0
  -26.0330  -29.2870   20.6550 C   0  0  0  0  0  0  0  0  0  0  0  0
  -27.1640  -28.3460   20.6260 C   0  0  0  0  0  3  0  0  0  0  0  0
  -25.8680  -26.7520   19.4070 C   0  0  0  0  0  3  0  0  0  0  0  0
  -24.7670  -27.6510   19.4250 C   0  0  0  0  0  3  0  0  0  0  0  0
  -23.6120  -29.8280   20.1580 C   0  0  0  0  0  2  0  0  0  0  0  0
  -24.7330  -31.0810   22.0390 N   0  0  0  0  0  0  0  0  0  0  0  0
  -23.6250  -32.2300   23.6760 O   0  0  0  0  0  0  0  0  0  0  0  0
  -22.7660  -29.5450   22.5370 C   0  0  0  0  0  0  0  0  0  0  0  0
  -21.4410  -29.3380   22.4180 N   0  0  0  0  0  0  0  0  0  0  0  0
  -23.4470  -28.9690   23.3880 O   0  0  0  0  0  0  0  0  0  0  0  0
  -20.9410  -29.8540   21.7060 H   0  0  0  0  0  0  0  0  0  0  0  0
  -18.1110  -27.9790   22.9110 C   0  0  0  0  0  0  0  0  0  0  0  0
  -20.6460  -28.4030   23.2220 C   0  0  0  0  0  3  0  0  0  0  0  0
  -20.8400  -26.9480   22.7340 C   0  0  0  0  0  2  0  0  0  0  0  0
  -19.7860  -26.5080   21.7130 C   0  0  0  0  0  2  0  0  0  0  0  0
  -18.3820  -26.6070   22.3140 C   0  0  0  0  0  2  0  0  0  0  0  0
  -19.1750  -28.8280   23.3230 C   0  0  0  0  0  0  0  0  0  0  0  0
  -18.8680  -30.1030   23.8430 C   0  0  0  0  0  3  0  0  0  0  0  0
  -17.5320  -30.5330   23.9550 C   0  0  0  0  0  3  0  0  0  0  0  0
  -16.4840  -29.6850   23.5590 C   0  0  0  0  0  3  0  0  0  0  0  0
  -16.7750  -28.4090   23.0420 C   0  0  0  0  0  3  0  0  0  0  0  0
  -25.9900  -32.5690   23.7020 C   0  0  0  0  0  3  0  0  0  0  0  0
  -25.6710  -33.9500   24.1080 N   0  0  0  0  0  0  0  0  0  0  0  0
  -25.9490  -35.0470   23.3910 C   0  0  0  0  0  0  0  0  0  0  0  0
  -26.5640  -35.0040   22.3230 O   0  0  0  0  0  0  0  0  0  0  0  0
  -25.1160  -34.0550   24.9440 H   0  0  0  0  0  0  0  0  0  0  0  0
  -24.1950  -36.8470   23.2140 C   0  0  0  0  0  1  0  0  0  0  0  0
  -25.4760  -36.4070   23.9440 C   0  0  0  0  0  3  0  0  0  0  0  0
  -27.6310  -37.2800   24.7350 C   0  0  0  0  0  1  0  0  0  0  0  0
  -26.4940  -37.4760   23.8400 N   0  0  0  0  0  0  0  0  0  0  0  0
  -26.0850  -38.3840   24.0400 H   0  0  0  0  0  0  0  0  0  0  0  0
  -26.5790  -31.7680   24.9290 C   0  0  1  0  0  0  0  0  0  0  0  0
  -25.5350  -31.4500   26.0250 C   0  0  0  0  0  1  0  0  0  0  0  0
  -27.1970  -30.4280   24.4700 C   0  0  0  0  0  1  0  0  0  0  0  0
  -27.7250  -32.5780   25.5810 C   0  0  0  0  0  1  0  0  0  0  0  0
  1  2  1  0
  3  1  2  0
  4  5  1  0
  5  2  2  0
  5  7  1  0
  6  4  2  0
  6  3  1  0
  8  6  1  0
  9 18  1  0
  9  4  1  0
 10 18  1  0
 11 16  1  0
 12 13  1  0
 12 11  1  0
 14 13  1  0
 14 23  1  0
 14 15  1  0
 16 10  1  0
 16 15  1  0
 17 10  2  0
 18 19  1  0
 20 21  2  0
 21 40  1  0
 22 21  1  0
 22 25  1  0
 23 24  1  0
 23 20  1  0
 24 22  2  0
 25 26  1  0
 26 27  2  0
 28 31  1  0
 28 27  1  0
 29 28  2  0
 30 29  1  0
 30 25  2  0
 31 32  1  0
 32 37  2  0
 32 33  1  0
 33 34  2  0
 34 35  1  0
 35 39  1  0
 36 35  2  0
 37 36  1  0
 38 37  1  0
 40 41  1  0
 41 44  1  0
 41 43  1  0
 42 40  2  0
 45 20  1  0
 45 46  1  0
 47 45  1  0
 48 49  1  0
 48  3  1  0
 50 61  2  0
 51 49  1  0
 51 56  1  0
 52 60  1  0
 52 62  1  0
 53 59  1  0
 53 55  1  0
 54 60  1  0
 55 54  1  0
 56 55  2  0
 57 58  1  0
 57 51  2  0
 58 53  2  0
 59 52  1  0
 60 50  1  0
 62 64  2  0
 63 62  1  0
 65 63  1  0
 66 75  2  0
 66 71  1  0
 67 63  1  0
 67 71  1  0
 68 67  1  0
 69 70  1  0
 69 68  1  0
 70 66  1  0
 71 72  2  0
 72 73  1  0
 74 73  2  0
 75 74  1  0
 76 50  1  0
 76 77  1  0
 76 86  1  0
 77 80  1  0
 78 82  1  0
 78 77  1  0
 79 78  2  0
 82 81  1  0
 84 82  1  0
 84 85  1  0
 84 83  1  0
 86 89  1  1
 86 87  1  0
 88 86  1  0
M  ISO  4  10 100  18 100  48 101  49 101
M  END
>  <TORSDO>  (19) 
F 18

>  <SCORE>  (19) 
-15.735

>  <name>  (19) 
19

>  <ligand_id>  (19) 
19

>  <original_smiles>  (19) 
[H]c1c([H])c([H])c2c(c1[H])C([H])([H])C([H])([H])C([H])([H])C2([H])N([H])C(=O)C1([H])N(C(=O)C([H])(N([H])C(=O)C([H])(N([H])C([H])([H])[H])C([H])([H])[H])C(C([H])([H])[H])(C([H])([H])[H])C([H])([H])[H])C([H])([H])c2c([H])c(OC([H])([H])c3c([H])c([H])c(Cl)c(C([H])([H])N([H])C(=O)N4C([H])([H])C([H])([H])C([H])([H])C([H])(n5nc(-c6c([H])c([H])c(Oc7c([H])c([H])c(F)c([H])c7F)c([H])c6[H])c(C(=O)N([H])[H])c5N([H])[H])C4([H])[H])c3Cl)c([H])c([H])c2C1([H])[H]

>  <smiles>  (19) 
[H]c1c([H])c([H])c2c(c1[H])C([H])([H])C([H])([H])C([H])([H])C2([H])N([H])C(=O)C1([H])N(C(=O)C([H])(N([H])C(=O)C([H])(N([H])C([H])([H])[H])C([H])([H])[H])C(C([H])([H])[H])(C([H])([H])[H])C([H])([H])[H])C([H])([H])c2c([H])c(OC([H])([H])c3c([H])c([H])c(Cl)c(C([H])([H])N([H])C(=O)N4C([H])([H])C([H])([H])C([H])([H])C([H])(n5nc(-c6c([H])c([H])c(Oc7c([H])c([H])c(F)c([H])c7F)c([H])c6[H])c(C(=O)N([H])[H])c5N([H])[H])C4([H])[H])c3Cl)c([H])c([H])c2C1([H])[H]

$$$$
20:0:0
     RDKit          3D

 90 98  0  0  1  0  0  0  0  0999 V2000
  -30.9640  -20.0170   21.9800 C   0  0  0  0  0  3  0  0  0  0  0  0
  -30.3190  -21.1880   21.4970 C   0  0  0  0  0  0  0  0  0  0  0  0
  -30.7460  -18.6790   21.5470 C   0  0  0  0  0  0  0  0  0  0  0  0
  -29.3270  -21.1500   20.4800 C   0  0  0  0  0  0  0  0  0  0  0  0
  -29.8210  -18.3530   20.5120 C   0  0  0  0  0  0  0  0  0  0  0  0
  -29.1320  -19.6670   20.0210 C   0  0  0  0  0  0  0  0  0  0  0  0
  -30.7860  -22.5060   22.1030 C   0  0  0  0  0  1  0  0  0  0  0  0
  -31.5400  -17.6040   22.2790 C   0  0  0  0  0  1  0  0  0  0  0  0
  -28.0020  -19.4440   18.7360 Cl  0  0  0  0  0  0  0  0  0  0  0  0
  -30.3530  -15.4640   20.0760 C   0  0  0  0  0  0  0  0  0  0  0  0
  -30.3050  -13.0430   19.1040 C   0  0  0  0  0  2  0  0  0  0  0  0
  -29.3270  -12.8040   17.9220 C   0  0  0  0  0  2  0  0  0  0  0  0
  -27.9140  -12.4830   18.4340 C   0  0  0  0  0  2  0  0  0  0  0  0
  -27.4920  -13.4330   19.5800 C   0  0  0  0  0  3  0  0  0  0  0  0
  -28.5880  -13.5990   20.6540 C   0  0  0  0  0  2  0  0  0  0  0  0
  -29.7690  -14.1610   19.9690 N   0  0  0  0  0  0  0  0  0  0  0  0
  -31.5690  -15.4310   19.8390 O   0  0  0  0  0  0  0  0  0  0  0  0
  -29.6030  -16.7610   20.1670 N   0  0  0  0  0  0  0  0  0  0  0  0
  -28.6260  -16.5720   20.0100 H   0  0  0  0  0  0  0  0  0  0  0  0
  -25.1410  -13.9430   20.4250 C   0  0  0  0  0  0  0  0  0  0  0  0
  -24.1070  -13.1460   20.8260 C   0  0  0  0  0  0  0  0  0  0  0  0
  -24.5920  -11.8030   20.7660 C   0  0  0  0  0  0  0  0  0  0  0  0
  -26.1910  -13.0880   20.1410 N   0  0  0  0  0  0  0  0  0  0  0  0
  -25.8740  -11.7940   20.4110 N   0  0  0  0  0  0  0  0  0  0  0  0
  -23.8920  -10.5280   20.9660 C   0  0  0  0  0  0  0  0  0  0  0  0
  -24.3580   -9.5690   21.8930 C   0  0  0  0  0  3  0  0  0  0  0  0
  -23.6570   -8.3600   22.0870 C   0  0  0  0  0  3  0  0  0  0  0  0
  -22.4760   -8.0990   21.3520 C   0  0  0  0  0  0  0  0  0  0  0  0
  -22.0260   -9.0480   20.4180 C   0  0  0  0  0  3  0  0  0  0  0  0
  -22.7270  -10.2490   20.2230 C   0  0  0  0  0  3  0  0  0  0  0  0
  -21.7440   -6.9410   21.4550 O   0  0  0  0  0  0  0  0  0  0  0  0
  -21.7180   -6.2040   22.6110 C   0  0  0  0  0  0  0  0  0  0  0  0
  -21.2830   -6.7580   23.8350 C   0  0  0  0  0  3  0  0  0  0  0  0
  -21.2090   -5.9480   24.9870 C   0  0  0  0  0  3  0  0  0  0  0  0
  -21.5560   -4.5850   24.9150 C   0  0  0  0  0  0  0  0  0  0  0  0
  -21.9830   -4.0320   23.6960 C   0  0  0  0  0  3  0  0  0  0  0  0
  -22.0610   -4.8380   22.5470 C   0  0  0  0  0  0  0  0  0  0  0  0
  -22.4530   -4.2940   21.3690 F   0  0  0  0  0  0  0  0  0  0  0  0
  -21.4760   -3.8070   26.0200 F   0  0  0  0  0  0  0  0  0  0  0  0
  -22.7120  -13.5970   21.1460 C   0  0  0  0  0  0  0  0  0  0  0  0
  -22.0210  -12.8820   22.0260 N   0  0  0  0  0  0  0  0  0  0  0  0
  -22.2440  -14.6220   20.6490 O   0  0  0  0  0  0  0  0  0  0  0  0
  -22.4150  -12.0550   22.4520 H   0  0  0  0  0  0  0  0  0  0  0  0
  -21.0850  -13.1640   22.2820 H   0  0  0  0  0  0  0  0  0  0  0  0
  -25.2700  -15.3180   20.2480 N   0  0  0  0  0  0  0  0  0  0  0  0
  -24.4850  -15.9490   20.3740 H   0  0  0  0  0  0  0  0  0  0  0  0
  -26.0880  -15.7710   19.8670 H   0  0  0  0  0  0  0  0  0  0  0  0
  -28.7600  -22.7290   19.8880 C   0  0  0  0  0  2  0  0  0  0  0  0
  -28.2400  -24.3330   20.6110 C   0  0  0  0  0  2  0  0  0  0  0  0
  -28.2890  -25.9660   20.2460 O   0  0  0  0  0  0  0  0  0  0  0  0
  -24.6500  -31.9450   23.2470 C   0  0  0  0  0  0  0  0  0  0  0  0
  -27.2350  -27.0330   20.2790 C   0  0  0  0  0  0  0  0  0  0  0  0
  -23.4610  -30.5340   21.6140 C   0  0  0  0  0  3  0  0  0  0  0  0
  -24.9160  -28.9120   20.2180 C   0  0  0  0  0  0  0  0  0  0  0  0
  -26.0270  -30.7500   21.4710 C   0  0  0  0  0  2  0  0  0  0  0  0
  -26.1060  -29.3300   20.8300 C   0  0  0  0  0  0  0  0  0  0  0  0
  -27.2570  -28.4140   20.8280 C   0  0  0  0  0  3  0  0  0  0  0  0
  -26.0100  -26.7690   19.6270 C   0  0  0  0  0  3  0  0  0  0  0  0
  -24.8940  -27.6500   19.6000 C   0  0  0  0  0  3  0  0  0  0  0  0
  -23.6980  -29.8350   20.2470 C   0  0  0  0  0  2  0  0  0  0  0  0
  -24.7330  -31.1060   22.1620 N   0  0  0  0  0  0  0  0  0  0  0  0
  -23.5600  -32.2360   23.7630 O   0  0  0  0  0  0  0  0  0  0  0  0
  -22.7670  -29.5460   22.5870 C   0  0  0  0  0  0  0  0  0  0  0  0
  -21.4380  -29.3720   22.4570 N   0  0  0  0  0  0  0  0  0  0  0  0
  -23.4320  -28.9330   23.4250 O   0  0  0  0  0  0  0  0  0  0  0  0
  -20.9540  -29.9180   21.7580 H   0  0  0  0  0  0  0  0  0  0  0  0
  -18.0630  -28.1270   22.9520 C   0  0  0  0  0  0  0  0  0  0  0  0
  -20.6190  -28.4310   23.2320 C   0  0  0  0  0  3  0  0  0  0  0  0
  -20.7420  -26.9930   22.6770 C   0  0  0  0  0  2  0  0  0  0  0  0
  -19.6530  -26.6440   21.6580 C   0  0  0  0  0  2  0  0  0  0  0  0
  -18.2640  -26.7740   22.2880 C   0  0  0  0  0  2  0  0  0  0  0  0
  -19.1690  -28.9110   23.3800 C   0  0  0  0  0  0  0  0  0  0  0  0
  -18.9250  -30.1730   23.9640 C   0  0  0  0  0  3  0  0  0  0  0  0
  -17.6120  -30.6540   24.1200 C   0  0  0  0  0  3  0  0  0  0  0  0
  -16.5220  -29.8680   23.7050 C   0  0  0  0  0  3  0  0  0  0  0  0
  -16.7490  -28.6070   23.1280 C   0  0  0  0  0  3  0  0  0  0  0  0
  -25.9170  -32.5960   23.8790 C   0  0  0  0  0  3  0  0  0  0  0  0
  -25.5940  -34.0000   24.1940 N   0  0  0  0  0  0  0  0  0  0  0  0
  -25.9270  -35.0530   23.4380 C   0  0  0  0  0  0  0  0  0  0  0  0
  -26.6010  -34.9480   22.4100 O   0  0  0  0  0  0  0  0  0  0  0  0
  -24.9900  -34.1520   24.9880 H   0  0  0  0  0  0  0  0  0  0  0  0
  -24.1970  -36.8510   23.0890 C   0  0  0  0  0  1  0  0  0  0  0  0
  -25.4400  -36.4450   23.8960 C   0  0  0  0  0  3  0  0  0  0  0  0
  -27.5740  -37.3420   24.7190 C   0  0  0  0  0  1  0  0  0  0  0  0
  -26.4680  -37.5010   23.7770 N   0  0  0  0  0  0  0  0  0  0  0  0
  -26.0590  -38.4190   23.9220 H   0  0  0  0  0  0  0  0  0  0  0  0
  -26.4150  -31.8500   25.1780 C   0  0  1  0  0  0  0  0  0  0  0  0
  -25.3060  -31.6290   26.2350 C   0  0  0  0  0  1  0  0  0  0  0  0
  -27.0050  -30.4650   24.8290 C   0  0  0  0  0  1  0  0  0  0  0  0
  -27.5520  -32.6630   25.8420 C   0  0  0  0  0  1  0  0  0  0  0  0
  2  1  2  0
  2  7  1  0
  3  1  1  0
  3  8  1  0
  4  2  1  0
  5  3  2  0
  6  4  2  0
  6  5  1  0
  9  6  1  0
 10 18  1  0
 11 16  1  0
 12 13  1  0
 12 11  1  0
 14 13  1  0
 14 23  1  0
 14 15  1  0
 16 10  1  0
 16 15  1  0
 17 10  2  0
 18  5  1  0
 19 18  1  0
 20 21  2  0
 21 40  1  0
 22 21  1  0
 22 25  1  0
 23 24  1  0
 23 20  1  0
 24 22  2  0
 25 26  1  0
 26 27  2  0
 28 31  1  0
 28 27  1  0
 29 28  2  0
 30 29  1  0
 30 25  2  0
 31 32  1  0
 32 33  1  0
 33 34  2  0
 35 34  1  0
 35 39  1  0
 36 35  2  0
 37 32  2  0
 37 36  1  0
 38 37  1  0
 40 41  1  0
 41 44  1  0
 41 43  1  0
 42 40  2  0
 45 46  1  0
 45 20  1  0
 47 45  1  0
 48  4  1  0
 48 49  1  0
 50 52  1  0
 50 49  1  0
 51 62  2  0
 52 57  1  0
 53 61  1  0
 53 63  1  0
 54 60  1  0
 54 56  1  0
 55 61  1  0
 56 55  1  0
 57 56  2  0
 58 52  2  0
 59 58  1  0
 59 54  2  0
 60 53  1  0
 61 51  1  0
 63 65  2  0
 64 63  1  0
 66 64  1  0
 67 76  2  0
 67 72  1  0
 68 64  1  0
 68 72  1  0
 69 68  1  0
 70 71  1  0
 70 69  1  0
 71 67  1  0
 72 73  2  0
 73 74  1  0
 75 74  2  0
 76 75  1  0
 77 51  1  0
 77 78  1  0
 77 87  1  0
 78 81  1  0
 79 83  1  0
 79 78  1  0
 80 79  2  0
 83 82  1  0
 85 83  1  0
 85 86  1  0
 85 84  1  0
 87 90  1  1
 87 88  1  0
 89 87  1  0
M  ISO  4  10 100  18 100  49 101  50 101
M  END
>  <TORSDO>  (20) 
F 18

>  <SCORE>  (20) 
-16.018

>  <name>  (20) 
20

>  <ligand_id>  (20) 
20

>  <original_smiles>  (20) 
[H]c1c([H])c([H])c2c(c1[H])C([H])([H])C([H])([H])C([H])([H])C2([H])N([H])C(=O)C1([H])N(C(=O)C([H])(N([H])C(=O)C([H])(N([H])C([H])([H])[H])C([H])([H])[H])C(C([H])([H])[H])(C([H])([H])[H])C([H])([H])[H])C([H])([H])c2c([H])c(OC([H])([H])C([H])([H])c3c(Cl)c(N([H])C(=O)N4C([H])([H])C([H])([H])C([H])([H])C([H])(n5nc(-c6c([H])c([H])c(Oc7c([H])c([H])c(F)c([H])c7F)c([H])c6[H])c(C(=O)N([H])[H])c5N([H])[H])C4([H])[H])c(C([H])([H])[H])c([H])c3C([H])([H])[H])c([H])c([H])c2C1([H])[H]

>  <smiles>  (20) 
[H]c1c([H])c([H])c2c(c1[H])C([H])([H])C([H])([H])C([H])([H])C2([H])N([H])C(=O)C1([H])N(C(=O)C([H])(N([H])C(=O)C([H])(N([H])C([H])([H])[H])C([H])([H])[H])C(C([H])([H])[H])(C([H])([H])[H])C([H])([H])[H])C([H])([H])c2c([H])c(OC([H])([H])C([H])([H])c3c(Cl)c(N([H])C(=O)N4C([H])([H])C([H])([H])C([H])([H])C([H])(n5nc(-c6c([H])c([H])c(Oc7c([H])c([H])c(F)c([H])c7F)c([H])c6[H])c(C(=O)N([H])[H])c5N([H])[H])C4([H])[H])c(C([H])([H])[H])c([H])c3C([H])([H])[H])c([H])c([H])c2C1([H])[H]

$$$$
21:0:0
     RDKit          3D

 88 96  0  0  1  0  0  0  0  0999 V2000
  -28.3880  -21.1110   19.1100 C   0  0  0  0  0  3  0  0  0  0  0  0
  -29.6200  -19.8450   21.1290 C   0  0  0  0  0  3  0  0  0  0  0  0
  -28.6010  -22.1980   20.1070 C   0  0  0  0  0  0  0  0  0  0  0  0
  -28.7210  -19.6180   19.1000 C   0  0  0  0  0  0  0  0  0  0  0  0
  -29.2750  -21.3490   21.1390 C   0  0  0  0  0  0  0  0  0  0  0  0
  -29.3960  -18.7650   20.1160 C   0  0  0  0  0  0  0  0  0  0  0  0
  -28.2530  -18.8630   17.8690 C   0  0  0  0  0  1  0  0  0  0  0  0
  -29.6220  -22.0910   22.4160 C   0  0  0  0  0  1  0  0  0  0  0  0
  -30.3250  -15.7390   20.0820 C   0  0  0  0  0  0  0  0  0  0  0  0
  -30.4340  -13.2030   19.2530 C   0  0  0  0  0  2  0  0  0  0  0  0
  -29.5010  -12.8070   18.0730 C   0  0  0  0  0  2  0  0  0  0  0  0
  -28.0930  -12.4480   18.5740 C   0  0  0  0  0  2  0  0  0  0  0  0
  -27.6150  -13.4350   19.6630 C   0  0  0  0  0  3  0  0  0  0  0  0
  -28.6840  -13.7360   20.7390 C   0  0  0  0  0  2  0  0  0  0  0  0
  -29.8300  -14.3650   20.0420 N   0  0  0  0  0  0  0  0  0  0  0  0
  -31.5510  -15.7190   19.8620 O   0  0  0  0  0  0  0  0  0  0  0  0
  -29.4910  -17.0460   20.1780 N   0  0  0  0  0  0  0  0  0  0  0  0
  -28.5460  -16.7010   20.2550 H   0  0  0  0  0  0  0  0  0  0  0  0
  -25.2830  -13.9360   20.5400 C   0  0  0  0  0  0  0  0  0  0  0  0
  -24.2440  -13.1400   20.9300 C   0  0  0  0  0  0  0  0  0  0  0  0
  -24.7180  -11.7940   20.8380 C   0  0  0  0  0  0  0  0  0  0  0  0
  -26.3210  -13.0770   20.2260 N   0  0  0  0  0  0  0  0  0  0  0  0
  -25.9970  -11.7800   20.4720 N   0  0  0  0  0  0  0  0  0  0  0  0
  -24.0040  -10.5230   21.0180 C   0  0  0  0  0  0  0  0  0  0  0  0
  -24.4420   -9.5520   21.9450 C   0  0  0  0  0  3  0  0  0  0  0  0
  -23.7220   -8.3500   22.1170 C   0  0  0  0  0  3  0  0  0  0  0  0
  -22.5500   -8.1090   21.3620 C   0  0  0  0  0  0  0  0  0  0  0  0
  -22.1300   -9.0700   20.4250 C   0  0  0  0  0  3  0  0  0  0  0  0
  -22.8500  -10.2640   20.2510 C   0  0  0  0  0  3  0  0  0  0  0  0
  -21.8020   -6.9590   21.4430 O   0  0  0  0  0  0  0  0  0  0  0  0
  -21.7140   -6.2380   22.6070 C   0  0  0  0  0  0  0  0  0  0  0  0
  -21.1720   -6.7920   23.7880 C   0  0  0  0  0  3  0  0  0  0  0  0
  -21.0350   -5.9950   24.9410 C   0  0  0  0  0  3  0  0  0  0  0  0
  -21.4320   -4.6440   24.9150 C   0  0  0  0  0  0  0  0  0  0  0  0
  -21.9670   -4.0890   23.7390 C   0  0  0  0  0  3  0  0  0  0  0  0
  -22.1040   -4.8840   22.5880 C   0  0  0  0  0  0  0  0  0  0  0  0
  -22.6010   -4.3380   21.4510 F   0  0  0  0  0  0  0  0  0  0  0  0
  -21.2940   -3.8760   26.0220 F   0  0  0  0  0  0  0  0  0  0  0  0
  -22.8560  -13.6020   21.2630 C   0  0  0  0  0  0  0  0  0  0  0  0
  -22.1670  -12.8850   22.1440 N   0  0  0  0  0  0  0  0  0  0  0  0
  -22.3930  -14.6350   20.7790 O   0  0  0  0  0  0  0  0  0  0  0  0
  -22.5560  -12.0510   22.5570 H   0  0  0  0  0  0  0  0  0  0  0  0
  -21.2370  -13.1770   22.4110 H   0  0  0  0  0  0  0  0  0  0  0  0
  -25.4260  -15.3130   20.3950 N   0  0  0  0  0  0  0  0  0  0  0  0
  -24.6500  -15.9480   20.5480 H   0  0  0  0  0  0  0  0  0  0  0  0
  -26.2350  -15.7670   19.9960 H   0  0  0  0  0  0  0  0  0  0  0  0
  -27.8310  -23.9050   20.0910 C   0  0  0  0  0  2  0  0  0  0  0  0
  -28.1420  -25.6190   20.2540 O   0  0  0  0  0  0  0  0  0  0  0  0
  -24.6640  -31.8850   23.2460 C   0  0  0  0  0  0  0  0  0  0  0  0
  -27.1800  -26.8370   20.2120 C   0  0  0  0  0  0  0  0  0  0  0  0
  -23.4670  -30.4980   21.6080 C   0  0  0  0  0  3  0  0  0  0  0  0
  -24.9080  -28.8610   20.1790 C   0  0  0  0  0  0  0  0  0  0  0  0
  -26.0460  -30.6440   21.4730 C   0  0  0  0  0  2  0  0  0  0  0  0
  -26.1070  -29.2160   20.8080 C   0  0  0  0  0  0  0  0  0  0  0  0
  -27.2280  -28.2330   20.7930 C   0  0  0  0  0  3  0  0  0  0  0  0
  -25.9450  -26.6900   19.5290 C   0  0  0  0  0  3  0  0  0  0  0  0
  -24.8650  -27.6230   19.5150 C   0  0  0  0  0  3  0  0  0  0  0  0
  -23.7000  -29.8090   20.2320 C   0  0  0  0  0  2  0  0  0  0  0  0
  -24.7500  -31.0420   22.1620 N   0  0  0  0  0  0  0  0  0  0  0  0
  -23.5740  -32.1830   23.7630 O   0  0  0  0  0  0  0  0  0  0  0  0
  -22.7570  -29.5140   22.5770 C   0  0  0  0  0  0  0  0  0  0  0  0
  -21.4270  -29.3450   22.4450 N   0  0  0  0  0  0  0  0  0  0  0  0
  -23.4130  -28.9010   23.4210 O   0  0  0  0  0  0  0  0  0  0  0  0
  -20.9450  -29.8910   21.7430 H   0  0  0  0  0  0  0  0  0  0  0  0
  -18.0490  -28.0980   22.9410 C   0  0  0  0  0  0  0  0  0  0  0  0
  -20.6040  -28.4030   23.2160 C   0  0  0  0  0  3  0  0  0  0  0  0
  -20.7260  -26.9680   22.6500 C   0  0  0  0  0  2  0  0  0  0  0  0
  -19.6360  -26.6270   21.6300 C   0  0  0  0  0  2  0  0  0  0  0  0
  -18.2480  -26.7520   22.2660 C   0  0  0  0  0  2  0  0  0  0  0  0
  -19.1530  -28.8810   23.3720 C   0  0  0  0  0  0  0  0  0  0  0  0
  -18.9100  -30.1370   23.9690 C   0  0  0  0  0  3  0  0  0  0  0  0
  -17.5950  -30.6130   24.1350 C   0  0  0  0  0  3  0  0  0  0  0  0
  -16.5060  -29.8300   23.7160 C   0  0  0  0  0  3  0  0  0  0  0  0
  -16.7330  -28.5740   23.1250 C   0  0  0  0  0  3  0  0  0  0  0  0
  -25.9310  -32.5330   23.8830 C   0  0  0  0  0  3  0  0  0  0  0  0
  -25.6130  -33.9370   24.2140 N   0  0  0  0  0  0  0  0  0  0  0  0
  -25.9200  -34.9970   23.4530 C   0  0  0  0  0  0  0  0  0  0  0  0
  -26.5550  -34.8960   22.4010 O   0  0  0  0  0  0  0  0  0  0  0  0
  -25.0420  -34.0860   25.0320 H   0  0  0  0  0  0  0  0  0  0  0  0
  -24.1700  -36.7910   23.1850 C   0  0  0  0  0  1  0  0  0  0  0  0
  -25.4520  -36.3880   23.9320 C   0  0  0  0  0  3  0  0  0  0  0  0
  -27.6120  -37.3000   24.6650 C   0  0  0  0  0  1  0  0  0  0  0  0
  -26.4730  -37.4460   23.7640 N   0  0  0  0  0  0  0  0  0  0  0  0
  -26.0670  -38.3660   23.9120 H   0  0  0  0  0  0  0  0  0  0  0  0
  -26.4230  -31.7780   25.1810 C   0  0  1  0  0  0  0  0  0  0  0  0
  -25.3150  -31.5650   26.2390 C   0  0  0  0  0  1  0  0  0  0  0  0
  -27.0000  -30.3880   24.8280 C   0  0  0  0  0  1  0  0  0  0  0  0
  -27.5720  -32.5730   25.8450 C   0  0  0  0  0  1  0  0  0  0  0  0
  1  3  1  0
  2  5  1  0
  3  5  2  0
  4  1  2  0
  4  6  1  0
  5  8  1  0
  6 17  1  0
  6  2  2  0
  7  4  1  0
  9 17  1  0
 10 15  1  0
 11 12  1  0
 11 10  1  0
 13 12  1  0
 13 22  1  0
 13 14  1  0
 15  9  1  0
 15 14  1  0
 16  9  2  0
 17 18  1  0
 19 20  2  0
 20 39  1  0
 21 20  1  0
 21 24  1  0
 22 23  1  0
 22 19  1  0
 23 21  2  0
 24 25  1  0
 25 26  2  0
 27 30  1  0
 27 26  1  0
 28 27  2  0
 29 28  1  0
 29 24  2  0
 30 31  1  0
 31 32  1  0
 32 33  2  0
 34 33  1  0
 34 38  1  0
 35 34  2  0
 36 31  2  0
 36 35  1  0
 37 36  1  0
 39 40  1  0
 40 43  1  0
 40 42  1  0
 41 39  2  0
 44 19  1  0
 44 45  1  0
 46 44  1  0
 47  3  1  0
 47 48  1  0
 49 60  2  0
 50 48  1  0
 50 55  1  0
 51 59  1  0
 51 61  1  0
 52 58  1  0
 52 54  1  0
 53 59  1  0
 54 53  1  0
 55 54  2  0
 56 50  2  0
 57 56  1  0
 57 52  2  0
 58 51  1  0
 59 49  1  0
 61 63  2  0
 62 61  1  0
 64 62  1  0
 65 74  2  0
 65 70  1  0
 66 62  1  0
 66 70  1  0
 67 66  1  0
 68 69  1  0
 68 67  1  0
 69 65  1  0
 70 71  2  0
 71 72  1  0
 73 72  2  0
 74 73  1  0
 75 49  1  0
 75 76  1  0
 75 85  1  0
 76 79  1  0
 77 81  1  0
 77 76  1  0
 78 77  2  0
 81 80  1  0
 83 84  1  0
 83 81  1  0
 83 82  1  0
 85 88  1  1
 85 86  1  0
 87 85  1  0
M  ISO  4   9 100  17 100  47 101  48 101
M  END
>  <TORSDO>  (21) 
F 17

>  <SCORE>  (21) 
-16.876

>  <name>  (21) 
21

>  <ligand_id>  (21) 
21

>  <original_smiles>  (21) 
[H]c1c([H])c([H])c2c(c1[H])C([H])([H])C([H])([H])C([H])([H])C2([H])N([H])C(=O)C1([H])N(C(=O)C([H])(N([H])C(=O)C([H])(N([H])C([H])([H])[H])C([H])([H])[H])C(C([H])([H])[H])(C([H])([H])[H])C([H])([H])[H])C([H])([H])c2c([H])c(OC([H])([H])c3c([H])c(C([H])([H])[H])c(N([H])C(=O)N4C([H])([H])C([H])([H])C([H])([H])C([H])(n5nc(-c6c([H])c([H])c(Oc7c([H])c([H])c(F)c([H])c7F)c([H])c6[H])c(C(=O)N([H])[H])c5N([H])[H])C4([H])[H])c([H])c3C([H])([H])[H])c([H])c([H])c2C1([H])[H]

>  <smiles>  (21) 
[H]c1c([H])c([H])c2c(c1[H])C([H])([H])C([H])([H])C([H])([H])C2([H])N([H])C(=O)C1([H])N(C(=O)C([H])(N([H])C(=O)C([H])(N([H])C([H])([H])[H])C([H])([H])[H])C(C([H])([H])[H])(C([H])([H])[H])C([H])([H])[H])C([H])([H])c2c([H])c(OC([H])([H])c3c([H])c(C([H])([H])[H])c(N([H])C(=O)N4C([H])([H])C([H])([H])C([H])([H])C([H])(n5nc(-c6c([H])c([H])c(Oc7c([H])c([H])c(F)c([H])c7F)c([H])c6[H])c(C(=O)N([H])[H])c5N([H])[H])C4([H])[H])c([H])c3C([H])([H])[H])c([H])c([H])c2C1([H])[H]

$$$$
22:0:0
     RDKit          3D

 90 98  0  0  1  0  0  0  0  0999 V2000
  -30.5370  -19.9060   22.3000 C   0  0  0  0  0  3  0  0  0  0  0  0
  -30.0190  -21.1100   21.7480 C   0  0  0  0  0  0  0  0  0  0  0  0
  -29.2960  -21.1430   20.5250 C   0  0  0  0  0  0  0  0  0  0  0  0
  -29.7710  -18.3470   20.5110 C   0  0  0  0  0  0  0  0  0  0  0  0
  -29.2040  -19.6920   19.9530 C   0  0  0  0  0  0  0  0  0  0  0  0
  -30.4350  -18.6070   21.7380 C   0  0  0  0  0  0  0  0  0  0  0  0
  -30.2970  -22.3880   22.5200 C   0  0  0  0  0  1  0  0  0  0  0  0
  -28.5380  -19.5840   18.7790 F   0  0  0  0  0  0  0  0  0  0  0  0
  -31.1160  -17.3260   22.6840 Cl  0  0  0  0  0  0  0  0  0  0  0  0
  -30.4170  -15.4940   20.0470 C   0  0  0  0  0  0  0  0  0  0  0  0
  -30.3840  -13.0650   19.0790 C   0  0  0  0  0  2  0  0  0  0  0  0
  -29.4010  -12.8380   17.9020 C   0  0  0  0  0  2  0  0  0  0  0  0
  -27.9840  -12.5290   18.4190 C   0  0  0  0  0  2  0  0  0  0  0  0
  -27.5750  -13.4690   19.5810 C   0  0  0  0  0  3  0  0  0  0  0  0
  -28.6830  -13.6290   20.6440 C   0  0  0  0  0  2  0  0  0  0  0  0
  -29.8520  -14.1870   19.9410 N   0  0  0  0  0  0  0  0  0  0  0  0
  -31.6400  -15.4830   19.8330 O   0  0  0  0  0  0  0  0  0  0  0  0
  -29.6370  -16.7730   20.0720 N   0  0  0  0  0  0  0  0  0  0  0  0
  -28.6850  -16.5710   19.8090 H   0  0  0  0  0  0  0  0  0  0  0  0
  -25.2490  -13.9810   20.4850 C   0  0  0  0  0  0  0  0  0  0  0  0
  -24.2150  -13.1840   20.8870 C   0  0  0  0  0  0  0  0  0  0  0  0
  -24.6910  -11.8400   20.7920 C   0  0  0  0  0  0  0  0  0  0  0  0
  -26.2840  -13.1230   20.1590 N   0  0  0  0  0  0  0  0  0  0  0  0
  -25.9650  -11.8270   20.4140 N   0  0  0  0  0  0  0  0  0  0  0  0
  -23.9840  -10.5660   20.9810 C   0  0  0  0  0  0  0  0  0  0  0  0
  -24.4340   -9.6000   21.9090 C   0  0  0  0  0  3  0  0  0  0  0  0
  -23.7230   -8.3940   22.0890 C   0  0  0  0  0  3  0  0  0  0  0  0
  -22.5480   -8.1440   21.3400 C   0  0  0  0  0  0  0  0  0  0  0  0
  -22.1170   -9.0980   20.4020 C   0  0  0  0  0  3  0  0  0  0  0  0
  -22.8280  -10.2960   20.2210 C   0  0  0  0  0  3  0  0  0  0  0  0
  -21.8080   -6.9900   21.4300 O   0  0  0  0  0  0  0  0  0  0  0  0
  -21.7360   -6.2690   22.5960 C   0  0  0  0  0  0  0  0  0  0  0  0
  -21.2310   -6.8300   23.7890 C   0  0  0  0  0  3  0  0  0  0  0  0
  -21.1090   -6.0340   24.9460 C   0  0  0  0  0  3  0  0  0  0  0  0
  -21.4830   -4.6780   24.9100 C   0  0  0  0  0  0  0  0  0  0  0  0
  -21.9810   -4.1160   23.7210 C   0  0  0  0  0  3  0  0  0  0  0  0
  -22.1040   -4.9090   22.5670 C   0  0  0  0  0  0  0  0  0  0  0  0
  -22.5650   -4.3560   21.4190 F   0  0  0  0  0  0  0  0  0  0  0  0
  -21.3590   -3.9100   26.0180 F   0  0  0  0  0  0  0  0  0  0  0  0
  -22.8290  -13.6400   21.2360 C   0  0  0  0  0  0  0  0  0  0  0  0
  -22.1430  -12.9090   22.1070 N   0  0  0  0  0  0  0  0  0  0  0  0
  -22.3650  -14.6820   20.7740 O   0  0  0  0  0  0  0  0  0  0  0  0
  -22.5330  -12.0670   22.5030 H   0  0  0  0  0  0  0  0  0  0  0  0
  -21.2140  -13.1960   22.3820 H   0  0  0  0  0  0  0  0  0  0  0  0
  -25.3880  -15.3580   20.3380 N   0  0  0  0  0  0  0  0  0  0  0  0
  -24.6150  -15.9940   20.5020 H   0  0  0  0  0  0  0  0  0  0  0  0
  -26.2030  -15.8180   19.9560 H   0  0  0  0  0  0  0  0  0  0  0  0
  -28.8790  -22.7570   19.9060 C   0  0  0  0  0  2  0  0  0  0  0  0
  -28.2260  -24.3390   20.5700 C   0  0  0  0  0  2  0  0  0  0  0  0
  -28.3390  -25.9760   20.2470 O   0  0  0  0  0  0  0  0  0  0  0  0
  -24.6260  -31.9240   23.2110 C   0  0  0  0  0  0  0  0  0  0  0  0
  -27.2950  -27.0520   20.2520 C   0  0  0  0  0  0  0  0  0  0  0  0
  -23.4800  -30.5110   21.5540 C   0  0  0  0  0  3  0  0  0  0  0  0
  -24.9710  -28.9160   20.1620 C   0  0  0  0  0  0  0  0  0  0  0  0
  -26.0470  -30.7510   21.4490 C   0  0  0  0  0  2  0  0  0  0  0  0
  -26.1470  -29.3370   20.7980 C   0  0  0  0  0  0  0  0  0  0  0  0
  -27.3040  -28.4290   20.8100 C   0  0  0  0  0  3  0  0  0  0  0  0
  -26.0830  -26.7860   19.5750 C   0  0  0  0  0  3  0  0  0  0  0  0
  -24.9660  -27.6630   19.5300 C   0  0  0  0  0  3  0  0  0  0  0  0
  -23.7420  -29.8270   20.1840 C   0  0  0  0  0  2  0  0  0  0  0  0
  -24.7380  -31.0900   22.1240 N   0  0  0  0  0  0  0  0  0  0  0  0
  -23.5250  -32.1980   23.7130 O   0  0  0  0  0  0  0  0  0  0  0  0
  -22.7810  -29.5080   22.5100 C   0  0  0  0  0  0  0  0  0  0  0  0
  -21.4580  -29.3150   22.3530 N   0  0  0  0  0  0  0  0  0  0  0  0
  -23.4380  -28.9030   23.3600 O   0  0  0  0  0  0  0  0  0  0  0  0
  -20.9800  -29.8530   21.6450 H   0  0  0  0  0  0  0  0  0  0  0  0
  -18.0870  -28.0440   22.8010 C   0  0  0  0  0  0  0  0  0  0  0  0
  -20.6370  -28.3620   23.1110 C   0  0  0  0  0  3  0  0  0  0  0  0
  -20.7770  -26.9310   22.5400 C   0  0  0  0  0  2  0  0  0  0  0  0
  -19.7010  -26.5860   21.5060 C   0  0  0  0  0  2  0  0  0  0  0  0
  -18.3050  -26.7000   22.1250 C   0  0  0  0  0  2  0  0  0  0  0  0
  -19.1830  -28.8310   23.2480 C   0  0  0  0  0  0  0  0  0  0  0  0
  -18.9230  -30.0850   23.8430 C   0  0  0  0  0  3  0  0  0  0  0  0
  -17.6050  -30.5550   23.9910 C   0  0  0  0  0  3  0  0  0  0  0  0
  -16.5250  -29.7650   23.5570 C   0  0  0  0  0  3  0  0  0  0  0  0
  -16.7680  -28.5120   22.9680 C   0  0  0  0  0  3  0  0  0  0  0  0
  -25.8770  -32.5860   23.8650 C   0  0  0  0  0  3  0  0  0  0  0  0
  -25.5390  -33.9860   24.1770 N   0  0  0  0  0  0  0  0  0  0  0  0
  -25.8810  -35.0450   23.4290 C   0  0  0  0  0  0  0  0  0  0  0  0
  -26.5760  -34.9450   22.4150 O   0  0  0  0  0  0  0  0  0  0  0  0
  -24.9230  -34.1370   24.9620 H   0  0  0  0  0  0  0  0  0  0  0  0
  -24.1560  -36.8370   23.0330 C   0  0  0  0  0  1  0  0  0  0  0  0
  -25.3780  -36.4340   23.8760 C   0  0  0  0  0  3  0  0  0  0  0  0
  -27.4790  -37.3390   24.7700 C   0  0  0  0  0  1  0  0  0  0  0  0
  -26.4090  -37.4920   23.7880 N   0  0  0  0  0  0  0  0  0  0  0  0
  -25.9940  -38.4110   23.9120 H   0  0  0  0  0  0  0  0  0  0  0  0
  -26.3570  -31.8410   25.1720 C   0  0  1  0  0  0  0  0  0  0  0  0
  -25.2280  -31.5930   26.2000 C   0  0  0  0  0  1  0  0  0  0  0  0
  -26.9850  -30.4720   24.8290 C   0  0  0  0  0  1  0  0  0  0  0  0
  -27.4640  -32.6690   25.8680 C   0  0  0  0  0  1  0  0  0  0  0  0
  2  1  1  0
  2  7  1  0
  3  2  2  0
  4  6  1  0
  5  4  2  0
  5  3  1  0
  6  1  2  0
  6  9  1  0
  8  5  1  0
 10 18  1  0
 11 16  1  0
 12 13  1  0
 12 11  1  0
 14 13  1  0
 14 23  1  0
 14 15  1  0
 16 10  1  0
 16 15  1  0
 17 10  2  0
 18  4  1  0
 19 18  1  0
 20 21  2  0
 21 40  1  0
 22 21  1  0
 22 25  1  0
 23 24  1  0
 23 20  1  0
 24 22  2  0
 25 26  1  0
 26 27  2  0
 28 31  1  0
 28 27  1  0
 29 28  2  0
 30 29  1  0
 30 25  2  0
 31 32  1  0
 32 33  1  0
 33 34  2  0
 35 34  1  0
 35 39  1  0
 36 35  2  0
 37 32  2  0
 37 36  1  0
 38 37  1  0
 40 41  1  0
 41 44  1  0
 41 43  1  0
 42 40  2  0
 45 20  1  0
 45 46  1  0
 47 45  1  0
 48  3  1  0
 48 49  1  0
 50 52  1  0
 50 49  1  0
 51 62  2  0
 52 57  1  0
 53 61  1  0
 53 63  1  0
 54 60  1  0
 54 56  1  0
 55 61  1  0
 56 57  2  0
 56 55  1  0
 58 52  2  0
 59 58  1  0
 59 54  2  0
 60 53  1  0
 61 51  1  0
 63 65  2  0
 64 63  1  0
 66 64  1  0
 67 76  2  0
 67 72  1  0
 68 64  1  0
 68 72  1  0
 69 68  1  0
 70 71  1  0
 70 69  1  0
 71 67  1  0
 72 73  2  0
 73 74  1  0
 75 74  2  0
 76 75  1  0
 77 51  1  0
 77 78  1  0
 77 87  1  0
 78 81  1  0
 79 83  1  0
 79 78  1  0
 80 79  2  0
 83 82  1  0
 85 83  1  0
 85 86  1  0
 85 84  1  0
 87 90  1  1
 87 88  1  0
 89 87  1  0
M  ISO  4  10 100  18 100  49 101  50 101
M  END
>  <TORSDO>  (22) 
F 18

>  <SCORE>  (22) 
-16.036

>  <name>  (22) 
22

>  <ligand_id>  (22) 
22

>  <original_smiles>  (22) 
[H]c1c([H])c([H])c2c(c1[H])C([H])([H])C([H])([H])C([H])([H])C2([H])N([H])C(=O)C1([H])N(C(=O)C([H])(N([H])C(=O)C([H])(N([H])C([H])([H])[H])C([H])([H])[H])C(C([H])([H])[H])(C([H])([H])[H])C([H])([H])[H])C([H])([H])c2c([H])c(OC([H])([H])C([H])([H])c3c(F)c(N([H])C(=O)N4C([H])([H])C([H])([H])C([H])([H])C([H])(n5nc(-c6c([H])c([H])c(Oc7c([H])c([H])c(F)c([H])c7F)c([H])c6[H])c(C(=O)N([H])[H])c5N([H])[H])C4([H])[H])c(Cl)c([H])c3C([H])([H])[H])c([H])c([H])c2C1([H])[H]

>  <smiles>  (22) 
[H]c1c([H])c([H])c2c(c1[H])C([H])([H])C([H])([H])C([H])([H])C2([H])N([H])C(=O)C1([H])N(C(=O)C([H])(N([H])C(=O)C([H])(N([H])C([H])([H])[H])C([H])([H])[H])C(C([H])([H])[H])(C([H])([H])[H])C([H])([H])[H])C([H])([H])c2c([H])c(OC([H])([H])C([H])([H])c3c(F)c(N([H])C(=O)N4C([H])([H])C([H])([H])C([H])([H])C([H])(n5nc(-c6c([H])c([H])c(Oc7c([H])c([H])c(F)c([H])c7F)c([H])c6[H])c(C(=O)N([H])[H])c5N([H])[H])C4([H])[H])c(Cl)c([H])c3C([H])([H])[H])c([H])c([H])c2C1([H])[H]

$$$$
23:0:0
     RDKit          3D

 96104  0  0  1  0  0  0  0  0999 V2000
  -29.7320  -23.3600   21.6370 C   0  0  0  0  0  3  0  0  0  0  0  0
  -28.7570  -23.7630   20.6900 C   0  0  0  0  0  0  0  0  0  0  0  0
  -28.3810  -22.7910   19.7160 C   0  0  0  0  0  0  0  0  0  0  0  0
  -29.9510  -21.0980   20.6560 C   0  0  0  0  0  0  0  0  0  0  0  0
  -28.9970  -21.4960   19.6800 C   0  0  0  0  0  0  0  0  0  0  0  0
  -30.3070  -22.0640   21.6300 C   0  0  0  0  0  0  0  0  0  0  0  0
  -27.2640  -23.1180   18.7380 C   0  0  0  0  0  1  0  0  0  0  0  0
  -31.2260  -21.7500   22.5750 F   0  0  0  0  0  0  0  0  0  0  0  0
  -30.7020  -19.7290   20.5710 C   0  0  0  0  0  2  0  0  0  0  0  0
  -30.0520  -18.4750   21.1060 N   0  0  0  0  0  4  0  0  0  0  0  0
  -29.0650  -18.5200   20.9100 H   0  0  0  0  0  0  0  0  0  0  0  0
  -30.1600  -18.4990   22.1060 H   0  0  0  0  0  0  0  0  0  0  0  0
  -30.1360  -16.9440   19.1160 C   0  0  0  0  0  1  0  0  0  0  0  0
  -30.6020  -17.1590   20.5760 C   0  0  0  0  0  3  0  0  0  0  0  0
  -30.2920  -15.8590   21.4460 C   0  0  0  0  0  2  0  0  0  0  0  0
  -31.0140  -14.5280   20.9980 C   0  0  0  0  0  0  0  0  0  0  0  0
  -30.7790  -12.3390   19.8550 C   0  0  0  0  0  2  0  0  0  0  0  0
  -29.9430  -12.5520   18.5740 C   0  0  0  0  0  2  0  0  0  0  0  0
  -28.4360  -12.4420   18.8810 C   0  0  0  0  0  2  0  0  0  0  0  0
  -28.0140  -13.2750   20.1210 C   0  0  0  0  0  3  0  0  0  0  0  0
  -28.9800  -13.0560   21.3070 C   0  0  0  0  0  2  0  0  0  0  0  0
  -30.3430  -13.3450   20.8420 N   0  0  0  0  0  0  0  0  0  0  0  0
  -32.1980  -14.6200   20.6640 O   0  0  0  0  0  0  0  0  0  0  0  0
  -25.5740  -13.9180   20.6070 C   0  0  0  0  0  0  0  0  0  0  0  0
  -24.4710  -13.1670   20.9070 C   0  0  0  0  0  0  0  0  0  0  0  0
  -24.9170  -11.8100   20.9590 C   0  0  0  0  0  0  0  0  0  0  0  0
  -26.6250  -13.0210   20.4940 N   0  0  0  0  0  0  0  0  0  0  0  0
  -26.2290  -11.7510   20.7640 N   0  0  0  0  0  0  0  0  0  0  0  0
  -24.1620  -10.5620   21.1250 C   0  0  0  0  0  0  0  0  0  0  0  0
  -24.5200   -9.6050   22.1000 C   0  0  0  0  0  3  0  0  0  0  0  0
  -23.7660   -8.4210   22.2530 C   0  0  0  0  0  3  0  0  0  0  0  0
  -22.6400   -8.1850   21.4280 C   0  0  0  0  0  0  0  0  0  0  0  0
  -22.3040   -9.1290   20.4420 C   0  0  0  0  0  3  0  0  0  0  0  0
  -23.0580  -10.3040   20.2880 C   0  0  0  0  0  3  0  0  0  0  0  0
  -21.8660   -7.0510   21.4870 O   0  0  0  0  0  0  0  0  0  0  0  0
  -21.7480   -6.3190   22.6410 C   0  0  0  0  0  0  0  0  0  0  0  0
  -21.2680   -6.8890   23.8400 C   0  0  0  0  0  3  0  0  0  0  0  0
  -21.0970   -6.0830   24.9830 C   0  0  0  0  0  3  0  0  0  0  0  0
  -21.3990   -4.7090   24.9280 C   0  0  0  0  0  0  0  0  0  0  0  0
  -21.8720   -4.1390   23.7340 C   0  0  0  0  0  3  0  0  0  0  0  0
  -22.0440   -4.9420   22.5930 C   0  0  0  0  0  0  0  0  0  0  0  0
  -22.4810   -4.3830   21.4390 F   0  0  0  0  0  0  0  0  0  0  0  0
  -21.2280   -3.9330   26.0250 F   0  0  0  0  0  0  0  0  0  0  0  0
  -23.0600  -13.6650   21.0430 C   0  0  0  0  0  0  0  0  0  0  0  0
  -22.2550  -13.0080   21.8710 N   0  0  0  0  0  0  0  0  0  0  0  0
  -22.6780  -14.6730   20.4480 O   0  0  0  0  0  0  0  0  0  0  0  0
  -22.5740  -12.1920   22.3710 H   0  0  0  0  0  0  0  0  0  0  0  0
  -21.3050  -13.3260   22.0070 H   0  0  0  0  0  0  0  0  0  0  0  0
  -25.7710  -15.2790   20.3990 N   0  0  0  0  0  0  0  0  0  0  0  0
  -25.0040  -15.9410   20.4060 H   0  0  0  0  0  0  0  0  0  0  0  0
  -26.6500  -15.6940   20.1170 H   0  0  0  0  0  0  0  0  0  0  0  0
  -28.0030  -25.1230   20.9010 C   0  0  0  0  0  2  0  0  0  0  0  0
  -28.2070  -26.2600   19.9970 O   0  0  0  0  0  0  0  0  0  0  0  0
  -24.5700  -31.6490   23.0980 C   0  0  0  0  0  0  0  0  0  0  0  0
  -27.1250  -27.1400   19.9730 C   0  0  0  0  0  0  0  0  0  0  0  0
  -23.3440  -30.2830   21.4460 C   0  0  0  0  0  3  0  0  0  0  0  0
  -24.7730  -28.7440   19.9950 C   0  0  0  0  0  0  0  0  0  0  0  0
  -25.8820  -30.5900   21.2520 C   0  0  0  0  0  2  0  0  0  0  0  0
  -25.9480  -29.2230   20.5900 C   0  0  0  0  0  0  0  0  0  0  0  0
  -27.1320  -28.4310   20.5730 C   0  0  0  0  0  3  0  0  0  0  0  0
  -25.9360  -26.7120   19.3480 C   0  0  0  0  0  3  0  0  0  0  0  0
  -24.7670  -27.4920   19.3640 C   0  0  0  0  0  3  0  0  0  0  0  0
  -23.5430  -29.6240   20.0570 C   0  0  0  0  0  2  0  0  0  0  0  0
  -24.6180  -30.8550   21.9900 N   0  0  0  0  0  0  0  0  0  0  0  0
  -23.4920  -31.9300   23.6410 O   0  0  0  0  0  0  0  0  0  0  0  0
  -22.6770  -29.2600   22.3960 C   0  0  0  0  0  0  0  0  0  0  0  0
  -21.3470  -29.1060   22.2790 N   0  0  0  0  0  0  0  0  0  0  0  0
  -23.3530  -28.6080   23.1960 O   0  0  0  0  0  0  0  0  0  0  0  0
  -20.8620  -29.6820   21.6050 H   0  0  0  0  0  0  0  0  0  0  0  0
  -17.9520  -27.9800   22.8110 C   0  0  0  0  0  0  0  0  0  0  0  0
  -20.5200  -28.1710   23.0430 C   0  0  0  0  0  3  0  0  0  0  0  0
  -20.5770  -26.7500   22.4360 C   0  0  0  0  0  2  0  0  0  0  0  0
  -19.4510  -26.4760   21.4340 C   0  0  0  0  0  2  0  0  0  0  0  0
  -18.0840  -26.6410   22.1040 C   0  0  0  0  0  2  0  0  0  0  0  0
  -19.0960  -28.7050   23.2370 C   0  0  0  0  0  0  0  0  0  0  0  0
  -18.9170  -29.9600   23.8590 C   0  0  0  0  0  3  0  0  0  0  0  0
  -17.6270  -30.4890   24.0570 C   0  0  0  0  0  3  0  0  0  0  0  0
  -16.4980  -29.7600   23.6460 C   0  0  0  0  0  3  0  0  0  0  0  0
  -16.6610  -28.5060   23.0300 C   0  0  0  0  0  3  0  0  0  0  0  0
  -25.8630  -32.2590   23.7220 C   0  0  0  0  0  3  0  0  0  0  0  0
  -25.5590  -33.6440   24.1060 N   0  0  0  0  0  0  0  0  0  0  0  0
  -25.9040  -34.7250   23.3930 C   0  0  0  0  0  0  0  0  0  0  0  0
  -26.5820  -34.6600   22.3640 O   0  0  0  0  0  0  0  0  0  0  0  0
  -24.9630  -33.7690   24.9110 H   0  0  0  0  0  0  0  0  0  0  0  0
  -24.1980  -36.5470   23.0850 C   0  0  0  0  0  1  0  0  0  0  0  0
  -25.4190  -36.0970   23.9020 C   0  0  0  0  0  3  0  0  0  0  0  0
  -27.5440  -36.9240   24.8140 C   0  0  0  0  0  1  0  0  0  0  0  0
  -26.4630  -37.1430   23.8550 N   0  0  0  0  0  0  0  0  0  0  0  0
  -26.0620  -38.0600   24.0330 H   0  0  0  0  0  0  0  0  0  0  0  0
  -26.4000  -31.4420   24.9610 C   0  0  1  0  0  0  0  0  0  0  0  0
  -25.3260  -31.1690   26.0390 C   0  0  0  0  0  1  0  0  0  0  0  0
  -26.9720  -30.0770   24.5110 C   0  0  0  0  0  1  0  0  0  0  0  0
  -27.5650  -32.2100   25.6300 C   0  0  0  0  0  1  0  0  0  0  0  0
  -28.6510  -20.5860   18.7110 O   0  0  0  0  0  0  0  0  0  0  0  0
  -28.6950  -19.8410   16.4310 C   0  0  0  0  0  1  0  0  0  0  0  0
  -29.3460  -20.7470   17.4780 C   0  0  0  0  0  2  0  0  0  0  0  0
  2 52  1  0
  2  1  2  0
  3  2  1  0
  4  6  2  0
  5  3  2  0
  5  4  1  0
  6  1  1  0
  6  8  1  0
  7  3  1  0
  9  4  1  0
  9 10  1  0
 10 12  1  0
 11 10  1  0
 14 13  1  0
 14 10  1  0
 14 15  1  0
 16 15  1  0
 17 22  1  0
 18 19  1  0
 18 17  1  0
 20 19  1  0
 20 27  1  0
 20 21  1  0
 22 16  1  0
 22 21  1  0
 23 16  2  0
 24 25  2  0
 25 26  1  0
 25 44  1  0
 26 29  1  0
 27 24  1  0
 27 28  1  0
 28 26  2  0
 29 30  1  0
 30 31  2  0
 32 35  1  0
 32 31  1  0
 33 32  2  0
 34 33  1  0
 34 29  2  0
 35 36  1  0
 36 37  1  0
 37 38  2  0
 39 38  1  0
 39 43  1  0
 40 39  2  0
 41 36  2  0
 41 40  1  0
 42 41  1  0
 44 45  1  0
 45 48  1  0
 45 47  1  0
 46 44  2  0
 49 50  1  0
 49 24  1  0
 51 49  1  0
 53 52  1  0
 54 65  2  0
 55 53  1  0
 55 60  1  0
 56 64  1  0
 56 66  1  0
 57 63  1  0
 57 59  1  0
 58 64  1  0
 59 58  1  0
 60 59  2  0
 61 62  1  0
 61 55  2  0
 62 57  2  0
 63 56  1  0
 64 54  1  0
 66 68  2  0
 67 66  1  0
 69 67  1  0
 70 79  2  0
 70 75  1  0
 71 67  1  0
 71 75  1  0
 72 71  1  0
 73 74  1  0
 73 72  1  0
 74 70  1  0
 75 76  2  0
 76 77  1  0
 78 77  2  0
 79 78  1  0
 80 54  1  0
 80 81  1  0
 80 90  1  0
 81 84  1  0
 82 86  1  0
 82 81  1  0
 83 82  2  0
 86 85  1  0
 88 86  1  0
 88 89  1  0
 88 87  1  0
 90 93  1  1
 90 91  1  0
 92 90  1  0
 94  5  1  0
 95 96  1  0
 96 94  1  0
M  ISO  4  15 100  16 100  52 101  53 101
M  END
>  <TORSDO>  (23) 
F 23

>  <SCORE>  (23) 
-12.894

>  <name>  (23) 
23

>  <ligand_id>  (23) 
23

>  <original_smiles>  (23) 
[H]c1c([H])c([H])c2c(c1[H])C([H])([H])C([H])([H])C([H])([H])C2([H])N([H])C(=O)C1([H])N(C(=O)C([H])(N([H])C(=O)C([H])(N([H])C([H])([H])[H])C([H])([H])[H])C(C([H])([H])[H])(C([H])([H])[H])C([H])([H])[H])C([H])([H])c2c([H])c(OC([H])([H])c3c([H])c(F)c(C([H])([H])[N+]([H])([H])C([H])(C([H])([H])[H])C([H])([H])C(=O)N4C([H])([H])C([H])([H])C([H])([H])C([H])(n5nc(-c6c([H])c([H])c(Oc7c([H])c([H])c(F)c([H])c7F)c([H])c6[H])c(C(=O)N([H])[H])c5N([H])[H])C4([H])[H])c(OC([H])([H])C([H])([H])[H])c3C([H])([H])[H])c([H])c([H])c2C1([H])[H]

>  <smiles>  (23) 
[H]c1c([H])c([H])c2c(c1[H])C([H])([H])C([H])([H])C([H])([H])C2([H])N([H])C(=O)C1([H])N(C(=O)C([H])(N([H])C(=O)C([H])(N([H])C([H])([H])[H])C([H])([H])[H])C(C([H])([H])[H])(C([H])([H])[H])C([H])([H])[H])C([H])([H])c2c([H])c(OC([H])([H])c3c([H])c(F)c(C([H])([H])[N+]([H])([H])C([H])(C([H])([H])[H])C([H])([H])C(=O)N4C([H])([H])C([H])([H])C([H])([H])C([H])(n5nc(-c6c([H])c([H])c(Oc7c([H])c([H])c(F)c([H])c7F)c([H])c6[H])c(C(=O)N([H])[H])c5N([H])[H])C4([H])[H])c(OC([H])([H])C([H])([H])[H])c3C([H])([H])[H])c([H])c([H])c2C1([H])[H]

$$$$
24:0:0
     RDKit          3D

 98106  0  0  1  0  0  0  0  0999 V2000
  -30.9110  -20.3170   20.7020 C   0  0  0  0  0  3  0  0  0  0  0  0
  -31.5390  -17.9520   20.7100 C   0  0  0  0  0  3  0  0  0  0  0  0
  -31.9110  -19.3140   20.7970 C   0  0  0  0  0  0  0  0  0  0  0  0
  -29.5480  -20.0130   20.4940 C   0  0  0  0  0  0  0  0  0  0  0  0
  -29.2130  -18.5930   20.3780 C   0  0  0  0  0  0  0  0  0  0  0  0
  -30.2080  -17.5320   20.4960 C   0  0  0  0  0  0  0  0  0  0  0  0
  -30.7030  -14.9540   20.3290 C   0  0  0  0  0  0  0  0  0  0  0  0
  -30.5340  -12.6470   19.3910 C   0  0  0  0  0  2  0  0  0  0  0  0
  -29.5840  -12.6630   18.1750 C   0  0  0  0  0  2  0  0  0  0  0  0
  -28.1240  -12.4640   18.6270 C   0  0  0  0  0  2  0  0  0  0  0  0
  -27.7380  -13.3840   19.8160 C   0  0  0  0  0  3  0  0  0  0  0  0
  -28.8110  -13.3670   20.9290 C   0  0  0  0  0  2  0  0  0  0  0  0
  -30.0920  -13.7220   20.3060 N   0  0  0  0  0  0  0  0  0  0  0  0
  -31.8890  -15.0490   20.0030 O   0  0  0  0  0  0  0  0  0  0  0  0
  -29.8980  -16.0750   20.4730 N   0  0  0  0  0  0  0  0  0  0  0  0
  -28.9210  -15.8470   20.5590 H   0  0  0  0  0  0  0  0  0  0  0  0
  -25.3610  -13.9410   20.6070 C   0  0  0  0  0  0  0  0  0  0  0  0
  -24.3110  -13.1510   20.9840 C   0  0  0  0  0  0  0  0  0  0  0  0
  -24.7840  -11.8050   20.9130 C   0  0  0  0  0  0  0  0  0  0  0  0
  -26.4070  -13.0750   20.3300 N   0  0  0  0  0  0  0  0  0  0  0  0
  -26.0670  -11.7840   20.5770 N   0  0  0  0  0  0  0  0  0  0  0  0
  -24.0700  -10.5330   21.0880 C   0  0  0  0  0  0  0  0  0  0  0  0
  -24.5130   -9.5580   22.0080 C   0  0  0  0  0  3  0  0  0  0  0  0
  -23.7990   -8.3520   22.1710 C   0  0  0  0  0  3  0  0  0  0  0  0
  -22.6280   -8.1120   21.4150 C   0  0  0  0  0  0  0  0  0  0  0  0
  -22.2040   -9.0760   20.4820 C   0  0  0  0  0  3  0  0  0  0  0  0
  -22.9190  -10.2740   20.3170 C   0  0  0  0  0  3  0  0  0  0  0  0
  -21.8850   -6.9580   21.4890 O   0  0  0  0  0  0  0  0  0  0  0  0
  -21.8190   -6.2170   22.6410 C   0  0  0  0  0  0  0  0  0  0  0  0
  -21.3340   -6.7610   23.8520 C   0  0  0  0  0  3  0  0  0  0  0  0
  -21.2200   -5.9440   24.9940 C   0  0  0  0  0  3  0  0  0  0  0  0
  -21.5780   -4.5850   24.9280 C   0  0  0  0  0  0  0  0  0  0  0  0
  -22.0550   -4.0400   23.7230 C   0  0  0  0  0  3  0  0  0  0  0  0
  -22.1720   -4.8540   22.5820 C   0  0  0  0  0  0  0  0  0  0  0  0
  -22.6130   -4.3180   21.4190 F   0  0  0  0  0  0  0  0  0  0  0  0
  -21.4600   -3.7990   26.0240 F   0  0  0  0  0  0  0  0  0  0  0  0
  -22.9160  -13.6120   21.2940 C   0  0  0  0  0  0  0  0  0  0  0  0
  -22.2120  -12.8910   22.1590 N   0  0  0  0  0  0  0  0  0  0  0  0
  -22.4610  -14.6440   20.8040 O   0  0  0  0  0  0  0  0  0  0  0  0
  -22.5940  -12.0560   22.5760 H   0  0  0  0  0  0  0  0  0  0  0  0
  -21.2770  -13.1810   22.4110 H   0  0  0  0  0  0  0  0  0  0  0  0
  -25.5050  -15.3160   20.4470 N   0  0  0  0  0  0  0  0  0  0  0  0
  -24.7150  -15.9430   20.5470 H   0  0  0  0  0  0  0  0  0  0  0  0
  -26.3040  -15.7520   20.0070 H   0  0  0  0  0  0  0  0  0  0  0  0
  -33.7380  -19.3760   22.5210 C   0  0  0  0  0  1  0  0  0  0  0  0
  -33.7240  -21.1430   20.7530 C   0  0  0  0  0  1  0  0  0  0  0  0
  -34.3080  -18.8070   20.1430 C   0  0  0  0  0  1  0  0  0  0  0  0
  -33.3940  -19.6620   21.0460 C   0  0  2  0  0  0  0  0  0  0  0  0
  -27.5400  -17.9330   18.6100 C   0  0  0  0  0  1  0  0  0  0  0  0
  -27.7740  -18.1750   20.1080 C   0  0  0  0  0  2  0  0  0  0  0  0
  -28.5070  -21.2300   20.5560 C   0  0  0  0  0  2  0  0  0  0  0  0
  -28.8270  -22.6280   19.9940 N   0  0  0  0  0  4  0  0  0  0  0  0
  -28.7500  -22.5530   18.9910 H   0  0  0  0  0  0  0  0  0  0  0  0
  -29.7980  -22.8120   20.1850 H   0  0  0  0  0  0  0  0  0  0  0  0
  -26.5150  -23.5680   20.5880 C   0  0  0  0  0  1  0  0  0  0  0  0
  -28.0260  -23.8690   20.4770 C   0  0  0  0  0  3  0  0  0  0  0  0
  -28.2260  -25.2540   19.6570 C   0  0  0  0  0  2  0  0  0  0  0  0
  -28.1420  -26.6150   20.2810 O   0  0  0  0  0  0  0  0  0  0  0  0
  -24.6190  -32.0600   23.4700 C   0  0  0  0  0  0  0  0  0  0  0  0
  -27.0300  -27.4800   20.2380 C   0  0  0  0  0  0  0  0  0  0  0  0
  -23.3420  -30.7440   21.8150 C   0  0  0  0  0  3  0  0  0  0  0  0
  -24.7160  -29.1800   20.3180 C   0  0  0  0  0  0  0  0  0  0  0  0
  -25.8860  -30.9780   21.5970 C   0  0  0  0  0  2  0  0  0  0  0  0
  -25.9080  -29.6120   20.9110 C   0  0  0  0  0  0  0  0  0  0  0  0
  -27.0610  -28.7700   20.8650 C   0  0  0  0  0  3  0  0  0  0  0  0
  -25.8160  -27.1060   19.6210 C   0  0  0  0  0  3  0  0  0  0  0  0
  -24.6710  -27.9340   19.6690 C   0  0  0  0  0  3  0  0  0  0  0  0
  -23.5090  -30.0970   20.4130 C   0  0  0  0  0  2  0  0  0  0  0  0
  -24.6360  -31.2780   22.3510 N   0  0  0  0  0  0  0  0  0  0  0  0
  -23.5560  -32.3580   24.0350 O   0  0  0  0  0  0  0  0  0  0  0  0
  -22.6630  -29.7260   22.7630 C   0  0  0  0  0  0  0  0  0  0  0  0
  -21.3380  -29.5530   22.6150 N   0  0  0  0  0  0  0  0  0  0  0  0
  -23.3280  -29.0970   23.5900 O   0  0  0  0  0  0  0  0  0  0  0  0
  -20.8620  -30.1190   21.9280 H   0  0  0  0  0  0  0  0  0  0  0  0
  -17.9640  -28.3110   23.0070 C   0  0  0  0  0  0  0  0  0  0  0  0
  -20.5060  -28.6140   23.3690 C   0  0  0  0  0  3  0  0  0  0  0  0
  -20.6510  -27.1780   22.8180 C   0  0  0  0  0  2  0  0  0  0  0  0
  -19.5920  -26.8240   21.7690 C   0  0  0  0  0  2  0  0  0  0  0  0
  -18.1850  -26.9550   22.3580 C   0  0  0  0  0  2  0  0  0  0  0  0
  -19.0540  -29.0970   23.4680 C   0  0  0  0  0  0  0  0  0  0  0  0
  -18.7950  -30.3630   24.0330 C   0  0  0  0  0  3  0  0  0  0  0  0
  -17.4770  -30.8460   24.1450 C   0  0  0  0  0  3  0  0  0  0  0  0
  -16.4000  -30.0580   23.7030 C   0  0  0  0  0  3  0  0  0  0  0  0
  -16.6440  -28.7930   23.1380 C   0  0  0  0  0  3  0  0  0  0  0  0
  -25.9320  -32.6360   24.0840 C   0  0  0  0  0  3  0  0  0  0  0  0
  -25.6790  -34.0390   24.4430 N   0  0  0  0  0  0  0  0  0  0  0  0
  -26.0430  -35.0940   23.7000 C   0  0  0  0  0  0  0  0  0  0  0  0
  -26.6980  -34.9860   22.6600 O   0  0  0  0  0  0  0  0  0  0  0  0
  -25.0970  -34.2020   25.2500 H   0  0  0  0  0  0  0  0  0  0  0  0
  -24.3830  -36.9630   23.4040 C   0  0  0  0  0  1  0  0  0  0  0  0
  -25.6160  -36.4910   24.1910 C   0  0  0  0  0  3  0  0  0  0  0  0
  -27.7900  -37.2780   25.0200 C   0  0  0  0  0  1  0  0  0  0  0  0
  -26.6870  -37.5060   24.0900 N   0  0  0  0  0  0  0  0  0  0  0  0
  -26.3180  -38.4380   24.2590 H   0  0  0  0  0  0  0  0  0  0  0  0
  -26.4370  -31.8270   25.3430 C   0  0  1  0  0  0  0  0  0  0  0  0
  -25.3470  -31.6020   26.4160 C   0  0  0  0  0  1  0  0  0  0  0  0
  -26.9740  -30.4390   24.9220 C   0  0  0  0  0  1  0  0  0  0  0  0
  -27.6140  -32.5750   26.0100 C   0  0  0  0  0  1  0  0  0  0  0  0
  1  3  1  0
  2  3  2  0
  3 48  1  0
  4 51  1  0
  4  1  2  0
  5  4  1  0
  5  6  2  0
  6  2  1  0
  7 15  1  0
  8 13  1  0
  9 10  1  0
  9  8  1  0
 11 10  1  0
 11 20  1  0
 11 12  1  0
 13  7  1  0
 13 12  1  0
 14  7  2  0
 15  6  1  0
 15 16  1  0
 17 18  2  0
 18 37  1  0
 19 18  1  0
 19 22  1  0
 20 21  1  0
 20 17  1  0
 21 19  2  0
 22 23  1  0
 23 24  2  0
 25 28  1  0
 25 24  1  0
 26 25  2  0
 27 26  1  0
 27 22  2  0
 28 29  1  0
 29 30  1  0
 30 31  2  0
 32 31  1  0
 32 36  1  0
 33 32  2  0
 34 29  2  0
 34 33  1  0
 35 34  1  0
 37 38  1  0
 38 41  1  0
 38 40  1  0
 39 37  2  0
 42 43  1  0
 42 17  1  0
 44 42  1  0
 48 46  1  6
 47 48  1  0
 48 45  1  0
 49 50  1  0
 50  5  1  0
 52 54  1  0
 52 56  1  0
 52 51  1  0
 53 52  1  0
 56 55  1  0
 57 58  1  0
 57 56  1  0
 59 70  2  0
 60 58  1  0
 60 65  1  0
 61 69  1  0
 61 71  1  0
 62 68  1  0
 62 64  1  0
 63 69  1  0
 64 63  1  0
 65 64  2  0
 66 67  1  0
 66 60  2  0
 67 62  2  0
 68 61  1  0
 69 59  1  0
 71 73  2  0
 72 71  1  0
 74 72  1  0
 75 84  2  0
 75 80  1  0
 76 72  1  0
 76 80  1  0
 77 76  1  0
 78 79  1  0
 78 77  1  0
 79 75  1  0
 80 81  2  0
 81 82  1  0
 83 82  2  0
 84 83  1  0
 85 59  1  0
 85 86  1  0
 85 95  1  0
 86 89  1  0
 87 91  1  0
 87 86  1  0
 88 87  2  0
 91 90  1  0
 93 91  1  0
 93 94  1  0
 93 92  1  0
 95 98  1  1
 95 96  1  0
 97 95  1  0
M  ISO  4   7 100  15 100  57 101  58 101
M  END
>  <TORSDO>  (24) 
F 22

>  <SCORE>  (24) 
-12.981

>  <name>  (24) 
24

>  <ligand_id>  (24) 
24

>  <original_smiles>  (24) 
[H]c1c([H])c([H])c2c(c1[H])C([H])([H])C([H])([H])C([H])([H])C2([H])N([H])C(=O)C1([H])N(C(=O)C([H])(N([H])C(=O)C([H])(N([H])C([H])([H])[H])C([H])([H])[H])C(C([H])([H])[H])(C([H])([H])[H])C([H])([H])[H])C([H])([H])c2c([H])c(OC([H])([H])C([H])(C([H])([H])[H])[N+]([H])([H])C([H])([H])c3c([H])c(C(C([H])([H])[H])(C([H])([H])[H])C([H])([H])[H])c([H])c(N([H])C(=O)N4C([H])([H])C([H])([H])C([H])([H])C([H])(n5nc(-c6c([H])c([H])c(Oc7c([H])c([H])c(F)c([H])c7F)c([H])c6[H])c(C(=O)N([H])[H])c5N([H])[H])C4([H])[H])c3C([H])([H])C([H])([H])[H])c([H])c([H])c2C1([H])[H]

>  <smiles>  (24) 
[H]c1c([H])c([H])c2c(c1[H])C([H])([H])C([H])([H])C([H])([H])C2([H])N([H])C(=O)C1([H])N(C(=O)C([H])(N([H])C(=O)C([H])(N([H])C([H])([H])[H])C([H])([H])[H])C(C([H])([H])[H])(C([H])([H])[H])C([H])([H])[H])C([H])([H])c2c([H])c(OC([H])([H])C([H])(C([H])([H])[H])[N+]([H])([H])C([H])([H])c3c([H])c(C(C([H])([H])[H])(C([H])([H])[H])C([H])([H])[H])c([H])c(N([H])C(=O)N4C([H])([H])C([H])([H])C([H])([H])C([H])(n5nc(-c6c([H])c([H])c(Oc7c([H])c([H])c(F)c([H])c7F)c([H])c6[H])c(C(=O)N([H])[H])c5N([H])[H])C4([H])[H])c3C([H])([H])C([H])([H])[H])c([H])c([H])c2C1([H])[H]

$$$$
25:0:0
     RDKit          3D

 91 99  0  0  1  0  0  0  0  0999 V2000
  -30.1760  -21.6650   19.2410 C   0  0  0  0  0  3  0  0  0  0  0  0
  -28.8730  -22.3050   19.5800 C   0  0  0  0  0  0  0  0  0  0  0  0
  -28.1620  -21.0420   19.9840 C   0  0  0  0  0  0  0  0  0  0  0  0
  -29.9610  -18.9520   19.6850 C   0  0  0  0  0  0  0  0  0  0  0  0
  -30.6690  -20.2160   19.2880 C   0  0  0  0  0  0  0  0  0  0  0  0
  -28.6530  -19.5800   20.0400 C   0  0  0  0  0  0  0  0  0  0  0  0
  -26.7020  -21.2470   20.4140 C   0  0  0  0  0  1  0  0  0  0  0  0
  -32.3120  -20.0280   18.7740 Cl  0  0  0  0  0  0  0  0  0  0  0  0
  -27.5130  -18.4170   20.6250 Cl  0  0  0  0  0  0  0  0  0  0  0  0
  -30.7780  -15.8890   19.4630 C   0  0  0  0  0  0  0  0  0  0  0  0
  -30.6140  -13.3050   18.7840 C   0  0  0  0  0  2  0  0  0  0  0  0
  -29.6550  -12.9240   17.6200 C   0  0  0  0  0  2  0  0  0  0  0  0
  -28.2620  -12.6000   18.1660 C   0  0  0  0  0  2  0  0  0  0  0  0
  -27.8380  -13.6270   19.2420 C   0  0  0  0  0  3  0  0  0  0  0  0
  -28.9470  -14.0270   20.2700 C   0  0  0  0  0  2  0  0  0  0  0  0
  -30.1330  -14.5630   19.5510 N   0  0  0  0  0  0  0  0  0  0  0  0
  -31.8680  -15.6740   18.8970 O   0  0  0  0  0  0  0  0  0  0  0  0
  -30.5310  -17.3510   20.0270 N   0  0  0  0  0  0  0  0  0  0  0  0
  -25.5710  -14.1710   20.2440 C   0  0  0  0  0  0  0  0  0  0  0  0
  -24.5250  -13.4050   20.6870 C   0  0  0  0  0  0  0  0  0  0  0  0
  -24.9440  -12.0470   20.5480 C   0  0  0  0  0  0  0  0  0  0  0  0
  -26.5600  -13.2860   19.8640 N   0  0  0  0  0  0  0  0  0  0  0  0
  -26.2010  -11.9930   20.1030 N   0  0  0  0  0  0  0  0  0  0  0  0
  -24.1880  -10.8000   20.7610 C   0  0  0  0  0  0  0  0  0  0  0  0
  -24.6290   -9.8090   21.6650 C   0  0  0  0  0  3  0  0  0  0  0  0
  -23.8690   -8.6350   21.8720 C   0  0  0  0  0  3  0  0  0  0  0  0
  -22.6550   -8.4400   21.1710 C   0  0  0  0  0  0  0  0  0  0  0  0
  -22.2320   -9.4200   20.2540 C   0  0  0  0  0  3  0  0  0  0  0  0
  -22.9910  -10.5840   20.0470 C   0  0  0  0  0  3  0  0  0  0  0  0
  -21.8680   -7.3180   21.2870 O   0  0  0  0  0  0  0  0  0  0  0  0
  -21.8160   -6.5870   22.4460 C   0  0  0  0  0  0  0  0  0  0  0  0
  -21.3980   -7.1620   23.6670 C   0  0  0  0  0  3  0  0  0  0  0  0
  -21.2880   -6.3620   24.8200 C   0  0  0  0  0  3  0  0  0  0  0  0
  -21.5910   -4.9870   24.7570 C   0  0  0  0  0  0  0  0  0  0  0  0
  -22.0010   -4.4120   23.5430 C   0  0  0  0  0  3  0  0  0  0  0  0
  -22.1090   -5.2100   22.3900 C   0  0  0  0  0  0  0  0  0  0  0  0
  -22.4840   -4.6470   21.2170 F   0  0  0  0  0  0  0  0  0  0  0  0
  -21.4810   -4.2160   25.8650 F   0  0  0  0  0  0  0  0  0  0  0  0
  -23.1820  -13.9160   21.1170 C   0  0  0  0  0  0  0  0  0  0  0  0
  -22.5290  -13.2200   22.0430 N   0  0  0  0  0  0  0  0  0  0  0  0
  -22.7270  -14.9660   20.6710 O   0  0  0  0  0  0  0  0  0  0  0  0
  -22.9150  -12.3730   22.4310 H   0  0  0  0  0  0  0  0  0  0  0  0
  -21.6280  -13.5430   22.3620 H   0  0  0  0  0  0  0  0  0  0  0  0
  -25.7580  -15.5410   20.1070 N   0  0  0  0  0  0  0  0  0  0  0  0
  -25.0400  -16.2170   20.3400 H   0  0  0  0  0  0  0  0  0  0  0  0
  -26.6080  -15.9760   19.7680 H   0  0  0  0  0  0  0  0  0  0  0  0
  -31.8670  -17.6100   20.7180 C   0  0  0  0  0  2  0  0  0  0  0  0
  -33.2980  -19.4860   21.8120 C   0  0  0  0  0  1  0  0  0  0  0  0
  -32.0120  -18.6130   21.9160 C   0  0  0  0  0  2  0  0  0  0  0  0
  -28.1780  -24.0090   19.2190 C   0  0  0  0  0  2  0  0  0  0  0  0
  -28.3250  -25.7100   19.5850 O   0  0  0  0  0  0  0  0  0  0  0  0
  -24.6830  -31.6940   22.8430 C   0  0  0  0  0  0  0  0  0  0  0  0
  -27.3080  -26.8820   19.5540 C   0  0  0  0  0  0  0  0  0  0  0  0
  -23.4900  -30.3240   21.1830 C   0  0  0  0  0  3  0  0  0  0  0  0
  -24.9520  -28.8030   19.6510 C   0  0  0  0  0  0  0  0  0  0  0  0
  -26.0530  -30.5840   20.9750 C   0  0  0  0  0  2  0  0  0  0  0  0
  -26.1510  -29.1880   20.2590 C   0  0  0  0  0  0  0  0  0  0  0  0
  -27.3080  -28.2550   20.1850 C   0  0  0  0  0  3  0  0  0  0  0  0
  -26.0680  -26.7050   18.8850 C   0  0  0  0  0  3  0  0  0  0  0  0
  -24.9470  -27.5880   18.9390 C   0  0  0  0  0  3  0  0  0  0  0  0
  -23.7070  -29.6920   19.7750 C   0  0  0  0  0  2  0  0  0  0  0  0
  -24.7680  -30.8980   21.7210 N   0  0  0  0  0  0  0  0  0  0  0  0
  -23.6030  -31.9250   23.4080 O   0  0  0  0  0  0  0  0  0  0  0  0
  -22.8480  -29.2780   22.1360 C   0  0  0  0  0  0  0  0  0  0  0  0
  -21.5190  -29.0690   22.0500 N   0  0  0  0  0  0  0  0  0  0  0  0
  -23.5580  -28.6510   22.9260 O   0  0  0  0  0  0  0  0  0  0  0  0
  -20.9940  -29.6360   21.3970 H   0  0  0  0  0  0  0  0  0  0  0  0
  -18.2140  -27.6520   22.5810 C   0  0  0  0  0  0  0  0  0  0  0  0
  -20.7600  -28.0640   22.8060 C   0  0  0  0  0  3  0  0  0  0  0  0
  -20.9310  -26.6540   22.1950 C   0  0  0  0  0  2  0  0  0  0  0  0
  -19.8340  -26.2940   21.1880 C   0  0  0  0  0  2  0  0  0  0  0  0
  -18.4590  -26.3370   21.8600 C   0  0  0  0  0  2  0  0  0  0  0  0
  -19.2940  -28.4710   23.0100 C   0  0  0  0  0  0  0  0  0  0  0  0
  -19.0080  -29.6950   23.6510 C   0  0  0  0  0  3  0  0  0  0  0  0
  -17.6770  -30.1040   23.8650 C   0  0  0  0  0  3  0  0  0  0  0  0
  -16.6150  -29.2850   23.4450 C   0  0  0  0  0  3  0  0  0  0  0  0
  -16.8850  -28.0600   22.8100 C   0  0  0  0  0  3  0  0  0  0  0  0
  -25.9470  -32.3640   23.4650 C   0  0  0  0  0  3  0  0  0  0  0  0
  -26.5510  -31.5480   24.6770 C   0  0  1  0  0  0  0  0  0  0  0  0
  -25.5170  -31.1950   25.7740 C   0  0  0  0  0  1  0  0  0  0  0  0
  -27.1800  -30.2230   24.1940 C   0  0  0  0  0  1  0  0  0  0  0  0
  -27.6880  -32.3580   25.3420 C   0  0  0  0  0  1  0  0  0  0  0  0
  -25.5720  -33.7200   23.9150 N   0  0  0  0  0  0  0  0  0  0  0  0
  -25.8920  -34.8590   23.2860 C   0  0  0  0  0  0  0  0  0  0  0  0
  -26.5910  -34.8820   22.2700 O   0  0  0  0  0  0  0  0  0  0  0  0
  -24.9480  -33.7720   24.7090 H   0  0  0  0  0  0  0  0  0  0  0  0
  -24.1260  -36.6490   23.0840 C   0  0  0  0  0  1  0  0  0  0  0  0
  -25.3590  -36.1830   23.8750 C   0  0  0  0  0  3  0  0  0  0  0  0
  -27.4390  -37.0480   24.8540 C   0  0  0  0  0  1  0  0  0  0  0  0
  -26.3640  -37.2690   23.8920 N   0  0  0  0  0  0  0  0  0  0  0  0
  -25.9260  -38.1620   24.1020 H   0  0  0  0  0  0  0  0  0  0  0  0
  1  5  2  0
  1  2  1  0
  2  3  2  0
  3  6  1  0
  3  7  1  0
  4 18  1  0
  4  6  2  0
  5  4  1  0
  6  9  1  0
  8  5  1  0
 10 16  1  0
 10 18  1  0
 11 16  1  0
 12 13  1  0
 12 11  1  0
 14 13  1  0
 14 22  1  0
 14 15  1  0
 16 15  1  0
 17 10  2  0
 18 47  1  0
 19 20  2  0
 20 39  1  0
 21 20  1  0
 21 24  1  0
 22 23  1  0
 22 19  1  0
 23 21  2  0
 24 25  1  0
 25 26  2  0
 27 30  1  0
 27 26  1  0
 28 27  2  0
 29 28  1  0
 29 24  2  0
 30 31  1  0
 31 32  1  0
 32 33  2  0
 34 33  1  0
 34 38  1  0
 35 34  2  0
 36 31  2  0
 36 35  1  0
 37 36  1  0
 39 40  1  0
 40 43  1  0
 40 42  1  0
 41 39  2  0
 44 19  1  0
 44 45  1  0
 46 44  1  0
 47 49  1  0
 48 49  1  0
 50  2  1  0
 50 51  1  0
 52 63  2  0
 53 51  1  0
 53 58  1  0
 54 62  1  0
 54 64  1  0
 55 61  1  0
 55 57  1  0
 56 62  1  0
 57 56  1  0
 58 57  2  0
 59 60  1  0
 59 53  2  0
 60 55  2  0
 61 54  1  0
 62 52  1  0
 64 66  2  0
 65 64  1  0
 67 65  1  0
 68 77  2  0
 68 73  1  0
 69 65  1  0
 69 73  1  0
 70 69  1  0
 71 72  1  0
 71 70  1  0
 72 68  1  0
 73 74  2  0
 74 75  1  0
 76 75  2  0
 77 76  1  0
 78 52  1  0
 78 83  1  0
 78 79  1  0
 79 82  1  1
 79 80  1  0
 81 79  1  0
 83 86  1  0
 84 88  1  0
 84 83  1  0
 85 84  2  0
 88 87  1  0
 88 90  1  0
 90 91  1  0
 90 89  1  0
M  ISO  4  10 100  18 100  50 101  51 101
M  END
>  <TORSDO>  (25) 
F 19

>  <SCORE>  (25) 
-13.311

>  <name>  (25) 
25

>  <ligand_id>  (25) 
25

>  <original_smiles>  (25) 
[H]c1c([H])c([H])c2c(c1[H])C([H])([H])C([H])([H])C([H])([H])C2([H])N([H])C(=O)C1([H])N(C(=O)C([H])(N([H])C(=O)C([H])(N([H])C([H])([H])[H])C([H])([H])[H])C(C([H])([H])[H])(C([H])([H])[H])C([H])([H])[H])C([H])([H])c2c([H])c(OC([H])([H])c3c([H])c(Cl)c(N(C(=O)N4C([H])([H])C([H])([H])C([H])([H])C([H])(n5nc(-c6c([H])c([H])c(Oc7c([H])c([H])c(F)c([H])c7F)c([H])c6[H])c(C(=O)N([H])[H])c5N([H])[H])C4([H])[H])C([H])([H])C([H])([H])C([H])([H])[H])c(Cl)c3C([H])([H])[H])c([H])c([H])c2C1([H])[H]

>  <smiles>  (25) 
[H]c1c([H])c([H])c2c(c1[H])C([H])([H])C([H])([H])C([H])([H])C2([H])N([H])C(=O)C1([H])N(C(=O)C([H])(N([H])C(=O)C([H])(N([H])C([H])([H])[H])C([H])([H])[H])C(C([H])([H])[H])(C([H])([H])[H])C([H])([H])[H])C([H])([H])c2c([H])c(OC([H])([H])c3c([H])c(Cl)c(N(C(=O)N4C([H])([H])C([H])([H])C([H])([H])C([H])(n5nc(-c6c([H])c([H])c(Oc7c([H])c([H])c(F)c([H])c7F)c([H])c6[H])c(C(=O)N([H])[H])c5N([H])[H])C4([H])[H])C([H])([H])C([H])([H])C([H])([H])[H])c(Cl)c3C([H])([H])[H])c([H])c([H])c2C1([H])[H]

$$$$
26:0:0
     RDKit          3D

 95103  0  0  1  0  0  0  0  0999 V2000
  -28.5720  -21.5550   20.4230 C   0  0  0  0  0  2  0  0  0  0  0  0
  -29.9430  -19.4940   21.2910 C   0  0  0  0  0  3  0  0  0  0  0  0
  -29.1320  -20.0730   20.2770 C   0  0  0  0  0  0  0  0  0  0  0  0
  -28.6950  -19.1730   19.2500 C   0  0  0  0  0  0  0  0  0  0  0  0
  -29.7310  -17.1880   20.3770 C   0  0  0  0  0  0  0  0  0  0  0  0
  -30.2280  -18.0960   21.3480 C   0  0  0  0  0  0  0  0  0  0  0  0
  -28.9780  -17.7600   19.3110 C   0  0  0  0  0  0  0  0  0  0  0  0
  -27.8300  -19.7170   18.1150 C   0  0  0  0  0  1  0  0  0  0  0  0
  -31.1260  -17.4950   22.6980 Cl  0  0  0  0  0  0  0  0  0  0  0  0
  -28.3160  -16.6860   18.1210 Cl  0  0  0  0  0  0  0  0  0  0  0  0
  -30.5470  -14.7320   20.1590 C   0  0  0  0  0  0  0  0  0  0  0  0
  -30.3530  -12.4840   19.1080 C   0  0  0  0  0  2  0  0  0  0  0  0
  -29.3770  -12.6020   17.9160 C   0  0  0  0  0  2  0  0  0  0  0  0
  -27.9130  -12.4430   18.3790 C   0  0  0  0  0  2  0  0  0  0  0  0
  -27.5810  -13.2930   19.6360 C   0  0  0  0  0  3  0  0  0  0  0  0
  -28.6700  -13.1320   20.7190 C   0  0  0  0  0  2  0  0  0  0  0  0
  -29.9630  -13.4930   20.1120 N   0  0  0  0  0  0  0  0  0  0  0  0
  -31.6800  -14.9270   19.7110 O   0  0  0  0  0  0  0  0  0  0  0  0
  -29.7440  -15.7410   20.6180 N   0  0  0  0  0  0  0  0  0  0  0  0
  -28.8890  -15.3940   21.0240 H   0  0  0  0  0  0  0  0  0  0  0  0
  -25.2060  -13.8750   20.4280 C   0  0  0  0  0  0  0  0  0  0  0  0
  -24.1530  -13.0950   20.8210 C   0  0  0  0  0  0  0  0  0  0  0  0
  -24.6190  -11.7470   20.7610 C   0  0  0  0  0  0  0  0  0  0  0  0
  -26.2460  -13.0010   20.1520 N   0  0  0  0  0  0  0  0  0  0  0  0
  -25.9000  -11.7140   20.4140 N   0  0  0  0  0  0  0  0  0  0  0  0
  -23.9040  -10.4800   20.9600 C   0  0  0  0  0  0  0  0  0  0  0  0
  -24.3360   -9.5250   21.9080 C   0  0  0  0  0  3  0  0  0  0  0  0
  -23.6190   -8.3240   22.0930 C   0  0  0  0  0  3  0  0  0  0  0  0
  -22.4560   -8.0660   21.3310 C   0  0  0  0  0  0  0  0  0  0  0  0
  -22.0430   -9.0080   20.3710 C   0  0  0  0  0  3  0  0  0  0  0  0
  -22.7620  -10.2000   20.1840 C   0  0  0  0  0  3  0  0  0  0  0  0
  -21.7150   -6.9130   21.4200 O   0  0  0  0  0  0  0  0  0  0  0  0
  -21.6220   -6.2080   22.5930 C   0  0  0  0  0  0  0  0  0  0  0  0
  -21.1010   -6.7870   23.7710 C   0  0  0  0  0  3  0  0  0  0  0  0
  -20.9580   -6.0080   24.9360 C   0  0  0  0  0  3  0  0  0  0  0  0
  -21.3270   -4.6490   24.9240 C   0  0  0  0  0  0  0  0  0  0  0  0
  -21.8410   -4.0690   23.7530 C   0  0  0  0  0  3  0  0  0  0  0  0
  -21.9870   -4.8470   22.5890 C   0  0  0  0  0  0  0  0  0  0  0  0
  -22.4630   -4.2790   21.4550 F   0  0  0  0  0  0  0  0  0  0  0  0
  -21.1830   -3.8960   26.0400 F   0  0  0  0  0  0  0  0  0  0  0  0
  -22.7630  -13.5650   21.1370 C   0  0  0  0  0  0  0  0  0  0  0  0
  -22.0660  -12.8560   22.0200 N   0  0  0  0  0  0  0  0  0  0  0  0
  -22.3070  -14.5930   20.6420 O   0  0  0  0  0  0  0  0  0  0  0  0
  -22.4510  -12.0260   22.4410 H   0  0  0  0  0  0  0  0  0  0  0  0
  -21.1370  -13.1510   22.2830 H   0  0  0  0  0  0  0  0  0  0  0  0
  -25.3580  -15.2470   20.2540 N   0  0  0  0  0  0  0  0  0  0  0  0
  -24.5880  -15.8920   20.3980 H   0  0  0  0  0  0  0  0  0  0  0  0
  -26.1530  -15.6790   19.8010 H   0  0  0  0  0  0  0  0  0  0  0  0
  -29.4690  -22.7530   20.2100 N   0  0  0  0  0  4  0  0  0  0  0  0
  -30.1390  -22.4580   19.5170 H   0  0  0  0  0  0  0  0  0  0  0  0
  -29.9970  -22.9190   21.0510 H   0  0  0  0  0  0  0  0  0  0  0  0
  -28.8880  -24.0720   19.6860 C   0  0  0  0  0  2  0  0  0  0  0  0
  -29.4220  -25.3050   21.8900 C   0  0  0  0  0  1  0  0  0  0  0  0
  -28.4530  -25.2240   20.7060 C   0  0  0  0  0  3  0  0  0  0  0  0
  -28.4540  -26.6130   20.1860 O   0  0  0  0  0  0  0  0  0  0  0  0
  -24.5890  -31.9080   23.2650 C   0  0  0  0  0  0  0  0  0  0  0  0
  -27.2910  -27.3900   20.2370 C   0  0  0  0  0  0  0  0  0  0  0  0
  -23.4130  -30.4900   21.6180 C   0  0  0  0  0  3  0  0  0  0  0  0
  -24.8940  -28.9450   20.2160 C   0  0  0  0  0  0  0  0  0  0  0  0
  -25.9470  -30.8420   21.4540 C   0  0  0  0  0  2  0  0  0  0  0  0
  -26.0510  -29.4630   20.8130 C   0  0  0  0  0  0  0  0  0  0  0  0
  -27.2530  -28.6970   20.8110 C   0  0  0  0  0  3  0  0  0  0  0  0
  -26.1100  -26.9080   19.6360 C   0  0  0  0  0  3  0  0  0  0  0  0
  -24.9240  -27.6710   19.6230 C   0  0  0  0  0  3  0  0  0  0  0  0
  -23.6460  -29.8050   20.2450 C   0  0  0  0  0  2  0  0  0  0  0  0
  -24.6670  -31.0980   22.1700 N   0  0  0  0  0  0  0  0  0  0  0  0
  -23.4980  -32.1750   23.7920 O   0  0  0  0  0  0  0  0  0  0  0  0
  -22.7530  -29.4700   22.5780 C   0  0  0  0  0  0  0  0  0  0  0  0
  -21.4300  -29.2830   22.4430 N   0  0  0  0  0  0  0  0  0  0  0  0
  -23.4340  -28.8510   23.4000 O   0  0  0  0  0  0  0  0  0  0  0  0
  -20.9420  -29.8330   21.7490 H   0  0  0  0  0  0  0  0  0  0  0  0
  -18.0620  -28.0670   22.9250 C   0  0  0  0  0  0  0  0  0  0  0  0
  -20.6160  -28.3410   23.2100 C   0  0  0  0  0  3  0  0  0  0  0  0
  -20.7300  -26.9090   22.6350 C   0  0  0  0  0  2  0  0  0  0  0  0
  -19.6370  -26.5830   21.6130 C   0  0  0  0  0  2  0  0  0  0  0  0
  -18.2500  -26.7200   22.2470 C   0  0  0  0  0  2  0  0  0  0  0  0
  -19.1730  -28.8350   23.3620 C   0  0  0  0  0  0  0  0  0  0  0  0
  -18.9450  -30.0950   23.9580 C   0  0  0  0  0  3  0  0  0  0  0  0
  -17.6360  -30.5870   24.1190 C   0  0  0  0  0  3  0  0  0  0  0  0
  -16.5390  -29.8160   23.6980 C   0  0  0  0  0  3  0  0  0  0  0  0
  -16.7520  -28.5570   23.1060 C   0  0  0  0  0  3  0  0  0  0  0  0
  -25.8590  -32.5550   23.8960 C   0  0  0  0  0  3  0  0  0  0  0  0
  -26.3610  -31.8090   25.1940 C   0  0  1  0  0  0  0  0  0  0  0  0
  -25.2550  -31.5890   26.2520 C   0  0  0  0  0  1  0  0  0  0  0  0
  -26.9570  -30.4280   24.8360 C   0  0  0  0  0  1  0  0  0  0  0  0
  -27.4960  -32.6230   25.8580 C   0  0  0  0  0  1  0  0  0  0  0  0
  -25.5390  -33.9560   24.2000 N   0  0  0  0  0  0  0  0  0  0  0  0
  -25.8720  -34.9990   23.4280 C   0  0  0  0  0  0  0  0  0  0  0  0
  -26.5530  -34.8840   22.4040 O   0  0  0  0  0  0  0  0  0  0  0  0
  -24.9390  -34.1210   24.9940 H   0  0  0  0  0  0  0  0  0  0  0  0
  -24.1420  -36.7810   23.0260 C   0  0  0  0  0  1  0  0  0  0  0  0
  -25.3740  -36.3910   23.8590 C   0  0  0  0  0  3  0  0  0  0  0  0
  -27.4930  -37.3000   24.7060 C   0  0  0  0  0  1  0  0  0  0  0  0
  -26.4040  -37.4470   23.7430 N   0  0  0  0  0  0  0  0  0  0  0  0
  -25.9900  -38.3670   23.8700 H   0  0  0  0  0  0  0  0  0  0  0  0
  2  6  1  0
  3  1  1  0
  3  2  2  0
  4  7  2  0
  4  3  1  0
  5 19  1  0
  5  6  2  0
  6  9  1  0
  7  5  1  0
  8  4  1  0
 10  7  1  0
 11 19  1  0
 12 17  1  0
 13 14  1  0
 13 12  1  0
 15 14  1  0
 15 24  1  0
 15 16  1  0
 17 11  1  0
 17 16  1  0
 18 11  2  0
 19 20  1  0
 21 22  2  0
 22 41  1  0
 23 22  1  0
 23 26  1  0
 24 25  1  0
 24 21  1  0
 25 23  2  0
 26 27  1  0
 27 28  2  0
 29 32  1  0
 29 28  1  0
 30 29  2  0
 31 30  1  0
 31 26  2  0
 32 33  1  0
 33 34  1  0
 34 35  2  0
 36 35  1  0
 36 40  1  0
 37 36  2  0
 38 33  2  0
 38 37  1  0
 39 38  1  0
 41 42  1  0
 42 45  1  0
 42 44  1  0
 43 41  2  0
 46 47  1  0
 46 21  1  0
 48 46  1  0
 49  1  1  0
 49 51  1  0
 50 49  1  0
 52 49  1  0
 52 54  1  0
 54 53  1  0
 55 57  1  0
 55 54  1  0
 56 67  2  0
 57 62  1  0
 58 66  1  0
 58 68  1  0
 59 65  1  0
 59 61  1  0
 60 66  1  0
 61 60  1  0
 62 61  2  0
 63 57  2  0
 64 63  1  0
 64 59  2  0
 65 58  1  0
 66 56  1  0
 68 70  2  0
 69 68  1  0
 71 69  1  0
 72 81  2  0
 72 77  1  0
 73 69  1  0
 73 77  1  0
 74 73  1  0
 75 76  1  0
 75 74  1  0
 76 72  1  0
 77 78  2  0
 78 79  1  0
 80 79  2  0
 81 80  1  0
 82 56  1  0
 82 87  1  0
 82 83  1  0
 83 86  1  1
 83 84  1  0
 85 83  1  0
 87 90  1  0
 88 92  1  0
 88 87  1  0
 89 88  2  0
 92 91  1  0
 94 92  1  0
 94 95  1  0
 94 93  1  0
M  ISO  4  11 100  19 100  54 101  55 101
M  END
>  <TORSDO>  (26) 
F 20

>  <SCORE>  (26) 
-13.362

>  <name>  (26) 
26

>  <ligand_id>  (26) 
26

>  <original_smiles>  (26) 
[H]c1c([H])c([H])c2c(c1[H])C([H])([H])C([H])([H])C([H])([H])C2([H])N([H])C(=O)C1([H])N(C(=O)C([H])(N([H])C(=O)C([H])(N([H])C([H])([H])[H])C([H])([H])[H])C(C([H])([H])[H])(C([H])([H])[H])C([H])([H])[H])C([H])([H])c2c([H])c(OC([H])(C([H])([H])[H])C([H])([H])[N+]([H])([H])C([H])([H])c3c([H])c(Cl)c(N([H])C(=O)N4C([H])([H])C([H])([H])C([H])([H])C([H])(n5nc(-c6c([H])c([H])c(Oc7c([H])c([H])c(F)c([H])c7F)c([H])c6[H])c(C(=O)N([H])[H])c5N([H])[H])C4([H])[H])c(Cl)c3C([H])([H])[H])c([H])c([H])c2C1([H])[H]

>  <smiles>  (26) 
[H]c1c([H])c([H])c2c(c1[H])C([H])([H])C([H])([H])C([H])([H])C2([H])N([H])C(=O)C1([H])N(C(=O)C([H])(N([H])C(=O)C([H])(N([H])C([H])([H])[H])C([H])([H])[H])C(C([H])([H])[H])(C([H])([H])[H])C([H])([H])[H])C([H])([H])c2c([H])c(OC([H])(C([H])([H])[H])C([H])([H])[N+]([H])([H])C([H])([H])c3c([H])c(Cl)c(N([H])C(=O)N4C([H])([H])C([H])([H])C([H])([H])C([H])(n5nc(-c6c([H])c([H])c(Oc7c([H])c([H])c(F)c([H])c7F)c([H])c6[H])c(C(=O)N([H])[H])c5N([H])[H])C4([H])[H])c(Cl)c3C([H])([H])[H])c([H])c([H])c2C1([H])[H]

$$$$
27:0:0
     RDKit          3D

 97105  0  0  1  0  0  0  0  0999 V2000
  -30.6760  -19.7210   18.9850 C   0  0  0  0  0  3  0  0  0  0  0  0
  -30.9640  -18.6620   18.0980 C   0  0  0  0  0  0  0  0  0  0  0  0
  -30.1730  -19.4800   20.2800 C   0  0  0  0  0  0  0  0  0  0  0  0
  -30.3360  -17.0290   19.8410 C   0  0  0  0  0  0  0  0  0  0  0  0
  -30.7670  -17.3220   18.5190 C   0  0  0  0  0  0  0  0  0  0  0  0
  -30.0080  -18.1200   20.7020 C   0  0  0  0  0  0  0  0  0  0  0  0
  -30.9660  -16.3190   17.6300 F   0  0  0  0  0  0  0  0  0  0  0  0
  -29.4270  -17.7590   22.2940 Cl  0  0  0  0  0  0  0  0  0  0  0  0
  -30.9260  -14.5840   20.0110 C   0  0  0  0  0  0  0  0  0  0  0  0
  -30.6010  -12.4020   18.9270 C   0  0  0  0  0  2  0  0  0  0  0  0
  -29.6000  -12.6070   17.7690 C   0  0  0  0  0  2  0  0  0  0  0  0
  -28.1450  -12.4880   18.2660 C   0  0  0  0  0  2  0  0  0  0  0  0
  -27.8740  -13.3140   19.5510 C   0  0  0  0  0  3  0  0  0  0  0  0
  -28.9840  -13.0840   20.6030 C   0  0  0  0  0  2  0  0  0  0  0  0
  -30.2740  -13.3890   19.9680 N   0  0  0  0  0  0  0  0  0  0  0  0
  -32.0980  -14.7020   19.6480 O   0  0  0  0  0  0  0  0  0  0  0  0
  -30.1570  -15.6650   20.2940 N   0  0  0  0  0  0  0  0  0  0  0  0
  -29.2850  -15.4790   20.7660 H   0  0  0  0  0  0  0  0  0  0  0  0
  -25.5280  -13.9340   20.3990 C   0  0  0  0  0  0  0  0  0  0  0  0
  -24.4670  -13.1650   20.7980 C   0  0  0  0  0  0  0  0  0  0  0  0
  -24.9050  -11.8090   20.7070 C   0  0  0  0  0  0  0  0  0  0  0  0
  -26.5450  -13.0440   20.0930 N   0  0  0  0  0  0  0  0  0  0  0  0
  -26.1780  -11.7590   20.3380 N   0  0  0  0  0  0  0  0  0  0  0  0
  -24.1680  -10.5510   20.8950 C   0  0  0  0  0  0  0  0  0  0  0  0
  -24.5400   -9.6210   21.8900 C   0  0  0  0  0  3  0  0  0  0  0  0
  -23.8060   -8.4280   22.0650 C   0  0  0  0  0  3  0  0  0  0  0  0
  -22.6870   -8.1580   21.2430 C   0  0  0  0  0  0  0  0  0  0  0  0
  -22.3350   -9.0770   20.2390 C   0  0  0  0  0  3  0  0  0  0  0  0
  -23.0700  -10.2610   20.0630 C   0  0  0  0  0  3  0  0  0  0  0  0
  -21.9300   -7.0150   21.3230 O   0  0  0  0  0  0  0  0  0  0  0  0
  -21.6830   -6.3960   22.5230 C   0  0  0  0  0  0  0  0  0  0  0  0
  -20.9980   -7.0500   23.5710 C   0  0  0  0  0  3  0  0  0  0  0  0
  -20.7050   -6.3550   24.7620 C   0  0  0  0  0  3  0  0  0  0  0  0
  -21.0870   -5.0070   24.9040 C   0  0  0  0  0  0  0  0  0  0  0  0
  -21.7640   -4.3540   23.8590 C   0  0  0  0  0  3  0  0  0  0  0  0
  -22.0580   -5.0460   22.6710 C   0  0  0  0  0  0  0  0  0  0  0  0
  -22.6920   -4.4040   21.6600 F   0  0  0  0  0  0  0  0  0  0  0  0
  -20.7980   -4.3380   26.0450 F   0  0  0  0  0  0  0  0  0  0  0  0
  -23.0900  -13.6540   21.1470 C   0  0  0  0  0  0  0  0  0  0  0  0
  -22.3950  -12.9410   22.0280 N   0  0  0  0  0  0  0  0  0  0  0  0
  -22.6420  -14.6980   20.6770 O   0  0  0  0  0  0  0  0  0  0  0  0
  -22.7720  -12.0950   22.4300 H   0  0  0  0  0  0  0  0  0  0  0  0
  -21.4730  -13.2450   22.3060 H   0  0  0  0  0  0  0  0  0  0  0  0
  -25.7040  -15.3060   20.2520 N   0  0  0  0  0  0  0  0  0  0  0  0
  -24.9550  -15.9680   20.4230 H   0  0  0  0  0  0  0  0  0  0  0  0
  -26.5400  -15.7410   19.8830 H   0  0  0  0  0  0  0  0  0  0  0  0
  -30.5860  -18.5390   15.5660 C   0  0  0  0  0  1  0  0  0  0  0  0
  -32.9510  -18.4900   16.5240 C   0  0  0  0  0  1  0  0  0  0  0  0
  -31.5110  -18.9970   16.7090 C   0  0  0  0  0  3  0  0  0  0  0  0
  -29.9350  -20.6950   21.2110 C   0  0  0  0  0  2  0  0  0  0  0  0
  -28.9300  -21.7130   20.7680 N   0  0  0  0  0  4  0  0  0  0  0  0
  -28.4580  -21.9890   21.6120 H   0  0  0  0  0  0  0  0  0  0  0  0
  -28.2350  -21.2740   20.1850 H   0  0  0  0  0  0  0  0  0  0  0  0
  -29.4250  -22.9760   20.1330 C   0  0  0  0  0  2  0  0  0  0  0  0
  -28.6200  -24.2560   20.5370 C   0  0  0  0  0  2  0  0  0  0  0  0
  -28.9750  -25.5220   19.7040 C   0  0  0  0  0  2  0  0  0  0  0  0
  -28.7470  -26.7920   20.3560 O   0  0  0  0  0  0  0  0  0  0  0  0
  -24.5710  -31.8400   23.1810 C   0  0  0  0  0  0  0  0  0  0  0  0
  -27.5330  -27.4520   20.2690 C   0  0  0  0  0  0  0  0  0  0  0  0
  -23.5100  -30.3860   21.4870 C   0  0  0  0  0  3  0  0  0  0  0  0
  -25.0890  -28.8900   20.1560 C   0  0  0  0  0  0  0  0  0  0  0  0
  -26.0310  -30.8260   21.4280 C   0  0  0  0  0  2  0  0  0  0  0  0
  -26.1950  -29.4520   20.7980 C   0  0  0  0  0  0  0  0  0  0  0  0
  -27.4180  -28.7400   20.8510 C   0  0  0  0  0  3  0  0  0  0  0  0
  -26.3990  -26.9030   19.6280 C   0  0  0  0  0  3  0  0  0  0  0  0
  -25.1830  -27.6120   19.5760 C   0  0  0  0  0  3  0  0  0  0  0  0
  -23.8200  -29.7110   20.1260 C   0  0  0  0  0  2  0  0  0  0  0  0
  -24.7200  -31.0330   22.0920 N   0  0  0  0  0  0  0  0  0  0  0  0
  -23.4520  -32.0800   23.6560 O   0  0  0  0  0  0  0  0  0  0  0  0
  -22.8420  -29.3470   22.4140 C   0  0  0  0  0  0  0  0  0  0  0  0
  -21.5240  -29.1550   22.2470 N   0  0  0  0  0  0  0  0  0  0  0  0
  -23.5080  -28.7160   23.2380 O   0  0  0  0  0  0  0  0  0  0  0  0
  -21.0500  -29.7180   21.5550 H   0  0  0  0  0  0  0  0  0  0  0  0
  -18.1320  -27.9850   22.6830 C   0  0  0  0  0  0  0  0  0  0  0  0
  -20.6910  -28.2000   22.9770 C   0  0  0  0  0  3  0  0  0  0  0  0
  -20.7810  -26.7900   22.3470 C   0  0  0  0  0  2  0  0  0  0  0  0
  -19.6800  -26.5200   21.3160 C   0  0  0  0  0  2  0  0  0  0  0  0
  -18.2960  -26.6580   21.9610 C   0  0  0  0  0  2  0  0  0  0  0  0
  -19.2590  -28.7170   23.1450 C   0  0  0  0  0  0  0  0  0  0  0  0
  -19.0550  -29.9620   23.7780 C   0  0  0  0  0  3  0  0  0  0  0  0
  -17.7560  -30.4750   23.9570 C   0  0  0  0  0  3  0  0  0  0  0  0
  -16.6440  -29.7370   23.5130 C   0  0  0  0  0  3  0  0  0  0  0  0
  -16.8330  -28.4950   22.8820 C   0  0  0  0  0  3  0  0  0  0  0  0
  -25.7960  -32.5190   23.8680 C   0  0  0  0  0  3  0  0  0  0  0  0
  -25.4160  -33.9030   24.1810 N   0  0  0  0  0  0  0  0  0  0  0  0
  -25.7450  -34.9670   23.4380 C   0  0  0  0  0  0  0  0  0  0  0  0
  -26.4710  -34.8910   22.4440 O   0  0  0  0  0  0  0  0  0  0  0  0
  -24.7650  -34.0330   24.9430 H   0  0  0  0  0  0  0  0  0  0  0  0
  -23.9730  -36.6950   22.9910 C   0  0  0  0  0  1  0  0  0  0  0  0
  -25.1820  -36.3340   23.8690 C   0  0  0  0  0  3  0  0  0  0  0  0
  -27.2260  -37.3000   24.8300 C   0  0  0  0  0  1  0  0  0  0  0  0
  -26.1790  -37.4250   23.8180 N   0  0  0  0  0  0  0  0  0  0  0  0
  -25.7290  -38.3280   23.9410 H   0  0  0  0  0  0  0  0  0  0  0  0
  -26.2740  -31.7660   25.1710 C   0  0  1  0  0  0  0  0  0  0  0  0
  -25.1320  -31.4760   26.1730 C   0  0  0  0  0  1  0  0  0  0  0  0
  -26.9390  -30.4190   24.8050 C   0  0  0  0  0  1  0  0  0  0  0  0
  -27.3440  -32.6080   25.9040 C   0  0  0  0  0  1  0  0  0  0  0  0
  1  3  1  0
  2  5  1  0
  2  1  2  0
  3  6  2  0
  3 50  1  0
  4 17  1  0
  4  6  1  0
  5  4  2  0
  6  8  1  0
  7  5  1  0
  9 17  1  0
 10 15  1  0
 11 12  1  0
 11 10  1  0
 13 12  1  0
 13 22  1  0
 13 14  1  0
 15  9  1  0
 15 14  1  0
 16  9  2  0
 17 18  1  0
 19 20  2  0
 20 39  1  0
 21 20  1  0
 21 24  1  0
 22 23  1  0
 22 19  1  0
 23 21  2  0
 24 25  1  0
 25 26  2  0
 27 30  1  0
 27 26  1  0
 28 27  2  0
 29 28  1  0
 29 24  2  0
 30 31  1  0
 31 36  2  0
 31 32  1  0
 32 33  2  0
 33 34  1  0
 34 38  1  0
 35 34  2  0
 36 35  1  0
 37 36  1  0
 39 40  1  0
 40 43  1  0
 40 42  1  0
 41 39  2  0
 44 19  1  0
 44 45  1  0
 46 44  1  0
 47 49  1  0
 48 49  1  0
 49  2  1  0
 51 50  1  0
 51 52  1  0
 53 51  1  0
 54 55  1  0
 54 51  1  0
 56 57  1  0
 56 55  1  0
 58 69  2  0
 59 57  1  0
 59 64  1  0
 60 68  1  0
 60 70  1  0
 61 63  1  0
 62 68  1  0
 63 64  2  0
 63 62  1  0
 65 59  2  0
 66 65  1  0
 66 61  2  0
 67 61  1  0
 67 60  1  0
 68 58  1  0
 70 72  2  0
 71 70  1  0
 73 71  1  0
 74 83  2  0
 74 79  1  0
 75 71  1  0
 75 79  1  0
 76 75  1  0
 77 78  1  0
 77 76  1  0
 78 74  1  0
 79 80  2  0
 80 81  1  0
 82 81  2  0
 83 82  1  0
 84 58  1  0
 84 85  1  0
 84 94  1  0
 85 88  1  0
 86 90  1  0
 86 85  1  0
 87 86  2  0
 90 89  1  0
 92 90  1  0
 92 93  1  0
 92 91  1  0
 94 97  1  1
 94 95  1  0
 96 94  1  0
M  ISO  4   9 100  17 100  56 101  57 101
M  END
>  <TORSDO>  (27) 
F 22

>  <SCORE>  (27) 
-11.866

>  <name>  (27) 
27

>  <ligand_id>  (27) 
27

>  <original_smiles>  (27) 
[H]c1c([H])c([H])c2c(c1[H])C([H])([H])C([H])([H])C([H])([H])C2([H])N([H])C(=O)C1([H])N(C(=O)C([H])(N([H])C(=O)C([H])(N([H])C([H])([H])[H])C([H])([H])[H])C(C([H])([H])[H])(C([H])([H])[H])C([H])([H])[H])C([H])([H])c2c([H])c(OC([H])([H])C([H])([H])C([H])([H])[N+]([H])([H])C([H])([H])c3c([H])c(C([H])(C([H])([H])[H])C([H])([H])[H])c(F)c(N([H])C(=O)N4C([H])([H])C([H])([H])C([H])([H])C([H])(n5nc(-c6c([H])c([H])c(Oc7c([H])c([H])c(F)c([H])c7F)c([H])c6[H])c(C(=O)N([H])[H])c5N([H])[H])C4([H])[H])c3Cl)c([H])c([H])c2C1([H])[H]

>  <smiles>  (27) 
[H]c1c([H])c([H])c2c(c1[H])C([H])([H])C([H])([H])C([H])([H])C2([H])N([H])C(=O)C1([H])N(C(=O)C([H])(N([H])C(=O)C([H])(N([H])C([H])([H])[H])C([H])([H])[H])C(C([H])([H])[H])(C([H])([H])[H])C([H])([H])[H])C([H])([H])c2c([H])c(OC([H])([H])C([H])([H])C([H])([H])[N+]([H])([H])C([H])([H])c3c([H])c(C([H])(C([H])([H])[H])C([H])([H])[H])c(F)c(N([H])C(=O)N4C([H])([H])C([H])([H])C([H])([H])C([H])(n5nc(-c6c([H])c([H])c(Oc7c([H])c([H])c(F)c([H])c7F)c([H])c6[H])c(C(=O)N([H])[H])c5N([H])[H])C4([H])[H])c3Cl)c([H])c([H])c2C1([H])[H]

$$$$
28:0:0
     RDKit          3D

 89 97  0  0  1  0  0  0  0  0999 V2000
  -29.3770  -19.8190   21.2180 C   0  0  0  0  0  3  0  0  0  0  0  0
  -29.0480  -21.3190   21.2350 C   0  0  0  0  0  0  0  0  0  0  0  0
  -28.5960  -22.2230   20.1350 C   0  0  0  0  0  0  0  0  0  0  0  0
  -28.9550  -19.7060   19.0250 C   0  0  0  0  0  0  0  0  0  0  0  0
  -29.3820  -18.7970   20.1320 C   0  0  0  0  0  0  0  0  0  0  0  0
  -28.6040  -21.2090   19.0350 C   0  0  0  0  0  0  0  0  0  0  0  0
  -29.1560  -21.9800   22.5980 C   0  0  0  0  0  1  0  0  0  0  0  0
  -28.8230  -19.0060   17.6760 C   0  0  0  0  0  1  0  0  0  0  0  0
  -28.0670  -21.8650   17.5230 Cl  0  0  0  0  0  0  0  0  0  0  0  0
  -30.2930  -15.7650   20.0920 C   0  0  0  0  0  0  0  0  0  0  0  0
  -30.4070  -13.2240   19.2810 C   0  0  0  0  0  2  0  0  0  0  0  0
  -29.4800  -12.8290   18.0950 C   0  0  0  0  0  2  0  0  0  0  0  0
  -28.0640  -12.4800   18.5870 C   0  0  0  0  0  2  0  0  0  0  0  0
  -27.5860  -13.4650   19.6790 C   0  0  0  0  0  3  0  0  0  0  0  0
  -28.6520  -13.7590   20.7590 C   0  0  0  0  0  2  0  0  0  0  0  0
  -29.8010  -14.3890   20.0660 N   0  0  0  0  0  0  0  0  0  0  0  0
  -31.5180  -15.7430   19.8610 O   0  0  0  0  0  0  0  0  0  0  0  0
  -29.4650  -17.0750   20.1990 N   0  0  0  0  0  0  0  0  0  0  0  0
  -28.5260  -16.7380   20.3470 H   0  0  0  0  0  0  0  0  0  0  0  0
  -25.2480  -13.9670   20.5380 C   0  0  0  0  0  0  0  0  0  0  0  0
  -24.2070  -13.1740   20.9280 C   0  0  0  0  0  0  0  0  0  0  0  0
  -24.6820  -11.8290   20.8510 C   0  0  0  0  0  0  0  0  0  0  0  0
  -26.2890  -13.1080   20.2360 N   0  0  0  0  0  0  0  0  0  0  0  0
  -25.9630  -11.8120   20.4900 N   0  0  0  0  0  0  0  0  0  0  0  0
  -23.9690  -10.5580   21.0400 C   0  0  0  0  0  0  0  0  0  0  0  0
  -24.4190   -9.5830   21.9560 C   0  0  0  0  0  3  0  0  0  0  0  0
  -23.7010   -8.3800   22.1360 C   0  0  0  0  0  3  0  0  0  0  0  0
  -22.5160   -8.1440   21.3970 C   0  0  0  0  0  0  0  0  0  0  0  0
  -22.0840   -9.1080   20.4680 C   0  0  0  0  0  3  0  0  0  0  0  0
  -22.8040  -10.3020   20.2890 C   0  0  0  0  0  3  0  0  0  0  0  0
  -21.7700   -6.9940   21.4820 O   0  0  0  0  0  0  0  0  0  0  0  0
  -21.7200   -6.2540   22.6370 C   0  0  0  0  0  0  0  0  0  0  0  0
  -21.2450   -6.7950   23.8500 C   0  0  0  0  0  3  0  0  0  0  0  0
  -21.1440   -5.9800   24.9950 C   0  0  0  0  0  3  0  0  0  0  0  0
  -21.5110   -4.6230   24.9270 C   0  0  0  0  0  0  0  0  0  0  0  0
  -21.9820   -4.0800   23.7190 C   0  0  0  0  0  3  0  0  0  0  0  0
  -22.0820   -4.8930   22.5770 C   0  0  0  0  0  0  0  0  0  0  0  0
  -22.5160   -4.3580   21.4100 F   0  0  0  0  0  0  0  0  0  0  0  0
  -21.4080   -3.8380   26.0250 F   0  0  0  0  0  0  0  0  0  0  0  0
  -22.8150  -13.6380   21.2500 C   0  0  0  0  0  0  0  0  0  0  0  0
  -22.1200  -12.9330   22.1330 N   0  0  0  0  0  0  0  0  0  0  0  0
  -22.3540  -14.6650   20.7520 O   0  0  0  0  0  0  0  0  0  0  0  0
  -22.5040  -12.1050   22.5620 H   0  0  0  0  0  0  0  0  0  0  0  0
  -21.1890  -13.2330   22.3900 H   0  0  0  0  0  0  0  0  0  0  0  0
  -25.3900  -15.3430   20.3820 N   0  0  0  0  0  0  0  0  0  0  0  0
  -24.6150  -15.9780   20.5320 H   0  0  0  0  0  0  0  0  0  0  0  0
  -26.2000  -15.7940   19.9820 H   0  0  0  0  0  0  0  0  0  0  0  0
  -27.8150  -23.9290   20.1430 C   0  0  0  0  0  2  0  0  0  0  0  0
  -28.1320  -25.6460   20.2720 O   0  0  0  0  0  0  0  0  0  0  0  0
  -24.6650  -31.9200   23.2710 C   0  0  0  0  0  0  0  0  0  0  0  0
  -27.1710  -26.8650   20.2350 C   0  0  0  0  0  0  0  0  0  0  0  0
  -23.4670  -30.5370   21.6310 C   0  0  0  0  0  3  0  0  0  0  0  0
  -24.9050  -28.8980   20.2010 C   0  0  0  0  0  0  0  0  0  0  0  0
  -26.0450  -30.6750   21.5010 C   0  0  0  0  0  2  0  0  0  0  0  0
  -26.1050  -29.2480   20.8320 C   0  0  0  0  0  0  0  0  0  0  0  0
  -27.2220  -28.2610   20.8170 C   0  0  0  0  0  3  0  0  0  0  0  0
  -25.9370  -26.7230   19.5510 C   0  0  0  0  0  3  0  0  0  0  0  0
  -24.8600  -27.6610   19.5360 C   0  0  0  0  0  3  0  0  0  0  0  0
  -23.6980  -29.8480   20.2550 C   0  0  0  0  0  2  0  0  0  0  0  0
  -24.7500  -31.0760   22.1860 N   0  0  0  0  0  0  0  0  0  0  0  0
  -23.5750  -32.2210   23.7880 O   0  0  0  0  0  0  0  0  0  0  0  0
  -22.7510  -29.5550   22.5990 C   0  0  0  0  0  0  0  0  0  0  0  0
  -21.4220  -29.3850   22.4600 N   0  0  0  0  0  0  0  0  0  0  0  0
  -23.4050  -28.9440   23.4470 O   0  0  0  0  0  0  0  0  0  0  0  0
  -20.9440  -29.9260   21.7520 H   0  0  0  0  0  0  0  0  0  0  0  0
  -18.0460  -28.1220   22.9310 C   0  0  0  0  0  0  0  0  0  0  0  0
  -20.5970  -28.4430   23.2280 C   0  0  0  0  0  3  0  0  0  0  0  0
  -20.7320  -27.0050   22.6740 C   0  0  0  0  0  2  0  0  0  0  0  0
  -19.6530  -26.6510   21.6460 C   0  0  0  0  0  2  0  0  0  0  0  0
  -18.2590  -26.7730   22.2670 C   0  0  0  0  0  2  0  0  0  0  0  0
  -19.1430  -28.9130   23.3670 C   0  0  0  0  0  0  0  0  0  0  0  0
  -18.8870  -30.1710   23.9550 C   0  0  0  0  0  3  0  0  0  0  0  0
  -17.5680  -30.6420   24.1040 C   0  0  0  0  0  3  0  0  0  0  0  0
  -16.4870  -29.8510   23.6800 C   0  0  0  0  0  3  0  0  0  0  0  0
  -16.7270  -28.5920   23.1010 C   0  0  0  0  0  3  0  0  0  0  0  0
  -25.9320  -32.5640   23.9120 C   0  0  0  0  0  3  0  0  0  0  0  0
  -25.6200  -33.9700   24.2360 N   0  0  0  0  0  0  0  0  0  0  0  0
  -25.9310  -35.0270   23.4720 C   0  0  0  0  0  0  0  0  0  0  0  0
  -26.5680  -34.9200   22.4220 O   0  0  0  0  0  0  0  0  0  0  0  0
  -25.0460  -34.1250   25.0520 H   0  0  0  0  0  0  0  0  0  0  0  0
  -24.1830  -36.8220   23.2030 C   0  0  0  0  0  1  0  0  0  0  0  0
  -25.4680  -36.4210   23.9470 C   0  0  0  0  0  3  0  0  0  0  0  0
  -27.6360  -37.3320   24.6600 C   0  0  0  0  0  1  0  0  0  0  0  0
  -26.4900  -37.4770   23.7660 N   0  0  0  0  0  0  0  0  0  0  0  0
  -26.0870  -38.3990   23.9130 H   0  0  0  0  0  0  0  0  0  0  0  0
  -26.4150  -31.8110   25.2130 C   0  0  1  0  0  0  0  0  0  0  0  0
  -25.3010  -31.6040   26.2680 C   0  0  0  0  0  1  0  0  0  0  0  0
  -26.9910  -30.4200   24.8690 C   0  0  0  0  0  1  0  0  0  0  0  0
  -27.5620  -32.6060   25.8810 C   0  0  0  0  0  1  0  0  0  0  0  0
  1  2  1  0
  2  7  1  0
  3 48  1  0
  3  2  2  0
  4  6  2  0
  4  5  1  0
  5 18  1  0
  5  1  2  0
  6  3  1  0
  8  4  1  0
  9  6  1  0
 10 18  1  0
 11 16  1  0
 12 13  1  0
 12 11  1  0
 14 13  1  0
 14 23  1  0
 14 15  1  0
 16 10  1  0
 16 15  1  0
 17 10  2  0
 18 19  1  0
 20 21  2  0
 21 40  1  0
 22 21  1  0
 22 25  1  0
 23 24  1  0
 23 20  1  0
 24 22  2  0
 25 26  1  0
 26 27  2  0
 28 31  1  0
 28 27  1  0
 29 28  2  0
 30 29  1  0
 30 25  2  0
 31 32  1  0
 32 33  1  0
 33 34  2  0
 35 34  1  0
 35 39  1  0
 36 35  2  0
 37 32  2  0
 37 36  1  0
 38 37  1  0
 40 41  1  0
 41 44  1  0
 41 43  1  0
 42 40  2  0
 45 46  1  0
 45 20  1  0
 47 45  1  0
 48 49  1  0
 50 61  2  0
 51 49  1  0
 51 56  1  0
 52 60  1  0
 52 62  1  0
 53 59  1  0
 53 55  1  0
 54 60  1  0
 55 54  1  0
 56 55  2  0
 57 51  2  0
 58 57  1  0
 58 53  2  0
 59 52  1  0
 60 50  1  0
 62 64  2  0
 63 62  1  0
 65 63  1  0
 66 75  2  0
 66 71  1  0
 67 63  1  0
 67 71  1  0
 68 67  1  0
 69 70  1  0
 69 68  1  0
 70 66  1  0
 71 72  2  0
 72 73  1  0
 74 73  2  0
 75 74  1  0
 76 50  1  0
 76 77  1  0
 76 86  1  0
 77 80  1  0
 78 82  1  0
 78 77  1  0
 79 78  2  0
 82 81  1  0
 84 85  1  0
 84 82  1  0
 84 83  1  0
 86 89  1  1
 86 87  1  0
 88 86  1  0
M  ISO  4  10 100  18 100  48 101  49 101
M  END
>  <TORSDO>  (28) 
F 17

>  <SCORE>  (28) 
-16.628

>  <name>  (28) 
28

>  <ligand_id>  (28) 
28

>  <original_smiles>  (28) 
[H]c1c([H])c([H])c2c(c1[H])C([H])([H])C([H])([H])C([H])([H])C2([H])N([H])C(=O)C1([H])N(C(=O)C([H])(N([H])C(=O)C([H])(N([H])C([H])([H])[H])C([H])([H])[H])C(C([H])([H])[H])(C([H])([H])[H])C([H])([H])[H])C([H])([H])c2c([H])c(OC([H])([H])c3c(Cl)c(C([H])([H])[H])c(N([H])C(=O)N4C([H])([H])C([H])([H])C([H])([H])C([H])(n5nc(-c6c([H])c([H])c(Oc7c([H])c([H])c(F)c([H])c7F)c([H])c6[H])c(C(=O)N([H])[H])c5N([H])[H])C4([H])[H])c([H])c3C([H])([H])[H])c([H])c([H])c2C1([H])[H]

>  <smiles>  (28) 
[H]c1c([H])c([H])c2c(c1[H])C([H])([H])C([H])([H])C([H])([H])C2([H])N([H])C(=O)C1([H])N(C(=O)C([H])(N([H])C(=O)C([H])(N([H])C([H])([H])[H])C([H])([H])[H])C(C([H])([H])[H])(C([H])([H])[H])C([H])([H])[H])C([H])([H])c2c([H])c(OC([H])([H])c3c(Cl)c(C([H])([H])[H])c(N([H])C(=O)N4C([H])([H])C([H])([H])C([H])([H])C([H])(n5nc(-c6c([H])c([H])c(Oc7c([H])c([H])c(F)c([H])c7F)c([H])c6[H])c(C(=O)N([H])[H])c5N([H])[H])C4([H])[H])c([H])c3C([H])([H])[H])c([H])c([H])c2C1([H])[H]

$$$$
29:0:0
     RDKit          3D

 91 99  0  0  1  0  0  0  0  0999 V2000
  -30.3070  -20.5060   20.8220 C   0  0  0  0  0  3  0  0  0  0  0  0
  -28.2430  -20.3340   19.8330 C   0  0  0  0  0  3  0  0  0  0  0  0
  -29.1800  -21.3070   20.3510 C   0  0  0  0  0  0  0  0  0  0  0  0
  -30.4870  -19.0310   20.8110 C   0  0  0  0  0  0  0  0  0  0  0  0
  -28.3970  -18.8530   19.8050 C   0  0  0  0  0  0  0  0  0  0  0  0
  -29.5370  -18.0580   20.2970 C   0  0  0  0  0  0  0  0  0  0  0  0
  -31.7660  -18.4860   21.4180 C   0  0  0  0  0  1  0  0  0  0  0  0
  -30.4360  -15.2610   20.2580 C   0  0  0  0  0  0  0  0  0  0  0  0
  -30.4220  -12.8380   19.3540 C   0  0  0  0  0  2  0  0  0  0  0  0
  -29.4740  -12.6740   18.1390 C   0  0  0  0  0  2  0  0  0  0  0  0
  -28.0290  -12.4040   18.6010 C   0  0  0  0  0  2  0  0  0  0  0  0
  -27.6010  -13.3430   19.7570 C   0  0  0  0  0  3  0  0  0  0  0  0
  -28.6730  -13.4520   20.8620 C   0  0  0  0  0  2  0  0  0  0  0  0
  -29.8980  -13.9520   20.2160 N   0  0  0  0  0  0  0  0  0  0  0  0
  -31.6510  -15.3160   20.0190 O   0  0  0  0  0  0  0  0  0  0  0  0
  -29.5760  -16.4490   20.3460 N   0  0  0  0  0  0  0  0  0  0  0  0
  -28.6310  -16.0970   20.3770 H   0  0  0  0  0  0  0  0  0  0  0  0
  -25.2380  -13.8790   20.5600 C   0  0  0  0  0  0  0  0  0  0  0  0
  -24.1870  -13.0940   20.9400 C   0  0  0  0  0  0  0  0  0  0  0  0
  -24.6600  -11.7480   20.8810 C   0  0  0  0  0  0  0  0  0  0  0  0
  -26.2820  -13.0150   20.2840 N   0  0  0  0  0  0  0  0  0  0  0  0
  -25.9470  -11.7240   20.5450 N   0  0  0  0  0  0  0  0  0  0  0  0
  -23.9420  -10.4820   21.0650 C   0  0  0  0  0  0  0  0  0  0  0  0
  -24.3870   -9.5060   21.9840 C   0  0  0  0  0  3  0  0  0  0  0  0
  -23.6670   -8.3050   22.1580 C   0  0  0  0  0  3  0  0  0  0  0  0
  -22.4860   -8.0710   21.4120 C   0  0  0  0  0  0  0  0  0  0  0  0
  -22.0600   -9.0360   20.4830 C   0  0  0  0  0  3  0  0  0  0  0  0
  -22.7820  -10.2280   20.3070 C   0  0  0  0  0  3  0  0  0  0  0  0
  -21.7350   -6.9240   21.4970 O   0  0  0  0  0  0  0  0  0  0  0  0
  -21.6900   -6.1770   22.6470 C   0  0  0  0  0  0  0  0  0  0  0  0
  -21.2360   -6.7180   23.8690 C   0  0  0  0  0  3  0  0  0  0  0  0
  -21.1400   -5.8960   25.0110 C   0  0  0  0  0  3  0  0  0  0  0  0
  -21.4880   -4.5340   24.9300 C   0  0  0  0  0  0  0  0  0  0  0  0
  -21.9350   -3.9930   23.7120 C   0  0  0  0  0  3  0  0  0  0  0  0
  -22.0330   -4.8110   22.5730 C   0  0  0  0  0  0  0  0  0  0  0  0
  -22.4440   -4.2800   21.3970 F   0  0  0  0  0  0  0  0  0  0  0  0
  -21.3880   -3.7430   26.0230 F   0  0  0  0  0  0  0  0  0  0  0  0
  -22.7930  -13.5630   21.2380 C   0  0  0  0  0  0  0  0  0  0  0  0
  -22.0840  -12.8610   22.1150 N   0  0  0  0  0  0  0  0  0  0  0  0
  -22.3410  -14.5890   20.7300 O   0  0  0  0  0  0  0  0  0  0  0  0
  -22.4630  -12.0320   22.5480 H   0  0  0  0  0  0  0  0  0  0  0  0
  -21.1490  -13.1570   22.3560 H   0  0  0  0  0  0  0  0  0  0  0  0
  -25.3820  -15.2510   20.3980 N   0  0  0  0  0  0  0  0  0  0  0  0
  -24.6030  -15.8850   20.5360 H   0  0  0  0  0  0  0  0  0  0  0  0
  -26.1890  -15.7060   19.9970 H   0  0  0  0  0  0  0  0  0  0  0  0
  -27.1960  -18.1380   19.1970 C   0  0  0  0  0  3  0  0  0  0  0  0
  -26.2450  -18.0140   20.1200 F   0  0  0  0  0  0  0  0  0  0  0  0
  -27.4770  -16.9410   18.6800 F   0  0  0  0  0  0  0  0  0  0  0  0
  -29.1580  -23.0440   20.4260 C   0  0  0  0  0  3  0  0  0  0  0  0
  -28.0360  -24.3870   20.1640 C   0  0  0  0  0  3  0  0  0  0  0  0
  -28.2400  -25.9960   20.3340 O   0  0  0  0  0  0  0  0  0  0  0  0
  -24.6470  -31.9000   23.2630 C   0  0  0  0  0  0  0  0  0  0  0  0
  -27.2070  -27.0520   20.2650 C   0  0  0  0  0  0  0  0  0  0  0  0
  -23.4510  -30.5040   21.6240 C   0  0  0  0  0  3  0  0  0  0  0  0
  -24.8990  -28.8960   20.2100 C   0  0  0  0  0  0  0  0  0  0  0  0
  -26.0150  -30.7220   21.4800 C   0  0  0  0  0  2  0  0  0  0  0  0
  -26.0840  -29.3150   20.8280 C   0  0  0  0  0  0  0  0  0  0  0  0
  -27.2330  -28.4130   20.8280 C   0  0  0  0  0  3  0  0  0  0  0  0
  -25.9900  -26.7670   19.6060 C   0  0  0  0  0  3  0  0  0  0  0  0
  -24.8740  -27.6410   19.5800 C   0  0  0  0  0  3  0  0  0  0  0  0
  -23.6810  -29.8150   20.2490 C   0  0  0  0  0  2  0  0  0  0  0  0
  -24.7250  -31.0680   22.1750 N   0  0  0  0  0  0  0  0  0  0  0  0
  -23.5570  -32.1940   23.7820 O   0  0  0  0  0  0  0  0  0  0  0  0
  -22.7520  -29.5130   22.5890 C   0  0  0  0  0  0  0  0  0  0  0  0
  -21.4220  -29.3510   22.4580 N   0  0  0  0  0  0  0  0  0  0  0  0
  -23.4120  -28.8890   23.4220 O   0  0  0  0  0  0  0  0  0  0  0  0
  -20.9440  -29.9060   21.7610 H   0  0  0  0  0  0  0  0  0  0  0  0
  -18.0320  -28.1630   22.9540 C   0  0  0  0  0  0  0  0  0  0  0  0
  -20.5920  -28.4190   23.2280 C   0  0  0  0  0  3  0  0  0  0  0  0
  -20.6910  -26.9850   22.6570 C   0  0  0  0  0  2  0  0  0  0  0  0
  -19.5910  -26.6640   21.6400 C   0  0  0  0  0  2  0  0  0  0  0  0
  -18.2070  -26.8130   22.2790 C   0  0  0  0  0  2  0  0  0  0  0  0
  -19.1510  -28.9230   23.3860 C   0  0  0  0  0  0  0  0  0  0  0  0
  -18.9320  -30.1850   23.9810 C   0  0  0  0  0  3  0  0  0  0  0  0
  -17.6270  -30.6860   24.1460 C   0  0  0  0  0  3  0  0  0  0  0  0
  -16.5220  -29.9220   23.7300 C   0  0  0  0  0  3  0  0  0  0  0  0
  -16.7260  -28.6630   23.1400 C   0  0  0  0  0  3  0  0  0  0  0  0
  -25.9200  -32.5370   23.8980 C   0  0  0  0  0  3  0  0  0  0  0  0
  -26.4140  -31.7740   25.1890 C   0  0  1  0  0  0  0  0  0  0  0  0
  -25.3070  -31.5520   26.2460 C   0  0  0  0  0  1  0  0  0  0  0  0
  -26.9950  -30.3890   24.8230 C   0  0  0  0  0  1  0  0  0  0  0  0
  -27.5630  -32.5680   25.8580 C   0  0  0  0  0  1  0  0  0  0  0  0
  -25.6080  -33.9390   24.2260 N   0  0  0  0  0  0  0  0  0  0  0  0
  -25.9240  -34.9940   23.4630 C   0  0  0  0  0  0  0  0  0  0  0  0
  -26.5720  -34.8890   22.4180 O   0  0  0  0  0  0  0  0  0  0  0  0
  -25.0300  -34.0940   25.0380 H   0  0  0  0  0  0  0  0  0  0  0  0
  -24.1780  -36.7840   23.1660 C   0  0  0  0  0  1  0  0  0  0  0  0
  -25.4500  -36.3860   23.9310 C   0  0  0  0  0  3  0  0  0  0  0  0
  -27.6080  -37.2900   24.6790 C   0  0  0  0  0  1  0  0  0  0  0  0
  -26.4740  -37.4420   23.7720 N   0  0  0  0  0  0  0  0  0  0  0  0
  -26.0690  -38.3620   23.9220 H   0  0  0  0  0  0  0  0  0  0  0  0
  2  3  1  0
  3 49  1  0
  3  1  2  0
  4  1  1  0
  4  7  1  0
  5  2  2  0
  5  6  1  0
  6 16  1  0
  6  4  2  0
  8 16  1  0
  9 14  1  0
 10 11  1  0
 10  9  1  0
 12 11  1  0
 12 21  1  0
 12 13  1  0
 14  8  1  0
 14 13  1  0
 15  8  2  0
 16 17  1  0
 18 19  2  0
 19 38  1  0
 20 19  1  0
 20 23  1  0
 21 22  1  0
 21 18  1  0
 22 20  2  0
 23 24  1  0
 24 25  2  0
 26 29  1  0
 26 25  1  0
 27 26  2  0
 28 27  1  0
 28 23  2  0
 29 30  1  0
 30 31  1  0
 31 32  2  0
 33 32  1  0
 33 37  1  0
 34 33  2  0
 35 30  2  0
 35 34  1  0
 36 35  1  0
 38 39  1  0
 39 42  1  0
 39 41  1  0
 40 38  2  0
 43 44  1  0
 43 18  1  0
 45 43  1  0
 46  5  1  0
 46 47  1  0
 48 46  1  0
 50 51  1  0
 50 49  2  0
 52 63  2  0
 53 51  1  0
 53 58  1  0
 54 62  1  0
 54 64  1  0
 55 61  1  0
 55 57  1  0
 56 62  1  0
 57 58  2  0
 57 56  1  0
 59 53  2  0
 60 59  1  0
 60 55  2  0
 61 54  1  0
 62 52  1  0
 64 66  2  0
 65 64  1  0
 67 65  1  0
 68 77  2  0
 68 73  1  0
 69 65  1  0
 69 73  1  0
 70 69  1  0
 71 72  1  0
 71 70  1  0
 72 68  1  0
 73 74  2  0
 74 75  1  0
 76 75  2  0
 77 76  1  0
 78 52  1  0
 78 83  1  0
 78 79  1  0
 79 82  1  1
 79 80  1  0
 81 79  1  0
 83 86  1  0
 84 88  1  0
 84 83  1  0
 85 84  2  0
 88 87  1  0
 90 91  1  0
 90 88  1  0
 90 89  1  0
M  ISO  4   8 100  16 100  50 101  51 101
M  END
>  <TORSDO>  (29) 
F 19

>  <SCORE>  (29) 
-15.811

>  <name>  (29) 
29

>  <ligand_id>  (29) 
29

>  <original_smiles>  (29) 
[H]c1c([H])c([H])c2c(c1[H])C([H])([H])C([H])([H])C([H])([H])C2([H])N([H])C(=O)C1([H])N(C(=O)C([H])(N([H])C(=O)C([H])(N([H])C([H])([H])[H])C([H])([H])[H])C(C([H])([H])[H])(C([H])([H])[H])C([H])([H])[H])C([H])([H])c2c([H])c(OC([H])([H])C([H])([H])c3c([H])c(C([H])([H])[H])c(N([H])C(=O)N4C([H])([H])C([H])([H])C([H])([H])C([H])(n5nc(-c6c([H])c([H])c(Oc7c([H])c([H])c(F)c([H])c7F)c([H])c6[H])c(C(=O)N([H])[H])c5N([H])[H])C4([H])[H])c(C([H])(F)F)c3[H])c([H])c([H])c2C1([H])[H]

>  <smiles>  (29) 
[H]c1c([H])c([H])c2c(c1[H])C([H])([H])C([H])([H])C([H])([H])C2([H])N([H])C(=O)C1([H])N(C(=O)C([H])(N([H])C(=O)C([H])(N([H])C([H])([H])[H])C([H])([H])[H])C(C([H])([H])[H])(C([H])([H])[H])C([H])([H])[H])C([H])([H])c2c([H])c(OC([H])([H])C([H])([H])c3c([H])c(C([H])([H])[H])c(N([H])C(=O)N4C([H])([H])C([H])([H])C([H])([H])C([H])(n5nc(-c6c([H])c([H])c(Oc7c([H])c([H])c(F)c([H])c7F)c([H])c6[H])c(C(=O)N([H])[H])c5N([H])[H])C4([H])[H])c(C([H])(F)F)c3[H])c([H])c([H])c2C1([H])[H]

$$$$
30:0:0
     RDKit          3D

 90 97  0  0  1  0  0  0  0  0999 V2000
  -28.9280  -21.1980   18.4240 C   0  0  0  0  0  2  0  0  0  0  0  0
  -28.7220  -21.8820   19.6480 C   0  0  0  0  0  2  0  0  0  0  0  0
  -29.0450  -20.4680   20.3760 C   0  0  0  0  0  0  0  0  0  0  0  0
  -29.4410  -19.1570   19.6890 C   0  0  0  0  0  0  0  0  0  0  0  0
  -29.1640  -19.7420   18.4150 N   0  0  0  0  0  0  0  0  0  0  0  0
  -28.7680  -20.4010   22.0830 Cl  0  0  0  0  0  0  0  0  0  0  0  0
  -30.4760  -16.2170   19.8210 C   0  0  0  0  0  0  0  0  0  0  0  0
  -30.7080  -13.6090   19.1150 C   0  0  0  0  0  2  0  0  0  0  0  0
  -29.7890  -13.0910   17.9620 C   0  0  0  0  0  2  0  0  0  0  0  0
  -28.4140  -12.6680   18.4920 C   0  0  0  0  0  2  0  0  0  0  0  0
  -27.9040  -13.6850   19.5350 C   0  0  0  0  0  3  0  0  0  0  0  0
  -28.9590  -14.1030   20.5890 C   0  0  0  0  0  2  0  0  0  0  0  0
  -30.0580  -14.7950   19.8670 N   0  0  0  0  0  0  0  0  0  0  0  0
  -31.6950  -16.1850   19.5240 O   0  0  0  0  0  0  0  0  0  0  0  0
  -29.6520  -17.5740   20.0140 N   0  0  0  0  0  0  0  0  0  0  0  0
  -28.8610  -17.2840   20.5690 H   0  0  0  0  0  0  0  0  0  0  0  0
  -25.6020  -14.1550   20.4830 C   0  0  0  0  0  0  0  0  0  0  0  0
  -24.5710  -13.3510   20.8660 C   0  0  0  0  0  0  0  0  0  0  0  0
  -25.0440  -12.0080   20.7380 C   0  0  0  0  0  0  0  0  0  0  0  0
  -26.6320  -13.3050   20.1300 N   0  0  0  0  0  0  0  0  0  0  0  0
  -26.3160  -12.0020   20.3510 N   0  0  0  0  0  0  0  0  0  0  0  0
  -24.3330  -10.7340   20.9060 C   0  0  0  0  0  0  0  0  0  0  0  0
  -24.7390   -9.7810   21.8630 C   0  0  0  0  0  3  0  0  0  0  0  0
  -24.0240   -8.5730   22.0260 C   0  0  0  0  0  3  0  0  0  0  0  0
  -22.8830   -8.3150   21.2300 C   0  0  0  0  0  0  0  0  0  0  0  0
  -22.4920   -9.2590   20.2640 C   0  0  0  0  0  3  0  0  0  0  0  0
  -23.2080  -10.4570   20.1000 C   0  0  0  0  0  3  0  0  0  0  0  0
  -22.1400   -7.1620   21.2990 O   0  0  0  0  0  0  0  0  0  0  0  0
  -21.9310   -6.5090   22.4860 C   0  0  0  0  0  0  0  0  0  0  0  0
  -21.2730   -7.1250   23.5720 C   0  0  0  0  0  3  0  0  0  0  0  0
  -21.0160   -6.3920   24.7480 C   0  0  0  0  0  3  0  0  0  0  0  0
  -21.4130   -5.0450   24.8380 C   0  0  0  0  0  0  0  0  0  0  0  0
  -22.0690   -4.4300   23.7580 C   0  0  0  0  0  3  0  0  0  0  0  0
  -22.3240   -5.1570   22.5850 C   0  0  0  0  0  0  0  0  0  0  0  0
  -22.9350   -4.5540   21.5370 F   0  0  0  0  0  0  0  0  0  0  0  0
  -21.1630   -4.3390   25.9660 F   0  0  0  0  0  0  0  0  0  0  0  0
  -23.1890  -13.8060   21.2320 C   0  0  0  0  0  0  0  0  0  0  0  0
  -22.5230  -13.0780   22.1180 N   0  0  0  0  0  0  0  0  0  0  0  0
  -22.7210  -14.8470   20.7730 O   0  0  0  0  0  0  0  0  0  0  0  0
  -22.9200  -12.2330   22.5000 H   0  0  0  0  0  0  0  0  0  0  0  0
  -21.5990  -13.3650   22.4100 H   0  0  0  0  0  0  0  0  0  0  0  0
  -25.7520  -15.5360   20.3720 N   0  0  0  0  0  0  0  0  0  0  0  0
  -24.9800  -16.1740   20.5380 H   0  0  0  0  0  0  0  0  0  0  0  0
  -26.6060  -16.0030   20.0950 H   0  0  0  0  0  0  0  0  0  0  0  0
  -27.2630  -23.6410   21.3050 C   0  0  0  0  0  1  0  0  0  0  0  0
  -26.7200  -23.5090   18.8750 C   0  0  0  0  0  1  0  0  0  0  0  0
  -27.8890  -23.6870   19.8920 C   0  0  0  0  0  3  0  0  0  0  0  0
  -28.1950  -25.5220   19.8560 O   0  0  0  0  0  0  0  0  0  0  0  0
  -24.8700  -31.9450   23.2840 C   0  0  0  0  0  0  0  0  0  0  0  0
  -27.3000  -26.8610   19.9620 C   0  0  0  0  0  0  0  0  0  0  0  0
  -23.6800  -30.6350   21.5940 C   0  0  0  0  0  3  0  0  0  0  0  0
  -25.0930  -29.0370   20.0890 C   0  0  0  0  0  0  0  0  0  0  0  0
  -26.2670  -30.7040   21.4810 C   0  0  0  0  0  2  0  0  0  0  0  0
  -26.2990  -29.2930   20.7480 C   0  0  0  0  0  0  0  0  0  0  0  0
  -27.3800  -28.2340   20.6630 C   0  0  0  0  0  3  0  0  0  0  0  0
  -26.0950  -26.9210   19.2050 C   0  0  0  0  0  3  0  0  0  0  0  0
  -25.0360  -27.8860   19.2970 C   0  0  0  0  0  3  0  0  0  0  0  0
  -23.9090  -30.0240   20.1890 C   0  0  0  0  0  2  0  0  0  0  0  0
  -24.9690  -31.1330   22.1740 N   0  0  0  0  0  0  0  0  0  0  0  0
  -23.7770  -32.2220   23.8080 O   0  0  0  0  0  0  0  0  0  0  0  0
  -22.9630  -29.6120   22.5210 C   0  0  0  0  0  0  0  0  0  0  0  0
  -21.6330  -29.4420   22.3800 N   0  0  0  0  0  0  0  0  0  0  0  0
  -23.6200  -28.9720   23.3440 O   0  0  0  0  0  0  0  0  0  0  0  0
  -21.1440  -30.0070   21.7000 H   0  0  0  0  0  0  0  0  0  0  0  0
  -18.2640  -28.1500   22.8430 C   0  0  0  0  0  0  0  0  0  0  0  0
  -20.8210  -28.4630   23.1180 C   0  0  0  0  0  3  0  0  0  0  0  0
  -20.9540  -27.0560   22.4990 C   0  0  0  0  0  2  0  0  0  0  0  0
  -19.8610  -26.7480   21.4700 C   0  0  0  0  0  2  0  0  0  0  0  0
  -18.4730  -26.8410   22.1090 C   0  0  0  0  0  2  0  0  0  0  0  0
  -19.3670  -28.9220   23.3020 C   0  0  0  0  0  0  0  0  0  0  0  0
  -19.1130  -30.1450   23.9570 C   0  0  0  0  0  3  0  0  0  0  0  0
  -17.7950  -30.6060   24.1480 C   0  0  0  0  0  3  0  0  0  0  0  0
  -16.7080  -29.8400   23.6880 C   0  0  0  0  0  3  0  0  0  0  0  0
  -16.9450  -28.6120   23.0450 C   0  0  0  0  0  3  0  0  0  0  0  0
  -26.1220  -32.5820   23.9510 C   0  0  0  0  0  3  0  0  0  0  0  0
  -25.7900  -33.9670   24.3530 N   0  0  0  0  0  0  0  0  0  0  0  0
  -26.1010  -35.0690   23.6570 C   0  0  0  0  0  0  0  0  0  0  0  0
  -26.7490  -35.0270   22.6110 O   0  0  0  0  0  0  0  0  0  0  0  0
  -25.2060  -34.0710   25.1730 H   0  0  0  0  0  0  0  0  0  0  0  0
  -24.3460  -36.8710   23.4570 C   0  0  0  0  0  1  0  0  0  0  0  0
  -25.6170  -36.4300   24.2040 C   0  0  0  0  0  3  0  0  0  0  0  0
  -27.7640  -37.2990   25.0240 C   0  0  0  0  0  1  0  0  0  0  0  0
  -26.6340  -37.5010   24.1250 N   0  0  0  0  0  0  0  0  0  0  0  0
  -26.2170  -38.4040   24.3380 H   0  0  0  0  0  0  0  0  0  0  0  0
  -26.6130  -31.7780   25.2180 C   0  0  1  0  0  0  0  0  0  0  0  0
  -25.4930  -31.5270   26.2540 C   0  0  0  0  0  1  0  0  0  0  0  0
  -27.1990  -30.4100   24.8150 C   0  0  0  0  0  1  0  0  0  0  0  0
  -27.7600  -32.5490   25.9150 C   0  0  0  0  0  1  0  0  0  0  0  0
  -27.3980  -19.1510   16.8070 C   0  0  0  0  0  1  0  0  0  0  0  0
  -28.8880  -18.9660   17.1920 C   0  0  0  0  0  2  0  0  0  0  0  0
  1  2  1  0
  2  3  1  0
  3  6  1  0
  4 15  1  0
  4  3  2  0
  5  1  1  0
  5  4  1  0
  7 13  1  0
  7 15  1  0
  8 13  1  0
  9 10  1  0
  9  8  1  0
 11 10  1  0
 11 20  1  0
 11 12  1  0
 13 12  1  0
 14  7  2  0
 15 16  1  0
 17 18  2  0
 18 37  1  0
 19 18  1  0
 19 22  1  0
 20 21  1  0
 20 17  1  0
 21 19  2  0
 22 23  1  0
 23 24  2  0
 25 28  1  0
 25 24  1  0
 26 25  2  0
 27 26  1  0
 27 22  2  0
 28 29  1  0
 29 34  2  0
 29 30  1  0
 30 31  2  0
 31 32  1  0
 32 36  1  0
 33 32  2  0
 34 33  1  0
 35 34  1  0
 37 38  1  0
 38 41  1  0
 38 40  1  0
 39 37  2  0
 42 17  1  0
 42 43  1  0
 44 42  1  0
 46 47  1  0
 47 45  1  0
 48 47  1  0
 48 50  1  0
 49 60  2  0
 50 55  1  0
 51 59  1  0
 51 61  1  0
 52 58  1  0
 52 54  1  0
 53 59  1  0
 54 53  1  0
 55 54  2  0
 56 57  1  0
 56 50  2  0
 57 52  2  0
 58 51  1  0
 59 49  1  0
 61 63  2  0
 62 61  1  0
 64 62  1  0
 65 74  2  0
 65 70  1  0
 66 62  1  0
 66 70  1  0
 67 66  1  0
 68 69  1  0
 68 67  1  0
 69 65  1  0
 70 71  2  0
 71 72  1  0
 73 72  2  0
 74 73  1  0
 75 49  1  0
 75 76  1  0
 75 85  1  0
 76 79  1  0
 77 81  1  0
 77 76  1  0
 78 77  2  0
 81 80  1  0
 83 81  1  0
 83 84  1  0
 83 82  1  0
 85 88  1  1
 85 86  1  0
 87 85  1  0
 89 90  1  0
 90  5  1  0
M  ISO  4   7 100  15 100  47 101  48 101
M  END
>  <TORSDO>  (30) 
F 18

>  <SCORE>  (30) 
-14.066

>  <name>  (30) 
30

>  <ligand_id>  (30) 
30

>  <original_smiles>  (30) 
[H]c1c([H])c([H])c2c(c1[H])C([H])([H])C([H])([H])C([H])([H])C2([H])N([H])C(=O)C1([H])N(C(=O)C([H])(N([H])C(=O)C([H])(N([H])C([H])([H])[H])C([H])([H])[H])C(C([H])([H])[H])(C([H])([H])[H])C([H])([H])[H])C([H])([H])c2c([H])c(OC(c3c(Cl)c(N([H])C(=O)N4C([H])([H])C([H])([H])C([H])([H])C([H])(n5nc(-c6c([H])c([H])c(Oc7c([H])c([H])c(F)c([H])c7F)c([H])c6[H])c(C(=O)N([H])[H])c5N([H])[H])C4([H])[H])n(C([H])([H])C([H])([H])[H])c3[H])(C([H])([H])[H])C([H])([H])[H])c([H])c([H])c2C1([H])[H]

>  <smiles>  (30) 
[H]c1c([H])c([H])c2c(c1[H])C([H])([H])C([H])([H])C([H])([H])C2([H])N([H])C(=O)C1([H])N(C(=O)C([H])(N([H])C(=O)C([H])(N([H])C([H])([H])[H])C([H])([H])[H])C(C([H])([H])[H])(C([H])([H])[H])C([H])([H])[H])C([H])([H])c2c([H])c(OC(c3c(Cl)c(N([H])C(=O)N4C([H])([H])C([H])([H])C([H])([H])C([H])(n5nc(-c6c([H])c([H])c(Oc7c([H])c([H])c(F)c([H])c7F)c([H])c6[H])c(C(=O)N([H])[H])c5N([H])[H])C4([H])[H])n(C([H])([H])C([H])([H])[H])c3[H])(C([H])([H])[H])C([H])([H])[H])c([H])c([H])c2C1([H])[H]

$$$$
31:0:0
     RDKit          3D

 95102  0  0  1  0  0  0  0  0999 V2000
  -29.2510  -21.5970   19.8190 C   0  0  0  0  0  0  0  0  0  0  0  0
  -29.5270  -22.6330   22.0250 C   0  0  0  0  0  1  0  0  0  0  0  0
  -29.0420  -22.7150   20.6350 N   0  0  0  0  0  0  0  0  0  0  0  0
  -29.4110  -21.7320   18.6060 O   0  0  0  0  0  0  0  0  0  0  0  0
  -29.1050  -20.0870   20.3830 C   0  0  0  0  0  2  0  0  0  0  0  0
  -29.7670  -17.5740   19.9420 C   0  0  0  0  0  0  0  0  0  0  0  0
  -30.0630  -18.9130   20.1710 N   0  0  0  0  0  0  0  0  0  0  0  0
  -28.7430  -17.2730   19.3250 O   0  0  0  0  0  0  0  0  0  0  0  0
  -30.9850  -19.0730   20.5570 H   0  0  0  0  0  0  0  0  0  0  0  0
  -29.9230  -16.0460   21.9720 C   0  0  0  0  0  1  0  0  0  0  0  0
  -32.0020  -17.0090   21.0590 C   0  0  0  0  0  1  0  0  0  0  0  0
  -30.6300  -16.4000   20.6430 C   0  0  2  0  0  0  0  0  0  0  0  0
  -30.9310  -15.0600   19.7480 C   0  0  0  0  0  0  0  0  0  0  0  0
  -30.5520  -12.8110   18.6730 C   0  0  0  0  0  2  0  0  0  0  0  0
  -29.5300  -12.9280   17.5230 C   0  0  0  0  0  2  0  0  0  0  0  0
  -28.0950  -12.7420   18.0560 C   0  0  0  0  0  2  0  0  0  0  0  0
  -27.8340  -13.5950   19.3220 C   0  0  0  0  0  3  0  0  0  0  0  0
  -28.9730  -13.4610   20.3460 C   0  0  0  0  0  2  0  0  0  0  0  0
  -30.2330  -13.8570   19.6900 N   0  0  0  0  0  0  0  0  0  0  0  0
  -31.9680  -15.1180   19.0750 O   0  0  0  0  0  0  0  0  0  0  0  0
  -25.5470  -14.1860   20.3170 C   0  0  0  0  0  0  0  0  0  0  0  0
  -24.5090  -13.4130   20.7560 C   0  0  0  0  0  0  0  0  0  0  0  0
  -24.9420  -12.0550   20.6190 C   0  0  0  0  0  0  0  0  0  0  0  0
  -26.5400  -13.3040   19.9260 N   0  0  0  0  0  0  0  0  0  0  0  0
  -26.1920  -12.0140   20.1730 N   0  0  0  0  0  0  0  0  0  0  0  0
  -24.2150  -10.7950   20.8240 C   0  0  0  0  0  0  0  0  0  0  0  0
  -24.6150   -9.8550   21.8000 C   0  0  0  0  0  3  0  0  0  0  0  0
  -23.8850   -8.6610   21.9870 C   0  0  0  0  0  3  0  0  0  0  0  0
  -22.7390   -8.4010   21.2010 C   0  0  0  0  0  0  0  0  0  0  0  0
  -22.3560   -9.3290   20.2170 C   0  0  0  0  0  3  0  0  0  0  0  0
  -23.0870  -10.5130   20.0290 C   0  0  0  0  0  3  0  0  0  0  0  0
  -21.9840   -7.2580   21.2950 O   0  0  0  0  0  0  0  0  0  0  0  0
  -21.7860   -6.6200   22.4940 C   0  0  0  0  0  0  0  0  0  0  0  0
  -21.1710   -7.2650   23.5890 C   0  0  0  0  0  3  0  0  0  0  0  0
  -20.9280   -6.5520   24.7790 C   0  0  0  0  0  3  0  0  0  0  0  0
  -21.2900   -5.1970   24.8760 C   0  0  0  0  0  0  0  0  0  0  0  0
  -21.9000   -4.5510   23.7860 C   0  0  0  0  0  3  0  0  0  0  0  0
  -22.1440   -5.2600   22.5970 C   0  0  0  0  0  0  0  0  0  0  0  0
  -22.7100   -4.6280   21.5430 F   0  0  0  0  0  0  0  0  0  0  0  0
  -21.0500   -4.5100   26.0180 F   0  0  0  0  0  0  0  0  0  0  0  0
  -23.1530  -13.8970   21.1800 C   0  0  0  0  0  0  0  0  0  0  0  0
  -22.4920  -13.1750   22.0750 N   0  0  0  0  0  0  0  0  0  0  0  0
  -22.6900  -14.9520   20.7460 O   0  0  0  0  0  0  0  0  0  0  0  0
  -22.8770  -12.3210   22.4510 H   0  0  0  0  0  0  0  0  0  0  0  0
  -21.5840  -13.4820   22.3910 H   0  0  0  0  0  0  0  0  0  0  0  0
  -25.7260  -15.5620   20.1930 N   0  0  0  0  0  0  0  0  0  0  0  0
  -24.9970  -16.2280   20.4220 H   0  0  0  0  0  0  0  0  0  0  0  0
  -26.5740  -16.0040   19.8520 H   0  0  0  0  0  0  0  0  0  0  0  0
  -28.1260  -23.9640   20.4500 C   0  0  0  0  0  3  0  0  0  0  0  0
  -25.6120  -24.5540   20.7590 C   0  0  0  0  0  1  0  0  0  0  0  0
  -26.3010  -23.2080   18.7410 C   0  0  0  0  0  1  0  0  0  0  0  0
  -26.2740  -22.2220   21.0310 C   0  0  0  0  0  1  0  0  0  0  0  0
  -26.6170  -23.5030   20.2280 C   0  0  1  0  0  0  0  0  0  0  0  0
  -28.6170  -25.2970   19.6280 C   0  0  0  0  0  2  0  0  0  0  0  0
  -28.5500  -26.7250   20.1400 O   0  0  0  0  0  0  0  0  0  0  0  0
  -24.6770  -31.9990   23.2670 C   0  0  0  0  0  0  0  0  0  0  0  0
  -27.4330  -27.5850   20.0570 C   0  0  0  0  0  0  0  0  0  0  0  0
  -23.5260  -30.6230   21.5720 C   0  0  0  0  0  3  0  0  0  0  0  0
  -25.0340  -29.1650   20.0910 C   0  0  0  0  0  0  0  0  0  0  0  0
  -26.0610  -30.9990   21.4320 C   0  0  0  0  0  2  0  0  0  0  0  0
  -26.1820  -29.6440   20.7340 C   0  0  0  0  0  0  0  0  0  0  0  0
  -27.3750  -28.8560   20.7250 C   0  0  0  0  0  3  0  0  0  0  0  0
  -26.2920  -27.2210   19.3210 C   0  0  0  0  0  3  0  0  0  0  0  0
  -25.0920  -27.9590   19.3790 C   0  0  0  0  0  3  0  0  0  0  0  0
  -23.7690  -29.9960   20.1710 C   0  0  0  0  0  2  0  0  0  0  0  0
  -24.7720  -31.2260   22.1460 N   0  0  0  0  0  0  0  0  0  0  0  0
  -23.5840  -32.2330   23.8020 O   0  0  0  0  0  0  0  0  0  0  0  0
  -22.8890  -29.5540   22.4910 C   0  0  0  0  0  0  0  0  0  0  0  0
  -21.5680  -29.3490   22.3540 N   0  0  0  0  0  0  0  0  0  0  0  0
  -23.5820  -28.9150   23.2870 O   0  0  0  0  0  0  0  0  0  0  0  0
  -21.0700  -29.9110   21.6780 H   0  0  0  0  0  0  0  0  0  0  0  0
  -18.2120  -28.0870   22.8440 C   0  0  0  0  0  0  0  0  0  0  0  0
  -20.7720  -28.3630   23.0880 C   0  0  0  0  0  3  0  0  0  0  0  0
  -20.8810  -26.9630   22.4400 C   0  0  0  0  0  2  0  0  0  0  0  0
  -19.7670  -26.6790   21.4290 C   0  0  0  0  0  2  0  0  0  0  0  0
  -18.3930  -26.7770   22.0980 C   0  0  0  0  0  2  0  0  0  0  0  0
  -19.3290  -28.8400   23.2940 C   0  0  0  0  0  0  0  0  0  0  0  0
  -19.1030  -30.0690   23.9540 C   0  0  0  0  0  3  0  0  0  0  0  0
  -17.7960  -30.5410   24.1700 C   0  0  0  0  0  3  0  0  0  0  0  0
  -16.6930  -29.7840   23.7340 C   0  0  0  0  0  3  0  0  0  0  0  0
  -16.9030  -28.5600   23.0770 C   0  0  0  0  0  3  0  0  0  0  0  0
  -25.9400  -32.6450   23.9160 C   0  0  0  0  0  3  0  0  0  0  0  0
  -25.6010  -34.0370   24.2510 N   0  0  0  0  0  0  0  0  0  0  0  0
  -25.9220  -35.1000   23.5020 C   0  0  0  0  0  0  0  0  0  0  0  0
  -26.6050  -35.0140   22.4790 O   0  0  0  0  0  0  0  0  0  0  0  0
  -24.9970  -34.1750   25.0470 H   0  0  0  0  0  0  0  0  0  0  0  0
  -24.1730  -36.8710   23.1410 C   0  0  0  0  0  1  0  0  0  0  0  0
  -25.4070  -36.4760   23.9660 C   0  0  0  0  0  3  0  0  0  0  0  0
  -27.5080  -37.3940   24.8470 C   0  0  0  0  0  1  0  0  0  0  0  0
  -26.4240  -37.5470   23.8790 N   0  0  0  0  0  0  0  0  0  0  0  0
  -25.9990  -38.4570   24.0260 H   0  0  0  0  0  0  0  0  0  0  0  0
  -26.4460  -31.8740   25.1980 C   0  0  1  0  0  0  0  0  0  0  0  0
  -25.3300  -31.6050   26.2330 C   0  0  0  0  0  1  0  0  0  0  0  0
  -27.0730  -30.5120   24.8120 C   0  0  0  0  0  1  0  0  0  0  0  0
  -27.5570  -32.6920   25.8960 C   0  0  0  0  0  1  0  0  0  0  0  0
  1  5  1  0
  1  3  1  0
  3  2  1  0
  4  1  2  0
  6  7  1  0
  6 12  1  0
  7  5  1  0
  7  9  1  0
  8  6  2  0
 12 11  1  1
 12 10  1  0
 13 12  1  0
 14 19  1  0
 15 16  1  0
 15 14  1  0
 17 16  1  0
 17 24  1  0
 17 18  1  0
 19 13  1  0
 19 18  1  0
 20 13  2  0
 21 22  2  0
 22 41  1  0
 23 22  1  0
 23 26  1  0
 24 25  1  0
 24 21  1  0
 25 23  2  0
 26 27  1  0
 27 28  2  0
 29 32  1  0
 29 28  1  0
 30 29  2  0
 31 30  1  0
 31 26  2  0
 32 33  1  0
 33 38  2  0
 33 34  1  0
 34 35  2  0
 35 36  1  0
 36 40  1  0
 37 36  2  0
 38 37  1  0
 39 38  1  0
 41 42  1  0
 42 45  1  0
 42 44  1  0
 43 41  2  0
 46 21  1  0
 46 47  1  0
 48 46  1  0
 49 54  1  0
 49  3  1  0
 53 51  1  6
 53 49  1  0
 53 50  1  0
 53 52  1  0
 54 55  1  0
 56 67  2  0
 57 55  1  0
 57 62  1  0
 58 66  1  0
 58 68  1  0
 59 65  1  0
 59 61  1  0
 60 66  1  0
 61 60  1  0
 62 61  2  0
 63 64  1  0
 63 57  2  0
 64 59  2  0
 65 58  1  0
 66 56  1  0
 68 70  2  0
 69 68  1  0
 71 69  1  0
 72 81  2  0
 72 77  1  0
 73 69  1  0
 73 77  1  0
 74 73  1  0
 75 76  1  0
 75 74  1  0
 76 72  1  0
 77 78  2  0
 78 79  1  0
 80 79  2  0
 81 80  1  0
 82 56  1  0
 82 83  1  0
 82 92  1  0
 83 86  1  0
 84 88  1  0
 84 83  1  0
 85 84  2  0
 88 87  1  0
 90 88  1  0
 90 91  1  0
 90 89  1  0
 92 95  1  1
 92 93  1  0
 94 92  1  0
M  ISO  4  12 100  13 100  54 101  55 101
M  END
>  <TORSDO>  (31) 
F 22

>  <SCORE>  (31) 
-11.470

>  <name>  (31) 
31

>  <ligand_id>  (31) 
31

>  <original_smiles>  (31) 
[H]c1c([H])c([H])c2c(c1[H])C([H])([H])C([H])([H])C([H])([H])C2([H])N([H])C(=O)C1([H])N(C(=O)C([H])(N([H])C(=O)C([H])(N([H])C([H])([H])[H])C([H])([H])[H])C(C([H])([H])[H])(C([H])([H])[H])C([H])([H])[H])C([H])([H])c2c([H])c(OC([H])([H])C([H])(N(C(=O)C([H])([H])N([H])C(=O)C(C(=O)N3C([H])([H])C([H])([H])C([H])([H])C([H])(n4nc(-c5c([H])c([H])c(Oc6c([H])c([H])c(F)c([H])c6F)c([H])c5[H])c(C(=O)N([H])[H])c4N([H])[H])C3([H])[H])(C([H])([H])[H])C([H])([H])[H])C([H])([H])[H])C(C([H])([H])[H])(C([H])([H])[H])C([H])([H])[H])c([H])c([H])c2C1([H])[H]

>  <smiles>  (31) 
[H]c1c([H])c([H])c2c(c1[H])C([H])([H])C([H])([H])C([H])([H])C2([H])N([H])C(=O)C1([H])N(C(=O)C([H])(N([H])C(=O)C([H])(N([H])C([H])([H])[H])C([H])([H])[H])C(C([H])([H])[H])(C([H])([H])[H])C([H])([H])[H])C([H])([H])c2c([H])c(OC([H])([H])C([H])(N(C(=O)C([H])([H])N([H])C(=O)C(C(=O)N3C([H])([H])C([H])([H])C([H])([H])C([H])(n4nc(-c5c([H])c([H])c(Oc6c([H])c([H])c(F)c([H])c6F)c([H])c5[H])c(C(=O)N([H])[H])c4N([H])[H])C3([H])[H])(C([H])([H])[H])C([H])([H])[H])C([H])([H])[H])C(C([H])([H])[H])(C([H])([H])[H])C([H])([H])[H])c([H])c([H])c2C1([H])[H]

$$$$
32:0:0
     RDKit          3D

102110  0  0  1  0  0  0  0  0999 V2000
  -30.2140  -24.1190   20.2320 C   0  0  0  0  0  3  0  0  0  0  0  0
  -28.8650  -24.2370   20.6090 C   0  0  0  0  0  0  0  0  0  0  0  0
  -30.8050  -22.9080   19.7860 C   0  0  0  0  0  0  0  0  0  0  0  0
  -28.0490  -23.0580   20.5540 C   0  0  0  0  0  0  0  0  0  0  0  0
  -28.5820  -21.8230   20.0400 C   0  0  0  0  0  0  0  0  0  0  0  0
  -29.9400  -21.7830   19.6010 C   0  0  0  0  0  0  0  0  0  0  0  0
  -26.5890  -23.1040   21.0110 C   0  0  0  0  0  1  0  0  0  0  0  0
  -33.0410  -24.1280   20.1840 C   0  0  0  0  0  1  0  0  0  0  0  0
  -32.5440  -23.0860   17.9670 C   0  0  0  0  0  1  0  0  0  0  0  0
  -33.1320  -21.6900   19.9760 C   0  0  0  0  0  1  0  0  0  0  0  0
  -32.3400  -22.9310   19.4850 C   0  0  2  0  0  0  0  0  0  0  0  0
  -30.3720  -20.6240   18.9310 N   0  0  0  0  0  0  0  0  0  0  0  0
  -31.3450  -20.4910   19.2030 H   0  0  0  0  0  0  0  0  0  0  0  0
  -29.4300  -21.7230   16.8160 C   0  0  0  0  0  1  0  0  0  0  0  0
  -30.0900  -19.2840   16.8790 C   0  0  0  0  0  1  0  0  0  0  0  0
  -30.3670  -20.6750   17.4580 C   0  0  0  0  0  3  0  0  0  0  0  0
  -27.6980  -20.5440   19.8700 C   0  0  0  0  0  2  0  0  0  0  0  0
  -27.9220  -19.3320   20.8390 C   0  0  0  0  0  2  0  0  0  0  0  0
  -29.2450  -18.6520   20.7060 N   0  0  0  0  0  4  0  0  0  0  0  0
  -29.7050  -18.6450   21.6000 H   0  0  0  0  0  0  0  0  0  0  0  0
  -29.7840  -19.2930   20.1200 H   0  0  0  0  0  0  0  0  0  0  0  0
  -29.2950  -17.2730   20.1040 C   0  0  0  0  0  2  0  0  0  0  0  0
  -30.6500  -16.5120   22.1500 C   0  0  0  0  0  1  0  0  0  0  0  0
  -29.6260  -16.0740   21.0760 C   0  0  0  0  0  3  0  0  0  0  0  0
  -30.2350  -14.8490   20.3030 C   0  0  0  0  0  0  0  0  0  0  0  0
  -30.0450  -12.6330   19.2070 C   0  0  0  0  0  2  0  0  0  0  0  0
  -29.0270  -12.7100   18.0500 C   0  0  0  0  0  2  0  0  0  0  0  0
  -27.6000  -12.4470   18.5670 C   0  0  0  0  0  2  0  0  0  0  0  0
  -27.2590  -13.2800   19.8340 C   0  0  0  0  0  3  0  0  0  0  0  0
  -28.3930  -13.2010   20.8810 C   0  0  0  0  0  2  0  0  0  0  0  0
  -29.6430  -13.6190   20.2300 N   0  0  0  0  0  0  0  0  0  0  0  0
  -31.2870  -15.0680   19.6950 O   0  0  0  0  0  0  0  0  0  0  0  0
  -24.8920  -13.6900   20.7510 C   0  0  0  0  0  0  0  0  0  0  0  0
  -23.9080  -12.8350   21.1650 C   0  0  0  0  0  0  0  0  0  0  0  0
  -24.4480  -11.5180   21.0350 C   0  0  0  0  0  0  0  0  0  0  0  0
  -25.9690  -12.8910   20.4000 N   0  0  0  0  0  0  0  0  0  0  0  0
  -25.7110  -11.5770   20.6270 N   0  0  0  0  0  0  0  0  0  0  0  0
  -23.8180  -10.2050   21.2210 C   0  0  0  0  0  0  0  0  0  0  0  0
  -24.2990   -9.2840   22.1780 C   0  0  0  0  0  3  0  0  0  0  0  0
  -23.6650   -8.0360   22.3520 C   0  0  0  0  0  3  0  0  0  0  0  0
  -22.5360   -7.6970   21.5670 C   0  0  0  0  0  0  0  0  0  0  0  0
  -22.0760   -8.6070   20.6000 C   0  0  0  0  0  3  0  0  0  0  0  0
  -22.7120   -9.8480   20.4240 C   0  0  0  0  0  3  0  0  0  0  0  0
  -21.8730   -6.4960   21.6490 O   0  0  0  0  0  0  0  0  0  0  0  0
  -21.7620   -5.8140   22.8340 C   0  0  0  0  0  0  0  0  0  0  0  0
  -21.1260   -6.3770   23.9620 C   0  0  0  0  0  3  0  0  0  0  0  0
  -20.9730   -5.6140   25.1370 C   0  0  0  0  0  3  0  0  0  0  0  0
  -21.4450   -4.2880   25.1830 C   0  0  0  0  0  0  0  0  0  0  0  0
  -22.0720   -3.7240   24.0590 C   0  0  0  0  0  3  0  0  0  0  0  0
  -22.2270   -4.4850   22.8860 C   0  0  0  0  0  0  0  0  0  0  0  0
  -22.8130   -3.9280   21.7990 F   0  0  0  0  0  0  0  0  0  0  0  0
  -21.2900   -3.5530   26.3090 F   0  0  0  0  0  0  0  0  0  0  0  0
  -22.5100  -13.2090   21.5640 C   0  0  0  0  0  0  0  0  0  0  0  0
  -21.8940  -12.4300   22.4470 N   0  0  0  0  0  0  0  0  0  0  0  0
  -21.9730  -14.2260   21.1310 O   0  0  0  0  0  0  0  0  0  0  0  0
  -22.3410  -11.6040   22.8160 H   0  0  0  0  0  0  0  0  0  0  0  0
  -20.9600  -12.6610   22.7530 H   0  0  0  0  0  0  0  0  0  0  0  0
  -24.9550  -15.0750   20.6260 N   0  0  0  0  0  0  0  0  0  0  0  0
  -24.1500  -15.6620   20.8100 H   0  0  0  0  0  0  0  0  0  0  0  0
  -25.7360  -15.5810   20.2310 H   0  0  0  0  0  0  0  0  0  0  0  0
  -28.4290  -25.6160   21.1980 C   0  0  0  0  0  2  0  0  0  0  0  0
  -28.6010  -26.8090   20.3770 O   0  0  0  0  0  0  0  0  0  0  0  0
  -24.5890  -31.9090   23.4040 C   0  0  0  0  0  0  0  0  0  0  0  0
  -27.4580  -27.5940   20.3220 C   0  0  0  0  0  0  0  0  0  0  0  0
  -23.4690  -30.4860   21.7190 C   0  0  0  0  0  3  0  0  0  0  0  0
  -25.0120  -29.0330   20.2910 C   0  0  0  0  0  0  0  0  0  0  0  0
  -25.9810  -30.9510   21.5630 C   0  0  0  0  0  2  0  0  0  0  0  0
  -26.1390  -29.5890   20.9080 C   0  0  0  0  0  0  0  0  0  0  0  0
  -27.3700  -28.8800   20.9180 C   0  0  0  0  0  3  0  0  0  0  0  0
  -26.3150  -27.0720   19.6790 C   0  0  0  0  0  3  0  0  0  0  0  0
  -25.0960  -27.7760   19.6670 C   0  0  0  0  0  3  0  0  0  0  0  0
  -23.7300  -29.8380   20.3320 C   0  0  0  0  0  2  0  0  0  0  0  0
  -24.6970  -31.1300   22.2880 N   0  0  0  0  0  0  0  0  0  0  0  0
  -23.4890  -32.1240   23.9350 O   0  0  0  0  0  0  0  0  0  0  0  0
  -22.8430  -29.4250   22.6560 C   0  0  0  0  0  0  0  0  0  0  0  0
  -21.5590  -29.1070   22.4290 N   0  0  0  0  0  0  0  0  0  0  0  0
  -23.5180  -28.8920   23.5390 O   0  0  0  0  0  0  0  0  0  0  0  0
  -21.0710  -29.5960   21.6930 H   0  0  0  0  0  0  0  0  0  0  0  0
  -18.3370  -27.4760   22.6030 C   0  0  0  0  0  0  0  0  0  0  0  0
  -20.7820  -28.1060   23.1620 C   0  0  0  0  0  3  0  0  0  0  0  0
  -21.1480  -26.6750   22.7060 C   0  0  0  0  0  2  0  0  0  0  0  0
  -20.2400  -26.1480   21.5910 C   0  0  0  0  0  2  0  0  0  0  0  0
  -18.7790  -26.1320   22.0490 C   0  0  0  0  0  2  0  0  0  0  0  0
  -19.2790  -28.4100   23.1110 C   0  0  0  0  0  0  0  0  0  0  0  0
  -18.8190  -29.6600   23.5800 C   0  0  0  0  0  3  0  0  0  0  0  0
  -17.4490  -29.9800   23.5490 C   0  0  0  0  0  3  0  0  0  0  0  0
  -16.5190  -29.0470   23.0570 C   0  0  0  0  0  3  0  0  0  0  0  0
  -16.9640  -27.7970   22.5890 C   0  0  0  0  0  3  0  0  0  0  0  0
  -25.8370  -32.5840   24.0540 C   0  0  0  0  0  3  0  0  0  0  0  0
  -26.3140  -31.8670   25.3750 C   0  0  1  0  0  0  0  0  0  0  0  0
  -25.1780  -31.6300   26.3970 C   0  0  0  0  0  1  0  0  0  0  0  0
  -26.9530  -30.4970   25.0490 C   0  0  0  0  0  1  0  0  0  0  0  0
  -27.4090  -32.7130   26.0680 C   0  0  0  0  0  1  0  0  0  0  0  0
  -25.4940  -33.9880   24.3210 N   0  0  0  0  0  0  0  0  0  0  0  0
  -25.8310  -35.0160   23.5320 C   0  0  0  0  0  0  0  0  0  0  0  0
  -26.5320  -34.8860   22.5240 O   0  0  0  0  0  0  0  0  0  0  0  0
  -24.8780  -34.1630   25.1010 H   0  0  0  0  0  0  0  0  0  0  0  0
  -24.0790  -36.7560   23.0530 C   0  0  0  0  0  1  0  0  0  0  0  0
  -25.3020  -36.4120   23.9180 C   0  0  0  0  0  3  0  0  0  0  0  0
  -27.3880  -37.3750   24.7810 C   0  0  0  0  0  1  0  0  0  0  0  0
  -26.3180  -37.4800   23.7930 N   0  0  0  0  0  0  0  0  0  0  0  0
  -25.8900  -38.3970   23.8870 H   0  0  0  0  0  0  0  0  0  0  0  0
  1  2  1  0
  2 61  1  0
  3  1  2  0
  4  2  2  0
  4  7  1  0
  5  4  1  0
  6  3  1  0
  6  5  2  0
 11  9  1  6
 11  3  1  0
 11 10  1  0
 11  8  1  0
 12 13  1  0
 12  6  1  0
 14 16  1  0
 15 16  1  0
 16 12  1  0
 17  5  1  0
 17 18  1  0
 19 18  1  0
 19 20  1  0
 21 19  1  0
 22 19  1  0
 22 24  1  0
 24 23  1  0
 25 24  1  0
 26 31  1  0
 27 28  1  0
 27 26  1  0
 29 28  1  0
 29 36  1  0
 29 30  1  0
 31 25  1  0
 31 30  1  0
 32 25  2  0
 33 34  2  0
 34 53  1  0
 35 34  1  0
 35 38  1  0
 36 37  1  0
 36 33  1  0
 37 35  2  0
 38 39  1  0
 39 40  2  0
 41 44  1  0
 41 40  1  0
 42 41  2  0
 43 42  1  0
 43 38  2  0
 44 45  1  0
 45 50  2  0
 45 46  1  0
 46 47  2  0
 47 48  1  0
 48 52  1  0
 49 48  2  0
 50 49  1  0
 51 50  1  0
 53 54  1  0
 54 57  1  0
 54 56  1  0
 55 53  2  0
 58 33  1  0
 58 59  1  0
 60 58  1  0
 62 61  1  0
 63 74  2  0
 64 62  1  0
 64 69  1  0
 65 73  1  0
 65 75  1  0
 66 72  1  0
 66 68  1  0
 67 73  1  0
 68 69  2  0
 68 67  1  0
 70 64  2  0
 71 70  1  0
 71 66  2  0
 72 65  1  0
 73 63  1  0
 75 77  2  0
 76 75  1  0
 78 76  1  0
 79 84  1  0
 80 76  1  0
 81 80  1  0
 82 83  1  0
 82 81  1  0
 83 79  1  0
 84 80  1  0
 84 85  2  0
 86 85  1  0
 87 86  2  0
 88 79  2  0
 88 87  1  0
 89 63  1  0
 89 94  1  0
 89 90  1  0
 90 93  1  1
 90 91  1  0
 92 90  1  0
 94 97  1  0
 95 99  1  0
 95 94  1  0
 96 95  2  0
 99 98  1  0
101102  1  0
101 99  1  0
101100  1  0
M  ISO  4  24 100  25 100  61 101  62 101
M  END
>  <TORSDO>  (32) 
F 25

>  <SCORE>  (32) 
-11.454

>  <name>  (32) 
32

>  <ligand_id>  (32) 
32

>  <original_smiles>  (32) 
[H]c1c([H])c([H])c2c(c1[H])C([H])([H])C([H])([H])C([H])([H])C2([H])N([H])C(=O)C1([H])N(C(=O)C([H])(N([H])C(=O)C([H])(N([H])C([H])([H])[H])C([H])([H])[H])C(C([H])([H])[H])(C([H])([H])[H])C([H])([H])[H])C([H])([H])c2c([H])c(OC([H])([H])c3c([H])c(C(C([H])([H])[H])(C([H])([H])[H])C([H])([H])[H])c(N([H])C([H])(C([H])([H])[H])C([H])([H])[H])c(C([H])([H])C([H])([H])[N+]([H])([H])C([H])([H])C([H])(C(=O)N4C([H])([H])C([H])([H])C([H])([H])C([H])(n5nc(-c6c([H])c([H])c(Oc7c([H])c([H])c(F)c([H])c7F)c([H])c6[H])c(C(=O)N([H])[H])c5N([H])[H])C4([H])[H])C([H])([H])[H])c3C([H])([H])[H])c([H])c([H])c2C1([H])[H]

>  <smiles>  (32) 
[H]c1c([H])c([H])c2c(c1[H])C([H])([H])C([H])([H])C([H])([H])C2([H])N([H])C(=O)C1([H])N(C(=O)C([H])(N([H])C(=O)C([H])(N([H])C([H])([H])[H])C([H])([H])[H])C(C([H])([H])[H])(C([H])([H])[H])C([H])([H])[H])C([H])([H])c2c([H])c(OC([H])([H])c3c([H])c(C(C([H])([H])[H])(C([H])([H])[H])C([H])([H])[H])c(N([H])C([H])(C([H])([H])[H])C([H])([H])[H])c(C([H])([H])C([H])([H])[N+]([H])([H])C([H])([H])C([H])(C(=O)N4C([H])([H])C([H])([H])C([H])([H])C([H])(n5nc(-c6c([H])c([H])c(Oc7c([H])c([H])c(F)c([H])c7F)c([H])c6[H])c(C(=O)N([H])[H])c5N([H])[H])C4([H])[H])C([H])([H])[H])c3C([H])([H])[H])c([H])c([H])c2C1([H])[H]

$$$$
33:0:0
     RDKit          3D

 90 98  0  0  1  0  0  0  0  0999 V2000
  -28.9390  -21.3280   17.9400 C   0  0  0  0  0  3  0  0  0  0  0  0
  -28.7850  -22.7680   19.9650 C   0  0  0  0  0  0  0  0  0  0  0  0
  -29.4460  -20.0110   19.9990 C   0  0  0  0  0  0  0  0  0  0  0  0
  -28.7050  -22.5810   18.5690 C   0  0  0  0  0  0  0  0  0  0  0  0
  -29.1690  -21.4120   20.6340 C   0  0  0  0  0  0  0  0  0  0  0  0
  -29.2840  -20.1120   18.5960 C   0  0  0  0  0  0  0  0  0  0  0  0
  -28.3520  -23.6320   17.7880 F   0  0  0  0  0  0  0  0  0  0  0  0
  -29.3050  -21.4650   22.3540 Cl  0  0  0  0  0  0  0  0  0  0  0  0
  -29.5730  -18.5820   17.4960 Br  0  0  0  0  0  0  0  0  0  0  0  0
  -30.0560  -18.4680   20.6350 C   0  0  0  0  0  2  0  0  0  0  0  0
  -30.6680  -15.5240   20.3510 C   0  0  0  0  0  0  0  0  0  0  0  0
  -30.7150  -13.0420   19.5340 C   0  0  0  0  0  2  0  0  0  0  0  0
  -29.8340  -12.7420   18.2940 C   0  0  0  0  0  2  0  0  0  0  0  0
  -28.3810  -12.4560   18.7100 C   0  0  0  0  0  2  0  0  0  0  0  0
  -27.8780  -13.4570   19.7780 C   0  0  0  0  0  3  0  0  0  0  0  0
  -28.8920  -13.6820   20.9180 C   0  0  0  0  0  2  0  0  0  0  0  0
  -30.1170  -14.2070   20.2870 N   0  0  0  0  0  0  0  0  0  0  0  0
  -31.9040  -15.5120   20.2480 O   0  0  0  0  0  0  0  0  0  0  0  0
  -29.8860  -16.8040   20.3420 N   0  0  0  0  0  0  0  0  0  0  0  0
  -28.9060  -16.5770   20.2610 H   0  0  0  0  0  0  0  0  0  0  0  0
  -25.4920  -14.0120   20.4770 C   0  0  0  0  0  0  0  0  0  0  0  0
  -24.4240  -13.2360   20.8260 C   0  0  0  0  0  0  0  0  0  0  0  0
  -24.8950  -11.8870   20.8170 C   0  0  0  0  0  0  0  0  0  0  0  0
  -26.5420  -13.1380   20.2640 N   0  0  0  0  0  0  0  0  0  0  0  0
  -26.1940  -11.8540   20.5390 N   0  0  0  0  0  0  0  0  0  0  0  0
  -24.1660  -10.6240   20.9970 C   0  0  0  0  0  0  0  0  0  0  0  0
  -24.5670   -9.6670   21.9550 C   0  0  0  0  0  3  0  0  0  0  0  0
  -23.8330   -8.4720   22.1230 C   0  0  0  0  0  3  0  0  0  0  0  0
  -22.6860   -8.2250   21.3330 C   0  0  0  0  0  0  0  0  0  0  0  0
  -22.3050   -9.1710   20.3650 C   0  0  0  0  0  3  0  0  0  0  0  0
  -23.0380  -10.3570   20.1940 C   0  0  0  0  0  3  0  0  0  0  0  0
  -21.9280   -7.0810   21.4080 O   0  0  0  0  0  0  0  0  0  0  0  0
  -21.8320   -6.3580   22.5700 C   0  0  0  0  0  0  0  0  0  0  0  0
  -21.3290   -6.9250   23.7610 C   0  0  0  0  0  3  0  0  0  0  0  0
  -21.1810   -6.1270   24.9130 C   0  0  0  0  0  3  0  0  0  0  0  0
  -21.5270   -4.7630   24.8740 C   0  0  0  0  0  0  0  0  0  0  0  0
  -22.0240   -4.1960   23.6880 C   0  0  0  0  0  3  0  0  0  0  0  0
  -22.1720   -4.9910   22.5380 C   0  0  0  0  0  0  0  0  0  0  0  0
  -22.6310   -4.4340   21.3920 F   0  0  0  0  0  0  0  0  0  0  0  0
  -21.3800   -3.9940   25.9790 F   0  0  0  0  0  0  0  0  0  0  0  0
  -23.0180  -13.7120   21.0500 C   0  0  0  0  0  0  0  0  0  0  0  0
  -22.2680  -13.0270   21.9060 N   0  0  0  0  0  0  0  0  0  0  0  0
  -22.5940  -14.7290   20.5020 O   0  0  0  0  0  0  0  0  0  0  0  0
  -22.6260  -12.2050   22.3710 H   0  0  0  0  0  0  0  0  0  0  0  0
  -21.3240  -13.3290   22.0990 H   0  0  0  0  0  0  0  0  0  0  0  0
  -25.6520  -15.3830   20.2910 N   0  0  0  0  0  0  0  0  0  0  0  0
  -24.8740  -16.0280   20.3720 H   0  0  0  0  0  0  0  0  0  0  0  0
  -26.4920  -15.8190   19.9350 H   0  0  0  0  0  0  0  0  0  0  0  0
  -28.2420  -24.3450   20.5680 C   0  0  0  0  0  2  0  0  0  0  0  0
  -28.3930  -25.9430   20.0970 O   0  0  0  0  0  0  0  0  0  0  0  0
  -24.7500  -31.9040   23.1610 C   0  0  0  0  0  0  0  0  0  0  0  0
  -27.3600  -27.0360   20.1320 C   0  0  0  0  0  0  0  0  0  0  0  0
  -23.5690  -30.4910   21.5310 C   0  0  0  0  0  3  0  0  0  0  0  0
  -25.0330  -28.9020   20.1030 C   0  0  0  0  0  0  0  0  0  0  0  0
  -26.1330  -30.7350   21.3670 C   0  0  0  0  0  2  0  0  0  0  0  0
  -26.2230  -29.3210   20.7130 C   0  0  0  0  0  0  0  0  0  0  0  0
  -27.3820  -28.4140   20.6940 C   0  0  0  0  0  3  0  0  0  0  0  0
  -26.1330  -26.7770   19.4820 C   0  0  0  0  0  3  0  0  0  0  0  0
  -25.0150  -27.6510   19.4650 C   0  0  0  0  0  3  0  0  0  0  0  0
  -23.8020  -29.8090   20.1550 C   0  0  0  0  0  2  0  0  0  0  0  0
  -24.8400  -31.0720   22.0730 N   0  0  0  0  0  0  0  0  0  0  0  0
  -23.6590  -32.1760   23.6890 O   0  0  0  0  0  0  0  0  0  0  0  0
  -22.8950  -29.4850   22.5020 C   0  0  0  0  0  0  0  0  0  0  0  0
  -21.5670  -29.2980   22.3850 N   0  0  0  0  0  0  0  0  0  0  0  0
  -23.5750  -28.8720   23.3280 O   0  0  0  0  0  0  0  0  0  0  0  0
  -21.0690  -29.8440   21.6960 H   0  0  0  0  0  0  0  0  0  0  0  0
  -18.2100  -28.0240   22.9150 C   0  0  0  0  0  0  0  0  0  0  0  0
  -20.7650  -28.3450   23.1620 C   0  0  0  0  0  3  0  0  0  0  0  0
  -20.8930  -26.9150   22.5880 C   0  0  0  0  0  2  0  0  0  0  0  0
  -19.7920  -26.5690   21.5800 C   0  0  0  0  0  2  0  0  0  0  0  0
  -18.4110  -26.6810   22.2340 C   0  0  0  0  0  2  0  0  0  0  0  0
  -19.3150  -28.8120   23.3370 C   0  0  0  0  0  0  0  0  0  0  0  0
  -19.0690  -30.0660   23.9390 C   0  0  0  0  0  3  0  0  0  0  0  0
  -17.7540  -30.5330   24.1200 C   0  0  0  0  0  3  0  0  0  0  0  0
  -16.6640  -29.7440   23.7120 C   0  0  0  0  0  3  0  0  0  0  0  0
  -16.8940  -28.4910   23.1160 C   0  0  0  0  0  3  0  0  0  0  0  0
  -26.0120  -32.5710   23.7870 C   0  0  0  0  0  3  0  0  0  0  0  0
  -25.6700  -33.9620   24.1310 N   0  0  0  0  0  0  0  0  0  0  0  0
  -25.9860  -35.0360   23.3940 C   0  0  0  0  0  0  0  0  0  0  0  0
  -26.6560  -34.9600   22.3610 O   0  0  0  0  0  0  0  0  0  0  0  0
  -25.0720  -34.0930   24.9330 H   0  0  0  0  0  0  0  0  0  0  0  0
  -24.2390  -36.8220   23.0670 C   0  0  0  0  0  1  0  0  0  0  0  0
  -25.4810  -36.4120   23.8770 C   0  0  0  0  0  3  0  0  0  0  0  0
  -27.5960  -37.3130   24.7410 C   0  0  0  0  0  1  0  0  0  0  0  0
  -26.5000  -37.4810   23.7890 N   0  0  0  0  0  0  0  0  0  0  0  0
  -26.0820  -38.3930   23.9450 H   0  0  0  0  0  0  0  0  0  0  0  0
  -26.5410  -31.8120   25.0680 C   0  0  1  0  0  0  0  0  0  0  0  0
  -25.4520  -31.5610   26.1380 C   0  0  0  0  0  1  0  0  0  0  0  0
  -27.1460  -30.4410   24.6890 C   0  0  0  0  0  1  0  0  0  0  0  0
  -27.6790  -32.6270   25.7260 C   0  0  0  0  0  1  0  0  0  0  0  0
  1  4  2  0
  1  6  1  0
  2 49  1  0
  2  5  2  0
  3  5  1  0
  3 10  1  0
  4  2  1  0
  5  8  1  0
  6  3  2  0
  7  4  1  0
  9  6  1  0
 12 17  1  0
 13 14  1  0
 13 12  1  0
 15 14  1  0
 15 24  1  0
 15 16  1  0
 17 11  1  0
 17 16  1  0
 18 11  2  0
 19 11  1  0
 19 10  1  0
 20 19  1  0
 21 22  2  0
 22 41  1  0
 23 22  1  0
 23 26  1  0
 24 21  1  0
 24 25  1  0
 25 23  2  0
 26 27  1  0
 27 28  2  0
 29 32  1  0
 29 28  1  0
 30 29  2  0
 31 30  1  0
 31 26  2  0
 32 33  1  0
 33 34  1  0
 34 35  2  0
 36 35  1  0
 36 40  1  0
 37 36  2  0
 38 33  2  0
 38 37  1  0
 39 38  1  0
 41 42  1  0
 42 45  1  0
 42 44  1  0
 43 41  2  0
 46 47  1  0
 46 21  1  0
 48 46  1  0
 50 52  1  0
 50 49  1  0
 51 62  2  0
 52 57  1  0
 53 61  1  0
 53 63  1  0
 54 60  1  0
 54 56  1  0
 55 61  1  0
 56 55  1  0
 57 56  2  0
 58 52  2  0
 59 58  1  0
 59 54  2  0
 60 53  1  0
 61 51  1  0
 63 65  2  0
 64 63  1  0
 66 64  1  0
 67 76  2  0
 67 72  1  0
 68 64  1  0
 68 72  1  0
 69 68  1  0
 70 71  1  0
 70 69  1  0
 71 67  1  0
 72 73  2  0
 73 74  1  0
 75 74  2  0
 76 75  1  0
 77 51  1  0
 77 78  1  0
 77 87  1  0
 78 81  1  0
 79 83  1  0
 79 78  1  0
 80 79  2  0
 83 82  1  0
 85 83  1  0
 85 86  1  0
 85 84  1  0
 87 90  1  1
 87 88  1  0
 89 87  1  0
M  ISO  4  11 100  19 100  49 101  50 101
M  END
>  <TORSDO>  (33) 
F 18

>  <SCORE>  (33) 
-16.635

>  <name>  (33) 
33

>  <ligand_id>  (33) 
33

>  <original_smiles>  (33) 
[H]c1c([H])c([H])c2c(c1[H])C([H])([H])C([H])([H])C([H])([H])C2([H])N([H])C(=O)C1([H])N(C(=O)C([H])(N([H])C(=O)C([H])(N([H])C([H])([H])[H])C([H])([H])[H])C(C([H])([H])[H])(C([H])([H])[H])C([H])([H])[H])C([H])([H])c2c([H])c(OC([H])([H])c3c(F)c([H])c(Br)c(C([H])([H])N([H])C(=O)N4C([H])([H])C([H])([H])C([H])([H])C([H])(n5nc(-c6c([H])c([H])c(Oc7c([H])c([H])c(F)c([H])c7F)c([H])c6[H])c(C(=O)N([H])[H])c5N([H])[H])C4([H])[H])c3Cl)c([H])c([H])c2C1([H])[H]

>  <smiles>  (33) 
[H]c1c([H])c([H])c2c(c1[H])C([H])([H])C([H])([H])C([H])([H])C2([H])N([H])C(=O)C1([H])N(C(=O)C([H])(N([H])C(=O)C([H])(N([H])C([H])([H])[H])C([H])([H])[H])C(C([H])([H])[H])(C([H])([H])[H])C([H])([H])[H])C([H])([H])c2c([H])c(OC([H])([H])c3c(F)c([H])c(Br)c(C([H])([H])N([H])C(=O)N4C([H])([H])C([H])([H])C([H])([H])C([H])(n5nc(-c6c([H])c([H])c(Oc7c([H])c([H])c(F)c([H])c7F)c([H])c6[H])c(C(=O)N([H])[H])c5N([H])[H])C4([H])[H])c3Cl)c([H])c([H])c2C1([H])[H]

$$$$
34:0:0
     RDKit          3D

103111  0  0  1  0  0  0  0  0999 V2000
  -30.2290  -22.2050   19.8710 N   0  0  0  0  0  0  0  0  0  0  0  0
  -30.8630  -22.9920   19.9310 H   0  0  0  0  0  0  0  0  0  0  0  0
  -27.9440  -21.6660   20.2540 C   0  0  0  0  0  1  0  0  0  0  0  0
  -28.8620  -22.7110   19.5760 C   0  0  1  0  0  0  0  0  0  0  0  0
  -28.6390  -24.1110   20.3270 C   0  0  2  0  0  0  0  0  0  0  0  0
  -29.3520  -24.1220   21.4550 F   0  0  0  0  0  0  0  0  0  0  0  0
  -27.3530  -24.1830   20.6760 F   0  0  0  0  0  0  0  0  0  0  0  0
  -28.9340  -25.4420   19.5410 C   0  0  0  0  0  2  0  0  0  0  0  0
  -28.7030  -26.7030   20.2030 O   0  0  0  0  0  0  0  0  0  0  0  0
  -24.7180  -31.7800   23.1750 C   0  0  0  0  0  0  0  0  0  0  0  0
  -27.4990  -27.3830   20.1200 C   0  0  0  0  0  0  0  0  0  0  0  0
  -23.5640  -30.3540   21.5170 C   0  0  0  0  0  3  0  0  0  0  0  0
  -25.0680  -28.8570   20.0970 C   0  0  0  0  0  0  0  0  0  0  0  0
  -26.0830  -30.7670   21.3480 C   0  0  0  0  0  2  0  0  0  0  0  0
  -26.2040  -29.3980   20.7050 C   0  0  0  0  0  0  0  0  0  0  0  0
  -27.4140  -28.6650   20.7190 C   0  0  0  0  0  3  0  0  0  0  0  0
  -26.3410  -26.8650   19.4940 C   0  0  0  0  0  3  0  0  0  0  0  0
  -25.1330  -27.5920   19.4870 C   0  0  0  0  0  3  0  0  0  0  0  0
  -23.8050  -29.6900   20.1350 C   0  0  0  0  0  2  0  0  0  0  0  0
  -24.8060  -30.9820   22.0740 N   0  0  0  0  0  0  0  0  0  0  0  0
  -23.6240  -32.0300   23.7000 O   0  0  0  0  0  0  0  0  0  0  0  0
  -22.9230  -29.3160   22.4640 C   0  0  0  0  0  0  0  0  0  0  0  0
  -21.6070  -29.0930   22.3090 N   0  0  0  0  0  0  0  0  0  0  0  0
  -23.6070  -28.7160   23.2970 O   0  0  0  0  0  0  0  0  0  0  0  0
  -21.1110  -29.6280   21.6080 H   0  0  0  0  0  0  0  0  0  0  0  0
  -18.2660  -27.7900   22.7330 C   0  0  0  0  0  0  0  0  0  0  0  0
  -20.8050  -28.1350   23.0690 C   0  0  0  0  0  3  0  0  0  0  0  0
  -20.9710  -26.7040   22.5040 C   0  0  0  0  0  2  0  0  0  0  0  0
  -19.9070  -26.3390   21.4650 C   0  0  0  0  0  2  0  0  0  0  0  0
  -18.5050  -26.4430   22.0730 C   0  0  0  0  0  2  0  0  0  0  0  0
  -19.3470  -28.5910   23.1880 C   0  0  0  0  0  0  0  0  0  0  0  0
  -19.0720  -29.8500   23.7640 C   0  0  0  0  0  3  0  0  0  0  0  0
  -17.7470  -30.3080   23.8940 C   0  0  0  0  0  3  0  0  0  0  0  0
  -16.6800  -29.5050   23.4560 C   0  0  0  0  0  3  0  0  0  0  0  0
  -16.9400  -28.2480   22.8810 C   0  0  0  0  0  3  0  0  0  0  0  0
  -25.9850  -32.4360   23.8110 C   0  0  0  0  0  3  0  0  0  0  0  0
  -25.6390  -33.8200   24.1630 N   0  0  0  0  0  0  0  0  0  0  0  0
  -25.9370  -34.8910   23.4150 C   0  0  0  0  0  0  0  0  0  0  0  0
  -26.6030  -34.8230   22.3790 O   0  0  0  0  0  0  0  0  0  0  0  0
  -25.0450  -33.9510   24.9680 H   0  0  0  0  0  0  0  0  0  0  0  0
  -24.1430  -36.6260   23.1040 C   0  0  0  0  0  1  0  0  0  0  0  0
  -25.4080  -36.2560   23.8940 C   0  0  0  0  0  3  0  0  0  0  0  0
  -27.5210  -37.2040   24.7060 C   0  0  0  0  0  1  0  0  0  0  0  0
  -26.4020  -37.3450   23.7780 N   0  0  0  0  0  0  0  0  0  0  0  0
  -25.9650  -38.2480   23.9440 H   0  0  0  0  0  0  0  0  0  0  0  0
  -26.5260  -31.6560   25.0720 C   0  0  1  0  0  0  0  0  0  0  0  0
  -25.4390  -31.3640   26.1300 C   0  0  0  0  0  1  0  0  0  0  0  0
  -27.1550  -30.3060   24.6510 C   0  0  0  0  0  1  0  0  0  0  0  0
  -27.6510  -32.4740   25.7520 C   0  0  0  0  0  1  0  0  0  0  0  0
  -29.6360  -23.4520   17.1430 C   0  0  0  0  0  1  0  0  0  0  0  0
  -27.9170  -21.6030   17.3510 C   0  0  0  0  0  1  0  0  0  0  0  0
  -28.5220  -22.8480   18.0360 C   0  0  0  0  0  3  0  0  0  0  0  0
  -30.8570  -21.1520   19.0480 C   0  0  0  0  0  2  0  0  0  0  0  0
  -30.9660  -19.2380   20.7300 C   0  0  0  0  0  3  0  0  0  0  0  0
  -30.2340  -17.2970   18.9030 C   0  0  0  0  0  3  0  0  0  0  0  0
  -30.6990  -19.6510   19.3960 C   0  0  0  0  0  0  0  0  0  0  0  0
  -30.8930  -17.8820   21.1470 C   0  0  0  0  0  0  0  0  0  0  0  0
  -30.3720  -18.6300   18.4310 C   0  0  0  0  0  0  0  0  0  0  0  0
  -30.5030  -16.8810   20.2220 C   0  0  0  0  0  0  0  0  0  0  0  0
  -30.9810  -14.4310   20.0480 C   0  0  0  0  0  0  0  0  0  0  0  0
  -30.5820  -12.2790   18.9200 C   0  0  0  0  0  2  0  0  0  0  0  0
  -29.5700  -12.5120   17.7800 C   0  0  0  0  0  2  0  0  0  0  0  0
  -28.1290  -12.3650   18.3080 C   0  0  0  0  0  2  0  0  0  0  0  0
  -27.8800  -13.1820   19.6070 C   0  0  0  0  0  3  0  0  0  0  0  0
  -29.0100  -12.9640   20.6420 C   0  0  0  0  0  2  0  0  0  0  0  0
  -30.2920  -13.2590   19.9820 N   0  0  0  0  0  0  0  0  0  0  0  0
  -32.0930  -14.5650   19.5280 O   0  0  0  0  0  0  0  0  0  0  0  0
  -30.3350  -15.4930   20.5890 N   0  0  0  0  0  0  0  0  0  0  0  0
  -29.5320  -15.2770   21.1600 H   0  0  0  0  0  0  0  0  0  0  0  0
  -25.5630  -13.7760   20.5520 C   0  0  0  0  0  0  0  0  0  0  0  0
  -24.5060  -12.9990   20.9460 C   0  0  0  0  0  0  0  0  0  0  0  0
  -24.9270  -11.6450   20.7760 C   0  0  0  0  0  0  0  0  0  0  0  0
  -26.5620  -12.8950   20.1690 N   0  0  0  0  0  0  0  0  0  0  0  0
  -26.1880  -11.6030   20.3580 N   0  0  0  0  0  0  0  0  0  0  0  0
  -24.1810  -10.3880   20.9300 C   0  0  0  0  0  0  0  0  0  0  0  0
  -24.5710   -9.4070   21.8690 C   0  0  0  0  0  3  0  0  0  0  0  0
  -23.8270   -8.2150   22.0110 C   0  0  0  0  0  3  0  0  0  0  0  0
  -22.6810   -7.9940   21.2130 C   0  0  0  0  0  0  0  0  0  0  0  0
  -22.3100   -8.9640   20.2640 C   0  0  0  0  0  3  0  0  0  0  0  0
  -23.0540  -10.1470   20.1200 C   0  0  0  0  0  3  0  0  0  0  0  0
  -21.9110   -6.8550   21.2640 O   0  0  0  0  0  0  0  0  0  0  0  0
  -21.7030   -6.1810   22.4390 C   0  0  0  0  0  0  0  0  0  0  0  0
  -21.1390   -6.8100   23.5690 C   0  0  0  0  0  3  0  0  0  0  0  0
  -20.8750   -6.0630   24.7330 C   0  0  0  0  0  3  0  0  0  0  0  0
  -21.1660   -4.6860   24.7690 C   0  0  0  0  0  0  0  0  0  0  0  0
  -21.7240   -4.0560   23.6420 C   0  0  0  0  0  3  0  0  0  0  0  0
  -21.9890   -4.8000   22.4810 C   0  0  0  0  0  0  0  0  0  0  0  0
  -22.5050   -4.1840   21.3900 F   0  0  0  0  0  0  0  0  0  0  0  0
  -20.9090   -3.9650   25.8850 F   0  0  0  0  0  0  0  0  0  0  0  0
  -23.1520  -13.4840   21.3730 C   0  0  0  0  0  0  0  0  0  0  0  0
  -22.4910  -12.7540   22.2660 N   0  0  0  0  0  0  0  0  0  0  0  0
  -22.6880  -14.5410   20.9460 O   0  0  0  0  0  0  0  0  0  0  0  0
  -22.8800  -11.8970   22.6300 H   0  0  0  0  0  0  0  0  0  0  0  0
  -21.5860  -13.0600   22.5890 H   0  0  0  0  0  0  0  0  0  0  0  0
  -25.7540  -15.1510   20.4700 N   0  0  0  0  0  0  0  0  0  0  0  0
  -25.0250  -15.8160   20.6970 H   0  0  0  0  0  0  0  0  0  0  0  0
  -26.5930  -15.5970   20.1220 H   0  0  0  0  0  0  0  0  0  0  0  0
  -30.4890  -20.1230   16.2140 C   0  0  0  0  0  1  0  0  0  0  0  0
  -28.6880  -18.4700   16.5510 C   0  0  0  0  0  1  0  0  0  0  0  0
  -31.0700  -17.7470   16.1500 C   0  0  0  0  0  1  0  0  0  0  0  0
  -30.1670  -18.7730   16.8860 C   0  0  2  0  0  0  0  0  0  0  0  0
  -30.4500  -18.2590   23.6310 C   0  0  0  0  0  1  0  0  0  0  0  0
  -31.2980  -17.5410   22.5760 C   0  0  0  0  0  2  0  0  0  0  0  0
  1  2  1  0
  4  1  1  0
  4  3  1  1
  4  5  1  0
  5  7  1  1
  5  6  1  0
  8  9  1  0
  8  5  1  0
 10 21  2  0
 11  9  1  0
 11 16  1  0
 12 20  1  0
 12 22  1  0
 13 19  1  0
 13 15  1  0
 14 20  1  0
 15 16  2  0
 15 14  1  0
 17 11  2  0
 18 17  1  0
 18 13  2  0
 19 12  1  0
 20 10  1  0
 22 24  2  0
 23 22  1  0
 25 23  1  0
 26 35  2  0
 26 31  1  0
 27 23  1  0
 27 31  1  0
 28 27  1  0
 29 30  1  0
 29 28  1  0
 30 26  1  0
 31 32  2  0
 32 33  1  0
 34 33  2  0
 35 34  1  0
 36 10  1  0
 36 37  1  0
 36 46  1  0
 37 40  1  0
 38 42  1  0
 38 37  1  0
 39 38  2  0
 42 41  1  0
 44 42  1  0
 44 45  1  0
 44 43  1  0
 46 49  1  1
 46 47  1  0
 48 46  1  0
 50 52  1  0
 51 52  1  0
 52  4  1  0
 53 56  1  0
 53  1  1  0
 54 57  1  0
 55 59  1  0
 56 54  2  0
 57103  1  0
 58 55  2  0
 58 56  1  0
 59 68  1  0
 59 57  2  0
 60 68  1  0
 61 66  1  0
 62 63  1  0
 62 61  1  0
 64 63  1  0
 64 73  1  0
 64 65  1  0
 66 60  1  0
 66 65  1  0
 67 60  2  0
 68 69  1  0
 70 71  2  0
 71 90  1  0
 72 75  1  0
 72 71  1  0
 73 74  1  0
 73 70  1  0
 74 72  2  0
 75 76  1  0
 76 77  2  0
 78 81  1  0
 78 77  1  0
 79 78  2  0
 80 79  1  0
 80 75  2  0
 81 82  1  0
 82 87  2  0
 82 83  1  0
 83 84  2  0
 84 85  1  0
 85 89  1  0
 86 85  2  0
 87 86  1  0
 88 87  1  0
 90 91  1  0
 91 94  1  0
 91 93  1  0
 92 90  2  0
 95 70  1  0
 95 96  1  0
 97 95  1  0
101 98  1  6
 99101  1  0
100101  1  0
101 58  1  0
103102  1  0
M  ISO  4   8 101   9 101  60 100  68 100
M  END
>  <TORSDO>  (34) 
F 24

>  <SCORE>  (34) 
-11.086

>  <name>  (34) 
34

>  <ligand_id>  (34) 
34

>  <original_smiles>  (34) 
[H]c1c([H])c([H])c2c(c1[H])C([H])([H])C([H])([H])C([H])([H])C2([H])N([H])C(=O)C1([H])N(C(=O)C([H])(N([H])C(=O)C([H])(N([H])C([H])([H])[H])C([H])([H])[H])C(C([H])([H])[H])(C([H])([H])[H])C([H])([H])[H])C([H])([H])c2c([H])c(OC([H])([H])C(F)(F)C(N([H])C([H])([H])c3c([H])c(C([H])([H])C([H])([H])[H])c(N([H])C(=O)N4C([H])([H])C([H])([H])C([H])([H])C([H])(n5nc(-c6c([H])c([H])c(Oc7c([H])c([H])c(F)c([H])c7F)c([H])c6[H])c(C(=O)N([H])[H])c5N([H])[H])C4([H])[H])c([H])c3C(C([H])([H])[H])(C([H])([H])[H])C([H])([H])[H])(C([H])([H])[H])C([H])(C([H])([H])[H])C([H])([H])[H])c([H])c([H])c2C1([H])[H]

>  <smiles>  (34) 
[H]c1c([H])c([H])c2c(c1[H])C([H])([H])C([H])([H])C([H])([H])C2([H])N([H])C(=O)C1([H])N(C(=O)C([H])(N([H])C(=O)C([H])(N([H])C([H])([H])[H])C([H])([H])[H])C(C([H])([H])[H])(C([H])([H])[H])C([H])([H])[H])C([H])([H])c2c([H])c(OC([H])([H])C(F)(F)C(N([H])C([H])([H])c3c([H])c(C([H])([H])C([H])([H])[H])c(N([H])C(=O)N4C([H])([H])C([H])([H])C([H])([H])C([H])(n5nc(-c6c([H])c([H])c(Oc7c([H])c([H])c(F)c([H])c7F)c([H])c6[H])c(C(=O)N([H])[H])c5N([H])[H])C4([H])[H])c([H])c3C(C([H])([H])[H])(C([H])([H])[H])C([H])([H])[H])(C([H])([H])[H])C([H])(C([H])([H])[H])C([H])([H])[H])c([H])c([H])c2C1([H])[H]

$$$$
35:0:0
     RDKit          3D

 95103  0  0  1  0  0  0  0  0999 V2000
  -30.0250  -19.7400   19.7800 C   0  0  0  0  0  3  0  0  0  0  0  0
  -31.0790  -18.7880   19.9630 C   0  0  0  0  0  0  0  0  0  0  0  0
  -32.0840  -19.0750   20.9210 C   0  0  0  0  0  0  0  0  0  0  0  0
  -30.8310  -21.0860   21.6380 C   0  0  0  0  0  0  0  0  0  0  0  0
  -29.8860  -20.9150   20.5890 C   0  0  0  0  0  0  0  0  0  0  0  0
  -31.9360  -20.1970   21.7750 C   0  0  0  0  0  0  0  0  0  0  0  0
  -33.3330  -18.2000   21.0370 C   0  0  0  0  0  1  0  0  0  0  0  0
  -30.6540  -22.2420   22.6250 C   0  0  0  0  0  1  0  0  0  0  0  0
  -33.1290  -20.4760   23.0060 Cl  0  0  0  0  0  0  0  0  0  0  0  0
  -28.8280  -21.8790   20.4890 N   0  0  0  0  0  0  0  0  0  0  0  0
  -28.6500  -22.3580   21.3690 H   0  0  0  0  0  0  0  0  0  0  0  0
  -27.5640  -21.8370   18.3470 C   0  0  0  0  0  1  0  0  0  0  0  0
  -28.4360  -22.6840   19.3020 C   0  0  0  0  0  3  0  0  0  0  0  0
  -27.5900  -24.0020   19.6290 C   0  0  0  0  0  2  0  0  0  0  0  0
  -28.1950  -25.2160   20.4280 C   0  0  0  0  0  2  0  0  0  0  0  0
  -28.1760  -26.5390   19.7820 O   0  0  0  0  0  0  0  0  0  0  0  0
  -24.5780  -31.7570   23.1590 C   0  0  0  0  0  0  0  0  0  0  0  0
  -27.0310  -27.3240   19.8570 C   0  0  0  0  0  0  0  0  0  0  0  0
  -23.2840  -30.4010   21.5450 C   0  0  0  0  0  3  0  0  0  0  0  0
  -24.6600  -28.8920   20.0080 C   0  0  0  0  0  0  0  0  0  0  0  0
  -25.8050  -30.7440   21.2310 C   0  0  0  0  0  2  0  0  0  0  0  0
  -25.8540  -29.3860   20.5470 C   0  0  0  0  0  0  0  0  0  0  0  0
  -27.0460  -28.6180   20.4540 C   0  0  0  0  0  3  0  0  0  0  0  0
  -25.8190  -26.8630   19.3100 C   0  0  0  0  0  3  0  0  0  0  0  0
  -24.6410  -27.6350   19.3800 C   0  0  0  0  0  3  0  0  0  0  0  0
  -23.4250  -29.7580   20.1390 C   0  0  0  0  0  2  0  0  0  0  0  0
  -24.5760  -30.9830   22.0370 N   0  0  0  0  0  0  0  0  0  0  0  0
  -23.5250  -32.0180   23.7590 O   0  0  0  0  0  0  0  0  0  0  0  0
  -22.6780  -29.3570   22.5090 C   0  0  0  0  0  0  0  0  0  0  0  0
  -21.3650  -29.1050   22.3760 N   0  0  0  0  0  0  0  0  0  0  0  0
  -23.3880  -28.7780   23.3350 O   0  0  0  0  0  0  0  0  0  0  0  0
  -20.8510  -29.6330   21.6860 H   0  0  0  0  0  0  0  0  0  0  0  0
  -18.0810  -27.6540   22.7760 C   0  0  0  0  0  0  0  0  0  0  0  0
  -20.5950  -28.1320   23.1500 C   0  0  0  0  0  3  0  0  0  0  0  0
  -20.8400  -26.6930   22.6390 C   0  0  0  0  0  2  0  0  0  0  0  0
  -19.8190  -26.2430   21.5890 C   0  0  0  0  0  2  0  0  0  0  0  0
  -18.3990  -26.3020   22.1600 C   0  0  0  0  0  2  0  0  0  0  0  0
  -19.1140  -28.5190   23.2260 C   0  0  0  0  0  0  0  0  0  0  0  0
  -18.7670  -29.7810   23.7550 C   0  0  0  0  0  3  0  0  0  0  0  0
  -17.4200  -30.1790   23.8440 C   0  0  0  0  0  3  0  0  0  0  0  0
  -16.4010  -29.3090   23.4180 C   0  0  0  0  0  3  0  0  0  0  0  0
  -16.7320  -28.0490   22.8870 C   0  0  0  0  0  3  0  0  0  0  0  0
  -25.8930  -32.3740   23.7300 C   0  0  0  0  0  3  0  0  0  0  0  0
  -25.6050  -33.7640   24.1100 N   0  0  0  0  0  0  0  0  0  0  0  0
  -25.9200  -34.8360   23.3710 C   0  0  0  0  0  0  0  0  0  0  0  0
  -26.5560  -34.7580   22.3170 O   0  0  0  0  0  0  0  0  0  0  0  0
  -25.0520  -33.9030   24.9430 H   0  0  0  0  0  0  0  0  0  0  0  0
  -24.1920  -36.6410   23.1210 C   0  0  0  0  0  1  0  0  0  0  0  0
  -25.4540  -36.2110   23.8830 C   0  0  0  0  0  3  0  0  0  0  0  0
  -27.6160  -37.0650   24.6720 C   0  0  0  0  0  1  0  0  0  0  0  0
  -26.4880  -37.2630   23.7670 N   0  0  0  0  0  0  0  0  0  0  0  0
  -26.0900  -38.1800   23.9540 H   0  0  0  0  0  0  0  0  0  0  0  0
  -26.4680  -31.5720   24.9610 C   0  0  1  0  0  0  0  0  0  0  0  0
  -25.4310  -31.3160   26.0780 C   0  0  0  0  0  1  0  0  0  0  0  0
  -27.0250  -30.2020   24.5070 C   0  0  0  0  0  1  0  0  0  0  0  0
  -27.6540  -32.3480   25.5840 C   0  0  0  0  0  1  0  0  0  0  0  0
  -31.1470  -17.5070   19.0800 C   0  0  0  0  0  2  0  0  0  0  0  0
  -31.5350  -15.0860   19.7080 C   0  0  0  0  0  0  0  0  0  0  0  0
  -31.3190  -12.6640   19.2910 C   0  0  0  0  0  2  0  0  0  0  0  0
  -30.4090  -12.4770   18.0580 C   0  0  0  0  0  2  0  0  0  0  0  0
  -28.9280  -12.4290   18.4850 C   0  0  0  0  0  2  0  0  0  0  0  0
  -28.5410  -13.5950   19.4350 C   0  0  0  0  0  3  0  0  0  0  0  0
  -29.5710  -13.7550   20.5750 C   0  0  0  0  0  2  0  0  0  0  0  0
  -30.8960  -13.9070   19.9610 N   0  0  0  0  0  0  0  0  0  0  0  0
  -32.7030  -15.1260   19.3150 O   0  0  0  0  0  0  0  0  0  0  0  0
  -30.7580  -16.2000   19.6840 N   0  0  0  0  0  0  0  0  0  0  0  0
  -29.7970  -16.0980   19.9670 H   0  0  0  0  0  0  0  0  0  0  0  0
  -26.2340  -14.4140   20.2220 C   0  0  0  0  0  0  0  0  0  0  0  0
  -25.1060  -13.7420   20.6050 C   0  0  0  0  0  0  0  0  0  0  0  0
  -25.4320  -12.3520   20.5380 C   0  0  0  0  0  0  0  0  0  0  0  0
  -27.1820  -13.4410   19.9480 N   0  0  0  0  0  0  0  0  0  0  0  0
  -26.7060  -12.1940   20.1980 N   0  0  0  0  0  0  0  0  0  0  0  0
  -24.5900  -11.1620   20.7240 C   0  0  0  0  0  0  0  0  0  0  0  0
  -24.9580  -10.1290   21.6140 C   0  0  0  0  0  3  0  0  0  0  0  0
  -24.1220   -9.0060   21.7890 C   0  0  0  0  0  3  0  0  0  0  0  0
  -22.9040   -8.9080   21.0750 C   0  0  0  0  0  0  0  0  0  0  0  0
  -22.5550   -9.9290   20.1750 C   0  0  0  0  0  3  0  0  0  0  0  0
  -23.3900  -11.0430   19.9960 C   0  0  0  0  0  3  0  0  0  0  0  0
  -22.0420   -7.8420   21.1610 O   0  0  0  0  0  0  0  0  0  0  0  0
  -21.9680   -7.0660   22.2910 C   0  0  0  0  0  0  0  0  0  0  0  0
  -21.6450   -7.6140   23.5510 C   0  0  0  0  0  3  0  0  0  0  0  0
  -21.5130   -6.7700   24.6730 C   0  0  0  0  0  3  0  0  0  0  0  0
  -21.6940   -5.3820   24.5340 C   0  0  0  0  0  0  0  0  0  0  0  0
  -22.0110   -4.8330   23.2790 C   0  0  0  0  0  3  0  0  0  0  0  0
  -22.1460   -5.6740   22.1610 C   0  0  0  0  0  0  0  0  0  0  0  0
  -22.4290   -5.1390   20.9470 F   0  0  0  0  0  0  0  0  0  0  0  0
  -21.5620   -4.5700   25.6100 F   0  0  0  0  0  0  0  0  0  0  0  0
  -23.7700  -14.3470   20.9230 C   0  0  0  0  0  0  0  0  0  0  0  0
  -23.0020  -13.7160   21.8060 N   0  0  0  0  0  0  0  0  0  0  0  0
  -23.4160  -15.4150   20.4240 O   0  0  0  0  0  0  0  0  0  0  0  0
  -23.2950  -12.8440   22.2230 H   0  0  0  0  0  0  0  0  0  0  0  0
  -22.1100  -14.1060   22.0660 H   0  0  0  0  0  0  0  0  0  0  0  0
  -26.5300  -15.7650   20.0630 N   0  0  0  0  0  0  0  0  0  0  0  0
  -25.8310  -16.4890   20.1900 H   0  0  0  0  0  0  0  0  0  0  0  0
  -27.4150  -16.1260   19.7290 H   0  0  0  0  0  0  0  0  0  0  0  0
  1  2  2  0
  1  5  1  0
  2  3  1  0
  3  7  1  0
  3  6  2  0
  4  6  1  0
  4  8  1  0
  5  4  2  0
  6  9  1  0
 10  5  1  0
 10 11  1  0
 13 12  1  0
 13 14  1  0
 13 10  1  0
 14 15  1  0
 16 18  1  0
 16 15  1  0
 17 28  2  0
 18 23  1  0
 19 27  1  0
 19 29  1  0
 20 26  1  0
 20 22  1  0
 21 27  1  0
 22 21  1  0
 23 22  2  0
 24 25  1  0
 24 18  2  0
 25 20  2  0
 26 19  1  0
 27 17  1  0
 29 31  2  0
 30 29  1  0
 32 30  1  0
 33 42  2  0
 33 38  1  0
 34 30  1  0
 34 38  1  0
 35 34  1  0
 36 37  1  0
 36 35  1  0
 37 33  1  0
 38 39  2  0
 39 40  1  0
 41 40  2  0
 42 41  1  0
 43 17  1  0
 43 44  1  0
 43 53  1  0
 44 47  1  0
 45 49  1  0
 45 44  1  0
 46 45  2  0
 49 48  1  0
 51 49  1  0
 51 52  1  0
 51 50  1  0
 53 56  1  1
 53 54  1  0
 55 53  1  0
 57 66  1  0
 57  2  1  0
 58 64  1  0
 59 64  1  0
 60 61  1  0
 60 59  1  0
 62 61  1  0
 62 71  1  0
 62 63  1  0
 64 63  1  0
 65 58  2  0
 66 58  1  0
 66 67  1  0
 68 69  2  0
 69 88  1  0
 70 69  1  0
 70 73  1  0
 71 72  1  0
 71 68  1  0
 72 70  2  0
 73 74  1  0
 74 75  2  0
 76 79  1  0
 76 75  1  0
 77 76  2  0
 78 77  1  0
 78 73  2  0
 79 80  1  0
 80 81  1  0
 81 82  2  0
 83 82  1  0
 83 87  1  0
 84 83  2  0
 85 80  2  0
 85 84  1  0
 86 85  1  0
 88 89  1  0
 89 92  1  0
 89 91  1  0
 90 88  2  0
 93 94  1  0
 93 68  1  0
 95 93  1  0
M  ISO  4  15 101  16 101  58 100  66 100
M  END
>  <TORSDO>  (35) 
F 21

>  <SCORE>  (35) 
-12.137

>  <name>  (35) 
35

>  <ligand_id>  (35) 
35

>  <original_smiles>  (35) 
[H]c1c([H])c([H])c2c(c1[H])C([H])([H])C([H])([H])C([H])([H])C2([H])N([H])C(=O)C1([H])N(C(=O)C([H])(N([H])C(=O)C([H])(N([H])C([H])([H])[H])C([H])([H])[H])C(C([H])([H])[H])(C([H])([H])[H])C([H])([H])[H])C([H])([H])c2c([H])c(OC([H])([H])C([H])([H])C([H])(N([H])c3c([H])c(C([H])([H])N([H])C(=O)N4C([H])([H])C([H])([H])C([H])([H])C([H])(n5nc(-c6c([H])c([H])c(Oc7c([H])c([H])c(F)c([H])c7F)c([H])c6[H])c(C(=O)N([H])[H])c5N([H])[H])C4([H])[H])c(C([H])([H])[H])c(Cl)c3C([H])([H])[H])C([H])([H])[H])c([H])c([H])c2C1([H])[H]

>  <smiles>  (35) 
[H]c1c([H])c([H])c2c(c1[H])C([H])([H])C([H])([H])C([H])([H])C2([H])N([H])C(=O)C1([H])N(C(=O)C([H])(N([H])C(=O)C([H])(N([H])C([H])([H])[H])C([H])([H])[H])C(C([H])([H])[H])(C([H])([H])[H])C([H])([H])[H])C([H])([H])c2c([H])c(OC([H])([H])C([H])([H])C([H])(N([H])c3c([H])c(C([H])([H])N([H])C(=O)N4C([H])([H])C([H])([H])C([H])([H])C([H])(n5nc(-c6c([H])c([H])c(Oc7c([H])c([H])c(F)c([H])c7F)c([H])c6[H])c(C(=O)N([H])[H])c5N([H])[H])C4([H])[H])c(C([H])([H])[H])c(Cl)c3C([H])([H])[H])C([H])([H])[H])c([H])c([H])c2C1([H])[H]

$$$$
36:0:0
     RDKit          3D

 94102  0  0  1  0  0  0  0  0999 V2000
  -26.7560  -18.8370   19.7000 N   0  0  0  0  0  4  0  0  0  0  0  0
  -27.1740  -18.8380   18.7850 H   0  0  0  0  0  0  0  0  0  0  0  0
  -27.4200  -18.3830   20.3060 H   0  0  0  0  0  0  0  0  0  0  0  0
  -25.4930  -17.8880   19.5890 C   0  0  0  0  0  2  0  0  0  0  0  0
  -24.0930  -15.8650   20.7750 C   0  0  0  0  0  3  0  0  0  0  0  0
  -27.0120  -13.7860   19.8560 C   0  0  0  0  0  2  0  0  0  0  0  0
  -25.3980  -16.2540   19.8470 C   0  0  0  0  0  0  0  0  0  0  0  0
  -24.3210  -13.0760   21.5580 C   0  0  2  0  0  0  0  0  0  0  0  0
  -23.5490  -14.5390   21.5750 C   0  0  0  0  0  0  0  0  0  0  0  0
  -26.6550  -15.3240   19.3510 C   0  0  0  0  0  0  0  0  0  0  0  0
  -23.9220  -12.0440   22.6320 C   0  0  0  0  0  1  0  0  0  0  0  0
  -22.4290  -14.6590   22.3260 F   0  0  0  0  0  0  0  0  0  0  0  0
  -27.8420  -16.0940   18.3580 Cl  0  0  0  0  0  0  0  0  0  0  0  0
  -28.6840  -14.1420   20.8550 C   0  0  0  0  0  2  0  0  0  0  0  0
  -30.7080  -12.7010   21.0320 C   0  0  0  0  0  2  0  0  0  0  0  0
  -30.3070  -12.2420   19.6510 C   0  0  0  0  0  2  0  0  0  0  0  0
  -28.8820  -11.5980   19.7630 C   0  0  0  0  0  2  0  0  0  0  0  0
  -28.1100  -11.6830   21.2860 C   0  0  0  0  0  3  0  0  0  0  0  0
  -28.8100  -12.3190   22.3730 C   0  0  0  0  0  2  0  0  0  0  0  0
  -29.4490  -13.2430   21.5820 N   0  0  0  0  0  0  0  0  0  0  0  0
  -29.4690  -15.1060   21.1570 O   0  0  0  0  0  1  0  0  0  0  0  0
  -25.8600  -13.8070   21.0700 C   0  0  1  0  0  0  0  0  0  0  0  0
  -24.4770  -12.5110   19.7050 C   0  0  0  0  0  3  0  0  0  0  0  0
  -25.0170  -10.9480   20.0230 C   0  0  0  0  0  3  0  0  0  0  0  0
  -26.7810  -12.2440   21.4650 N   0  0  0  0  0  0  0  0  0  0  0  0
  -26.2150  -10.9580   20.8240 N   0  0  0  0  0  2  0  0  0  0  0  0
  -24.3200   -9.5720   20.4820 C   0  0  0  0  0  0  0  0  0  0  0  0
  -24.5770   -8.8790   21.7420 C   0  0  0  0  0  3  0  0  0  0  0  0
  -23.9770   -7.6430   22.1540 C   0  0  0  0  0  3  0  0  0  0  0  0
  -23.0660   -6.9800   21.3020 C   0  0  0  0  0  0  0  0  0  0  0  0
  -22.7790   -7.6300   20.0820 C   0  0  0  0  0  3  0  0  0  0  0  0
  -23.3710   -8.8700   19.6960 C   0  0  0  0  0  3  0  0  0  0  0  0
  -22.5120   -5.7200   21.5170 O   0  0  0  0  0  0  0  0  0  0  0  0
  -22.1730   -5.2080   22.7550 C   0  0  0  0  0  0  0  0  0  0  0  0
  -21.3000   -5.8950   23.6300 C   0  0  0  0  0  3  0  0  0  0  0  0
  -20.9010   -5.3050   24.8500 C   0  0  0  0  0  3  0  0  0  0  0  0
  -21.3610   -4.0230   25.2030 C   0  0  0  0  0  0  0  0  0  0  0  0
  -22.2120   -3.3240   24.3300 C   0  0  0  0  0  3  0  0  0  0  0  0
  -22.6080   -3.9090   23.1100 C   0  0  0  0  0  0  0  0  0  0  0  0
  -23.4040   -3.2020   22.2710 F   0  0  0  0  0  0  0  0  0  0  0  0
  -20.9820   -3.4600   26.3760 F   0  0  0  0  0  0  0  0  0  0  0  0
  -22.8930  -12.3600   19.4640 C   0  0  0  0  0  0  0  0  0  0  0  0
  -22.1230  -11.6450   20.3230 N   0  0  0  0  0  0  0  0  0  0  0  0
  -22.3010  -13.0460   18.6530 O   0  0  0  0  0  0  0  0  0  0  0  0
  -22.5450  -11.1120   21.0710 H   0  0  0  0  0  0  0  0  0  0  0  0
  -21.1190  -11.6340   20.2120 H   0  0  0  0  0  0  0  0  0  0  0  0
  -26.2410  -15.1020   21.2480 N   0  0  0  0  0  0  0  0  0  0  0  0
  -25.4880  -15.7710   21.1950 H   0  0  0  0  0  0  0  0  0  0  0  0
  -26.8730  -15.3160   22.0130 H   0  0  0  0  0  0  0  0  0  0  0  0
  -26.6560  -20.3480   20.1740 C   0  0  0  0  0  3  0  0  0  0  0  0
  -27.6690  -21.5960   19.6640 C   0  0  0  0  0  3  0  0  0  0  0  0
  -27.6980  -23.1670   20.2900 C   0  0  0  0  0  3  0  0  0  0  0  0
  -28.5820  -24.4560   19.6730 C   0  0  0  0  0  3  0  0  0  0  0  0
  -28.7700  -25.9230   20.1730 O   0  0  0  0  0  0  0  0  0  0  0  0
  -25.0070  -31.4570   23.1710 C   0  0  0  0  0  0  0  0  0  0  0  0
  -27.7810  -26.9380   20.0690 C   0  0  0  0  0  0  0  0  0  0  0  0
  -23.9350  -30.0910   21.4310 C   0  0  0  0  0  3  0  0  0  0  0  0
  -25.4820  -28.6510   19.9980 C   0  0  0  0  0  0  0  0  0  0  0  0
  -26.4850  -30.4470   21.3930 C   0  0  0  0  0  2  0  0  0  0  0  0
  -26.6200  -29.0890   20.6860 C   0  0  0  0  0  0  0  0  0  0  0  0
  -27.7870  -28.2390   20.7120 C   0  0  0  0  0  3  0  0  0  0  0  0
  -26.6350  -26.6140   19.3330 C   0  0  0  0  0  3  0  0  0  0  0  0
  -25.5010  -27.4350   19.3090 C   0  0  0  0  0  3  0  0  0  0  0  0
  -24.2340  -29.5080   20.0300 C   0  0  0  0  0  2  0  0  0  0  0  0
  -25.1600  -30.6860   22.0550 N   0  0  0  0  0  0  0  0  0  0  0  0
  -23.8870  -31.6760   23.6600 O   0  0  0  0  0  0  0  0  0  0  0  0
  -23.2680  -29.0040   22.3130 C   0  0  0  0  0  0  0  0  0  0  0  0
  -21.9560  -28.7800   22.1210 N   0  0  0  0  0  0  0  0  0  0  0  0
  -23.9340  -28.3730   23.1380 O   0  0  0  0  0  0  0  0  0  0  0  0
  -21.4750  -29.3470   21.4370 H   0  0  0  0  0  0  0  0  0  0  0  0
  -18.6080  -27.4370   22.4370 C   0  0  0  0  0  0  0  0  0  0  0  0
  -21.1430  -27.7800   22.8180 C   0  0  0  0  0  3  0  0  0  0  0  0
  -21.3210  -26.3770   22.1900 C   0  0  0  0  0  2  0  0  0  0  0  0
  -20.2720  -26.0600   21.1210 C   0  0  0  0  0  2  0  0  0  0  0  0
  -18.8610  -26.1260   21.7130 C   0  0  0  0  0  2  0  0  0  0  0  0
  -19.6800  -28.2210   22.9430 C   0  0  0  0  0  0  0  0  0  0  0  0
  -19.3880  -29.4460   23.5790 C   0  0  0  0  0  3  0  0  0  0  0  0
  -18.0580  -29.8910   23.7120 C   0  0  0  0  0  3  0  0  0  0  0  0
  -17.0020  -29.1040   23.2220 C   0  0  0  0  0  3  0  0  0  0  0  0
  -17.2770  -27.8790   22.5900 C   0  0  0  0  0  3  0  0  0  0  0  0
  -26.2270  -32.1190   23.8770 C   0  0  0  0  0  3  0  0  0  0  0  0
  -25.8270  -33.4760   24.2810 N   0  0  0  0  0  0  0  0  0  0  0  0
  -26.1130  -34.5920   23.5980 C   0  0  0  0  0  0  0  0  0  0  0  0
  -26.8110  -34.5920   22.5810 O   0  0  0  0  0  0  0  0  0  0  0  0
  -25.2060  -33.5460   25.0730 H   0  0  0  0  0  0  0  0  0  0  0  0
  -24.2930  -36.3060   23.3100 C   0  0  0  0  0  1  0  0  0  0  0  0
  -25.5370  -35.9210   24.1270 C   0  0  0  0  0  3  0  0  0  0  0  0
  -27.5950  -36.8750   25.0680 C   0  0  0  0  0  1  0  0  0  0  0  0
  -26.5090  -37.0360   24.1040 N   0  0  0  0  0  0  0  0  0  0  0  0
  -26.0460  -37.9210   24.2920 H   0  0  0  0  0  0  0  0  0  0  0  0
  -26.7390  -31.3020   25.1270 C   0  0  1  0  0  0  0  0  0  0  0  0
  -25.6230  -30.9410   26.1360 C   0  0  0  0  0  1  0  0  0  0  0  0
  -27.4110  -29.9820   24.6830 C   0  0  0  0  0  1  0  0  0  0  0  0
  -27.8180  -32.1160   25.8780 C   0  0  0  0  0  1  0  0  0  0  0  0
  1 50  1  0
  1  3  1  0
  2  1  1  0
  4  1  1  0
  4  7  1  0
  5  9  2  0
  6 22  1  0
  7  5  1  0
  8  9  1  0
  8 11  1  1
  9 12  1  0
 10  7  2  0
 10  6  1  0
 13 10  1  0
 14 21  1  0
 14 20  1  0
 15 20  1  0
 16 17  1  0
 16 15  1  0
 18 17  1  0
 18 25  1  0
 18 19  1  0
 20 19  1  0
 22 47  1  1
 22 25  1  0
 22  8  1  0
 23 42  1  0
 23 24  1  0
 23  8  1  0
 24 27  1  0
 24 26  1  0
 25 26  1  0
 27 28  1  0
 28 29  2  0
 30 33  1  0
 30 29  1  0
 31 30  2  0
 32 31  1  0
 32 27  2  0
 33 34  1  0
 34 39  2  0
 34 35  1  0
 35 36  2  0
 36 37  1  0
 37 41  1  0
 38 37  2  0
 39 38  1  0
 40 39  1  0
 42 43  1  0
 43 45  1  0
 44 42  2  0
 46 43  1  0
 47 49  1  0
 48 47  1  0
 51 50  2  0
 51 52  1  0
 53 54  1  0
 53 52  2  0
 55 66  2  0
 56 54  1  0
 56 61  1  0
 57 65  1  0
 57 67  1  0
 58 64  1  0
 58 60  1  0
 59 65  1  0
 60 61  2  0
 60 59  1  0
 62 56  2  0
 63 62  1  0
 63 58  2  0
 64 57  1  0
 65 55  1  0
 67 69  2  0
 68 67  1  0
 70 68  1  0
 71 80  2  0
 71 76  1  0
 72 68  1  0
 72 76  1  0
 73 72  1  0
 74 75  1  0
 74 73  1  0
 75 71  1  0
 76 77  2  0
 77 78  1  0
 79 78  2  0
 80 79  1  0
 81 55  1  0
 81 82  1  0
 81 91  1  0
 82 85  1  0
 83 87  1  0
 83 82  1  0
 84 83  2  0
 87 86  1  0
 89 87  1  0
 89 90  1  0
 89 88  1  0
 91 94  1  1
 91 92  1  0
 93 91  1  0
M  ISO  4   6 100  14 100  53 101  54 101
M  END
>  <TORSDO>  (36) 
F 22

>  <SCORE>  (36) 
1.233

>  <name>  (36) 
36

>  <ligand_id>  (36) 
36

>  <original_smiles>  (36) 
[H]c1c([H])c([H])c2c(c1[H])C([H])([H])C([H])([H])C([H])([H])C2([H])N([H])C(=O)C1([H])N(C(=O)C([H])(N([H])C(=O)C([H])(N([H])C([H])([H])[H])C([H])([H])[H])C(C([H])([H])[H])(C([H])([H])[H])C([H])([H])[H])C([H])([H])c2c([H])c(OC([H])([H])C([H])([H])C([H])([H])C([H])([H])[N+]([H])([H])C([H])([H])c3c([H])c(F)c(C([H])([H])[H])c(C(=O)N4C([H])([H])C([H])([H])C([H])([H])C([H])(n5nc(-c6c([H])c([H])c(Oc7c([H])c([H])c(F)c([H])c7F)c([H])c6[H])c(C(=O)N([H])[H])c5N([H])[H])C4([H])[H])c3Cl)c([H])c([H])c2C1([H])[H]

>  <smiles>  (36) 
[H]c1c([H])c([H])c2c(c1[H])C([H])([H])C([H])([H])C([H])([H])C2([H])N([H])C(=O)C1([H])N(C(=O)C([H])(N([H])C(=O)C([H])(N([H])C([H])([H])[H])C([H])([H])[H])C(C([H])([H])[H])(C([H])([H])[H])C([H])([H])[H])C([H])([H])c2c([H])c(OC([H])([H])C([H])([H])C([H])([H])C([H])([H])[N+]([H])([H])C([H])([H])c3c([H])c(F)c(C([H])([H])[H])c(C(=O)N4C([H])([H])C([H])([H])C([H])([H])C([H])(n5nc(-c6c([H])c([H])c(Oc7c([H])c([H])c(F)c([H])c7F)c([H])c6[H])c(C(=O)N([H])[H])c5N([H])[H])C4([H])[H])c3Cl)c([H])c([H])c2C1([H])[H]

$$$$
37:0:0
     RDKit          3D

101109  0  0  1  0  0  0  0  0999 V2000
  -29.6840  -20.7890   20.4750 C   0  0  0  0  0  3  0  0  0  0  0  0
  -31.8770  -21.0710   22.1610 C   0  0  0  0  0  3  0  0  0  0  0  0
  -30.7730  -19.8990   20.3260 C   0  0  0  0  0  0  0  0  0  0  0  0
  -29.6780  -21.8400   21.4220 C   0  0  0  0  0  0  0  0  0  0  0  0
  -31.8990  -20.0620   21.1720 C   0  0  0  0  0  0  0  0  0  0  0  0
  -30.7730  -21.9340   22.3260 C   0  0  0  0  0  0  0  0  0  0  0  0
  -33.1390  -19.1890   21.0730 C   0  0  0  0  0  1  0  0  0  0  0  0
  -30.7590  -22.8170   23.4240 N   0  0  0  0  0  0  0  0  0  0  0  0
  -30.1360  -23.6070   23.2950 H   0  0  0  0  0  0  0  0  0  0  0  0
  -29.7520  -23.1620   25.6190 C   0  0  0  0  0  1  0  0  0  0  0  0
  -29.9930  -20.8310   24.7440 C   0  0  0  0  0  1  0  0  0  0  0  0
  -32.0200  -22.1410   25.4800 C   0  0  0  0  0  1  0  0  0  0  0  0
  -30.6460  -22.2350   24.7750 C   0  0  1  0  0  0  0  0  0  0  0  0
  -30.7190  -18.9100   19.1520 C   0  0  0  0  0  2  0  0  0  0  0  0
  -30.9680  -17.3920   19.3780 C   0  0  0  0  0  2  0  0  0  0  0  0
  -30.2020  -16.7070   20.5330 C   0  0  0  0  0  2  0  0  0  0  0  0
  -30.5930  -14.2920   19.6900 C   0  0  0  0  0  0  0  0  0  0  0  0
  -30.1120  -12.1990   18.4680 C   0  0  0  0  0  2  0  0  0  0  0  0
  -29.0330  -12.4700   17.3970 C   0  0  0  0  0  2  0  0  0  0  0  0
  -27.6140  -12.3650   17.9920 C   0  0  0  0  0  2  0  0  0  0  0  0
  -27.4620  -13.1490   19.3240 C   0  0  0  0  0  3  0  0  0  0  0  0
  -28.6300  -12.8240   20.2830 C   0  0  0  0  0  2  0  0  0  0  0  0
  -29.8890  -13.1350   19.5820 N   0  0  0  0  0  0  0  0  0  0  0  0
  -31.6510  -14.4920   19.0900 O   0  0  0  0  0  0  0  0  0  0  0  0
  -29.9610  -15.2550   20.3890 N   0  0  0  0  0  0  0  0  0  0  0  0
  -29.1140  -14.9280   20.8230 H   0  0  0  0  0  0  0  0  0  0  0  0
  -25.1800  -13.8040   20.3190 C   0  0  0  0  0  0  0  0  0  0  0  0
  -24.1380  -13.0470   20.7910 C   0  0  0  0  0  0  0  0  0  0  0  0
  -24.5540  -11.6860   20.6680 C   0  0  0  0  0  0  0  0  0  0  0  0
  -26.1640  -12.9010   19.9480 N   0  0  0  0  0  0  0  0  0  0  0  0
  -25.7980  -11.6220   20.2160 N   0  0  0  0  0  0  0  0  0  0  0  0
  -23.8190  -10.4370   20.9080 C   0  0  0  0  0  0  0  0  0  0  0  0
  -24.3040   -9.4580   21.8040 C   0  0  0  0  0  3  0  0  0  0  0  0
  -23.5730   -8.2720   22.0350 C   0  0  0  0  0  3  0  0  0  0  0  0
  -22.3440   -8.0550   21.3700 C   0  0  0  0  0  0  0  0  0  0  0  0
  -21.8740   -9.0230   20.4630 C   0  0  0  0  0  3  0  0  0  0  0  0
  -22.6060  -10.2000   20.2320 C   0  0  0  0  0  3  0  0  0  0  0  0
  -21.5800   -6.9230   21.5100 O   0  0  0  0  0  0  0  0  0  0  0  0
  -21.5690   -6.1990   22.6770 C   0  0  0  0  0  0  0  0  0  0  0  0
  -21.1880   -6.7760   23.9070 C   0  0  0  0  0  3  0  0  0  0  0  0
  -21.1250   -5.9790   25.0670 C   0  0  0  0  0  3  0  0  0  0  0  0
  -21.4360   -4.6080   24.9980 C   0  0  0  0  0  0  0  0  0  0  0  0
  -21.8110   -4.0320   23.7710 C   0  0  0  0  0  3  0  0  0  0  0  0
  -21.8760   -4.8260   22.6130 C   0  0  0  0  0  0  0  0  0  0  0  0
  -22.2180   -4.2610   21.4300 F   0  0  0  0  0  0  0  0  0  0  0  0
  -21.3670   -3.8390   26.1110 F   0  0  0  0  0  0  0  0  0  0  0  0
  -22.7960  -13.5480   21.2340 C   0  0  0  0  0  0  0  0  0  0  0  0
  -22.1570  -12.8470   22.1640 N   0  0  0  0  0  0  0  0  0  0  0  0
  -22.3230  -14.5940   20.7900 O   0  0  0  0  0  0  0  0  0  0  0  0
  -22.5520  -11.9990   22.5440 H   0  0  0  0  0  0  0  0  0  0  0  0
  -21.2590  -13.1650   22.5010 H   0  0  0  0  0  0  0  0  0  0  0  0
  -25.3670  -15.1730   20.1560 N   0  0  0  0  0  0  0  0  0  0  0  0
  -24.6530  -15.8560   20.3850 H   0  0  0  0  0  0  0  0  0  0  0  0
  -26.1840  -15.5850   19.7230 H   0  0  0  0  0  0  0  0  0  0  0  0
  -28.4500  -22.7730   21.4630 C   0  0  0  0  0  2  0  0  0  0  0  0
  -29.5000  -23.9070   19.3660 C   0  0  0  0  0  1  0  0  0  0  0  0
  -28.2690  -23.8290   20.2940 C   0  0  1  0  0  0  0  0  0  0  0  0
  -26.8260  -22.1120   18.8180 C   0  0  0  0  0  1  0  0  0  0  0  0
  -26.9940  -23.5140   19.4390 C   0  0  0  0  0  2  0  0  0  0  0  0
  -28.0820  -25.2490   20.9360 C   0  0  0  0  0  2  0  0  0  0  0  0
  -28.2100  -26.3750   20.0360 O   0  0  0  0  0  0  0  0  0  0  0  0
  -24.5480  -31.6300   23.1620 C   0  0  0  0  0  0  0  0  0  0  0  0
  -27.1040  -27.1930   20.0060 C   0  0  0  0  0  0  0  0  0  0  0  0
  -23.3280  -30.2860   21.4870 C   0  0  0  0  0  3  0  0  0  0  0  0
  -24.7610  -28.7710   20.0230 C   0  0  0  0  0  0  0  0  0  0  0  0
  -25.8610  -30.5980   21.3150 C   0  0  0  0  0  2  0  0  0  0  0  0
  -25.9290  -29.2460   20.6350 C   0  0  0  0  0  0  0  0  0  0  0  0
  -27.1100  -28.4650   20.6210 C   0  0  0  0  0  3  0  0  0  0  0  0
  -25.9210  -26.7450   19.3780 C   0  0  0  0  0  3  0  0  0  0  0  0
  -24.7520  -27.5180   19.3910 C   0  0  0  0  0  3  0  0  0  0  0  0
  -23.5300  -29.6490   20.0880 C   0  0  0  0  0  2  0  0  0  0  0  0
  -24.5970  -30.8490   22.0460 N   0  0  0  0  0  0  0  0  0  0  0  0
  -23.4710  -31.9180   23.7020 O   0  0  0  0  0  0  0  0  0  0  0  0
  -22.6560  -29.2500   22.4160 C   0  0  0  0  0  0  0  0  0  0  0  0
  -21.3300  -29.0900   22.2790 N   0  0  0  0  0  0  0  0  0  0  0  0
  -23.3250  -28.5930   23.2190 O   0  0  0  0  0  0  0  0  0  0  0  0
  -20.8540  -29.6730   21.6050 H   0  0  0  0  0  0  0  0  0  0  0  0
  -17.9300  -27.9470   22.7430 C   0  0  0  0  0  0  0  0  0  0  0  0
  -20.4910  -28.1510   23.0270 C   0  0  0  0  0  3  0  0  0  0  0  0
  -20.5740  -26.7310   22.4230 C   0  0  0  0  0  2  0  0  0  0  0  0
  -19.4710  -26.4510   21.3990 C   0  0  0  0  0  2  0  0  0  0  0  0
  -18.0860  -26.6070   22.0390 C   0  0  0  0  0  2  0  0  0  0  0  0
  -19.0620  -28.6790   23.1910 C   0  0  0  0  0  0  0  0  0  0  0  0
  -18.8670  -29.9360   23.8060 C   0  0  0  0  0  3  0  0  0  0  0  0
  -17.5700  -30.4580   23.9770 C   0  0  0  0  0  3  0  0  0  0  0  0
  -16.4540  -29.7220   23.5450 C   0  0  0  0  0  3  0  0  0  0  0  0
  -16.6320  -28.4670   22.9330 C   0  0  0  0  0  3  0  0  0  0  0  0
  -25.8440  -32.2240   23.7970 C   0  0  0  0  0  3  0  0  0  0  0  0
  -26.3310  -31.4410   25.0780 C   0  0  1  0  0  0  0  0  0  0  0  0
  -25.2190  -31.2250   26.1300 C   0  0  0  0  0  1  0  0  0  0  0  0
  -26.8890  -30.0510   24.6910 C   0  0  0  0  0  1  0  0  0  0  0  0
  -27.4940  -32.2090   25.7510 C   0  0  0  0  0  1  0  0  0  0  0  0
  -25.5710  -33.6280   24.1260 N   0  0  0  0  0  0  0  0  0  0  0  0
  -25.9360  -34.6700   23.3660 C   0  0  0  0  0  0  0  0  0  0  0  0
  -26.6150  -34.5510   22.3440 O   0  0  0  0  0  0  0  0  0  0  0  0
  -24.9650  -33.7960   24.9140 H   0  0  0  0  0  0  0  0  0  0  0  0
  -24.2620  -36.5080   22.9880 C   0  0  0  0  0  1  0  0  0  0  0  0
  -25.4780  -36.0680   23.8180 C   0  0  0  0  0  3  0  0  0  0  0  0
  -27.6130  -36.8920   24.7010 C   0  0  0  0  0  1  0  0  0  0  0  0
  -26.5410  -37.0930   23.7320 N   0  0  0  0  0  0  0  0  0  0  0  0
  -26.1540  -38.0220   23.8800 H   0  0  0  0  0  0  0  0  0  0  0  0
  1  4  1  0
  2  6  1  0
  3  1  2  0
  3  5  1  0
  4 55  1  0
  4  6  2  0
  5  2  2  0
  6  8  1  0
  7  5  1  0
  8 13  1  0
  9  8  1  0
 13 11  1  6
 13 12  1  0
 13 10  1  0
 14 15  1  0
 14  3  1  0
 15 16  1  0
 17 25  1  0
 18 23  1  0
 19 20  1  0
 19 18  1  0
 21 20  1  0
 21 30  1  0
 21 22  1  0
 23 17  1  0
 23 22  1  0
 24 17  2  0
 25 16  1  0
 25 26  1  0
 27 28  2  0
 28 47  1  0
 29 28  1  0
 29 32  1  0
 30 31  1  0
 30 27  1  0
 31 29  2  0
 32 33  1  0
 33 34  2  0
 35 38  1  0
 35 34  1  0
 36 35  2  0
 37 36  1  0
 37 32  2  0
 38 39  1  0
 39 40  1  0
 40 41  2  0
 42 41  1  0
 42 46  1  0
 43 42  2  0
 44 39  2  0
 44 43  1  0
 45 44  1  0
 47 48  1  0
 48 51  1  0
 48 50  1  0
 49 47  2  0
 52 27  1  0
 52 53  1  0
 54 52  1  0
 57 56  1  6
 57 60  1  0
 57 55  1  0
 58 59  1  0
 59 57  1  0
 61 60  1  0
 62 73  2  0
 63 61  1  0
 63 68  1  0
 64 72  1  0
 64 74  1  0
 65 71  1  0
 65 67  1  0
 66 72  1  0
 67 66  1  0
 68 67  2  0
 69 70  1  0
 69 63  2  0
 70 65  2  0
 71 64  1  0
 72 62  1  0
 74 76  2  0
 75 74  1  0
 77 75  1  0
 78 87  2  0
 78 83  1  0
 79 75  1  0
 79 83  1  0
 80 79  1  0
 81 82  1  0
 81 80  1  0
 82 78  1  0
 83 84  2  0
 84 85  1  0
 86 85  2  0
 87 86  1  0
 88 62  1  0
 88 93  1  0
 88 89  1  0
 89 92  1  1
 89 90  1  0
 91 89  1  0
 93 96  1  0
 94 98  1  0
 94 93  1  0
 95 94  2  0
 98 97  1  0
100 98  1  0
100101  1  0
100 99  1  0
M  ISO  4  17 100  25 100  60 101  61 101
M  END
>  <TORSDO>  (37) 
F 25

>  <SCORE>  (37) 
-9.667

>  <name>  (37) 
37

>  <ligand_id>  (37) 
37

>  <original_smiles>  (37) 
[H]c1c([H])c([H])c2c(c1[H])C([H])([H])C([H])([H])C([H])([H])C2([H])N([H])C(=O)C1([H])N(C(=O)C([H])(N([H])C(=O)C([H])(N([H])C([H])([H])[H])C([H])([H])[H])C(C([H])([H])[H])(C([H])([H])[H])C([H])([H])[H])C([H])([H])c2c([H])c(OC([H])([H])C(C([H])([H])[H])(C([H])([H])c3c([H])c(C([H])([H])C([H])([H])C([H])([H])N([H])C(=O)N4C([H])([H])C([H])([H])C([H])([H])C([H])(n5nc(-c6c([H])c([H])c(Oc7c([H])c([H])c(F)c([H])c7F)c([H])c6[H])c(C(=O)N([H])[H])c5N([H])[H])C4([H])[H])c(C([H])([H])[H])c([H])c3N([H])C(C([H])([H])[H])(C([H])([H])[H])C([H])([H])[H])C([H])([H])C([H])([H])[H])c([H])c([H])c2C1([H])[H]

>  <smiles>  (37) 
[H]c1c([H])c([H])c2c(c1[H])C([H])([H])C([H])([H])C([H])([H])C2([H])N([H])C(=O)C1([H])N(C(=O)C([H])(N([H])C(=O)C([H])(N([H])C([H])([H])[H])C([H])([H])[H])C(C([H])([H])[H])(C([H])([H])[H])C([H])([H])[H])C([H])([H])c2c([H])c(OC([H])([H])C(C([H])([H])[H])(C([H])([H])c3c([H])c(C([H])([H])C([H])([H])C([H])([H])N([H])C(=O)N4C([H])([H])C([H])([H])C([H])([H])C([H])(n5nc(-c6c([H])c([H])c(Oc7c([H])c([H])c(F)c([H])c7F)c([H])c6[H])c(C(=O)N([H])[H])c5N([H])[H])C4([H])[H])c(C([H])([H])[H])c([H])c3N([H])C(C([H])([H])[H])(C([H])([H])[H])C([H])([H])[H])C([H])([H])C([H])([H])[H])c([H])c([H])c2C1([H])[H]

$$$$
38:0:0
     RDKit          3D

 98106  0  0  1  0  0  0  0  0999 V2000
  -29.5300  -20.7960   15.9080 C   0  0  0  0  0  3  0  0  0  0  0  0
  -31.5990  -20.9070   17.8300 C   0  0  0  0  0  0  0  0  0  0  0  0
  -31.1510  -19.6500   17.3280 C   0  0  0  0  0  0  0  0  0  0  0  0
  -30.9760  -22.1130   17.3790 C   0  0  0  0  0  0  0  0  0  0  0  0
  -30.1000  -19.6050   16.3770 C   0  0  0  0  0  0  0  0  0  0  0  0
  -29.9590  -22.0410   16.3910 C   0  0  0  0  0  0  0  0  0  0  0  0
  -32.7460  -20.9380   18.8500 C   0  0  0  0  0  1  0  0  0  0  0  0
  -29.4880  -18.1130   15.7500 Cl  0  0  0  0  0  0  0  0  0  0  0  0
  -29.1970  -23.4550   15.7460 Cl  0  0  0  0  0  0  0  0  0  0  0  0
  -31.8180  -18.3470   17.7810 C   0  0  0  0  0  2  0  0  0  0  0  0
  -31.6780  -18.0440   19.2870 C   0  0  0  0  0  2  0  0  0  0  0  0
  -30.7230  -16.8790   19.5950 C   0  0  0  0  0  2  0  0  0  0  0  0
  -30.9190  -16.3040   21.0180 C   0  0  0  0  0  2  0  0  0  0  0  0
  -31.1250  -13.8690   20.5970 C   0  0  0  0  0  0  0  0  0  0  0  0
  -30.6320  -11.8970   19.2280 C   0  0  0  0  0  2  0  0  0  0  0  0
  -29.7360  -12.3550   18.0590 C   0  0  0  0  0  2  0  0  0  0  0  0
  -28.2500  -12.3150   18.4720 C   0  0  0  0  0  2  0  0  0  0  0  0
  -27.9840  -13.0300   19.8260 C   0  0  0  0  0  3  0  0  0  0  0  0
  -28.9960  -12.5650   20.8980 C   0  0  0  0  0  2  0  0  0  0  0  0
  -30.3520  -12.7810   20.3680 N   0  0  0  0  0  0  0  0  0  0  0  0
  -32.2800  -13.9870   20.1770 O   0  0  0  0  0  0  0  0  0  0  0  0
  -30.4650  -14.9170   21.1090 N   0  0  0  0  0  0  0  0  0  0  0  0
  -29.5220  -14.7520   21.4300 H   0  0  0  0  0  0  0  0  0  0  0  0
  -25.6170  -13.7880   20.5070 C   0  0  0  0  0  0  0  0  0  0  0  0
  -24.4940  -13.0820   20.8470 C   0  0  0  0  0  0  0  0  0  0  0  0
  -24.8670  -11.7030   20.7970 C   0  0  0  0  0  0  0  0  0  0  0  0
  -26.6060  -12.8420   20.2740 N   0  0  0  0  0  0  0  0  0  0  0  0
  -26.1560  -11.5840   20.5060 N   0  0  0  0  0  0  0  0  0  0  0  0
  -24.0580  -10.4890   20.9520 C   0  0  0  0  0  0  0  0  0  0  0  0
  -24.4000   -9.4870   21.8880 C   0  0  0  0  0  3  0  0  0  0  0  0
  -23.5970   -8.3350   22.0300 C   0  0  0  0  0  3  0  0  0  0  0  0
  -22.4360   -8.1760   21.2340 C   0  0  0  0  0  0  0  0  0  0  0  0
  -22.1110   -9.1650   20.2890 C   0  0  0  0  0  3  0  0  0  0  0  0
  -22.9160  -10.3080   20.1450 C   0  0  0  0  0  3  0  0  0  0  0  0
  -21.6090   -7.0790   21.2870 O   0  0  0  0  0  0  0  0  0  0  0  0
  -21.5050   -6.3080   22.4170 C   0  0  0  0  0  0  0  0  0  0  0  0
  -20.9740   -6.8200   23.6220 C   0  0  0  0  0  3  0  0  0  0  0  0
  -20.8180   -5.9730   24.7360 C   0  0  0  0  0  3  0  0  0  0  0  0
  -21.1840   -4.6170   24.6490 C   0  0  0  0  0  0  0  0  0  0  0  0
  -21.7090   -4.1040   23.4500 C   0  0  0  0  0  3  0  0  0  0  0  0
  -21.8640   -4.9480   22.3350 C   0  0  0  0  0  0  0  0  0  0  0  0
  -22.3480   -4.4430   21.1740 F   0  0  0  0  0  0  0  0  0  0  0  0
  -21.0300   -3.8010   25.7180 F   0  0  0  0  0  0  0  0  0  0  0  0
  -23.1260  -13.6430   21.1080 C   0  0  0  0  0  0  0  0  0  0  0  0
  -22.3330  -12.9710   21.9340 N   0  0  0  0  0  0  0  0  0  0  0  0
  -22.7680  -14.7110   20.6120 O   0  0  0  0  0  0  0  0  0  0  0  0
  -22.6330  -12.1050   22.3590 H   0  0  0  0  0  0  0  0  0  0  0  0
  -21.4130  -13.3270   22.1500 H   0  0  0  0  0  0  0  0  0  0  0  0
  -25.8740  -15.1470   20.3590 N   0  0  0  0  0  0  0  0  0  0  0  0
  -25.1490  -15.8490   20.4550 H   0  0  0  0  0  0  0  0  0  0  0  0
  -26.7570  -15.5310   20.0420 H   0  0  0  0  0  0  0  0  0  0  0  0
  -31.3650  -23.4850   17.9500 C   0  0  0  0  0  2  0  0  0  0  0  0
  -29.2360  -23.4270   19.2070 C   0  0  0  0  0  1  0  0  0  0  0  0
  -30.6840  -23.7670   19.2440 N   0  0  2  0  0  4  0  0  0  0  0  0
  -31.1130  -23.1450   19.9120 H   0  0  0  0  0  0  0  0  0  0  0  0
  -30.9210  -25.1570   19.7270 C   0  0  0  0  0  2  0  0  0  0  0  0
  -30.5350  -25.3450   21.2120 C   0  0  0  0  0  2  0  0  0  0  0  0
  -30.2110  -26.7000   21.5110 O   0  0  0  0  0  0  0  0  0  0  0  0
  -25.2290  -31.3490   23.4710 C   0  0  0  0  0  0  0  0  0  0  0  0
  -28.9380  -27.1690   21.2580 C   0  0  0  0  0  0  0  0  0  0  0  0
  -24.5200  -29.6850   21.7820 C   0  0  0  0  0  3  0  0  0  0  0  0
  -26.3860  -28.2860   20.7590 C   0  0  0  0  0  0  0  0  0  0  0  0
  -26.9690  -30.3970   21.9640 C   0  0  0  0  0  2  0  0  0  0  0  0
  -27.3430  -29.0160   21.4740 C   0  0  0  0  0  0  0  0  0  0  0  0
  -28.6170  -28.4630   21.7210 C   0  0  0  0  0  3  0  0  0  0  0  0
  -27.9510  -26.4360   20.5540 C   0  0  0  0  0  3  0  0  0  0  0  0
  -26.6840  -26.9930   20.2970 C   0  0  0  0  0  3  0  0  0  0  0  0
  -25.0520  -28.9520   20.5210 C   0  0  0  0  0  2  0  0  0  0  0  0
  -25.5790  -30.4970   22.4660 N   0  0  0  0  0  0  0  0  0  0  0  0
  -24.0430  -31.4960   23.8000 O   0  0  0  0  0  0  0  0  0  0  0  0
  -23.8510  -28.6460   22.7070 C   0  0  0  0  0  0  0  0  0  0  0  0
  -22.5970  -28.2870   22.3900 N   0  0  0  0  0  0  0  0  0  0  0  0
  -24.4620  -28.1620   23.6640 O   0  0  0  0  0  0  0  0  0  0  0  0
  -22.1660  -28.7320   21.5920 H   0  0  0  0  0  0  0  0  0  0  0  0
  -19.3160  -26.7810   22.5100 C   0  0  0  0  0  0  0  0  0  0  0  0
  -21.7800  -27.2980   23.0930 C   0  0  0  0  0  3  0  0  0  0  0  0
  -22.0920  -25.8660   22.5970 C   0  0  0  0  0  2  0  0  0  0  0  0
  -21.1660  -25.4050   21.4670 C   0  0  0  0  0  2  0  0  0  0  0  0
  -19.7040  -25.4330   21.9250 C   0  0  0  0  0  2  0  0  0  0  0  0
  -20.2920  -27.6630   23.0430 C   0  0  0  0  0  0  0  0  0  0  0  0
  -19.8820  -28.9180   23.5420 C   0  0  0  0  0  3  0  0  0  0  0  0
  -18.5260  -29.2940   23.5180 C   0  0  0  0  0  3  0  0  0  0  0  0
  -17.5610  -28.4100   23.0030 C   0  0  0  0  0  3  0  0  0  0  0  0
  -17.9560  -27.1550   22.5050 C   0  0  0  0  0  3  0  0  0  0  0  0
  -26.2950  -32.1930   24.2370 C   0  0  0  0  0  3  0  0  0  0  0  0
  -25.7620  -33.5530   24.3750 N   0  0  0  0  0  0  0  0  0  0  0  0
  -26.0710  -34.5780   23.5700 C   0  0  0  0  0  0  0  0  0  0  0  0
  -26.9040  -34.4900   22.6630 O   0  0  0  0  0  0  0  0  0  0  0  0
  -25.0320  -33.6840   25.0600 H   0  0  0  0  0  0  0  0  0  0  0  0
  -24.1880  -36.0580   22.8030 C   0  0  0  0  0  1  0  0  0  0  0  0
  -25.3420  -35.9140   23.8080 C   0  0  0  0  0  3  0  0  0  0  0  0
  -27.1760  -37.1860   24.8260 C   0  0  0  0  0  1  0  0  0  0  0  0
  -26.2280  -37.0940   23.7180 N   0  0  0  0  0  0  0  0  0  0  0  0
  -25.6850  -37.9520   23.6920 H   0  0  0  0  0  0  0  0  0  0  0  0
  -26.6670  -31.5910   25.6490 C   0  0  1  0  0  0  0  0  0  0  0  0
  -25.4380  -31.2600   26.5260 C   0  0  0  0  0  1  0  0  0  0  0  0
  -27.4930  -30.2920   25.4840 C   0  0  0  0  0  1  0  0  0  0  0  0
  -27.5550  -32.5900   26.4270 C   0  0  0  0  0  1  0  0  0  0  0  0
  1  5  2  0
  1  6  1  0
  2  7  1  0
  3 10  1  0
  3  2  2  0
  4  2  1  0
  4 52  1  0
  5  3  1  0
  6  4  2  0
  8  5  1  0
  9  6  1  0
 10 11  1  0
 11 12  1  0
 12 13  1  0
 13 22  1  0
 14 22  1  0
 15 20  1  0
 16 17  1  0
 16 15  1  0
 18 17  1  0
 18 27  1  0
 18 19  1  0
 20 14  1  0
 20 19  1  0
 21 14  2  0
 22 23  1  0
 24 25  2  0
 25 44  1  0
 26 25  1  0
 26 29  1  0
 27 28  1  0
 27 24  1  0
 28 26  2  0
 29 30  1  0
 30 31  2  0
 32 35  1  0
 32 31  1  0
 33 32  2  0
 34 33  1  0
 34 29  2  0
 35 36  1  0
 36 37  1  0
 37 38  2  0
 39 38  1  0
 39 43  1  0
 40 39  2  0
 41 36  2  0
 41 40  1  0
 42 41  1  0
 44 45  1  0
 45 48  1  0
 45 47  1  0
 46 44  2  0
 49 50  1  0
 49 24  1  0
 51 49  1  0
 52 54  1  0
 53 54  1  0
 54 56  1  0
 54 55  1  1
 56 57  1  0
 57 58  1  0
 59 70  2  0
 60 58  1  0
 60 65  1  0
 61 69  1  0
 61 71  1  0
 62 64  1  0
 63 69  1  0
 64 65  2  0
 64 63  1  0
 66 60  2  0
 67 66  1  0
 67 62  2  0
 68 62  1  0
 68 61  1  0
 69 59  1  0
 71 73  2  0
 72 71  1  0
 74 72  1  0
 75 80  1  0
 76 72  1  0
 77 76  1  0
 78 79  1  0
 78 77  1  0
 79 75  1  0
 80 76  1  0
 80 81  2  0
 82 81  1  0
 83 82  2  0
 84 75  2  0
 84 83  1  0
 85 59  1  0
 85 86  1  0
 85 95  1  0
 86 89  1  0
 87 91  1  0
 87 86  1  0
 88 87  2  0
 91 90  1  0
 93 91  1  0
 93 92  1  0
 94 93  1  0
 95 98  1  1
 95 96  1  0
 97 95  1  0
M  ISO  4  14 100  22 100  57 101  58 101
M  END
>  <TORSDO>  (38) 
F 24

>  <SCORE>  (38) 
-10.322

>  <name>  (38) 
38

>  <ligand_id>  (38) 
38

>  <original_smiles>  (38) 
[H]c1c([H])c([H])c2c(c1[H])C([H])([H])C([H])([H])C([H])([H])C2([H])N([H])C(=O)C1([H])N(C(=O)C([H])(N([H])C(=O)C([H])(N([H])C([H])([H])[H])C([H])([H])[H])C(C([H])([H])[H])(C([H])([H])[H])C([H])([H])[H])C([H])([H])c2c([H])c(OC([H])([H])C([H])([H])[N+]([H])(C([H])([H])[H])C([H])([H])c3c(Cl)c([H])c(Cl)c(C([H])([H])C([H])([H])C([H])([H])C([H])([H])N([H])C(=O)N4C([H])([H])C([H])([H])C([H])([H])C([H])(n5nc(-c6c([H])c([H])c(Oc7c([H])c([H])c(F)c([H])c7F)c([H])c6[H])c(C(=O)N([H])[H])c5N([H])[H])C4([H])[H])c3C([H])([H])[H])c([H])c([H])c2C1([H])[H]

>  <smiles>  (38) 
[H]c1c([H])c([H])c2c(c1[H])C([H])([H])C([H])([H])C([H])([H])C2([H])N([H])C(=O)C1([H])N(C(=O)C([H])(N([H])C(=O)C([H])(N([H])C([H])([H])[H])C([H])([H])[H])C(C([H])([H])[H])(C([H])([H])[H])C([H])([H])[H])C([H])([H])c2c([H])c(OC([H])([H])C([H])([H])[N+]([H])(C([H])([H])[H])C([H])([H])c3c(Cl)c([H])c(Cl)c(C([H])([H])C([H])([H])C([H])([H])C([H])([H])N([H])C(=O)N4C([H])([H])C([H])([H])C([H])([H])C([H])(n5nc(-c6c([H])c([H])c(Oc7c([H])c([H])c(F)c([H])c7F)c([H])c6[H])c(C(=O)N([H])[H])c5N([H])[H])C4([H])[H])c3C([H])([H])[H])c([H])c([H])c2C1([H])[H]

$$$$
39:0:0
     RDKit          3D

 99107  0  0  1  0  0  0  0  0999 V2000
  -31.0340  -18.5330   21.4890 C   0  0  0  0  0  3  0  0  0  0  0  0
  -30.7360  -17.1760   21.2170 C   0  0  0  0  0  0  0  0  0  0  0  0
  -29.8670  -17.9520   19.0120 C   0  0  0  0  0  0  0  0  0  0  0  0
  -30.2000  -19.3200   19.3260 C   0  0  0  0  0  0  0  0  0  0  0  0
  -30.1500  -16.8810   19.9400 C   0  0  0  0  0  0  0  0  0  0  0  0
  -30.7730  -19.5740   20.5890 C   0  0  0  0  0  0  0  0  0  0  0  0
  -29.2290  -17.6100   17.6660 C   0  0  0  0  0  1  0  0  0  0  0  0
  -31.1910  -21.1830   21.0740 Cl  0  0  0  0  0  0  0  0  0  0  0  0
  -30.2910  -14.5730   18.9020 C   0  0  0  0  0  0  0  0  0  0  0  0
  -29.7820  -12.4150   17.7950 C   0  0  0  0  0  2  0  0  0  0  0  0
  -28.5880  -12.6180   16.8370 C   0  0  0  0  0  2  0  0  0  0  0  0
  -27.2500  -12.4480   17.5850 C   0  0  0  0  0  2  0  0  0  0  0  0
  -27.1980  -13.2580   18.9070 C   0  0  0  0  0  3  0  0  0  0  0  0
  -28.4750  -13.0270   19.7440 C   0  0  0  0  0  2  0  0  0  0  0  0
  -29.6350  -13.3750   18.9000 N   0  0  0  0  0  0  0  0  0  0  0  0
  -31.2730  -14.7930   18.1850 O   0  0  0  0  0  0  0  0  0  0  0  0
  -29.7060  -15.5450   19.6420 N   0  0  0  0  0  0  0  0  0  0  0  0
  -28.8940  -15.2370   20.1570 H   0  0  0  0  0  0  0  0  0  0  0  0
  -25.0290  -13.8390   20.1650 C   0  0  0  0  0  0  0  0  0  0  0  0
  -24.0610  -13.0530   20.7290 C   0  0  0  0  0  0  0  0  0  0  0  0
  -24.4870  -11.7030   20.5360 C   0  0  0  0  0  0  0  0  0  0  0  0
  -25.9850  -12.9660   19.6680 N   0  0  0  0  0  0  0  0  0  0  0  0
  -25.6750  -11.6750   19.9470 N   0  0  0  0  0  0  0  0  0  0  0  0
  -23.8070  -10.4340   20.8300 C   0  0  0  0  0  0  0  0  0  0  0  0
  -24.3320   -9.5120   21.7600 C   0  0  0  0  0  3  0  0  0  0  0  0
  -23.6490   -8.3080   22.0370 C   0  0  0  0  0  3  0  0  0  0  0  0
  -22.4270   -8.0180   21.3850 C   0  0  0  0  0  0  0  0  0  0  0  0
  -21.9200   -8.9300   20.4420 C   0  0  0  0  0  3  0  0  0  0  0  0
  -22.6030  -10.1250   20.1630 C   0  0  0  0  0  3  0  0  0  0  0  0
  -21.7090   -6.8630   21.5710 O   0  0  0  0  0  0  0  0  0  0  0  0
  -21.6650   -6.2320   22.7890 C   0  0  0  0  0  0  0  0  0  0  0  0
  -21.2160   -6.8890   23.9530 C   0  0  0  0  0  3  0  0  0  0  0  0
  -21.1220   -6.1820   25.1680 C   0  0  0  0  0  3  0  0  0  0  0  0
  -21.4670   -4.8190   25.2190 C   0  0  0  0  0  0  0  0  0  0  0  0
  -21.9100   -4.1600   24.0600 C   0  0  0  0  0  3  0  0  0  0  0  0
  -22.0050   -4.8640   22.8470 C   0  0  0  0  0  0  0  0  0  0  0  0
  -22.4120   -4.2200   21.7270 F   0  0  0  0  0  0  0  0  0  0  0  0
  -21.3690   -4.1380   26.3860 F   0  0  0  0  0  0  0  0  0  0  0  0
  -22.7670  -13.5200   21.3310 C   0  0  0  0  0  0  0  0  0  0  0  0
  -22.2680  -12.8130   22.3390 N   0  0  0  0  0  0  0  0  0  0  0  0
  -22.2140  -14.5500   20.9430 O   0  0  0  0  0  0  0  0  0  0  0  0
  -22.7290  -11.9770   22.6690 H   0  0  0  0  0  0  0  0  0  0  0  0
  -21.4120  -13.1090   22.7850 H   0  0  0  0  0  0  0  0  0  0  0  0
  -25.1690  -15.2170   20.0140 N   0  0  0  0  0  0  0  0  0  0  0  0
  -24.4600  -15.8710   20.3250 H   0  0  0  0  0  0  0  0  0  0  0  0
  -25.9260  -15.6660   19.5150 H   0  0  0  0  0  0  0  0  0  0  0  0
  -31.4030  -16.7590   23.6950 C   0  0  0  0  0  1  0  0  0  0  0  0
  -32.3610  -15.3540   21.9050 C   0  0  0  0  0  1  0  0  0  0  0  0
  -29.9500  -15.1110   22.6140 C   0  0  0  0  0  1  0  0  0  0  0  0
  -31.0880  -16.1170   22.3180 C   0  0  2  0  0  0  0  0  0  0  0  0
  -30.0980  -20.5320   18.3420 C   0  0  0  0  0  2  0  0  0  0  0  0
  -29.0600  -21.5850   18.6360 N   0  0  0  0  0  4  0  0  0  0  0  0
  -29.0130  -21.6680   19.6430 H   0  0  0  0  0  0  0  0  0  0  0  0
  -28.1680  -21.2380   18.3230 H   0  0  0  0  0  0  0  0  0  0  0  0
  -29.4750  -22.9810   16.5550 C   0  0  0  0  0  1  0  0  0  0  0  0
  -29.2890  -22.9840   18.0900 C   0  0  0  0  0  3  0  0  0  0  0  0
  -28.1510  -24.0180   18.4680 C   0  0  0  0  0  2  0  0  0  0  0  0
  -28.5500  -25.3890   19.1380 C   0  0  0  0  0  2  0  0  0  0  0  0
  -28.2610  -26.6370   18.4490 O   0  0  0  0  0  0  0  0  0  0  0  0
  -24.7670  -30.7660   23.1780 C   0  0  0  0  0  0  0  0  0  0  0  0
  -27.0990  -27.3080   18.8070 C   0  0  0  0  0  0  0  0  0  0  0  0
  -23.3970  -29.7600   21.3800 C   0  0  0  0  0  3  0  0  0  0  0  0
  -24.6990  -28.6830   19.4610 C   0  0  0  0  0  0  0  0  0  0  0  0
  -25.8790  -30.2620   20.9990 C   0  0  0  0  0  2  0  0  0  0  0  0
  -25.9130  -29.0930   20.0300 C   0  0  0  0  0  0  0  0  0  0  0  0
  -27.1170  -28.4220   19.6880 C   0  0  0  0  0  3  0  0  0  0  0  0
  -25.8640  -26.9150   18.2520 C   0  0  0  0  0  3  0  0  0  0  0  0
  -24.6740  -27.6000   18.5660 C   0  0  0  0  0  3  0  0  0  0  0  0
  -23.4550  -29.4470   19.8590 C   0  0  0  0  0  2  0  0  0  0  0  0
  -24.7050  -30.2670   21.9100 N   0  0  0  0  0  0  0  0  0  0  0  0
  -23.7540  -30.8460   23.8860 O   0  0  0  0  0  0  0  0  0  0  0  0
  -22.8810  -28.5060   22.1230 C   0  0  0  0  0  0  0  0  0  0  0  0
  -21.5880  -28.1920   21.9420 N   0  0  0  0  0  0  0  0  0  0  0  0
  -23.6390  -27.8300   22.8220 O   0  0  0  0  0  0  0  0  0  0  0  0
  -21.0310  -28.8050   21.3640 H   0  0  0  0  0  0  0  0  0  0  0  0
  -18.4330  -26.4270   22.0100 C   0  0  0  0  0  0  0  0  0  0  0  0
  -20.8970  -27.0310   22.5040 C   0  0  0  0  0  3  0  0  0  0  0  0
  -21.2620  -25.7390   21.7340 C   0  0  0  0  0  2  0  0  0  0  0  0
  -20.2780  -25.4100   20.6070 C   0  0  0  0  0  2  0  0  0  0  0  0
  -18.8600  -25.2420   21.1590 C   0  0  0  0  0  2  0  0  0  0  0  0
  -19.3900  -27.2760   22.6290 C   0  0  0  0  0  0  0  0  0  0  0  0
  -18.9400  -28.3850   23.3780 C   0  0  0  0  0  3  0  0  0  0  0  0
  -17.5630  -28.6510   23.5160 C   0  0  0  0  0  3  0  0  0  0  0  0
  -16.6220  -27.7970   22.9170 C   0  0  0  0  0  3  0  0  0  0  0  0
  -17.0550  -26.6860   22.1710 C   0  0  0  0  0  3  0  0  0  0  0  0
  -26.1060  -31.2840   23.7900 C   0  0  0  0  0  3  0  0  0  0  0  0
  -25.8790  -32.6540   24.2660 N   0  0  0  0  0  0  0  0  0  0  0  0
  -26.2390  -33.7610   23.6020 C   0  0  0  0  0  0  0  0  0  0  0  0
  -26.8700  -33.7320   22.5400 O   0  0  0  0  0  0  0  0  0  0  0  0
  -25.3320  -32.7550   25.1080 H   0  0  0  0  0  0  0  0  0  0  0  0
  -24.5950  -35.6590   23.4780 C   0  0  0  0  0  1  0  0  0  0  0  0
  -25.8320  -35.1160   24.2110 C   0  0  0  0  0  3  0  0  0  0  0  0
  -28.0240  -35.8050   25.0750 C   0  0  0  0  0  1  0  0  0  0  0  0
  -26.9140  -36.1240   24.1810 N   0  0  0  0  0  0  0  0  0  0  0  0
  -26.5570  -37.0400   24.4330 H   0  0  0  0  0  0  0  0  0  0  0  0
  -26.6510  -30.3760   24.9600 C   0  0  1  0  0  0  0  0  0  0  0  0
  -25.5760  -29.9900   26.0050 C   0  0  0  0  0  1  0  0  0  0  0  0
  -27.2480  -29.0650   24.3960 C   0  0  0  0  0  1  0  0  0  0  0  0
  -27.7990  -31.1030   25.6980 C   0  0  0  0  0  1  0  0  0  0  0  0
  2  1  1  0
  2 50  1  0
  3  4  2  0
  3  5  1  0
  4  6  1  0
  5  2  2  0
  6  8  1  0
  6  1  2  0
  7  3  1  0
  9 17  1  0
 10 15  1  0
 11 12  1  0
 11 10  1  0
 13 12  1  0
 13 22  1  0
 13 14  1  0
 15  9  1  0
 15 14  1  0
 16  9  2  0
 17  5  1  0
 17 18  1  0
 19 20  2  0
 20 39  1  0
 21 20  1  0
 21 24  1  0
 22 23  1  0
 22 19  1  0
 23 21  2  0
 24 25  1  0
 25 26  2  0
 27 30  1  0
 27 26  1  0
 28 27  2  0
 29 28  1  0
 29 24  2  0
 30 31  1  0
 31 36  2  0
 31 32  1  0
 32 33  2  0
 33 34  1  0
 34 38  1  0
 35 34  2  0
 36 35  1  0
 37 36  1  0
 39 40  1  0
 40 42  1  0
 40 43  1  0
 41 39  2  0
 44 19  1  0
 44 45  1  0
 46 44  1  0
 50 48  1  6
 50 49  1  0
 50 47  1  0
 51 52  1  0
 51  4  1  0
 52 53  1  0
 54 52  1  0
 56 55  1  0
 56 57  1  0
 56 52  1  0
 57 58  1  0
 59 61  1  0
 59 58  1  0
 60 71  2  0
 61 66  1  0
 62 70  1  0
 62 72  1  0
 63 69  1  0
 63 65  1  0
 64 70  1  0
 65 64  1  0
 66 65  2  0
 67 68  1  0
 67 61  2  0
 68 63  2  0
 69 62  1  0
 70 60  1  0
 72 74  2  0
 73 72  1  0
 75 73  1  0
 76 85  2  0
 76 81  1  0
 77 73  1  0
 77 81  1  0
 78 77  1  0
 79 80  1  0
 79 78  1  0
 80 76  1  0
 81 82  2  0
 82 83  1  0
 84 83  2  0
 85 84  1  0
 86 60  1  0
 86 87  1  0
 86 96  1  0
 87 90  1  0
 88 92  1  0
 88 87  1  0
 89 88  2  0
 92 91  1  0
 94 92  1  0
 94 95  1  0
 94 93  1  0
 96 99  1  1
 96 97  1  0
 98 96  1  0
M  ISO  4   9 100  17 100  58 101  59 101
M  END
>  <TORSDO>  (39) 
F 22

>  <SCORE>  (39) 
-2.629

>  <name>  (39) 
39

>  <ligand_id>  (39) 
39

>  <original_smiles>  (39) 
[H]c1c([H])c([H])c2c(c1[H])C([H])([H])C([H])([H])C([H])([H])C2([H])N([H])C(=O)C1([H])N(C(=O)C([H])(N([H])C(=O)C([H])(N([H])C([H])([H])[H])C([H])([H])[H])C(C([H])([H])[H])(C([H])([H])[H])C([H])([H])[H])C([H])([H])c2c([H])c(OC([H])([H])C([H])([H])C([H])(C([H])([H])[H])[N+]([H])([H])C([H])([H])c3c(Cl)c([H])c(C(C([H])([H])[H])(C([H])([H])[H])C([H])([H])[H])c(N([H])C(=O)N4C([H])([H])C([H])([H])C([H])([H])C([H])(n5nc(-c6c([H])c([H])c(Oc7c([H])c([H])c(F)c([H])c7F)c([H])c6[H])c(C(=O)N([H])[H])c5N([H])[H])C4([H])[H])c3C([H])([H])[H])c([H])c([H])c2C1([H])[H]

>  <smiles>  (39) 
[H]c1c([H])c([H])c2c(c1[H])C([H])([H])C([H])([H])C([H])([H])C2([H])N([H])C(=O)C1([H])N(C(=O)C([H])(N([H])C(=O)C([H])(N([H])C([H])([H])[H])C([H])([H])[H])C(C([H])([H])[H])(C([H])([H])[H])C([H])([H])[H])C([H])([H])c2c([H])c(OC([H])([H])C([H])([H])C([H])(C([H])([H])[H])[N+]([H])([H])C([H])([H])c3c(Cl)c([H])c(C(C([H])([H])[H])(C([H])([H])[H])C([H])([H])[H])c(N([H])C(=O)N4C([H])([H])C([H])([H])C([H])([H])C([H])(n5nc(-c6c([H])c([H])c(Oc7c([H])c([H])c(F)c([H])c7F)c([H])c6[H])c(C(=O)N([H])[H])c5N([H])[H])C4([H])[H])c3C([H])([H])[H])c([H])c([H])c2C1([H])[H]

$$$$
40:0:0
     RDKit          3D

 85 88  0  0  1  0  0  0  0  0999 V2000
  -29.2210  -20.6960   20.0020 C   0  0  0  0  0  1  0  0  0  0  0  0
  -29.4290  -18.3700   21.7710 C   0  0  0  0  0  1  0  0  0  0  0  0
  -27.7610  -18.1730   19.9120 C   0  0  0  0  0  1  0  0  0  0  0  0
  -29.2350  -18.4220   20.2440 C   0  0  0  0  0  2  0  0  0  0  0  0
  -30.0030  -16.4290   19.8570 C   0  0  0  0  0  2  0  0  0  0  0  0
  -30.2190  -13.7140   18.9600 C   0  0  0  0  0  2  0  0  0  0  0  0
  -29.3080  -13.0400   17.8580 C   0  0  0  0  0  2  0  0  0  0  0  0
  -27.9910  -12.5180   18.4340 C   0  0  0  0  0  2  0  0  0  0  0  0
  -27.4740  -13.5120   19.4830 C   0  0  0  0  0  3  0  0  0  0  0  0
  -28.5470  -14.0540   20.4890 C   0  0  0  0  0  2  0  0  0  0  0  0
  -29.5690  -14.9220   19.7710 N   0  0  0  0  0  0  0  0  0  0  0  0
  -31.2170  -16.2310   19.5650 O   0  0  0  0  0  1  0  0  0  0  0  0
  -25.1900  -13.9410   20.4630 C   0  0  0  0  0  0  0  0  0  0  0  0
  -24.1690  -13.1420   20.8790 C   0  0  0  0  0  0  0  0  0  0  0  0
  -24.6360  -11.7960   20.7530 C   0  0  0  0  0  0  0  0  0  0  0  0
  -26.2200  -13.0970   20.1070 N   0  0  0  0  0  0  0  0  0  0  0  0
  -25.9040  -11.7870   20.3300 N   0  0  0  0  0  0  0  0  0  0  0  0
  -23.9140  -10.5300   20.9560 C   0  0  0  0  0  0  0  0  0  0  0  0
  -24.3790   -9.5490   21.8590 C   0  0  0  0  0  3  0  0  0  0  0  0
  -23.6520   -8.3530   22.0560 C   0  0  0  0  0  3  0  0  0  0  0  0
  -22.4420   -8.1310   21.3540 C   0  0  0  0  0  0  0  0  0  0  0  0
  -21.9950   -9.1020   20.4410 C   0  0  0  0  0  3  0  0  0  0  0  0
  -22.7230  -10.2880   20.2420 C   0  0  0  0  0  3  0  0  0  0  0  0
  -21.6880   -6.9850   21.4590 O   0  0  0  0  0  0  0  0  0  0  0  0
  -21.6510   -6.2470   22.6180 C   0  0  0  0  0  0  0  0  0  0  0  0
  -21.2300   -6.8050   23.8450 C   0  0  0  0  0  3  0  0  0  0  0  0
  -21.1420   -5.9990   24.9950 C   0  0  0  0  0  3  0  0  0  0  0  0
  -21.4640   -4.6290   24.9220 C   0  0  0  0  0  0  0  0  0  0  0  0
  -21.8780   -4.0680   23.7020 C   0  0  0  0  0  3  0  0  0  0  0  0
  -21.9710   -4.8740   22.5530 C   0  0  0  0  0  0  0  0  0  0  0  0
  -22.3500   -4.3220   21.3740 F   0  0  0  0  0  0  0  0  0  0  0  0
  -21.3720   -3.8520   26.0250 F   0  0  0  0  0  0  0  0  0  0  0  0
  -22.8010  -13.6130   21.2760 C   0  0  0  0  0  0  0  0  0  0  0  0
  -22.1410  -12.8920   22.1760 N   0  0  0  0  0  0  0  0  0  0  0  0
  -22.3300  -14.6570   20.8250 O   0  0  0  0  0  0  0  0  0  0  0  0
  -22.5350  -12.0450   22.5590 H   0  0  0  0  0  0  0  0  0  0  0  0
  -21.2290  -13.1940   22.4890 H   0  0  0  0  0  0  0  0  0  0  0  0
  -25.3250  -15.3200   20.3230 N   0  0  0  0  0  0  0  0  0  0  0  0
  -24.5420  -15.9470   20.4860 H   0  0  0  0  0  0  0  0  0  0  0  0
  -26.1370  -15.7850   19.9400 H   0  0  0  0  0  0  0  0  0  0  0  0
  -30.7110  -21.0980   20.1620 C   0  0  0  0  0  2  0  0  0  0  0  0
  -31.8510  -22.3740   18.2030 C   0  0  0  0  0  1  0  0  0  0  0  0
  -31.5710  -21.0090   18.8670 C   0  0  0  0  0  2  0  0  0  0  0  0
  -28.2490  -22.7400   20.2690 C   0  0  0  0  0 15  0  0  0  0  0  0
  -28.2330  -24.7750   20.2720 O   0  0  0  0  0  1  0  0  0  0  0  0
  -24.7310  -31.7340   23.1110 C   0  0  0  0  0  0  0  0  0  0  0  0
  -27.2930  -26.2040   20.2470 C   0  0  0  0  0  0  0  0  0  0  0  0
  -23.5830  -30.3020   21.4840 C   0  0  0  0  0  3  0  0  0  0  0  0
  -25.0610  -28.5430   20.1360 C   0  0  0  0  0  0  0  0  0  0  0  0
  -26.1870  -30.3110   21.4450 C   0  0  0  0  0  2  0  0  0  0  0  0
  -26.2580  -28.8170   20.8060 C   0  0  0  0  0  0  0  0  0  0  0  0
  -27.3360  -27.6960   20.8090 C   0  0  0  0  0  3  0  0  0  0  0  0
  -26.0530  -26.2730   19.5160 C   0  0  0  0  0  3  0  0  0  0  0  0
  -25.0300  -27.3040   19.4680 C   0  0  0  0  0  3  0  0  0  0  0  0
  -23.8710  -29.5520   20.1400 C   0  0  0  0  0  2  0  0  0  0  0  0
  -24.8630  -30.8270   22.0660 N   0  0  0  0  0  0  0  0  0  0  0  0
  -23.6230  -32.0530   23.5840 O   0  0  0  0  0  0  0  0  0  0  0  0
  -22.8140  -29.3760   22.4730 C   0  0  0  0  0  0  0  0  0  0  0  0
  -21.4740  -29.2600   22.3580 N   0  0  0  0  0  0  0  0  0  0  0  0
  -23.4490  -28.7510   23.3230 O   0  0  0  0  0  0  0  0  0  0  0  0
  -21.0090  -29.8170   21.6570 H   0  0  0  0  0  0  0  0  0  0  0  0
  -18.0630  -28.0810   22.8920 C   0  0  0  0  0  0  0  0  0  0  0  0
  -20.6310  -28.3330   23.1330 C   0  0  0  0  0  3  0  0  0  0  0  0
  -20.7160  -26.8990   22.5650 C   0  0  0  0  0  2  0  0  0  0  0  0
  -19.6080  -26.5860   21.5560 C   0  0  0  0  0  2  0  0  0  0  0  0
  -18.2260  -26.7380   22.2030 C   0  0  0  0  0  2  0  0  0  0  0  0
  -19.1900  -28.8370   23.3150 C   0  0  0  0  0  0  0  0  0  0  0  0
  -18.9820  -30.0910   23.9300 C   0  0  0  0  0  3  0  0  0  0  0  0
  -17.6790  -30.5910   24.1190 C   0  0  0  0  0  3  0  0  0  0  0  0
  -16.5670  -29.8320   23.7120 C   0  0  0  0  0  3  0  0  0  0  0  0
  -16.7600  -28.5790   23.1040 C   0  0  0  0  0  3  0  0  0  0  0  0
  -25.9640  -32.4200   23.7800 C   0  0  0  0  0  3  0  0  0  0  0  0
  -26.4390  -31.6870   25.0970 C   0  0  1  0  0  0  0  0  0  0  0  0
  -25.3070  -31.4720   26.1310 C   0  0  0  0  0  1  0  0  0  0  0  0
  -27.0400  -30.3030   24.7710 C   0  0  0  0  0  1  0  0  0  0  0  0
  -27.5650  -32.5070   25.7760 C   0  0  0  0  0  1  0  0  0  0  0  0
  -25.6120  -33.8190   24.1120 N   0  0  0  0  0  0  0  0  0  0  0  0
  -25.9300  -34.8990   23.3870 C   0  0  0  0  0  0  0  0  0  0  0  0
  -26.6010  -34.8240   22.3550 O   0  0  0  0  0  0  0  0  0  0  0  0
  -25.0140  -33.9480   24.9160 H   0  0  0  0  0  0  0  0  0  0  0  0
  -24.1740  -36.6950   23.1190 C   0  0  0  0  0  1  0  0  0  0  0  0
  -25.4390  -36.2780   23.8860 C   0  0  0  0  0  3  0  0  0  0  0  0
  -27.5770  -37.1980   24.6720 C   0  0  0  0  0  1  0  0  0  0  0  0
  -26.4470  -37.3520   23.7610 N   0  0  0  0  0  0  0  0  0  0  0  0
  -26.0270  -38.2600   23.9290 H   0  0  0  0  0  0  0  0  0  0  0  0
  1 41  1  0
  3  4  1  0
  4  2  1  0
  6 11  1  0
  7  8  1  0
  7  6  1  0
  9  8  1  0
  9 16  1  0
  9 10  1  0
 11  5  1  0
 11 10  1  0
 12  5  1  0
 13 14  2  0
 14 33  1  0
 15 14  1  0
 15 18  1  0
 16 17  1  0
 16 13  1  0
 17 15  2  0
 18 19  1  0
 19 20  2  0
 21 24  1  0
 21 20  1  0
 22 21  2  0
 23 22  1  0
 23 18  2  0
 24 25  1  0
 25 26  1  0
 26 27  2  0
 28 27  1  0
 28 32  1  0
 29 28  2  0
 30 25  2  0
 30 29  1  0
 31 30  1  0
 33 34  1  0
 34 37  1  0
 34 36  1  0
 35 33  2  0
 38 13  1  0
 38 39  1  0
 40 38  1  0
 42 43  1  0
 43 41  1  0
 46 57  2  0
 47 45  1  0
 47 52  1  0
 48 56  1  0
 48 58  1  0
 49 55  1  0
 49 51  1  0
 50 56  1  0
 51 52  2  0
 51 50  1  0
 53 47  2  0
 54 53  1  0
 54 49  2  0
 55 48  1  0
 56 46  1  0
 58 60  2  0
 59 58  1  0
 61 59  1  0
 62 71  2  0
 62 67  1  0
 63 59  1  0
 63 67  1  0
 64 63  1  0
 65 66  1  0
 65 64  1  0
 66 62  1  0
 67 68  2  0
 68 69  1  0
 70 69  2  0
 71 70  1  0
 72 46  1  0
 72 77  1  0
 72 73  1  0
 73 76  1  1
 73 74  1  0
 75 73  1  0
 77 80  1  0
 78 82  1  0
 78 77  1  0
 79 78  2  0
 82 81  1  0
 84 82  1  0
 84 85  1  0
 84 83  1  0
M  ISO  4   4 100   5 100  44 101  45 101
M  END
>  <TORSDO>  (40) 
F 20

>  <SCORE>  (40) 
-14.810

>  <name>  (40) 
40

>  <ligand_id>  (40) 
40

>  <original_smiles>  (40) 
[H]c1c([H])c([H])c2c(c1[H])C([H])([H])C([H])([H])C([H])([H])C2([H])N([H])C(=O)C1([H])N(C(=O)C([H])(N([H])C(=O)C([H])(N([H])C([H])([H])[H])C([H])([H])[H])C(C([H])([H])[H])(C([H])([H])[H])C([H])([H])[H])C([H])([H])c2c([H])c(OC([H])([H])C([H])(C([H])([H])C([H])([H])C([H])([H])[H])C(C(=O)N3C([H])([H])C([H])([H])C([H])([H])C([H])(n4nc(-c5c([H])c([H])c(Oc6c([H])c([H])c(F)c([H])c6F)c([H])c5[H])c(C(=O)N([H])[H])c4N([H])[H])C3([H])[H])(C([H])([H])[H])C([H])([H])[H])c([H])c([H])c2C1([H])[H]

>  <smiles>  (40) 
[H]c1c([H])c([H])c2c(c1[H])C([H])([H])C([H])([H])C([H])([H])C2([H])N([H])C(=O)C1([H])N(C(=O)C([H])(N([H])C(=O)C([H])(N([H])C([H])([H])[H])C([H])([H])[H])C(C([H])([H])[H])(C([H])([H])[H])C([H])([H])[H])C([H])([H])c2c([H])c(OC([H])([H])C([H])(C([H])([H])C([H])([H])C([H])([H])[H])C(C(=O)N3C([H])([H])C([H])([H])C([H])([H])C([H])(n4nc(-c5c([H])c([H])c(Oc6c([H])c([H])c(F)c([H])c6F)c([H])c5[H])c(C(=O)N([H])[H])c4N([H])[H])C3([H])[H])(C([H])([H])[H])C([H])([H])[H])c([H])c([H])c2C1([H])[H]

$$$$
41:0:0
     RDKit          3D

 89 97  0  0  1  0  0  0  0  0999 V2000
  -30.2540  -22.0600   20.6330 C   0  0  0  0  0  3  0  0  0  0  0  0
  -28.9000  -21.9480   20.2600 C   0  0  0  0  0  0  0  0  0  0  0  0
  -31.1580  -20.9650   20.8390 C   0  0  0  0  0  0  0  0  0  0  0  0
  -28.6660  -20.3290   20.1150 C   0  0  0  0  0  0  0  0  0  0  0  0
  -29.6120  -19.0020   20.3030 C   0  0  0  0  0  0  0  0  0  0  0  0
  -30.8740  -19.5510   20.6980 C   0  0  0  0  0  0  0  0  0  0  0  0
  -32.5660  -21.3660   21.2620 C   0  0  0  0  0  1  0  0  0  0  0  0
  -27.2490  -19.9680   19.7220 C   0  0  0  0  0  1  0  0  0  0  0  0
  -32.1650  -18.4660   21.0820 Cl  0  0  0  0  0  0  0  0  0  0  0  0
  -30.2550  -15.8300   20.1590 C   0  0  0  0  0  0  0  0  0  0  0  0
  -30.3900  -13.2580   19.3260 C   0  0  0  0  0  2  0  0  0  0  0  0
  -29.5010  -12.7830   18.1380 C   0  0  0  0  0  2  0  0  0  0  0  0
  -28.0990  -12.3860   18.6190 C   0  0  0  0  0  2  0  0  0  0  0  0
  -27.5750  -13.3850   19.6730 C   0  0  0  0  0  3  0  0  0  0  0  0
  -28.6120  -13.7630   20.7620 C   0  0  0  0  0  2  0  0  0  0  0  0
  -29.7430  -14.4420   20.0750 N   0  0  0  0  0  0  0  0  0  0  0  0
  -31.4860  -15.7230   19.9900 O   0  0  0  0  0  0  0  0  0  0  0  0
  -29.4890  -17.2330   20.2100 N   0  0  0  0  0  0  0  0  0  0  0  0
  -28.5110  -16.9880   20.1900 H   0  0  0  0  0  0  0  0  0  0  0  0
  -25.2230  -13.8700   20.4830 C   0  0  0  0  0  0  0  0  0  0  0  0
  -24.1800  -13.0710   20.8580 C   0  0  0  0  0  0  0  0  0  0  0  0
  -24.6690  -11.7290   20.8090 C   0  0  0  0  0  0  0  0  0  0  0  0
  -26.2760  -13.0160   20.2160 N   0  0  0  0  0  0  0  0  0  0  0  0
  -25.9600  -11.7210   20.4780 N   0  0  0  0  0  0  0  0  0  0  0  0
  -23.9600  -10.4550   20.9960 C   0  0  0  0  0  0  0  0  0  0  0  0
  -24.3970   -9.4960   21.9360 C   0  0  0  0  0  3  0  0  0  0  0  0
  -23.6820   -8.2920   22.1150 C   0  0  0  0  0  3  0  0  0  0  0  0
  -22.5150   -8.0380   21.3550 C   0  0  0  0  0  0  0  0  0  0  0  0
  -22.0970   -8.9870   20.4040 C   0  0  0  0  0  3  0  0  0  0  0  0
  -22.8130  -10.1830   20.2240 C   0  0  0  0  0  3  0  0  0  0  0  0
  -21.7720   -6.8860   21.4430 O   0  0  0  0  0  0  0  0  0  0  0  0
  -21.7040   -6.1590   22.6050 C   0  0  0  0  0  0  0  0  0  0  0  0
  -21.2240   -6.7210   23.8080 C   0  0  0  0  0  3  0  0  0  0  0  0
  -21.1060   -5.9210   24.9610 C   0  0  0  0  0  3  0  0  0  0  0  0
  -21.4570   -4.5580   24.9120 C   0  0  0  0  0  0  0  0  0  0  0  0
  -21.9310   -3.9950   23.7140 C   0  0  0  0  0  3  0  0  0  0  0  0
  -22.0500   -4.7940   22.5630 C   0  0  0  0  0  0  0  0  0  0  0  0
  -22.4860   -4.2410   21.4050 F   0  0  0  0  0  0  0  0  0  0  0  0
  -21.3380   -3.7860   26.0170 F   0  0  0  0  0  0  0  0  0  0  0  0
  -22.7800  -13.5270   21.1420 C   0  0  0  0  0  0  0  0  0  0  0  0
  -22.0720  -12.8240   22.0170 N   0  0  0  0  0  0  0  0  0  0  0  0
  -22.3240  -14.5460   20.6230 O   0  0  0  0  0  0  0  0  0  0  0  0
  -22.4560  -12.0000   22.4570 H   0  0  0  0  0  0  0  0  0  0  0  0
  -21.1340  -13.1130   22.2500 H   0  0  0  0  0  0  0  0  0  0  0  0
  -25.3590  -15.2440   20.3110 N   0  0  0  0  0  0  0  0  0  0  0  0
  -24.5770  -15.8800   20.4320 H   0  0  0  0  0  0  0  0  0  0  0  0
  -26.1840  -15.6960   19.9420 H   0  0  0  0  0  0  0  0  0  0  0  0
  -27.9520  -23.6040   20.0850 C   0  0  0  0  0  2  0  0  0  0  0  0
  -28.1640  -25.3910   20.2670 O   0  0  0  0  0  0  0  0  0  0  0  0
  -24.6760  -31.8140   23.1710 C   0  0  0  0  0  0  0  0  0  0  0  0
  -27.2150  -26.6580   20.2040 C   0  0  0  0  0  0  0  0  0  0  0  0
  -23.5050  -30.4240   21.5170 C   0  0  0  0  0  3  0  0  0  0  0  0
  -24.9650  -28.7590   20.1220 C   0  0  0  0  0  0  0  0  0  0  0  0
  -26.0900  -30.5320   21.4360 C   0  0  0  0  0  2  0  0  0  0  0  0
  -26.1560  -29.0910   20.7770 C   0  0  0  0  0  0  0  0  0  0  0  0
  -27.2610  -28.0720   20.7820 C   0  0  0  0  0  3  0  0  0  0  0  0
  -25.9890  -26.5610   19.4910 C   0  0  0  0  0  3  0  0  0  0  0  0
  -24.9260  -27.5210   19.4550 C   0  0  0  0  0  3  0  0  0  0  0  0
  -23.7640  -29.7250   20.1500 C   0  0  0  0  0  2  0  0  0  0  0  0
  -24.7810  -30.9580   22.0940 N   0  0  0  0  0  0  0  0  0  0  0  0
  -23.5750  -32.1190   23.6650 O   0  0  0  0  0  0  0  0  0  0  0  0
  -22.7660  -29.4530   22.4790 C   0  0  0  0  0  0  0  0  0  0  0  0
  -21.4320  -29.3180   22.3450 N   0  0  0  0  0  0  0  0  0  0  0  0
  -23.4070  -28.8200   23.3200 O   0  0  0  0  0  0  0  0  0  0  0  0
  -20.9630  -29.8800   21.6470 H   0  0  0  0  0  0  0  0  0  0  0  0
  -18.0260  -28.1460   22.8440 C   0  0  0  0  0  0  0  0  0  0  0  0
  -20.5900  -28.3850   23.1070 C   0  0  0  0  0  3  0  0  0  0  0  0
  -20.6730  -26.9560   22.5200 C   0  0  0  0  0  2  0  0  0  0  0  0
  -19.5690  -26.6580   21.5010 C   0  0  0  0  0  2  0  0  0  0  0  0
  -18.1880  -26.8060   22.1460 C   0  0  0  0  0  2  0  0  0  0  0  0
  -19.1520  -28.8950   23.2810 C   0  0  0  0  0  0  0  0  0  0  0  0
  -18.9400  -30.1460   23.8990 C   0  0  0  0  0  3  0  0  0  0  0  0
  -17.6390  -30.6500   24.0810 C   0  0  0  0  0  3  0  0  0  0  0  0
  -16.5280  -29.8990   23.6570 C   0  0  0  0  0  3  0  0  0  0  0  0
  -16.7220  -28.6480   23.0440 C   0  0  0  0  0  3  0  0  0  0  0  0
  -25.9280  -32.4630   23.8330 C   0  0  0  0  0  3  0  0  0  0  0  0
  -25.5990  -33.8610   24.1810 N   0  0  0  0  0  0  0  0  0  0  0  0
  -25.9070  -34.9360   23.4450 C   0  0  0  0  0  0  0  0  0  0  0  0
  -26.5530  -34.8580   22.3970 O   0  0  0  0  0  0  0  0  0  0  0  0
  -25.0180  -33.9930   24.9970 H   0  0  0  0  0  0  0  0  0  0  0  0
  -24.1420  -36.7210   23.1990 C   0  0  0  0  0  1  0  0  0  0  0  0
  -25.4260  -36.3170   23.9430 C   0  0  0  0  0  3  0  0  0  0  0  0
  -27.5830  -37.2320   24.6860 C   0  0  0  0  0  1  0  0  0  0  0  0
  -26.4380  -37.3860   23.7920 N   0  0  0  0  0  0  0  0  0  0  0  0
  -26.0260  -38.3000   23.9610 H   0  0  0  0  0  0  0  0  0  0  0  0
  -26.4110  -31.6950   25.1270 C   0  0  1  0  0  0  0  0  0  0  0  0
  -25.2920  -31.4640   26.1710 C   0  0  0  0  0  1  0  0  0  0  0  0
  -26.9990  -30.3120   24.7650 C   0  0  0  0  0  1  0  0  0  0  0  0
  -27.5480  -32.4870   25.8140 C   0  0  0  0  0  1  0  0  0  0  0  0
  1  3  1  0
  2  1  2  0
  3  7  1  0
  4  2  1  0
  4  5  2  0
  5  6  1  0
  6  3  2  0
  6  9  1  0
  8  4  1  0
 10 18  1  0
 11 16  1  0
 12 13  1  0
 12 11  1  0
 14 13  1  0
 14 23  1  0
 14 15  1  0
 16 10  1  0
 16 15  1  0
 17 10  2  0
 18  5  1  0
 19 18  1  0
 20 21  2  0
 21 40  1  0
 22 21  1  0
 22 25  1  0
 23 24  1  0
 23 20  1  0
 24 22  2  0
 25 26  1  0
 26 27  2  0
 28 31  1  0
 28 27  1  0
 29 28  2  0
 30 29  1  0
 30 25  2  0
 31 32  1  0
 32 33  1  0
 33 34  2  0
 35 34  1  0
 35 39  1  0
 36 35  2  0
 37 32  2  0
 37 36  1  0
 38 37  1  0
 40 41  1  0
 41 44  1  0
 41 43  1  0
 42 40  2  0
 45 46  1  0
 45 20  1  0
 47 45  1  0
 48  2  1  0
 48 49  1  0
 50 61  2  0
 51 49  1  0
 51 56  1  0
 52 60  1  0
 52 62  1  0
 53 59  1  0
 53 55  1  0
 54 60  1  0
 55 56  2  0
 55 54  1  0
 57 51  2  0
 58 57  1  0
 58 53  2  0
 59 52  1  0
 60 50  1  0
 62 64  2  0
 63 62  1  0
 65 63  1  0
 66 75  2  0
 66 71  1  0
 67 63  1  0
 67 71  1  0
 68 67  1  0
 69 70  1  0
 69 68  1  0
 70 66  1  0
 71 72  2  0
 72 73  1  0
 74 73  2  0
 75 74  1  0
 76 50  1  0
 76 77  1  0
 76 86  1  0
 77 80  1  0
 78 82  1  0
 78 77  1  0
 79 78  2  0
 82 81  1  0
 84 82  1  0
 84 85  1  0
 84 83  1  0
 86 89  1  1
 86 87  1  0
 88 86  1  0
M  ISO  4  10 100  18 100  48 101  49 101
M  END
>  <TORSDO>  (41) 
F 17

>  <SCORE>  (41) 
-16.498

>  <name>  (41) 
41

>  <ligand_id>  (41) 
41

>  <original_smiles>  (41) 
[H]c1c([H])c([H])c2c(c1[H])C([H])([H])C([H])([H])C([H])([H])C2([H])N([H])C(=O)C1([H])N(C(=O)C([H])(N([H])C(=O)C([H])(N([H])C([H])([H])[H])C([H])([H])[H])C(C([H])([H])[H])(C([H])([H])[H])C([H])([H])[H])C([H])([H])c2c([H])c(OC([H])([H])c3c([H])c(C([H])([H])[H])c(Cl)c(N([H])C(=O)N4C([H])([H])C([H])([H])C([H])([H])C([H])(n5nc(-c6c([H])c([H])c(Oc7c([H])c([H])c(F)c([H])c7F)c([H])c6[H])c(C(=O)N([H])[H])c5N([H])[H])C4([H])[H])c3C([H])([H])[H])c([H])c([H])c2C1([H])[H]

>  <smiles>  (41) 
[H]c1c([H])c([H])c2c(c1[H])C([H])([H])C([H])([H])C([H])([H])C2([H])N([H])C(=O)C1([H])N(C(=O)C([H])(N([H])C(=O)C([H])(N([H])C([H])([H])[H])C([H])([H])[H])C(C([H])([H])[H])(C([H])([H])[H])C([H])([H])[H])C([H])([H])c2c([H])c(OC([H])([H])c3c([H])c(C([H])([H])[H])c(Cl)c(N([H])C(=O)N4C([H])([H])C([H])([H])C([H])([H])C([H])(n5nc(-c6c([H])c([H])c(Oc7c([H])c([H])c(F)c([H])c7F)c([H])c6[H])c(C(=O)N([H])[H])c5N([H])[H])C4([H])[H])c3C([H])([H])[H])c([H])c([H])c2C1([H])[H]

$$$$
42:0:0
     RDKit          3D

 92100  0  0  1  0  0  0  0  0999 V2000
  -31.2600  -19.0370   19.2200 C   0  0  0  0  0  2  0  0  0  0  0  0
  -30.6730  -21.6400   19.2550 C   0  0  0  0  0  2  0  0  0  0  0  0
  -29.3200  -20.0460   20.5630 C   0  0  0  0  0  2  0  0  0  0  0  0
  -31.1680  -20.3920   18.4340 C   0  0  0  0  0  3  0  0  0  0  0  0
  -29.8830  -18.6080   19.7410 C   0  0  0  0  0  3  0  0  0  0  0  0
  -32.5250  -20.6940   17.7770 C   0  0  0  0  0  1  0  0  0  0  0  0
  -29.3120  -21.5150   19.8560 N   0  0  1  0  0  4  0  0  0  0  0  0
  -28.6780  -21.4010   19.0780 H   0  0  0  0  0  0  0  0  0  0  0  0
  -27.8290  -22.6470   21.6650 C   0  0  0  0  0  1  0  0  0  0  0  0
  -28.8530  -22.9470   20.5560 C   0  0  0  0  0  3  0  0  0  0  0  0
  -28.3020  -24.4370   19.7720 C   0  0  0  0  0  2  0  0  0  0  0  0
  -28.2930  -25.9970   20.2370 O   0  0  0  0  0  0  0  0  0  0  0  0
  -24.6100  -31.8170   23.1740 C   0  0  0  0  0  0  0  0  0  0  0  0
  -27.2350  -27.0280   20.1320 C   0  0  0  0  0  0  0  0  0  0  0  0
  -23.4320  -30.4260   21.5160 C   0  0  0  0  0  3  0  0  0  0  0  0
  -24.9010  -28.8440   20.0910 C   0  0  0  0  0  0  0  0  0  0  0  0
  -25.9930  -30.6660   21.3860 C   0  0  0  0  0  2  0  0  0  0  0  0
  -26.0770  -29.2670   20.7230 C   0  0  0  0  0  0  0  0  0  0  0  0
  -27.2340  -28.3760   20.7250 C   0  0  0  0  0  3  0  0  0  0  0  0
  -26.0290  -26.7420   19.4520 C   0  0  0  0  0  3  0  0  0  0  0  0
  -24.8990  -27.6000   19.4400 C   0  0  0  0  0  3  0  0  0  0  0  0
  -23.6730  -29.7500   20.1370 C   0  0  0  0  0  2  0  0  0  0  0  0
  -24.6980  -30.9950   22.0800 N   0  0  0  0  0  0  0  0  0  0  0  0
  -23.5170  -32.0990   23.6910 O   0  0  0  0  0  0  0  0  0  0  0  0
  -22.7370  -29.4210   22.4690 C   0  0  0  0  0  0  0  0  0  0  0  0
  -21.4040  -29.2730   22.3510 N   0  0  0  0  0  0  0  0  0  0  0  0
  -23.4020  -28.7750   23.2830 O   0  0  0  0  0  0  0  0  0  0  0  0
  -20.9200  -29.8440   21.6720 H   0  0  0  0  0  0  0  0  0  0  0  0
  -18.0100  -28.1160   22.8850 C   0  0  0  0  0  0  0  0  0  0  0  0
  -20.5780  -28.3320   23.1140 C   0  0  0  0  0  3  0  0  0  0  0  0
  -20.6460  -26.9120   22.5050 C   0  0  0  0  0  2  0  0  0  0  0  0
  -19.5220  -26.6310   21.5010 C   0  0  0  0  0  2  0  0  0  0  0  0
  -18.1540  -26.7830   22.1710 C   0  0  0  0  0  2  0  0  0  0  0  0
  -19.1480  -28.8510   23.3130 C   0  0  0  0  0  0  0  0  0  0  0  0
  -18.9570  -30.1000   23.9440 C   0  0  0  0  0  3  0  0  0  0  0  0
  -17.6630  -30.6140   24.1470 C   0  0  0  0  0  3  0  0  0  0  0  0
  -16.5400  -29.8760   23.7320 C   0  0  0  0  0  3  0  0  0  0  0  0
  -16.7150  -28.6290   23.1060 C   0  0  0  0  0  3  0  0  0  0  0  0
  -25.8770  -32.4580   23.8190 C   0  0  0  0  0  3  0  0  0  0  0  0
  -26.3660  -31.6950   25.1110 C   0  0  1  0  0  0  0  0  0  0  0  0
  -25.2530  -31.4720   26.1630 C   0  0  0  0  0  1  0  0  0  0  0  0
  -26.9510  -30.3110   24.7490 C   0  0  0  0  0  1  0  0  0  0  0  0
  -27.5080  -32.4910   25.7870 C   0  0  0  0  0  1  0  0  0  0  0  0
  -25.5580  -33.8590   24.1450 N   0  0  0  0  0  0  0  0  0  0  0  0
  -25.9050  -34.9180   23.4020 C   0  0  0  0  0  0  0  0  0  0  0  0
  -26.5890  -34.8190   22.3800 O   0  0  0  0  0  0  0  0  0  0  0  0
  -24.9510  -34.0090   24.9370 H   0  0  0  0  0  0  0  0  0  0  0  0
  -24.1910  -36.7270   23.0380 C   0  0  0  0  0  1  0  0  0  0  0  0
  -25.4180  -36.3070   23.8630 C   0  0  0  0  0  3  0  0  0  0  0  0
  -27.5420  -37.1830   24.7330 C   0  0  0  0  0  1  0  0  0  0  0  0
  -26.4570  -37.3570   23.7720 N   0  0  0  0  0  0  0  0  0  0  0  0
  -26.0510  -38.2780   23.9140 H   0  0  0  0  0  0  0  0  0  0  0  0
  -29.2170  -16.5740   18.3070 C   0  0  0  0  0  1  0  0  0  0  0  0
  -29.5360  -16.8290   19.8210 C   0  0  1  0  0  0  0  0  0  0  0  0
  -30.4350  -15.3100   20.0660 C   0  0  0  0  0  0  0  0  0  0  0  0
  -30.4610  -12.8370   19.2820 C   0  0  0  0  0  2  0  0  0  0  0  0
  -29.5090  -12.6030   18.0770 C   0  0  0  0  0  2  0  0  0  0  0  0
  -28.0520  -12.3630   18.5290 C   0  0  0  0  0  2  0  0  0  0  0  0
  -27.6210  -13.3180   19.6700 C   0  0  0  0  0  3  0  0  0  0  0  0
  -28.7090  -13.4190   20.7600 C   0  0  0  0  0  2  0  0  0  0  0  0
  -29.9250  -13.9700   20.1170 N   0  0  0  0  0  0  0  0  0  0  0  0
  -31.6650  -15.3180   19.9090 O   0  0  0  0  0  0  0  0  0  0  0  0
  -25.2440  -13.8860   20.4160 C   0  0  0  0  0  0  0  0  0  0  0  0
  -24.1820  -13.1260   20.7960 C   0  0  0  0  0  0  0  0  0  0  0  0
  -24.6480  -11.7800   20.7740 C   0  0  0  0  0  0  0  0  0  0  0  0
  -26.2950  -13.0140   20.1890 N   0  0  0  0  0  0  0  0  0  0  0  0
  -25.9410  -11.7340   20.4680 N   0  0  0  0  0  0  0  0  0  0  0  0
  -23.9120  -10.5310   20.9720 C   0  0  0  0  0  0  0  0  0  0  0  0
  -24.3360   -9.5700   21.9130 C   0  0  0  0  0  3  0  0  0  0  0  0
  -23.5960   -8.3840   22.1030 C   0  0  0  0  0  3  0  0  0  0  0  0
  -22.4190   -8.1550   21.3520 C   0  0  0  0  0  0  0  0  0  0  0  0
  -22.0140   -9.1080   20.4000 C   0  0  0  0  0  3  0  0  0  0  0  0
  -22.7550  -10.2840   20.2080 C   0  0  0  0  0  3  0  0  0  0  0  0
  -21.6510   -7.0210   21.4530 O   0  0  0  0  0  0  0  0  0  0  0  0
  -21.6020   -6.2910   22.6130 C   0  0  0  0  0  0  0  0  0  0  0  0
  -21.1840   -6.8600   23.8350 C   0  0  0  0  0  3  0  0  0  0  0  0
  -21.0820   -6.0550   24.9870 C   0  0  0  0  0  3  0  0  0  0  0  0
  -21.3880   -4.6820   24.9180 C   0  0  0  0  0  0  0  0  0  0  0  0
  -21.8010   -4.1130   23.7010 C   0  0  0  0  0  3  0  0  0  0  0  0
  -21.9050   -4.9160   22.5500 C   0  0  0  0  0  0  0  0  0  0  0  0
  -22.2830   -4.3590   21.3740 F   0  0  0  0  0  0  0  0  0  0  0  0
  -21.2820   -3.9070   26.0220 F   0  0  0  0  0  0  0  0  0  0  0  0
  -22.7920  -13.6250   21.0660 C   0  0  0  0  0  0  0  0  0  0  0  0
  -22.0630  -12.9510   21.9480 N   0  0  0  0  0  0  0  0  0  0  0  0
  -22.3630  -14.6480   20.5330 O   0  0  0  0  0  0  0  0  0  0  0  0
  -22.4220  -12.1220   22.3990 H   0  0  0  0  0  0  0  0  0  0  0  0
  -21.1320  -13.2670   22.1750 H   0  0  0  0  0  0  0  0  0  0  0  0
  -25.3720  -15.2440   20.2210 N   0  0  0  0  0  0  0  0  0  0  0  0
  -24.5900  -15.8770   20.3470 H   0  0  0  0  0  0  0  0  0  0  0  0
  -26.2300  -15.7180   19.9720 H   0  0  0  0  0  0  0  0  0  0  0  0
  -27.0080  -17.5670   20.0670 C   0  0  0  0  0  1  0  0  0  0  0  0
  -28.2350  -16.8300   20.6690 C   0  0  0  0  0  2  0  0  0  0  0  0
  1  5  1  0
  2  7  1  0
  4  6  1  0
  4  1  1  0
  4  2  1  0
  5 54  1  0
  5  3  1  0
  7 10  1  0
  7  3  1  0
  7  8  1  6
 10  9  1  0
 11 12  1  0
 11 10  1  0
 13 24  2  0
 14 12  1  0
 14 19  1  0
 15 23  1  0
 15 25  1  0
 16 22  1  0
 16 18  1  0
 17 23  1  0
 18 19  2  0
 18 17  1  0
 20 14  2  0
 21 20  1  0
 21 16  2  0
 22 15  1  0
 23 13  1  0
 25 27  2  0
 26 25  1  0
 28 26  1  0
 29 38  2  0
 29 34  1  0
 30 26  1  0
 30 34  1  0
 31 30  1  0
 32 33  1  0
 32 31  1  0
 33 29  1  0
 34 35  2  0
 35 36  1  0
 37 36  2  0
 38 37  1  0
 39 13  1  0
 39 44  1  0
 39 40  1  0
 40 43  1  1
 40 41  1  0
 42 40  1  0
 44 47  1  0
 45 49  1  0
 45 44  1  0
 46 45  2  0
 49 48  1  0
 51 49  1  0
 51 52  1  0
 51 50  1  0
 54 53  1  6
 54 55  1  0
 54 92  1  0
 55 61  1  0
 56 61  1  0
 57 58  1  0
 57 56  1  0
 59 58  1  0
 59 66  1  0
 59 60  1  0
 61 60  1  0
 62 55  2  0
 63 64  2  0
 64 83  1  0
 65 64  1  0
 65 68  1  0
 66 63  1  0
 66 67  1  0
 67 65  2  0
 68 69  1  0
 69 70  2  0
 71 74  1  0
 71 70  1  0
 72 71  2  0
 73 72  1  0
 73 68  2  0
 74 75  1  0
 75 76  1  0
 76 77  2  0
 78 77  1  0
 78 82  1  0
 79 78  2  0
 80 75  2  0
 80 79  1  0
 81 80  1  0
 83 84  1  0
 84 87  1  0
 84 86  1  0
 85 83  2  0
 88 89  1  0
 88 63  1  0
 90 88  1  0
 91 92  1  0
M  ISO  4  11 101  12 101  54 100  55 100
M  END
>  <TORSDO>  (42) 
F 20

>  <SCORE>  (42) 
-14.912

>  <name>  (42) 
42

>  <ligand_id>  (42) 
42

>  <original_smiles>  (42) 
[H]c1c([H])c([H])c2c(c1[H])C([H])([H])C([H])([H])C([H])([H])C2([H])N([H])C(=O)C1([H])N(C(=O)C([H])(N([H])C(=O)C([H])(N([H])C([H])([H])[H])C([H])([H])[H])C(C([H])([H])[H])(C([H])([H])[H])C([H])([H])[H])C([H])([H])c2c([H])c(OC([H])([H])C([H])(C([H])([H])[H])[N+]3([H])C([H])([H])C([H])(C([H])([H])[H])C([H])([H])C([H])(C(C(=O)N4C([H])([H])C([H])([H])C([H])([H])C([H])(n5nc(-c6c([H])c([H])c(Oc7c([H])c([H])c(F)c([H])c7F)c([H])c6[H])c(C(=O)N([H])[H])c5N([H])[H])C4([H])[H])(C([H])([H])[H])C([H])([H])C([H])([H])[H])C3([H])[H])c([H])c([H])c2C1([H])[H]

>  <smiles>  (42) 
[H]c1c([H])c([H])c2c(c1[H])C([H])([H])C([H])([H])C([H])([H])C2([H])N([H])C(=O)C1([H])N(C(=O)C([H])(N([H])C(=O)C([H])(N([H])C([H])([H])[H])C([H])([H])[H])C(C([H])([H])[H])(C([H])([H])[H])C([H])([H])[H])C([H])([H])c2c([H])c(OC([H])([H])C([H])(C([H])([H])[H])[N+]3([H])C([H])([H])C([H])(C([H])([H])[H])C([H])([H])C([H])(C(C(=O)N4C([H])([H])C([H])([H])C([H])([H])C([H])(n5nc(-c6c([H])c([H])c(Oc7c([H])c([H])c(F)c([H])c7F)c([H])c6[H])c(C(=O)N([H])[H])c5N([H])[H])C4([H])[H])(C([H])([H])[H])C([H])([H])C([H])([H])[H])C3([H])[H])c([H])c([H])c2C1([H])[H]

$$$$
43:0:0
     RDKit          3D

 94102  0  0  1  0  0  0  0  0999 V2000
  -29.4030  -20.6170   19.4370 C   0  0  0  0  0  3  0  0  0  0  0  0
  -29.8720  -19.2730   19.3670 C   0  0  0  0  0  0  0  0  0  0  0  0
  -30.4200  -18.6120   20.5050 C   0  0  0  0  0  0  0  0  0  0  0  0
  -30.4340  -19.3550   21.7230 C   0  0  0  0  0  0  0  0  0  0  0  0
  -29.4390  -21.3780   20.6290 C   0  0  0  0  0  0  0  0  0  0  0  0
  -29.9700  -20.7120   21.7780 C   0  0  0  0  0  0  0  0  0  0  0  0
  -29.7870  -18.5610   18.0260 C   0  0  0  0  0  1  0  0  0  0  0  0
  -30.9820  -18.7110   22.9930 C   0  0  0  0  0  1  0  0  0  0  0  0
  -30.0580  -21.5580   23.2930 Cl  0  0  0  0  0  0  0  0  0  0  0  0
  -27.5630  -22.6010   21.4870 C   0  0  0  0  0  1  0  0  0  0  0  0
  -28.7800  -22.6590   20.6730 N   0  0  0  0  0  0  0  0  0  0  0  0
  -30.2110  -24.4400   21.7050 C   0  0  0  0  0  1  0  0  0  0  0  0
  -29.4350  -23.9970   20.4570 C   0  0  0  0  0  3  0  0  0  0  0  0
  -28.4080  -25.1380   20.0250 C   0  0  0  0  0  2  0  0  0  0  0  0
  -28.6970  -26.5880   20.1000 O   0  0  0  0  0  0  0  0  0  0  0  0
  -24.7640  -31.7540   23.2350 C   0  0  0  0  0  0  0  0  0  0  0  0
  -27.5740  -27.4320   20.0330 C   0  0  0  0  0  0  0  0  0  0  0  0
  -23.6370  -30.3940   21.5110 C   0  0  0  0  0  3  0  0  0  0  0  0
  -25.1620  -28.9680   20.0440 C   0  0  0  0  0  0  0  0  0  0  0  0
  -26.1690  -30.8030   21.3960 C   0  0  0  0  0  2  0  0  0  0  0  0
  -26.3040  -29.4610   20.6890 C   0  0  0  0  0  0  0  0  0  0  0  0
  -27.5140  -28.7050   20.6790 C   0  0  0  0  0  3  0  0  0  0  0  0
  -26.4100  -27.0070   19.3450 C   0  0  0  0  0  3  0  0  0  0  0  0
  -25.2170  -27.7460   19.3630 C   0  0  0  0  0  3  0  0  0  0  0  0
  -23.8980  -29.7960   20.1060 C   0  0  0  0  0  2  0  0  0  0  0  0
  -24.8740  -30.9980   22.1060 N   0  0  0  0  0  0  0  0  0  0  0  0
  -23.6630  -31.9740   23.7590 O   0  0  0  0  0  0  0  0  0  0  0  0
  -22.9920  -29.3120   22.4090 C   0  0  0  0  0  0  0  0  0  0  0  0
  -21.6740  -29.1030   22.2510 N   0  0  0  0  0  0  0  0  0  0  0  0
  -23.6750  -28.6660   23.2080 O   0  0  0  0  0  0  0  0  0  0  0  0
  -21.1810  -29.6780   21.5830 H   0  0  0  0  0  0  0  0  0  0  0  0
  -18.3240  -27.7960   22.6370 C   0  0  0  0  0  0  0  0  0  0  0  0
  -20.8680  -28.1090   22.9630 C   0  0  0  0  0  3  0  0  0  0  0  0
  -21.0190  -26.7090   22.3260 C   0  0  0  0  0  2  0  0  0  0  0  0
  -19.9420  -26.4040   21.2790 C   0  0  0  0  0  2  0  0  0  0  0  0
  -18.5470  -26.4840   21.9040 C   0  0  0  0  0  2  0  0  0  0  0  0
  -19.4140  -28.5660   23.1210 C   0  0  0  0  0  0  0  0  0  0  0  0
  -19.1510  -29.7950   23.7650 C   0  0  0  0  0  3  0  0  0  0  0  0
  -17.8310  -30.2540   23.9300 C   0  0  0  0  0  3  0  0  0  0  0  0
  -16.7540  -29.4810   23.4640 C   0  0  0  0  0  3  0  0  0  0  0  0
  -17.0010  -28.2530   22.8230 C   0  0  0  0  0  3  0  0  0  0  0  0
  -26.0150  -32.3970   23.9100 C   0  0  0  0  0  3  0  0  0  0  0  0
  -26.5240  -31.5920   25.1680 C   0  0  1  0  0  0  0  0  0  0  0  0
  -25.4140  -31.2890   26.2020 C   0  0  0  0  0  1  0  0  0  0  0  0
  -27.1510  -30.2450   24.7410 C   0  0  0  0  0  1  0  0  0  0  0  0
  -27.6390  -32.3910   25.8840 C   0  0  0  0  0  1  0  0  0  0  0  0
  -25.6590  -33.7720   24.2830 N   0  0  0  0  0  0  0  0  0  0  0  0
  -25.9610  -34.8610   23.5630 C   0  0  0  0  0  0  0  0  0  0  0  0
  -26.6400  -34.8130   22.5330 O   0  0  0  0  0  0  0  0  0  0  0  0
  -25.0540  -33.8800   25.0850 H   0  0  0  0  0  0  0  0  0  0  0  0
  -24.1670  -36.5990   23.2680 C   0  0  0  0  0  1  0  0  0  0  0  0
  -25.4260  -36.2160   24.0630 C   0  0  0  0  0  3  0  0  0  0  0  0
  -27.5310  -37.1530   24.9110 C   0  0  0  0  0  1  0  0  0  0  0  0
  -26.4190  -37.3090   23.9770 N   0  0  0  0  0  0  0  0  0  0  0  0
  -25.9810  -38.2090   24.1540 H   0  0  0  0  0  0  0  0  0  0  0  0
  -31.1700  -17.2340   20.3660 C   0  0  0  0  0  2  0  0  0  0  0  0
  -31.1200  -14.7290   20.1730 C   0  0  0  0  0  0  0  0  0  0  0  0
  -30.7850  -12.4630   19.2310 C   0  0  0  0  0  2  0  0  0  0  0  0
  -29.8540  -12.5460   18.0050 C   0  0  0  0  0  2  0  0  0  0  0  0
  -28.3830  -12.4360   18.4420 C   0  0  0  0  0  2  0  0  0  0  0  0
  -28.0360  -13.3780   19.6270 C   0  0  0  0  0  3  0  0  0  0  0  0
  -29.0950  -13.3060   20.7510 C   0  0  0  0  0  2  0  0  0  0  0  0
  -30.4060  -13.5610   20.1430 N   0  0  0  0  0  0  0  0  0  0  0  0
  -32.2940  -14.7570   19.8010 O   0  0  0  0  0  0  0  0  0  0  0  0
  -30.4720  -15.9060   20.4320 N   0  0  0  0  0  0  0  0  0  0  0  0
  -29.4950  -15.8840   20.6760 H   0  0  0  0  0  0  0  0  0  0  0  0
  -25.6720  -14.0420   20.3740 C   0  0  0  0  0  0  0  0  0  0  0  0
  -24.5870  -13.3000   20.7540 C   0  0  0  0  0  0  0  0  0  0  0  0
  -25.0090  -11.9360   20.7200 C   0  0  0  0  0  0  0  0  0  0  0  0
  -26.6880  -13.1320   20.1300 N   0  0  0  0  0  0  0  0  0  0  0  0
  -26.2950  -11.8600   20.4000 N   0  0  0  0  0  0  0  0  0  0  0  0
  -24.2470  -10.6950   20.9170 C   0  0  0  0  0  0  0  0  0  0  0  0
  -24.6330   -9.7350   21.8780 C   0  0  0  0  0  3  0  0  0  0  0  0
  -23.8730   -8.5600   22.0620 C   0  0  0  0  0  3  0  0  0  0  0  0
  -22.7120   -8.3360   21.2830 C   0  0  0  0  0  0  0  0  0  0  0  0
  -22.3450   -9.2840   20.3120 C   0  0  0  0  0  3  0  0  0  0  0  0
  -23.1060  -10.4510   20.1260 C   0  0  0  0  0  3  0  0  0  0  0  0
  -21.9260   -7.2120   21.3750 O   0  0  0  0  0  0  0  0  0  0  0  0
  -21.7840   -6.5290   22.5560 C   0  0  0  0  0  0  0  0  0  0  0  0
  -21.3040   -7.1540   23.7260 C   0  0  0  0  0  3  0  0  0  0  0  0
  -21.1060   -6.3980   24.8990 C   0  0  0  0  0  3  0  0  0  0  0  0
  -21.3790   -5.0170   24.9010 C   0  0  0  0  0  0  0  0  0  0  0  0
  -21.8530   -4.3910   23.7340 C   0  0  0  0  0  3  0  0  0  0  0  0
  -22.0510   -5.1440   22.5640 C   0  0  0  0  0  0  0  0  0  0  0  0
  -22.4870   -4.5320   21.4370 F   0  0  0  0  0  0  0  0  0  0  0  0
  -21.1830   -4.2880   26.0250 F   0  0  0  0  0  0  0  0  0  0  0  0
  -23.2070  -13.8180   21.0380 C   0  0  0  0  0  0  0  0  0  0  0  0
  -22.4730  -13.1540   21.9240 N   0  0  0  0  0  0  0  0  0  0  0  0
  -22.7890  -14.8470   20.5100 O   0  0  0  0  0  0  0  0  0  0  0  0
  -22.8230  -12.3210   22.3730 H   0  0  0  0  0  0  0  0  0  0  0  0
  -21.5470  -13.4830   22.1570 H   0  0  0  0  0  0  0  0  0  0  0  0
  -25.8740  -15.4080   20.1930 N   0  0  0  0  0  0  0  0  0  0  0  0
  -25.1260  -16.0830   20.3070 H   0  0  0  0  0  0  0  0  0  0  0  0
  -26.7290  -15.8210   19.8450 H   0  0  0  0  0  0  0  0  0  0  0  0
  1  5  1  0
  2  1  2  0
  2  3  1  0
  3  4  2  0
  4  6  1  0
  4  8  1  0
  5 11  1  0
  5  6  2  0
  6  9  1  0
  7  2  1  0
 11 10  1  0
 13 11  1  0
 13 12  1  0
 14 15  1  0
 14 13  1  0
 16 27  2  0
 17 15  1  0
 17 22  1  0
 18 26  1  0
 18 28  1  0
 19 25  1  0
 19 21  1  0
 20 26  1  0
 21 20  1  0
 22 21  2  0
 23 24  1  0
 23 17  2  0
 24 19  2  0
 25 18  1  0
 26 16  1  0
 28 30  2  0
 29 28  1  0
 31 29  1  0
 32 41  2  0
 32 37  1  0
 33 29  1  0
 33 37  1  0
 34 33  1  0
 35 36  1  0
 35 34  1  0
 36 32  1  0
 37 38  2  0
 38 39  1  0
 40 39  2  0
 41 40  1  0
 42 16  1  0
 42 47  1  0
 42 43  1  0
 43 46  1  1
 43 44  1  0
 45 43  1  0
 47 50  1  0
 48 52  1  0
 48 47  1  0
 49 48  2  0
 52 51  1  0
 54 52  1  0
 54 55  1  0
 54 53  1  0
 56 65  1  0
 56  3  1  0
 57 65  1  0
 58 63  1  0
 59 60  1  0
 59 58  1  0
 61 60  1  0
 61 70  1  0
 61 62  1  0
 63 57  1  0
 63 62  1  0
 64 57  2  0
 65 66  1  0
 67 68  2  0
 68 87  1  0
 69 68  1  0
 69 72  1  0
 70 67  1  0
 70 71  1  0
 71 69  2  0
 72 73  1  0
 73 74  2  0
 75 78  1  0
 75 74  1  0
 76 75  2  0
 77 76  1  0
 77 72  2  0
 78 79  1  0
 79 84  2  0
 79 80  1  0
 80 81  2  0
 81 82  1  0
 82 86  1  0
 83 82  2  0
 84 83  1  0
 85 84  1  0
 87 88  1  0
 88 91  1  0
 88 90  1  0
 89 87  2  0
 92 93  1  0
 92 67  1  0
 94 92  1  0
M  ISO  4  14 101  15 101  57 100  65 100
M  END
>  <TORSDO>  (43) 
F 20

>  <SCORE>  (43) 
-13.365

>  <name>  (43) 
43

>  <ligand_id>  (43) 
43

>  <original_smiles>  (43) 
[H]c1c([H])c([H])c2c(c1[H])C([H])([H])C([H])([H])C([H])([H])C2([H])N([H])C(=O)C1([H])N(C(=O)C([H])(N([H])C(=O)C([H])(N([H])C([H])([H])[H])C([H])([H])[H])C(C([H])([H])[H])(C([H])([H])[H])C([H])([H])[H])C([H])([H])c2c([H])c(OC([H])([H])C([H])(N(c3c([H])c(C([H])([H])[H])c(C([H])([H])N([H])C(=O)N4C([H])([H])C([H])([H])C([H])([H])C([H])(n5nc(-c6c([H])c([H])c(Oc7c([H])c([H])c(F)c([H])c7F)c([H])c6[H])c(C(=O)N([H])[H])c5N([H])[H])C4([H])[H])c(C([H])([H])[H])c3Cl)C([H])([H])[H])C([H])([H])[H])c([H])c([H])c2C1([H])[H]

>  <smiles>  (43) 
[H]c1c([H])c([H])c2c(c1[H])C([H])([H])C([H])([H])C([H])([H])C2([H])N([H])C(=O)C1([H])N(C(=O)C([H])(N([H])C(=O)C([H])(N([H])C([H])([H])[H])C([H])([H])[H])C(C([H])([H])[H])(C([H])([H])[H])C([H])([H])[H])C([H])([H])c2c([H])c(OC([H])([H])C([H])(N(c3c([H])c(C([H])([H])[H])c(C([H])([H])N([H])C(=O)N4C([H])([H])C([H])([H])C([H])([H])C([H])(n5nc(-c6c([H])c([H])c(Oc7c([H])c([H])c(F)c([H])c7F)c([H])c6[H])c(C(=O)N([H])[H])c5N([H])[H])C4([H])[H])c(C([H])([H])[H])c3Cl)C([H])([H])[H])C([H])([H])[H])c([H])c([H])c2C1([H])[H]

$$$$
44:0:0
     RDKit          3D

 93100  0  0  1  0  0  0  0  0999 V2000
  -29.3840  -22.8820   19.8870 C   0  0  0  0  0  0  0  0  0  0  0  0
  -29.7780  -22.0890   20.9400 N   0  0  0  0  0  0  0  0  0  0  0  0
  -29.0110  -22.3820   18.8220 O   0  0  0  0  0  0  0  0  0  0  0  0
  -29.2760  -21.1160   23.2330 C   0  0  0  0  0  1  0  0  0  0  0  0
  -30.6750  -23.1990   22.9980 C   0  0  0  0  0  1  0  0  0  0  0  0
  -28.1970  -23.2190   22.6060 C   0  0  0  0  0  1  0  0  0  0  0  0
  -29.5000  -22.4020   22.3900 C   0  0  1  0  0  0  0  0  0  0  0  0
  -31.8390  -21.1590   19.7770 C   0  0  0  0  0  1  0  0  0  0  0  0
  -30.6300  -20.8640   20.6980 C   0  0  0  0  0  3  0  0  0  0  0  0
  -29.8710  -19.5540   20.2790 C   0  0  0  0  0  2  0  0  0  0  0  0
  -30.7120  -18.2420   20.4430 C   0  0  0  0  0  2  0  0  0  0  0  0
  -29.9380  -16.8810   20.4740 C   0  0  0  0  0  2  0  0  0  0  0  0
  -31.3390  -14.7670   20.1840 C   0  0  0  0  0  0  0  0  0  0  0  0
  -31.0560  -12.4720   19.3490 C   0  0  0  0  0  2  0  0  0  0  0  0
  -30.1620  -12.5240   18.0940 C   0  0  0  0  0  2  0  0  0  0  0  0
  -28.6730  -12.4560   18.4890 C   0  0  0  0  0  2  0  0  0  0  0  0
  -28.2980  -13.4410   19.6310 C   0  0  0  0  0  3  0  0  0  0  0  0
  -29.3200  -13.3890   20.7880 C   0  0  0  0  0  2  0  0  0  0  0  0
  -30.6510  -13.5940   20.2080 N   0  0  0  0  0  0  0  0  0  0  0  0
  -32.5450  -14.8170   19.9540 O   0  0  0  0  0  0  0  0  0  0  0  0
  -30.6250  -15.8160   19.7260 N   0  0  0  0  0  0  0  0  0  0  0  0
  -31.1040  -16.2130   18.9330 H   0  0  0  0  0  0  0  0  0  0  0  0
  -25.9270  -14.1560   20.3230 C   0  0  0  0  0  0  0  0  0  0  0  0
  -24.8190  -13.4340   20.6760 C   0  0  0  0  0  0  0  0  0  0  0  0
  -25.2160  -12.0620   20.6480 C   0  0  0  0  0  0  0  0  0  0  0  0
  -26.9310  -13.2270   20.1010 N   0  0  0  0  0  0  0  0  0  0  0  0
  -26.5080  -11.9630   20.3600 N   0  0  0  0  0  0  0  0  0  0  0  0
  -24.4290  -10.8350   20.8230 C   0  0  0  0  0  0  0  0  0  0  0  0
  -24.7840   -9.8620   21.7840 C   0  0  0  0  0  3  0  0  0  0  0  0
  -24.0020   -8.6990   21.9470 C   0  0  0  0  0  3  0  0  0  0  0  0
  -22.8490   -8.5020   21.1500 C   0  0  0  0  0  0  0  0  0  0  0  0
  -22.5130   -9.4630   20.1800 C   0  0  0  0  0  3  0  0  0  0  0  0
  -23.2960  -10.6170   20.0150 C   0  0  0  0  0  3  0  0  0  0  0  0
  -22.0430   -7.3910   21.2220 O   0  0  0  0  0  0  0  0  0  0  0  0
  -21.8680   -6.7030   22.3950 C   0  0  0  0  0  0  0  0  0  0  0  0
  -21.3570   -7.3250   23.5560 C   0  0  0  0  0  3  0  0  0  0  0  0
  -21.1300   -6.5620   24.7200 C   0  0  0  0  0  3  0  0  0  0  0  0
  -21.4010   -5.1820   24.7210 C   0  0  0  0  0  0  0  0  0  0  0  0
  -21.9060   -4.5610   23.5660 C   0  0  0  0  0  3  0  0  0  0  0  0
  -22.1360   -5.3190   22.4050 C   0  0  0  0  0  0  0  0  0  0  0  0
  -22.5990   -4.7130   21.2860 F   0  0  0  0  0  0  0  0  0  0  0  0
  -21.1770   -4.4480   25.8360 F   0  0  0  0  0  0  0  0  0  0  0  0
  -23.4410  -13.9750   20.9260 C   0  0  0  0  0  0  0  0  0  0  0  0
  -22.6740  -13.3270   21.7950 N   0  0  0  0  0  0  0  0  0  0  0  0
  -23.0520  -15.0100   20.3830 O   0  0  0  0  0  0  0  0  0  0  0  0
  -22.9990  -12.4930   22.2600 H   0  0  0  0  0  0  0  0  0  0  0  0
  -21.7470  -13.6740   21.9960 H   0  0  0  0  0  0  0  0  0  0  0  0
  -26.1550  -15.5180   20.1480 N   0  0  0  0  0  0  0  0  0  0  0  0
  -25.4160  -16.2050   20.2470 H   0  0  0  0  0  0  0  0  0  0  0  0
  -27.0300  -15.9140   19.8290 H   0  0  0  0  0  0  0  0  0  0  0  0
  -29.5970  -24.4310   19.9050 C   0  0  0  0  0  3  0  0  0  0  0  0
  -28.3600  -25.2910   19.5140 C   0  0  0  0  0  3  0  0  0  0  0  0
  -28.5260  -26.7320   19.6780 O   0  0  0  0  0  0  0  0  0  0  0  0
  -24.7010  -31.7320   23.1010 C   0  0  0  0  0  0  0  0  0  0  0  0
  -27.3680  -27.5070   19.6950 C   0  0  0  0  0  0  0  0  0  0  0  0
  -23.4980  -30.4070   21.3990 C   0  0  0  0  0  3  0  0  0  0  0  0
  -24.9550  -29.0050   19.8470 C   0  0  0  0  0  0  0  0  0  0  0  0
  -26.0200  -30.8230   21.1840 C   0  0  0  0  0  2  0  0  0  0  0  0
  -26.1200  -29.4960   20.4500 C   0  0  0  0  0  0  0  0  0  0  0  0
  -27.3290  -28.7550   20.3740 C   0  0  0  0  0  3  0  0  0  0  0  0
  -26.1840  -27.0660   19.0580 C   0  0  0  0  0  3  0  0  0  0  0  0
  -24.9850  -27.7910   19.1470 C   0  0  0  0  0  3  0  0  0  0  0  0
  -23.6960  -29.8320   19.9740 C   0  0  0  0  0  2  0  0  0  0  0  0
  -24.7590  -31.0000   21.9520 N   0  0  0  0  0  0  0  0  0  0  0  0
  -23.6230  -31.9420   23.6760 O   0  0  0  0  0  0  0  0  0  0  0  0
  -22.8920  -29.3070   22.3020 C   0  0  0  0  0  0  0  0  0  0  0  0
  -21.5710  -29.0900   22.1810 N   0  0  0  0  0  0  0  0  0  0  0  0
  -23.6050  -28.6560   23.0700 O   0  0  0  0  0  0  0  0  0  0  0  0
  -21.0530  -29.6720   21.5370 H   0  0  0  0  0  0  0  0  0  0  0  0
  -18.2490  -27.7390   22.6280 C   0  0  0  0  0  0  0  0  0  0  0  0
  -20.7960  -28.0830   22.9060 C   0  0  0  0  0  3  0  0  0  0  0  0
  -20.9510  -26.6880   22.2580 C   0  0  0  0  0  2  0  0  0  0  0  0
  -19.8580  -26.3730   21.2320 C   0  0  0  0  0  2  0  0  0  0  0  0
  -18.4750  -26.4330   21.8850 C   0  0  0  0  0  2  0  0  0  0  0  0
  -19.3390  -28.5210   23.0940 C   0  0  0  0  0  0  0  0  0  0  0  0
  -19.0750  -29.7440   23.7490 C   0  0  0  0  0  3  0  0  0  0  0  0
  -17.7520  -30.1860   23.9410 C   0  0  0  0  0  3  0  0  0  0  0  0
  -16.6760  -29.4000   23.4930 C   0  0  0  0  0  3  0  0  0  0  0  0
  -16.9260  -28.1780   22.8420 C   0  0  0  0  0  3  0  0  0  0  0  0
  -25.9820  -32.3590   23.7350 C   0  0  0  0  0  3  0  0  0  0  0  0
  -25.6550  -33.7370   24.1230 N   0  0  0  0  0  0  0  0  0  0  0  0
  -25.9820  -34.8260   23.4150 C   0  0  0  0  0  0  0  0  0  0  0  0
  -26.6660  -34.7750   22.3880 O   0  0  0  0  0  0  0  0  0  0  0  0
  -25.0480  -33.8510   24.9230 H   0  0  0  0  0  0  0  0  0  0  0  0
  -24.2360  -36.6110   23.1200 C   0  0  0  0  0  1  0  0  0  0  0  0
  -25.4730  -36.1860   23.9260 C   0  0  0  0  0  3  0  0  0  0  0  0
  -27.5840  -37.0640   24.8230 C   0  0  0  0  0  1  0  0  0  0  0  0
  -26.4930  -37.2560   23.8700 N   0  0  0  0  0  0  0  0  0  0  0  0
  -26.0740  -38.1640   24.0490 H   0  0  0  0  0  0  0  0  0  0  0  0
  -26.5250  -31.5450   24.9740 C   0  0  1  0  0  0  0  0  0  0  0  0
  -25.4500  -31.2540   26.0460 C   0  0  0  0  0  1  0  0  0  0  0  0
  -27.1160  -30.1900   24.5210 C   0  0  0  0  0  1  0  0  0  0  0  0
  -27.6770  -32.3250   25.6490 C   0  0  0  0  0  1  0  0  0  0  0  0
  1 51  1  0
  1  2  1  0
  2  7  1  0
  3  1  2  0
  7  6  1  6
  7  5  1  0
  7  4  1  0
  9  8  1  0
  9  2  1  0
 10 11  1  0
 10  9  1  0
 11 12  1  0
 13 19  1  0
 14 19  1  0
 15 16  1  0
 15 14  1  0
 17 16  1  0
 17 26  1  0
 17 18  1  0
 19 18  1  0
 20 13  2  0
 21 13  1  0
 21 12  1  0
 22 21  1  0
 23 24  2  0
 24 43  1  0
 25 24  1  0
 25 28  1  0
 26 23  1  0
 26 27  1  0
 27 25  2  0
 28 29  1  0
 29 30  2  0
 31 34  1  0
 31 30  1  0
 32 31  2  0
 33 32  1  0
 33 28  2  0
 34 35  1  0
 35 40  2  0
 35 36  1  0
 36 37  2  0
 37 38  1  0
 38 42  1  0
 39 38  2  0
 40 39  1  0
 41 40  1  0
 43 44  1  0
 44 47  1  0
 44 46  1  0
 45 43  2  0
 48 49  1  0
 48 23  1  0
 50 48  1  0
 52 53  1  0
 52 51  2  0
 53 55  1  0
 54 65  2  0
 55 60  1  0
 56 64  1  0
 56 66  1  0
 57 63  1  0
 57 59  1  0
 58 64  1  0
 59 58  1  0
 60 59  2  0
 61 62  1  0
 61 55  2  0
 62 57  2  0
 63 56  1  0
 64 54  1  0
 66 68  2  0
 67 66  1  0
 69 67  1  0
 70 79  2  0
 70 75  1  0
 71 67  1  0
 71 75  1  0
 72 71  1  0
 73 74  1  0
 73 72  1  0
 74 70  1  0
 75 76  2  0
 76 77  1  0
 78 77  2  0
 79 78  1  0
 80 54  1  0
 80 81  1  0
 80 90  1  0
 81 84  1  0
 82 86  1  0
 82 81  1  0
 83 82  2  0
 86 85  1  0
 88 86  1  0
 88 89  1  0
 88 87  1  0
 90 93  1  1
 90 91  1  0
 92 90  1  0
M  ISO  4  13 100  21 100  52 101  53 101
M  END
>  <TORSDO>  (44) 
F 23

>  <SCORE>  (44) 
-10.470

>  <name>  (44) 
44

>  <ligand_id>  (44) 
44

>  <original_smiles>  (44) 
[H]c1c([H])c([H])c2c(c1[H])C([H])([H])C([H])([H])C([H])([H])C2([H])N([H])C(=O)C1([H])N(C(=O)C([H])(N([H])C(=O)C([H])(N([H])C([H])([H])[H])C([H])([H])[H])C(C([H])([H])[H])(C([H])([H])[H])C([H])([H])[H])C([H])([H])c2c([H])c(OC([H])([H])C([H])([H])C(=O)N(C([H])(C([H])([H])[H])C([H])([H])C([H])([H])C([H])([H])N([H])C(=O)N3C([H])([H])C([H])([H])C([H])([H])C([H])(n4nc(-c5c([H])c([H])c(Oc6c([H])c([H])c(F)c([H])c6F)c([H])c5[H])c(C(=O)N([H])[H])c4N([H])[H])C3([H])[H])C(C([H])([H])[H])(C([H])([H])[H])C([H])([H])[H])c([H])c([H])c2C1([H])[H]

>  <smiles>  (44) 
[H]c1c([H])c([H])c2c(c1[H])C([H])([H])C([H])([H])C([H])([H])C2([H])N([H])C(=O)C1([H])N(C(=O)C([H])(N([H])C(=O)C([H])(N([H])C([H])([H])[H])C([H])([H])[H])C(C([H])([H])[H])(C([H])([H])[H])C([H])([H])[H])C([H])([H])c2c([H])c(OC([H])([H])C([H])([H])C(=O)N(C([H])(C([H])([H])[H])C([H])([H])C([H])([H])C([H])([H])N([H])C(=O)N3C([H])([H])C([H])([H])C([H])([H])C([H])(n4nc(-c5c([H])c([H])c(Oc6c([H])c([H])c(F)c([H])c6F)c([H])c5[H])c(C(=O)N([H])[H])c4N([H])[H])C3([H])[H])C(C([H])([H])[H])(C([H])([H])[H])C([H])([H])[H])c([H])c([H])c2C1([H])[H]

$$$$
45:0:0
     RDKit          3D

 96 99  0  0  1  0  0  0  0  0999 V2000
  -24.0320  -15.7920   20.8430 C   0  0  0  0  0  1  0  0  0  0  0  0
  -25.0840  -14.6120   21.7470 C   0  0  0  0  0  2  0  0  0  0  0  0
  -27.1770  -14.5990   21.1810 C   0  0  0  0  0  2  0  0  0  0  0  0
  -27.7460  -15.7760   19.9160 C   0  0  0  0  0  2  0  0  0  0  0  0
  -24.7910  -17.0850   19.4040 C   0  0  0  0  0  3  0  0  0  0  0  0
  -26.5620  -17.4350   19.2440 N   0  0  0  0  0  2  0  0  0  0  0  0
  -24.0180  -17.7720   18.7320 O   0  0  0  0  0  1  0  0  0  0  0  0
  -28.3270  -14.0920   22.3870 Cl  0  0  0  0  0  0  0  0  0  0  0  0
  -30.2170  -14.4820   19.6770 C   0  0  0  0  0  0  0  0  0  0  0  0
  -30.5230  -12.1770   18.6580 C   0  0  0  0  0  2  0  0  0  0  0  0
  -29.6270  -12.0970   17.3720 C   0  0  0  0  0  2  0  0  0  0  0  0
  -28.0830  -12.0560   17.6490 C   0  0  0  0  0  2  0  0  0  0  0  0
  -27.7450  -13.0590   18.7890 C   0  0  0  0  0  3  0  0  0  0  0  0
  -28.6320  -12.5560   19.9380 C   0  0  0  0  0  2  0  0  0  0  0  0
  -29.8950  -13.1380   19.6080 N   0  0  0  0  0  0  0  0  0  0  0  0
  -31.4290  -14.7170   19.4980 O   0  0  0  0  0  0  0  0  0  0  0  0
  -29.2210  -15.5490   19.6130 N   0  0  0  0  0  0  0  0  0  0  0  0
  -29.6730  -16.4110   19.3410 H   0  0  0  0  0  0  0  0  0  0  0  0
  -25.5420  -14.5930   19.4780 C   0  0  0  0  0  2  0  0  0  0  0  0
  -24.4490  -13.4190   19.6860 C   0  0  0  0  0  0  0  0  0  0  0  0
  -24.8060  -11.9690   19.9640 C   0  0  0  0  0  0  0  0  0  0  0  0
  -26.3820  -13.2880   19.2360 N   0  0  0  0  0  0  0  0  0  0  0  0
  -26.0380  -11.9920   19.6760 N   0  0  0  0  0  2  0  0  0  0  0  0
  -24.1200  -10.5510   20.3690 C   0  0  0  0  0  0  0  0  0  0  0  0
  -24.4850   -9.7180   21.4970 C   0  0  0  0  0  3  0  0  0  0  0  0
  -23.8260   -8.4830   21.8640 C   0  0  0  0  0  3  0  0  0  0  0  0
  -22.7330   -7.9750   21.1180 C   0  0  0  0  0  0  0  0  0  0  0  0
  -22.3800   -8.7380   19.9820 C   0  0  0  0  0  3  0  0  0  0  0  0
  -23.0470   -9.9550   19.6270 C   0  0  0  0  0  3  0  0  0  0  0  0
  -22.0450   -6.7790   21.3530 O   0  0  0  0  0  0  0  0  0  0  0  0
  -21.8630   -6.2000   22.6030 C   0  0  0  0  0  0  0  0  0  0  0  0
  -21.2750   -6.9090   23.6760 C   0  0  0  0  0  3  0  0  0  0  0  0
  -21.0660   -6.2790   24.9240 C   0  0  0  0  0  3  0  0  0  0  0  0
  -21.4180   -4.9280   25.1060 C   0  0  0  0  0  0  0  0  0  0  0  0
  -21.9630   -4.2010   24.0340 C   0  0  0  0  0  3  0  0  0  0  0  0
  -22.1770   -4.8300   22.7900 C   0  0  0  0  0  0  0  0  0  0  0  0
  -22.6820   -4.0970   21.7680 F   0  0  0  0  0  0  0  0  0  0  0  0
  -21.2230   -4.3270   26.3060 F   0  0  0  0  0  0  0  0  0  0  0  0
  -22.9110  -13.4760   19.8020 C   0  0  0  0  0  0  0  0  0  0  0  0
  -22.2450  -12.8180   20.7660 N   0  0  0  0  0  0  0  0  0  0  0  0
  -22.2760  -14.1820   19.0380 O   0  0  0  0  0  0  0  0  0  0  0  0
  -22.7280  -12.2210   21.4180 H   0  0  0  0  0  0  0  0  0  0  0  0
  -21.2400  -12.8860   20.8160 H   0  0  0  0  0  0  0  0  0  0  0  0
  -25.9830  -16.8480   20.7100 N   0  0  0  0  0  4  0  0  0  0  0  0
  -25.2550  -17.2970   21.2550 H   0  0  0  0  0  0  0  0  0  0  0  0
  -26.9100  -17.1090   21.0260 H   0  0  0  0  0  0  0  0  0  0  0  0
  -23.3300  -13.0700   22.8620 C   0  0  0  0  0  1  0  0  0  0  0  0
  -24.6480  -13.8560   23.0040 C   0  0  1  0  0  0  0  0  0  0  0  0
  -25.5970  -12.9690   23.3120 F   0  0  0  0  0  0  0  0  0  0  0  0
  -24.5340  -14.8380   24.2000 C   0  0  2  0  0  0  0  0  0  0  0  0
  -24.1280  -14.1970   25.2990 F   0  0  0  0  0  0  0  0  0  0  0  0
  -23.6310  -15.7760   23.9170 F   0  0  0  0  0  0  0  0  0  0  0  0
  -25.6860  -15.4460   24.4750 F   0  0  0  0  0  0  0  0  0  0  0  0
  -27.1420  -19.4980   19.3090 C   0  0  0  0  0 15  0  0  0  0  0  0
  -26.9330  -21.8650   19.6260 C   0  0  0  0  0 15  0  0  0  0  0  0
  -27.5690  -23.9100   19.7070 O   0  0  0  0  0  1  0  0  0  0  0  0
  -25.3470  -31.2630   23.1020 C   0  0  0  0  0  0  0  0  0  0  0  0
  -27.1000  -25.5880   19.8070 C   0  0  0  0  0  0  0  0  0  0  0  0
  -24.0930  -30.0200   21.4190 C   0  0  0  0  0  3  0  0  0  0  0  0
  -25.3650  -28.2940   19.8750 C   0  0  0  0  0  0  0  0  0  0  0  0
  -26.6710  -29.7830   21.3350 C   0  0  0  0  0  2  0  0  0  0  0  0
  -26.5660  -28.3280   20.5790 C   0  0  0  0  0  0  0  0  0  0  0  0
  -27.4230  -27.0180   20.5000 C   0  0  0  0  0  3  0  0  0  0  0  0
  -26.0040  -25.9970   19.0000 C   0  0  0  0  0  3  0  0  0  0  0  0
  -25.1830  -27.1770   19.0440 C   0  0  0  0  0  3  0  0  0  0  0  0
  -24.2930  -29.4050   20.0010 C   0  0  0  0  0  2  0  0  0  0  0  0
  -25.4140  -30.4080   22.0020 N   0  0  0  0  0  0  0  0  0  0  0  0
  -24.2620  -31.6030   23.6160 O   0  0  0  0  0  0  0  0  0  0  0  0
  -23.3230  -29.0370   22.3440 C   0  0  0  0  0  0  0  0  0  0  0  0
  -21.9900  -28.9050   22.1890 N   0  0  0  0  0  0  0  0  0  0  0  0
  -23.9440  -28.3930   23.1920 O   0  0  0  0  0  0  0  0  0  0  0  0
  -21.5300  -29.4760   21.4950 H   0  0  0  0  0  0  0  0  0  0  0  0
  -18.5950  -27.6540   22.5950 C   0  0  0  0  0  0  0  0  0  0  0  0
  -21.1470  -27.9450   22.9170 C   0  0  0  0  0  3  0  0  0  0  0  0
  -21.2720  -26.5290   22.3060 C   0  0  0  0  0  2  0  0  0  0  0  0
  -20.1980  -26.2280   21.2560 C   0  0  0  0  0  2  0  0  0  0  0  0
  -18.8010  -26.3350   21.8730 C   0  0  0  0  0  2  0  0  0  0  0  0
  -19.6950  -28.4200   23.0690 C   0  0  0  0  0  0  0  0  0  0  0  0
  -19.4410  -29.6520   23.7100 C   0  0  0  0  0  3  0  0  0  0  0  0
  -18.1240  -30.1200   23.8770 C   0  0  0  0  0  3  0  0  0  0  0  0
  -17.0400  -29.3530   23.4130 C   0  0  0  0  0  3  0  0  0  0  0  0
  -17.2770  -28.1220   22.7770 C   0  0  0  0  0  3  0  0  0  0  0  0
  -26.6130  -31.8700   23.7810 C   0  0  0  0  0  3  0  0  0  0  0  0
  -27.0730  -31.0600   25.0580 C   0  0  1  0  0  0  0  0  0  0  0  0
  -25.9500  -30.8470   26.1010 C   0  0  0  0  0  1  0  0  0  0  0  0
  -27.6050  -29.6660   24.6720 C   0  0  0  0  0  1  0  0  0  0  0  0
  -28.2470  -31.7940   25.7490 C   0  0  0  0  0  1  0  0  0  0  0  0
  -26.3180  -33.2680   24.1880 N   0  0  0  0  0  0  0  0  0  0  0  0
  -26.6840  -34.3780   23.5290 C   0  0  0  0  0  0  0  0  0  0  0  0
  -27.3510  -34.3360   22.4930 O   0  0  0  0  0  0  0  0  0  0  0  0
  -25.7160  -33.3730   24.9910 H   0  0  0  0  0  0  0  0  0  0  0  0
  -25.0140  -36.2680   23.3520 C   0  0  0  0  0  1  0  0  0  0  0  0
  -26.2520  -35.7490   24.1020 C   0  0  0  0  0  3  0  0  0  0  0  0
  -28.4250  -36.5230   24.9600 C   0  0  0  0  0  1  0  0  0  0  0  0
  -27.3160  -36.7800   24.0470 N   0  0  0  0  0  0  0  0  0  0  0  0
  -26.9370  -37.6990   24.2580 H   0  0  0  0  0  0  0  0  0  0  0  0
  1  2  1  0
  2 48  1  0
  3  8  1  0
  4  3  1  0
  5  7  1  0
  5 44  1  0
  6  5  1  0
  6 44  1  0
 10 15  1  0
 11 12  1  0
 11 10  1  0
 13 12  1  0
 13 22  1  0
 13 14  1  0
 15  9  1  0
 15 14  1  0
 16  9  2  0
 17  9  1  0
 17  4  1  0
 18 17  1  0
 19 20  1  0
 20 39  1  0
 20 21  2  0
 21 24  1  0
 22 19  1  0
 22 23  1  0
 23 21  1  0
 24 25  1  0
 25 26  2  0
 27 30  1  0
 27 26  1  0
 28 27  2  0
 29 28  1  0
 29 24  2  0
 30 31  1  0
 31 36  2  0
 31 32  1  0
 32 33  2  0
 33 34  1  0
 34 38  1  0
 35 34  2  0
 36 35  1  0
 37 36  1  0
 39 40  1  0
 40 43  1  0
 40 42  1  0
 41 39  2  0
 44 46  1  0
 44 45  1  0
 48 47  1  6
 48 49  1  0
 48 50  1  0
 50 53  1  1
 50 51  1  0
 52 50  1  0
 56 58  1  0
 57 68  2  0
 58 63  1  0
 59 67  1  0
 59 69  1  0
 60 66  1  0
 60 62  1  0
 61 67  1  0
 62 61  1  0
 63 62  2  0
 64 65  1  0
 64 58  2  0
 65 60  2  0
 66 59  1  0
 67 57  1  0
 69 71  2  0
 70 69  1  0
 72 70  1  0
 73 82  2  0
 73 78  1  0
 74 70  1  0
 74 78  1  0
 75 74  1  0
 76 77  1  0
 76 75  1  0
 77 73  1  0
 78 79  2  0
 79 80  1  0
 81 80  2  0
 82 81  1  0
 83 57  1  0
 83 88  1  0
 83 84  1  0
 84 87  1  1
 84 85  1  0
 86 84  1  0
 88 91  1  0
 89 93  1  0
 89 88  1  0
 90 89  2  0
 93 92  1  0
 95 93  1  0
 95 96  1  0
 95 94  1  0
M  ISO  4   9 100  17 100  55 101  56 101
M  END
>  <TORSDO>  (45) 
F 20

>  <SCORE>  (45) 
12.430

>  <name>  (45) 
45

>  <ligand_id>  (45) 
45

>  <original_smiles>  (45) 
[H]c1c([H])c([H])c2c(c1[H])C([H])([H])C([H])([H])C([H])([H])C2([H])N([H])C(=O)C1([H])N(C(=O)C([H])(N([H])C(=O)C([H])(N([H])C([H])([H])[H])C([H])([H])[H])C(C([H])([H])[H])(C([H])([H])[H])C([H])([H])[H])C([H])([H])c2c([H])c(OC([H])([H])C([H])([H])n3c(N([H])C(=O)N4C([H])([H])C([H])([H])C([H])([H])C([H])(n5nc(-c6c([H])c([H])c(Oc7c([H])c([H])c(F)c([H])c7F)c([H])c6[H])c(C(=O)N([H])[H])c5N([H])[H])C4([H])[H])c(Cl)c(C(F)(C([H])([H])[H])C(F)(F)F)c([H])c3=O)c([H])c([H])c2C1([H])[H]

>  <smiles>  (45) 
[H]c1c([H])c([H])c2c(c1[H])C([H])([H])C([H])([H])C([H])([H])C2([H])N([H])C(=O)C1([H])N(C(=O)C([H])(N([H])C(=O)C([H])(N([H])C([H])([H])[H])C([H])([H])[H])C(C([H])([H])[H])(C([H])([H])[H])C([H])([H])[H])C([H])([H])c2c([H])c(OC([H])([H])C([H])([H])n3c(N([H])C(=O)N4C([H])([H])C([H])([H])C([H])([H])C([H])(n5nc(-c6c([H])c([H])c(Oc7c([H])c([H])c(F)c([H])c7F)c([H])c6[H])c(C(=O)N([H])[H])c5N([H])[H])C4([H])[H])c(Cl)c(C(F)(C([H])([H])[H])C(F)(F)F)c([H])c3=O)c([H])c([H])c2C1([H])[H]

$$$$
46:0:0
     RDKit          3D

 94102  0  0  1  0  0  0  0  0999 V2000
  -29.1190  -21.2120   19.7490 C   0  0  0  0  0  3  0  0  0  0  0  0
  -29.0610  -22.6850   20.2370 C   0  0  0  0  0  0  0  0  0  0  0  0
  -29.9240  -19.9800   20.2520 C   0  0  0  0  0  0  0  0  0  0  0  0
  -30.6580  -20.3570   21.4470 C   0  0  0  0  0  0  0  0  0  0  0  0
  -30.0150  -22.8430   21.2500 C   0  0  0  0  0  0  0  0  0  0  0  0
  -30.7780  -21.7690   21.8030 C   0  0  0  0  0  0  0  0  0  0  0  0
  -30.2020  -24.0910   21.7520 F   0  0  0  0  0  0  0  0  0  0  0  0
  -31.9500  -22.3690   22.9300 Cl  0  0  0  0  0  0  0  0  0  0  0  0
  -32.5770  -18.6740   21.7260 C   0  0  0  0  0  1  0  0  0  0  0  0
  -30.1750  -18.1320   22.5990 C   0  0  0  0  0  1  0  0  0  0  0  0
  -31.6570  -19.5590   23.8000 C   0  0  0  0  0  1  0  0  0  0  0  0
  -31.2630  -19.2130   22.3390 C   0  0  2  0  0  0  0  0  0  0  0  0
  -28.0830  -24.0650   19.8590 C   0  0  0  0  0  0  0  0  0  0  0  0
  -27.1210  -23.7820   19.1390 O   0  0  0  0  0  0  0  0  0  0  0  0
  -28.1850  -25.7230   20.3040 O   0  0  0  0  0  0  0  0  0  0  0  0
  -24.6600  -31.7850   23.1770 C   0  0  0  0  0  0  0  0  0  0  0  0
  -27.2210  -26.8740   20.1510 C   0  0  0  0  0  0  0  0  0  0  0  0
  -23.4700  -30.3860   21.5400 C   0  0  0  0  0  3  0  0  0  0  0  0
  -24.9230  -28.7850   20.1080 C   0  0  0  0  0  0  0  0  0  0  0  0
  -26.0390  -30.5880   21.3990 C   0  0  0  0  0  2  0  0  0  0  0  0
  -26.1100  -29.1760   20.7380 C   0  0  0  0  0  0  0  0  0  0  0  0
  -27.2460  -28.2390   20.7440 C   0  0  0  0  0  3  0  0  0  0  0  0
  -26.0060  -26.6580   19.4580 C   0  0  0  0  0  3  0  0  0  0  0  0
  -24.8990  -27.5470   19.4470 C   0  0  0  0  0  3  0  0  0  0  0  0
  -23.7020  -29.7050   20.1620 C   0  0  0  0  0  2  0  0  0  0  0  0
  -24.7450  -30.9480   22.0910 N   0  0  0  0  0  0  0  0  0  0  0  0
  -23.5700  -32.0740   23.6970 O   0  0  0  0  0  0  0  0  0  0  0  0
  -22.7750  -29.3910   22.5060 C   0  0  0  0  0  0  0  0  0  0  0  0
  -21.4490  -29.2060   22.3680 N   0  0  0  0  0  0  0  0  0  0  0  0
  -23.4380  -28.7860   23.3520 O   0  0  0  0  0  0  0  0  0  0  0  0
  -20.9650  -29.7470   21.6640 H   0  0  0  0  0  0  0  0  0  0  0  0
  -18.0900  -27.9020   22.8060 C   0  0  0  0  0  0  0  0  0  0  0  0
  -20.6310  -28.2640   23.1400 C   0  0  0  0  0  3  0  0  0  0  0  0
  -20.7970  -26.8200   22.6100 C   0  0  0  0  0  2  0  0  0  0  0  0
  -19.7390  -26.4320   21.5730 C   0  0  0  0  0  2  0  0  0  0  0  0
  -18.3340  -26.5440   22.1700 C   0  0  0  0  0  2  0  0  0  0  0  0
  -19.1680  -28.7160   23.2470 C   0  0  0  0  0  0  0  0  0  0  0  0
  -18.8840  -29.9820   23.8050 C   0  0  0  0  0  3  0  0  0  0  0  0
  -17.5560  -30.4350   23.9240 C   0  0  0  0  0  3  0  0  0  0  0  0
  -16.4940  -29.6210   23.4960 C   0  0  0  0  0  3  0  0  0  0  0  0
  -16.7610  -28.3560   22.9440 C   0  0  0  0  0  3  0  0  0  0  0  0
  -25.9290  -32.4330   23.8080 C   0  0  0  0  0  3  0  0  0  0  0  0
  -26.4470  -31.6610   25.0850 C   0  0  1  0  0  0  0  0  0  0  0  0
  -25.3540  -31.4160   26.1520 C   0  0  0  0  0  1  0  0  0  0  0  0
  -27.0380  -30.2860   24.6990 C   0  0  0  0  0  1  0  0  0  0  0  0
  -27.5940  -32.4590   25.7500 C   0  0  0  0  0  1  0  0  0  0  0  0
  -25.6010  -33.8260   24.1610 N   0  0  0  0  0  0  0  0  0  0  0  0
  -25.9150  -34.9020   23.4260 C   0  0  0  0  0  0  0  0  0  0  0  0
  -26.5750  -34.8250   22.3860 O   0  0  0  0  0  0  0  0  0  0  0  0
  -25.0130  -33.9590   24.9710 H   0  0  0  0  0  0  0  0  0  0  0  0
  -24.1670  -36.6910   23.1380 C   0  0  0  0  0  1  0  0  0  0  0  0
  -25.4250  -36.2780   23.9190 C   0  0  0  0  0  3  0  0  0  0  0  0
  -27.5650  -37.1710   24.7320 C   0  0  0  0  0  1  0  0  0  0  0  0
  -26.4470  -37.3440   23.8090 N   0  0  0  0  0  0  0  0  0  0  0  0
  -26.0340  -38.2580   23.9780 H   0  0  0  0  0  0  0  0  0  0  0  0
  -30.1260  -18.3660   19.5110 C   0  0  0  0  0  2  0  0  0  0  0  0
  -30.7650  -15.4260   19.7800 C   0  0  0  0  0  0  0  0  0  0  0  0
  -30.6670  -12.9470   18.9700 C   0  0  0  0  0  2  0  0  0  0  0  0
  -29.6940  -12.7250   17.7820 C   0  0  0  0  0  2  0  0  0  0  0  0
  -28.2620  -12.4840   18.2890 C   0  0  0  0  0  2  0  0  0  0  0  0
  -27.8770  -13.4770   19.4120 C   0  0  0  0  0  3  0  0  0  0  0  0
  -28.9730  -13.6370   20.4890 C   0  0  0  0  0  2  0  0  0  0  0  0
  -30.1830  -14.1190   19.8000 N   0  0  0  0  0  0  0  0  0  0  0  0
  -31.9580  -15.3920   19.4410 O   0  0  0  0  0  0  0  0  0  0  0  0
  -30.0320  -16.7210   19.9400 N   0  0  0  0  0  0  0  0  0  0  0  0
  -29.1050  -16.5180   20.2790 H   0  0  0  0  0  0  0  0  0  0  0  0
  -25.5640  -14.0960   20.2860 C   0  0  0  0  0  0  0  0  0  0  0  0
  -24.4990  -13.3470   20.6990 C   0  0  0  0  0  0  0  0  0  0  0  0
  -24.9210  -11.9840   20.6330 C   0  0  0  0  0  0  0  0  0  0  0  0
  -26.5670  -13.1920   19.9830 N   0  0  0  0  0  0  0  0  0  0  0  0
  -26.1950  -11.9140   20.2600 N   0  0  0  0  0  0  0  0  0  0  0  0
  -24.1650  -10.7430   20.8460 C   0  0  0  0  0  0  0  0  0  0  0  0
  -24.5790   -9.7750   21.7880 C   0  0  0  0  0  3  0  0  0  0  0  0
  -23.8210   -8.6020   21.9900 C   0  0  0  0  0  3  0  0  0  0  0  0
  -22.6330   -8.3880   21.2520 C   0  0  0  0  0  0  0  0  0  0  0  0
  -22.2370   -9.3430   20.2990 C   0  0  0  0  0  3  0  0  0  0  0  0
  -22.9960  -10.5070   20.0940 C   0  0  0  0  0  3  0  0  0  0  0  0
  -21.8470   -7.2650   21.3620 O   0  0  0  0  0  0  0  0  0  0  0  0
  -21.7400   -6.5750   22.5430 C   0  0  0  0  0  0  0  0  0  0  0  0
  -21.3010   -7.1960   23.7320 C   0  0  0  0  0  3  0  0  0  0  0  0
  -21.1390   -6.4330   24.9060 C   0  0  0  0  0  3  0  0  0  0  0  0
  -21.4080   -5.0520   24.8920 C   0  0  0  0  0  0  0  0  0  0  0  0
  -21.8400   -4.4310   23.7080 C   0  0  0  0  0  3  0  0  0  0  0  0
  -22.0020   -5.1900   22.5350 C   0  0  0  0  0  0  0  0  0  0  0  0
  -22.3990   -4.5830   21.3910 F   0  0  0  0  0  0  0  0  0  0  0  0
  -21.2450   -4.3180   26.0180 F   0  0  0  0  0  0  0  0  0  0  0  0
  -23.1320  -13.8650   21.0370 C   0  0  0  0  0  0  0  0  0  0  0  0
  -22.4290  -13.1930   21.9410 N   0  0  0  0  0  0  0  0  0  0  0  0
  -22.6990  -14.9020   20.5340 O   0  0  0  0  0  0  0  0  0  0  0  0
  -22.7930  -12.3550   22.3700 H   0  0  0  0  0  0  0  0  0  0  0  0
  -21.5130  -13.5220   22.2120 H   0  0  0  0  0  0  0  0  0  0  0  0
  -25.7590  -15.4630   20.1090 N   0  0  0  0  0  0  0  0  0  0  0  0
  -25.0120  -16.1330   20.2560 H   0  0  0  0  0  0  0  0  0  0  0  0
  -26.5840  -15.8750   19.6950 H   0  0  0  0  0  0  0  0  0  0  0  0
  1  2  2  0
  1  3  1  0
  2  5  1  0
  3  4  2  0
  4  6  1  0
  4 12  1  0
  5  7  1  0
  5  6  2  0
  6  8  1  0
 12  9  1  6
 12 10  1  0
 12 11  1  0
 13  2  1  0
 13 15  1  0
 14 13  2  0
 16 27  2  0
 17 15  1  0
 17 22  1  0
 18 26  1  0
 18 28  1  0
 19 25  1  0
 19 21  1  0
 20 26  1  0
 21 22  2  0
 21 20  1  0
 23 17  2  0
 24 23  1  0
 24 19  2  0
 25 18  1  0
 26 16  1  0
 28 30  2  0
 29 28  1  0
 31 29  1  0
 32 41  2  0
 32 37  1  0
 33 29  1  0
 33 37  1  0
 34 33  1  0
 35 36  1  0
 35 34  1  0
 36 32  1  0
 37 38  2  0
 38 39  1  0
 40 39  2  0
 41 40  1  0
 42 16  1  0
 42 47  1  0
 42 43  1  0
 43 46  1  1
 43 44  1  0
 45 43  1  0
 47 50  1  0
 48 52  1  0
 48 47  1  0
 49 48  2  0
 52 51  1  0
 54 52  1  0
 54 55  1  0
 54 53  1  0
 56 65  1  0
 56  3  1  0
 57 63  1  0
 57 65  1  0
 58 63  1  0
 59 60  1  0
 59 58  1  0
 61 60  1  0
 61 70  1  0
 61 62  1  0
 63 62  1  0
 64 57  2  0
 65 66  1  0
 67 68  2  0
 68 87  1  0
 69 68  1  0
 69 72  1  0
 70 71  1  0
 70 67  1  0
 71 69  2  0
 72 73  1  0
 73 74  2  0
 75 78  1  0
 75 74  1  0
 76 75  2  0
 77 76  1  0
 77 72  2  0
 78 79  1  0
 79 80  1  0
 80 81  2  0
 82 81  1  0
 82 86  1  0
 83 82  2  0
 84 79  2  0
 84 83  1  0
 85 84  1  0
 87 88  1  0
 88 91  1  0
 88 90  1  0
 89 87  2  0
 92 93  1  0
 92 67  1  0
 94 92  1  0
M  ISO  4  13 101  15 101  57 100  65 100
M  END
>  <TORSDO>  (46) 
F 19

>  <SCORE>  (46) 
-13.967

>  <name>  (46) 
46

>  <ligand_id>  (46) 
46

>  <original_smiles>  (46) 
[H]c1c([H])c([H])c2c(c1[H])C([H])([H])C([H])([H])C([H])([H])C2([H])N([H])C(=O)C1([H])N(C(=O)C([H])(N([H])C(=O)C([H])(N([H])C([H])([H])[H])C([H])([H])[H])C(C([H])([H])[H])(C([H])([H])[H])C([H])([H])[H])C([H])([H])c2c([H])c(OC(=O)c3c([H])c(C([H])([H])N([H])C(=O)N4C([H])([H])C([H])([H])C([H])([H])C([H])(n5nc(-c6c([H])c([H])c(Oc7c([H])c([H])c(F)c([H])c7F)c([H])c6[H])c(C(=O)N([H])[H])c5N([H])[H])C4([H])[H])c(C(C([H])([H])[H])(C([H])([H])[H])C([H])([H])[H])c(Cl)c3F)c([H])c([H])c2C1([H])[H]

>  <smiles>  (46) 
[H]c1c([H])c([H])c2c(c1[H])C([H])([H])C([H])([H])C([H])([H])C2([H])N([H])C(=O)C1([H])N(C(=O)C([H])(N([H])C(=O)C([H])(N([H])C([H])([H])[H])C([H])([H])[H])C(C([H])([H])[H])(C([H])([H])[H])C([H])([H])[H])C([H])([H])c2c([H])c(OC(=O)c3c([H])c(C([H])([H])N([H])C(=O)N4C([H])([H])C([H])([H])C([H])([H])C([H])(n5nc(-c6c([H])c([H])c(Oc7c([H])c([H])c(F)c([H])c7F)c([H])c6[H])c(C(=O)N([H])[H])c5N([H])[H])C4([H])[H])c(C(C([H])([H])[H])(C([H])([H])[H])C([H])([H])[H])c(Cl)c3F)c([H])c([H])c2C1([H])[H]

$$$$
47:0:0
     RDKit          3D

 89 97  0  0  1  0  0  0  0  0999 V2000
  -29.1460  -22.6700   21.6560 C   0  0  0  0  0  3  0  0  0  0  0  0
  -29.6830  -21.4990   22.2610 C   0  0  0  0  0  3  0  0  0  0  0  0
  -28.6970  -22.7140   20.3210 C   0  0  0  0  0  0  0  0  0  0  0  0
  -29.4940  -19.9950   20.2760 C   0  0  0  0  0  0  0  0  0  0  0  0
  -29.8500  -20.2350   21.6260 C   0  0  0  0  0  0  0  0  0  0  0  0
  -28.9070  -21.3100   19.6740 C   0  0  0  0  0  0  0  0  0  0  0  0
  -30.5540  -18.9660   22.5640 Cl  0  0  0  0  0  0  0  0  0  0  0  0
  -28.4070  -21.1910   18.0260 Cl  0  0  0  0  0  0  0  0  0  0  0  0
  -29.9130  -18.4110   19.5870 C   0  0  0  0  0  2  0  0  0  0  0  0
  -30.5970  -15.4950   19.8170 C   0  0  0  0  0  0  0  0  0  0  0  0
  -30.5630  -13.0350   18.9470 C   0  0  0  0  0  2  0  0  0  0  0  0
  -29.5810  -12.8110   17.7670 C   0  0  0  0  0  2  0  0  0  0  0  0
  -28.1650  -12.5100   18.2860 C   0  0  0  0  0  2  0  0  0  0  0  0
  -27.7660  -13.4600   19.4430 C   0  0  0  0  0  3  0  0  0  0  0  0
  -28.8720  -13.6290   20.5070 C   0  0  0  0  0  2  0  0  0  0  0  0
  -30.0540  -14.1700   19.8130 N   0  0  0  0  0  0  0  0  0  0  0  0
  -31.7850  -15.5020   19.4580 O   0  0  0  0  0  0  0  0  0  0  0  0
  -29.8380  -16.7710   20.0210 N   0  0  0  0  0  0  0  0  0  0  0  0
  -28.9210  -16.5520   20.3820 H   0  0  0  0  0  0  0  0  0  0  0  0
  -25.4450  -13.9780   20.3560 C   0  0  0  0  0  0  0  0  0  0  0  0
  -24.4130  -13.1850   20.7710 C   0  0  0  0  0  0  0  0  0  0  0  0
  -24.8850  -11.8390   20.6780 C   0  0  0  0  0  0  0  0  0  0  0  0
  -26.4750  -13.1170   20.0250 N   0  0  0  0  0  0  0  0  0  0  0  0
  -26.1550  -11.8220   20.2860 N   0  0  0  0  0  0  0  0  0  0  0  0
  -24.1770  -10.5670   20.8800 C   0  0  0  0  0  0  0  0  0  0  0  0
  -24.5710   -9.6520   21.8810 C   0  0  0  0  0  3  0  0  0  0  0  0
  -23.8590   -8.4480   22.0700 C   0  0  0  0  0  3  0  0  0  0  0  0
  -22.7380   -8.1510   21.2580 C   0  0  0  0  0  0  0  0  0  0  0  0
  -22.3630   -9.0550   20.2500 C   0  0  0  0  0  3  0  0  0  0  0  0
  -23.0770  -10.2490   20.0590 C   0  0  0  0  0  3  0  0  0  0  0  0
  -22.0020   -6.9940   21.3540 O   0  0  0  0  0  0  0  0  0  0  0  0
  -21.7670   -6.3870   22.5620 C   0  0  0  0  0  0  0  0  0  0  0  0
  -21.0750   -7.0440   23.6030 C   0  0  0  0  0  3  0  0  0  0  0  0
  -20.7940   -6.3590   24.8020 C   0  0  0  0  0  3  0  0  0  0  0  0
  -21.1930   -5.0190   24.9590 C   0  0  0  0  0  0  0  0  0  0  0  0
  -21.8770   -4.3620   23.9210 C   0  0  0  0  0  3  0  0  0  0  0  0
  -22.1590   -5.0440   22.7250 C   0  0  0  0  0  0  0  0  0  0  0  0
  -22.8000   -4.3990   21.7200 F   0  0  0  0  0  0  0  0  0  0  0  0
  -20.9180   -4.3590   26.1080 F   0  0  0  0  0  0  0  0  0  0  0  0
  -23.0320  -13.6460   21.1340 C   0  0  0  0  0  0  0  0  0  0  0  0
  -22.3690  -12.9400   22.0430 N   0  0  0  0  0  0  0  0  0  0  0  0
  -22.5530  -14.6690   20.6460 O   0  0  0  0  0  0  0  0  0  0  0  0
  -22.7740  -12.1140   22.4590 H   0  0  0  0  0  0  0  0  0  0  0  0
  -21.4450  -13.2300   22.3280 H   0  0  0  0  0  0  0  0  0  0  0  0
  -25.5850  -15.3540   20.2000 N   0  0  0  0  0  0  0  0  0  0  0  0
  -24.8170  -15.9930   20.3710 H   0  0  0  0  0  0  0  0  0  0  0  0
  -26.3920  -15.8070   19.7900 H   0  0  0  0  0  0  0  0  0  0  0  0
  -27.8970  -24.2110   19.8120 C   0  0  0  0  0  2  0  0  0  0  0  0
  -28.0900  -25.8370   20.1480 O   0  0  0  0  0  0  0  0  0  0  0  0
  -24.6940  -31.9280   23.1200 C   0  0  0  0  0  0  0  0  0  0  0  0
  -27.1060  -26.9730   20.0560 C   0  0  0  0  0  0  0  0  0  0  0  0
  -23.4340  -30.5260   21.5370 C   0  0  0  0  0  3  0  0  0  0  0  0
  -24.8230  -28.8960   20.0720 C   0  0  0  0  0  0  0  0  0  0  0  0
  -25.9970  -30.7060   21.3030 C   0  0  0  0  0  2  0  0  0  0  0  0
  -26.0330  -29.2870   20.6550 C   0  0  0  0  0  0  0  0  0  0  0  0
  -27.1640  -28.3460   20.6260 C   0  0  0  0  0  3  0  0  0  0  0  0
  -25.8680  -26.7520   19.4070 C   0  0  0  0  0  3  0  0  0  0  0  0
  -24.7670  -27.6510   19.4250 C   0  0  0  0  0  3  0  0  0  0  0  0
  -23.6120  -29.8280   20.1580 C   0  0  0  0  0  2  0  0  0  0  0  0
  -24.7330  -31.0810   22.0390 N   0  0  0  0  0  0  0  0  0  0  0  0
  -23.6250  -32.2300   23.6760 O   0  0  0  0  0  0  0  0  0  0  0  0
  -22.7660  -29.5450   22.5370 C   0  0  0  0  0  0  0  0  0  0  0  0
  -21.4410  -29.3380   22.4180 N   0  0  0  0  0  0  0  0  0  0  0  0
  -23.4470  -28.9690   23.3880 O   0  0  0  0  0  0  0  0  0  0  0  0
  -20.9410  -29.8540   21.7060 H   0  0  0  0  0  0  0  0  0  0  0  0
  -18.1110  -27.9790   22.9110 C   0  0  0  0  0  0  0  0  0  0  0  0
  -20.6460  -28.4030   23.2220 C   0  0  0  0  0  3  0  0  0  0  0  0
  -20.8400  -26.9480   22.7340 C   0  0  0  0  0  2  0  0  0  0  0  0
  -19.7860  -26.5080   21.7130 C   0  0  0  0  0  2  0  0  0  0  0  0
  -18.3820  -26.6070   22.3140 C   0  0  0  0  0  2  0  0  0  0  0  0
  -19.1750  -28.8280   23.3230 C   0  0  0  0  0  0  0  0  0  0  0  0
  -18.8680  -30.1030   23.8430 C   0  0  0  0  0  3  0  0  0  0  0  0
  -17.5320  -30.5330   23.9550 C   0  0  0  0  0  3  0  0  0  0  0  0
  -16.4840  -29.6850   23.5590 C   0  0  0  0  0  3  0  0  0  0  0  0
  -16.7750  -28.4090   23.0420 C   0  0  0  0  0  3  0  0  0  0  0  0
  -25.9900  -32.5690   23.7020 C   0  0  0  0  0  3  0  0  0  0  0  0
  -25.6710  -33.9500   24.1080 N   0  0  0  0  0  0  0  0  0  0  0  0
  -25.9490  -35.0470   23.3910 C   0  0  0  0  0  0  0  0  0  0  0  0
  -26.5640  -35.0040   22.3230 O   0  0  0  0  0  0  0  0  0  0  0  0
  -25.1160  -34.0550   24.9440 H   0  0  0  0  0  0  0  0  0  0  0  0
  -24.1950  -36.8470   23.2140 C   0  0  0  0  0  1  0  0  0  0  0  0
  -25.4760  -36.4070   23.9440 C   0  0  0  0  0  3  0  0  0  0  0  0
  -27.6310  -37.2800   24.7350 C   0  0  0  0  0  1  0  0  0  0  0  0
  -26.4940  -37.4760   23.8400 N   0  0  0  0  0  0  0  0  0  0  0  0
  -26.0850  -38.3840   24.0400 H   0  0  0  0  0  0  0  0  0  0  0  0
  -26.5790  -31.7680   24.9290 C   0  0  1  0  0  0  0  0  0  0  0  0
  -25.5350  -31.4500   26.0250 C   0  0  0  0  0  1  0  0  0  0  0  0
  -27.1970  -30.4280   24.4700 C   0  0  0  0  0  1  0  0  0  0  0  0
  -27.7250  -32.5780   25.5810 C   0  0  0  0  0  1  0  0  0  0  0  0
  1  2  1  0
  3  1  2  0
  4  5  1  0
  5  2  2  0
  5  7  1  0
  6  4  2  0
  6  3  1  0
  8  6  1  0
  9 18  1  0
  9  4  1  0
 10 18  1  0
 11 16  1  0
 12 13  1  0
 12 11  1  0
 14 13  1  0
 14 23  1  0
 14 15  1  0
 16 10  1  0
 16 15  1  0
 17 10  2  0
 18 19  1  0
 20 21  2  0
 21 40  1  0
 22 21  1  0
 22 25  1  0
 23 24  1  0
 23 20  1  0
 24 22  2  0
 25 26  1  0
 26 27  2  0
 28 31  1  0
 28 27  1  0
 29 28  2  0
 30 29  1  0
 30 25  2  0
 31 32  1  0
 32 37  2  0
 32 33  1  0
 33 34  2  0
 34 35  1  0
 35 39  1  0
 36 35  2  0
 37 36  1  0
 38 37  1  0
 40 41  1  0
 41 44  1  0
 41 43  1  0
 42 40  2  0
 45 20  1  0
 45 46  1  0
 47 45  1  0
 48 49  1  0
 48  3  1  0
 50 61  2  0
 51 49  1  0
 51 56  1  0
 52 60  1  0
 52 62  1  0
 53 59  1  0
 53 55  1  0
 54 60  1  0
 55 54  1  0
 56 55  2  0
 57 58  1  0
 57 51  2  0
 58 53  2  0
 59 52  1  0
 60 50  1  0
 62 64  2  0
 63 62  1  0
 65 63  1  0
 66 75  2  0
 66 71  1  0
 67 63  1  0
 67 71  1  0
 68 67  1  0
 69 70  1  0
 69 68  1  0
 70 66  1  0
 71 72  2  0
 72 73  1  0
 74 73  2  0
 75 74  1  0
 76 50  1  0
 76 77  1  0
 76 86  1  0
 77 80  1  0
 78 82  1  0
 78 77  1  0
 79 78  2  0
 82 81  1  0
 84 82  1  0
 84 85  1  0
 84 83  1  0
 86 89  1  1
 86 87  1  0
 88 86  1  0
M  ISO  4  10 100  18 100  48 101  49 101
M  END
>  <TORSDO>  (47) 
F 18

>  <SCORE>  (47) 
-15.735

>  <name>  (47) 
47

>  <ligand_id>  (47) 
47

>  <original_smiles>  (47) 
[H]c1c([H])c([H])c2c(c1[H])C([H])([H])C([H])([H])C([H])([H])C2([H])N([H])C(=O)C1([H])N(C(=O)C([H])(N([H])C(=O)C([H])(N([H])C([H])([H])[H])C([H])([H])[H])C(C([H])([H])[H])(C([H])([H])[H])C([H])([H])[H])C([H])([H])c2c([H])c(OC([H])([H])c3c([H])c([H])c(Cl)c(C([H])([H])N([H])C(=O)N4C([H])([H])C([H])([H])C([H])([H])C([H])(n5nc(-c6c([H])c([H])c(Oc7c([H])c([H])c(F)c([H])c7F)c([H])c6[H])c(C(=O)N([H])[H])c5N([H])[H])C4([H])[H])c3Cl)c([H])c([H])c2C1([H])[H]

>  <smiles>  (47) 
[H]c1c([H])c([H])c2c(c1[H])C([H])([H])C([H])([H])C([H])([H])C2([H])N([H])C(=O)C1([H])N(C(=O)C([H])(N([H])C(=O)C([H])(N([H])C([H])([H])[H])C([H])([H])[H])C(C([H])([H])[H])(C([H])([H])[H])C([H])([H])[H])C([H])([H])c2c([H])c(OC([H])([H])c3c([H])c([H])c(Cl)c(C([H])([H])N([H])C(=O)N4C([H])([H])C([H])([H])C([H])([H])C([H])(n5nc(-c6c([H])c([H])c(Oc7c([H])c([H])c(F)c([H])c7F)c([H])c6[H])c(C(=O)N([H])[H])c5N([H])[H])C4([H])[H])c3Cl)c([H])c([H])c2C1([H])[H]

$$$$
48:0:0
     RDKit          3D

104114  0  0  1  0  0  0  0  0999 V2000
  -32.2640  -25.4190   18.0660 C   0  0  0  0  0  3  0  0  0  0  0  0
  -32.7430  -24.6440   19.1190 C   0  0  0  0  0  0  0  0  0  0  0  0
  -31.9540  -26.7460   18.3620 C   0  0  0  0  0  0  0  0  0  0  0  0
  -32.6830  -26.4600   20.4980 C   0  0  0  0  0  0  0  0  0  0  0  0
  -32.9660  -27.0610   21.8560 C   0  0  0  0  0  1  0  0  0  0  0  0
  -32.9680  -25.1720   20.3320 N   0  0  0  0  0  0  0  0  0  0  0  0
  -32.1760  -27.2750   19.5780 N   0  0  0  0  0  0  0  0  0  0  0  0
  -33.0260  -23.2960   18.9050 N   0  0  0  0  0  0  0  0  0  0  0  0
  -33.3500  -23.0950   17.9670 H   0  0  0  0  0  0  0  0  0  0  0  0
  -32.8560  -20.9080   19.0470 C   0  0  0  0  0  3  0  0  0  0  0  0
  -31.7880  -22.2210   20.7710 C   0  0  0  0  0  3  0  0  0  0  0  0
  -31.6220  -19.7630   20.8420 C   0  0  0  0  0  0  0  0  0  0  0  0
  -32.4000  -19.7140   19.6440 C   0  0  0  0  0  0  0  0  0  0  0  0
  -31.3210  -21.0440   21.3930 C   0  0  0  0  0  0  0  0  0  0  0  0
  -32.5640  -22.1650   19.5950 C   0  0  0  0  0  0  0  0  0  0  0  0
  -32.8100  -18.4350   18.9260 C   0  0  0  0  0  1  0  0  0  0  0  0
  -30.4810  -21.2170   22.6530 C   0  0  0  0  0  1  0  0  0  0  0  0
  -30.9220  -14.8610   20.4110 C   0  0  0  0  0  0  0  0  0  0  0  0
  -30.5730  -12.7690   19.1440 C   0  0  0  0  0  2  0  0  0  0  0  0
  -29.6420  -12.9850   17.9390 C   0  0  0  0  0  2  0  0  0  0  0  0
  -28.1670  -12.8360   18.3560 C   0  0  0  0  0  2  0  0  0  0  0  0
  -27.8220  -13.6750   19.6130 C   0  0  0  0  0  3  0  0  0  0  0  0
  -28.8590  -13.4270   20.7330 C   0  0  0  0  0  2  0  0  0  0  0  0
  -30.1980  -13.7280   20.1960 N   0  0  0  0  0  0  0  0  0  0  0  0
  -31.9630  -15.0990   19.7890 O   0  0  0  0  0  0  0  0  0  0  0  0
  -29.8610  -17.8920   20.7920 C   0  0  0  0  0  2  0  0  0  0  0  0
  -32.1720  -17.4520   21.9040 C   0  0  0  0  0  2  0  0  0  0  0  0
  -29.4200  -16.5490   21.4050 C   0  0  0  0  0  2  0  0  0  0  0  0
  -31.5650  -16.1290   22.4150 C   0  0  0  0  0  2  0  0  0  0  0  0
  -31.0840  -18.4900   21.5290 C   0  0  0  0  0  3  0  0  0  0  0  0
  -30.5570  -15.6200   21.4740 N   0  0  0  0  0  0  0  0  0  0  0  0
  -25.4260  -14.3090   20.3090 C   0  0  0  0  0  0  0  0  0  0  0  0
  -24.3460  -13.5440   20.6570 C   0  0  0  0  0  0  0  0  0  0  0  0
  -24.7900  -12.1880   20.6060 C   0  0  0  0  0  0  0  0  0  0  0  0
  -26.4620  -13.4170   20.0730 N   0  0  0  0  0  0  0  0  0  0  0  0
  -26.0810  -12.1350   20.3060 N   0  0  0  0  0  0  0  0  0  0  0  0
  -24.0470  -10.9320   20.7690 C   0  0  0  0  0  0  0  0  0  0  0  0
  -24.4340   -9.9650   21.7240 C   0  0  0  0  0  3  0  0  0  0  0  0
  -23.6950   -8.7720   21.8740 C   0  0  0  0  0  3  0  0  0  0  0  0
  -22.5550   -8.5370   21.0670 C   0  0  0  0  0  0  0  0  0  0  0  0
  -22.1880   -9.4920   20.1020 C   0  0  0  0  0  3  0  0  0  0  0  0
  -22.9280  -10.6770   19.9510 C   0  0  0  0  0  3  0  0  0  0  0  0
  -21.7920   -7.3960   21.1250 O   0  0  0  0  0  0  0  0  0  0  0  0
  -21.6770   -6.6660   22.2810 C   0  0  0  0  0  0  0  0  0  0  0  0
  -21.1810   -7.2340   23.4740 C   0  0  0  0  0  3  0  0  0  0  0  0
  -21.0130   -6.4290   24.6190 C   0  0  0  0  0  3  0  0  0  0  0  0
  -21.3310   -5.0590   24.5700 C   0  0  0  0  0  0  0  0  0  0  0  0
  -21.8180   -4.4910   23.3790 C   0  0  0  0  0  3  0  0  0  0  0  0
  -21.9880   -5.2920   22.2380 C   0  0  0  0  0  0  0  0  0  0  0  0
  -22.4390   -4.7360   21.0880 F   0  0  0  0  0  0  0  0  0  0  0  0
  -21.1620   -4.2830   25.6660 F   0  0  0  0  0  0  0  0  0  0  0  0
  -22.9520  -14.0330   20.9300 C   0  0  0  0  0  0  0  0  0  0  0  0
  -22.2170  -13.3400   21.7920 N   0  0  0  0  0  0  0  0  0  0  0  0
  -22.5220  -15.0640   20.4140 O   0  0  0  0  0  0  0  0  0  0  0  0
  -22.5770  -12.5060   22.2310 H   0  0  0  0  0  0  0  0  0  0  0  0
  -21.2820  -13.6480   22.0190 H   0  0  0  0  0  0  0  0  0  0  0  0
  -25.6070  -15.6790   20.1560 N   0  0  0  0  0  0  0  0  0  0  0  0
  -24.8430  -16.3370   20.2640 H   0  0  0  0  0  0  0  0  0  0  0  0
  -26.4620  -16.1170   19.8380 H   0  0  0  0  0  0  0  0  0  0  0  0
  -31.4190  -27.5520   17.3870 O   0  0  0  0  0  0  0  0  0  0  0  0
  -30.2600  -28.3120   17.7270 C   0  0  0  0  0  2  0  0  0  0  0  0
  -28.9950  -27.5510   17.2880 C   0  0  0  0  0  2  0  0  0  0  0  0
  -28.6290  -26.3400   18.1690 C   0  0  0  0  0  2  0  0  0  0  0  0
  -28.3010  -26.7460   19.4990 O   0  0  0  0  0  0  0  0  0  0  0  0
  -24.5850  -31.6870   23.0180 C   0  0  0  0  0  0  0  0  0  0  0  0
  -27.1120  -27.4210   19.6270 C   0  0  0  0  0  0  0  0  0  0  0  0
  -23.3150  -30.3570   21.3620 C   0  0  0  0  0  3  0  0  0  0  0  0
  -24.7110  -28.8850   19.8210 C   0  0  0  0  0  0  0  0  0  0  0  0
  -25.8280  -30.7320   21.0830 C   0  0  0  0  0  2  0  0  0  0  0  0
  -25.8880  -29.3880   20.3900 C   0  0  0  0  0  0  0  0  0  0  0  0
  -27.0900  -28.6570   20.3030 C   0  0  0  0  0  3  0  0  0  0  0  0
  -25.9140  -26.9060   19.0840 C   0  0  0  0  0  3  0  0  0  0  0  0
  -24.7140  -27.6360   19.1750 C   0  0  0  0  0  3  0  0  0  0  0  0
  -23.4700  -29.7370   19.9480 C   0  0  0  0  0  2  0  0  0  0  0  0
  -24.5960  -30.9370   21.8800 N   0  0  0  0  0  0  0  0  0  0  0  0
  -23.5260  -31.9320   23.6110 O   0  0  0  0  0  0  0  0  0  0  0  0
  -22.7020  -29.2930   22.3000 C   0  0  0  0  0  0  0  0  0  0  0  0
  -21.3770  -29.1020   22.2020 N   0  0  0  0  0  0  0  0  0  0  0  0
  -23.4130  -28.6420   23.0710 O   0  0  0  0  0  0  0  0  0  0  0  0
  -20.8630  -29.6780   21.5500 H   0  0  0  0  0  0  0  0  0  0  0  0
  -18.0300  -27.8530   22.7320 C   0  0  0  0  0  0  0  0  0  0  0  0
  -20.5900  -28.1290   22.9560 C   0  0  0  0  0  3  0  0  0  0  0  0
  -20.6950  -26.7200   22.3270 C   0  0  0  0  0  2  0  0  0  0  0  0
  -19.5730  -26.4210   21.3280 C   0  0  0  0  0  2  0  0  0  0  0  0
  -18.2040  -26.5300   22.0070 C   0  0  0  0  0  2  0  0  0  0  0  0
  -19.1500  -28.6120   23.1630 C   0  0  0  0  0  0  0  0  0  0  0  0
  -18.9320  -29.8540   23.8000 C   0  0  0  0  0  3  0  0  0  0  0  0
  -17.6250  -30.3350   24.0110 C   0  0  0  0  0  3  0  0  0  0  0  0
  -16.5210  -29.5720   23.5950 C   0  0  0  0  0  3  0  0  0  0  0  0
  -16.7240  -28.3340   22.9620 C   0  0  0  0  0  3  0  0  0  0  0  0
  -25.8960  -32.2880   23.6150 C   0  0  0  0  0  3  0  0  0  0  0  0
  -25.6020  -33.6680   24.0240 N   0  0  0  0  0  0  0  0  0  0  0  0
  -25.9220  -34.7570   23.3120 C   0  0  0  0  0  0  0  0  0  0  0  0
  -26.5710  -34.7050   22.2630 O   0  0  0  0  0  0  0  0  0  0  0  0
  -25.0260  -33.7830   24.8450 H   0  0  0  0  0  0  0  0  0  0  0  0
  -24.1960  -36.5700   23.0770 C   0  0  0  0  0  1  0  0  0  0  0  0
  -25.4480  -36.1210   23.8500 C   0  0  0  0  0  3  0  0  0  0  0  0
  -27.5970  -36.9510   24.6980 C   0  0  0  0  0  1  0  0  0  0  0  0
  -26.4830  -37.1740   23.7790 N   0  0  0  0  0  0  0  0  0  0  0  0
  -26.0830  -38.0870   23.9850 H   0  0  0  0  0  0  0  0  0  0  0  0
  -26.4690  -31.4530   24.8250 C   0  0  1  0  0  0  0  0  0  0  0  0
  -25.4220  -31.1530   25.9230 C   0  0  0  0  0  1  0  0  0  0  0  0
  -27.0380  -30.1030   24.3330 C   0  0  0  0  0  1  0  0  0  0  0  0
  -27.6440  -32.2170   25.4790 C   0  0  0  0  0  1  0  0  0  0  0  0
  1  3  1  0
  1  2  2  0
  2  6  1  0
  3  7  2  0
  4  5  1  0
  6  4  2  0
  7  4  1  0
  8  2  1  0
  8 15  1  0
  9  8  1  0
 10 15  2  0
 10 13  1  0
 11 14  2  0
 12 14  1  0
 13 12  2  0
 14 17  1  0
 15 11  1  0
 16 13  1  0
 18 31  1  0
 19 24  1  0
 20 21  1  0
 20 19  1  0
 22 21  1  0
 22 35  1  0
 22 23  1  0
 24 18  1  0
 24 23  1  0
 25 18  2  0
 26 28  1  0
 26 30  1  0
 27 29  1  0
 28 31  1  0
 30 12  1  0
 30 27  1  0
 31 29  1  0
 32 33  2  0
 33 52  1  0
 34 33  1  0
 34 37  1  0
 35 36  1  0
 35 32  1  0
 36 34  2  0
 37 38  1  0
 38 39  2  0
 40 43  1  0
 40 39  1  0
 41 40  2  0
 42 41  1  0
 42 37  2  0
 43 44  1  0
 44 45  1  0
 45 46  2  0
 47 46  1  0
 47 51  1  0
 48 47  2  0
 49 44  2  0
 49 48  1  0
 50 49  1  0
 52 53  1  0
 53 56  1  0
 53 55  1  0
 54 52  2  0
 57 58  1  0
 57 32  1  0
 59 57  1  0
 60 61  1  0
 60  3  1  0
 62 61  1  0
 62 63  1  0
 63 64  1  0
 64 66  1  0
 65 76  2  0
 66 71  1  0
 67 75  1  0
 67 77  1  0
 68 74  1  0
 68 70  1  0
 69 75  1  0
 70 69  1  0
 71 70  2  0
 72 73  1  0
 72 66  2  0
 73 68  2  0
 74 67  1  0
 75 65  1  0
 77 79  2  0
 78 77  1  0
 80 78  1  0
 81 90  2  0
 81 86  1  0
 82 78  1  0
 82 86  1  0
 83 82  1  0
 84 85  1  0
 84 83  1  0
 85 81  1  0
 86 87  2  0
 87 88  1  0
 89 88  2  0
 90 89  1  0
 91 65  1  0
 91 92  1  0
 91101  1  0
 92 95  1  0
 93 97  1  0
 93 92  1  0
 94 93  2  0
 97 96  1  0
 99 97  1  0
 99100  1  0
 99 98  1  0
101104  1  1
101102  1  0
103101  1  0
M  ISO  4  18 100  31 100  63 101  64 101
M  END
>  <TORSDO>  (48) 
F 22

>  <SCORE>  (48) 
-10.982

>  <name>  (48) 
48

>  <ligand_id>  (48) 
48

>  <original_smiles>  (48) 
[H]c1c(OC([H])([H])C([H])([H])C([H])([H])Oc2c([H])c([H])c3c(c2[H])C([H])([H])N(C(=O)C([H])(N([H])C(=O)C([H])(N([H])C([H])([H])[H])C([H])([H])[H])C(C([H])([H])[H])(C([H])([H])[H])C([H])([H])[H])C([H])(C(=O)N([H])C2([H])c4c([H])c([H])c([H])c([H])c4C([H])([H])C([H])([H])C2([H])[H])C3([H])[H])nc(C([H])([H])[H])nc1N([H])c1c([H])c(C([H])([H])[H])c(C2([H])C([H])([H])C([H])([H])N(C(=O)N3C([H])([H])C([H])([H])C([H])([H])C([H])(n4nc(-c5c([H])c([H])c(Oc6c([H])c([H])c(F)c([H])c6F)c([H])c5[H])c(C(=O)N([H])[H])c4N([H])[H])C3([H])[H])C([H])([H])C2([H])[H])c(C([H])([H])[H])c1[H]

>  <smiles>  (48) 
[H]c1c(OC([H])([H])C([H])([H])C([H])([H])Oc2c([H])c([H])c3c(c2[H])C([H])([H])N(C(=O)C([H])(N([H])C(=O)C([H])(N([H])C([H])([H])[H])C([H])([H])[H])C(C([H])([H])[H])(C([H])([H])[H])C([H])([H])[H])C([H])(C(=O)N([H])C2([H])c4c([H])c([H])c([H])c([H])c4C([H])([H])C([H])([H])C2([H])[H])C3([H])[H])nc(C([H])([H])[H])nc1N([H])c1c([H])c(C([H])([H])[H])c(C2([H])C([H])([H])C([H])([H])N(C(=O)N3C([H])([H])C([H])([H])C([H])([H])C([H])(n4nc(-c5c([H])c([H])c(Oc6c([H])c([H])c(F)c([H])c6F)c([H])c5[H])c(C(=O)N([H])[H])c4N([H])[H])C3([H])[H])C([H])([H])C2([H])[H])c(C([H])([H])[H])c1[H]

$$$$
49:0:0
     RDKit          3D

 82 86  0  0  1  0  0  0  0  0999 V2000
  -28.2050  -25.2050   20.1810 O   0  0  0  0  0  1  0  0  0  0  0  0
  -24.6630  -31.8080   23.1260 C   0  0  0  0  0  0  0  0  0  0  0  0
  -27.2220  -26.5040   20.2220 C   0  0  0  0  0  0  0  0  0  0  0  0
  -23.4970  -30.3850   21.5020 C   0  0  0  0  0  3  0  0  0  0  0  0
  -24.9590  -28.6800   20.1340 C   0  0  0  0  0  0  0  0  0  0  0  0
  -26.0880  -30.4680   21.4190 C   0  0  0  0  0  2  0  0  0  0  0  0
  -26.1600  -29.0030   20.7770 C   0  0  0  0  0  0  0  0  0  0  0  0
  -27.2650  -27.9550   20.7750 C   0  0  0  0  0  3  0  0  0  0  0  0
  -25.9780  -26.4560   19.5220 C   0  0  0  0  0  3  0  0  0  0  0  0
  -24.9220  -27.4330   19.4830 C   0  0  0  0  0  3  0  0  0  0  0  0
  -23.7610  -29.6570   20.1490 C   0  0  0  0  0  2  0  0  0  0  0  0
  -24.7760  -30.9260   22.0670 N   0  0  0  0  0  0  0  0  0  0  0  0
  -23.5610  -32.1170   23.6170 O   0  0  0  0  0  0  0  0  0  0  0  0
  -22.7590  -29.4350   22.4830 C   0  0  0  0  0  0  0  0  0  0  0  0
  -21.4230  -29.2990   22.3640 N   0  0  0  0  0  0  0  0  0  0  0  0
  -23.4070  -28.8130   23.3290 O   0  0  0  0  0  0  0  0  0  0  0  0
  -20.9470  -29.8480   21.6620 H   0  0  0  0  0  0  0  0  0  0  0  0
  -18.0300  -28.1040   22.9050 C   0  0  0  0  0  0  0  0  0  0  0  0
  -20.5940  -28.3680   23.1430 C   0  0  0  0  0  3  0  0  0  0  0  0
  -20.6850  -26.9330   22.5730 C   0  0  0  0  0  2  0  0  0  0  0  0
  -19.5770  -26.6140   21.5660 C   0  0  0  0  0  2  0  0  0  0  0  0
  -18.1990  -26.7580   22.2190 C   0  0  0  0  0  2  0  0  0  0  0  0
  -19.1530  -28.8670   23.3230 C   0  0  0  0  0  0  0  0  0  0  0  0
  -18.9380  -30.1230   23.9300 C   0  0  0  0  0  3  0  0  0  0  0  0
  -17.6340  -30.6180   24.1200 C   0  0  0  0  0  3  0  0  0  0  0  0
  -16.5260  -29.8540   23.7130 C   0  0  0  0  0  3  0  0  0  0  0  0
  -16.7250  -28.5990   23.1120 C   0  0  0  0  0  3  0  0  0  0  0  0
  -25.9100  -32.4810   23.7750 C   0  0  0  0  0  3  0  0  0  0  0  0
  -25.5650  -33.8790   24.1160 N   0  0  0  0  0  0  0  0  0  0  0  0
  -25.8860  -34.9580   23.3920 C   0  0  0  0  0  0  0  0  0  0  0  0
  -26.5550  -34.8840   22.3590 O   0  0  0  0  0  0  0  0  0  0  0  0
  -24.9630  -34.0060   24.9160 H   0  0  0  0  0  0  0  0  0  0  0  0
  -24.1370  -36.7510   23.1000 C   0  0  0  0  0  1  0  0  0  0  0  0
  -25.3920  -36.3360   23.8840 C   0  0  0  0  0  3  0  0  0  0  0  0
  -27.5270  -37.2420   24.7020 C   0  0  0  0  0  1  0  0  0  0  0  0
  -26.4110  -37.4050   23.7740 N   0  0  0  0  0  0  0  0  0  0  0  0
  -25.9940  -38.3170   23.9380 H   0  0  0  0  0  0  0  0  0  0  0  0
  -26.4070  -31.7320   25.0750 C   0  0  1  0  0  0  0  0  0  0  0  0
  -25.2940  -31.5040   26.1250 C   0  0  0  0  0  1  0  0  0  0  0  0
  -27.0060  -30.3500   24.7310 C   0  0  0  0  0  1  0  0  0  0  0  0
  -27.5440  -32.5410   25.7410 C   0  0  0  0  0  1  0  0  0  0  0  0
  -28.2600  -23.3270   20.4490 C   0  0  0  0  0 15  0  0  0  0  0  0
  -28.8130  -21.3740   19.8690 C   0  0  0  0  0 15  0  0  0  0  0  0
  -29.3900  -19.4240   20.4190 C   0  0  0  0  0  1  0  0  0  0  0  0
  -30.1320  -16.0760   20.0710 C   0  0  0  0  0  0  0  0  0  0  0  0
  -30.3210  -13.4470   19.2590 C   0  0  0  0  0  2  0  0  0  0  0  0
  -29.4440  -12.8330   18.1190 C   0  0  0  0  0  2  0  0  0  0  0  0
  -28.0700  -12.3920   18.6390 C   0  0  0  0  0  2  0  0  0  0  0  0
  -27.5180  -13.4260   19.6370 C   0  0  0  0  0  3  0  0  0  0  0  0
  -28.5530  -13.9140   20.6890 C   0  0  0  0  0  2  0  0  0  0  0  0
  -29.6300  -14.6560   19.9560 N   0  0  0  0  0  0  0  0  0  0  0  0
  -31.3780  -15.9210   20.0610 O   0  0  0  0  0  0  0  0  0  0  0  0
  -28.1020  -17.4350   19.3330 C   0  0  0  0  0  1  0  0  0  0  0  0
  -29.3880  -17.5580   20.0160 N   0  0  0  0  0  0  0  0  0  0  0  0
  -25.1830  -13.9270   20.4730 C   0  0  0  0  0  0  0  0  0  0  0  0
  -24.1320  -13.1430   20.8550 C   0  0  0  0  0  0  0  0  0  0  0  0
  -24.6060  -11.7950   20.8040 C   0  0  0  0  0  0  0  0  0  0  0  0
  -26.2260  -13.0640   20.2030 N   0  0  0  0  0  0  0  0  0  0  0  0
  -25.8940  -11.7710   20.4640 N   0  0  0  0  0  0  0  0  0  0  0  0
  -23.8800  -10.5310   21.0000 C   0  0  0  0  0  0  0  0  0  0  0  0
  -24.3230   -9.5560   21.9210 C   0  0  0  0  0  3  0  0  0  0  0  0
  -23.5910   -8.3620   22.1070 C   0  0  0  0  0  3  0  0  0  0  0  0
  -22.4020   -8.1360   21.3740 C   0  0  0  0  0  0  0  0  0  0  0  0
  -21.9770   -9.1010   20.4430 C   0  0  0  0  0  3  0  0  0  0  0  0
  -22.7110  -10.2850   20.2540 C   0  0  0  0  0  3  0  0  0  0  0  0
  -21.6420   -6.9940   21.4690 O   0  0  0  0  0  0  0  0  0  0  0  0
  -21.6130   -6.2440   22.6170 C   0  0  0  0  0  0  0  0  0  0  0  0
  -21.2160   -6.7910   23.8560 C   0  0  0  0  0  3  0  0  0  0  0  0
  -21.1320   -5.9670   24.9970 C   0  0  0  0  0  3  0  0  0  0  0  0
  -21.4380   -4.5960   24.8990 C   0  0  0  0  0  0  0  0  0  0  0  0
  -21.8300   -4.0480   23.6650 C   0  0  0  0  0  3  0  0  0  0  0  0
  -21.9140   -4.8690   22.5270 C   0  0  0  0  0  0  0  0  0  0  0  0
  -22.2710   -4.3300   21.3360 F   0  0  0  0  0  0  0  0  0  0  0  0
  -21.3530   -3.8020   25.9920 F   0  0  0  0  0  0  0  0  0  0  0  0
  -22.7400  -13.6190   21.1450 C   0  0  0  0  0  0  0  0  0  0  0  0
  -22.0220  -12.9210   22.0180 N   0  0  0  0  0  0  0  0  0  0  0  0
  -22.3000  -14.6470   20.6350 O   0  0  0  0  0  0  0  0  0  0  0  0
  -22.3880  -12.0890   22.4530 H   0  0  0  0  0  0  0  0  0  0  0  0
  -21.0890  -13.2290   22.2540 H   0  0  0  0  0  0  0  0  0  0  0  0
  -25.3360  -15.2990   20.2950 N   0  0  0  0  0  0  0  0  0  0  0  0
  -24.5650  -15.9500   20.3980 H   0  0  0  0  0  0  0  0  0  0  0  0
  -26.1710  -15.7290   19.9240 H   0  0  0  0  0  0  0  0  0  0  0  0
  1  3  1  0
  2 13  2  0
  3  8  1  0
  4 12  1  0
  4 14  1  0
  5 11  1  0
  5  7  1  0
  6 12  1  0
  7  6  1  0
  8  7  2  0
  9  3  2  0
 10  9  1  0
 10  5  2  0
 11  4  1  0
 12  2  1  0
 14 16  2  0
 15 14  1  0
 17 15  1  0
 18 27  2  0
 18 23  1  0
 19 15  1  0
 19 23  1  0
 20 19  1  0
 21 22  1  0
 21 20  1  0
 22 18  1  0
 23 24  2  0
 24 25  1  0
 26 25  2  0
 27 26  1  0
 28  2  1  0
 28 29  1  0
 28 38  1  0
 29 32  1  0
 30 34  1  0
 30 29  1  0
 31 30  2  0
 34 33  1  0
 36 34  1  0
 36 37  1  0
 36 35  1  0
 38 41  1  1
 38 39  1  0
 40 38  1  0
 46 51  1  0
 47 48  1  0
 47 46  1  0
 49 48  1  0
 49 58  1  0
 49 50  1  0
 51 45  1  0
 51 50  1  0
 52 45  2  0
 53 54  1  0
 54 45  1  0
 54 44  1  0
 55 56  2  0
 56 75  1  0
 57 56  1  0
 57 60  1  0
 58 59  1  0
 58 55  1  0
 59 57  2  0
 60 61  1  0
 61 62  2  0
 63 66  1  0
 63 62  1  0
 64 63  2  0
 65 64  1  0
 65 60  2  0
 66 67  1  0
 67 68  1  0
 68 69  2  0
 70 69  1  0
 70 74  1  0
 71 70  2  0
 72 67  2  0
 72 71  1  0
 73 72  1  0
 75 76  1  0
 76 79  1  0
 76 78  1  0
 77 75  2  0
 80 81  1  0
 80 55  1  0
 82 80  1  0
M  ISO  4   1 101  42 101  45 100  54 100
M  END
>  <TORSDO>  (49) 
F 18

>  <SCORE>  (49) 
-16.265

>  <name>  (49) 
49

>  <ligand_id>  (49) 
49

>  <original_smiles>  (49) 
[H]c1c([H])c([H])c2c(c1[H])C([H])([H])C([H])([H])C([H])([H])C2([H])N([H])C(=O)C1([H])N(C(=O)C([H])(N([H])C(=O)C([H])(N([H])C([H])([H])[H])C([H])([H])[H])C(C([H])([H])[H])(C([H])([H])[H])C([H])([H])[H])C([H])([H])c2c([H])c(OC([H])([H])C([H])([H])C([H])([H])N(C(=O)N3C([H])([H])C([H])([H])C([H])([H])C([H])(n4nc(-c5c([H])c([H])c(Oc6c([H])c([H])c(F)c([H])c6F)c([H])c5[H])c(C(=O)N([H])[H])c4N([H])[H])C3([H])[H])C([H])([H])[H])c([H])c([H])c2C1([H])[H]

>  <smiles>  (49) 
[H]c1c([H])c([H])c2c(c1[H])C([H])([H])C([H])([H])C([H])([H])C2([H])N([H])C(=O)C1([H])N(C(=O)C([H])(N([H])C(=O)C([H])(N([H])C([H])([H])[H])C([H])([H])[H])C(C([H])([H])[H])(C([H])([H])[H])C([H])([H])[H])C([H])([H])c2c([H])c(OC([H])([H])C([H])([H])C([H])([H])N(C(=O)N3C([H])([H])C([H])([H])C([H])([H])C([H])(n4nc(-c5c([H])c([H])c(Oc6c([H])c([H])c(F)c([H])c6F)c([H])c5[H])c(C(=O)N([H])[H])c4N([H])[H])C3([H])[H])C([H])([H])[H])c([H])c([H])c2C1([H])[H]

$$$$
50:0:0
     RDKit          3D

 89 97  0  0  1  0  0  0  0  0999 V2000
  -31.2210  -20.8950   20.4750 C   0  0  0  0  0  3  0  0  0  0  0  0
  -30.3390  -22.0290   20.3700 C   0  0  0  0  0  0  0  0  0  0  0  0
  -28.9360  -21.9300   20.1730 C   0  0  0  0  0  0  0  0  0  0  0  0
  -28.6610  -20.3100   20.1100 C   0  0  0  0  0  0  0  0  0  0  0  0
  -29.6050  -18.9720   20.2210 C   0  0  0  0  0  0  0  0  0  0  0  0
  -30.9080  -19.4960   20.4100 C   0  0  0  0  0  0  0  0  0  0  0  0
  -30.9540  -23.4130   20.4720 C   0  0  0  0  0  1  0  0  0  0  0  0
  -27.2020  -19.9630   19.9010 C   0  0  0  0  0  1  0  0  0  0  0  0
  -31.9370  -18.6280   20.5510 F   0  0  0  0  0  0  0  0  0  0  0  0
  -30.2690  -15.8210   20.1550 C   0  0  0  0  0  0  0  0  0  0  0  0
  -30.4270  -13.2440   19.3400 C   0  0  0  0  0  2  0  0  0  0  0  0
  -29.5540  -12.7640   18.1420 C   0  0  0  0  0  2  0  0  0  0  0  0
  -28.1450  -12.3680   18.6040 C   0  0  0  0  0  2  0  0  0  0  0  0
  -27.6080  -13.3720   19.6460 C   0  0  0  0  0  3  0  0  0  0  0  0
  -28.6280  -13.7520   20.7490 C   0  0  0  0  0  2  0  0  0  0  0  0
  -29.7690  -14.4290   20.0770 N   0  0  0  0  0  0  0  0  0  0  0  0
  -31.5060  -15.7320   20.0070 O   0  0  0  0  0  0  0  0  0  0  0  0
  -29.4870  -17.2090   20.1950 N   0  0  0  0  0  0  0  0  0  0  0  0
  -28.5100  -16.9560   20.2130 H   0  0  0  0  0  0  0  0  0  0  0  0
  -25.2370  -13.8590   20.4020 C   0  0  0  0  0  0  0  0  0  0  0  0
  -24.1920  -13.0620   20.7760 C   0  0  0  0  0  0  0  0  0  0  0  0
  -24.6910  -11.7230   20.7650 C   0  0  0  0  0  0  0  0  0  0  0  0
  -26.3000  -13.0080   20.1730 N   0  0  0  0  0  0  0  0  0  0  0  0
  -25.9870  -11.7150   20.4580 N   0  0  0  0  0  0  0  0  0  0  0  0
  -23.9870  -10.4480   20.9660 C   0  0  0  0  0  0  0  0  0  0  0  0
  -24.4160   -9.5090   21.9300 C   0  0  0  0  0  3  0  0  0  0  0  0
  -23.7060   -8.3040   22.1220 C   0  0  0  0  0  3  0  0  0  0  0  0
  -22.5510   -8.0300   21.3520 C   0  0  0  0  0  0  0  0  0  0  0  0
  -22.1400   -8.9590   20.3790 C   0  0  0  0  0  3  0  0  0  0  0  0
  -22.8520  -10.1550   20.1850 C   0  0  0  0  0  3  0  0  0  0  0  0
  -21.8130   -6.8750   21.4510 O   0  0  0  0  0  0  0  0  0  0  0  0
  -21.7390   -6.1660   22.6240 C   0  0  0  0  0  0  0  0  0  0  0  0
  -21.2570   -6.7470   23.8170 C   0  0  0  0  0  3  0  0  0  0  0  0
  -21.1330   -5.9640   24.9830 C   0  0  0  0  0  3  0  0  0  0  0  0
  -21.4810   -4.6010   24.9540 C   0  0  0  0  0  0  0  0  0  0  0  0
  -21.9570   -4.0180   23.7660 C   0  0  0  0  0  3  0  0  0  0  0  0
  -22.0820   -4.7990   22.6040 C   0  0  0  0  0  0  0  0  0  0  0  0
  -22.5200   -4.2280   21.4560 F   0  0  0  0  0  0  0  0  0  0  0  0
  -21.3550   -3.8460   26.0710 F   0  0  0  0  0  0  0  0  0  0  0  0
  -22.7840  -13.5150   21.0240 C   0  0  0  0  0  0  0  0  0  0  0  0
  -22.0660  -12.8270   21.9030 N   0  0  0  0  0  0  0  0  0  0  0  0
  -22.3300  -14.5180   20.4730 O   0  0  0  0  0  0  0  0  0  0  0  0
  -22.4470  -12.0170   22.3690 H   0  0  0  0  0  0  0  0  0  0  0  0
  -21.1210  -13.1140   22.1120 H   0  0  0  0  0  0  0  0  0  0  0  0
  -25.3670  -15.2300   20.2030 N   0  0  0  0  0  0  0  0  0  0  0  0
  -24.5790  -15.8630   20.2930 H   0  0  0  0  0  0  0  0  0  0  0  0
  -26.1940  -15.6780   19.8330 H   0  0  0  0  0  0  0  0  0  0  0  0
  -27.9690  -23.5850   20.0380 C   0  0  0  0  0  2  0  0  0  0  0  0
  -28.1830  -25.3780   20.1780 O   0  0  0  0  0  0  0  0  0  0  0  0
  -24.6890  -31.7880   23.1200 C   0  0  0  0  0  0  0  0  0  0  0  0
  -27.2270  -26.6410   20.1310 C   0  0  0  0  0  0  0  0  0  0  0  0
  -23.5130  -30.3970   21.4710 C   0  0  0  0  0  3  0  0  0  0  0  0
  -24.9700  -28.7370   20.0660 C   0  0  0  0  0  0  0  0  0  0  0  0
  -26.0980  -30.5120   21.3760 C   0  0  0  0  0  2  0  0  0  0  0  0
  -26.1640  -29.0730   20.7130 C   0  0  0  0  0  0  0  0  0  0  0  0
  -27.2730  -28.0560   20.7100 C   0  0  0  0  0  3  0  0  0  0  0  0
  -25.9970  -26.5430   19.4270 C   0  0  0  0  0  3  0  0  0  0  0  0
  -24.9310  -27.5000   19.3980 C   0  0  0  0  0  3  0  0  0  0  0  0
  -23.7670  -29.7000   20.1020 C   0  0  0  0  0  2  0  0  0  0  0  0
  -24.7920  -30.9340   22.0410 N   0  0  0  0  0  0  0  0  0  0  0  0
  -23.5900  -32.0900   23.6200 O   0  0  0  0  0  0  0  0  0  0  0  0
  -22.7820  -29.4230   22.4360 C   0  0  0  0  0  0  0  0  0  0  0  0
  -21.4460  -29.2950   22.3190 N   0  0  0  0  0  0  0  0  0  0  0  0
  -23.4310  -28.7820   23.2650 O   0  0  0  0  0  0  0  0  0  0  0  0
  -20.9710  -29.8630   21.6310 H   0  0  0  0  0  0  0  0  0  0  0  0
  -18.0400  -28.1450   22.8660 C   0  0  0  0  0  0  0  0  0  0  0  0
  -20.6100  -28.3600   23.0850 C   0  0  0  0  0  3  0  0  0  0  0  0
  -20.6710  -26.9370   22.4800 C   0  0  0  0  0  2  0  0  0  0  0  0
  -19.5450  -26.6600   21.4780 C   0  0  0  0  0  2  0  0  0  0  0  0
  -18.1790  -26.8130   22.1500 C   0  0  0  0  0  2  0  0  0  0  0  0
  -19.1800  -28.8800   23.2900 C   0  0  0  0  0  0  0  0  0  0  0  0
  -18.9910  -30.1250   23.9270 C   0  0  0  0  0  3  0  0  0  0  0  0
  -17.6970  -30.6380   24.1400 C   0  0  0  0  0  3  0  0  0  0  0  0
  -16.5730  -29.9020   23.7270 C   0  0  0  0  0  3  0  0  0  0  0  0
  -16.7450  -28.6570   23.0960 C   0  0  0  0  0  3  0  0  0  0  0  0
  -25.9440  -32.4410   23.7760 C   0  0  0  0  0  3  0  0  0  0  0  0
  -25.6100  -33.8350   24.1340 N   0  0  0  0  0  0  0  0  0  0  0  0
  -25.9170  -34.9160   23.4040 C   0  0  0  0  0  0  0  0  0  0  0  0
  -26.5650  -34.8460   22.3580 O   0  0  0  0  0  0  0  0  0  0  0  0
  -25.0280  -33.9600   24.9480 H   0  0  0  0  0  0  0  0  0  0  0  0
  -24.1510  -36.7010   23.1670 C   0  0  0  0  0  1  0  0  0  0  0  0
  -25.4320  -36.2930   23.9110 C   0  0  0  0  0  3  0  0  0  0  0  0
  -27.5860  -37.2030   24.6690 C   0  0  0  0  0  1  0  0  0  0  0  0
  -26.4430  -37.3640   23.7730 N   0  0  0  0  0  0  0  0  0  0  0  0
  -26.0300  -38.2750   23.9490 H   0  0  0  0  0  0  0  0  0  0  0  0
  -26.4390  -31.6670   25.0620 C   0  0  1  0  0  0  0  0  0  0  0  0
  -25.3300  -31.4290   26.1150 C   0  0  0  0  0  1  0  0  0  0  0  0
  -27.0290  -30.2890   24.6910 C   0  0  0  0  0  1  0  0  0  0  0  0
  -27.5800  -32.4610   25.7430 C   0  0  0  0  0  1  0  0  0  0  0  0
  2  7  1  0
  2  1  2  0
  3  2  1  0
  4  3  2  0
  4  5  1  0
  5  6  2  0
  6  1  1  0
  6  9  1  0
  8  4  1  0
 10 18  1  0
 11 16  1  0
 12 13  1  0
 12 11  1  0
 14 13  1  0
 14 23  1  0
 14 15  1  0
 16 10  1  0
 16 15  1  0
 17 10  2  0
 18 19  1  0
 18  5  1  0
 20 21  2  0
 21 40  1  0
 22 21  1  0
 22 25  1  0
 23 20  1  0
 23 24  1  0
 24 22  2  0
 25 26  1  0
 26 27  2  0
 28 31  1  0
 28 27  1  0
 29 28  2  0
 30 29  1  0
 30 25  2  0
 31 32  1  0
 32 33  1  0
 33 34  2  0
 35 34  1  0
 35 39  1  0
 36 35  2  0
 37 32  2  0
 37 36  1  0
 38 37  1  0
 40 41  1  0
 41 44  1  0
 41 43  1  0
 42 40  2  0
 45 46  1  0
 45 20  1  0
 47 45  1  0
 48  3  1  0
 48 49  1  0
 50 61  2  0
 51 49  1  0
 51 56  1  0
 52 60  1  0
 52 62  1  0
 53 59  1  0
 53 55  1  0
 54 60  1  0
 55 54  1  0
 56 55  2  0
 57 51  2  0
 58 57  1  0
 58 53  2  0
 59 52  1  0
 60 50  1  0
 62 64  2  0
 63 62  1  0
 65 63  1  0
 66 75  2  0
 66 71  1  0
 67 63  1  0
 67 71  1  0
 68 67  1  0
 69 70  1  0
 69 68  1  0
 70 66  1  0
 71 72  2  0
 72 73  1  0
 74 73  2  0
 75 74  1  0
 76 50  1  0
 76 77  1  0
 76 86  1  0
 77 80  1  0
 78 82  1  0
 78 77  1  0
 79 78  2  0
 82 81  1  0
 84 82  1  0
 84 85  1  0
 84 83  1  0
 86 89  1  1
 86 87  1  0
 88 86  1  0
M  ISO  4  10 100  18 100  48 101  49 101
M  END
>  <TORSDO>  (50) 
F 17

>  <SCORE>  (50) 
-16.202

>  <name>  (50) 
50

>  <ligand_id>  (50) 
50

>  <original_smiles>  (50) 
[H]c1c([H])c([H])c2c(c1[H])C([H])([H])C([H])([H])C([H])([H])C2([H])N([H])C(=O)C1([H])N(C(=O)C([H])(N([H])C(=O)C([H])(N([H])C([H])([H])[H])C([H])([H])[H])C(C([H])([H])[H])(C([H])([H])[H])C([H])([H])[H])C([H])([H])c2c([H])c(OC([H])([H])c3c(C([H])([H])[H])c([H])c(F)c(N([H])C(=O)N4C([H])([H])C([H])([H])C([H])([H])C([H])(n5nc(-c6c([H])c([H])c(Oc7c([H])c([H])c(F)c([H])c7F)c([H])c6[H])c(C(=O)N([H])[H])c5N([H])[H])C4([H])[H])c3C([H])([H])[H])c([H])c([H])c2C1([H])[H]

>  <smiles>  (50) 
[H]c1c([H])c([H])c2c(c1[H])C([H])([H])C([H])([H])C([H])([H])C2([H])N([H])C(=O)C1([H])N(C(=O)C([H])(N([H])C(=O)C([H])(N([H])C([H])([H])[H])C([H])([H])[H])C(C([H])([H])[H])(C([H])([H])[H])C([H])([H])[H])C([H])([H])c2c([H])c(OC([H])([H])c3c(C([H])([H])[H])c([H])c(F)c(N([H])C(=O)N4C([H])([H])C([H])([H])C([H])([H])C([H])(n5nc(-c6c([H])c([H])c(Oc7c([H])c([H])c(F)c([H])c7F)c([H])c6[H])c(C(=O)N([H])[H])c5N([H])[H])C4([H])[H])c3C([H])([H])[H])c([H])c([H])c2C1([H])[H]

$$$$
51:0:0
     RDKit          3D

 93101  0  0  1  0  0  0  0  0999 V2000
  -29.7300  -21.7660   21.1490 C   0  0  0  0  0  3  0  0  0  0  0  0
  -28.6960  -21.7610   20.1930 C   0  0  0  0  0  0  0  0  0  0  0  0
  -30.4740  -20.6310   21.6590 C   0  0  0  0  0  0  0  0  0  0  0  0
  -29.3170  -18.8110   20.2330 C   0  0  0  0  0  0  0  0  0  0  0  0
  -28.5500  -20.1850   19.7940 C   0  0  0  0  0  0  0  0  0  0  0  0
  -30.2780  -19.2490   21.2030 C   0  0  0  0  0  0  0  0  0  0  0  0
  -27.2910  -19.9000   18.6490 Cl  0  0  0  0  0  0  0  0  0  0  0  0
  -31.2250  -17.9760   21.8950 Cl  0  0  0  0  0  0  0  0  0  0  0  0
  -29.9750  -15.6630   19.8340 C   0  0  0  0  0  0  0  0  0  0  0  0
  -30.0470  -13.1210   18.9010 C   0  0  0  0  0  2  0  0  0  0  0  0
  -29.0590  -12.6620   17.7860 C   0  0  0  0  0  2  0  0  0  0  0  0
  -27.7080  -12.2410   18.3800 C   0  0  0  0  0  2  0  0  0  0  0  0
  -27.2710  -13.2140   19.4940 C   0  0  0  0  0  3  0  0  0  0  0  0
  -28.3960  -13.5700   20.4980 C   0  0  0  0  0  2  0  0  0  0  0  0
  -29.4570  -14.2780   19.7330 N   0  0  0  0  0  0  0  0  0  0  0  0
  -31.1960  -15.5700   19.5850 O   0  0  0  0  0  0  0  0  0  0  0  0
  -29.2100  -17.0600   19.9410 N   0  0  0  0  0  0  0  0  0  0  0  0
  -28.2350  -16.8290   19.8320 H   0  0  0  0  0  0  0  0  0  0  0  0
  -24.9920  -13.6680   20.5090 C   0  0  0  0  0  0  0  0  0  0  0  0
  -23.9870  -12.8560   20.9510 C   0  0  0  0  0  0  0  0  0  0  0  0
  -24.4770  -11.5190   20.8330 C   0  0  0  0  0  0  0  0  0  0  0  0
  -26.0230  -12.8280   20.1370 N   0  0  0  0  0  0  0  0  0  0  0  0
  -25.7350  -11.5250   20.3980 N   0  0  0  0  0  0  0  0  0  0  0  0
  -23.7910  -10.2370   21.0500 C   0  0  0  0  0  0  0  0  0  0  0  0
  -24.2580   -9.2980   21.9980 C   0  0  0  0  0  3  0  0  0  0  0  0
  -23.5640   -8.0860   22.2060 C   0  0  0  0  0  3  0  0  0  0  0  0
  -22.3900   -7.8030   21.4690 C   0  0  0  0  0  0  0  0  0  0  0  0
  -21.9430   -8.7310   20.5120 C   0  0  0  0  0  3  0  0  0  0  0  0
  -22.6370   -9.9330   20.3010 C   0  0  0  0  0  3  0  0  0  0  0  0
  -21.6670   -6.6400   21.5860 O   0  0  0  0  0  0  0  0  0  0  0  0
  -21.5890   -5.9570   22.7740 C   0  0  0  0  0  0  0  0  0  0  0  0
  -21.0540   -6.5480   23.9390 C   0  0  0  0  0  3  0  0  0  0  0  0
  -20.9270   -5.7890   25.1190 C   0  0  0  0  0  3  0  0  0  0  0  0
  -21.3260   -4.4390   25.1340 C   0  0  0  0  0  0  0  0  0  0  0  0
  -21.8550   -3.8470   23.9740 C   0  0  0  0  0  3  0  0  0  0  0  0
  -21.9820   -4.6040   22.7960 C   0  0  0  0  0  0  0  0  0  0  0  0
  -22.4720   -4.0220   21.6750 F   0  0  0  0  0  0  0  0  0  0  0  0
  -21.1980   -3.7070   26.2660 F   0  0  0  0  0  0  0  0  0  0  0  0
  -22.6130  -13.2970   21.3580 C   0  0  0  0  0  0  0  0  0  0  0  0
  -21.9740  -12.5590   22.2590 N   0  0  0  0  0  0  0  0  0  0  0  0
  -22.1180  -14.3330   20.9140 O   0  0  0  0  0  0  0  0  0  0  0  0
  -22.3910  -11.7220   22.6370 H   0  0  0  0  0  0  0  0  0  0  0  0
  -21.0560  -12.8360   22.5750 H   0  0  0  0  0  0  0  0  0  0  0  0
  -25.1070  -15.0480   20.3560 N   0  0  0  0  0  0  0  0  0  0  0  0
  -24.3360  -15.6760   20.5560 H   0  0  0  0  0  0  0  0  0  0  0  0
  -25.9000  -15.5140   19.9390 H   0  0  0  0  0  0  0  0  0  0  0  0
  -31.1250  -20.2830   24.1260 C   0  0  0  0  0  1  0  0  0  0  0  0
  -31.5970  -22.4660   23.1690 C   0  0  0  0  0  1  0  0  0  0  0  0
  -31.5220  -20.9580   22.7870 C   0  0  2  0  0  0  0  0  0  0  0  0
  -33.3950  -20.9790   20.9670 C   0  0  0  0  0  1  0  0  0  0  0  0
  -32.9820  -20.5800   22.3940 C   0  0  0  0  0  2  0  0  0  0  0  0
  -27.8900  -23.4640   19.8310 C   0  0  0  0  0  2  0  0  0  0  0  0
  -28.0720  -25.2330   20.1800 O   0  0  0  0  0  0  0  0  0  0  0  0
  -24.6650  -31.6570   23.1600 C   0  0  0  0  0  0  0  0  0  0  0  0
  -27.1450  -26.5160   20.1130 C   0  0  0  0  0  0  0  0  0  0  0  0
  -23.4800  -30.3080   21.4820 C   0  0  0  0  0  3  0  0  0  0  0  0
  -24.9210  -28.6490   20.0600 C   0  0  0  0  0  0  0  0  0  0  0  0
  -26.0650  -30.3860   21.4070 C   0  0  0  0  0  2  0  0  0  0  0  0
  -26.1140  -28.9550   20.7240 C   0  0  0  0  0  0  0  0  0  0  0  0
  -27.2050  -27.9200   20.7180 C   0  0  0  0  0  3  0  0  0  0  0  0
  -25.9220  -26.4500   19.3910 C   0  0  0  0  0  3  0  0  0  0  0  0
  -24.8700  -27.4240   19.3700 C   0  0  0  0  0  3  0  0  0  0  0  0
  -23.7330  -29.6300   20.1040 C   0  0  0  0  0  2  0  0  0  0  0  0
  -24.7620  -30.8180   22.0700 N   0  0  0  0  0  0  0  0  0  0  0  0
  -23.5680  -31.9670   23.6590 O   0  0  0  0  0  0  0  0  0  0  0  0
  -22.7270  -29.3320   22.4280 C   0  0  0  0  0  0  0  0  0  0  0  0
  -21.3950  -29.2010   22.2790 N   0  0  0  0  0  0  0  0  0  0  0  0
  -23.3580  -28.6870   23.2690 O   0  0  0  0  0  0  0  0  0  0  0  0
  -20.9340  -29.7700   21.5820 H   0  0  0  0  0  0  0  0  0  0  0  0
  -17.9790  -28.0360   22.7320 C   0  0  0  0  0  0  0  0  0  0  0  0
  -20.5420  -28.2650   23.0240 C   0  0  0  0  0  3  0  0  0  0  0  0
  -20.6280  -26.8410   22.4250 C   0  0  0  0  0  2  0  0  0  0  0  0
  -19.5340  -26.5550   21.3920 C   0  0  0  0  0  2  0  0  0  0  0  0
  -18.1470  -26.7030   22.0230 C   0  0  0  0  0  2  0  0  0  0  0  0
  -19.1040  -28.7770   23.1880 C   0  0  0  0  0  0  0  0  0  0  0  0
  -18.8900  -30.0230   23.8160 C   0  0  0  0  0  3  0  0  0  0  0  0
  -17.5880  -30.5300   23.9870 C   0  0  0  0  0  3  0  0  0  0  0  0
  -16.4800  -29.7870   23.5450 C   0  0  0  0  0  3  0  0  0  0  0  0
  -16.6760  -28.5410   22.9240 C   0  0  0  0  0  3  0  0  0  0  0  0
  -25.9250  -32.2790   23.8340 C   0  0  0  0  0  3  0  0  0  0  0  0
  -26.3720  -31.5090   25.1390 C   0  0  1  0  0  0  0  0  0  0  0  0
  -25.2320  -31.3070   26.1660 C   0  0  0  0  0  1  0  0  0  0  0  0
  -26.9370  -30.1130   24.7920 C   0  0  0  0  0  1  0  0  0  0  0  0
  -27.5160  -32.2800   25.8380 C   0  0  0  0  0  1  0  0  0  0  0  0
  -25.6270  -33.6860   24.1700 N   0  0  0  0  0  0  0  0  0  0  0  0
  -25.9700  -34.7500   23.4290 C   0  0  0  0  0  0  0  0  0  0  0  0
  -26.6280  -34.6480   22.3910 O   0  0  0  0  0  0  0  0  0  0  0  0
  -25.0410  -33.8390   24.9790 H   0  0  0  0  0  0  0  0  0  0  0  0
  -24.2520  -36.5740   23.1520 C   0  0  0  0  0  1  0  0  0  0  0  0
  -25.5180  -36.1450   23.9130 C   0  0  0  0  0  3  0  0  0  0  0  0
  -27.6830  -37.0180   24.6800 C   0  0  0  0  0  1  0  0  0  0  0  0
  -26.5570  -37.1890   23.7660 N   0  0  0  0  0  0  0  0  0  0  0  0
  -26.1620  -38.1130   23.9200 H   0  0  0  0  0  0  0  0  0  0  0  0
  1  3  1  0
  2  1  2  0
  3 49  1  0
  4  6  1  0
  5  2  1  0
  5  4  2  0
  6  3  2  0
  6  8  1  0
  7  5  1  0
  9 17  1  0
 10 15  1  0
 11 12  1  0
 11 10  1  0
 13 12  1  0
 13 22  1  0
 13 14  1  0
 15  9  1  0
 15 14  1  0
 16  9  2  0
 17  4  1  0
 18 17  1  0
 19 20  2  0
 20 39  1  0
 21 20  1  0
 21 24  1  0
 22 23  1  0
 22 19  1  0
 23 21  2  0
 24 25  1  0
 25 26  2  0
 27 30  1  0
 27 26  1  0
 28 27  2  0
 29 28  1  0
 29 24  2  0
 30 31  1  0
 31 36  2  0
 31 32  1  0
 32 33  2  0
 33 34  1  0
 34 38  1  0
 35 34  2  0
 36 35  1  0
 37 36  1  0
 39 40  1  0
 40 43  1  0
 40 42  1  0
 41 39  2  0
 44 19  1  0
 44 45  1  0
 46 44  1  0
 49 48  1  1
 49 47  1  0
 50 51  1  0
 51 49  1  0
 52 53  1  0
 52  2  1  0
 54 65  2  0
 55 53  1  0
 55 60  1  0
 56 64  1  0
 56 66  1  0
 57 63  1  0
 57 59  1  0
 58 64  1  0
 59 58  1  0
 60 59  2  0
 61 55  2  0
 62 61  1  0
 62 57  2  0
 63 56  1  0
 64 54  1  0
 66 68  2  0
 67 66  1  0
 69 67  1  0
 70 79  2  0
 70 75  1  0
 71 67  1  0
 71 75  1  0
 72 71  1  0
 73 74  1  0
 73 72  1  0
 74 70  1  0
 75 76  2  0
 76 77  1  0
 78 77  2  0
 79 78  1  0
 80 54  1  0
 80 85  1  0
 80 81  1  0
 81 84  1  1
 81 82  1  0
 83 81  1  0
 85 88  1  0
 86 90  1  0
 86 85  1  0
 87 86  2  0
 90 89  1  0
 92 90  1  0
 92 93  1  0
 92 91  1  0
M  ISO  4   9 100  17 100  52 101  53 101
M  END
>  <TORSDO>  (51) 
F 19

>  <SCORE>  (51) 
-14.689

>  <name>  (51) 
51

>  <ligand_id>  (51) 
51

>  <original_smiles>  (51) 
[H]c1c([H])c([H])c2c(c1[H])C([H])([H])C([H])([H])C([H])([H])C2([H])N([H])C(=O)C1([H])N(C(=O)C([H])(N([H])C(=O)C([H])(N([H])C([H])([H])[H])C([H])([H])[H])C(C([H])([H])[H])(C([H])([H])[H])C([H])([H])[H])C([H])([H])c2c([H])c(OC([H])([H])c3c([H])c(C(C([H])([H])[H])(C([H])([H])[H])C([H])([H])C([H])([H])[H])c(Cl)c(N([H])C(=O)N4C([H])([H])C([H])([H])C([H])([H])C([H])(n5nc(-c6c([H])c([H])c(Oc7c([H])c([H])c(F)c([H])c7F)c([H])c6[H])c(C(=O)N([H])[H])c5N([H])[H])C4([H])[H])c3Cl)c([H])c([H])c2C1([H])[H]

>  <smiles>  (51) 
[H]c1c([H])c([H])c2c(c1[H])C([H])([H])C([H])([H])C([H])([H])C2([H])N([H])C(=O)C1([H])N(C(=O)C([H])(N([H])C(=O)C([H])(N([H])C([H])([H])[H])C([H])([H])[H])C(C([H])([H])[H])(C([H])([H])[H])C([H])([H])[H])C([H])([H])c2c([H])c(OC([H])([H])c3c([H])c(C(C([H])([H])[H])(C([H])([H])[H])C([H])([H])C([H])([H])[H])c(Cl)c(N([H])C(=O)N4C([H])([H])C([H])([H])C([H])([H])C([H])(n5nc(-c6c([H])c([H])c(Oc7c([H])c([H])c(F)c([H])c7F)c([H])c6[H])c(C(=O)N([H])[H])c5N([H])[H])C4([H])[H])c3Cl)c([H])c([H])c2C1([H])[H]

$$$$
52:0:0
     RDKit          3D

 96104  0  0  1  0  0  0  0  0999 V2000
  -28.6590  -18.8300   20.7830 C   0  0  0  0  0  3  0  0  0  0  0  0
  -29.4350  -17.9180   20.0420 C   0  0  0  0  0  0  0  0  0  0  0  0
  -30.4200  -19.8040   18.8020 C   0  0  0  0  0  0  0  0  0  0  0  0
  -29.5660  -20.7080   19.4970 C   0  0  0  0  0  0  0  0  0  0  0  0
  -28.7080  -20.2080   20.5050 C   0  0  0  0  0  0  0  0  0  0  0  0
  -30.3200  -18.4100   19.0510 C   0  0  0  0  0  0  0  0  0  0  0  0
  -31.4090  -20.3080   17.7510 C   0  0  0  0  0  1  0  0  0  0  0  0
  -27.6790  -21.2680   21.4040 Cl  0  0  0  0  0  0  0  0  0  0  0  0
  -31.2230  -17.2940   18.0820 Cl  0  0  0  0  0  0  0  0  0  0  0  0
  -29.2130  -16.4190   20.2590 C   0  0  0  0  0  2  0  0  0  0  0  0
  -30.8630  -14.6190   20.2060 C   0  0  0  0  0  0  0  0  0  0  0  0
  -30.4570  -12.5070   19.0000 C   0  0  0  0  0  2  0  0  0  0  0  0
  -29.4830  -12.7370   17.8290 C   0  0  0  0  0  2  0  0  0  0  0  0
  -28.0260  -12.5750   18.3030 C   0  0  0  0  0  2  0  0  0  0  0  0
  -27.7220  -13.4000   19.5790 C   0  0  0  0  0  3  0  0  0  0  0  0
  -28.8140  -13.1940   20.6560 C   0  0  0  0  0  2  0  0  0  0  0  0
  -30.1250  -13.4850   20.0470 N   0  0  0  0  0  0  0  0  0  0  0  0
  -31.9990  -14.7400   19.7400 O   0  0  0  0  0  0  0  0  0  0  0  0
  -31.0830  -16.3560   21.8950 C   0  0  0  0  0  1  0  0  0  0  0  0
  -30.2920  -15.6380   20.8930 N   0  0  0  0  0  0  0  0  0  0  0  0
  -25.3510  -14.0260   20.3560 C   0  0  0  0  0  0  0  0  0  0  0  0
  -24.2930  -13.2580   20.7560 C   0  0  0  0  0  0  0  0  0  0  0  0
  -24.7510  -11.9050   20.7150 C   0  0  0  0  0  0  0  0  0  0  0  0
  -26.3860  -13.1370   20.1000 N   0  0  0  0  0  0  0  0  0  0  0  0
  -26.0310  -11.8590   20.3760 N   0  0  0  0  0  0  0  0  0  0  0  0
  -24.0280  -10.6460   20.9230 C   0  0  0  0  0  0  0  0  0  0  0  0
  -24.4650   -9.6960   21.8720 C   0  0  0  0  0  3  0  0  0  0  0  0
  -23.7450   -8.4970   22.0660 C   0  0  0  0  0  3  0  0  0  0  0  0
  -22.5750   -8.2420   21.3120 C   0  0  0  0  0  0  0  0  0  0  0  0
  -22.1590   -9.1810   20.3520 C   0  0  0  0  0  3  0  0  0  0  0  0
  -22.8790  -10.3710   20.1550 C   0  0  0  0  0  3  0  0  0  0  0  0
  -21.8260   -7.0960   21.4160 O   0  0  0  0  0  0  0  0  0  0  0  0
  -21.7610   -6.3830   22.5860 C   0  0  0  0  0  0  0  0  0  0  0  0
  -21.2900   -6.9590   23.7850 C   0  0  0  0  0  3  0  0  0  0  0  0
  -21.1740   -6.1700   24.9470 C   0  0  0  0  0  3  0  0  0  0  0  0
  -21.5200   -4.8060   24.9110 C   0  0  0  0  0  0  0  0  0  0  0  0
  -21.9860   -4.2300   23.7160 C   0  0  0  0  0  3  0  0  0  0  0  0
  -22.1040   -5.0160   22.5560 C   0  0  0  0  0  0  0  0  0  0  0  0
  -22.5330   -4.4500   21.4020 F   0  0  0  0  0  0  0  0  0  0  0  0
  -21.4020   -4.0470   26.0240 F   0  0  0  0  0  0  0  0  0  0  0  0
  -22.9030  -13.7390   21.0590 C   0  0  0  0  0  0  0  0  0  0  0  0
  -22.1970  -13.0500   21.9490 N   0  0  0  0  0  0  0  0  0  0  0  0
  -22.4530  -14.7610   20.5430 O   0  0  0  0  0  0  0  0  0  0  0  0
  -22.5740  -12.2230   22.3880 H   0  0  0  0  0  0  0  0  0  0  0  0
  -21.2660  -13.3540   22.1950 H   0  0  0  0  0  0  0  0  0  0  0  0
  -25.5100  -15.3960   20.1660 N   0  0  0  0  0  0  0  0  0  0  0  0
  -24.7330  -16.0380   20.2790 H   0  0  0  0  0  0  0  0  0  0  0  0
  -26.3230  -15.8300   19.7510 H   0  0  0  0  0  0  0  0  0  0  0  0
  -29.4860  -22.1900   19.1160 C   0  0  0  0  0  2  0  0  0  0  0  0
  -30.0710  -23.0940   20.1290 N   0  0  0  0  0  4  0  0  0  0  0  0
  -30.9610  -22.7250   20.4260 H   0  0  0  0  0  0  0  0  0  0  0  0
  -29.4520  -23.0930   20.9250 H   0  0  0  0  0  0  0  0  0  0  0  0
  -30.2740  -24.4760   19.6330 C   0  0  0  0  0  2  0  0  0  0  0  0
  -30.2890  -25.5490   20.7450 C   0  0  0  0  0  2  0  0  0  0  0  0
  -28.9230  -26.2200   20.9880 C   0  0  0  0  0  2  0  0  0  0  0  0
  -28.5220  -26.8870   19.7970 O   0  0  0  0  0  0  0  0  0  0  0  0
  -24.6140  -31.8410   23.1120 C   0  0  0  0  0  0  0  0  0  0  0  0
  -27.3410  -27.5730   19.8940 C   0  0  0  0  0  0  0  0  0  0  0  0
  -23.4260  -30.4580   21.4380 C   0  0  0  0  0  3  0  0  0  0  0  0
  -24.9050  -28.9910   19.9660 C   0  0  0  0  0  0  0  0  0  0  0  0
  -25.9370  -30.8870   21.2320 C   0  0  0  0  0  2  0  0  0  0  0  0
  -26.0510  -29.5330   20.5650 C   0  0  0  0  0  0  0  0  0  0  0  0
  -27.2710  -28.8280   20.5340 C   0  0  0  0  0  3  0  0  0  0  0  0
  -26.1860  -27.0360   19.2910 C   0  0  0  0  0  3  0  0  0  0  0  0
  -24.9650  -27.7360   19.3330 C   0  0  0  0  0  3  0  0  0  0  0  0
  -23.6410  -29.8170   20.0400 C   0  0  0  0  0  2  0  0  0  0  0  0
  -24.6770  -31.0750   21.9860 N   0  0  0  0  0  0  0  0  0  0  0  0
  -23.5320  -32.0740   23.6680 O   0  0  0  0  0  0  0  0  0  0  0  0
  -22.8060  -29.3980   22.3740 C   0  0  0  0  0  0  0  0  0  0  0  0
  -21.4800  -29.2120   22.2710 N   0  0  0  0  0  0  0  0  0  0  0  0
  -23.5140  -28.7460   23.1470 O   0  0  0  0  0  0  0  0  0  0  0  0
  -20.9700  -29.7910   21.6180 H   0  0  0  0  0  0  0  0  0  0  0  0
  -18.1210  -28.0090   22.8270 C   0  0  0  0  0  0  0  0  0  0  0  0
  -20.6870  -28.2410   23.0240 C   0  0  0  0  0  3  0  0  0  0  0  0
  -20.7620  -26.8400   22.3740 C   0  0  0  0  0  2  0  0  0  0  0  0
  -19.6240  -26.5720   21.3840 C   0  0  0  0  0  2  0  0  0  0  0  0
  -18.2670  -26.6930   22.0820 C   0  0  0  0  0  2  0  0  0  0  0  0
  -19.2580  -28.7430   23.2560 C   0  0  0  0  0  0  0  0  0  0  0  0
  -19.0680  -29.9790   23.9130 C   0  0  0  0  0  3  0  0  0  0  0  0
  -17.7740  -30.4780   24.1470 C   0  0  0  0  0  3  0  0  0  0  0  0
  -16.6510  -29.7390   23.7360 C   0  0  0  0  0  3  0  0  0  0  0  0
  -16.8260  -28.5070   23.0810 C   0  0  0  0  0  3  0  0  0  0  0  0
  -25.8930  -32.4800   23.7390 C   0  0  0  0  0  3  0  0  0  0  0  0
  -25.5610  -33.8620   24.1070 N   0  0  0  0  0  0  0  0  0  0  0  0
  -25.8670  -34.9380   23.3690 C   0  0  0  0  0  0  0  0  0  0  0  0
  -26.5300  -34.8720   22.3300 O   0  0  0  0  0  0  0  0  0  0  0  0
  -24.9740  -33.9880   24.9180 H   0  0  0  0  0  0  0  0  0  0  0  0
  -24.1030  -36.7030   23.0670 C   0  0  0  0  0  1  0  0  0  0  0  0
  -25.3550  -36.3050   23.8630 C   0  0  0  0  0  3  0  0  0  0  0  0
  -27.4740  -37.2140   24.7090 C   0  0  0  0  0  1  0  0  0  0  0  0
  -26.3670  -37.3800   23.7710 N   0  0  0  0  0  0  0  0  0  0  0  0
  -25.9430  -38.2880   23.9400 H   0  0  0  0  0  0  0  0  0  0  0  0
  -26.4370  -31.6850   24.9890 C   0  0  1  0  0  0  0  0  0  0  0  0
  -25.3590  -31.3970   26.0590 C   0  0  0  0  0  1  0  0  0  0  0  0
  -27.0430  -30.3310   24.5510 C   0  0  0  0  0  1  0  0  0  0  0  0
  -27.5790  -32.4830   25.6630 C   0  0  0  0  0  1  0  0  0  0  0  0
  2 10  1  0
  2  1  2  0
  3  6  2  0
  3  4  1  0
  4  5  2  0
  5  1  1  0
  5  8  1  0
  6  2  1  0
  7  3  1  0
  9  6  1  0
 10 20  1  0
 11 20  1  0
 12 17  1  0
 13 14  1  0
 13 12  1  0
 15 14  1  0
 15 24  1  0
 15 16  1  0
 17 11  1  0
 17 16  1  0
 18 11  2  0
 20 19  1  0
 21 22  2  0
 22 41  1  0
 23 22  1  0
 23 26  1  0
 24 21  1  0
 24 25  1  0
 25 23  2  0
 26 27  1  0
 27 28  2  0
 29 32  1  0
 29 28  1  0
 30 29  2  0
 31 30  1  0
 31 26  2  0
 32 33  1  0
 33 34  1  0
 34 35  2  0
 36 35  1  0
 36 40  1  0
 37 36  2  0
 38 33  2  0
 38 37  1  0
 39 38  1  0
 41 42  1  0
 42 45  1  0
 42 44  1  0
 43 41  2  0
 46 47  1  0
 46 21  1  0
 48 46  1  0
 49  4  1  0
 49 50  1  0
 50 51  1  0
 50 52  1  0
 53 50  1  0
 53 54  1  0
 54 55  1  0
 56 58  1  0
 56 55  1  0
 57 68  2  0
 58 63  1  0
 59 67  1  0
 59 69  1  0
 60 66  1  0
 60 62  1  0
 61 67  1  0
 62 61  1  0
 63 62  2  0
 64 65  1  0
 64 58  2  0
 65 60  2  0
 66 59  1  0
 67 57  1  0
 69 71  2  0
 70 69  1  0
 72 70  1  0
 73 82  2  0
 73 78  1  0
 74 70  1  0
 74 78  1  0
 75 74  1  0
 76 77  1  0
 76 75  1  0
 77 73  1  0
 78 79  2  0
 79 80  1  0
 81 80  2  0
 82 81  1  0
 83 57  1  0
 83 84  1  0
 83 93  1  0
 84 87  1  0
 85 89  1  0
 85 84  1  0
 86 85  2  0
 89 88  1  0
 91 89  1  0
 91 92  1  0
 91 90  1  0
 93 96  1  1
 93 94  1  0
 95 93  1  0
M  ISO  4  11 100  20 100  55 101  56 101
M  END
>  <TORSDO>  (52) 
F 22

>  <SCORE>  (52) 
-12.812

>  <name>  (52) 
52

>  <ligand_id>  (52) 
52

>  <original_smiles>  (52) 
[H]c1c([H])c([H])c2c(c1[H])C([H])([H])C([H])([H])C([H])([H])C2([H])N([H])C(=O)C1([H])N(C(=O)C([H])(N([H])C(=O)C([H])(N([H])C([H])([H])[H])C([H])([H])[H])C(C([H])([H])[H])(C([H])([H])[H])C([H])([H])[H])C([H])([H])c2c([H])c(OC([H])([H])C([H])([H])C([H])([H])[N+]([H])([H])C([H])([H])c3c(Cl)c([H])c(C([H])([H])N(C(=O)N4C([H])([H])C([H])([H])C([H])([H])C([H])(n5nc(-c6c([H])c([H])c(Oc7c([H])c([H])c(F)c([H])c7F)c([H])c6[H])c(C(=O)N([H])[H])c5N([H])[H])C4([H])[H])C([H])([H])[H])c(Cl)c3C([H])([H])[H])c([H])c([H])c2C1([H])[H]

>  <smiles>  (52) 
[H]c1c([H])c([H])c2c(c1[H])C([H])([H])C([H])([H])C([H])([H])C2([H])N([H])C(=O)C1([H])N(C(=O)C([H])(N([H])C(=O)C([H])(N([H])C([H])([H])[H])C([H])([H])[H])C(C([H])([H])[H])(C([H])([H])[H])C([H])([H])[H])C([H])([H])c2c([H])c(OC([H])([H])C([H])([H])C([H])([H])[N+]([H])([H])C([H])([H])c3c(Cl)c([H])c(C([H])([H])N(C(=O)N4C([H])([H])C([H])([H])C([H])([H])C([H])(n5nc(-c6c([H])c([H])c(Oc7c([H])c([H])c(F)c([H])c7F)c([H])c6[H])c(C(=O)N([H])[H])c5N([H])[H])C4([H])[H])C([H])([H])[H])c(Cl)c3C([H])([H])[H])c([H])c([H])c2C1([H])[H]

$$$$
53:0:0
     RDKit          3D

101104  0  0  1  0  0  0  0  0999 V2000
  -28.8680  -19.6010   20.3850 C   0  0  0  0  0  1  0  0  0  0  0  0
  -26.4260  -18.9820   20.4160 C   0  0  0  0  0  0  0  0  0  0  0  0
  -27.5200  -19.4780   19.8380 N   0  0  0  0  0  0  0  0  0  0  0  0
  -26.4530  -18.3190   21.4520 O   0  0  0  0  0  0  0  0  0  0  0  0
  -27.3730  -19.9910   18.9800 H   0  0  0  0  0  0  0  0  0  0  0  0
  -25.0940  -19.3040   19.7220 C   0  0  0  0  0  2  0  0  0  0  0  0
  -24.2610  -18.0380   19.4640 C   0  0  0  0  0  2  0  0  0  0  0  0
  -23.1030  -18.1940   18.4640 C   0  0  0  0  0  2  0  0  0  0  0  0
  -22.2640  -16.9530   18.3980 N   0  0  1  0  0  4  0  0  0  0  0  0
  -22.5590  -16.4080   19.1980 H   0  0  0  0  0  0  0  0  0  0  0  0
  -20.5780  -17.7110   20.1100 C   0  0  0  0  0  1  0  0  0  0  0  0
  -20.1900  -18.2320   17.6650 C   0  0  0  0  0  1  0  0  0  0  0  0
  -19.9530  -15.9040   18.5380 C   0  0  0  0  0  1  0  0  0  0  0  0
  -20.7900  -17.2020   18.6610 C   0  0  1  0  0  0  0  0  0  0  0  0
  -22.5280  -16.0270   17.2380 C   0  0  0  0  0  2  0  0  0  0  0  0
  -25.0250  -15.1090   17.1880 C   0  0  0  0  0  1  0  0  0  0  0  0
  -23.9280  -15.9830   16.5570 C   0  0  0  0  0  2  0  0  0  0  0  0
  -29.0180  -21.6270   20.1550 C   0  0  0  0  0  2  0  0  0  0  0  0
  -29.3480  -21.6710   18.8640 F   0  0  0  0  0  0  0  0  0  0  0  0
  -30.1260  -21.8730   20.8510 F   0  0  0  0  0  0  0  0  0  0  0  0
  -28.0570  -23.4270   20.3010 C   0  0  0  0  0  1  0  0  0  0  0  0
  -28.1930  -25.2660   20.2670 O   0  0  0  0  0  0  0  0  0  0  0  0
  -24.6980  -31.7830   23.1390 C   0  0  0  0  0  0  0  0  0  0  0  0
  -27.2340  -26.5450   20.2330 C   0  0  0  0  0  0  0  0  0  0  0  0
  -23.5320  -30.3750   21.4980 C   0  0  0  0  0  3  0  0  0  0  0  0
  -24.9880  -28.6800   20.1270 C   0  0  0  0  0  0  0  0  0  0  0  0
  -26.1180  -30.4630   21.4240 C   0  0  0  0  0  2  0  0  0  0  0  0
  -26.1810  -29.0080   20.7800 C   0  0  0  0  0  0  0  0  0  0  0  0
  -27.2820  -27.9760   20.7900 C   0  0  0  0  0  3  0  0  0  0  0  0
  -26.0030  -26.4650   19.5170 C   0  0  0  0  0  3  0  0  0  0  0  0
  -24.9480  -27.4350   19.4700 C   0  0  0  0  0  3  0  0  0  0  0  0
  -23.7910  -29.6540   20.1420 C   0  0  0  0  0  2  0  0  0  0  0  0
  -24.8080  -30.9120   22.0730 N   0  0  0  0  0  0  0  0  0  0  0  0
  -23.5970  -32.0990   23.6240 O   0  0  0  0  0  0  0  0  0  0  0  0
  -22.7830  -29.4210   22.4700 C   0  0  0  0  0  0  0  0  0  0  0  0
  -21.4470  -29.3000   22.3440 N   0  0  0  0  0  0  0  0  0  0  0  0
  -23.4190  -28.7820   23.3090 O   0  0  0  0  0  0  0  0  0  0  0  0
  -20.9810  -29.8650   21.6490 H   0  0  0  0  0  0  0  0  0  0  0  0
  -18.0350  -28.1400   22.8460 C   0  0  0  0  0  0  0  0  0  0  0  0
  -20.5990  -28.3780   23.1120 C   0  0  0  0  0  3  0  0  0  0  0  0
  -20.6790  -26.9420   22.5400 C   0  0  0  0  0  2  0  0  0  0  0  0
  -19.5760  -26.6350   21.5210 C   0  0  0  0  0  2  0  0  0  0  0  0
  -18.1960  -26.7920   22.1630 C   0  0  0  0  0  2  0  0  0  0  0  0
  -19.1620  -28.8930   23.2760 C   0  0  0  0  0  0  0  0  0  0  0  0
  -18.9510  -30.1510   23.8800 C   0  0  0  0  0  3  0  0  0  0  0  0
  -17.6500  -30.6580   24.0550 C   0  0  0  0  0  3  0  0  0  0  0  0
  -16.5390  -29.9060   23.6340 C   0  0  0  0  0  3  0  0  0  0  0  0
  -16.7330  -28.6480   23.0370 C   0  0  0  0  0  3  0  0  0  0  0  0
  -25.9480  -32.4390   23.8000 C   0  0  0  0  0  3  0  0  0  0  0  0
  -25.6010  -33.8220   24.1880 N   0  0  0  0  0  0  0  0  0  0  0  0
  -25.9160  -34.9240   23.4930 C   0  0  0  0  0  0  0  0  0  0  0  0
  -26.5830  -34.8850   22.4560 O   0  0  0  0  0  0  0  0  0  0  0  0
  -25.0000  -33.9220   24.9910 H   0  0  0  0  0  0  0  0  0  0  0  0
  -24.1500  -36.7130   23.2640 C   0  0  0  0  0  1  0  0  0  0  0  0
  -25.4160  -36.2850   24.0260 C   0  0  0  0  0  3  0  0  0  0  0  0
  -27.5580  -37.1700   24.8460 C   0  0  0  0  0  1  0  0  0  0  0  0
  -26.4270  -37.3620   23.9410 N   0  0  0  0  0  0  0  0  0  0  0  0
  -26.0100  -38.2660   24.1440 H   0  0  0  0  0  0  0  0  0  0  0  0
  -26.4610  -31.6460   25.0670 C   0  0  1  0  0  0  0  0  0  0  0  0
  -25.3660  -31.3840   26.1280 C   0  0  0  0  0  1  0  0  0  0  0  0
  -27.0540  -30.2770   24.6640 C   0  0  0  0  0  1  0  0  0  0  0  0
  -27.6060  -32.4330   25.7500 C   0  0  0  0  0  1  0  0  0  0  0  0
  -29.4660  -17.7260   18.4330 C   0  0  0  0  0  1  0  0  0  0  0  0
  -31.2250  -18.4220   20.0410 C   0  0  0  0  0  1  0  0  0  0  0  0
  -29.8020  -17.8260   19.9340 C   0  0  0  0  0  2  0  0  0  0  0  0
  -30.2490  -15.9090   20.2830 C   0  0  0  0  0  2  0  0  0  0  0  0
  -30.3900  -13.2840   19.5310 C   0  0  0  0  0  2  0  0  0  0  0  0
  -29.5570  -12.7210   18.3400 C   0  0  0  0  0  2  0  0  0  0  0  0
  -28.1540  -12.3070   18.8000 C   0  0  0  0  0  2  0  0  0  0  0  0
  -27.5750  -13.3420   19.7860 C   0  0  0  0  0  3  0  0  0  0  0  0
  -28.5670  -13.8340   20.8710 C   0  0  0  0  0  2  0  0  0  0  0  0
  -29.7030  -14.5170   20.1850 N   0  0  0  0  0  0  0  0  0  0  0  0
  -31.4760  -15.6520   20.3310 O   0  0  0  0  0  1  0  0  0  0  0  0
  -25.2390  -13.8230   20.6190 C   0  0  0  0  0  0  0  0  0  0  0  0
  -24.1730  -13.0400   20.9380 C   0  0  0  0  0  0  0  0  0  0  0  0
  -24.6430  -11.6910   20.8730 C   0  0  0  0  0  0  0  0  0  0  0  0
  -26.2750  -12.9640   20.3220 N   0  0  0  0  0  0  0  0  0  0  0  0
  -25.9360  -11.6670   20.5520 N   0  0  0  0  0  0  0  0  0  0  0  0
  -23.9130  -10.4270   21.0340 C   0  0  0  0  0  0  0  0  0  0  0  0
  -24.3740   -9.4130   21.9040 C   0  0  0  0  0  3  0  0  0  0  0  0
  -23.6390   -8.2200   22.0650 C   0  0  0  0  0  3  0  0  0  0  0  0
  -22.4300   -8.0290   21.3560 C   0  0  0  0  0  0  0  0  0  0  0  0
  -21.9870   -9.0310   20.4750 C   0  0  0  0  0  3  0  0  0  0  0  0
  -22.7230  -10.2170   20.3110 C   0  0  0  0  0  3  0  0  0  0  0  0
  -21.6670   -6.8900   21.4230 O   0  0  0  0  0  0  0  0  0  0  0  0
  -21.6880   -6.0780   22.5280 C   0  0  0  0  0  0  0  0  0  0  0  0
  -21.4020   -6.5680   23.8200 C   0  0  0  0  0  3  0  0  0  0  0  0
  -21.3650   -5.6840   24.9160 C   0  0  0  0  0  3  0  0  0  0  0  0
  -21.6020   -4.3100   24.7230 C   0  0  0  0  0  0  0  0  0  0  0  0
  -21.8820   -3.8190   23.4350 C   0  0  0  0  0  3  0  0  0  0  0  0
  -21.9210   -4.7010   22.3400 C   0  0  0  0  0  0  0  0  0  0  0  0
  -22.1690   -4.2190   21.0980 F   0  0  0  0  0  0  0  0  0  0  0  0
  -21.5580   -3.4580   25.7730 F   0  0  0  0  0  0  0  0  0  0  0  0
  -22.7770  -13.5230   21.1880 C   0  0  0  0  0  0  0  0  0  0  0  0
  -22.0260  -12.8200   22.0270 N   0  0  0  0  0  0  0  0  0  0  0  0
  -22.3660  -14.5630   20.6700 O   0  0  0  0  0  0  0  0  0  0  0  0
  -22.3760  -11.9760   22.4570 H   0  0  0  0  0  0  0  0  0  0  0  0
  -21.0850  -13.1230   22.2320 H   0  0  0  0  0  0  0  0  0  0  0  0
  -25.4160  -15.1950   20.5300 N   0  0  0  0  0  0  0  0  0  0  0  0
  -24.7450  -15.8460   20.9120 H   0  0  0  0  0  0  0  0  0  0  0  0
  -26.3000  -15.6290   20.3080 H   0  0  0  0  0  0  0  0  0  0  0  0
  2  4  2  0
  3  1  1  0
  3  2  1  0
  5  3  1  0
  6  2  1  0
  7  6  1  0
  8  7  1  0
  9  8  1  0
  9 14  1  0
  9 10  1  1
 14 12  1  6
 13 14  1  0
 14 11  1  0
 15  9  1  0
 17 16  1  0
 17 15  1  0
 18 20  1  0
 19 18  1  0
 22 21  1  0
 23 34  2  0
 24 22  1  0
 24 29  1  0
 25 33  1  0
 25 35  1  0
 26 32  1  0
 26 28  1  0
 27 33  1  0
 28 29  2  0
 28 27  1  0
 30 24  2  0
 31 30  1  0
 31 26  2  0
 32 25  1  0
 33 23  1  0
 35 37  2  0
 36 35  1  0
 38 36  1  0
 39 48  2  0
 39 44  1  0
 40 36  1  0
 40 44  1  0
 41 40  1  0
 42 43  1  0
 42 41  1  0
 43 39  1  0
 44 45  2  0
 45 46  1  0
 47 46  2  0
 48 47  1  0
 49 23  1  0
 49 50  1  0
 49 59  1  0
 50 53  1  0
 51 55  1  0
 51 50  1  0
 52 51  2  0
 55 54  1  0
 57 55  1  0
 57 58  1  0
 57 56  1  0
 59 62  1  1
 59 60  1  0
 61 59  1  0
 63 65  1  0
 65 64  1  0
 66 73  1  0
 67 72  1  0
 68 69  1  0
 68 67  1  0
 70 69  1  0
 70 77  1  0
 70 71  1  0
 72 66  1  0
 72 71  1  0
 74 75  2  0
 75 94  1  0
 76 75  1  0
 76 79  1  0
 77 78  1  0
 77 74  1  0
 78 76  2  0
 79 80  1  0
 80 81  2  0
 82 85  1  0
 82 81  1  0
 83 82  2  0
 84 83  1  0
 84 79  2  0
 85 86  1  0
 86 87  1  0
 87 88  2  0
 89 88  1  0
 89 93  1  0
 90 89  2  0
 91 86  2  0
 91 90  1  0
 92 91  1  0
 94 95  1  0
 95 98  1  0
 95 97  1  0
 96 94  2  0
 99 74  1  0
 99100  1  0
101 99  1  0
M  ISO  4  21 101  22 101  65 100  66 100
M  END
>  <TORSDO>  (53) 
F 27

>  <SCORE>  (53) 
52.134

>  <name>  (53) 
53

>  <ligand_id>  (53) 
53

>  <original_smiles>  (53) 
[H]c1c([H])c([H])c2c(c1[H])C([H])([H])C([H])([H])C([H])([H])C2([H])N([H])C(=O)C1([H])N(C(=O)C([H])(N([H])C(=O)C([H])(N([H])C([H])([H])[H])C([H])([H])[H])C(C([H])([H])[H])(C([H])([H])[H])C([H])([H])[H])C([H])([H])c2c([H])c(OC([H])([H])C(F)(F)C([H])(N([H])C(=O)C([H])([H])C([H])([H])C([H])([H])[N+]([H])(C([H])([H])C([H])([H])C([H])([H])[H])C(C([H])([H])[H])(C([H])([H])[H])C([H])([H])[H])C(C(=O)N3C([H])([H])C([H])([H])C([H])([H])C([H])(n4nc(-c5c([H])c([H])c(Oc6c([H])c([H])c(F)c([H])c6F)c([H])c5[H])c(C(=O)N([H])[H])c4N([H])[H])C3([H])[H])(C([H])([H])[H])C([H])([H])[H])c([H])c([H])c2C1([H])[H]

>  <smiles>  (53) 
[H]c1c([H])c([H])c2c(c1[H])C([H])([H])C([H])([H])C([H])([H])C2([H])N([H])C(=O)C1([H])N(C(=O)C([H])(N([H])C(=O)C([H])(N([H])C([H])([H])[H])C([H])([H])[H])C(C([H])([H])[H])(C([H])([H])[H])C([H])([H])[H])C([H])([H])c2c([H])c(OC([H])([H])C(F)(F)C([H])(N([H])C(=O)C([H])([H])C([H])([H])C([H])([H])[N+]([H])(C([H])([H])C([H])([H])C([H])([H])[H])C(C([H])([H])[H])(C([H])([H])[H])C([H])([H])[H])C(C(=O)N3C([H])([H])C([H])([H])C([H])([H])C([H])(n4nc(-c5c([H])c([H])c(Oc6c([H])c([H])c(F)c([H])c6F)c([H])c5[H])c(C(=O)N([H])[H])c4N([H])[H])C3([H])[H])(C([H])([H])[H])C([H])([H])[H])c([H])c([H])c2C1([H])[H]

$$$$
54:0:0
     RDKit          3D

 94102  0  0  1  0  0  0  0  0999 V2000
  -28.9300  -18.5030   20.4420 C   0  0  0  0  0  3  0  0  0  0  0  0
  -30.6180  -19.0090   18.2910 C   0  0  0  0  0  0  0  0  0  0  0  0
  -29.7330  -17.3810   19.9460 C   0  0  0  0  0  0  0  0  0  0  0  0
  -28.9930  -19.8740   19.9230 C   0  0  0  0  0  0  0  0  0  0  0  0
  -30.5550  -17.7020   18.8310 C   0  0  0  0  0  0  0  0  0  0  0  0
  -29.8410  -20.0680   18.8040 C   0  0  0  0  0  0  0  0  0  0  0  0
  -31.4960  -19.2760   17.0740 C   0  0  0  0  0  1  0  0  0  0  0  0
  -31.2430  -16.7310   18.1920 F   0  0  0  0  0  0  0  0  0  0  0  0
  -29.8360  -21.5840   17.9500 Cl  0  0  0  0  0  0  0  0  0  0  0  0
  -30.5100  -14.8560   20.3030 C   0  0  0  0  0  0  0  0  0  0  0  0
  -30.3980  -12.5660   19.3250 C   0  0  0  0  0  2  0  0  0  0  0  0
  -29.4390  -12.6240   18.1140 C   0  0  0  0  0  2  0  0  0  0  0  0
  -27.9690  -12.4340   18.5480 C   0  0  0  0  0  2  0  0  0  0  0  0
  -27.5990  -13.2940   19.7860 C   0  0  0  0  0  3  0  0  0  0  0  0
  -28.6750  -13.1910   20.8880 C   0  0  0  0  0  2  0  0  0  0  0  0
  -29.9490  -13.5980   20.2870 N   0  0  0  0  0  0  0  0  0  0  0  0
  -31.7110  -14.9710   20.0480 O   0  0  0  0  0  0  0  0  0  0  0  0
  -29.6630  -15.9650   20.4610 N   0  0  0  0  0  0  0  0  0  0  0  0
  -28.7840  -15.7180   20.8890 H   0  0  0  0  0  0  0  0  0  0  0  0
  -25.2220  -13.8540   20.5700 C   0  0  0  0  0  0  0  0  0  0  0  0
  -24.1680  -13.0670   20.9470 C   0  0  0  0  0  0  0  0  0  0  0  0
  -24.6420  -11.7210   20.8840 C   0  0  0  0  0  0  0  0  0  0  0  0
  -26.2660  -12.9870   20.2960 N   0  0  0  0  0  0  0  0  0  0  0  0
  -25.9280  -11.6970   20.5510 N   0  0  0  0  0  0  0  0  0  0  0  0
  -23.9250  -10.4510   21.0610 C   0  0  0  0  0  0  0  0  0  0  0  0
  -24.3640   -9.4800   21.9860 C   0  0  0  0  0  3  0  0  0  0  0  0
  -23.6490   -8.2740   22.1560 C   0  0  0  0  0  3  0  0  0  0  0  0
  -22.4750   -8.0360   21.4010 C   0  0  0  0  0  0  0  0  0  0  0  0
  -22.0540   -8.9960   20.4650 C   0  0  0  0  0  3  0  0  0  0  0  0
  -22.7700  -10.1920   20.2930 C   0  0  0  0  0  3  0  0  0  0  0  0
  -21.7280   -6.8860   21.4840 O   0  0  0  0  0  0  0  0  0  0  0  0
  -21.6660   -6.1430   22.6370 C   0  0  0  0  0  0  0  0  0  0  0  0
  -21.1860   -6.6870   23.8480 C   0  0  0  0  0  3  0  0  0  0  0  0
  -21.0730   -5.8700   24.9890 C   0  0  0  0  0  3  0  0  0  0  0  0
  -21.4340   -4.5120   24.9210 C   0  0  0  0  0  0  0  0  0  0  0  0
  -21.9060   -3.9660   23.7140 C   0  0  0  0  0  3  0  0  0  0  0  0
  -22.0210   -4.7800   22.5760 C   0  0  0  0  0  0  0  0  0  0  0  0
  -22.4570   -4.2450   21.4060 F   0  0  0  0  0  0  0  0  0  0  0  0
  -21.3190   -3.7240   26.0160 F   0  0  0  0  0  0  0  0  0  0  0  0
  -22.7740  -13.5300   21.2510 C   0  0  0  0  0  0  0  0  0  0  0  0
  -22.0610  -12.8140   22.1130 N   0  0  0  0  0  0  0  0  0  0  0  0
  -22.3250  -14.5650   20.7590 O   0  0  0  0  0  0  0  0  0  0  0  0
  -22.4290  -11.9780   22.5400 H   0  0  0  0  0  0  0  0  0  0  0  0
  -21.1260  -13.1100   22.3550 H   0  0  0  0  0  0  0  0  0  0  0  0
  -25.3780  -15.2300   20.4130 N   0  0  0  0  0  0  0  0  0  0  0  0
  -24.6240  -15.8880   20.5640 H   0  0  0  0  0  0  0  0  0  0  0  0
  -26.2280  -15.6760   20.0970 H   0  0  0  0  0  0  0  0  0  0  0  0
  -28.1980  -20.9960   20.4030 N   0  0  0  0  0  0  0  0  0  0  0  0
  -27.3280  -20.7050   20.8470 H   0  0  0  0  0  0  0  0  0  0  0  0
  -30.1850  -22.2940   21.3490 C   0  0  0  0  0  1  0  0  0  0  0  0
  -28.6880  -22.3240   20.9700 C   0  0  0  0  0  3  0  0  0  0  0  0
  -28.2790  -23.7330   20.2560 C   0  0  0  0  0  2  0  0  0  0  0  0
  -28.3310  -25.1160   21.0950 C   0  0  0  0  0  2  0  0  0  0  0  0
  -28.4420  -26.4670   20.4610 O   0  0  0  0  0  0  0  0  0  0  0  0
  -24.6320  -31.9440   23.2800 C   0  0  0  0  0  0  0  0  0  0  0  0
  -27.3300  -27.3210   20.4180 C   0  0  0  0  0  0  0  0  0  0  0  0
  -23.4780  -30.5090   21.6330 C   0  0  0  0  0  3  0  0  0  0  0  0
  -24.9730  -28.9320   20.2810 C   0  0  0  0  0  0  0  0  0  0  0  0
  -26.0180  -30.8350   21.5110 C   0  0  0  0  0  2  0  0  0  0  0  0
  -26.1200  -29.4400   20.9050 C   0  0  0  0  0  0  0  0  0  0  0  0
  -27.3060  -28.6460   20.9600 C   0  0  0  0  0  3  0  0  0  0  0  0
  -26.1680  -26.8660   19.7690 C   0  0  0  0  0  3  0  0  0  0  0  0
  -25.0020  -27.6560   19.6940 C   0  0  0  0  0  3  0  0  0  0  0  0
  -23.7370  -29.8080   20.2690 C   0  0  0  0  0  2  0  0  0  0  0  0
  -24.7250  -31.1170   22.1960 N   0  0  0  0  0  0  0  0  0  0  0  0
  -23.5330  -32.2260   23.7810 O   0  0  0  0  0  0  0  0  0  0  0  0
  -22.7920  -29.5080   22.5960 C   0  0  0  0  0  0  0  0  0  0  0  0
  -21.4670  -29.3440   22.4550 N   0  0  0  0  0  0  0  0  0  0  0  0
  -23.4550  -28.8880   23.4320 O   0  0  0  0  0  0  0  0  0  0  0  0
  -20.9930  -29.9070   21.7630 H   0  0  0  0  0  0  0  0  0  0  0  0
  -18.0630  -28.2080   22.9540 C   0  0  0  0  0  0  0  0  0  0  0  0
  -20.6260  -28.4190   23.2220 C   0  0  0  0  0  3  0  0  0  0  0  0
  -20.6990  -26.9880   22.6420 C   0  0  0  0  0  2  0  0  0  0  0  0
  -19.5920  -26.6870   21.6280 C   0  0  0  0  0  2  0  0  0  0  0  0
  -18.2120  -26.8580   22.2730 C   0  0  0  0  0  2  0  0  0  0  0  0
  -19.1970  -28.9490   23.3830 C   0  0  0  0  0  0  0  0  0  0  0  0
  -19.0020  -30.2120   23.9800 C   0  0  0  0  0  3  0  0  0  0  0  0
  -17.7070  -30.7390   24.1510 C   0  0  0  0  0  3  0  0  0  0  0  0
  -16.5880  -29.9960   23.7340 C   0  0  0  0  0  3  0  0  0  0  0  0
  -16.7670  -28.7340   23.1410 C   0  0  0  0  0  3  0  0  0  0  0  0
  -25.8950  -32.5940   23.9250 C   0  0  0  0  0  3  0  0  0  0  0  0
  -26.3720  -31.8560   25.2370 C   0  0  1  0  0  0  0  0  0  0  0  0
  -25.2470  -31.6470   26.2770 C   0  0  0  0  0  1  0  0  0  0  0  0
  -26.9680  -30.4690   24.8990 C   0  0  0  0  0  1  0  0  0  0  0  0
  -27.4980  -32.6720   25.9170 C   0  0  0  0  0  1  0  0  0  0  0  0
  -25.5780  -33.9990   24.2100 N   0  0  0  0  0  0  0  0  0  0  0  0
  -25.9310  -35.0350   23.4360 C   0  0  0  0  0  0  0  0  0  0  0  0
  -26.6280  -34.9050   22.4250 O   0  0  0  0  0  0  0  0  0  0  0  0
  -24.9720  -34.1730   24.9980 H   0  0  0  0  0  0  0  0  0  0  0  0
  -24.2240  -36.8280   22.9830 C   0  0  0  0  0  1  0  0  0  0  0  0
  -25.4340  -36.4360   23.8450 C   0  0  0  0  0  3  0  0  0  0  0  0
  -27.5400  -37.3360   24.7360 C   0  0  0  0  0  1  0  0  0  0  0  0
  -26.4740  -37.4840   23.7480 N   0  0  0  0  0  0  0  0  0  0  0  0
  -26.0660  -38.4090   23.8570 H   0  0  0  0  0  0  0  0  0  0  0  0
  2  6  2  0
  2  5  1  0
  3  1  1  0
  3 18  1  0
  4 48  1  0
  4  1  2  0
  5  3  2  0
  6  4  1  0
  7  2  1  0
  8  5  1  0
  9  6  1  0
 10 18  1  0
 11 16  1  0
 12 13  1  0
 12 11  1  0
 14 13  1  0
 14 23  1  0
 14 15  1  0
 16 10  1  0
 16 15  1  0
 17 10  2  0
 18 19  1  0
 20 21  2  0
 21 40  1  0
 22 21  1  0
 22 25  1  0
 23 24  1  0
 23 20  1  0
 24 22  2  0
 25 26  1  0
 26 27  2  0
 28 31  1  0
 28 27  1  0
 29 28  2  0
 30 29  1  0
 30 25  2  0
 31 32  1  0
 32 33  1  0
 33 34  2  0
 35 34  1  0
 35 39  1  0
 36 35  2  0
 37 32  2  0
 37 36  1  0
 38 37  1  0
 40 41  1  0
 41 44  1  0
 41 43  1  0
 42 40  2  0
 45 46  1  0
 45 20  1  0
 47 45  1  0
 48 49  1  0
 48 51  1  0
 51 50  1  0
 52 51  1  0
 52 53  1  0
 54 53  1  0
 55 66  2  0
 56 54  1  0
 56 61  1  0
 57 65  1  0
 57 67  1  0
 58 60  1  0
 59 65  1  0
 60 61  2  0
 60 59  1  0
 62 56  2  0
 63 62  1  0
 63 58  2  0
 64 58  1  0
 64 57  1  0
 65 55  1  0
 67 69  2  0
 68 67  1  0
 70 68  1  0
 71 80  2  0
 71 76  1  0
 72 68  1  0
 72 76  1  0
 73 72  1  0
 74 75  1  0
 74 73  1  0
 75 71  1  0
 76 77  2  0
 77 78  1  0
 79 78  2  0
 80 79  1  0
 81 55  1  0
 81 86  1  0
 81 82  1  0
 82 85  1  1
 82 83  1  0
 84 82  1  0
 86 89  1  0
 87 91  1  0
 87 86  1  0
 88 87  2  0
 91 90  1  0
 93 91  1  0
 93 94  1  0
 93 92  1  0
M  ISO  4  10 100  18 100  53 101  54 101
M  END
>  <TORSDO>  (54) 
F 20

>  <SCORE>  (54) 
-14.189

>  <name>  (54) 
54

>  <ligand_id>  (54) 
54

>  <original_smiles>  (54) 
[H]c1c([H])c([H])c2c(c1[H])C([H])([H])C([H])([H])C([H])([H])C2([H])N([H])C(=O)C1([H])N(C(=O)C([H])(N([H])C(=O)C([H])(N([H])C([H])([H])[H])C([H])([H])[H])C(C([H])([H])[H])(C([H])([H])[H])C([H])([H])[H])C([H])([H])c2c([H])c(OC([H])([H])C([H])([H])C([H])(N([H])c3c([H])c(N([H])C(=O)N4C([H])([H])C([H])([H])C([H])([H])C([H])(n5nc(-c6c([H])c([H])c(Oc7c([H])c([H])c(F)c([H])c7F)c([H])c6[H])c(C(=O)N([H])[H])c5N([H])[H])C4([H])[H])c(F)c(C([H])([H])[H])c3Cl)C([H])([H])[H])c([H])c([H])c2C1([H])[H]

>  <smiles>  (54) 
[H]c1c([H])c([H])c2c(c1[H])C([H])([H])C([H])([H])C([H])([H])C2([H])N([H])C(=O)C1([H])N(C(=O)C([H])(N([H])C(=O)C([H])(N([H])C([H])([H])[H])C([H])([H])[H])C(C([H])([H])[H])(C([H])([H])[H])C([H])([H])[H])C([H])([H])c2c([H])c(OC([H])([H])C([H])([H])C([H])(N([H])c3c([H])c(N([H])C(=O)N4C([H])([H])C([H])([H])C([H])([H])C([H])(n5nc(-c6c([H])c([H])c(Oc7c([H])c([H])c(F)c([H])c7F)c([H])c6[H])c(C(=O)N([H])[H])c5N([H])[H])C4([H])[H])c(F)c(C([H])([H])[H])c3Cl)C([H])([H])[H])c([H])c([H])c2C1([H])[H]

$$$$
55:0:0
     RDKit          3D

 89 97  0  0  1  0  0  0  0  0999 V2000
  -29.8660  -21.2720   18.9130 C   0  0  0  0  0  3  0  0  0  0  0  0
  -29.3280  -21.1030   21.0550 C   0  0  0  0  0  3  0  0  0  0  0  0
  -29.3840  -22.1650   20.0140 C   0  0  0  0  0  0  0  0  0  0  0  0
  -30.2030  -19.7680   18.8570 C   0  0  0  0  0  0  0  0  0  0  0  0
  -29.6420  -19.6040   21.0300 C   0  0  0  0  0  0  0  0  0  0  0  0
  -30.1340  -18.7220   19.9270 C   0  0  0  0  0  0  0  0  0  0  0  0
  -30.5960  -19.2570   17.4810 C   0  0  0  0  0  1  0  0  0  0  0  0
  -31.1250  -15.7120   19.7500 C   0  0  0  0  0  0  0  0  0  0  0  0
  -31.2200  -13.1640   18.9570 C   0  0  0  0  0  2  0  0  0  0  0  0
  -30.2260  -12.7590   17.8310 C   0  0  0  0  0  2  0  0  0  0  0  0
  -28.8530  -12.3860   18.4110 C   0  0  0  0  0  2  0  0  0  0  0  0
  -28.4290  -13.3740   19.5210 C   0  0  0  0  0  3  0  0  0  0  0  0
  -29.5530  -13.6940   20.5350 C   0  0  0  0  0  2  0  0  0  0  0  0
  -30.6570  -14.3270   19.7780 N   0  0  0  0  0  0  0  0  0  0  0  0
  -32.3190  -15.7110   19.3960 O   0  0  0  0  0  0  0  0  0  0  0  0
  -30.2970  -17.0060   19.9840 N   0  0  0  0  0  0  0  0  0  0  0  0
  -29.4480  -16.6460   20.3900 H   0  0  0  0  0  0  0  0  0  0  0  0
  -26.2100  -13.8650   20.6580 C   0  0  0  0  0  0  0  0  0  0  0  0
  -25.1740  -13.0710   21.0610 C   0  0  0  0  0  0  0  0  0  0  0  0
  -25.5740  -11.7270   20.7910 C   0  0  0  0  0  0  0  0  0  0  0  0
  -27.1740  -13.0060   20.1630 N   0  0  0  0  0  0  0  0  0  0  0  0
  -26.8130  -11.7020   20.3060 N   0  0  0  0  0  0  0  0  0  0  0  0
  -24.8200  -10.4710   20.9110 C   0  0  0  0  0  0  0  0  0  0  0  0
  -25.2360   -9.4380   21.7780 C   0  0  0  0  0  3  0  0  0  0  0  0
  -24.4820   -8.2500   21.8930 C   0  0  0  0  0  3  0  0  0  0  0  0
  -23.2960   -8.0870   21.1400 C   0  0  0  0  0  0  0  0  0  0  0  0
  -22.8960   -9.1090   20.2590 C   0  0  0  0  0  3  0  0  0  0  0  0
  -23.6510  -10.2870   20.1430 C   0  0  0  0  0  3  0  0  0  0  0  0
  -22.5130   -6.9580   21.1670 O   0  0  0  0  0  0  0  0  0  0  0  0
  -22.3160   -6.2460   22.3240 C   0  0  0  0  0  0  0  0  0  0  0  0
  -21.7630   -6.8400   23.4790 C   0  0  0  0  0  3  0  0  0  0  0  0
  -21.5130   -6.0540   24.6220 C   0  0  0  0  0  3  0  0  0  0  0  0
  -21.8050   -4.6780   24.6100 C   0  0  0  0  0  0  0  0  0  0  0  0
  -22.3520   -4.0830   23.4590 C   0  0  0  0  0  3  0  0  0  0  0  0
  -22.6010   -4.8650   22.3170 C   0  0  0  0  0  0  0  0  0  0  0  0
  -23.1080   -4.2830   21.2040 F   0  0  0  0  0  0  0  0  0  0  0  0
  -21.5580   -3.9220   25.7060 F   0  0  0  0  0  0  0  0  0  0  0  0
  -23.8450  -13.5470   21.5690 C   0  0  0  0  0  0  0  0  0  0  0  0
  -23.2110  -12.7760   22.4450 N   0  0  0  0  0  0  0  0  0  0  0  0
  -23.3840  -14.6340   21.2250 O   0  0  0  0  0  0  0  0  0  0  0  0
  -23.6010  -11.8950   22.7430 H   0  0  0  0  0  0  0  0  0  0  0  0
  -22.3220  -13.0720   22.8220 H   0  0  0  0  0  0  0  0  0  0  0  0
  -26.4050  -15.2430   20.6370 N   0  0  0  0  0  0  0  0  0  0  0  0
  -25.6730  -15.8880   20.9110 H   0  0  0  0  0  0  0  0  0  0  0  0
  -27.1940  -15.6990   20.1980 H   0  0  0  0  0  0  0  0  0  0  0  0
  -30.6060  -18.3170   23.0150 C   0  0  0  0  0  1  0  0  0  0  0  0
  -29.3500  -18.8760   22.3360 C   0  0  0  0  0  2  0  0  0  0  0  0
  -28.6100  -23.8700   20.0450 C   0  0  0  0  0  2  0  0  0  0  0  0
  -28.9290  -25.5790   20.2460 O   0  0  0  0  0  0  0  0  0  0  0  0
  -25.3950  -31.6580   23.5260 C   0  0  0  0  0  0  0  0  0  0  0  0
  -27.9820  -26.8110   20.2360 C   0  0  0  0  0  0  0  0  0  0  0  0
  -24.2470  -30.4030   21.7510 C   0  0  0  0  0  3  0  0  0  0  0  0
  -25.7260  -28.8560   20.2600 C   0  0  0  0  0  0  0  0  0  0  0  0
  -26.8280  -30.5350   21.7150 C   0  0  0  0  0  2  0  0  0  0  0  0
  -26.9040  -29.1550   20.9550 C   0  0  0  0  0  0  0  0  0  0  0  0
  -28.0160  -28.1620   20.9150 C   0  0  0  0  0  3  0  0  0  0  0  0
  -26.7730  -26.7250   19.4980 C   0  0  0  0  0  3  0  0  0  0  0  0
  -25.7010  -27.6670   19.5100 C   0  0  0  0  0  3  0  0  0  0  0  0
  -24.5230  -29.8080   20.3380 C   0  0  0  0  0  2  0  0  0  0  0  0
  -25.5120  -30.8920   22.3870 N   0  0  0  0  0  0  0  0  0  0  0  0
  -24.2900  -31.9270   24.0270 O   0  0  0  0  0  0  0  0  0  0  0  0
  -23.4930  -29.3610   22.6220 C   0  0  0  0  0  0  0  0  0  0  0  0
  -22.1790  -29.1740   22.3870 N   0  0  0  0  0  0  0  0  0  0  0  0
  -24.1050  -28.7220   23.4800 O   0  0  0  0  0  0  0  0  0  0  0  0
  -21.7370  -29.7430   21.6790 H   0  0  0  0  0  0  0  0  0  0  0  0
  -18.8180  -27.8050   22.5400 C   0  0  0  0  0  0  0  0  0  0  0  0
  -21.3270  -28.1800   23.0540 C   0  0  0  0  0  3  0  0  0  0  0  0
  -21.5480  -26.7710   22.4570 C   0  0  0  0  0  2  0  0  0  0  0  0
  -20.5650  -26.4300   21.3330 C   0  0  0  0  0  2  0  0  0  0  0  0
  -19.1240  -26.4900   21.8440 C   0  0  0  0  0  2  0  0  0  0  0  0
  -19.8520  -28.6070   23.0930 C   0  0  0  0  0  0  0  0  0  0  0  0
  -19.5120  -29.8350   23.7000 C   0  0  0  0  0  3  0  0  0  0  0  0
  -18.1730  -30.2620   23.7620 C   0  0  0  0  0  3  0  0  0  0  0  0
  -17.1520  -29.4590   23.2260 C   0  0  0  0  0  3  0  0  0  0  0  0
  -17.4760  -28.2320   22.6180 C   0  0  0  0  0  3  0  0  0  0  0  0
  -26.6440  -32.2400   24.2520 C   0  0  0  0  0  3  0  0  0  0  0  0
  -26.3270  -33.6150   24.6870 N   0  0  0  0  0  0  0  0  0  0  0  0
  -26.6650  -34.7310   24.0250 C   0  0  0  0  0  0  0  0  0  0  0  0
  -27.3340  -34.7100   22.9900 O   0  0  0  0  0  0  0  0  0  0  0  0
  -25.7340  -33.7010   25.4980 H   0  0  0  0  0  0  0  0  0  0  0  0
  -24.9320  -36.5510   23.8420 C   0  0  0  0  0  1  0  0  0  0  0  0
  -26.1860  -36.0840   24.5970 C   0  0  0  0  0  3  0  0  0  0  0  0
  -28.3320  -36.9130   25.4620 C   0  0  0  0  0  1  0  0  0  0  0  0
  -27.2180  -37.1440   24.5480 N   0  0  0  0  0  0  0  0  0  0  0  0
  -26.8100  -38.0510   24.7630 H   0  0  0  0  0  0  0  0  0  0  0  0
  -27.0910  -31.3780   25.4990 C   0  0  1  0  0  0  0  0  0  0  0  0
  -25.9490  -31.0920   26.5040 C   0  0  0  0  0  1  0  0  0  0  0  0
  -27.6690  -30.0150   25.0530 C   0  0  0  0  0  1  0  0  0  0  0  0
  -28.2240  -32.1040   26.2590 C   0  0  0  0  0  1  0  0  0  0  0  0
  1  3  1  0
  3 48  1  0
  3  2  2  0
  4  1  2  0
  4  6  1  0
  5  2  1  0
  5 47  1  0
  6 16  1  0
  6  5  2  0
  7  4  1  0
  8 14  1  0
  8 16  1  0
  9 14  1  0
 10 11  1  0
 10  9  1  0
 12 11  1  0
 12 21  1  0
 12 13  1  0
 14 13  1  0
 15  8  2  0
 16 17  1  0
 18 19  2  0
 19 38  1  0
 20 23  1  0
 20 19  1  0
 21 22  1  0
 21 18  1  0
 22 20  2  0
 23 24  1  0
 24 25  2  0
 26 29  1  0
 26 25  1  0
 27 26  2  0
 28 27  1  0
 28 23  2  0
 29 30  1  0
 30 31  1  0
 31 32  2  0
 33 32  1  0
 33 37  1  0
 34 33  2  0
 35 30  2  0
 35 34  1  0
 36 35  1  0
 38 39  1  0
 39 41  1  0
 39 42  1  0
 40 38  2  0
 43 18  1  0
 43 44  1  0
 45 43  1  0
 47 46  1  0
 48 49  1  0
 50 61  2  0
 51 49  1  0
 51 56  1  0
 52 60  1  0
 52 62  1  0
 53 59  1  0
 53 55  1  0
 54 60  1  0
 55 54  1  0
 56 55  2  0
 57 58  1  0
 57 51  2  0
 58 53  2  0
 59 52  1  0
 60 50  1  0
 62 64  2  0
 63 62  1  0
 65 63  1  0
 66 75  2  0
 66 71  1  0
 67 63  1  0
 67 71  1  0
 68 67  1  0
 69 70  1  0
 69 68  1  0
 70 66  1  0
 71 72  2  0
 72 73  1  0
 74 73  2  0
 75 74  1  0
 76 50  1  0
 76 77  1  0
 76 86  1  0
 77 80  1  0
 78 82  1  0
 78 77  1  0
 79 78  2  0
 82 81  1  0
 84 82  1  0
 84 85  1  0
 84 83  1  0
 86 89  1  1
 86 87  1  0
 88 86  1  0
M  ISO  4   8 100  16 100  48 101  49 101
M  END
>  <TORSDO>  (55) 
F 18

>  <SCORE>  (55) 
-9.816

>  <name>  (55) 
55

>  <ligand_id>  (55) 
55

>  <original_smiles>  (55) 
[H]c1c([H])c([H])c2c(c1[H])C([H])([H])C([H])([H])C([H])([H])C2([H])N([H])C(=O)C1([H])N(C(=O)C([H])(N([H])C(=O)C([H])(N([H])C([H])([H])[H])C([H])([H])[H])C(C([H])([H])[H])(C([H])([H])[H])C([H])([H])[H])C([H])([H])c2c([H])c(OC([H])([H])c3c([H])c(C([H])([H])[H])c(N([H])C(=O)N4C([H])([H])C([H])([H])C([H])([H])C([H])(n5nc(-c6c([H])c([H])c(Oc7c([H])c([H])c(F)c([H])c7F)c([H])c6[H])c(C(=O)N([H])[H])c5N([H])[H])C4([H])[H])c(C([H])([H])C([H])([H])[H])c3[H])c([H])c([H])c2C1([H])[H]

>  <smiles>  (55) 
[H]c1c([H])c([H])c2c(c1[H])C([H])([H])C([H])([H])C([H])([H])C2([H])N([H])C(=O)C1([H])N(C(=O)C([H])(N([H])C(=O)C([H])(N([H])C([H])([H])[H])C([H])([H])[H])C(C([H])([H])[H])(C([H])([H])[H])C([H])([H])[H])C([H])([H])c2c([H])c(OC([H])([H])c3c([H])c(C([H])([H])[H])c(N([H])C(=O)N4C([H])([H])C([H])([H])C([H])([H])C([H])(n5nc(-c6c([H])c([H])c(Oc7c([H])c([H])c(F)c([H])c7F)c([H])c6[H])c(C(=O)N([H])[H])c5N([H])[H])C4([H])[H])c(C([H])([H])C([H])([H])[H])c3[H])c([H])c([H])c2C1([H])[H]

$$$$
56:0:0
     RDKit          3D

 94102  0  0  1  0  0  0  0  0999 V2000
  -29.3390  -22.5270   21.4820 C   0  0  0  0  0  3  0  0  0  0  0  0
  -28.7010  -22.5860   20.2280 C   0  0  0  0  0  0  0  0  0  0  0  0
  -30.0600  -20.0950   21.3300 C   0  0  0  0  0  0  0  0  0  0  0  0
  -29.4860  -19.8740   20.0470 C   0  0  0  0  0  0  0  0  0  0  0  0
  -29.9600  -21.3580   22.0140 C   0  0  0  0  0  0  0  0  0  0  0  0
  -28.8060  -21.1870   19.5530 C   0  0  0  0  0  0  0  0  0  0  0  0
  -30.8410  -18.9460   21.9660 C   0  0  0  0  0  1  0  0  0  0  0  0
  -28.0390  -21.0680   18.0120 Cl  0  0  0  0  0  0  0  0  0  0  0  0
  -30.4750  -21.4950   23.3090 N   0  0  0  0  0  0  0  0  0  0  0  0
  -30.4850  -22.4600   23.6320 H   0  0  0  0  0  0  0  0  0  0  0  0
  -29.8370  -20.6150   24.2820 C   0  0  0  0  0  2  0  0  0  0  0  0
  -30.1830  -18.5540   25.7400 C   0  0  0  0  0  1  0  0  0  0  0  0
  -30.8550  -19.6970   24.9710 C   0  0  0  0  0  2  0  0  0  0  0  0
  -29.7650  -18.2930   19.2860 C   0  0  0  0  0  2  0  0  0  0  0  0
  -30.4670  -15.3780   19.4890 C   0  0  0  0  0  0  0  0  0  0  0  0
  -30.3880  -12.9180   18.6240 C   0  0  0  0  0  2  0  0  0  0  0  0
  -29.3450  -12.6930   17.4970 C   0  0  0  0  0  2  0  0  0  0  0  0
  -27.9580  -12.3960   18.0900 C   0  0  0  0  0  2  0  0  0  0  0  0
  -27.6200  -13.3460   19.2640 C   0  0  0  0  0  3  0  0  0  0  0  0
  -28.7800  -13.5160   20.2700 C   0  0  0  0  0  2  0  0  0  0  0  0
  -29.9250  -14.0540   19.5130 N   0  0  0  0  0  0  0  0  0  0  0  0
  -31.6370  -15.3850   19.0740 O   0  0  0  0  0  0  0  0  0  0  0  0
  -29.7170  -16.6540   19.7240 N   0  0  0  0  0  0  0  0  0  0  0  0
  -28.8130  -16.4340   20.1170 H   0  0  0  0  0  0  0  0  0  0  0  0
  -25.3410  -13.8690   20.2760 C   0  0  0  0  0  0  0  0  0  0  0  0
  -24.3340  -13.0770   20.7500 C   0  0  0  0  0  0  0  0  0  0  0  0
  -24.8080  -11.7330   20.6570 C   0  0  0  0  0  0  0  0  0  0  0  0
  -26.3600  -13.0080   19.9120 N   0  0  0  0  0  0  0  0  0  0  0  0
  -26.0600  -11.7150   20.2080 N   0  0  0  0  0  0  0  0  0  0  0  0
  -24.1170  -10.4620   20.9130 C   0  0  0  0  0  0  0  0  0  0  0  0
  -24.5300   -9.5890   21.9440 C   0  0  0  0  0  3  0  0  0  0  0  0
  -23.8350   -8.3850   22.1840 C   0  0  0  0  0  3  0  0  0  0  0  0
  -22.7120   -8.0430   21.3930 C   0  0  0  0  0  0  0  0  0  0  0  0
  -22.3180   -8.9040   20.3530 C   0  0  0  0  0  3  0  0  0  0  0  0
  -23.0150  -10.1010   20.1120 C   0  0  0  0  0  3  0  0  0  0  0  0
  -21.9910   -6.8820   21.5360 O   0  0  0  0  0  0  0  0  0  0  0  0
  -21.7480   -6.3340   22.7710 C   0  0  0  0  0  0  0  0  0  0  0  0
  -21.0560   -7.0430   23.7770 C   0  0  0  0  0  3  0  0  0  0  0  0
  -20.7660   -6.4170   25.0050 C   0  0  0  0  0  3  0  0  0  0  0  0
  -21.1580   -5.0830   25.2270 C   0  0  0  0  0  0  0  0  0  0  0  0
  -21.8420   -4.3740   24.2230 C   0  0  0  0  0  3  0  0  0  0  0  0
  -22.1340   -4.9980   22.9980 C   0  0  0  0  0  0  0  0  0  0  0  0
  -22.7730   -4.3030   22.0270 F   0  0  0  0  0  0  0  0  0  0  0  0
  -20.8730   -4.4780   26.4040 F   0  0  0  0  0  0  0  0  0  0  0  0
  -22.9690  -13.5390   21.1680 C   0  0  0  0  0  0  0  0  0  0  0  0
  -22.3560  -12.8500   22.1230 N   0  0  0  0  0  0  0  0  0  0  0  0
  -22.4600  -14.5480   20.6830 O   0  0  0  0  0  0  0  0  0  0  0  0
  -22.7850  -12.0330   22.5350 H   0  0  0  0  0  0  0  0  0  0  0  0
  -21.4460  -13.1420   22.4480 H   0  0  0  0  0  0  0  0  0  0  0  0
  -25.4670  -15.2430   20.0920 N   0  0  0  0  0  0  0  0  0  0  0  0
  -24.7020  -15.8810   20.2850 H   0  0  0  0  0  0  0  0  0  0  0  0
  -26.2500  -15.6920   19.6350 H   0  0  0  0  0  0  0  0  0  0  0  0
  -27.8230  -24.0820   19.8640 C   0  0  0  0  0  2  0  0  0  0  0  0
  -28.0780  -25.7130   20.1330 O   0  0  0  0  0  0  0  0  0  0  0  0
  -24.8900  -31.8950   23.1460 C   0  0  0  0  0  0  0  0  0  0  0  0
  -27.1210  -26.8750   20.0520 C   0  0  0  0  0  0  0  0  0  0  0  0
  -23.5660  -30.5190   21.5920 C   0  0  0  0  0  3  0  0  0  0  0  0
  -24.8850  -28.8550   20.1040 C   0  0  0  0  0  0  0  0  0  0  0  0
  -26.1270  -30.6390   21.3070 C   0  0  0  0  0  2  0  0  0  0  0  0
  -26.1170  -29.2180   20.6630 C   0  0  0  0  0  0  0  0  0  0  0  0
  -27.2220  -28.2470   20.6180 C   0  0  0  0  0  3  0  0  0  0  0  0
  -25.8670  -26.6830   19.4280 C   0  0  0  0  0  3  0  0  0  0  0  0
  -24.7890  -27.6080   19.4640 C   0  0  0  0  0  3  0  0  0  0  0  0
  -23.6990  -29.8150   20.2130 C   0  0  0  0  0  2  0  0  0  0  0  0
  -24.8870  -31.0460   22.0670 N   0  0  0  0  0  0  0  0  0  0  0  0
  -23.8400  -32.2230   23.7230 O   0  0  0  0  0  0  0  0  0  0  0  0
  -22.8970  -29.5570   22.6090 C   0  0  0  0  0  0  0  0  0  0  0  0
  -21.5760  -29.3290   22.4770 N   0  0  0  0  0  0  0  0  0  0  0  0
  -23.5730  -29.0130   23.4850 O   0  0  0  0  0  0  0  0  0  0  0  0
  -21.0810  -29.8190   21.7460 H   0  0  0  0  0  0  0  0  0  0  0  0
  -18.2740  -27.8880   22.9180 C   0  0  0  0  0  0  0  0  0  0  0  0
  -20.7820  -28.4040   23.2940 C   0  0  0  0  0  3  0  0  0  0  0  0
  -21.0360  -26.9360   22.8790 C   0  0  0  0  0  2  0  0  0  0  0  0
  -20.0310  -26.4190   21.8440 C   0  0  0  0  0  2  0  0  0  0  0  0
  -18.6040  -26.5030   22.3910 C   0  0  0  0  0  2  0  0  0  0  0  0
  -19.2970  -28.7870   23.3280 C   0  0  0  0  0  0  0  0  0  0  0  0
  -18.9340  -30.0740   23.7810 C   0  0  0  0  0  3  0  0  0  0  0  0
  -17.5820  -30.4660   23.8300 C   0  0  0  0  0  3  0  0  0  0  0  0
  -16.5750  -29.5690   23.4350 C   0  0  0  0  0  3  0  0  0  0  0  0
  -16.9210  -28.2830   22.9860 C   0  0  0  0  0  3  0  0  0  0  0  0
  -26.2110  -32.5090   23.7010 C   0  0  0  0  0  3  0  0  0  0  0  0
  -25.9180  -33.8770   24.1670 N   0  0  0  0  0  0  0  0  0  0  0  0
  -26.1900  -34.9970   23.4850 C   0  0  0  0  0  0  0  0  0  0  0  0
  -26.7780  -34.9890   22.4000 O   0  0  0  0  0  0  0  0  0  0  0  0
  -25.3880  -33.9550   25.0220 H   0  0  0  0  0  0  0  0  0  0  0  0
  -24.4350  -36.8030   23.4420 C   0  0  0  0  0  1  0  0  0  0  0  0
  -25.7450  -36.3390   24.1010 C   0  0  0  0  0  3  0  0  0  0  0  0
  -27.9400  -37.1780   24.8170 C   0  0  0  0  0  1  0  0  0  0  0  0
  -26.7600  -37.4090   23.9870 N   0  0  0  0  0  0  0  0  0  0  0  0
  -26.3650  -38.3100   24.2430 H   0  0  0  0  0  0  0  0  0  0  0  0
  -26.8420  -31.6610   24.8750 C   0  0  1  0  0  0  0  0  0  0  0  0
  -25.8360  -31.3010   25.9940 C   0  0  0  0  0  1  0  0  0  0  0  0
  -27.4430  -30.3410   24.3440 C   0  0  0  0  0  1  0  0  0  0  0  0
  -28.0100  -32.4460   25.5160 C   0  0  0  0  0  1  0  0  0  0  0  0
  1  5  1  0
  2  1  2  0
  3  7  1  0
  3  5  2  0
  4  3  1  0
  5  9  1  0
  6  4  2  0
  6  2  1  0
  8  6  1  0
  9 10  1  0
  9 11  1  0
 11 13  1  0
 13 12  1  0
 14 23  1  0
 14  4  1  0
 15 21  1  0
 15 23  1  0
 16 21  1  0
 17 18  1  0
 17 16  1  0
 19 18  1  0
 19 28  1  0
 19 20  1  0
 21 20  1  0
 22 15  2  0
 23 24  1  0
 25 26  2  0
 26 45  1  0
 27 26  1  0
 27 30  1  0
 28 29  1  0
 28 25  1  0
 29 27  2  0
 30 31  1  0
 31 32  2  0
 33 36  1  0
 33 32  1  0
 34 33  2  0
 35 34  1  0
 35 30  2  0
 36 37  1  0
 37 42  2  0
 37 38  1  0
 38 39  2  0
 39 40  1  0
 40 44  1  0
 41 40  2  0
 42 41  1  0
 43 42  1  0
 45 46  1  0
 46 49  1  0
 46 48  1  0
 47 45  2  0
 50 25  1  0
 50 51  1  0
 52 50  1  0
 53 54  1  0
 53  2  1  0
 55 66  2  0
 56 54  1  0
 56 61  1  0
 57 65  1  0
 57 67  1  0
 58 64  1  0
 58 60  1  0
 59 65  1  0
 60 59  1  0
 61 60  2  0
 62 63  1  0
 62 56  2  0
 63 58  2  0
 64 57  1  0
 65 55  1  0
 67 69  2  0
 68 67  1  0
 70 68  1  0
 71 80  2  0
 71 76  1  0
 72 68  1  0
 72 76  1  0
 73 72  1  0
 74 75  1  0
 74 73  1  0
 75 71  1  0
 76 77  2  0
 77 78  1  0
 79 78  2  0
 80 79  1  0
 81 55  1  0
 81 82  1  0
 81 91  1  0
 82 85  1  0
 83 87  1  0
 83 82  1  0
 84 83  2  0
 87 86  1  0
 89 87  1  0
 89 90  1  0
 89 88  1  0
 91 94  1  1
 91 92  1  0
 93 91  1  0
M  ISO  4  15 100  23 100  53 101  54 101
M  END
>  <TORSDO>  (56) 
F 21

>  <SCORE>  (56) 
-9.746

>  <name>  (56) 
56

>  <ligand_id>  (56) 
56

>  <original_smiles>  (56) 
[H]c1c([H])c([H])c2c(c1[H])C([H])([H])C([H])([H])C([H])([H])C2([H])N([H])C(=O)C1([H])N(C(=O)C([H])(N([H])C(=O)C([H])(N([H])C([H])([H])[H])C([H])([H])[H])C(C([H])([H])[H])(C([H])([H])[H])C([H])([H])[H])C([H])([H])c2c([H])c(OC([H])([H])c3c([H])c(N([H])C([H])([H])C([H])([H])C([H])([H])[H])c(C([H])([H])[H])c(C([H])([H])N([H])C(=O)N4C([H])([H])C([H])([H])C([H])([H])C([H])(n5nc(-c6c([H])c([H])c(Oc7c([H])c([H])c(F)c([H])c7F)c([H])c6[H])c(C(=O)N([H])[H])c5N([H])[H])C4([H])[H])c3Cl)c([H])c([H])c2C1([H])[H]

>  <smiles>  (56) 
[H]c1c([H])c([H])c2c(c1[H])C([H])([H])C([H])([H])C([H])([H])C2([H])N([H])C(=O)C1([H])N(C(=O)C([H])(N([H])C(=O)C([H])(N([H])C([H])([H])[H])C([H])([H])[H])C(C([H])([H])[H])(C([H])([H])[H])C([H])([H])[H])C([H])([H])c2c([H])c(OC([H])([H])c3c([H])c(N([H])C([H])([H])C([H])([H])C([H])([H])[H])c(C([H])([H])[H])c(C([H])([H])N([H])C(=O)N4C([H])([H])C([H])([H])C([H])([H])C([H])(n5nc(-c6c([H])c([H])c(Oc7c([H])c([H])c(F)c([H])c7F)c([H])c6[H])c(C(=O)N([H])[H])c5N([H])[H])C4([H])[H])c3Cl)c([H])c([H])c2C1([H])[H]

$$$$
57:0:0
     RDKit          3D

 96104  0  0  1  0  0  0  0  0999 V2000
  -30.4190  -16.4650   20.2710 C   0  0  0  0  0  0  0  0  0  0  0  0
  -31.4670  -17.4810   20.1220 C   0  0  0  0  0  0  0  0  0  0  0  0
  -28.8580  -18.5310   20.2830 C   0  0  0  0  0  0  0  0  0  0  0  0
  -29.8990  -19.5080   20.1490 C   0  0  0  0  0  0  0  0  0  0  0  0
  -29.1170  -17.0950   20.2070 C   0  0  0  0  0  0  0  0  0  0  0  0
  -31.1810  -18.8980   20.0200 C   0  0  0  0  0  0  0  0  0  0  0  0
  -27.4080  -19.0010   20.4300 C   0  0  0  0  0  1  0  0  0  0  0  0
  -32.2070  -19.7190   19.6790 F   0  0  0  0  0  0  0  0  0  0  0  0
  -30.7620  -14.8800   20.3180 C   0  0  0  0  0  0  0  0  0  0  0  0
  -30.3900  -12.5720   19.3910 C   0  0  0  0  0  2  0  0  0  0  0  0
  -29.4870  -12.5970   18.1470 C   0  0  0  0  0  2  0  0  0  0  0  0
  -28.0120  -12.4180   18.5490 C   0  0  0  0  0  2  0  0  0  0  0  0
  -27.6210  -13.2840   19.7720 C   0  0  0  0  0  3  0  0  0  0  0  0
  -28.6900  -13.3690   20.8830 C   0  0  0  0  0  2  0  0  0  0  0  0
  -29.9710  -13.7290   20.2460 N   0  0  0  0  0  0  0  0  0  0  0  0
  -31.9520  -14.6240   20.2380 O   0  0  0  0  0  0  0  0  0  0  0  0
  -25.2520  -13.9020   20.5130 C   0  0  0  0  0  0  0  0  0  0  0  0
  -24.1800  -13.1260   20.8670 C   0  0  0  0  0  0  0  0  0  0  0  0
  -24.6430  -11.7780   20.8450 C   0  0  0  0  0  0  0  0  0  0  0  0
  -26.2910  -13.0110   20.2810 N   0  0  0  0  0  0  0  0  0  0  0  0
  -25.9370  -11.7340   20.5560 N   0  0  0  0  0  0  0  0  0  0  0  0
  -23.9190  -10.5180   21.0320 C   0  0  0  0  0  0  0  0  0  0  0  0
  -24.3500   -9.5640   21.9790 C   0  0  0  0  0  3  0  0  0  0  0  0
  -23.6290   -8.3630   22.1570 C   0  0  0  0  0  3  0  0  0  0  0  0
  -22.4670   -8.1140   21.3880 C   0  0  0  0  0  0  0  0  0  0  0  0
  -22.0590   -9.0600   20.4310 C   0  0  0  0  0  3  0  0  0  0  0  0
  -22.7760  -10.2510   20.2510 C   0  0  0  0  0  3  0  0  0  0  0  0
  -21.7210   -6.9660   21.4720 O   0  0  0  0  0  0  0  0  0  0  0  0
  -21.6580   -6.2300   22.6300 C   0  0  0  0  0  0  0  0  0  0  0  0
  -21.2110   -6.7930   23.8450 C   0  0  0  0  0  3  0  0  0  0  0  0
  -21.1060   -5.9850   24.9980 C   0  0  0  0  0  3  0  0  0  0  0  0
  -21.4270   -4.6150   24.9260 C   0  0  0  0  0  0  0  0  0  0  0  0
  -21.8600   -4.0520   23.7140 C   0  0  0  0  0  3  0  0  0  0  0  0
  -21.9750   -4.8600   22.5680 C   0  0  0  0  0  0  0  0  0  0  0  0
  -22.3770   -4.3120   21.3950 F   0  0  0  0  0  0  0  0  0  0  0  0
  -21.3160   -3.8350   26.0270 F   0  0  0  0  0  0  0  0  0  0  0  0
  -22.7790  -13.6040   21.1160 C   0  0  0  0  0  0  0  0  0  0  0  0
  -22.0440  -12.9070   21.9750 N   0  0  0  0  0  0  0  0  0  0  0  0
  -22.3440  -14.6210   20.5840 O   0  0  0  0  0  0  0  0  0  0  0  0
  -22.4120  -12.0900   22.4370 H   0  0  0  0  0  0  0  0  0  0  0  0
  -21.0950  -13.1970   22.1740 H   0  0  0  0  0  0  0  0  0  0  0  0
  -25.4080  -15.2710   20.3380 N   0  0  0  0  0  0  0  0  0  0  0  0
  -24.6290  -15.9100   20.4570 H   0  0  0  0  0  0  0  0  0  0  0  0
  -26.2890  -15.7300   20.1160 H   0  0  0  0  0  0  0  0  0  0  0  0
  -33.4010  -16.7550   18.5130 C   0  0  0  0  0  1  0  0  0  0  0  0
  -32.9790  -17.1630   19.9580 C   0  0  0  0  0  2  0  0  0  0  0  0
  -27.6770  -16.4870   18.4900 C   0  0  0  0  0  1  0  0  0  0  0  0
  -28.0350  -16.3360   19.8760 O   0  0  0  0  0  0  0  0  0  0  0  0
  -29.7450  -21.1010   19.8230 C   0  0  0  0  0  2  0  0  0  0  0  0
  -28.9950  -22.2010   20.6270 N   0  0  0  0  0  4  0  0  0  0  0  0
  -29.1190  -22.0230   21.6110 H   0  0  0  0  0  0  0  0  0  0  0  0
  -28.0120  -22.0510   20.4560 H   0  0  0  0  0  0  0  0  0  0  0  0
  -30.5870  -24.1190   21.1470 C   0  0  0  0  0  1  0  0  0  0  0  0
  -29.3220  -23.7150   20.3620 C   0  0  0  0  0  3  0  0  0  0  0  0
  -28.1820  -24.8730   20.6180 C   0  0  0  0  0  2  0  0  0  0  0  0
  -28.4050  -26.3670   20.3830 O   0  0  0  0  0  0  0  0  0  0  0  0
  -24.6560  -31.9470   23.2720 C   0  0  0  0  0  0  0  0  0  0  0  0
  -27.3010  -27.2690   20.3370 C   0  0  0  0  0  0  0  0  0  0  0  0
  -23.4710  -30.5140   21.6520 C   0  0  0  0  0  3  0  0  0  0  0  0
  -24.9380  -28.9300   20.2700 C   0  0  0  0  0  0  0  0  0  0  0  0
  -26.0130  -30.8280   21.4720 C   0  0  0  0  0  2  0  0  0  0  0  0
  -26.1070  -29.4210   20.8690 C   0  0  0  0  0  0  0  0  0  0  0  0
  -27.2900  -28.6070   20.8890 C   0  0  0  0  0  3  0  0  0  0  0  0
  -26.1110  -26.8660   19.6940 C   0  0  0  0  0  3  0  0  0  0  0  0
  -24.9490  -27.6650   19.6680 C   0  0  0  0  0  3  0  0  0  0  0  0
  -23.7060  -29.8180   20.2860 C   0  0  0  0  0  2  0  0  0  0  0  0
  -24.7340  -31.1130   22.1950 N   0  0  0  0  0  0  0  0  0  0  0  0
  -23.5650  -32.2260   23.7930 O   0  0  0  0  0  0  0  0  0  0  0  0
  -22.8020  -29.5140   22.6270 C   0  0  0  0  0  0  0  0  0  0  0  0
  -21.4790  -29.3230   22.4960 N   0  0  0  0  0  0  0  0  0  0  0  0
  -23.4750  -28.9120   23.4690 O   0  0  0  0  0  0  0  0  0  0  0  0
  -20.9910  -29.8680   21.8000 H   0  0  0  0  0  0  0  0  0  0  0  0
  -18.1080  -28.0890   22.9840 C   0  0  0  0  0  0  0  0  0  0  0  0
  -20.6620  -28.3960   23.2800 C   0  0  0  0  0  3  0  0  0  0  0  0
  -20.7910  -26.9500   22.7440 C   0  0  0  0  0  2  0  0  0  0  0  0
  -19.7060  -26.5800   21.7280 C   0  0  0  0  0  2  0  0  0  0  0  0
  -18.3150  -26.7230   22.3490 C   0  0  0  0  0  2  0  0  0  0  0  0
  -19.2110  -28.8780   23.4090 C   0  0  0  0  0  0  0  0  0  0  0  0
  -18.9650  -30.1500   23.9690 C   0  0  0  0  0  3  0  0  0  0  0  0
  -17.6520  -30.6380   24.1010 C   0  0  0  0  0  3  0  0  0  0  0  0
  -16.5650  -29.8480   23.6870 C   0  0  0  0  0  3  0  0  0  0  0  0
  -16.7940  -28.5740   23.1360 C   0  0  0  0  0  3  0  0  0  0  0  0
  -25.9250  -32.6060   23.8920 C   0  0  0  0  0  3  0  0  0  0  0  0
  -25.6000  -34.0040   24.2130 N   0  0  0  0  0  0  0  0  0  0  0  0
  -25.9170  -35.0540   23.4440 C   0  0  0  0  0  0  0  0  0  0  0  0
  -26.5900  -34.9470   22.4140 O   0  0  0  0  0  0  0  0  0  0  0  0
  -25.0040  -34.1570   25.0130 H   0  0  0  0  0  0  0  0  0  0  0  0
  -24.1770  -36.8300   23.0600 C   0  0  0  0  0  1  0  0  0  0  0  0
  -25.4140  -36.4430   23.8870 C   0  0  0  0  0  3  0  0  0  0  0  0
  -27.5360  -37.3530   24.7210 C   0  0  0  0  0  1  0  0  0  0  0  0
  -26.4360  -37.5060   23.7710 N   0  0  0  0  0  0  0  0  0  0  0  0
  -26.0220  -38.4220   23.9170 H   0  0  0  0  0  0  0  0  0  0  0  0
  -26.4420  -31.8500   25.1780 C   0  0  1  0  0  0  0  0  0  0  0  0
  -25.3490  -31.6040   26.2450 C   0  0  0  0  0  1  0  0  0  0  0  0
  -27.0370  -30.4770   24.7880 C   0  0  0  0  0  1  0  0  0  0  0  0
  -27.5830  -32.6560   25.8430 C   0  0  0  0  0  1  0  0  0  0  0  0
  1  9  1  0
  2  1  2  0
  3  7  1  0
  4  3  1  0
  5  1  1  0
  5  3  2  0
  6  2  1  0
  6  4  2  0
  8  6  1  0
 10 15  1  0
 11 12  1  0
 11 10  1  0
 13 12  1  0
 13 20  1  0
 13 14  1  0
 15  9  1  0
 15 14  1  0
 16  9  2  0
 17 18  2  0
 18 37  1  0
 19 18  1  0
 19 22  1  0
 20 17  1  0
 20 21  1  0
 21 19  2  0
 22 23  1  0
 23 24  2  0
 25 28  1  0
 25 24  1  0
 26 25  2  0
 27 26  1  0
 27 22  2  0
 28 29  1  0
 29 30  1  0
 30 31  2  0
 32 31  1  0
 32 36  1  0
 33 32  2  0
 34 29  2  0
 34 33  1  0
 35 34  1  0
 37 38  1  0
 38 41  1  0
 38 40  1  0
 39 37  2  0
 42 43  1  0
 42 17  1  0
 44 42  1  0
 45 46  1  0
 46  2  1  0
 47 48  1  0
 48  5  1  0
 49  4  1  0
 49 50  1  0
 50 51  1  0
 52 50  1  0
 54 55  1  0
 54 50  1  0
 54 53  1  0
 56 55  1  0
 57 68  2  0
 58 56  1  0
 58 63  1  0
 59 67  1  0
 59 69  1  0
 60 66  1  0
 60 62  1  0
 61 67  1  0
 62 63  2  0
 62 61  1  0
 64 58  2  0
 65 64  1  0
 65 60  2  0
 66 59  1  0
 67 57  1  0
 69 71  2  0
 70 69  1  0
 72 70  1  0
 73 82  2  0
 73 78  1  0
 74 70  1  0
 74 78  1  0
 75 74  1  0
 76 77  1  0
 76 75  1  0
 77 73  1  0
 78 79  2  0
 79 80  1  0
 81 80  2  0
 82 81  1  0
 83 57  1  0
 83 84  1  0
 83 93  1  0
 84 87  1  0
 85 89  1  0
 85 84  1  0
 86 85  2  0
 89 88  1  0
 91 89  1  0
 91 92  1  0
 91 90  1  0
 93 96  1  1
 93 94  1  0
 95 93  1  0
M  ISO  4   1 100   9 100  55 101  56 101
M  END
>  <TORSDO>  (57) 
F 22

>  <SCORE>  (57) 
-12.822

>  <name>  (57) 
57

>  <ligand_id>  (57) 
57

>  <original_smiles>  (57) 
[H]c1c([H])c([H])c2c(c1[H])C([H])([H])C([H])([H])C([H])([H])C2([H])N([H])C(=O)C1([H])N(C(=O)C([H])(N([H])C(=O)C([H])(N([H])C([H])([H])[H])C([H])([H])[H])C(C([H])([H])[H])(C([H])([H])[H])C([H])([H])[H])C([H])([H])c2c([H])c(OC([H])([H])C([H])(C([H])([H])[H])[N+]([H])([H])C([H])([H])c3c(F)c(C([H])([H])C([H])([H])[H])c(C(=O)N4C([H])([H])C([H])([H])C([H])([H])C([H])(n5nc(-c6c([H])c([H])c(Oc7c([H])c([H])c(F)c([H])c7F)c([H])c6[H])c(C(=O)N([H])[H])c5N([H])[H])C4([H])[H])c(OC([H])([H])[H])c3C([H])([H])[H])c([H])c([H])c2C1([H])[H]

>  <smiles>  (57) 
[H]c1c([H])c([H])c2c(c1[H])C([H])([H])C([H])([H])C([H])([H])C2([H])N([H])C(=O)C1([H])N(C(=O)C([H])(N([H])C(=O)C([H])(N([H])C([H])([H])[H])C([H])([H])[H])C(C([H])([H])[H])(C([H])([H])[H])C([H])([H])[H])C([H])([H])c2c([H])c(OC([H])([H])C([H])(C([H])([H])[H])[N+]([H])([H])C([H])([H])c3c(F)c(C([H])([H])C([H])([H])[H])c(C(=O)N4C([H])([H])C([H])([H])C([H])([H])C([H])(n5nc(-c6c([H])c([H])c(Oc7c([H])c([H])c(F)c([H])c7F)c([H])c6[H])c(C(=O)N([H])[H])c5N([H])[H])C4([H])[H])c(OC([H])([H])[H])c3C([H])([H])[H])c([H])c([H])c2C1([H])[H]

$$$$
58:0:0
     RDKit          3D

 90 98  0  0  1  0  0  0  0  0999 V2000
  -30.5580  -20.5740   20.2110 C   0  0  0  0  0  3  0  0  0  0  0  0
  -29.3430  -21.3460   19.9660 C   0  0  0  0  0  0  0  0  0  0  0  0
  -28.3000  -20.3550   19.7680 C   0  0  0  0  0  0  0  0  0  0  0  0
  -28.4860  -18.8670   19.7830 C   0  0  0  0  0  0  0  0  0  0  0  0
  -29.7130  -18.1070   20.0610 C   0  0  0  0  0  0  0  0  0  0  0  0
  -30.7480  -19.1050   20.2670 C   0  0  0  0  0  0  0  0  0  0  0  0
  -26.9000  -20.9180   19.5630 C   0  0  0  0  0  1  0  0  0  0  0  0
  -27.2800  -17.9960   19.4690 C   0  0  0  0  0  1  0  0  0  0  0  0
  -32.3410  -18.5520   20.6320 Cl  0  0  0  0  0  0  0  0  0  0  0  0
  -30.5700  -15.2930   19.9760 C   0  0  0  0  0  0  0  0  0  0  0  0
  -30.4980  -12.8590   19.1030 C   0  0  0  0  0  2  0  0  0  0  0  0
  -29.5250  -12.6940   17.9080 C   0  0  0  0  0  2  0  0  0  0  0  0
  -28.0870  -12.4470   18.4000 C   0  0  0  0  0  2  0  0  0  0  0  0
  -27.6940  -13.4040   19.5530 C   0  0  0  0  0  3  0  0  0  0  0  0
  -28.7890  -13.5130   20.6360 C   0  0  0  0  0  2  0  0  0  0  0  0
  -30.0100  -13.9900   19.9640 N   0  0  0  0  0  0  0  0  0  0  0  0
  -31.7710  -15.3220   19.6800 O   0  0  0  0  0  0  0  0  0  0  0  0
  -29.7410  -16.4960   20.1280 N   0  0  0  0  0  0  0  0  0  0  0  0
  -28.8110  -16.1610   20.3210 H   0  0  0  0  0  0  0  0  0  0  0  0
  -25.3530  -13.9760   20.4030 C   0  0  0  0  0  0  0  0  0  0  0  0
  -24.3020  -13.2090   20.8130 C   0  0  0  0  0  0  0  0  0  0  0  0
  -24.7530  -11.8550   20.7460 C   0  0  0  0  0  0  0  0  0  0  0  0
  -26.3800  -13.0970   20.1090 N   0  0  0  0  0  0  0  0  0  0  0  0
  -26.0320  -11.8120   20.3820 N   0  0  0  0  0  0  0  0  0  0  0  0
  -24.0190  -10.6010   20.9470 C   0  0  0  0  0  0  0  0  0  0  0  0
  -24.4570   -9.6300   21.8730 C   0  0  0  0  0  3  0  0  0  0  0  0
  -23.7200   -8.4420   22.0660 C   0  0  0  0  0  3  0  0  0  0  0  0
  -22.5310   -8.2170   21.3320 C   0  0  0  0  0  0  0  0  0  0  0  0
  -22.1120   -9.1770   20.3950 C   0  0  0  0  0  3  0  0  0  0  0  0
  -22.8490  -10.3570   20.1990 C   0  0  0  0  0  3  0  0  0  0  0  0
  -21.7650   -7.0810   21.4340 O   0  0  0  0  0  0  0  0  0  0  0  0
  -21.7130   -6.3510   22.5950 C   0  0  0  0  0  0  0  0  0  0  0  0
  -21.2700   -6.9150   23.8100 C   0  0  0  0  0  3  0  0  0  0  0  0
  -21.1650   -6.1120   24.9640 C   0  0  0  0  0  3  0  0  0  0  0  0
  -21.4940   -4.7440   24.9010 C   0  0  0  0  0  0  0  0  0  0  0  0
  -21.9300   -4.1790   23.6900 C   0  0  0  0  0  3  0  0  0  0  0  0
  -22.0360   -4.9800   22.5390 C   0  0  0  0  0  0  0  0  0  0  0  0
  -22.4370   -4.4260   21.3700 F   0  0  0  0  0  0  0  0  0  0  0  0
  -21.3850   -3.9700   26.0060 F   0  0  0  0  0  0  0  0  0  0  0  0
  -22.9220  -13.7010   21.1400 C   0  0  0  0  0  0  0  0  0  0  0  0
  -22.2190  -13.0060   22.0260 N   0  0  0  0  0  0  0  0  0  0  0  0
  -22.4790  -14.7370   20.6460 O   0  0  0  0  0  0  0  0  0  0  0  0
  -22.5910  -12.1690   22.4480 H   0  0  0  0  0  0  0  0  0  0  0  0
  -21.2940  -13.3170   22.2880 H   0  0  0  0  0  0  0  0  0  0  0  0
  -25.5070  -15.3430   20.2220 N   0  0  0  0  0  0  0  0  0  0  0  0
  -24.7170  -15.9720   20.3260 H   0  0  0  0  0  0  0  0  0  0  0  0
  -26.2790  -15.7560   19.7230 H   0  0  0  0  0  0  0  0  0  0  0  0
  -29.2910  -23.0810   20.0920 C   0  0  0  0  0  3  0  0  0  0  0  0
  -28.2320  -24.4280   19.6370 C   0  0  0  0  0  3  0  0  0  0  0  0
  -28.3720  -26.0310   19.8880 O   0  0  0  0  0  0  0  0  0  0  0  0
  -24.5660  -31.6800   23.0230 C   0  0  0  0  0  0  0  0  0  0  0  0
  -27.3020  -27.0500   19.8490 C   0  0  0  0  0  0  0  0  0  0  0  0
  -23.4230  -30.3080   21.3270 C   0  0  0  0  0  3  0  0  0  0  0  0
  -24.9290  -28.8090   19.8550 C   0  0  0  0  0  0  0  0  0  0  0  0
  -25.9760  -30.6240   21.1960 C   0  0  0  0  0  2  0  0  0  0  0  0
  -26.0970  -29.2460   20.4930 C   0  0  0  0  0  0  0  0  0  0  0  0
  -27.2770  -28.3880   20.4640 C   0  0  0  0  0  3  0  0  0  0  0  0
  -26.0990  -26.7450   19.1740 C   0  0  0  0  0  3  0  0  0  0  0  0
  -24.9510  -27.5790   19.1760 C   0  0  0  0  0  3  0  0  0  0  0  0
  -23.6790  -29.6820   19.9270 C   0  0  0  0  0  2  0  0  0  0  0  0
  -24.6750  -30.8950   21.9040 N   0  0  0  0  0  0  0  0  0  0  0  0
  -23.4680  -31.9140   23.5510 O   0  0  0  0  0  0  0  0  0  0  0  0
  -22.7600  -29.2550   22.2520 C   0  0  0  0  0  0  0  0  0  0  0  0
  -21.4290  -29.0850   22.1440 N   0  0  0  0  0  0  0  0  0  0  0  0
  -23.4470  -28.5930   23.0340 O   0  0  0  0  0  0  0  0  0  0  0  0
  -20.9280  -29.6740   21.4940 H   0  0  0  0  0  0  0  0  0  0  0  0
  -18.0580  -27.8690   22.7030 C   0  0  0  0  0  0  0  0  0  0  0  0
  -20.6280  -28.1020   22.8810 C   0  0  0  0  0  3  0  0  0  0  0  0
  -20.6930  -26.7120   22.2060 C   0  0  0  0  0  2  0  0  0  0  0  0
  -19.5480  -26.4670   21.2170 C   0  0  0  0  0  2  0  0  0  0  0  0
  -18.1960  -26.5710   21.9260 C   0  0  0  0  0  2  0  0  0  0  0  0
  -19.1990  -28.5950   23.1390 C   0  0  0  0  0  0  0  0  0  0  0  0
  -19.0120  -29.8100   23.8320 C   0  0  0  0  0  3  0  0  0  0  0  0
  -17.7180  -30.3010   24.0910 C   0  0  0  0  0  3  0  0  0  0  0  0
  -16.5930  -29.5720   23.6700 C   0  0  0  0  0  3  0  0  0  0  0  0
  -16.7630  -28.3570   22.9810 C   0  0  0  0  0  3  0  0  0  0  0  0
  -25.8160  -32.3370   23.6850 C   0  0  0  0  0  3  0  0  0  0  0  0
  -25.4640  -33.7220   24.0430 N   0  0  0  0  0  0  0  0  0  0  0  0
  -25.7660  -34.8040   23.3130 C   0  0  0  0  0  0  0  0  0  0  0  0
  -26.4350  -34.7430   22.2770 O   0  0  0  0  0  0  0  0  0  0  0  0
  -24.8670  -33.8410   24.8480 H   0  0  0  0  0  0  0  0  0  0  0  0
  -23.9810  -36.5590   23.0270 C   0  0  0  0  0  1  0  0  0  0  0  0
  -25.2470  -36.1710   23.8070 C   0  0  0  0  0  3  0  0  0  0  0  0
  -27.3640  -37.1110   24.6270 C   0  0  0  0  0  1  0  0  0  0  0  0
  -26.2470  -37.2560   23.6980 N   0  0  0  0  0  0  0  0  0  0  0  0
  -25.8140  -38.1610   23.8600 H   0  0  0  0  0  0  0  0  0  0  0  0
  -26.3220  -31.5580   24.9620 C   0  0  1  0  0  0  0  0  0  0  0  0
  -25.2140  -31.2830   26.0050 C   0  0  0  0  0  1  0  0  0  0  0  0
  -26.9410  -30.1970   24.5680 C   0  0  0  0  0  1  0  0  0  0  0  0
  -27.4420  -32.3660   25.6580 C   0  0  0  0  0  1  0  0  0  0  0  0
  1  6  1  0
  2 48  1  0
  2  1  2  0
  3  4  2  0
  3  2  1  0
  4  5  1  0
  5 18  1  0
  5  6  2  0
  6  9  1  0
  7  3  1  0
  8  4  1  0
 10 18  1  0
 11 16  1  0
 12 13  1  0
 12 11  1  0
 14 13  1  0
 14 23  1  0
 14 15  1  0
 16 10  1  0
 16 15  1  0
 17 10  2  0
 18 19  1  0
 20 21  2  0
 21 40  1  0
 22 21  1  0
 22 25  1  0
 23 24  1  0
 23 20  1  0
 24 22  2  0
 25 26  1  0
 26 27  2  0
 28 31  1  0
 28 27  1  0
 29 28  2  0
 30 29  1  0
 30 25  2  0
 31 32  1  0
 32 33  1  0
 33 34  2  0
 35 34  1  0
 35 39  1  0
 36 35  2  0
 37 32  2  0
 37 36  1  0
 38 37  1  0
 40 41  1  0
 41 44  1  0
 41 43  1  0
 42 40  2  0
 45 46  1  0
 45 20  1  0
 47 45  1  0
 49 50  1  0
 49 48  2  0
 51 62  2  0
 52 50  1  0
 52 57  1  0
 53 61  1  0
 53 63  1  0
 54 60  1  0
 54 56  1  0
 55 61  1  0
 56 55  1  0
 57 56  2  0
 58 59  1  0
 58 52  2  0
 59 54  2  0
 60 53  1  0
 61 51  1  0
 63 65  2  0
 64 63  1  0
 66 64  1  0
 67 76  2  0
 67 72  1  0
 68 64  1  0
 68 72  1  0
 69 68  1  0
 70 71  1  0
 70 69  1  0
 71 67  1  0
 72 73  2  0
 73 74  1  0
 75 74  2  0
 76 75  1  0
 77 51  1  0
 77 78  1  0
 77 87  1  0
 78 81  1  0
 79 83  1  0
 79 78  1  0
 80 79  2  0
 83 82  1  0
 85 83  1  0
 85 86  1  0
 85 84  1  0
 87 90  1  1
 87 88  1  0
 89 87  1  0
M  ISO  4  10 100  18 100  49 101  50 101
M  END
>  <TORSDO>  (58) 
F 18

>  <SCORE>  (58) 
-15.360

>  <name>  (58) 
58

>  <ligand_id>  (58) 
58

>  <original_smiles>  (58) 
[H]c1c([H])c([H])c2c(c1[H])C([H])([H])C([H])([H])C([H])([H])C2([H])N([H])C(=O)C1([H])N(C(=O)C([H])(N([H])C(=O)C([H])(N([H])C([H])([H])[H])C([H])([H])[H])C(C([H])([H])[H])(C([H])([H])[H])C([H])([H])[H])C([H])([H])c2c([H])c(OC([H])([H])C([H])([H])c3c([H])c(Cl)c(N([H])C(=O)N4C([H])([H])C([H])([H])C([H])([H])C([H])(n5nc(-c6c([H])c([H])c(Oc7c([H])c([H])c(F)c([H])c7F)c([H])c6[H])c(C(=O)N([H])[H])c5N([H])[H])C4([H])[H])c(C([H])([H])[H])c3C([H])([H])[H])c([H])c([H])c2C1([H])[H]

>  <smiles>  (58) 
[H]c1c([H])c([H])c2c(c1[H])C([H])([H])C([H])([H])C([H])([H])C2([H])N([H])C(=O)C1([H])N(C(=O)C([H])(N([H])C(=O)C([H])(N([H])C([H])([H])[H])C([H])([H])[H])C(C([H])([H])[H])(C([H])([H])[H])C([H])([H])[H])C([H])([H])c2c([H])c(OC([H])([H])C([H])([H])c3c([H])c(Cl)c(N([H])C(=O)N4C([H])([H])C([H])([H])C([H])([H])C([H])(n5nc(-c6c([H])c([H])c(Oc7c([H])c([H])c(F)c([H])c7F)c([H])c6[H])c(C(=O)N([H])[H])c5N([H])[H])C4([H])[H])c(C([H])([H])[H])c3C([H])([H])[H])c([H])c([H])c2C1([H])[H]

$$$$
59:0:0
     RDKit          3D

 89 97  0  0  1  0  0  0  0  0999 V2000
  -30.9180  -19.5530   20.3270 C   0  0  0  0  0  3  0  0  0  0  0  0
  -31.2790  -20.9470   20.4020 C   0  0  0  0  0  0  0  0  0  0  0  0
  -30.3850  -22.0890   20.3220 C   0  0  0  0  0  0  0  0  0  0  0  0
  -28.9770  -21.9910   20.1230 C   0  0  0  0  0  0  0  0  0  0  0  0
  -29.6160  -19.0350   20.1540 C   0  0  0  0  0  0  0  0  0  0  0  0
  -28.6860  -20.3790   20.0540 C   0  0  0  0  0  0  0  0  0  0  0  0
  -32.7710  -21.1960   20.5820 C   0  0  0  0  0  1  0  0  0  0  0  0
  -30.9390  -23.5080   20.4480 C   0  0  0  0  0  1  0  0  0  0  0  0
  -27.0180  -20.0100   19.8180 Cl  0  0  0  0  0  0  0  0  0  0  0  0
  -30.2670  -15.8840   20.0280 C   0  0  0  0  0  0  0  0  0  0  0  0
  -30.3990  -13.3210   19.1660 C   0  0  0  0  0  2  0  0  0  0  0  0
  -29.4880  -12.8590   17.9890 C   0  0  0  0  0  2  0  0  0  0  0  0
  -28.0930  -12.4600   18.4880 C   0  0  0  0  0  2  0  0  0  0  0  0
  -27.5890  -13.4480   19.5620 C   0  0  0  0  0  3  0  0  0  0  0  0
  -28.6440  -13.8060   20.6380 C   0  0  0  0  0  2  0  0  0  0  0  0
  -29.7650  -14.4940   19.9430 N   0  0  0  0  0  0  0  0  0  0  0  0
  -31.5010  -15.8070   19.8420 O   0  0  0  0  0  0  0  0  0  0  0  0
  -29.4920  -17.2730   20.1210 N   0  0  0  0  0  0  0  0  0  0  0  0
  -28.5140  -17.0250   20.1790 H   0  0  0  0  0  0  0  0  0  0  0  0
  -25.2460  -13.9280   20.4060 C   0  0  0  0  0  0  0  0  0  0  0  0
  -24.2110  -13.1290   20.7930 C   0  0  0  0  0  0  0  0  0  0  0  0
  -24.7000  -11.7870   20.7330 C   0  0  0  0  0  0  0  0  0  0  0  0
  -26.2970  -13.0780   20.1220 N   0  0  0  0  0  0  0  0  0  0  0  0
  -25.9850  -11.7800   20.3850 N   0  0  0  0  0  0  0  0  0  0  0  0
  -23.9940  -10.5120   20.9280 C   0  0  0  0  0  0  0  0  0  0  0  0
  -24.4200   -9.5690   21.8880 C   0  0  0  0  0  3  0  0  0  0  0  0
  -23.7090   -8.3640   22.0730 C   0  0  0  0  0  3  0  0  0  0  0  0
  -22.5570   -8.0930   21.2980 C   0  0  0  0  0  0  0  0  0  0  0  0
  -22.1500   -9.0250   20.3260 C   0  0  0  0  0  3  0  0  0  0  0  0
  -22.8630  -10.2220   20.1400 C   0  0  0  0  0  3  0  0  0  0  0  0
  -21.8180   -6.9370   21.3890 O   0  0  0  0  0  0  0  0  0  0  0  0
  -21.6960   -6.2540   22.5720 C   0  0  0  0  0  0  0  0  0  0  0  0
  -21.1100   -6.8400   23.7150 C   0  0  0  0  0  3  0  0  0  0  0  0
  -20.9410   -6.0790   24.8900 C   0  0  0  0  0  3  0  0  0  0  0  0
  -21.3480   -4.7310   24.9200 C   0  0  0  0  0  0  0  0  0  0  0  0
  -21.9280   -4.1450   23.7810 C   0  0  0  0  0  3  0  0  0  0  0  0
  -22.0970   -4.9020   22.6100 C   0  0  0  0  0  0  0  0  0  0  0  0
  -22.6360   -4.3260   21.5090 F   0  0  0  0  0  0  0  0  0  0  0  0
  -21.1800   -3.9980   26.0460 F   0  0  0  0  0  0  0  0  0  0  0  0
  -22.8130  -13.5830   21.0970 C   0  0  0  0  0  0  0  0  0  0  0  0
  -22.1210  -12.8790   21.9850 N   0  0  0  0  0  0  0  0  0  0  0  0
  -22.3470  -14.6000   20.5850 O   0  0  0  0  0  0  0  0  0  0  0  0
  -22.5140  -12.0580   22.4210 H   0  0  0  0  0  0  0  0  0  0  0  0
  -21.1850  -13.1660   22.2330 H   0  0  0  0  0  0  0  0  0  0  0  0
  -25.3780  -15.3030   20.2360 N   0  0  0  0  0  0  0  0  0  0  0  0
  -24.6000  -15.9400   20.3700 H   0  0  0  0  0  0  0  0  0  0  0  0
  -26.1990  -15.7580   19.8580 H   0  0  0  0  0  0  0  0  0  0  0  0
  -28.0100  -23.6460   19.9840 C   0  0  0  0  0  2  0  0  0  0  0  0
  -28.2190  -25.4410   20.1420 O   0  0  0  0  0  0  0  0  0  0  0  0
  -24.7420  -31.8190   23.1810 C   0  0  0  0  0  0  0  0  0  0  0  0
  -27.2610  -26.7030   20.1170 C   0  0  0  0  0  0  0  0  0  0  0  0
  -23.5560  -30.4460   21.5250 C   0  0  0  0  0  3  0  0  0  0  0  0
  -25.0020  -28.8010   20.0910 C   0  0  0  0  0  0  0  0  0  0  0  0
  -26.1400  -30.5610   21.4140 C   0  0  0  0  0  2  0  0  0  0  0  0
  -26.2020  -29.1280   20.7350 C   0  0  0  0  0  0  0  0  0  0  0  0
  -27.3110  -28.1120   20.7110 C   0  0  0  0  0  3  0  0  0  0  0  0
  -26.0250  -26.6140   19.4210 C   0  0  0  0  0  3  0  0  0  0  0  0
  -24.9590  -27.5720   19.4090 C   0  0  0  0  0  3  0  0  0  0  0  0
  -23.7990  -29.7630   20.1470 C   0  0  0  0  0  2  0  0  0  0  0  0
  -24.8370  -30.9770   22.0930 N   0  0  0  0  0  0  0  0  0  0  0  0
  -23.6470  -32.1150   23.6920 O   0  0  0  0  0  0  0  0  0  0  0  0
  -22.8300  -29.4620   22.4830 C   0  0  0  0  0  0  0  0  0  0  0  0
  -21.4980  -29.3060   22.3480 N   0  0  0  0  0  0  0  0  0  0  0  0
  -23.4790  -28.8350   23.3240 O   0  0  0  0  0  0  0  0  0  0  0  0
  -21.0220  -29.8620   21.6510 H   0  0  0  0  0  0  0  0  0  0  0  0
  -18.1060  -28.1000   22.8640 C   0  0  0  0  0  0  0  0  0  0  0  0
  -20.6710  -28.3580   23.1060 C   0  0  0  0  0  3  0  0  0  0  0  0
  -20.7600  -26.9370   22.5020 C   0  0  0  0  0  2  0  0  0  0  0  0
  -19.6490  -26.6400   21.4900 C   0  0  0  0  0  2  0  0  0  0  0  0
  -18.2740  -26.7710   22.1490 C   0  0  0  0  0  2  0  0  0  0  0  0
  -19.2300  -28.8530   23.2980 C   0  0  0  0  0  0  0  0  0  0  0  0
  -19.0150  -30.0950   23.9340 C   0  0  0  0  0  3  0  0  0  0  0  0
  -17.7110  -30.5870   24.1340 C   0  0  0  0  0  3  0  0  0  0  0  0
  -16.6030  -29.8330   23.7100 C   0  0  0  0  0  3  0  0  0  0  0  0
  -16.8010  -28.5900   23.0820 C   0  0  0  0  0  3  0  0  0  0  0  0
  -26.0010  -32.4640   23.8360 C   0  0  0  0  0  3  0  0  0  0  0  0
  -25.6800  -33.8630   24.1840 N   0  0  0  0  0  0  0  0  0  0  0  0
  -25.9730  -34.9340   23.4350 C   0  0  0  0  0  0  0  0  0  0  0  0
  -26.5990  -34.8500   22.3750 O   0  0  0  0  0  0  0  0  0  0  0  0
  -25.1160  -34.0000   25.0100 H   0  0  0  0  0  0  0  0  0  0  0  0
  -24.2080  -36.7220   23.2150 C   0  0  0  0  0  1  0  0  0  0  0  0
  -25.5050  -36.3190   23.9350 C   0  0  0  0  0  3  0  0  0  0  0  0
  -27.6710  -37.2410   24.6400 C   0  0  0  0  0  1  0  0  0  0  0  0
  -26.5160  -37.3860   23.7590 N   0  0  0  0  0  0  0  0  0  0  0  0
  -26.1070  -38.3020   23.9210 H   0  0  0  0  0  0  0  0  0  0  0  0
  -26.4860  -31.6950   25.1290 C   0  0  1  0  0  0  0  0  0  0  0  0
  -25.3700  -31.4690   26.1780 C   0  0  0  0  0  1  0  0  0  0  0  0
  -27.0690  -30.3120   24.7680 C   0  0  0  0  0  1  0  0  0  0  0  0
  -27.6280  -32.4850   25.8110 C   0  0  0  0  0  1  0  0  0  0  0  0
  1  2  1  0
  2  7  1  0
  3  2  2  0
  3  8  1  0
  4  3  1  0
  5  1  2  0
  6  4  2  0
  6  5  1  0
  9  6  1  0
 10 18  1  0
 11 16  1  0
 12 13  1  0
 12 11  1  0
 14 13  1  0
 14 23  1  0
 14 15  1  0
 16 10  1  0
 16 15  1  0
 17 10  2  0
 18  5  1  0
 18 19  1  0
 20 21  2  0
 21 40  1  0
 22 21  1  0
 22 25  1  0
 23 24  1  0
 23 20  1  0
 24 22  2  0
 25 26  1  0
 26 27  2  0
 28 31  1  0
 28 27  1  0
 29 28  2  0
 30 29  1  0
 30 25  2  0
 31 32  1  0
 32 37  2  0
 32 33  1  0
 33 34  2  0
 34 35  1  0
 35 39  1  0
 36 35  2  0
 37 36  1  0
 38 37  1  0
 40 41  1  0
 41 44  1  0
 41 43  1  0
 42 40  2  0
 45 46  1  0
 45 20  1  0
 47 45  1  0
 48  4  1  0
 48 49  1  0
 50 61  2  0
 51 49  1  0
 51 56  1  0
 52 60  1  0
 52 62  1  0
 53 59  1  0
 53 55  1  0
 54 60  1  0
 55 54  1  0
 56 55  2  0
 57 51  2  0
 58 57  1  0
 58 53  2  0
 59 52  1  0
 60 50  1  0
 62 64  2  0
 63 62  1  0
 65 63  1  0
 66 75  2  0
 66 71  1  0
 67 63  1  0
 67 71  1  0
 68 67  1  0
 69 70  1  0
 69 68  1  0
 70 66  1  0
 71 72  2  0
 72 73  1  0
 74 73  2  0
 75 74  1  0
 76 50  1  0
 76 77  1  0
 76 86  1  0
 77 80  1  0
 78 82  1  0
 78 77  1  0
 79 78  2  0
 82 81  1  0
 84 85  1  0
 84 82  1  0
 84 83  1  0
 86 89  1  1
 86 87  1  0
 88 86  1  0
M  ISO  4  10 100  18 100  48 101  49 101
M  END
>  <TORSDO>  (59) 
F 17

>  <SCORE>  (59) 
-16.248

>  <name>  (59) 
59

>  <ligand_id>  (59) 
59

>  <original_smiles>  (59) 
[H]c1c([H])c([H])c2c(c1[H])C([H])([H])C([H])([H])C([H])([H])C2([H])N([H])C(=O)C1([H])N(C(=O)C([H])(N([H])C(=O)C([H])(N([H])C([H])([H])[H])C([H])([H])[H])C(C([H])([H])[H])(C([H])([H])[H])C([H])([H])[H])C([H])([H])c2c([H])c(OC([H])([H])c3c(Cl)c(N([H])C(=O)N4C([H])([H])C([H])([H])C([H])([H])C([H])(n5nc(-c6c([H])c([H])c(Oc7c([H])c([H])c(F)c([H])c7F)c([H])c6[H])c(C(=O)N([H])[H])c5N([H])[H])C4([H])[H])c([H])c(C([H])([H])[H])c3C([H])([H])[H])c([H])c([H])c2C1([H])[H]

>  <smiles>  (59) 
[H]c1c([H])c([H])c2c(c1[H])C([H])([H])C([H])([H])C([H])([H])C2([H])N([H])C(=O)C1([H])N(C(=O)C([H])(N([H])C(=O)C([H])(N([H])C([H])([H])[H])C([H])([H])[H])C(C([H])([H])[H])(C([H])([H])[H])C([H])([H])[H])C([H])([H])c2c([H])c(OC([H])([H])c3c(Cl)c(N([H])C(=O)N4C([H])([H])C([H])([H])C([H])([H])C([H])(n5nc(-c6c([H])c([H])c(Oc7c([H])c([H])c(F)c([H])c7F)c([H])c6[H])c(C(=O)N([H])[H])c5N([H])[H])C4([H])[H])c([H])c(C([H])([H])[H])c3C([H])([H])[H])c([H])c([H])c2C1([H])[H]

$$$$
60:0:0
     RDKit          3D

 95103  0  0  1  0  0  0  0  0999 V2000
  -29.3590  -19.2690   19.9330 C   0  0  0  0  0  3  0  0  0  0  0  0
  -30.1860  -18.1270   20.1140 C   0  0  0  0  0  0  0  0  0  0  0  0
  -32.1110  -19.6340   20.3360 C   0  0  0  0  0  0  0  0  0  0  0  0
  -29.8760  -20.5930   19.9450 C   0  0  0  0  0  0  0  0  0  0  0  0
  -31.5630  -18.3350   20.3380 C   0  0  0  0  0  0  0  0  0  0  0  0
  -31.2760  -20.7660   20.1390 C   0  0  0  0  0  0  0  0  0  0  0  0
  -33.6230  -19.7690   20.4920 C   0  0  0  0  0  1  0  0  0  0  0  0
  -32.3930  -17.2810   20.4980 F   0  0  0  0  0  0  0  0  0  0  0  0
  -31.9970  -22.3410   20.0420 Cl  0  0  0  0  0  0  0  0  0  0  0  0
  -29.0000  -21.6740   19.6600 N   0  0  0  0  0  0  0  0  0  0  0  0
  -28.1200  -21.3810   19.2470 H   0  0  0  0  0  0  0  0  0  0  0  0
  -27.8460  -22.4120   21.6990 C   0  0  0  0  0  1  0  0  0  0  0  0
  -28.8410  -22.8020   20.5980 C   0  0  0  0  0  3  0  0  0  0  0  0
  -28.4610  -24.1420   19.8780 C   0  0  0  0  0  2  0  0  0  0  0  0
  -28.3440  -25.3840   20.8190 C   0  0  0  0  0  2  0  0  0  0  0  0
  -28.4060  -26.6750   20.1700 O   0  0  0  0  0  0  0  0  0  0  0  0
  -24.5900  -31.8840   23.2420 C   0  0  0  0  0  0  0  0  0  0  0  0
  -27.2450  -27.4240   20.1820 C   0  0  0  0  0  0  0  0  0  0  0  0
  -23.3890  -30.4790   21.5970 C   0  0  0  0  0  3  0  0  0  0  0  0
  -24.8500  -28.9370   20.1800 C   0  0  0  0  0  0  0  0  0  0  0  0
  -25.9180  -30.8410   21.4020 C   0  0  0  0  0  2  0  0  0  0  0  0
  -26.0070  -29.4660   20.7670 C   0  0  0  0  0  0  0  0  0  0  0  0
  -27.2110  -28.7190   20.7580 C   0  0  0  0  0  3  0  0  0  0  0  0
  -26.0710  -26.9110   19.5930 C   0  0  0  0  0  3  0  0  0  0  0  0
  -24.8780  -27.6610   19.5880 C   0  0  0  0  0  3  0  0  0  0  0  0
  -23.6030  -29.7960   20.2190 C   0  0  0  0  0  2  0  0  0  0  0  0
  -24.6510  -31.0840   22.1390 N   0  0  0  0  0  0  0  0  0  0  0  0
  -23.5080  -32.1530   23.7800 O   0  0  0  0  0  0  0  0  0  0  0  0
  -22.7390  -29.4590   22.5560 C   0  0  0  0  0  0  0  0  0  0  0  0
  -21.4140  -29.2780   22.4310 N   0  0  0  0  0  0  0  0  0  0  0  0
  -23.4250  -28.8300   23.3680 O   0  0  0  0  0  0  0  0  0  0  0  0
  -20.9240  -29.8390   21.7490 H   0  0  0  0  0  0  0  0  0  0  0  0
  -18.0380  -28.0900   22.9240 C   0  0  0  0  0  0  0  0  0  0  0  0
  -20.5960  -28.3410   23.2000 C   0  0  0  0  0  3  0  0  0  0  0  0
  -20.6940  -26.9100   22.6210 C   0  0  0  0  0  2  0  0  0  0  0  0
  -19.5930  -26.5930   21.6050 C   0  0  0  0  0  2  0  0  0  0  0  0
  -18.2110  -26.7420   22.2480 C   0  0  0  0  0  2  0  0  0  0  0  0
  -19.1580  -28.8490   23.3580 C   0  0  0  0  0  0  0  0  0  0  0  0
  -18.9410  -30.1110   23.9490 C   0  0  0  0  0  3  0  0  0  0  0  0
  -17.6390  -30.6160   24.1130 C   0  0  0  0  0  3  0  0  0  0  0  0
  -16.5330  -29.8550   23.6980 C   0  0  0  0  0  3  0  0  0  0  0  0
  -16.7330  -28.5940   23.1080 C   0  0  0  0  0  3  0  0  0  0  0  0
  -25.8740  -32.5170   23.8660 C   0  0  0  0  0  3  0  0  0  0  0  0
  -25.5640  -33.9150   24.1960 N   0  0  0  0  0  0  0  0  0  0  0  0
  -25.8970  -34.9660   23.4350 C   0  0  0  0  0  0  0  0  0  0  0  0
  -26.5690  -34.8620   22.4050 O   0  0  0  0  0  0  0  0  0  0  0  0
  -24.9680  -34.0720   24.9960 H   0  0  0  0  0  0  0  0  0  0  0  0
  -24.1670  -36.7550   23.0690 C   0  0  0  0  0  1  0  0  0  0  0  0
  -25.4070  -36.3550   23.8870 C   0  0  0  0  0  3  0  0  0  0  0  0
  -27.5400  -37.2430   24.7210 C   0  0  0  0  0  1  0  0  0  0  0  0
  -26.4400  -37.4100   23.7740 N   0  0  0  0  0  0  0  0  0  0  0  0
  -26.0320  -38.3300   23.9210 H   0  0  0  0  0  0  0  0  0  0  0  0
  -26.3900  -31.7450   25.1420 C   0  0  1  0  0  0  0  0  0  0  0  0
  -25.2990  -31.5080   26.2110 C   0  0  0  0  0  1  0  0  0  0  0  0
  -26.9730  -30.3690   24.7450 C   0  0  0  0  0  1  0  0  0  0  0  0
  -27.5400  -32.5390   25.8060 C   0  0  0  0  0  1  0  0  0  0  0  0
  -29.6110  -16.7150   19.8540 C   0  0  0  0  0  2  0  0  0  0  0  0
  -30.6480  -14.5120   20.4150 C   0  0  0  0  0  0  0  0  0  0  0  0
  -30.3570  -12.3110   19.3600 C   0  0  0  0  0  2  0  0  0  0  0  0
  -29.4350  -12.5110   18.1370 C   0  0  0  0  0  2  0  0  0  0  0  0
  -27.9560  -12.3820   18.5540 C   0  0  0  0  0  2  0  0  0  0  0  0
  -27.6080  -13.2480   19.7960 C   0  0  0  0  0  3  0  0  0  0  0  0
  -28.6520  -13.0490   20.9210 C   0  0  0  0  0  2  0  0  0  0  0  0
  -29.9880  -13.3210   20.3660 N   0  0  0  0  0  0  0  0  0  0  0  0
  -31.7770  -14.6560   19.9490 O   0  0  0  0  0  0  0  0  0  0  0  0
  -29.8840  -15.5720   20.7580 N   0  0  0  0  0  0  0  0  0  0  0  0
  -29.0810  -15.2980   21.3010 H   0  0  0  0  0  0  0  0  0  0  0  0
  -25.2100  -13.8840   20.4860 C   0  0  0  0  0  0  0  0  0  0  0  0
  -24.1330  -13.1240   20.8540 C   0  0  0  0  0  0  0  0  0  0  0  0
  -24.5850  -11.7680   20.8400 C   0  0  0  0  0  0  0  0  0  0  0  0
  -26.2490  -12.9930   20.2680 N   0  0  0  0  0  0  0  0  0  0  0  0
  -25.8770  -11.7160   20.5420 N   0  0  0  0  0  0  0  0  0  0  0  0
  -23.8470  -10.5140   21.0350 C   0  0  0  0  0  0  0  0  0  0  0  0
  -24.2740   -9.5460   21.9710 C   0  0  0  0  0  3  0  0  0  0  0  0
  -23.5400   -8.3540   22.1520 C   0  0  0  0  0  3  0  0  0  0  0  0
  -22.3660   -8.1210   21.3970 C   0  0  0  0  0  0  0  0  0  0  0  0
  -21.9580   -9.0780   20.4510 C   0  0  0  0  0  3  0  0  0  0  0  0
  -22.6920  -10.2620   20.2680 C   0  0  0  0  0  3  0  0  0  0  0  0
  -21.6010   -6.9820   21.4880 O   0  0  0  0  0  0  0  0  0  0  0  0
  -21.5560   -6.2380   22.6390 C   0  0  0  0  0  0  0  0  0  0  0  0
  -21.1550   -6.7940   23.8730 C   0  0  0  0  0  3  0  0  0  0  0  0
  -21.0550   -5.9760   25.0150 C   0  0  0  0  0  3  0  0  0  0  0  0
  -21.3460   -4.6010   24.9250 C   0  0  0  0  0  0  0  0  0  0  0  0
  -21.7400   -4.0430   23.6970 C   0  0  0  0  0  3  0  0  0  0  0  0
  -21.8420   -4.8590   22.5560 C   0  0  0  0  0  0  0  0  0  0  0  0
  -22.2020   -4.3130   21.3700 F   0  0  0  0  0  0  0  0  0  0  0  0
  -21.2430   -3.8140   26.0220 F   0  0  0  0  0  0  0  0  0  0  0  0
  -22.7360  -13.6130   21.1110 C   0  0  0  0  0  0  0  0  0  0  0  0
  -21.9960  -12.9310   21.9770 N   0  0  0  0  0  0  0  0  0  0  0  0
  -22.3110  -14.6360   20.5780 O   0  0  0  0  0  0  0  0  0  0  0  0
  -22.3530  -12.1050   22.4340 H   0  0  0  0  0  0  0  0  0  0  0  0
  -21.0580  -13.2400   22.1890 H   0  0  0  0  0  0  0  0  0  0  0  0
  -25.3850  -15.2520   20.3020 N   0  0  0  0  0  0  0  0  0  0  0  0
  -24.6160  -15.9060   20.4050 H   0  0  0  0  0  0  0  0  0  0  0  0
  -26.2330  -15.6910   19.9710 H   0  0  0  0  0  0  0  0  0  0  0  0
  1  4  2  0
  1  2  1  0
  2  5  2  0
  3  5  1  0
  3  7  1  0
  4  6  1  0
  5  8  1  0
  6  3  2  0
  9  6  1  0
 10  4  1  0
 10 13  1  0
 11 10  1  0
 13 12  1  0
 14 13  1  0
 14 15  1  0
 16 18  1  0
 16 15  1  0
 17 28  2  0
 18 23  1  0
 19 27  1  0
 19 29  1  0
 20 26  1  0
 20 22  1  0
 21 27  1  0
 22 21  1  0
 23 22  2  0
 24 18  2  0
 25 24  1  0
 25 20  2  0
 26 19  1  0
 27 17  1  0
 29 31  2  0
 30 29  1  0
 32 30  1  0
 33 42  2  0
 33 38  1  0
 34 30  1  0
 34 38  1  0
 35 34  1  0
 36 37  1  0
 36 35  1  0
 37 33  1  0
 38 39  2  0
 39 40  1  0
 41 40  2  0
 42 41  1  0
 43 17  1  0
 43 44  1  0
 43 53  1  0
 44 47  1  0
 45 49  1  0
 45 44  1  0
 46 45  2  0
 49 48  1  0
 51 49  1  0
 51 52  1  0
 51 50  1  0
 53 56  1  1
 53 54  1  0
 55 53  1  0
 57  2  1  0
 57 66  1  0
 58 66  1  0
 59 64  1  0
 60 61  1  0
 60 59  1  0
 62 61  1  0
 62 71  1  0
 62 63  1  0
 64 58  1  0
 64 63  1  0
 65 58  2  0
 66 67  1  0
 68 69  2  0
 69 88  1  0
 70 69  1  0
 70 73  1  0
 71 68  1  0
 71 72  1  0
 72 70  2  0
 73 74  1  0
 74 75  2  0
 76 79  1  0
 76 75  1  0
 77 76  2  0
 78 77  1  0
 78 73  2  0
 79 80  1  0
 80 81  1  0
 81 82  2  0
 83 82  1  0
 83 87  1  0
 84 83  2  0
 85 80  2  0
 85 84  1  0
 86 85  1  0
 88 89  1  0
 89 92  1  0
 89 91  1  0
 90 88  2  0
 93 94  1  0
 93 68  1  0
 95 93  1  0
M  ISO  4  15 101  16 101  58 100  66 100
M  END
>  <TORSDO>  (60) 
F 21

>  <SCORE>  (60) 
-13.750

>  <name>  (60) 
60

>  <ligand_id>  (60) 
60

>  <original_smiles>  (60) 
[H]c1c([H])c([H])c2c(c1[H])C([H])([H])C([H])([H])C([H])([H])C2([H])N([H])C(=O)C1([H])N(C(=O)C([H])(N([H])C(=O)C([H])(N([H])C([H])([H])[H])C([H])([H])[H])C(C([H])([H])[H])(C([H])([H])[H])C([H])([H])[H])C([H])([H])c2c([H])c(OC([H])([H])C([H])([H])C([H])(N([H])c3c([H])c(C([H])([H])N([H])C(=O)N4C([H])([H])C([H])([H])C([H])([H])C([H])(n5nc(-c6c([H])c([H])c(Oc7c([H])c([H])c(F)c([H])c7F)c([H])c6[H])c(C(=O)N([H])[H])c5N([H])[H])C4([H])[H])c(F)c(C([H])([H])[H])c3Cl)C([H])([H])[H])c([H])c([H])c2C1([H])[H]

>  <smiles>  (60) 
[H]c1c([H])c([H])c2c(c1[H])C([H])([H])C([H])([H])C([H])([H])C2([H])N([H])C(=O)C1([H])N(C(=O)C([H])(N([H])C(=O)C([H])(N([H])C([H])([H])[H])C([H])([H])[H])C(C([H])([H])[H])(C([H])([H])[H])C([H])([H])[H])C([H])([H])c2c([H])c(OC([H])([H])C([H])([H])C([H])(N([H])c3c([H])c(C([H])([H])N([H])C(=O)N4C([H])([H])C([H])([H])C([H])([H])C([H])(n5nc(-c6c([H])c([H])c(Oc7c([H])c([H])c(F)c([H])c7F)c([H])c6[H])c(C(=O)N([H])[H])c5N([H])[H])C4([H])[H])c(F)c(C([H])([H])[H])c3Cl)C([H])([H])[H])c([H])c([H])c2C1([H])[H]

$$$$
61:0:0
     RDKit          3D

 87 95  0  0  1  0  0  0  0  0999 V2000
  -30.4110  -15.3000   20.3350 C   0  0  0  0  0  0  0  0  0  0  0  0
  -30.4270  -12.8170   19.5550 C   0  0  0  0  0  2  0  0  0  0  0  0
  -29.5440  -12.5810   18.3030 C   0  0  0  0  0  2  0  0  0  0  0  0
  -28.0810  -12.3220   18.7060 C   0  0  0  0  0  2  0  0  0  0  0  0
  -27.5990  -13.3200   19.7880 C   0  0  0  0  0  3  0  0  0  0  0  0
  -28.6120  -13.4970   20.9410 C   0  0  0  0  0  2  0  0  0  0  0  0
  -29.8670  -13.9800   20.3380 N   0  0  0  0  0  0  0  0  0  0  0  0
  -31.6290  -15.3060   20.0910 O   0  0  0  0  0  0  0  0  0  0  0  0
  -30.2570  -20.3840   19.4080 C   0  0  0  0  0  0  0  0  0  0  0  0
  -29.2400  -21.0550   20.1270 C   0  0  0  0  0  0  0  0  0  0  0  0
  -29.6310  -18.1530   20.2810 C   0  0  0  0  0  0  0  0  0  0  0  0
  -31.2620  -21.1120   18.5690 C   0  0  0  0  0  1  0  0  0  0  0  0
  -30.4450  -18.9160   19.4920 N   0  0  0  0  0  0  0  0  0  0  0  0
  -29.6070  -16.5410   20.4740 N   0  0  0  0  0  0  0  0  0  0  0  0
  -28.4870  -19.5330   20.9430 S   0  0  0  0  0  0  0  0  0  0  0  0
  -28.6920  -16.2640   20.7940 H   0  0  0  0  0  0  0  0  0  0  0  0
  -25.2110  -13.9070   20.4610 C   0  0  0  0  0  0  0  0  0  0  0  0
  -24.1350  -13.1440   20.8190 C   0  0  0  0  0  0  0  0  0  0  0  0
  -24.5960  -11.7910   20.8300 C   0  0  0  0  0  0  0  0  0  0  0  0
  -26.2550  -13.0210   20.2650 N   0  0  0  0  0  0  0  0  0  0  0  0
  -25.8960  -11.7440   20.5560 N   0  0  0  0  0  0  0  0  0  0  0  0
  -23.8560  -10.5360   21.0260 C   0  0  0  0  0  0  0  0  0  0  0  0
  -24.2720   -9.5720   21.9700 C   0  0  0  0  0  3  0  0  0  0  0  0
  -23.5290   -8.3850   22.1550 C   0  0  0  0  0  3  0  0  0  0  0  0
  -22.3580   -8.1540   21.3960 C   0  0  0  0  0  0  0  0  0  0  0  0
  -21.9610   -9.1070   20.4400 C   0  0  0  0  0  3  0  0  0  0  0  0
  -22.7040  -10.2850   20.2540 C   0  0  0  0  0  3  0  0  0  0  0  0
  -21.5890   -7.0190   21.4900 O   0  0  0  0  0  0  0  0  0  0  0  0
  -21.5440   -6.2740   22.6410 C   0  0  0  0  0  0  0  0  0  0  0  0
  -21.1640   -6.8360   23.8790 C   0  0  0  0  0  3  0  0  0  0  0  0
  -21.0650   -6.0190   25.0220 C   0  0  0  0  0  3  0  0  0  0  0  0
  -21.3330   -4.6400   24.9290 C   0  0  0  0  0  0  0  0  0  0  0  0
  -21.7050   -4.0770   23.6950 C   0  0  0  0  0  3  0  0  0  0  0  0
  -21.8070   -4.8910   22.5540 C   0  0  0  0  0  0  0  0  0  0  0  0
  -22.1450   -4.3400   21.3640 F   0  0  0  0  0  0  0  0  0  0  0  0
  -21.2290   -3.8530   26.0250 F   0  0  0  0  0  0  0  0  0  0  0  0
  -22.7340  -13.6340   21.0350 C   0  0  0  0  0  0  0  0  0  0  0  0
  -21.9780  -12.9670   21.9000 N   0  0  0  0  0  0  0  0  0  0  0  0
  -22.3180  -14.6450   20.4700 O   0  0  0  0  0  0  0  0  0  0  0  0
  -22.3280  -12.1490   22.3760 H   0  0  0  0  0  0  0  0  0  0  0  0
  -21.0370  -13.2790   22.0900 H   0  0  0  0  0  0  0  0  0  0  0  0
  -25.3840  -15.2720   20.2550 N   0  0  0  0  0  0  0  0  0  0  0  0
  -24.6070  -15.9230   20.3110 H   0  0  0  0  0  0  0  0  0  0  0  0
  -26.2230  -15.6950   19.8810 H   0  0  0  0  0  0  0  0  0  0  0  0
  -29.0520  -22.7850   20.4330 C   0  0  0  0  0  3  0  0  0  0  0  0
  -28.1560  -24.2290   19.8160 C   0  0  0  0  0  3  0  0  0  0  0  0
  -28.2900  -25.8600   20.0860 O   0  0  0  0  0  0  0  0  0  0  0  0
  -24.6910  -31.7890   23.0670 C   0  0  0  0  0  0  0  0  0  0  0  0
  -27.2610  -26.9420   20.0070 C   0  0  0  0  0  0  0  0  0  0  0  0
  -23.4930  -30.3880   21.4360 C   0  0  0  0  0  3  0  0  0  0  0  0
  -24.9410  -28.8010   19.9900 C   0  0  0  0  0  0  0  0  0  0  0  0
  -26.0540  -30.6240   21.2620 C   0  0  0  0  0  2  0  0  0  0  0  0
  -26.1300  -29.2160   20.6000 C   0  0  0  0  0  0  0  0  0  0  0  0
  -27.2810  -28.3070   20.5860 C   0  0  0  0  0  3  0  0  0  0  0  0
  -26.0410  -26.6800   19.3460 C   0  0  0  0  0  3  0  0  0  0  0  0
  -24.9210  -27.5540   19.3420 C   0  0  0  0  0  3  0  0  0  0  0  0
  -23.7130  -29.7100   20.0550 C   0  0  0  0  0  2  0  0  0  0  0  0
  -24.7680  -30.9610   21.9750 N   0  0  0  0  0  0  0  0  0  0  0  0
  -23.6050  -32.0670   23.6010 O   0  0  0  0  0  0  0  0  0  0  0  0
  -22.8170  -29.3840   22.4050 C   0  0  0  0  0  0  0  0  0  0  0  0
  -21.4830  -29.2280   22.3120 N   0  0  0  0  0  0  0  0  0  0  0  0
  -23.4990  -28.7460   23.2110 O   0  0  0  0  0  0  0  0  0  0  0  0
  -20.9850  -29.7920   21.6380 H   0  0  0  0  0  0  0  0  0  0  0  0
  -18.1070  -28.0320   22.8940 C   0  0  0  0  0  0  0  0  0  0  0  0
  -20.6750  -28.2840   23.0920 C   0  0  0  0  0  3  0  0  0  0  0  0
  -20.7540  -26.8600   22.4960 C   0  0  0  0  0  2  0  0  0  0  0  0
  -19.6240  -26.5560   21.5070 C   0  0  0  0  0  2  0  0  0  0  0  0
  -18.2600  -26.6940   22.1900 C   0  0  0  0  0  2  0  0  0  0  0  0
  -19.2410  -28.7860   23.3040 C   0  0  0  0  0  0  0  0  0  0  0  0
  -19.0400  -30.0360   23.9280 C   0  0  0  0  0  3  0  0  0  0  0  0
  -17.7400  -30.5330   24.1440 C   0  0  0  0  0  3  0  0  0  0  0  0
  -16.6230  -29.7790   23.7480 C   0  0  0  0  0  3  0  0  0  0  0  0
  -16.8070  -28.5290   23.1290 C   0  0  0  0  0  3  0  0  0  0  0  0
  -25.9630  -32.4410   23.6890 C   0  0  0  0  0  3  0  0  0  0  0  0
  -25.6220  -33.8220   24.0750 N   0  0  0  0  0  0  0  0  0  0  0  0
  -25.9110  -34.9150   23.3570 C   0  0  0  0  0  0  0  0  0  0  0  0
  -26.5560  -34.8690   22.3060 O   0  0  0  0  0  0  0  0  0  0  0  0
  -25.0440  -33.9300   24.8950 H   0  0  0  0  0  0  0  0  0  0  0  0
  -24.1310  -36.6830   23.1370 C   0  0  0  0  0  1  0  0  0  0  0  0
  -25.4110  -36.2760   23.8860 C   0  0  0  0  0  3  0  0  0  0  0  0
  -27.5540  -37.1830   24.6690 C   0  0  0  0  0  1  0  0  0  0  0  0
  -26.4140  -37.3570   23.7730 N   0  0  0  0  0  0  0  0  0  0  0  0
  -25.9930  -38.2620   23.9690 H   0  0  0  0  0  0  0  0  0  0  0  0
  -26.5160  -31.6500   24.9390 C   0  0  1  0  0  0  0  0  0  0  0  0
  -25.4470  -31.3720   26.0220 C   0  0  0  0  0  1  0  0  0  0  0  0
  -27.1150  -30.2910   24.5120 C   0  0  0  0  0  1  0  0  0  0  0  0
  -27.6660  -32.4490   25.5960 C   0  0  0  0  0  1  0  0  0  0  0  0
  1  7  1  0
  1 14  1  0
  2  7  1  0
  3  4  1  0
  3  2  1  0
  5  4  1  0
  5 20  1  0
  5  6  1  0
  7  6  1  0
  8  1  2  0
  9 13  1  0
  9 10  2  0
 10 45  1  0
 10 15  1  0
 11 14  1  0
 11 15  1  0
 12  9  1  0
 13 11  2  0
 14 16  1  0
 17 18  2  0
 18 19  1  0
 18 37  1  0
 19 22  1  0
 20 17  1  0
 20 21  1  0
 21 19  2  0
 22 23  1  0
 23 24  2  0
 25 28  1  0
 25 24  1  0
 26 25  2  0
 27 26  1  0
 27 22  2  0
 28 29  1  0
 29 30  1  0
 30 31  2  0
 32 31  1  0
 32 36  1  0
 33 32  2  0
 34 29  2  0
 34 33  1  0
 35 34  1  0
 37 38  1  0
 38 41  1  0
 38 40  1  0
 39 37  2  0
 42 43  1  0
 42 17  1  0
 44 42  1  0
 46 47  1  0
 46 45  2  0
 48 59  2  0
 49 47  1  0
 49 54  1  0
 50 58  1  0
 50 60  1  0
 51 57  1  0
 51 53  1  0
 52 58  1  0
 53 52  1  0
 54 53  2  0
 55 49  2  0
 56 55  1  0
 56 51  2  0
 57 50  1  0
 58 48  1  0
 60 62  2  0
 61 60  1  0
 63 61  1  0
 64 73  2  0
 64 69  1  0
 65 61  1  0
 65 69  1  0
 66 65  1  0
 67 68  1  0
 67 66  1  0
 68 64  1  0
 69 70  2  0
 70 71  1  0
 72 71  2  0
 73 72  1  0
 74 48  1  0
 74 75  1  0
 74 84  1  0
 75 78  1  0
 76 80  1  0
 76 75  1  0
 77 76  2  0
 80 79  1  0
 82 80  1  0
 82 83  1  0
 82 81  1  0
 84 87  1  1
 84 85  1  0
 86 84  1  0
M  ISO  4   1 100  14 100  46 101  47 101
M  END
>  <TORSDO>  (61) 
F 17

>  <SCORE>  (61) 
-15.790

>  <name>  (61) 
61

>  <ligand_id>  (61) 
61

>  <original_smiles>  (61) 
[H]c1c([H])c([H])c2c(c1[H])C([H])([H])C([H])([H])C([H])([H])C2([H])N([H])C(=O)C1([H])N(C(=O)C([H])(N([H])C(=O)C([H])(N([H])C([H])([H])[H])C([H])([H])[H])C(C([H])([H])[H])(C([H])([H])[H])C([H])([H])[H])C([H])([H])c2c([H])c(OC([H])([H])C([H])([H])c3sc(N([H])C(=O)N4C([H])([H])C([H])([H])C([H])([H])C([H])(n5nc(-c6c([H])c([H])c(Oc7c([H])c([H])c(F)c([H])c7F)c([H])c6[H])c(C(=O)N([H])[H])c5N([H])[H])C4([H])[H])nc3C([H])([H])[H])c([H])c([H])c2C1([H])[H]

>  <smiles>  (61) 
[H]c1c([H])c([H])c2c(c1[H])C([H])([H])C([H])([H])C([H])([H])C2([H])N([H])C(=O)C1([H])N(C(=O)C([H])(N([H])C(=O)C([H])(N([H])C([H])([H])[H])C([H])([H])[H])C(C([H])([H])[H])(C([H])([H])[H])C([H])([H])[H])C([H])([H])c2c([H])c(OC([H])([H])C([H])([H])c3sc(N([H])C(=O)N4C([H])([H])C([H])([H])C([H])([H])C([H])(n5nc(-c6c([H])c([H])c(Oc7c([H])c([H])c(F)c([H])c7F)c([H])c6[H])c(C(=O)N([H])[H])c5N([H])[H])C4([H])[H])nc3C([H])([H])[H])c([H])c([H])c2C1([H])[H]

$$$$
62:0:0
     RDKit          3D

 98106  0  0  1  0  0  0  0  0999 V2000
  -27.8330  -20.0250   19.1590 C   0  0  0  0  0  2  0  0  0  0  0  0
  -28.1330  -20.5620   20.4110 C   0  0  0  0  0  2  0  0  0  0  0  0
  -28.9530  -19.7480   18.3590 C   0  0  0  0  0  3  0  0  0  0  0  0
  -29.4760  -20.5360   20.8760 C   0  0  0  0  0  3  0  0  0  0  0  0
  -29.9970  -18.9730   19.0570 C   0  0  0  0  0  0  0  0  0  0  0  0
  -30.3310  -19.5350   20.3140 C   0  0  0  0  0  0  0  0  0  0  0  0
  -31.7220  -18.9280   21.1520 Cl  0  0  0  0  0  0  0  0  0  0  0  0
  -31.3870  -22.1120   21.5770 C   0  0  0  0  0  1  0  0  0  0  0  0
  -29.8240  -21.0800   23.3060 C   0  0  0  0  0  1  0  0  0  0  0  0
  -29.0740  -22.8900   21.7710 C   0  0  0  0  0  1  0  0  0  0  0  0
  -29.9490  -21.6140   21.8770 C   0  0  2  0  0  0  0  0  0  0  0  0
  -30.6870  -17.5820   18.6050 C   0  0  0  0  0  2  0  0  0  0  0  0
  -31.1140  -15.0600   19.3460 C   0  0  0  0  0  0  0  0  0  0  0  0
  -30.9690  -12.5990   18.9420 C   0  0  0  0  0  2  0  0  0  0  0  0
  -30.0000  -12.3380   17.7700 C   0  0  0  0  0  2  0  0  0  0  0  0
  -28.5570  -12.2150   18.2860 C   0  0  0  0  0  2  0  0  0  0  0  0
  -28.1750  -13.3540   19.2690 C   0  0  0  0  0  3  0  0  0  0  0  0
  -29.2650  -13.5880   20.3380 C   0  0  0  0  0  2  0  0  0  0  0  0
  -30.5220  -13.8410   19.6160 N   0  0  0  0  0  0  0  0  0  0  0  0
  -32.3000  -15.0840   18.9970 O   0  0  0  0  0  0  0  0  0  0  0  0
  -30.3280  -16.2040   19.2270 N   0  0  0  0  0  0  0  0  0  0  0  0
  -29.3750  -16.1000   19.5390 H   0  0  0  0  0  0  0  0  0  0  0  0
  -25.9050  -14.0890   20.2020 C   0  0  0  0  0  0  0  0  0  0  0  0
  -24.8150  -13.3820   20.6290 C   0  0  0  0  0  0  0  0  0  0  0  0
  -25.1730  -12.0020   20.5280 C   0  0  0  0  0  0  0  0  0  0  0  0
  -26.8580  -13.1430   19.8600 N   0  0  0  0  0  0  0  0  0  0  0  0
  -26.4320  -11.8810   20.1230 N   0  0  0  0  0  0  0  0  0  0  0  0
  -24.3680  -10.7910   20.7380 C   0  0  0  0  0  0  0  0  0  0  0  0
  -24.7720   -9.7850   21.6430 C   0  0  0  0  0  3  0  0  0  0  0  0
  -23.9750   -8.6370   21.8430 C   0  0  0  0  0  3  0  0  0  0  0  0
  -22.7570   -8.4900   21.1370 C   0  0  0  0  0  0  0  0  0  0  0  0
  -22.3680   -9.4830   20.2200 C   0  0  0  0  0  3  0  0  0  0  0  0
  -23.1660  -10.6220   20.0200 C   0  0  0  0  0  3  0  0  0  0  0  0
  -21.9330   -7.3970   21.2480 O   0  0  0  0  0  0  0  0  0  0  0  0
  -21.8490   -6.6720   22.4110 C   0  0  0  0  0  0  0  0  0  0  0  0
  -21.4800   -7.2700   23.6360 C   0  0  0  0  0  3  0  0  0  0  0  0
  -21.3380   -6.4770   24.7920 C   0  0  0  0  0  3  0  0  0  0  0  0
  -21.5530   -5.0870   24.7240 C   0  0  0  0  0  0  0  0  0  0  0  0
  -21.9120   -4.4880   23.5050 C   0  0  0  0  0  3  0  0  0  0  0  0
  -22.0580   -5.2790   22.3510 C   0  0  0  0  0  0  0  0  0  0  0  0
  -22.3830   -4.6950   21.1730 F   0  0  0  0  0  0  0  0  0  0  0  0
  -21.4100   -4.3230   25.8320 F   0  0  0  0  0  0  0  0  0  0  0  0
  -23.4810  -13.9490   21.0180 C   0  0  0  0  0  0  0  0  0  0  0  0
  -22.7810  -13.2970   21.9410 N   0  0  0  0  0  0  0  0  0  0  0  0
  -23.0730  -15.0100   20.5470 O   0  0  0  0  0  0  0  0  0  0  0  0
  -23.1210  -12.4390   22.3480 H   0  0  0  0  0  0  0  0  0  0  0  0
  -21.8870  -13.6590   22.2390 H   0  0  0  0  0  0  0  0  0  0  0  0
  -26.1570  -15.4480   20.0450 N   0  0  0  0  0  0  0  0  0  0  0  0
  -25.4540  -16.1540   20.2350 H   0  0  0  0  0  0  0  0  0  0  0  0
  -27.0070  -15.8310   19.6510 H   0  0  0  0  0  0  0  0  0  0  0  0
  -29.1580  -20.9670   17.3350 C   0  0  0  0  0  2  0  0  0  0  0  0
  -29.3090  -22.4490   17.7850 N   0  0  0  0  0  4  0  0  0  0  0  0
  -29.9950  -22.8120   17.1380 H   0  0  0  0  0  0  0  0  0  0  0  0
  -29.7850  -22.4240   18.6740 H   0  0  0  0  0  0  0  0  0  0  0  0
  -28.1740  -23.5260   17.8420 C   0  0  0  0  0  2  0  0  0  0  0  0
  -28.0110  -25.4520   16.0300 C   0  0  0  0  0  1  0  0  0  0  0  0
  -28.4660  -25.0980   17.4520 C   0  0  0  0  0  3  0  0  0  0  0  0
  -28.2430  -26.3620   18.2560 O   0  0  0  0  0  0  0  0  0  0  0  0
  -24.8520  -30.9930   22.6410 C   0  0  0  0  0  0  0  0  0  0  0  0
  -27.0920  -27.1740   18.4170 C   0  0  0  0  0  0  0  0  0  0  0  0
  -23.4600  -29.9040   20.9250 C   0  0  0  0  0  3  0  0  0  0  0  0
  -24.7210  -28.6850   19.0470 C   0  0  0  0  0  0  0  0  0  0  0  0
  -25.9500  -30.3130   20.4920 C   0  0  0  0  0  2  0  0  0  0  0  0
  -25.9530  -29.0820   19.5810 C   0  0  0  0  0  0  0  0  0  0  0  0
  -27.1270  -28.3290   19.2700 C   0  0  0  0  0  3  0  0  0  0  0  0
  -25.8440  -26.8580   17.8510 C   0  0  0  0  0  3  0  0  0  0  0  0
  -24.6710  -27.5860   18.1640 C   0  0  0  0  0  3  0  0  0  0  0  0
  -23.4970  -29.5050   19.4290 C   0  0  0  0  0  2  0  0  0  0  0  0
  -24.7800  -30.4190   21.4060 N   0  0  0  0  0  0  0  0  0  0  0  0
  -23.8510  -31.1290   23.3590 O   0  0  0  0  0  0  0  0  0  0  0  0
  -22.9360  -28.7080   21.7580 C   0  0  0  0  0  0  0  0  0  0  0  0
  -21.6140  -28.4660   21.7010 N   0  0  0  0  0  0  0  0  0  0  0  0
  -23.7140  -28.0100   22.4180 O   0  0  0  0  0  0  0  0  0  0  0  0
  -21.0550  -29.0800   21.1300 H   0  0  0  0  0  0  0  0  0  0  0  0
  -18.3890  -26.8650   22.0840 C   0  0  0  0  0  0  0  0  0  0  0  0
  -20.9110  -27.3600   22.3520 C   0  0  0  0  0  3  0  0  0  0  0  0
  -21.1480  -26.0290   21.6010 C   0  0  0  0  0  2  0  0  0  0  0  0
  -20.0600  -25.7230   20.5700 C   0  0  0  0  0  2  0  0  0  0  0  0
  -18.6840  -25.6380   21.2380 C   0  0  0  0  0  2  0  0  0  0  0  0
  -19.4330  -27.6810   22.5910 C   0  0  0  0  0  0  0  0  0  0  0  0
  -19.1020  -28.8320   23.3430 C   0  0  0  0  0  3  0  0  0  0  0  0
  -17.7560  -29.1590   23.5890 C   0  0  0  0  0  3  0  0  0  0  0  0
  -16.7260  -28.3420   23.0910 C   0  0  0  0  0  3  0  0  0  0  0  0
  -17.0450  -27.1990   22.3380 C   0  0  0  0  0  3  0  0  0  0  0  0
  -26.2040  -31.5290   23.2120 C   0  0  0  0  0  3  0  0  0  0  0  0
  -25.9270  -32.7990   23.9060 N   0  0  0  0  0  0  0  0  0  0  0  0
  -26.1590  -34.0150   23.4000 C   0  0  0  0  0  0  0  0  0  0  0  0
  -26.7000  -34.1840   22.3050 O   0  0  0  0  0  0  0  0  0  0  0  0
  -25.4510  -32.7390   24.7950 H   0  0  0  0  0  0  0  0  0  0  0  0
  -24.3910  -35.7910   23.6690 C   0  0  0  0  0  1  0  0  0  0  0  0
  -25.7120  -35.2340   24.2260 C   0  0  0  0  0  3  0  0  0  0  0  0
  -27.9130  -35.9620   25.0370 C   0  0  0  0  0  1  0  0  0  0  0  0
  -26.7190  -36.3120   24.2780 N   0  0  0  0  0  0  0  0  0  0  0  0
  -26.3210  -37.1630   24.6650 H   0  0  0  0  0  0  0  0  0  0  0  0
  -26.9200  -30.5070   24.1820 C   0  0  1  0  0  0  0  0  0  0  0  0
  -26.0080  -29.9820   25.3130 C   0  0  0  0  0  1  0  0  0  0  0  0
  -27.4570  -29.2850   23.3990 C   0  0  0  0  0  1  0  0  0  0  0  0
  -28.1480  -31.1860   24.8310 C   0  0  0  0  0  1  0  0  0  0  0  0
  1  2  1  0
  2  4  1  0
  3 51  1  0
  3  5  1  0
  3  1  1  0
  4 11  1  0
  5  6  2  0
  6  4  1  0
  6  7  1  0
 11  8  1  6
 10 11  1  0
 11  9  1  0
 12  5  1  0
 12 21  1  0
 13 19  1  0
 14 19  1  0
 15 16  1  0
 15 14  1  0
 17 16  1  0
 17 26  1  0
 17 18  1  0
 19 18  1  0
 20 13  2  0
 21 13  1  0
 21 22  1  0
 23 24  2  0
 24 43  1  0
 25 24  1  0
 25 28  1  0
 26 27  1  0
 26 23  1  0
 27 25  2  0
 28 29  1  0
 29 30  2  0
 31 34  1  0
 31 30  1  0
 32 31  2  0
 33 32  1  0
 33 28  2  0
 34 35  1  0
 35 36  1  0
 36 37  2  0
 38 37  1  0
 38 42  1  0
 39 38  2  0
 40 35  2  0
 40 39  1  0
 41 40  1  0
 43 44  1  0
 44 47  1  0
 44 46  1  0
 45 43  2  0
 48 23  1  0
 48 49  1  0
 50 48  1  0
 51 52  1  0
 52 55  1  0
 52 54  1  0
 53 52  1  0
 57 56  1  0
 57 55  1  0
 57 58  1  0
 58 60  1  0
 59 70  2  0
 60 65  1  0
 61 69  1  0
 61 71  1  0
 62 68  1  0
 62 64  1  0
 63 69  1  0
 64 63  1  0
 65 64  2  0
 66 67  1  0
 66 60  2  0
 67 62  2  0
 68 61  1  0
 69 59  1  0
 71 73  2  0
 72 71  1  0
 74 72  1  0
 75 84  2  0
 75 80  1  0
 76 72  1  0
 76 80  1  0
 77 76  1  0
 78 79  1  0
 78 77  1  0
 79 75  1  0
 80 81  2  0
 81 82  1  0
 83 82  2  0
 84 83  1  0
 85 59  1  0
 85 86  1  0
 85 95  1  0
 86 89  1  0
 87 86  1  0
 87 91  1  0
 88 87  2  0
 91 90  1  0
 91 93  1  0
 93 94  1  0
 93 92  1  0
 95 98  1  1
 95 96  1  0
 97 95  1  0
M  ISO  4  13 100  21 100  57 101  58 101
M  END
>  <TORSDO>  (62) 
F 22

>  <SCORE>  (62) 
-10.593

>  <name>  (62) 
62

>  <ligand_id>  (62) 
62

>  <original_smiles>  (62) 
[H]c1c([H])c([H])c2c(c1[H])C([H])([H])C([H])([H])C([H])([H])C2([H])N([H])C(=O)C1([H])N(C(=O)C([H])(N([H])C(=O)C([H])(N([H])C([H])([H])[H])C([H])([H])[H])C(C([H])([H])[H])(C([H])([H])[H])C([H])([H])[H])C([H])([H])c2c([H])c(OC([H])(C([H])([H])[H])C([H])([H])[N+]([H])([H])C([H])([H])c3c([H])c([H])c(C(C([H])([H])[H])(C([H])([H])[H])C([H])([H])[H])c(Cl)c3C([H])([H])N([H])C(=O)N3C([H])([H])C([H])([H])C([H])([H])C([H])(n4nc(-c5c([H])c([H])c(Oc6c([H])c([H])c(F)c([H])c6F)c([H])c5[H])c(C(=O)N([H])[H])c4N([H])[H])C3([H])[H])c([H])c([H])c2C1([H])[H]

>  <smiles>  (62) 
[H]c1c([H])c([H])c2c(c1[H])C([H])([H])C([H])([H])C([H])([H])C2([H])N([H])C(=O)C1([H])N(C(=O)C([H])(N([H])C(=O)C([H])(N([H])C([H])([H])[H])C([H])([H])[H])C(C([H])([H])[H])(C([H])([H])[H])C([H])([H])[H])C([H])([H])c2c([H])c(OC([H])(C([H])([H])[H])C([H])([H])[N+]([H])([H])C([H])([H])c3c([H])c([H])c(C(C([H])([H])[H])(C([H])([H])[H])C([H])([H])[H])c(Cl)c3C([H])([H])N([H])C(=O)N3C([H])([H])C([H])([H])C([H])([H])C([H])(n4nc(-c5c([H])c([H])c(Oc6c([H])c([H])c(F)c([H])c6F)c([H])c5[H])c(C(=O)N([H])[H])c4N([H])[H])C3([H])[H])c([H])c([H])c2C1([H])[H]

$$$$
63:0:0
     RDKit          3D

105114  0  0  1  0  0  0  0  0999 V2000
  -29.8250  -22.2660   21.6240 C   0  0  0  0  0  0  0  0  0  0  0  0
  -29.2900  -23.5980   21.4440 C   0  0  0  0  0  0  0  0  0  0  0  0
  -29.7670  -21.2660   20.5850 C   0  0  0  0  0  0  0  0  0  0  0  0
  -29.1610  -21.6870   19.3590 C   0  0  0  0  0  0  0  0  0  0  0  0
  -28.7930  -24.0280   20.1840 C   0  0  0  0  0  0  0  0  0  0  0  0
  -28.7390  -23.0400   19.1560 C   0  0  0  0  0  0  0  0  0  0  0  0
  -30.4390  -21.9210   22.9850 C   0  0  0  0  0  1  0  0  0  0  0  0
  -29.2260  -24.5750   22.6150 C   0  0  0  0  0  1  0  0  0  0  0  0
  -27.0940  -23.8540   17.4880 C   0  0  0  0  0  0  0  0  0  0  0  0
  -28.3060  -23.4130   17.8490 N   0  0  0  0  0  0  0  0  0  0  0  0
  -26.1930  -24.1020   18.2950 O   0  0  0  0  0  0  0  0  0  0  0  0
  -28.9500  -23.2080   17.0980 H   0  0  0  0  0  0  0  0  0  0  0  0
  -26.8900  -24.0670   15.9820 C   0  0  0  0  0  2  0  0  0  0  0  0
  -25.6370  -24.9050   15.6480 C   0  0  0  0  0  2  0  0  0  0  0  0
  -24.6910  -26.5390   11.6590 C   0  0  0  0  0  2  0  0  0  0  0  0
  -23.5810  -25.8530   12.4680 C   0  0  0  0  0  2  0  0  0  0  0  0
  -26.0380  -25.8250   11.8460 C   0  0  0  0  0  2  0  0  0  0  0  0
  -23.9660  -25.7550   13.9530 C   0  0  0  0  0  2  0  0  0  0  0  0
  -26.4170  -25.7350   13.3360 C   0  0  0  0  0  2  0  0  0  0  0  0
  -25.3110  -25.0260   14.1470 C   0  0  0  0  0  3  0  0  0  0  0  0
  -27.4340  -20.1050   18.4300 C   0  0  0  0  0  1  0  0  0  0  0  0
  -28.8540  -20.6770   18.2550 C   0  0  0  0  0  2  0  0  0  0  0  0
  -30.4620  -19.8340   20.7540 C   0  0  0  0  0  2  0  0  0  0  0  0
  -29.7420  -18.4220   20.5340 C   0  0  0  0  0  2  0  0  0  0  0  0
  -30.4060  -17.2150   21.3180 C   0  0  0  0  0  2  0  0  0  0  0  0
  -30.6710  -14.7840   20.4800 C   0  0  0  0  0  0  0  0  0  0  0  0
  -30.4370  -12.5700   19.3700 C   0  0  0  0  0  2  0  0  0  0  0  0
  -29.4950  -12.6930   18.1530 C   0  0  0  0  0  2  0  0  0  0  0  0
  -28.0260  -12.5240   18.5830 C   0  0  0  0  0  2  0  0  0  0  0  0
  -27.6630  -13.4000   19.8110 C   0  0  0  0  0  3  0  0  0  0  0  0
  -28.7120  -13.2450   20.9320 C   0  0  0  0  0  2  0  0  0  0  0  0
  -30.0280  -13.5830   20.3620 N   0  0  0  0  0  0  0  0  0  0  0  0
  -31.8140  -14.9560   20.0450 O   0  0  0  0  0  0  0  0  0  0  0  0
  -29.9490  -15.8240   20.9880 N   0  0  0  0  0  0  0  0  0  0  0  0
  -29.0180  -15.5760   21.2880 H   0  0  0  0  0  0  0  0  0  0  0  0
  -25.2730  -14.0020   20.5410 C   0  0  0  0  0  0  0  0  0  0  0  0
  -24.2000  -13.2250   20.8910 C   0  0  0  0  0  0  0  0  0  0  0  0
  -24.6540  -11.8720   20.8290 C   0  0  0  0  0  0  0  0  0  0  0  0
  -26.3120  -13.1200   20.2890 N   0  0  0  0  0  0  0  0  0  0  0  0
  -25.9440  -11.8330   20.5210 N   0  0  0  0  0  0  0  0  0  0  0  0
  -23.9220  -10.6090   20.9930 C   0  0  0  0  0  0  0  0  0  0  0  0
  -24.3420   -9.6290   21.9190 C   0  0  0  0  0  3  0  0  0  0  0  0
  -23.6110   -8.4320   22.0680 C   0  0  0  0  0  3  0  0  0  0  0  0
  -22.4510   -8.2070   21.2900 C   0  0  0  0  0  0  0  0  0  0  0  0
  -22.0510   -9.1770   20.3570 C   0  0  0  0  0  3  0  0  0  0  0  0
  -22.7800  -10.3660   20.2050 C   0  0  0  0  0  3  0  0  0  0  0  0
  -21.6920   -7.0620   21.3510 O   0  0  0  0  0  0  0  0  0  0  0  0
  -21.6200   -6.3030   22.4930 C   0  0  0  0  0  0  0  0  0  0  0  0
  -21.1780   -6.8450   23.7210 C   0  0  0  0  0  3  0  0  0  0  0  0
  -21.0550   -6.0150   24.8530 C   0  0  0  0  0  3  0  0  0  0  0  0
  -21.3640   -4.6440   24.7590 C   0  0  0  0  0  0  0  0  0  0  0  0
  -21.8010   -4.1020   23.5370 C   0  0  0  0  0  3  0  0  0  0  0  0
  -21.9260   -4.9290   22.4060 C   0  0  0  0  0  0  0  0  0  0  0  0
  -22.3270   -4.3970   21.2260 F   0  0  0  0  0  0  0  0  0  0  0  0
  -21.2380   -3.8450   25.8450 F   0  0  0  0  0  0  0  0  0  0  0  0
  -22.8070  -13.7050   21.1770 C   0  0  0  0  0  0  0  0  0  0  0  0
  -22.0850  -13.0040   22.0450 N   0  0  0  0  0  0  0  0  0  0  0  0
  -22.3690  -14.7340   20.6650 O   0  0  0  0  0  0  0  0  0  0  0  0
  -22.4510  -12.1690   22.4750 H   0  0  0  0  0  0  0  0  0  0  0  0
  -21.1540  -13.3120   22.2820 H   0  0  0  0  0  0  0  0  0  0  0  0
  -25.4460  -15.3750   20.4000 N   0  0  0  0  0  0  0  0  0  0  0  0
  -24.6840  -16.0330   20.5380 H   0  0  0  0  0  0  0  0  0  0  0  0
  -26.3010  -15.8220   20.0900 H   0  0  0  0  0  0  0  0  0  0  0  0
  -28.0580  -25.3890   19.9080 C   0  0  0  0  0  2  0  0  0  0  0  0
  -28.2250  -26.6600   20.6310 O   0  0  0  0  0  0  0  0  0  0  0  0
  -24.7170  -32.2070   23.6240 C   0  0  0  0  0  0  0  0  0  0  0  0
  -27.1520  -27.5720   20.5370 C   0  0  0  0  0  0  0  0  0  0  0  0
  -23.4620  -30.8640   21.9810 C   0  0  0  0  0  3  0  0  0  0  0  0
  -24.8510  -29.2770   20.5440 C   0  0  0  0  0  0  0  0  0  0  0  0
  -26.0120  -31.0770   21.8100 C   0  0  0  0  0  2  0  0  0  0  0  0
  -26.0340  -29.7010   21.1610 C   0  0  0  0  0  0  0  0  0  0  0  0
  -27.1790  -28.8520   21.1700 C   0  0  0  0  0  3  0  0  0  0  0  0
  -25.9560  -27.2400   19.8410 C   0  0  0  0  0  3  0  0  0  0  0  0
  -24.8140  -28.0510   19.8750 C   0  0  0  0  0  3  0  0  0  0  0  0
  -23.6500  -30.1950   20.5970 C   0  0  0  0  0  2  0  0  0  0  0  0
  -24.7490  -31.4010   22.5270 N   0  0  0  0  0  0  0  0  0  0  0  0
  -23.6460  -32.5230   24.1630 O   0  0  0  0  0  0  0  0  0  0  0  0
  -22.7600  -29.8660   22.9320 C   0  0  0  0  0  0  0  0  0  0  0  0
  -21.4510  -29.6390   22.7100 N   0  0  0  0  0  0  0  0  0  0  0  0
  -23.3890  -29.3010   23.8300 O   0  0  0  0  0  0  0  0  0  0  0  0
  -21.0020  -30.1470   21.9610 H   0  0  0  0  0  0  0  0  0  0  0  0
  -18.1120  -28.2640   22.9210 C   0  0  0  0  0  0  0  0  0  0  0  0
  -20.6020  -28.7110   23.4530 C   0  0  0  0  0  3  0  0  0  0  0  0
  -20.8510  -27.2460   23.0220 C   0  0  0  0  0  2  0  0  0  0  0  0
  -19.8960  -26.7720   21.9180 C   0  0  0  0  0  2  0  0  0  0  0  0
  -18.4430  -26.8800   22.3900 C   0  0  0  0  0  2  0  0  0  0  0  0
  -19.1280  -29.1290   23.4080 C   0  0  0  0  0  0  0  0  0  0  0  0
  -18.7730  -30.4170   23.8610 C   0  0  0  0  0  3  0  0  0  0  0  0
  -17.4340  -30.8470   23.8310 C   0  0  0  0  0  3  0  0  0  0  0  0
  -16.4280  -29.9810   23.3630 C   0  0  0  0  0  3  0  0  0  0  0  0
  -16.7670  -28.6910   22.9170 C   0  0  0  0  0  3  0  0  0  0  0  0
  -26.0280  -32.7820   24.2460 C   0  0  0  0  0  3  0  0  0  0  0  0
  -26.4920  -32.0110   25.5430 C   0  0  1  0  0  0  0  0  0  0  0  0
  -25.3620  -31.7980   26.5780 C   0  0  0  0  0  1  0  0  0  0  0  0
  -27.0640  -30.6200   25.1830 C   0  0  0  0  0  1  0  0  0  0  0  0
  -27.6390  -32.7880   26.2300 C   0  0  0  0  0  1  0  0  0  0  0  0
  -25.7840  -34.2000   24.5430 N   0  0  0  0  0  0  0  0  0  0  0  0
  -26.1630  -35.2180   23.7570 C   0  0  0  0  0  0  0  0  0  0  0  0
  -26.8180  -35.0570   22.7230 O   0  0  0  0  0  0  0  0  0  0  0  0
  -25.1970  -34.3980   25.3410 H   0  0  0  0  0  0  0  0  0  0  0  0
  -24.5090  -37.0820   23.3880 C   0  0  0  0  0  1  0  0  0  0  0  0
  -25.7470  -36.6390   24.1840 C   0  0  0  0  0  3  0  0  0  0  0  0
  -27.9350  -37.4460   24.9570 C   0  0  0  0  0  1  0  0  0  0  0  0
  -26.8240  -37.6410   24.0290 N   0  0  0  0  0  0  0  0  0  0  0  0
  -26.4630  -38.5810   24.1630 H   0  0  0  0  0  0  0  0  0  0  0  0
  1  7  1  0
  2  1  1  0
  2  8  1  0
  3 23  1  0
  3  1  2  0
  4  3  1  0
  5  2  2  0
  6  4  2  0
  6  5  1  0
  9 10  1  0
  9 11  2  0
 10  6  1  0
 12 10  1  0
 13  9  1  0
 14 13  1  0
 15 17  1  0
 15 16  1  0
 16 18  1  0
 17 19  1  0
 18 20  1  0
 19 20  1  0
 20 14  1  0
 22 21  1  0
 22  4  1  0
 24 23  1  0
 24 25  1  0
 26 34  1  0
 27 32  1  0
 28 29  1  0
 28 27  1  0
 30 29  1  0
 30 39  1  0
 30 31  1  0
 32 26  1  0
 32 31  1  0
 33 26  2  0
 34 35  1  0
 34 25  1  0
 36 37  2  0
 37 56  1  0
 38 37  1  0
 38 41  1  0
 39 40  1  0
 39 36  1  0
 40 38  2  0
 41 42  1  0
 42 43  2  0
 44 47  1  0
 44 43  1  0
 45 44  2  0
 46 45  1  0
 46 41  2  0
 47 48  1  0
 48 49  1  0
 49 50  2  0
 51 50  1  0
 51 55  1  0
 52 51  2  0
 53 48  2  0
 53 52  1  0
 54 53  1  0
 56 57  1  0
 57 60  1  0
 57 59  1  0
 58 56  2  0
 61 62  1  0
 61 36  1  0
 63 61  1  0
 64  5  1  0
 64 65  1  0
 66 77  2  0
 67 65  1  0
 67 72  1  0
 68 76  1  0
 68 78  1  0
 69 75  1  0
 69 71  1  0
 70 76  1  0
 71 72  2  0
 71 70  1  0
 73 74  1  0
 73 67  2  0
 74 69  2  0
 75 68  1  0
 76 66  1  0
 78 80  2  0
 79 78  1  0
 81 79  1  0
 82 87  1  0
 83 79  1  0
 84 83  1  0
 85 86  1  0
 85 84  1  0
 86 82  1  0
 87 83  1  0
 87 88  2  0
 89 88  1  0
 90 89  2  0
 91 82  2  0
 91 90  1  0
 92 66  1  0
 92 97  1  0
 92 93  1  0
 93 96  1  1
 93 94  1  0
 95 93  1  0
 97100  1  0
 98102  1  0
 98 97  1  0
 99 98  2  0
102101  1  0
104105  1  0
104102  1  0
104103  1  0
M  ISO  4  26 100  34 100  64 101  65 101
M  END
>  <TORSDO>  (63) 
F 25

>  <SCORE>  (63) 
-11.266

>  <name>  (63) 
63

>  <ligand_id>  (63) 
63

>  <original_smiles>  (63) 
[H]c1c([H])c([H])c2c(c1[H])C([H])([H])C([H])([H])C([H])([H])C2([H])N([H])C(=O)C1([H])N(C(=O)C([H])(N([H])C(=O)C([H])(N([H])C([H])([H])[H])C([H])([H])[H])C(C([H])([H])[H])(C([H])([H])[H])C([H])([H])[H])C([H])([H])c2c([H])c(OC([H])([H])c3c(N([H])C(=O)C([H])([H])C([H])([H])C4([H])C([H])([H])C([H])([H])C([H])([H])C([H])([H])C4([H])[H])c(C([H])([H])C([H])([H])[H])c(C([H])([H])C([H])([H])C([H])([H])N([H])C(=O)N4C([H])([H])C([H])([H])C([H])([H])C([H])(n5nc(-c6c([H])c([H])c(Oc7c([H])c([H])c(F)c([H])c7F)c([H])c6[H])c(C(=O)N([H])[H])c5N([H])[H])C4([H])[H])c(C([H])([H])[H])c3C([H])([H])[H])c([H])c([H])c2C1([H])[H]

>  <smiles>  (63) 
[H]c1c([H])c([H])c2c(c1[H])C([H])([H])C([H])([H])C([H])([H])C2([H])N([H])C(=O)C1([H])N(C(=O)C([H])(N([H])C(=O)C([H])(N([H])C([H])([H])[H])C([H])([H])[H])C(C([H])([H])[H])(C([H])([H])[H])C([H])([H])[H])C([H])([H])c2c([H])c(OC([H])([H])c3c(N([H])C(=O)C([H])([H])C([H])([H])C4([H])C([H])([H])C([H])([H])C([H])([H])C([H])([H])C4([H])[H])c(C([H])([H])C([H])([H])[H])c(C([H])([H])C([H])([H])C([H])([H])N([H])C(=O)N4C([H])([H])C([H])([H])C([H])([H])C([H])(n5nc(-c6c([H])c([H])c(Oc7c([H])c([H])c(F)c([H])c7F)c([H])c6[H])c(C(=O)N([H])[H])c5N([H])[H])C4([H])[H])c(C([H])([H])[H])c3C([H])([H])[H])c([H])c([H])c2C1([H])[H]

$$$$
64:0:0
     RDKit          3D

 95103  0  0  1  0  0  0  0  0999 V2000
  -28.6720  -24.0160   21.7180 C   0  0  0  0  0  0  0  0  0  0  0  0
  -28.7260  -25.0380   20.7300 C   0  0  0  0  0  0  0  0  0  0  0  0
  -28.9630  -22.8470   21.0740 C   0  0  0  0  0  0  0  0  0  0  0  0
  -29.5730  -22.3400   18.6460 C   0  0  0  0  0  1  0  0  0  0  0  0
  -29.0470  -24.5260   19.5430 N   0  0  0  0  0  0  0  0  0  0  0  0
  -29.1890  -23.1940   19.7530 N   0  0  0  0  0  0  0  0  0  0  0  0
  -28.2910  -24.2240   23.3920 Cl  0  0  0  0  0  0  0  0  0  0  0  0
  -29.0610  -21.5150   21.4720 N   0  0  0  0  0  0  0  0  0  0  0  0
  -28.9270  -20.8410   20.7290 H   0  0  0  0  0  0  0  0  0  0  0  0
  -30.0490  -21.1380   22.4710 C   0  0  0  0  0  2  0  0  0  0  0  0
  -30.2600  -19.6160   22.4900 C   0  0  0  0  0  2  0  0  0  0  0  0
  -30.9490  -19.0960   21.2170 C   0  0  0  0  0  2  0  0  0  0  0  0
  -31.2980  -17.6030   21.2770 C   0  0  0  0  0  2  0  0  0  0  0  0
  -32.1410  -17.1780   20.0670 C   0  0  0  0  0  2  0  0  0  0  0  0
  -32.7840  -15.7910   20.2150 C   0  0  0  0  0  2  0  0  0  0  0  0
  -31.8500  -13.7740   19.0960 C   0  0  0  0  0  0  0  0  0  0  0  0
  -31.2460  -11.4270   18.6480 C   0  0  0  0  0  2  0  0  0  0  0  0
  -30.1710  -11.2640   17.5620 C   0  0  0  0  0  2  0  0  0  0  0  0
  -28.7660  -11.3570   18.1800 C   0  0  0  0  0  2  0  0  0  0  0  0
  -28.5970  -12.6130   19.0690 C   0  0  0  0  0  3  0  0  0  0  0  0
  -29.7660  -12.7520   20.0710 C   0  0  0  0  0  2  0  0  0  0  0  0
  -31.0420  -12.7110   19.3300 N   0  0  0  0  0  0  0  0  0  0  0  0
  -32.6850  -13.8110   18.1860 O   0  0  0  0  0  0  0  0  0  0  0  0
  -31.8160  -14.7080   20.0520 N   0  0  0  0  0  0  0  0  0  0  0  0
  -31.1460  -14.5670   20.7950 H   0  0  0  0  0  0  0  0  0  0  0  0
  -26.5340  -13.6750   20.1850 C   0  0  0  0  0  0  0  0  0  0  0  0
  -25.3830  -13.1280   20.6880 C   0  0  0  0  0  0  0  0  0  0  0  0
  -25.5110  -11.7150   20.5190 C   0  0  0  0  0  0  0  0  0  0  0  0
  -27.3030  -12.6080   19.7500 N   0  0  0  0  0  0  0  0  0  0  0  0
  -26.6970  -11.4180   20.0030 N   0  0  0  0  0  0  0  0  0  0  0  0
  -24.5520  -10.6310   20.7640 C   0  0  0  0  0  0  0  0  0  0  0  0
  -24.8500   -9.5670   21.6440 C   0  0  0  0  0  3  0  0  0  0  0  0
  -23.9040   -8.5460   21.8800 C   0  0  0  0  0  3  0  0  0  0  0  0
  -22.6450   -8.5820   21.2350 C   0  0  0  0  0  0  0  0  0  0  0  0
  -22.3610   -9.6320   20.3440 C   0  0  0  0  0  3  0  0  0  0  0  0
  -23.3050  -10.6460   20.1080 C   0  0  0  0  0  3  0  0  0  0  0  0
  -21.6750   -7.6200   21.3830 O   0  0  0  0  0  0  0  0  0  0  0  0
  -21.5320   -6.9150   22.5510 C   0  0  0  0  0  0  0  0  0  0  0  0
  -21.2970   -7.5580   23.7860 C   0  0  0  0  0  3  0  0  0  0  0  0
  -21.0870   -6.7900   24.9490 C   0  0  0  0  0  3  0  0  0  0  0  0
  -21.1020   -5.3840   24.8790 C   0  0  0  0  0  0  0  0  0  0  0  0
  -21.3300   -4.7430   23.6480 C   0  0  0  0  0  3  0  0  0  0  0  0
  -21.5410   -5.5070   22.4870 C   0  0  0  0  0  0  0  0  0  0  0  0
  -21.7390   -4.8840   21.3000 F   0  0  0  0  0  0  0  0  0  0  0  0
  -20.8920   -4.6480   25.9950 F   0  0  0  0  0  0  0  0  0  0  0  0
  -24.1900  -13.8770   21.2070 C   0  0  0  0  0  0  0  0  0  0  0  0
  -23.4830  -13.3080   22.1780 N   0  0  0  0  0  0  0  0  0  0  0  0
  -23.9040  -14.9970   20.7860 O   0  0  0  0  0  0  0  0  0  0  0  0
  -23.7250  -12.3960   22.5360 H   0  0  0  0  0  0  0  0  0  0  0  0
  -22.6880  -13.7940   22.5660 H   0  0  0  0  0  0  0  0  0  0  0  0
  -26.9810  -14.9850   20.0470 N   0  0  0  0  0  0  0  0  0  0  0  0
  -26.4180  -15.7840   20.3200 H   0  0  0  0  0  0  0  0  0  0  0  0
  -27.8620  -15.2490   19.6230 H   0  0  0  0  0  0  0  0  0  0  0  0
  -28.5120  -26.5200   20.8770 C   0  0  0  0  0  2  0  0  0  0  0  0
  -28.0100  -27.1050   19.6730 O   0  0  0  0  0  0  0  0  0  0  0  0
  -24.5810  -32.0130   23.5030 C   0  0  0  0  0  0  0  0  0  0  0  0
  -26.8710  -27.8450   19.8490 C   0  0  0  0  0  0  0  0  0  0  0  0
  -23.2240  -30.8230   21.8080 C   0  0  0  0  0  3  0  0  0  0  0  0
  -24.5330  -29.3840   20.1570 C   0  0  0  0  0  0  0  0  0  0  0  0
  -25.7400  -31.1250   21.4860 C   0  0  0  0  0  2  0  0  0  0  0  0
  -25.7370  -29.8210   20.7220 C   0  0  0  0  0  0  0  0  0  0  0  0
  -26.9120  -29.0560   20.5700 C   0  0  0  0  0  3  0  0  0  0  0  0
  -25.6580  -27.4100   19.2790 C   0  0  0  0  0  3  0  0  0  0  0  0
  -24.4860  -28.1750   19.4360 C   0  0  0  0  0  3  0  0  0  0  0  0
  -23.3250  -30.2700   20.3600 C   0  0  0  0  0  2  0  0  0  0  0  0
  -24.5380  -31.3270   22.3260 N   0  0  0  0  0  0  0  0  0  0  0  0
  -23.5470  -32.2670   24.1330 O   0  0  0  0  0  0  0  0  0  0  0  0
  -22.5920  -29.7350   22.7030 C   0  0  0  0  0  0  0  0  0  0  0  0
  -21.2700  -29.5480   22.5680 N   0  0  0  0  0  0  0  0  0  0  0  0
  -23.2880  -29.0640   23.4710 O   0  0  0  0  0  0  0  0  0  0  0  0
  -20.7700  -30.1460   21.9240 H   0  0  0  0  0  0  0  0  0  0  0  0
  -17.9330  -28.2080   22.9020 C   0  0  0  0  0  0  0  0  0  0  0  0
  -20.4650  -28.5550   23.2790 C   0  0  0  0  0  3  0  0  0  0  0  0
  -20.6460  -27.1480   22.6630 C   0  0  0  0  0  2  0  0  0  0  0  0
  -19.5940  -26.8170   21.5980 C   0  0  0  0  0  2  0  0  0  0  0  0
  -18.1860  -26.8880   22.1940 C   0  0  0  0  0  2  0  0  0  0  0  0
  -19.0030  -28.9980   23.3980 C   0  0  0  0  0  0  0  0  0  0  0  0
  -18.7130  -30.2340   24.0160 C   0  0  0  0  0  3  0  0  0  0  0  0
  -17.3840  -30.6800   24.1460 C   0  0  0  0  0  3  0  0  0  0  0  0
  -16.3270  -29.8850   23.6680 C   0  0  0  0  0  3  0  0  0  0  0  0
  -16.6020  -28.6510   23.0510 C   0  0  0  0  0  3  0  0  0  0  0  0
  -25.9270  -32.5320   24.1000 C   0  0  0  0  0  3  0  0  0  0  0  0
  -25.7050  -33.9070   24.5630 N   0  0  0  0  0  0  0  0  0  0  0  0
  -26.1070  -35.0030   23.9080 C   0  0  0  0  0  0  0  0  0  0  0  0
  -26.7750  -34.9590   22.8710 O   0  0  0  0  0  0  0  0  0  0  0  0
  -25.1170  -34.0210   25.3750 H   0  0  0  0  0  0  0  0  0  0  0  0
  -24.5010  -36.9260   23.7140 C   0  0  0  0  0  1  0  0  0  0  0  0
  -25.7020  -36.3670   24.4950 C   0  0  0  0  0  3  0  0  0  0  0  0
  -27.8810  -37.0190   25.4210 C   0  0  0  0  0  1  0  0  0  0  0  0
  -26.8000  -37.3580   24.4980 N   0  0  0  0  0  0  0  0  0  0  0  0
  -26.4510  -38.2800   24.7460 H   0  0  0  0  0  0  0  0  0  0  0  0
  -26.4780  -31.6280   25.2700 C   0  0  1  0  0  0  0  0  0  0  0  0
  -25.4290  -31.3130   26.3610 C   0  0  0  0  0  1  0  0  0  0  0  0
  -27.0020  -30.2820   24.7170 C   0  0  0  0  0  1  0  0  0  0  0  0
  -27.6810  -32.3250   25.9500 C   0  0  0  0  0  1  0  0  0  0  0  0
  1  7  1  0
  2 54  1  0
  2  1  1  0
  3  8  1  0
  3  1  2  0
  4  6  1  0
  5  6  1  0
  5  2  2  0
  6  3  1  0
  8 10  1  0
  9  8  1  0
 10 11  1  0
 12 13  1  0
 12 11  1  0
 14 15  1  0
 14 13  1  0
 16 22  1  0
 16 24  1  0
 17 22  1  0
 18 19  1  0
 18 17  1  0
 20 19  1  0
 20 29  1  0
 20 21  1  0
 22 21  1  0
 23 16  2  0
 24 15  1  0
 24 25  1  0
 26 27  2  0
 27 46  1  0
 28 27  1  0
 28 31  1  0
 29 30  1  0
 29 26  1  0
 30 28  2  0
 31 32  1  0
 32 33  2  0
 34 37  1  0
 34 33  1  0
 35 34  2  0
 36 35  1  0
 36 31  2  0
 37 38  1  0
 38 39  1  0
 39 40  2  0
 41 40  1  0
 41 45  1  0
 42 41  2  0
 43 38  2  0
 43 42  1  0
 44 43  1  0
 46 47  1  0
 47 49  1  0
 47 50  1  0
 48 46  2  0
 51 26  1  0
 51 52  1  0
 53 51  1  0
 55 57  1  0
 55 54  1  0
 56 67  2  0
 57 62  1  0
 58 66  1  0
 58 68  1  0
 59 65  1  0
 59 61  1  0
 60 66  1  0
 61 60  1  0
 62 61  2  0
 63 64  1  0
 63 57  2  0
 64 59  2  0
 65 58  1  0
 66 56  1  0
 68 70  2  0
 69 68  1  0
 71 69  1  0
 72 81  2  0
 72 77  1  0
 73 69  1  0
 73 77  1  0
 74 73  1  0
 75 76  1  0
 75 74  1  0
 76 72  1  0
 77 78  2  0
 78 79  1  0
 80 79  2  0
 81 80  1  0
 82 56  1  0
 82 83  1  0
 82 92  1  0
 83 86  1  0
 84 88  1  0
 84 83  1  0
 85 84  2  0
 88 87  1  0
 88 90  1  0
 90 91  1  0
 90 89  1  0
 92 95  1  1
 92 93  1  0
 94 92  1  0
M  ISO  4  16 100  24 100  54 101  55 101
M  END
>  <TORSDO>  (64) 
F 24

>  <SCORE>  (64) 
-9.434

>  <name>  (64) 
64

>  <ligand_id>  (64) 
64

>  <original_smiles>  (64) 
[H]c1c([H])c([H])c2c(c1[H])C([H])([H])C([H])([H])C([H])([H])C2([H])N([H])C(=O)C1([H])N(C(=O)C([H])(N([H])C(=O)C([H])(N([H])C([H])([H])[H])C([H])([H])[H])C(C([H])([H])[H])(C([H])([H])[H])C([H])([H])[H])C([H])([H])c2c([H])c(OC([H])([H])c3nn(C([H])([H])[H])c(N([H])C([H])([H])C([H])([H])C([H])([H])C([H])([H])C([H])([H])C([H])([H])N([H])C(=O)N4C([H])([H])C([H])([H])C([H])([H])C([H])(n5nc(-c6c([H])c([H])c(Oc7c([H])c([H])c(F)c([H])c7F)c([H])c6[H])c(C(=O)N([H])[H])c5N([H])[H])C4([H])[H])c3Cl)c([H])c([H])c2C1([H])[H]

>  <smiles>  (64) 
[H]c1c([H])c([H])c2c(c1[H])C([H])([H])C([H])([H])C([H])([H])C2([H])N([H])C(=O)C1([H])N(C(=O)C([H])(N([H])C(=O)C([H])(N([H])C([H])([H])[H])C([H])([H])[H])C(C([H])([H])[H])(C([H])([H])[H])C([H])([H])[H])C([H])([H])c2c([H])c(OC([H])([H])c3nn(C([H])([H])[H])c(N([H])C([H])([H])C([H])([H])C([H])([H])C([H])([H])C([H])([H])C([H])([H])N([H])C(=O)N4C([H])([H])C([H])([H])C([H])([H])C([H])(n5nc(-c6c([H])c([H])c(Oc7c([H])c([H])c(F)c([H])c7F)c([H])c6[H])c(C(=O)N([H])[H])c5N([H])[H])C4([H])[H])c3Cl)c([H])c([H])c2C1([H])[H]

$$$$
65:0:0
     RDKit          3D

 90 98  0  0  1  0  0  0  0  0999 V2000
  -28.9600  -21.3160   17.9280 C   0  0  0  0  0  3  0  0  0  0  0  0
  -28.7970  -22.7560   19.9540 C   0  0  0  0  0  0  0  0  0  0  0  0
  -29.4520  -19.9970   19.9900 C   0  0  0  0  0  0  0  0  0  0  0  0
  -28.7240  -22.5700   18.5570 C   0  0  0  0  0  0  0  0  0  0  0  0
  -29.2970  -20.0990   18.5860 C   0  0  0  0  0  0  0  0  0  0  0  0
  -29.1750  -21.3970   20.6240 C   0  0  0  0  0  0  0  0  0  0  0  0
  -28.3780  -23.6220   17.7760 F   0  0  0  0  0  0  0  0  0  0  0  0
  -29.5620  -18.7080   17.5940 Cl  0  0  0  0  0  0  0  0  0  0  0  0
  -29.3010  -21.4470   22.3450 Cl  0  0  0  0  0  0  0  0  0  0  0  0
  -30.0560  -18.4510   20.6250 C   0  0  0  0  0  2  0  0  0  0  0  0
  -30.6650  -15.5080   20.3300 C   0  0  0  0  0  0  0  0  0  0  0  0
  -30.7060  -13.0260   19.5100 C   0  0  0  0  0  2  0  0  0  0  0  0
  -29.8200  -12.7280   18.2730 C   0  0  0  0  0  2  0  0  0  0  0  0
  -28.3670  -12.4440   18.6940 C   0  0  0  0  0  2  0  0  0  0  0  0
  -27.8700  -13.4450   19.7640 C   0  0  0  0  0  3  0  0  0  0  0  0
  -28.8890  -13.6680   20.9010 C   0  0  0  0  0  2  0  0  0  0  0  0
  -30.1110  -14.1910   20.2660 N   0  0  0  0  0  0  0  0  0  0  0  0
  -31.9010  -15.4930   20.2220 O   0  0  0  0  0  0  0  0  0  0  0  0
  -29.8860  -16.7890   20.3220 N   0  0  0  0  0  0  0  0  0  0  0  0
  -28.9070  -16.5630   20.2400 H   0  0  0  0  0  0  0  0  0  0  0  0
  -25.4870  -14.0030   20.4700 C   0  0  0  0  0  0  0  0  0  0  0  0
  -24.4190  -13.2290   20.8230 C   0  0  0  0  0  0  0  0  0  0  0  0
  -24.8890  -11.8790   20.8150 C   0  0  0  0  0  0  0  0  0  0  0  0
  -26.5350  -13.1280   20.2550 N   0  0  0  0  0  0  0  0  0  0  0  0
  -26.1870  -11.8450   20.5330 N   0  0  0  0  0  0  0  0  0  0  0  0
  -24.1590  -10.6180   20.9990 C   0  0  0  0  0  0  0  0  0  0  0  0
  -24.5580   -9.6640   21.9620 C   0  0  0  0  0  3  0  0  0  0  0  0
  -23.8250   -8.4700   22.1340 C   0  0  0  0  0  3  0  0  0  0  0  0
  -22.6790   -8.2200   21.3420 C   0  0  0  0  0  0  0  0  0  0  0  0
  -22.2990   -9.1620   20.3700 C   0  0  0  0  0  3  0  0  0  0  0  0
  -23.0330  -10.3470   20.1950 C   0  0  0  0  0  3  0  0  0  0  0  0
  -21.9200   -7.0770   21.4230 O   0  0  0  0  0  0  0  0  0  0  0  0
  -21.8200   -6.3610   22.5890 C   0  0  0  0  0  0  0  0  0  0  0  0
  -21.3060   -6.9330   23.7730 C   0  0  0  0  0  3  0  0  0  0  0  0
  -21.1540   -6.1420   24.9290 C   0  0  0  0  0  3  0  0  0  0  0  0
  -21.5050   -4.7800   24.9010 C   0  0  0  0  0  0  0  0  0  0  0  0
  -22.0130   -4.2070   23.7220 C   0  0  0  0  0  3  0  0  0  0  0  0
  -22.1650   -4.9950   22.5680 C   0  0  0  0  0  0  0  0  0  0  0  0
  -22.6340   -4.4320   21.4280 F   0  0  0  0  0  0  0  0  0  0  0  0
  -21.3530   -4.0170   26.0100 F   0  0  0  0  0  0  0  0  0  0  0  0
  -23.0140  -13.7060   21.0500 C   0  0  0  0  0  0  0  0  0  0  0  0
  -22.2660  -13.0220   21.9090 N   0  0  0  0  0  0  0  0  0  0  0  0
  -22.5900  -14.7230   20.5030 O   0  0  0  0  0  0  0  0  0  0  0  0
  -22.6240  -12.2010   22.3740 H   0  0  0  0  0  0  0  0  0  0  0  0
  -21.3230  -13.3260   22.1050 H   0  0  0  0  0  0  0  0  0  0  0  0
  -25.6470  -15.3730   20.2810 N   0  0  0  0  0  0  0  0  0  0  0  0
  -24.8710  -16.0200   20.3630 H   0  0  0  0  0  0  0  0  0  0  0  0
  -26.4870  -15.8100   19.9250 H   0  0  0  0  0  0  0  0  0  0  0  0
  -28.2550  -24.3330   20.5570 C   0  0  0  0  0  2  0  0  0  0  0  0
  -28.4090  -25.9300   20.0880 O   0  0  0  0  0  0  0  0  0  0  0  0
  -24.6980  -31.8710   23.1090 C   0  0  0  0  0  0  0  0  0  0  0  0
  -27.3740  -27.0210   20.1080 C   0  0  0  0  0  0  0  0  0  0  0  0
  -23.5490  -30.4610   21.4530 C   0  0  0  0  0  3  0  0  0  0  0  0
  -25.0420  -28.8810   20.0450 C   0  0  0  0  0  0  0  0  0  0  0  0
  -26.1150  -30.7120   21.3350 C   0  0  0  0  0  2  0  0  0  0  0  0
  -26.2200  -29.3010   20.6770 C   0  0  0  0  0  0  0  0  0  0  0  0
  -27.3830  -28.3960   20.6760 C   0  0  0  0  0  3  0  0  0  0  0  0
  -26.1590  -26.7610   19.4350 C   0  0  0  0  0  3  0  0  0  0  0  0
  -25.0390  -27.6320   19.4030 C   0  0  0  0  0  3  0  0  0  0  0  0
  -23.8080  -29.7850   20.0790 C   0  0  0  0  0  2  0  0  0  0  0  0
  -24.8090  -31.0430   22.0190 N   0  0  0  0  0  0  0  0  0  0  0  0
  -23.5970  -32.1380   23.6190 O   0  0  0  0  0  0  0  0  0  0  0  0
  -22.8620  -29.4490   22.4080 C   0  0  0  0  0  0  0  0  0  0  0  0
  -21.5350  -29.2620   22.2710 N   0  0  0  0  0  0  0  0  0  0  0  0
  -23.5290  -28.8330   23.2420 O   0  0  0  0  0  0  0  0  0  0  0  0
  -21.0480  -29.8110   21.5760 H   0  0  0  0  0  0  0  0  0  0  0  0
  -18.1700  -27.9880   22.7460 C   0  0  0  0  0  0  0  0  0  0  0  0
  -20.7220  -28.3050   23.0290 C   0  0  0  0  0  3  0  0  0  0  0  0
  -20.8560  -26.8780   22.4470 C   0  0  0  0  0  2  0  0  0  0  0  0
  -19.7680  -26.5400   21.4220 C   0  0  0  0  0  2  0  0  0  0  0  0
  -18.3790  -26.6500   22.0580 C   0  0  0  0  0  2  0  0  0  0  0  0
  -19.2700  -28.7730   23.1880 C   0  0  0  0  0  0  0  0  0  0  0  0
  -19.0180  -30.0210   23.7950 C   0  0  0  0  0  3  0  0  0  0  0  0
  -17.7010  -30.4890   23.9620 C   0  0  0  0  0  3  0  0  0  0  0  0
  -16.6160  -29.7040   23.5340 C   0  0  0  0  0  3  0  0  0  0  0  0
  -16.8520  -28.4550   22.9330 C   0  0  0  0  0  3  0  0  0  0  0  0
  -25.9480  -32.5380   23.7590 C   0  0  0  0  0  3  0  0  0  0  0  0
  -25.5950  -33.9260   24.1050 N   0  0  0  0  0  0  0  0  0  0  0  0
  -25.9140  -35.0050   23.3780 C   0  0  0  0  0  0  0  0  0  0  0  0
  -26.5980  -34.9370   22.3540 O   0  0  0  0  0  0  0  0  0  0  0  0
  -24.9860  -34.0500   24.9010 H   0  0  0  0  0  0  0  0  0  0  0  0
  -24.1630  -36.7850   23.0380 C   0  0  0  0  0  1  0  0  0  0  0  0
  -25.3970  -36.3760   23.8610 C   0  0  0  0  0  3  0  0  0  0  0  0
  -27.4960  -37.2840   24.7560 C   0  0  0  0  0  1  0  0  0  0  0  0
  -26.4130  -37.4500   23.7910 N   0  0  0  0  0  0  0  0  0  0  0  0
  -25.9870  -38.3600   23.9440 H   0  0  0  0  0  0  0  0  0  0  0  0
  -26.4580  -31.7740   25.0450 C   0  0  1  0  0  0  0  0  0  0  0  0
  -25.3520  -31.5120   26.0950 C   0  0  0  0  0  1  0  0  0  0  0  0
  -27.0740  -30.4080   24.6680 C   0  0  0  0  0  1  0  0  0  0  0  0
  -27.5820  -32.5890   25.7260 C   0  0  0  0  0  1  0  0  0  0  0  0
  1  4  2  0
  1  5  1  0
  2 49  1  0
  2  6  2  0
  3  6  1  0
  3 10  1  0
  4  2  1  0
  5  3  2  0
  6  9  1  0
  7  4  1  0
  8  5  1  0
 12 17  1  0
 13 14  1  0
 13 12  1  0
 15 14  1  0
 15 24  1  0
 15 16  1  0
 17 11  1  0
 17 16  1  0
 18 11  2  0
 19 11  1  0
 19 10  1  0
 20 19  1  0
 21 22  2  0
 22 41  1  0
 23 22  1  0
 23 26  1  0
 24 21  1  0
 24 25  1  0
 25 23  2  0
 26 27  1  0
 27 28  2  0
 29 32  1  0
 29 28  1  0
 30 29  2  0
 31 30  1  0
 31 26  2  0
 32 33  1  0
 33 34  1  0
 34 35  2  0
 36 35  1  0
 36 40  1  0
 37 36  2  0
 38 33  2  0
 38 37  1  0
 39 38  1  0
 41 42  1  0
 42 45  1  0
 42 44  1  0
 43 41  2  0
 46 47  1  0
 46 21  1  0
 48 46  1  0
 50 52  1  0
 50 49  1  0
 51 62  2  0
 52 57  1  0
 53 61  1  0
 53 63  1  0
 54 60  1  0
 54 56  1  0
 55 61  1  0
 56 55  1  0
 57 56  2  0
 58 52  2  0
 59 58  1  0
 59 54  2  0
 60 53  1  0
 61 51  1  0
 63 65  2  0
 64 63  1  0
 66 64  1  0
 67 76  2  0
 67 72  1  0
 68 64  1  0
 68 72  1  0
 69 68  1  0
 70 71  1  0
 70 69  1  0
 71 67  1  0
 72 73  2  0
 73 74  1  0
 75 74  2  0
 76 75  1  0
 77 51  1  0
 77 78  1  0
 77 87  1  0
 78 81  1  0
 79 83  1  0
 79 78  1  0
 80 79  2  0
 83 82  1  0
 85 83  1  0
 85 86  1  0
 85 84  1  0
 87 90  1  1
 87 88  1  0
 89 87  1  0
M  ISO  4  11 100  19 100  49 101  50 101
M  END
>  <TORSDO>  (65) 
F 18

>  <SCORE>  (65) 
-16.695

>  <name>  (65) 
65

>  <ligand_id>  (65) 
65

>  <original_smiles>  (65) 
[H]c1c([H])c([H])c2c(c1[H])C([H])([H])C([H])([H])C([H])([H])C2([H])N([H])C(=O)C1([H])N(C(=O)C([H])(N([H])C(=O)C([H])(N([H])C([H])([H])[H])C([H])([H])[H])C(C([H])([H])[H])(C([H])([H])[H])C([H])([H])[H])C([H])([H])c2c([H])c(OC([H])([H])c3c(F)c([H])c(Cl)c(C([H])([H])N([H])C(=O)N4C([H])([H])C([H])([H])C([H])([H])C([H])(n5nc(-c6c([H])c([H])c(Oc7c([H])c([H])c(F)c([H])c7F)c([H])c6[H])c(C(=O)N([H])[H])c5N([H])[H])C4([H])[H])c3Cl)c([H])c([H])c2C1([H])[H]

>  <smiles>  (65) 
[H]c1c([H])c([H])c2c(c1[H])C([H])([H])C([H])([H])C([H])([H])C2([H])N([H])C(=O)C1([H])N(C(=O)C([H])(N([H])C(=O)C([H])(N([H])C([H])([H])[H])C([H])([H])[H])C(C([H])([H])[H])(C([H])([H])[H])C([H])([H])[H])C([H])([H])c2c([H])c(OC([H])([H])c3c(F)c([H])c(Cl)c(C([H])([H])N([H])C(=O)N4C([H])([H])C([H])([H])C([H])([H])C([H])(n5nc(-c6c([H])c([H])c(Oc7c([H])c([H])c(F)c([H])c7F)c([H])c6[H])c(C(=O)N([H])[H])c5N([H])[H])C4([H])[H])c3Cl)c([H])c([H])c2C1([H])[H]

$$$$
66:0:0
     RDKit          3D

 90 98  0  0  1  0  0  0  0  0999 V2000
  -30.4630  -20.4270   19.0090 C   0  0  0  0  0  3  0  0  0  0  0  0
  -30.8480  -18.0030   18.9270 C   0  0  0  0  0  3  0  0  0  0  0  0
  -31.0970  -19.3040   18.4320 C   0  0  0  0  0  0  0  0  0  0  0  0
  -29.5090  -20.2920   20.0400 C   0  0  0  0  0  0  0  0  0  0  0  0
  -29.9480  -17.7570   19.9970 C   0  0  0  0  0  0  0  0  0  0  0  0
  -32.0370  -19.4910   17.2410 C   0  0  0  0  0  1  0  0  0  0  0  0
  -29.2930  -18.9410   20.4950 N   0  0  0  0  0  0  0  0  0  0  0  0
  -30.5010  -15.0550   20.2250 C   0  0  0  0  0  0  0  0  0  0  0  0
  -30.3920  -12.6790   19.3330 C   0  0  0  0  0  2  0  0  0  0  0  0
  -29.4600  -12.6220   18.1010 C   0  0  0  0  0  2  0  0  0  0  0  0
  -27.9940  -12.4110   18.5230 C   0  0  0  0  0  2  0  0  0  0  0  0
  -27.5850  -13.3230   19.7070 C   0  0  0  0  0  3  0  0  0  0  0  0
  -28.6490  -13.3570   20.8300 C   0  0  0  0  0  2  0  0  0  0  0  0
  -29.9120  -13.7850   20.2150 N   0  0  0  0  0  0  0  0  0  0  0  0
  -31.7100  -15.0760   19.9550 O   0  0  0  0  0  0  0  0  0  0  0  0
  -29.7430  -16.2680   20.3830 N   0  0  0  0  0  0  0  0  0  0  0  0
  -28.8200  -16.0970   20.7540 H   0  0  0  0  0  0  0  0  0  0  0  0
  -25.1960  -13.8750   20.4310 C   0  0  0  0  0  0  0  0  0  0  0  0
  -24.1370  -13.0910   20.8040 C   0  0  0  0  0  0  0  0  0  0  0  0
  -24.6180  -11.7440   20.7900 C   0  0  0  0  0  0  0  0  0  0  0  0
  -26.2490  -13.0070   20.2030 N   0  0  0  0  0  0  0  0  0  0  0  0
  -25.9130  -11.7220   20.4900 N   0  0  0  0  0  0  0  0  0  0  0  0
  -23.9010  -10.4770   20.9830 C   0  0  0  0  0  0  0  0  0  0  0  0
  -24.3200   -9.5280   21.9410 C   0  0  0  0  0  3  0  0  0  0  0  0
  -23.5980   -8.3280   22.1180 C   0  0  0  0  0  3  0  0  0  0  0  0
  -22.4440   -8.0700   21.3440 C   0  0  0  0  0  0  0  0  0  0  0  0
  -22.0490   -9.0070   20.3730 C   0  0  0  0  0  3  0  0  0  0  0  0
  -22.7710  -10.1980   20.1920 C   0  0  0  0  0  3  0  0  0  0  0  0
  -21.6920   -6.9230   21.4360 O   0  0  0  0  0  0  0  0  0  0  0  0
  -21.6120   -6.2060   22.6030 C   0  0  0  0  0  0  0  0  0  0  0  0
  -21.1150   -6.7760   23.7950 C   0  0  0  0  0  3  0  0  0  0  0  0
  -20.9800   -5.9810   24.9510 C   0  0  0  0  0  3  0  0  0  0  0  0
  -21.3390   -4.6190   24.9210 C   0  0  0  0  0  0  0  0  0  0  0  0
  -21.8300   -4.0510   23.7320 C   0  0  0  0  0  3  0  0  0  0  0  0
  -21.9630   -4.8410   22.5770 C   0  0  0  0  0  0  0  0  0  0  0  0
  -22.4130   -4.2800   21.4300 F   0  0  0  0  0  0  0  0  0  0  0  0
  -21.2070   -3.8550   26.0310 F   0  0  0  0  0  0  0  0  0  0  0  0
  -22.7350  -13.5560   21.0630 C   0  0  0  0  0  0  0  0  0  0  0  0
  -22.0040  -12.8610   21.9260 N   0  0  0  0  0  0  0  0  0  0  0  0
  -22.2960  -14.5750   20.5300 O   0  0  0  0  0  0  0  0  0  0  0  0
  -22.3620  -12.0310   22.3770 H   0  0  0  0  0  0  0  0  0  0  0  0
  -21.0640  -13.1650   22.1390 H   0  0  0  0  0  0  0  0  0  0  0  0
  -25.3480  -15.2460   20.2440 N   0  0  0  0  0  0  0  0  0  0  0  0
  -24.5900  -15.9080   20.3720 H   0  0  0  0  0  0  0  0  0  0  0  0
  -26.2020  -15.6850   19.9260 H   0  0  0  0  0  0  0  0  0  0  0  0
  -28.6890  -21.6570   20.5730 C   0  0  0  0  0  2  0  0  0  0  0  0
  -28.9340  -23.2870   20.1930 C   0  0  0  0  0  0  0  0  0  0  0  0
  -29.9710  -23.5900   19.5950 O   0  0  0  0  0  0  0  0  0  0  0  0
  -27.9010  -24.5610   20.5450 C   0  0  0  0  0  2  0  0  0  0  0  0
  -28.2430  -26.0940   20.3340 O   0  0  0  0  0  0  0  0  0  0  0  0
  -24.5900  -31.8770   23.2540 C   0  0  0  0  0  0  0  0  0  0  0  0
  -27.2090  -27.1120   20.2860 C   0  0  0  0  0  0  0  0  0  0  0  0
  -23.4190  -30.4620   21.6110 C   0  0  0  0  0  3  0  0  0  0  0  0
  -24.8930  -28.8870   20.2150 C   0  0  0  0  0  0  0  0  0  0  0  0
  -25.9790  -30.7330   21.4800 C   0  0  0  0  0  2  0  0  0  0  0  0
  -26.0690  -29.3320   20.8330 C   0  0  0  0  0  0  0  0  0  0  0  0
  -27.2310  -28.4610   20.8480 C   0  0  0  0  0  3  0  0  0  0  0  0
  -26.0030  -26.7820   19.6310 C   0  0  0  0  0  3  0  0  0  0  0  0
  -24.8760  -27.6290   19.5990 C   0  0  0  0  0  3  0  0  0  0  0  0
  -23.6590  -29.7740   20.2410 C   0  0  0  0  0  2  0  0  0  0  0  0
  -24.6830  -31.0450   22.1700 N   0  0  0  0  0  0  0  0  0  0  0  0
  -23.4960  -32.1610   23.7650 O   0  0  0  0  0  0  0  0  0  0  0  0
  -22.7300  -29.4560   22.5680 C   0  0  0  0  0  0  0  0  0  0  0  0
  -21.4020  -29.2870   22.4360 N   0  0  0  0  0  0  0  0  0  0  0  0
  -23.3950  -28.8280   23.3960 O   0  0  0  0  0  0  0  0  0  0  0  0
  -20.9190  -29.8430   21.7450 H   0  0  0  0  0  0  0  0  0  0  0  0
  -18.0130  -28.1000   22.9350 C   0  0  0  0  0  0  0  0  0  0  0  0
  -20.5740  -28.3520   23.2050 C   0  0  0  0  0  3  0  0  0  0  0  0
  -20.6670  -26.9190   22.6290 C   0  0  0  0  0  2  0  0  0  0  0  0
  -19.5700  -26.6030   21.6090 C   0  0  0  0  0  2  0  0  0  0  0  0
  -18.1870  -26.7520   22.2510 C   0  0  0  0  0  2  0  0  0  0  0  0
  -19.1350  -28.8590   23.3650 C   0  0  0  0  0  0  0  0  0  0  0  0
  -18.9200  -30.1190   23.9650 C   0  0  0  0  0  3  0  0  0  0  0  0
  -17.6170  -30.6270   24.1250 C   0  0  0  0  0  3  0  0  0  0  0  0
  -16.5100  -29.8660   23.7140 C   0  0  0  0  0  3  0  0  0  0  0  0
  -16.7070  -28.6000   23.1320 C   0  0  0  0  0  3  0  0  0  0  0  0
  -25.8610  -32.5260   23.8890 C   0  0  0  0  0  3  0  0  0  0  0  0
  -26.3550  -31.7780   25.1870 C   0  0  1  0  0  0  0  0  0  0  0  0
  -25.2420  -31.5550   26.2370 C   0  0  0  0  0  1  0  0  0  0  0  0
  -26.9420  -30.3940   24.8360 C   0  0  0  0  0  1  0  0  0  0  0  0
  -27.5060  -32.5750   25.8500 C   0  0  0  0  0  1  0  0  0  0  0  0
  -25.5490  -33.9320   24.1950 N   0  0  0  0  0  0  0  0  0  0  0  0
  -25.9060  -34.9720   23.4290 C   0  0  0  0  0  0  0  0  0  0  0  0
  -26.5880  -34.8480   22.4090 O   0  0  0  0  0  0  0  0  0  0  0  0
  -24.9520  -34.1080   24.9900 H   0  0  0  0  0  0  0  0  0  0  0  0
  -24.1990  -36.7660   23.0140 C   0  0  0  0  0  1  0  0  0  0  0  0
  -25.4240  -36.3720   23.8570 C   0  0  0  0  0  3  0  0  0  0  0  0
  -27.5470  -37.2450   24.7260 C   0  0  0  0  0  1  0  0  0  0  0  0
  -26.4680  -37.4150   23.7540 N   0  0  0  0  0  0  0  0  0  0  0  0
  -26.0680  -38.3400   23.8900 H   0  0  0  0  0  0  0  0  0  0  0  0
  1  4  1  0
  2  5  2  0
  3  2  1  0
  3  1  2  0
  4  7  2  0
  4 46  1  0
  5 16  1  0
  5  7  1  0
  6  3  1  0
  8 16  1  0
  9 14  1  0
 10 11  1  0
 10  9  1  0
 12 11  1  0
 12 21  1  0
 12 13  1  0
 14  8  1  0
 14 13  1  0
 15  8  2  0
 16 17  1  0
 18 19  2  0
 19 38  1  0
 20 19  1  0
 20 23  1  0
 21 18  1  0
 21 22  1  0
 22 20  2  0
 23 24  1  0
 24 25  2  0
 26 29  1  0
 26 25  1  0
 27 26  2  0
 28 27  1  0
 28 23  2  0
 29 30  1  0
 30 31  1  0
 31 32  2  0
 33 32  1  0
 33 37  1  0
 34 33  2  0
 35 30  2  0
 35 34  1  0
 36 35  1  0
 38 39  1  0
 39 42  1  0
 39 41  1  0
 40 38  2  0
 43 44  1  0
 43 18  1  0
 45 43  1  0
 47 49  1  0
 47 46  1  0
 48 47  2  0
 50 49  1  0
 51 62  2  0
 52 50  1  0
 52 57  1  0
 53 61  1  0
 53 63  1  0
 54 60  1  0
 54 56  1  0
 55 61  1  0
 56 57  2  0
 56 55  1  0
 58 52  2  0
 59 58  1  0
 59 54  2  0
 60 53  1  0
 61 51  1  0
 63 65  2  0
 64 63  1  0
 66 64  1  0
 67 76  2  0
 67 72  1  0
 68 64  1  0
 68 72  1  0
 69 68  1  0
 70 71  1  0
 70 69  1  0
 71 67  1  0
 72 73  2  0
 73 74  1  0
 75 74  2  0
 76 75  1  0
 77 51  1  0
 77 82  1  0
 77 78  1  0
 78 81  1  1
 78 79  1  0
 80 78  1  0
 82 85  1  0
 83 87  1  0
 83 82  1  0
 84 83  2  0
 87 86  1  0
 89 87  1  0
 89 90  1  0
 89 88  1  0
M  ISO  4   8 100  16 100  49 101  50 101
M  END
>  <TORSDO>  (66) 
F 19

>  <SCORE>  (66) 
-14.128

>  <name>  (66) 
66

>  <ligand_id>  (66) 
66

>  <original_smiles>  (66) 
[H]c1c([H])c([H])c2c(c1[H])C([H])([H])C([H])([H])C([H])([H])C2([H])N([H])C(=O)C1([H])N(C(=O)C([H])(N([H])C(=O)C([H])(N([H])C([H])([H])[H])C([H])([H])[H])C(C([H])([H])[H])(C([H])([H])[H])C([H])([H])[H])C([H])([H])c2c([H])c(OC([H])([H])C(=O)C([H])([H])c3nc(N([H])C(=O)N4C([H])([H])C([H])([H])C([H])([H])C([H])(n5nc(-c6c([H])c([H])c(Oc7c([H])c([H])c(F)c([H])c7F)c([H])c6[H])c(C(=O)N([H])[H])c5N([H])[H])C4([H])[H])c([H])c(C([H])([H])[H])c3[H])c([H])c([H])c2C1([H])[H]

>  <smiles>  (66) 
[H]c1c([H])c([H])c2c(c1[H])C([H])([H])C([H])([H])C([H])([H])C2([H])N([H])C(=O)C1([H])N(C(=O)C([H])(N([H])C(=O)C([H])(N([H])C([H])([H])[H])C([H])([H])[H])C(C([H])([H])[H])(C([H])([H])[H])C([H])([H])[H])C([H])([H])c2c([H])c(OC([H])([H])C(=O)C([H])([H])c3nc(N([H])C(=O)N4C([H])([H])C([H])([H])C([H])([H])C([H])(n5nc(-c6c([H])c([H])c(Oc7c([H])c([H])c(F)c([H])c7F)c([H])c6[H])c(C(=O)N([H])[H])c5N([H])[H])C4([H])[H])c([H])c(C([H])([H])[H])c3[H])c([H])c([H])c2C1([H])[H]

$$$$
67:0:0
     RDKit          3D

 91 99  0  0  1  0  0  0  0  0999 V2000
  -29.7990  -19.8730   18.0390 C   0  0  0  0  0  3  0  0  0  0  0  0
  -29.5830  -21.1710   18.5670 C   0  0  0  0  0  0  0  0  0  0  0  0
  -29.9850  -18.6720   18.7760 C   0  0  0  0  0  0  0  0  0  0  0  0
  -29.5320  -21.4360   19.9580 C   0  0  0  0  0  0  0  0  0  0  0  0
  -29.7100  -20.0890   20.7330 C   0  0  0  0  0  0  0  0  0  0  0  0
  -29.9450  -18.6360   20.2030 C   0  0  0  0  0  0  0  0  0  0  0  0
  -29.4200  -22.2910   17.5570 C   0  0  0  0  0  1  0  0  0  0  0  0
  -29.6610  -20.2180   22.2420 C   0  0  0  0  0  1  0  0  0  0  0  0
  -30.8050  -15.8980   20.9430 C   0  0  0  0  0  0  0  0  0  0  0  0
  -31.0200  -13.3610   20.3920 C   0  0  0  0  0  2  0  0  0  0  0  0
  -30.3040  -12.9630   19.0750 C   0  0  0  0  0  2  0  0  0  0  0  0
  -28.8200  -12.6510   19.3350 C   0  0  0  0  0  2  0  0  0  0  0  0
  -28.1670  -13.6900   20.2780 C   0  0  0  0  0  3  0  0  0  0  0  0
  -29.0330  -14.0340   21.5100 C   0  0  0  0  0  2  0  0  0  0  0  0
  -30.3150  -14.5540   21.0040 N   0  0  0  0  0  0  0  0  0  0  0  0
  -32.0420  -15.9250   20.8380 O   0  0  0  0  0  0  0  0  0  0  0  0
  -29.9840  -17.1520   20.9060 N   0  0  0  0  0  0  0  0  0  0  0  0
  -29.0910  -16.9500   21.3340 H   0  0  0  0  0  0  0  0  0  0  0  0
  -25.7160  -14.1930   20.7560 C   0  0  0  0  0  0  0  0  0  0  0  0
  -24.6370  -13.3940   21.0050 C   0  0  0  0  0  0  0  0  0  0  0  0
  -25.1350  -12.0540   21.0330 C   0  0  0  0  0  0  0  0  0  0  0  0
  -26.7990  -13.3410   20.6350 N   0  0  0  0  0  0  0  0  0  0  0  0
  -26.4540  -12.0480   20.8710 N   0  0  0  0  0  0  0  0  0  0  0  0
  -24.4170  -10.7770   21.1440 C   0  0  0  0  0  0  0  0  0  0  0  0
  -24.7110   -9.8490   22.1680 C   0  0  0  0  0  3  0  0  0  0  0  0
  -23.9920   -8.6400   22.2660 C   0  0  0  0  0  3  0  0  0  0  0  0
  -22.9620   -8.3480   21.3400 C   0  0  0  0  0  0  0  0  0  0  0  0
  -22.6880   -9.2650   20.3100 C   0  0  0  0  0  3  0  0  0  0  0  0
  -23.4090  -10.4660   20.2100 C   0  0  0  0  0  3  0  0  0  0  0  0
  -22.2270   -7.1870   21.3430 O   0  0  0  0  0  0  0  0  0  0  0  0
  -21.9460   -6.5160   22.5060 C   0  0  0  0  0  0  0  0  0  0  0  0
  -21.2320   -7.1210   23.5620 C   0  0  0  0  0  3  0  0  0  0  0  0
  -20.9040   -6.3730   24.7100 C   0  0  0  0  0  3  0  0  0  0  0  0
  -21.2820   -5.0200   24.8020 C   0  0  0  0  0  0  0  0  0  0  0  0
  -21.9880   -4.4140   23.7480 C   0  0  0  0  0  3  0  0  0  0  0  0
  -22.3170   -5.1580   22.6030 C   0  0  0  0  0  0  0  0  0  0  0  0
  -22.9800   -4.5640   21.5820 F   0  0  0  0  0  0  0  0  0  0  0  0
  -20.9610   -4.2990   25.9010 F   0  0  0  0  0  0  0  0  0  0  0  0
  -23.2080  -13.8410   21.1080 C   0  0  0  0  0  0  0  0  0  0  0  0
  -22.4010  -13.1380   21.8930 N   0  0  0  0  0  0  0  0  0  0  0  0
  -22.8140  -14.8520   20.5290 O   0  0  0  0  0  0  0  0  0  0  0  0
  -22.7310  -12.3220   22.3870 H   0  0  0  0  0  0  0  0  0  0  0  0
  -21.4370  -13.4210   22.0030 H   0  0  0  0  0  0  0  0  0  0  0  0
  -25.8670  -15.5680   20.5930 N   0  0  0  0  0  0  0  0  0  0  0  0
  -25.0740  -16.2010   20.6150 H   0  0  0  0  0  0  0  0  0  0  0  0
  -26.7310  -16.0270   20.3370 H   0  0  0  0  0  0  0  0  0  0  0  0
  -28.9120  -16.5450   17.8780 C   0  0  0  0  0  1  0  0  0  0  0  0
  -30.1680  -17.4220   17.9200 C   0  0  0  0  0  2  0  0  0  0  0  0
  -29.4290  -23.1480   20.4350 C   0  0  0  0  0  3  0  0  0  0  0  0
  -28.6460  -24.6830   19.7950 C   0  0  0  0  0  3  0  0  0  0  0  0
  -28.7330  -26.3230   20.0930 O   0  0  0  0  0  0  0  0  0  0  0  0
  -24.8580  -31.9350   23.3650 C   0  0  0  0  0  0  0  0  0  0  0  0
  -27.6830  -27.3940   20.0440 C   0  0  0  0  0  0  0  0  0  0  0  0
  -23.7580  -30.6140   21.6030 C   0  0  0  0  0  3  0  0  0  0  0  0
  -25.3030  -29.1850   20.0890 C   0  0  0  0  0  0  0  0  0  0  0  0
  -26.3160  -30.9420   21.5270 C   0  0  0  0  0  2  0  0  0  0  0  0
  -26.4590  -29.5880   20.7670 C   0  0  0  0  0  0  0  0  0  0  0  0
  -27.6390  -28.7140   20.7230 C   0  0  0  0  0  3  0  0  0  0  0  0
  -26.4950  -27.1580   19.3160 C   0  0  0  0  0  3  0  0  0  0  0  0
  -25.3480  -27.9950   19.3440 C   0  0  0  0  0  3  0  0  0  0  0  0
  -24.0420  -30.0470   20.1840 C   0  0  0  0  0  2  0  0  0  0  0  0
  -24.9970  -31.1890   22.2210 N   0  0  0  0  0  0  0  0  0  0  0  0
  -23.7480  -32.1360   23.8840 O   0  0  0  0  0  0  0  0  0  0  0  0
  -23.0930  -29.5210   22.4790 C   0  0  0  0  0  0  0  0  0  0  0  0
  -21.7770  -29.2970   22.3060 N   0  0  0  0  0  0  0  0  0  0  0  0
  -23.7690  -28.8750   23.2840 O   0  0  0  0  0  0  0  0  0  0  0  0
  -21.2820  -29.8700   21.6380 H   0  0  0  0  0  0  0  0  0  0  0  0
  -18.4580  -27.8630   22.6190 C   0  0  0  0  0  0  0  0  0  0  0  0
  -20.9870  -28.2660   22.9880 C   0  0  0  0  0  3  0  0  0  0  0  0
  -21.1950  -26.8820   22.3300 C   0  0  0  0  0  2  0  0  0  0  0  0
  -20.1480  -26.5590   21.2600 C   0  0  0  0  0  2  0  0  0  0  0  0
  -18.7410  -26.5760   21.8620 C   0  0  0  0  0  2  0  0  0  0  0  0
  -19.5120  -28.6650   23.1330 C   0  0  0  0  0  0  0  0  0  0  0  0
  -19.1920  -29.8660   23.8020 C   0  0  0  0  0  3  0  0  0  0  0  0
  -17.8520  -30.2690   23.9590 C   0  0  0  0  0  3  0  0  0  0  0  0
  -16.8140  -29.4650   23.4590 C   0  0  0  0  0  3  0  0  0  0  0  0
  -17.1170  -28.2640   22.7950 C   0  0  0  0  0  3  0  0  0  0  0  0
  -26.0870  -32.5860   24.0700 C   0  0  0  0  0  3  0  0  0  0  0  0
  -26.6180  -31.7390   25.2940 C   0  0  1  0  0  0  0  0  0  0  0  0
  -25.5210  -31.3660   26.3170 C   0  0  0  0  0  1  0  0  0  0  0  0
  -27.2750  -30.4260   24.8150 C   0  0  0  0  0  1  0  0  0  0  0  0
  -27.7180  -32.5320   26.0410 C   0  0  0  0  0  1  0  0  0  0  0  0
  -25.6920  -33.9320   24.5220 N   0  0  0  0  0  0  0  0  0  0  0  0
  -26.0000  -35.0750   23.8960 C   0  0  0  0  0  0  0  0  0  0  0  0
  -26.7090  -35.1100   22.8880 O   0  0  0  0  0  0  0  0  0  0  0  0
  -25.0610  -33.9740   25.3110 H   0  0  0  0  0  0  0  0  0  0  0  0
  -24.2160  -36.8380   23.6600 C   0  0  0  0  0  1  0  0  0  0  0  0
  -25.4370  -36.3890   24.4780 C   0  0  0  0  0  3  0  0  0  0  0  0
  -27.4940  -37.2590   25.5020 C   0  0  0  0  0  1  0  0  0  0  0  0
  -26.4290  -37.4860   24.5290 N   0  0  0  0  0  0  0  0  0  0  0  0
  -25.9780  -38.3700   24.7520 H   0  0  0  0  0  0  0  0  0  0  0  0
  1  2  2  0
  1  3  1  0
  2  4  1  0
  3  6  2  0
  4 49  1  0
  4  5  2  0
  5  8  1  0
  6  5  1  0
  6 17  1  0
  7  2  1  0
  9 15  1  0
 10 15  1  0
 11 12  1  0
 11 10  1  0
 13 12  1  0
 13 22  1  0
 13 14  1  0
 15 14  1  0
 16  9  2  0
 17  9  1  0
 17 18  1  0
 19 20  2  0
 20 21  1  0
 20 39  1  0
 21 24  1  0
 22 19  1  0
 22 23  1  0
 23 21  2  0
 24 25  1  0
 25 26  2  0
 27 30  1  0
 27 26  1  0
 28 27  2  0
 29 28  1  0
 29 24  2  0
 30 31  1  0
 31 36  2  0
 31 32  1  0
 32 33  2  0
 33 34  1  0
 34 38  1  0
 35 34  2  0
 36 35  1  0
 37 36  1  0
 39 40  1  0
 40 43  1  0
 40 42  1  0
 41 39  2  0
 44 45  1  0
 44 19  1  0
 46 44  1  0
 47 48  1  0
 48  3  1  0
 50 51  1  0
 50 49  2  0
 52 63  2  0
 53 51  1  0
 53 58  1  0
 54 62  1  0
 54 64  1  0
 55 61  1  0
 55 57  1  0
 56 62  1  0
 57 56  1  0
 58 57  2  0
 59 60  1  0
 59 53  2  0
 60 55  2  0
 61 54  1  0
 62 52  1  0
 64 66  2  0
 65 64  1  0
 67 65  1  0
 68 77  2  0
 68 73  1  0
 69 65  1  0
 69 73  1  0
 70 69  1  0
 71 72  1  0
 71 70  1  0
 72 68  1  0
 73 74  2  0
 74 75  1  0
 76 75  2  0
 77 76  1  0
 78 52  1  0
 78 83  1  0
 78 79  1  0
 79 82  1  1
 79 80  1  0
 81 79  1  0
 83 86  1  0
 84 88  1  0
 84 83  1  0
 85 84  2  0
 88 87  1  0
 88 90  1  0
 90 91  1  0
 90 89  1  0
M  ISO  4   9 100  17 100  50 101  51 101
M  END
>  <TORSDO>  (67) 
F 19

>  <SCORE>  (67) 
-12.034

>  <name>  (67) 
67

>  <ligand_id>  (67) 
67

>  <original_smiles>  (67) 
[H]c1c([H])c([H])c2c(c1[H])C([H])([H])C([H])([H])C([H])([H])C2([H])N([H])C(=O)C1([H])N(C(=O)C([H])(N([H])C(=O)C([H])(N([H])C([H])([H])[H])C([H])([H])[H])C(C([H])([H])[H])(C([H])([H])[H])C([H])([H])[H])C([H])([H])c2c([H])c(OC([H])([H])C([H])([H])c3c(C([H])([H])[H])c([H])c(C([H])([H])C([H])([H])[H])c(N([H])C(=O)N4C([H])([H])C([H])([H])C([H])([H])C([H])(n5nc(-c6c([H])c([H])c(Oc7c([H])c([H])c(F)c([H])c7F)c([H])c6[H])c(C(=O)N([H])[H])c5N([H])[H])C4([H])[H])c3C([H])([H])[H])c([H])c([H])c2C1([H])[H]

>  <smiles>  (67) 
[H]c1c([H])c([H])c2c(c1[H])C([H])([H])C([H])([H])C([H])([H])C2([H])N([H])C(=O)C1([H])N(C(=O)C([H])(N([H])C(=O)C([H])(N([H])C([H])([H])[H])C([H])([H])[H])C(C([H])([H])[H])(C([H])([H])[H])C([H])([H])[H])C([H])([H])c2c([H])c(OC([H])([H])C([H])([H])c3c(C([H])([H])[H])c([H])c(C([H])([H])C([H])([H])[H])c(N([H])C(=O)N4C([H])([H])C([H])([H])C([H])([H])C([H])(n5nc(-c6c([H])c([H])c(Oc7c([H])c([H])c(F)c([H])c7F)c([H])c6[H])c(C(=O)N([H])[H])c5N([H])[H])C4([H])[H])c3C([H])([H])[H])c([H])c([H])c2C1([H])[H]

$$$$
68:0:0
     RDKit          3D

 89 97  0  0  1  0  0  0  0  0999 V2000
  -31.1080  -20.9680   20.9400 C   0  0  0  0  0  3  0  0  0  0  0  0
  -30.2670  -22.1010   20.6970 C   0  0  0  0  0  0  0  0  0  0  0  0
  -30.8370  -19.5700   20.7540 C   0  0  0  0  0  0  0  0  0  0  0  0
  -28.9290  -22.0130   20.2330 C   0  0  0  0  0  0  0  0  0  0  0  0
  -28.6880  -20.3950   20.0350 C   0  0  0  0  0  0  0  0  0  0  0  0
  -29.6030  -19.0490   20.2560 C   0  0  0  0  0  0  0  0  0  0  0  0
  -30.8780  -23.4670   20.9650 C   0  0  0  0  0  1  0  0  0  0  0  0
  -31.9670  -18.6340   21.1420 C   0  0  0  0  0  1  0  0  0  0  0  0
  -27.3050  -20.0570   19.5140 C   0  0  0  0  0  1  0  0  0  0  0  0
  -30.2380  -15.8880   20.0270 C   0  0  0  0  0  0  0  0  0  0  0  0
  -30.3450  -13.3320   19.1480 C   0  0  0  0  0  2  0  0  0  0  0  0
  -29.4140  -12.8690   17.9870 C   0  0  0  0  0  2  0  0  0  0  0  0
  -28.0350  -12.4570   18.5200 C   0  0  0  0  0  2  0  0  0  0  0  0
  -27.5440  -13.4490   19.5950 C   0  0  0  0  0  3  0  0  0  0  0  0
  -28.6170  -13.8150   20.6520 C   0  0  0  0  0  2  0  0  0  0  0  0
  -29.7210  -14.5030   19.9340 N   0  0  0  0  0  0  0  0  0  0  0  0
  -31.4660  -15.7890   19.8270 O   0  0  0  0  0  0  0  0  0  0  0  0
  -29.4760  -17.2880   20.1200 N   0  0  0  0  0  0  0  0  0  0  0  0
  -28.4950  -17.0430   20.1150 H   0  0  0  0  0  0  0  0  0  0  0  0
  -25.2230  -13.9300   20.4970 C   0  0  0  0  0  0  0  0  0  0  0  0
  -24.1900  -13.1300   20.8910 C   0  0  0  0  0  0  0  0  0  0  0  0
  -24.6700  -11.7860   20.7980 C   0  0  0  0  0  0  0  0  0  0  0  0
  -26.2620  -13.0760   20.1750 N   0  0  0  0  0  0  0  0  0  0  0  0
  -25.9470  -11.7760   20.4230 N   0  0  0  0  0  0  0  0  0  0  0  0
  -23.9620  -10.5110   20.9830 C   0  0  0  0  0  0  0  0  0  0  0  0
  -24.4120   -9.5420   21.9070 C   0  0  0  0  0  3  0  0  0  0  0  0
  -23.6990   -8.3370   22.0870 C   0  0  0  0  0  3  0  0  0  0  0  0
  -22.5200   -8.0920   21.3420 C   0  0  0  0  0  0  0  0  0  0  0  0
  -22.0870   -9.0510   20.4080 C   0  0  0  0  0  3  0  0  0  0  0  0
  -22.8020  -10.2470   20.2270 C   0  0  0  0  0  3  0  0  0  0  0  0
  -21.7760   -6.9410   21.4320 O   0  0  0  0  0  0  0  0  0  0  0  0
  -21.7070   -6.2160   22.5950 C   0  0  0  0  0  0  0  0  0  0  0  0
  -21.1970   -6.7720   23.7900 C   0  0  0  0  0  3  0  0  0  0  0  0
  -21.0780   -5.9730   24.9440 C   0  0  0  0  0  3  0  0  0  0  0  0
  -21.4590   -4.6180   24.9050 C   0  0  0  0  0  0  0  0  0  0  0  0
  -21.9620   -4.0620   23.7160 C   0  0  0  0  0  3  0  0  0  0  0  0
  -22.0810   -4.8570   22.5630 C   0  0  0  0  0  0  0  0  0  0  0  0
  -22.5460   -4.3110   21.4140 F   0  0  0  0  0  0  0  0  0  0  0  0
  -21.3380   -3.8470   26.0120 F   0  0  0  0  0  0  0  0  0  0  0  0
  -22.8010  -13.5850   21.2330 C   0  0  0  0  0  0  0  0  0  0  0  0
  -22.1190  -12.8680   22.1180 N   0  0  0  0  0  0  0  0  0  0  0  0
  -22.3320  -14.6140   20.7490 O   0  0  0  0  0  0  0  0  0  0  0  0
  -22.5130  -12.0370   22.5300 H   0  0  0  0  0  0  0  0  0  0  0  0
  -21.1900  -13.1570   22.3870 H   0  0  0  0  0  0  0  0  0  0  0  0
  -25.3600  -15.3080   20.3500 N   0  0  0  0  0  0  0  0  0  0  0  0
  -24.5900  -15.9480   20.5150 H   0  0  0  0  0  0  0  0  0  0  0  0
  -26.1860  -15.7630   19.9860 H   0  0  0  0  0  0  0  0  0  0  0  0
  -27.9870  -23.6740   20.0230 C   0  0  0  0  0  2  0  0  0  0  0  0
  -28.1800  -25.4590   20.2690 O   0  0  0  0  0  0  0  0  0  0  0  0
  -24.6710  -31.8400   23.2280 C   0  0  0  0  0  0  0  0  0  0  0  0
  -27.2320  -26.7250   20.2120 C   0  0  0  0  0  0  0  0  0  0  0  0
  -23.5110  -30.4740   21.5470 C   0  0  0  0  0  3  0  0  0  0  0  0
  -24.9810  -28.8270   20.1400 C   0  0  0  0  0  0  0  0  0  0  0  0
  -26.0950  -30.5860   21.4820 C   0  0  0  0  0  2  0  0  0  0  0  0
  -26.1680  -29.1520   20.8070 C   0  0  0  0  0  0  0  0  0  0  0  0
  -27.2730  -28.1330   20.8090 C   0  0  0  0  0  3  0  0  0  0  0  0
  -26.0090  -26.6360   19.4920 C   0  0  0  0  0  3  0  0  0  0  0  0
  -24.9480  -27.5970   19.4570 C   0  0  0  0  0  3  0  0  0  0  0  0
  -23.7790  -29.7910   20.1730 C   0  0  0  0  0  2  0  0  0  0  0  0
  -24.7840  -31.0020   22.1370 N   0  0  0  0  0  0  0  0  0  0  0  0
  -23.5680  -32.1370   23.7190 O   0  0  0  0  0  0  0  0  0  0  0  0
  -22.7650  -29.4910   22.4910 C   0  0  0  0  0  0  0  0  0  0  0  0
  -21.4330  -29.3580   22.3450 N   0  0  0  0  0  0  0  0  0  0  0  0
  -23.4000  -28.8440   23.3270 O   0  0  0  0  0  0  0  0  0  0  0  0
  -20.9730  -29.9260   21.6490 H   0  0  0  0  0  0  0  0  0  0  0  0
  -18.0200  -28.1970   22.8140 C   0  0  0  0  0  0  0  0  0  0  0  0
  -20.5840  -28.4170   23.0880 C   0  0  0  0  0  3  0  0  0  0  0  0
  -20.6610  -27.0000   22.4710 C   0  0  0  0  0  2  0  0  0  0  0  0
  -19.5560  -26.7300   21.4440 C   0  0  0  0  0  2  0  0  0  0  0  0
  -18.1750  -26.8710   22.0890 C   0  0  0  0  0  2  0  0  0  0  0  0
  -19.1480  -28.9310   23.2670 C   0  0  0  0  0  0  0  0  0  0  0  0
  -18.9450  -30.1700   23.9110 C   0  0  0  0  0  3  0  0  0  0  0  0
  -17.6440  -30.6770   24.1020 C   0  0  0  0  0  3  0  0  0  0  0  0
  -16.5320  -29.9430   23.6590 C   0  0  0  0  0  3  0  0  0  0  0  0
  -16.7180  -28.7040   23.0220 C   0  0  0  0  0  3  0  0  0  0  0  0
  -25.9210  -32.4770   23.9090 C   0  0  0  0  0  3  0  0  0  0  0  0
  -25.6020  -33.8800   24.2430 N   0  0  0  0  0  0  0  0  0  0  0  0
  -25.9210  -34.9460   23.4980 C   0  0  0  0  0  0  0  0  0  0  0  0
  -26.5720  -34.8510   22.4530 O   0  0  0  0  0  0  0  0  0  0  0  0
  -25.0220  -34.0230   25.0570 H   0  0  0  0  0  0  0  0  0  0  0  0
  -24.1690  -36.7370   23.2320 C   0  0  0  0  0  1  0  0  0  0  0  0
  -25.4510  -36.3350   23.9800 C   0  0  0  0  0  3  0  0  0  0  0  0
  -27.6110  -37.2470   24.7150 C   0  0  0  0  0  1  0  0  0  0  0  0
  -26.4680  -37.3980   23.8180 N   0  0  0  0  0  0  0  0  0  0  0  0
  -26.0610  -38.3150   23.9750 H   0  0  0  0  0  0  0  0  0  0  0  0
  -26.3690  -31.7080   25.2140 C   0  0  1  0  0  0  0  0  0  0  0  0
  -25.2260  -31.4970   26.2360 C   0  0  0  0  0  1  0  0  0  0  0  0
  -26.9510  -30.3190   24.8700 C   0  0  0  0  0  1  0  0  0  0  0  0
  -27.5000  -32.4910   25.9190 C   0  0  0  0  0  1  0  0  0  0  0  0
  2  1  2  0
  2  7  1  0
  3  1  1  0
  3  8  1  0
  4  2  1  0
  5  4  2  0
  5  6  1  0
  6  3  2  0
  9  5  1  0
 10 18  1  0
 11 16  1  0
 12 13  1  0
 12 11  1  0
 14 13  1  0
 14 23  1  0
 14 15  1  0
 16 10  1  0
 16 15  1  0
 17 10  2  0
 18  6  1  0
 19 18  1  0
 20 21  2  0
 21 40  1  0
 22 21  1  0
 22 25  1  0
 23 24  1  0
 23 20  1  0
 24 22  2  0
 25 26  1  0
 26 27  2  0
 28 31  1  0
 28 27  1  0
 29 28  2  0
 30 29  1  0
 30 25  2  0
 31 32  1  0
 32 33  1  0
 33 34  2  0
 35 34  1  0
 35 39  1  0
 36 35  2  0
 37 32  2  0
 37 36  1  0
 38 37  1  0
 40 41  1  0
 41 44  1  0
 41 43  1  0
 42 40  2  0
 45 20  1  0
 45 46  1  0
 47 45  1  0
 48  4  1  0
 48 49  1  0
 50 61  2  0
 51 49  1  0
 51 56  1  0
 52 60  1  0
 52 62  1  0
 53 59  1  0
 53 55  1  0
 54 60  1  0
 55 56  2  0
 55 54  1  0
 57 51  2  0
 58 57  1  0
 58 53  2  0
 59 52  1  0
 60 50  1  0
 62 64  2  0
 63 62  1  0
 65 63  1  0
 66 75  2  0
 66 71  1  0
 67 63  1  0
 67 71  1  0
 68 67  1  0
 69 70  1  0
 69 68  1  0
 70 66  1  0
 71 72  2  0
 72 73  1  0
 74 73  2  0
 75 74  1  0
 76 50  1  0
 76 77  1  0
 76 86  1  0
 77 80  1  0
 78 82  1  0
 78 77  1  0
 79 78  2  0
 82 81  1  0
 84 85  1  0
 84 82  1  0
 84 83  1  0
 86 89  1  1
 86 87  1  0
 88 86  1  0
M  ISO  4  10 100  18 100  48 101  49 101
M  END
>  <TORSDO>  (68) 
F 17

>  <SCORE>  (68) 
-16.752

>  <name>  (68) 
68

>  <ligand_id>  (68) 
68

>  <original_smiles>  (68) 
[H]c1c([H])c([H])c2c(c1[H])C([H])([H])C([H])([H])C([H])([H])C2([H])N([H])C(=O)C1([H])N(C(=O)C([H])(N([H])C(=O)C([H])(N([H])C([H])([H])[H])C([H])([H])[H])C(C([H])([H])[H])(C([H])([H])[H])C([H])([H])[H])C([H])([H])c2c([H])c(OC([H])([H])c3c(C([H])([H])[H])c([H])c(C([H])([H])[H])c(N([H])C(=O)N4C([H])([H])C([H])([H])C([H])([H])C([H])(n5nc(-c6c([H])c([H])c(Oc7c([H])c([H])c(F)c([H])c7F)c([H])c6[H])c(C(=O)N([H])[H])c5N([H])[H])C4([H])[H])c3C([H])([H])[H])c([H])c([H])c2C1([H])[H]

>  <smiles>  (68) 
[H]c1c([H])c([H])c2c(c1[H])C([H])([H])C([H])([H])C([H])([H])C2([H])N([H])C(=O)C1([H])N(C(=O)C([H])(N([H])C(=O)C([H])(N([H])C([H])([H])[H])C([H])([H])[H])C(C([H])([H])[H])(C([H])([H])[H])C([H])([H])[H])C([H])([H])c2c([H])c(OC([H])([H])c3c(C([H])([H])[H])c([H])c(C([H])([H])[H])c(N([H])C(=O)N4C([H])([H])C([H])([H])C([H])([H])C([H])(n5nc(-c6c([H])c([H])c(Oc7c([H])c([H])c(F)c([H])c7F)c([H])c6[H])c(C(=O)N([H])[H])c5N([H])[H])C4([H])[H])c3C([H])([H])[H])c([H])c([H])c2C1([H])[H]

$$$$
69:0:0
     RDKit          3D

 96104  0  0  1  0  0  0  0  0999 V2000
  -31.8090  -21.1220   22.0070 C   0  0  0  0  0  2  0  0  0  0  0  0
  -30.9190  -17.8590   20.1620 C   0  0  0  0  0  3  0  0  0  0  0  0
  -31.2210  -19.2110   20.4150 C   0  0  0  0  0  0  0  0  0  0  0  0
  -31.3770  -19.6730   21.7500 C   0  0  0  0  0  0  0  0  0  0  0  0
  -31.1710  -18.7580   22.8240 C   0  0  0  0  0  0  0  0  0  0  0  0
  -30.7780  -16.9340   21.2190 C   0  0  0  0  0  0  0  0  0  0  0  0
  -30.8820  -17.3950   22.5490 C   0  0  0  0  0  0  0  0  0  0  0  0
  -31.3970  -20.1370   19.2170 C   0  0  0  0  0  1  0  0  0  0  0  0
  -31.2880  -19.2140   24.2780 C   0  0  0  0  0  1  0  0  0  0  0  0
  -30.6740  -16.2550   23.8400 Cl  0  0  0  0  0  0  0  0  0  0  0  0
  -31.0250  -14.6770   20.1560 C   0  0  0  0  0  0  0  0  0  0  0  0
  -30.6100  -12.6000   18.8930 C   0  0  0  0  0  2  0  0  0  0  0  0
  -29.5890  -12.8790   17.7720 C   0  0  0  0  0  2  0  0  0  0  0  0
  -28.1480  -12.7290   18.2960 C   0  0  0  0  0  2  0  0  0  0  0  0
  -27.9090  -13.5050   19.6200 C   0  0  0  0  0  3  0  0  0  0  0  0
  -29.0320  -13.2050   20.6380 C   0  0  0  0  0  2  0  0  0  0  0  0
  -30.3260  -13.5210   20.0040 N   0  0  0  0  0  0  0  0  0  0  0  0
  -32.0630  -14.9150   19.5310 O   0  0  0  0  0  0  0  0  0  0  0  0
  -30.4800  -15.5550   21.0120 N   0  0  0  0  0  0  0  0  0  0  0  0
  -29.7290  -15.1910   21.5820 H   0  0  0  0  0  0  0  0  0  0  0  0
  -25.5690  -14.0980   20.5150 C   0  0  0  0  0  0  0  0  0  0  0  0
  -24.5200  -13.3160   20.9220 C   0  0  0  0  0  0  0  0  0  0  0  0
  -24.9630  -11.9630   20.7940 C   0  0  0  0  0  0  0  0  0  0  0  0
  -26.5870  -13.2210   20.1740 N   0  0  0  0  0  0  0  0  0  0  0  0
  -26.2290  -11.9300   20.3940 N   0  0  0  0  0  0  0  0  0  0  0  0
  -24.2390  -10.6980   20.9750 C   0  0  0  0  0  0  0  0  0  0  0  0
  -24.6490   -9.7440   21.9330 C   0  0  0  0  0  3  0  0  0  0  0  0
  -23.9250   -8.5440   22.1010 C   0  0  0  0  0  3  0  0  0  0  0  0
  -22.7810   -8.2880   21.3090 C   0  0  0  0  0  0  0  0  0  0  0  0
  -22.3920   -9.2310   20.3410 C   0  0  0  0  0  3  0  0  0  0  0  0
  -23.1150  -10.4230   20.1720 C   0  0  0  0  0  3  0  0  0  0  0  0
  -22.0330   -7.1380   21.3840 O   0  0  0  0  0  0  0  0  0  0  0  0
  -21.8240   -6.4910   22.5760 C   0  0  0  0  0  0  0  0  0  0  0  0
  -21.2360   -7.1410   23.6830 C   0  0  0  0  0  3  0  0  0  0  0  0
  -20.9770   -6.4200   24.8650 C   0  0  0  0  0  3  0  0  0  0  0  0
  -21.2930   -5.0500   24.9400 C   0  0  0  0  0  0  0  0  0  0  0  0
  -21.8740   -4.4000   23.8360 C   0  0  0  0  0  3  0  0  0  0  0  0
  -22.1350   -5.1190   22.6560 C   0  0  0  0  0  0  0  0  0  0  0  0
  -22.6750   -4.4830   21.5890 F   0  0  0  0  0  0  0  0  0  0  0  0
  -21.0370   -4.3560   26.0720 F   0  0  0  0  0  0  0  0  0  0  0  0
  -23.1500  -13.7890   21.3160 C   0  0  0  0  0  0  0  0  0  0  0  0
  -22.4930  -13.0740   22.2230 N   0  0  0  0  0  0  0  0  0  0  0  0
  -22.6750  -14.8260   20.8560 O   0  0  0  0  0  0  0  0  0  0  0  0
  -22.8920  -12.2350   22.6160 H   0  0  0  0  0  0  0  0  0  0  0  0
  -21.5770  -13.3720   22.5290 H   0  0  0  0  0  0  0  0  0  0  0  0
  -25.7350  -15.4730   20.3930 N   0  0  0  0  0  0  0  0  0  0  0  0
  -24.9890  -16.1300   20.5910 H   0  0  0  0  0  0  0  0  0  0  0  0
  -26.5750  -15.9210   20.0460 H   0  0  0  0  0  0  0  0  0  0  0  0
  -30.7380  -22.1020   21.7250 N   0  0  0  0  0  4  0  0  0  0  0  0
  -30.0850  -22.0900   22.4910 H   0  0  0  0  0  0  0  0  0  0  0  0
  -30.2430  -21.8100   20.8990 H   0  0  0  0  0  0  0  0  0  0  0  0
  -31.2410  -23.4810   21.5240 C   0  0  0  0  0  2  0  0  0  0  0  0
  -30.1180  -24.5280   21.3790 C   0  0  0  0  0  2  0  0  0  0  0  0
  -30.6760  -25.9360   21.0920 C   0  0  0  0  0  2  0  0  0  0  0  0
  -29.6120  -27.0430   21.0690 C   0  0  0  0  0  2  0  0  0  0  0  0
  -28.6660  -26.7890   20.0370 O   0  0  0  0  0  0  0  0  0  0  0  0
  -24.5510  -31.7170   23.1800 C   0  0  0  0  0  0  0  0  0  0  0  0
  -27.4860  -27.4950   20.0830 C   0  0  0  0  0  0  0  0  0  0  0  0
  -23.4380  -30.2630   21.5110 C   0  0  0  0  0  3  0  0  0  0  0  0
  -24.9920  -28.8270   20.0860 C   0  0  0  0  0  0  0  0  0  0  0  0
  -25.9330  -30.7790   21.3350 C   0  0  0  0  0  2  0  0  0  0  0  0
  -26.1040  -29.4210   20.6920 C   0  0  0  0  0  0  0  0  0  0  0  0
  -27.3510  -28.7630   20.6990 C   0  0  0  0  0  3  0  0  0  0  0  0
  -26.3600  -26.9130   19.4660 C   0  0  0  0  0  3  0  0  0  0  0  0
  -25.1120  -27.5670   19.4720 C   0  0  0  0  0  3  0  0  0  0  0  0
  -23.6960  -29.6050   20.1280 C   0  0  0  0  0  2  0  0  0  0  0  0
  -24.6570  -30.9350   22.0670 N   0  0  0  0  0  0  0  0  0  0  0  0
  -23.4540  -31.9220   23.7150 O   0  0  0  0  0  0  0  0  0  0  0  0
  -22.8420  -29.1990   22.4580 C   0  0  0  0  0  0  0  0  0  0  0  0
  -21.5340  -28.9310   22.3080 N   0  0  0  0  0  0  0  0  0  0  0  0
  -23.5510  -28.6140   23.2820 O   0  0  0  0  0  0  0  0  0  0  0  0
  -21.0220  -29.4590   21.6160 H   0  0  0  0  0  0  0  0  0  0  0  0
  -18.2360  -27.5230   22.7350 C   0  0  0  0  0  0  0  0  0  0  0  0
  -20.7670  -27.9390   23.0580 C   0  0  0  0  0  3  0  0  0  0  0  0
  -20.9710  -26.5210   22.4790 C   0  0  0  0  0  2  0  0  0  0  0  0
  -19.9110  -26.1350   21.4410 C   0  0  0  0  0  2  0  0  0  0  0  0
  -18.5110  -26.1910   22.0580 C   0  0  0  0  0  2  0  0  0  0  0  0
  -19.2960  -28.3510   23.1900 C   0  0  0  0  0  0  0  0  0  0  0  0
  -18.9880  -29.5970   23.7790 C   0  0  0  0  0  3  0  0  0  0  0  0
  -17.6510  -30.0160   23.9200 C   0  0  0  0  0  3  0  0  0  0  0  0
  -16.6060  -29.1840   23.4830 C   0  0  0  0  0  3  0  0  0  0  0  0
  -16.8980  -27.9410   22.8970 C   0  0  0  0  0  3  0  0  0  0  0  0
  -25.7980  -32.4100   23.8150 C   0  0  0  0  0  3  0  0  0  0  0  0
  -25.4210  -33.7940   24.1300 N   0  0  0  0  0  0  0  0  0  0  0  0
  -25.7080  -34.8540   23.3630 C   0  0  0  0  0  0  0  0  0  0  0  0
  -26.3920  -34.7740   22.3380 O   0  0  0  0  0  0  0  0  0  0  0  0
  -24.8140  -33.9280   24.9260 H   0  0  0  0  0  0  0  0  0  0  0  0
  -23.8880  -36.5460   22.9830 C   0  0  0  0  0  1  0  0  0  0  0  0
  -25.1480  -36.2210   23.8010 C   0  0  0  0  0  3  0  0  0  0  0  0
  -27.2340  -37.2250   24.6180 C   0  0  0  0  0  1  0  0  0  0  0  0
  -26.1230  -37.3260   23.6750 N   0  0  0  0  0  0  0  0  0  0  0  0
  -25.6690  -38.2230   23.8170 H   0  0  0  0  0  0  0  0  0  0  0  0
  -26.3350  -31.6690   25.1000 C   0  0  1  0  0  0  0  0  0  0  0  0
  -25.2380  -31.3690   26.1490 C   0  0  0  0  0  1  0  0  0  0  0  0
  -27.0020  -30.3270   24.7170 C   0  0  0  0  0  1  0  0  0  0  0  0
  -27.4260  -32.5280   25.7840 C   0  0  0  0  0  1  0  0  0  0  0  0
  2  3  2  0
  2  6  1  0
  3  4  1  0
  4  1  1  0
  4  5  2  0
  5  9  1  0
  6  7  2  0
  7  5  1  0
  7 10  1  0
  8  3  1  0
 11 19  1  0
 12 17  1  0
 13 14  1  0
 13 12  1  0
 15 14  1  0
 15 24  1  0
 15 16  1  0
 17 11  1  0
 17 16  1  0
 18 11  2  0
 19  6  1  0
 19 20  1  0
 21 22  2  0
 22 41  1  0
 23 22  1  0
 23 26  1  0
 24 25  1  0
 24 21  1  0
 25 23  2  0
 26 27  1  0
 27 28  2  0
 29 32  1  0
 29 28  1  0
 30 29  2  0
 31 30  1  0
 31 26  2  0
 32 33  1  0
 33 38  2  0
 33 34  1  0
 34 35  2  0
 35 36  1  0
 36 40  1  0
 37 36  2  0
 38 37  1  0
 39 38  1  0
 41 42  1  0
 42 45  1  0
 42 44  1  0
 43 41  2  0
 46 21  1  0
 46 47  1  0
 48 46  1  0
 49  1  1  0
 49 50  1  0
 51 49  1  0
 52 49  1  0
 53 52  1  0
 54 53  1  0
 55 54  1  0
 56 58  1  0
 56 55  1  0
 57 68  2  0
 58 63  1  0
 59 67  1  0
 59 69  1  0
 60 66  1  0
 60 62  1  0
 61 67  1  0
 62 63  2  0
 62 61  1  0
 64 65  1  0
 64 58  2  0
 65 60  2  0
 66 59  1  0
 67 57  1  0
 69 71  2  0
 70 69  1  0
 72 70  1  0
 73 82  2  0
 73 78  1  0
 74 70  1  0
 74 78  1  0
 75 74  1  0
 76 77  1  0
 76 75  1  0
 77 73  1  0
 78 79  2  0
 79 80  1  0
 81 80  2  0
 82 81  1  0
 83 57  1  0
 83 84  1  0
 83 93  1  0
 84 87  1  0
 85 89  1  0
 85 84  1  0
 86 85  2  0
 89 88  1  0
 91 89  1  0
 91 92  1  0
 91 90  1  0
 93 96  1  1
 93 94  1  0
 95 93  1  0
M  ISO  4  11 100  19 100  55 101  56 101
M  END
>  <TORSDO>  (69) 
F 22

>  <SCORE>  (69) 
-9.418

>  <name>  (69) 
69

>  <ligand_id>  (69) 
69

>  <original_smiles>  (69) 
[H]c1c([H])c([H])c2c(c1[H])C([H])([H])C([H])([H])C([H])([H])C2([H])N([H])C(=O)C1([H])N(C(=O)C([H])(N([H])C(=O)C([H])(N([H])C([H])([H])[H])C([H])([H])[H])C(C([H])([H])[H])(C([H])([H])[H])C([H])([H])[H])C([H])([H])c2c([H])c(OC([H])([H])C([H])([H])C([H])([H])C([H])([H])[N+]([H])([H])C([H])([H])c3c(C([H])([H])[H])c([H])c(N([H])C(=O)N4C([H])([H])C([H])([H])C([H])([H])C([H])(n5nc(-c6c([H])c([H])c(Oc7c([H])c([H])c(F)c([H])c7F)c([H])c6[H])c(C(=O)N([H])[H])c5N([H])[H])C4([H])[H])c(Cl)c3C([H])([H])[H])c([H])c([H])c2C1([H])[H]

>  <smiles>  (69) 
[H]c1c([H])c([H])c2c(c1[H])C([H])([H])C([H])([H])C([H])([H])C2([H])N([H])C(=O)C1([H])N(C(=O)C([H])(N([H])C(=O)C([H])(N([H])C([H])([H])[H])C([H])([H])[H])C(C([H])([H])[H])(C([H])([H])[H])C([H])([H])[H])C([H])([H])c2c([H])c(OC([H])([H])C([H])([H])C([H])([H])C([H])([H])[N+]([H])([H])C([H])([H])c3c(C([H])([H])[H])c([H])c(N([H])C(=O)N4C([H])([H])C([H])([H])C([H])([H])C([H])(n5nc(-c6c([H])c([H])c(Oc7c([H])c([H])c(F)c([H])c7F)c([H])c6[H])c(C(=O)N([H])[H])c5N([H])[H])C4([H])[H])c(Cl)c3C([H])([H])[H])c([H])c([H])c2C1([H])[H]

$$$$
70:0:0
     RDKit          3D

100108  0  0  1  0  0  0  0  0999 V2000
  -30.6250  -21.3030   19.6170 C   0  0  0  0  0  0  0  0  0  0  0  0
  -29.6610  -22.0520   19.0020 N   0  0  0  0  0  0  0  0  0  0  0  0
  -31.8010  -21.6840   19.6470 O   0  0  0  0  0  0  0  0  0  0  0  0
  -29.6810  -18.9720   19.2030 C   0  0  0  0  0  3  0  0  0  0  0  0
  -30.7160  -17.9760   21.6010 C   0  0  0  0  0  3  0  0  0  0  0  0
  -30.3220  -19.8820   20.0770 C   0  0  0  0  0  0  0  0  0  0  0  0
  -29.5420  -17.5950   19.5130 C   0  0  0  0  0  0  0  0  0  0  0  0
  -30.0850  -17.0710   20.7150 C   0  0  0  0  0  0  0  0  0  0  0  0
  -30.8310  -19.3580   21.2970 C   0  0  0  0  0  0  0  0  0  0  0  0
  -28.8150  -16.7030   18.5240 C   0  0  0  0  0  1  0  0  0  0  0  0
  -31.6040  -20.3800   22.4610 Cl  0  0  0  0  0  0  0  0  0  0  0  0
  -30.6960  -14.6450   20.7650 C   0  0  0  0  0  0  0  0  0  0  0  0
  -30.5170  -12.4000   19.7520 C   0  0  0  0  0  2  0  0  0  0  0  0
  -29.6440  -12.5120   18.4840 C   0  0  0  0  0  2  0  0  0  0  0  0
  -28.1450  -12.3840   18.8280 C   0  0  0  0  0  2  0  0  0  0  0  0
  -27.7240  -13.2740   20.0250 C   0  0  0  0  0  3  0  0  0  0  0  0
  -28.7160  -13.1370   21.2020 C   0  0  0  0  0  2  0  0  0  0  0  0
  -30.0660  -13.4360   20.6940 N   0  0  0  0  0  0  0  0  0  0  0  0
  -31.8690  -14.8050   20.4150 O   0  0  0  0  0  0  0  0  0  0  0  0
  -29.8970  -15.6920   21.0770 N   0  0  0  0  0  0  0  0  0  0  0  0
  -28.9520  -15.4290   21.3150 H   0  0  0  0  0  0  0  0  0  0  0  0
  -25.2940  -13.9030   20.5920 C   0  0  0  0  0  0  0  0  0  0  0  0
  -24.2040  -13.1430   20.9170 C   0  0  0  0  0  0  0  0  0  0  0  0
  -24.6610  -11.7900   20.9360 C   0  0  0  0  0  0  0  0  0  0  0  0
  -26.3460  -13.0150   20.4350 N   0  0  0  0  0  0  0  0  0  0  0  0
  -25.9650  -11.7400   20.7020 N   0  0  0  0  0  0  0  0  0  0  0  0
  -23.9210  -10.5340   21.1090 C   0  0  0  0  0  0  0  0  0  0  0  0
  -24.3120   -9.5700   22.0660 C   0  0  0  0  0  3  0  0  0  0  0  0
  -23.5720   -8.3770   22.2230 C   0  0  0  0  0  3  0  0  0  0  0  0
  -22.4280   -8.1410   21.4240 C   0  0  0  0  0  0  0  0  0  0  0  0
  -22.0580   -9.0930   20.4580 C   0  0  0  0  0  3  0  0  0  0  0  0
  -22.7970  -10.2760   20.2980 C   0  0  0  0  0  3  0  0  0  0  0  0
  -21.6650   -7.0000   21.4890 O   0  0  0  0  0  0  0  0  0  0  0  0
  -21.5850   -6.2530   22.6380 C   0  0  0  0  0  0  0  0  0  0  0  0
  -21.1430   -6.8070   23.8590 C   0  0  0  0  0  3  0  0  0  0  0  0
  -21.0110   -5.9870   24.9980 C   0  0  0  0  0  3  0  0  0  0  0  0
  -21.3120   -4.6130   24.9140 C   0  0  0  0  0  0  0  0  0  0  0  0
  -21.7460   -4.0600   23.6980 C   0  0  0  0  0  3  0  0  0  0  0  0
  -21.8790   -4.8780   22.5620 C   0  0  0  0  0  0  0  0  0  0  0  0
  -22.2800   -4.3350   21.3860 F   0  0  0  0  0  0  0  0  0  0  0  0
  -21.1790   -3.8210   26.0050 F   0  0  0  0  0  0  0  0  0  0  0  0
  -22.7970  -13.6310   21.1050 C   0  0  0  0  0  0  0  0  0  0  0  0
  -22.0190  -12.9520   21.9410 N   0  0  0  0  0  0  0  0  0  0  0  0
  -22.3920  -14.6480   20.5450 O   0  0  0  0  0  0  0  0  0  0  0  0
  -22.3560  -12.1280   22.4160 H   0  0  0  0  0  0  0  0  0  0  0  0
  -21.0740  -13.2640   22.1130 H   0  0  0  0  0  0  0  0  0  0  0  0
  -25.4720  -15.2690   20.3960 N   0  0  0  0  0  0  0  0  0  0  0  0
  -24.6930  -15.9180   20.4280 H   0  0  0  0  0  0  0  0  0  0  0  0
  -26.3300  -15.6980   20.0780 H   0  0  0  0  0  0  0  0  0  0  0  0
  -29.9380  -21.5020   16.5740 C   0  0  0  0  0  1  0  0  0  0  0  0
  -29.9440  -22.5920   17.6590 C   0  0  0  0  0  2  0  0  0  0  0  0
  -28.5250  -22.6890   19.7350 C   0  0  0  0  0  3  0  0  0  0  0  0
  -27.7770  -24.3500   21.5280 C   0  0  0  0  0  1  0  0  0  0  0  0
  -30.1900  -24.2230   20.9620 C   0  0  0  0  0  1  0  0  0  0  0  0
  -28.7730  -24.1460   20.3600 C   0  0  1  0  0  0  0  0  0  0  0  0
  -28.6090  -25.3580   19.3700 C   0  0  0  0  0  2  0  0  0  0  0  0
  -28.4830  -26.6660   20.0000 O   0  0  0  0  0  0  0  0  0  0  0  0
  -24.6190  -31.7990   23.1640 C   0  0  0  0  0  0  0  0  0  0  0  0
  -27.2890  -27.3860   19.9980 C   0  0  0  0  0  0  0  0  0  0  0  0
  -23.4270  -30.4340   21.4860 C   0  0  0  0  0  3  0  0  0  0  0  0
  -24.8920  -28.9280   20.0400 C   0  0  0  0  0  0  0  0  0  0  0  0
  -25.9610  -30.7870   21.3160 C   0  0  0  0  0  2  0  0  0  0  0  0
  -26.0520  -29.4270   20.6460 C   0  0  0  0  0  0  0  0  0  0  0  0
  -27.2490  -28.6640   20.6200 C   0  0  0  0  0  3  0  0  0  0  0  0
  -26.0910  -26.9100   19.4080 C   0  0  0  0  0  3  0  0  0  0  0  0
  -24.9110  -27.6690   19.4230 C   0  0  0  0  0  3  0  0  0  0  0  0
  -23.6480  -29.7880   20.0950 C   0  0  0  0  0  2  0  0  0  0  0  0
  -24.6880  -31.0220   22.0470 N   0  0  0  0  0  0  0  0  0  0  0  0
  -23.5320  -32.0570   23.7010 O   0  0  0  0  0  0  0  0  0  0  0  0
  -22.7700  -29.3870   22.4180 C   0  0  0  0  0  0  0  0  0  0  0  0
  -21.4410  -29.2310   22.3010 N   0  0  0  0  0  0  0  0  0  0  0  0
  -23.4540  -28.7220   23.1990 O   0  0  0  0  0  0  0  0  0  0  0  0
  -20.9500  -29.8220   21.6450 H   0  0  0  0  0  0  0  0  0  0  0  0
  -18.0460  -28.1110   22.8320 C   0  0  0  0  0  0  0  0  0  0  0  0
  -20.6170  -28.2800   23.0480 C   0  0  0  0  0  3  0  0  0  0  0  0
  -20.6610  -26.8760   22.4000 C   0  0  0  0  0  2  0  0  0  0  0  0
  -19.5240  -26.6370   21.4000 C   0  0  0  0  0  2  0  0  0  0  0  0
  -18.1650  -26.7920   22.0870 C   0  0  0  0  0  2  0  0  0  0  0  0
  -19.1980  -28.8180   23.2690 C   0  0  0  0  0  0  0  0  0  0  0  0
  -19.0320  -30.0590   23.9230 C   0  0  0  0  0  3  0  0  0  0  0  0
  -17.7470  -30.5900   24.1450 C   0  0  0  0  0  3  0  0  0  0  0  0
  -16.6100  -29.8760   23.7270 C   0  0  0  0  0  3  0  0  0  0  0  0
  -16.7620  -28.6390   23.0750 C   0  0  0  0  0  3  0  0  0  0  0  0
  -25.8980  -32.4190   23.8090 C   0  0  0  0  0  3  0  0  0  0  0  0
  -25.5880  -33.8110   24.1570 N   0  0  0  0  0  0  0  0  0  0  0  0
  -25.9160  -34.8730   23.4080 C   0  0  0  0  0  0  0  0  0  0  0  0
  -26.5860  -34.7830   22.3760 O   0  0  0  0  0  0  0  0  0  0  0  0
  -24.9980  -33.9550   24.9630 H   0  0  0  0  0  0  0  0  0  0  0  0
  -24.1770  -36.6590   23.0800 C   0  0  0  0  0  1  0  0  0  0  0  0
  -25.4250  -36.2550   23.8820 C   0  0  0  0  0  3  0  0  0  0  0  0
  -27.5610  -37.1420   24.7070 C   0  0  0  0  0  1  0  0  0  0  0  0
  -26.4510  -37.3140   23.7720 N   0  0  0  0  0  0  0  0  0  0  0  0
  -26.0410  -38.2300   23.9290 H   0  0  0  0  0  0  0  0  0  0  0  0
  -26.3990  -31.6270   25.0780 C   0  0  1  0  0  0  0  0  0  0  0  0
  -25.2940  -31.3760   26.1310 C   0  0  0  0  0  1  0  0  0  0  0  0
  -26.9800  -30.2540   24.6680 C   0  0  0  0  0  1  0  0  0  0  0  0
  -27.5460  -32.4060   25.7640 C   0  0  0  0  0  1  0  0  0  0  0  0
  -27.1940  -22.5500   18.9410 C   0  0  0  0  0  2  0  0  0  0  0  0
  -25.5150  -21.0240   17.7740 C   0  0  0  0  0  1  0  0  0  0  0  0
  -26.8350  -21.1100   18.5470 C   0  0  0  0  0  2  0  0  0  0  0  0
  1  3  2  0
  1  6  1  0
  2  1  1  0
  2 52  1  0
  4  7  2  0
  4  6  1  0
  6  9  2  0
  7  8  1  0
  8 20  1  0
  8  5  2  0
  9  5  1  0
  9 11  1  0
 10  7  1  0
 12 20  1  0
 13 18  1  0
 14 15  1  0
 14 13  1  0
 16 15  1  0
 16 25  1  0
 16 17  1  0
 18 12  1  0
 18 17  1  0
 19 12  2  0
 20 21  1  0
 22 23  2  0
 23 24  1  0
 23 42  1  0
 24 27  1  0
 25 22  1  0
 25 26  1  0
 26 24  2  0
 27 28  1  0
 28 29  2  0
 30 33  1  0
 30 29  1  0
 31 30  2  0
 32 31  1  0
 32 27  2  0
 33 34  1  0
 34 35  1  0
 35 36  2  0
 37 36  1  0
 37 41  1  0
 38 37  2  0
 39 34  2  0
 39 38  1  0
 40 39  1  0
 42 43  1  0
 43 46  1  0
 43 45  1  0
 44 42  2  0
 47 48  1  0
 47 22  1  0
 49 47  1  0
 50 51  1  0
 51  2  1  0
 52 98  1  0
 52 55  1  0
 55 54  1  1
 55 53  1  0
 56 57  1  0
 56 55  1  0
 58 69  2  0
 59 57  1  0
 59 64  1  0
 60 68  1  0
 60 70  1  0
 61 67  1  0
 61 63  1  0
 62 68  1  0
 63 62  1  0
 64 63  2  0
 65 66  1  0
 65 59  2  0
 66 61  2  0
 67 60  1  0
 68 58  1  0
 70 72  2  0
 71 70  1  0
 73 71  1  0
 74 83  2  0
 74 79  1  0
 75 71  1  0
 75 79  1  0
 76 75  1  0
 77 78  1  0
 77 76  1  0
 78 74  1  0
 79 80  2  0
 80 81  1  0
 82 81  2  0
 83 82  1  0
 84 58  1  0
 84 85  1  0
 84 94  1  0
 85 88  1  0
 86 90  1  0
 86 85  1  0
 87 86  2  0
 90 89  1  0
 92 90  1  0
 92 93  1  0
 92 91  1  0
 94 97  1  1
 94 95  1  0
 96 94  1  0
 99100  1  0
100 98  1  0
M  ISO  4  12 100  20 100  56 101  57 101
M  END
>  <TORSDO>  (70) 
F 23

>  <SCORE>  (70) 
-13.288

>  <name>  (70) 
70

>  <ligand_id>  (70) 
70

>  <original_smiles>  (70) 
[H]c1c([H])c([H])c2c(c1[H])C([H])([H])C([H])([H])C([H])([H])C2([H])N([H])C(=O)C1([H])N(C(=O)C([H])(N([H])C(=O)C([H])(N([H])C([H])([H])[H])C([H])([H])[H])C(C([H])([H])[H])(C([H])([H])[H])C([H])([H])[H])C([H])([H])c2c([H])c(OC([H])([H])C(C([H])([H])[H])(C([H])([H])[H])C([H])(N(C(=O)c3c([H])c(C([H])([H])[H])c(N([H])C(=O)N4C([H])([H])C([H])([H])C([H])([H])C([H])(n5nc(-c6c([H])c([H])c(Oc7c([H])c([H])c(F)c([H])c7F)c([H])c6[H])c(C(=O)N([H])[H])c5N([H])[H])C4([H])[H])c([H])c3Cl)C([H])([H])C([H])([H])[H])C([H])([H])C([H])([H])C([H])([H])[H])c([H])c([H])c2C1([H])[H]

>  <smiles>  (70) 
[H]c1c([H])c([H])c2c(c1[H])C([H])([H])C([H])([H])C([H])([H])C2([H])N([H])C(=O)C1([H])N(C(=O)C([H])(N([H])C(=O)C([H])(N([H])C([H])([H])[H])C([H])([H])[H])C(C([H])([H])[H])(C([H])([H])[H])C([H])([H])[H])C([H])([H])c2c([H])c(OC([H])([H])C(C([H])([H])[H])(C([H])([H])[H])C([H])(N(C(=O)c3c([H])c(C([H])([H])[H])c(N([H])C(=O)N4C([H])([H])C([H])([H])C([H])([H])C([H])(n5nc(-c6c([H])c([H])c(Oc7c([H])c([H])c(F)c([H])c7F)c([H])c6[H])c(C(=O)N([H])[H])c5N([H])[H])C4([H])[H])c([H])c3Cl)C([H])([H])C([H])([H])[H])C([H])([H])C([H])([H])C([H])([H])[H])c([H])c([H])c2C1([H])[H]

$$$$
71:0:0
     RDKit          3D

 91 99  0  0  1  0  0  0  0  0999 V2000
  -29.5310  -21.4440   17.8880 C   0  0  0  0  0  3  0  0  0  0  0  0
  -29.5390  -20.0400   19.9390 C   0  0  0  0  0  0  0  0  0  0  0  0
  -28.8520  -22.7870   19.8810 C   0  0  0  0  0  0  0  0  0  0  0  0
  -29.7270  -20.1860   18.5440 C   0  0  0  0  0  0  0  0  0  0  0  0
  -29.1220  -22.6640   18.4990 C   0  0  0  0  0  0  0  0  0  0  0  0
  -29.0880  -21.4010   20.5550 C   0  0  0  0  0  0  0  0  0  0  0  0
  -28.9170  -24.0350   17.4660 Cl  0  0  0  0  0  0  0  0  0  0  0  0
  -28.8000  -21.3640   22.2570 Cl  0  0  0  0  0  0  0  0  0  0  0  0
  -29.9550  -19.0110   16.4590 C   0  0  0  0  0  1  0  0  0  0  0  0
  -30.1490  -19.0600   17.8680 O   0  0  0  0  0  0  0  0  0  0  0  0
  -30.0160  -18.4710   20.6240 C   0  0  0  0  0  2  0  0  0  0  0  0
  -30.6890  -15.5450   20.2760 C   0  0  0  0  0  0  0  0  0  0  0  0
  -30.7250  -13.0640   19.4500 C   0  0  0  0  0  2  0  0  0  0  0  0
  -29.8330  -12.7700   18.2160 C   0  0  0  0  0  2  0  0  0  0  0  0
  -28.3810  -12.4890   18.6440 C   0  0  0  0  0  2  0  0  0  0  0  0
  -27.8890  -13.4920   19.7170 C   0  0  0  0  0  3  0  0  0  0  0  0
  -28.9140  -13.7090   20.8510 C   0  0  0  0  0  2  0  0  0  0  0  0
  -30.1350  -14.2290   20.2100 N   0  0  0  0  0  0  0  0  0  0  0  0
  -31.9250  -15.5320   20.1800 O   0  0  0  0  0  0  0  0  0  0  0  0
  -29.9040  -16.8200   20.2540 N   0  0  0  0  0  0  0  0  0  0  0  0
  -28.9310  -16.5790   20.1370 H   0  0  0  0  0  0  0  0  0  0  0  0
  -25.5080  -14.0560   20.4220 C   0  0  0  0  0  0  0  0  0  0  0  0
  -24.4380  -13.2840   20.7760 C   0  0  0  0  0  0  0  0  0  0  0  0
  -24.9080  -11.9330   20.7730 C   0  0  0  0  0  0  0  0  0  0  0  0
  -26.5550  -13.1780   20.2100 N   0  0  0  0  0  0  0  0  0  0  0  0
  -26.2060  -11.8960   20.4910 N   0  0  0  0  0  0  0  0  0  0  0  0
  -24.1760  -10.6730   20.9610 C   0  0  0  0  0  0  0  0  0  0  0  0
  -24.5660   -9.7310   21.9370 C   0  0  0  0  0  3  0  0  0  0  0  0
  -23.8320   -8.5370   22.1140 C   0  0  0  0  0  3  0  0  0  0  0  0
  -22.6950   -8.2780   21.3120 C   0  0  0  0  0  0  0  0  0  0  0  0
  -22.3240   -9.2090   20.3270 C   0  0  0  0  0  3  0  0  0  0  0  0
  -23.0580  -10.3930   20.1490 C   0  0  0  0  0  3  0  0  0  0  0  0
  -21.9390   -7.1340   21.3970 O   0  0  0  0  0  0  0  0  0  0  0  0
  -21.8160   -6.4360   22.5710 C   0  0  0  0  0  0  0  0  0  0  0  0
  -21.2600   -7.0210   23.7300 C   0  0  0  0  0  3  0  0  0  0  0  0
  -21.0870   -6.2470   24.8960 C   0  0  0  0  0  3  0  0  0  0  0  0
  -21.4600   -4.8910   24.9020 C   0  0  0  0  0  0  0  0  0  0  0  0
  -22.0080   -4.3050   23.7480 C   0  0  0  0  0  3  0  0  0  0  0  0
  -22.1830   -5.0760   22.5850 C   0  0  0  0  0  0  0  0  0  0  0  0
  -22.6910   -4.5010   21.4680 F   0  0  0  0  0  0  0  0  0  0  0  0
  -21.2870   -4.1450   26.0190 F   0  0  0  0  0  0  0  0  0  0  0  0
  -23.0350  -13.7630   21.0030 C   0  0  0  0  0  0  0  0  0  0  0  0
  -22.2850  -13.0830   21.8610 N   0  0  0  0  0  0  0  0  0  0  0  0
  -22.6120  -14.7810   20.4550 O   0  0  0  0  0  0  0  0  0  0  0  0
  -22.6380  -12.2600   22.3260 H   0  0  0  0  0  0  0  0  0  0  0  0
  -21.3440  -13.3910   22.0580 H   0  0  0  0  0  0  0  0  0  0  0  0
  -25.6720  -15.4260   20.2310 N   0  0  0  0  0  0  0  0  0  0  0  0
  -24.9000  -16.0770   20.3190 H   0  0  0  0  0  0  0  0  0  0  0  0
  -26.5150  -15.8600   19.8820 H   0  0  0  0  0  0  0  0  0  0  0  0
  -28.1470  -24.3260   20.4170 C   0  0  0  0  0  2  0  0  0  0  0  0
  -28.3620  -25.9480   20.0530 O   0  0  0  0  0  0  0  0  0  0  0  0
  -24.7230  -31.9130   23.1180 C   0  0  0  0  0  0  0  0  0  0  0  0
  -27.3360  -27.0480   20.0740 C   0  0  0  0  0  0  0  0  0  0  0  0
  -23.5410  -30.4930   21.4960 C   0  0  0  0  0  3  0  0  0  0  0  0
  -25.0040  -28.9110   20.0580 C   0  0  0  0  0  0  0  0  0  0  0  0
  -26.1060  -30.7420   21.3230 C   0  0  0  0  0  2  0  0  0  0  0  0
  -26.1970  -29.3300   20.6640 C   0  0  0  0  0  0  0  0  0  0  0  0
  -27.3580  -28.4230   20.6420 C   0  0  0  0  0  3  0  0  0  0  0  0
  -26.1080  -26.7930   19.4220 C   0  0  0  0  0  3  0  0  0  0  0  0
  -24.9870  -27.6650   19.4150 C   0  0  0  0  0  3  0  0  0  0  0  0
  -23.7710  -29.8140   20.1190 C   0  0  0  0  0  2  0  0  0  0  0  0
  -24.8120  -31.0780   22.0310 N   0  0  0  0  0  0  0  0  0  0  0  0
  -23.6330  -32.1810   23.6510 O   0  0  0  0  0  0  0  0  0  0  0  0
  -22.8780  -29.4840   22.4690 C   0  0  0  0  0  0  0  0  0  0  0  0
  -21.5510  -29.2830   22.3540 N   0  0  0  0  0  0  0  0  0  0  0  0
  -23.5640  -28.8800   23.2990 O   0  0  0  0  0  0  0  0  0  0  0  0
  -21.0500  -29.8220   21.6620 H   0  0  0  0  0  0  0  0  0  0  0  0
  -18.2050  -27.9830   22.8920 C   0  0  0  0  0  0  0  0  0  0  0  0
  -20.7590  -28.3250   23.1350 C   0  0  0  0  0  3  0  0  0  0  0  0
  -20.8970  -26.8950   22.5640 C   0  0  0  0  0  2  0  0  0  0  0  0
  -19.7960  -26.5370   21.5600 C   0  0  0  0  0  2  0  0  0  0  0  0
  -18.4150  -26.6410   22.2130 C   0  0  0  0  0  2  0  0  0  0  0  0
  -19.3040  -28.7810   23.3110 C   0  0  0  0  0  0  0  0  0  0  0  0
  -19.0510  -30.0340   23.9110 C   0  0  0  0  0  3  0  0  0  0  0  0
  -17.7320  -30.4910   24.0940 C   0  0  0  0  0  3  0  0  0  0  0  0
  -16.6480  -29.6910   23.6910 C   0  0  0  0  0  3  0  0  0  0  0  0
  -16.8850  -28.4390   23.0960 C   0  0  0  0  0  3  0  0  0  0  0  0
  -25.9840  -32.5860   23.7380 C   0  0  0  0  0  3  0  0  0  0  0  0
  -26.5150  -31.8380   25.0250 C   0  0  1  0  0  0  0  0  0  0  0  0
  -25.4250  -31.5910   26.0950 C   0  0  0  0  0  1  0  0  0  0  0  0
  -27.1260  -30.4680   24.6570 C   0  0  0  0  0  1  0  0  0  0  0  0
  -27.6530  -32.6610   25.6740 C   0  0  0  0  0  1  0  0  0  0  0  0
  -25.6410  -33.9790   24.0730 N   0  0  0  0  0  0  0  0  0  0  0  0
  -25.9480  -35.0480   23.3260 C   0  0  0  0  0  0  0  0  0  0  0  0
  -26.6110  -34.9660   22.2890 O   0  0  0  0  0  0  0  0  0  0  0  0
  -25.0520  -34.1150   24.8810 H   0  0  0  0  0  0  0  0  0  0  0  0
  -24.1940  -36.8250   22.9970 C   0  0  0  0  0  1  0  0  0  0  0  0
  -25.4420  -36.4260   23.8010 C   0  0  0  0  0  3  0  0  0  0  0  0
  -27.5550  -37.3430   24.6500 C   0  0  0  0  0  1  0  0  0  0  0  0
  -26.4600  -37.4950   23.6970 N   0  0  0  0  0  0  0  0  0  0  0  0
  -26.0390  -38.4090   23.8410 H   0  0  0  0  0  0  0  0  0  0  0  0
  1  5  2  0
  1  4  1  0
  2  6  1  0
  2 11  1  0
  3 50  1  0
  3  6  2  0
  4  2  2  0
  5  3  1  0
  6  8  1  0
  7  5  1  0
  9 10  1  0
 10  4  1  0
 13 18  1  0
 14 15  1  0
 14 13  1  0
 16 15  1  0
 16 25  1  0
 16 17  1  0
 18 12  1  0
 18 17  1  0
 19 12  2  0
 20 12  1  0
 20 11  1  0
 21 20  1  0
 22 23  2  0
 23 42  1  0
 24 23  1  0
 24 27  1  0
 25 22  1  0
 25 26  1  0
 26 24  2  0
 27 28  1  0
 28 29  2  0
 30 33  1  0
 30 29  1  0
 31 30  2  0
 32 31  1  0
 32 27  2  0
 33 34  1  0
 34 39  2  0
 34 35  1  0
 35 36  2  0
 36 37  1  0
 37 41  1  0
 38 37  2  0
 39 38  1  0
 40 39  1  0
 42 43  1  0
 43 46  1  0
 43 45  1  0
 44 42  2  0
 47 48  1  0
 47 22  1  0
 49 47  1  0
 51 53  1  0
 51 50  1  0
 52 63  2  0
 53 58  1  0
 54 62  1  0
 54 64  1  0
 55 61  1  0
 55 57  1  0
 56 62  1  0
 57 56  1  0
 58 57  2  0
 59 53  2  0
 60 59  1  0
 60 55  2  0
 61 54  1  0
 62 52  1  0
 64 66  2  0
 65 64  1  0
 67 65  1  0
 68 77  2  0
 68 73  1  0
 69 65  1  0
 69 73  1  0
 70 69  1  0
 71 72  1  0
 71 70  1  0
 72 68  1  0
 73 74  2  0
 74 75  1  0
 76 75  2  0
 77 76  1  0
 78 52  1  0
 78 83  1  0
 78 79  1  0
 79 82  1  1
 79 80  1  0
 81 79  1  0
 83 86  1  0
 84 88  1  0
 84 83  1  0
 85 84  2  0
 88 87  1  0
 90 88  1  0
 90 91  1  0
 90 89  1  0
M  ISO  4  12 100  20 100  50 101  51 101
M  END
>  <TORSDO>  (71) 
F 19

>  <SCORE>  (71) 
-15.867

>  <name>  (71) 
71

>  <ligand_id>  (71) 
71

>  <original_smiles>  (71) 
[H]c1c([H])c([H])c2c(c1[H])C([H])([H])C([H])([H])C([H])([H])C2([H])N([H])C(=O)C1([H])N(C(=O)C([H])(N([H])C(=O)C([H])(N([H])C([H])([H])[H])C([H])([H])[H])C(C([H])([H])[H])(C([H])([H])[H])C([H])([H])[H])C([H])([H])c2c([H])c(OC([H])([H])c3c(Cl)c([H])c(OC([H])([H])[H])c(C([H])([H])N([H])C(=O)N4C([H])([H])C([H])([H])C([H])([H])C([H])(n5nc(-c6c([H])c([H])c(Oc7c([H])c([H])c(F)c([H])c7F)c([H])c6[H])c(C(=O)N([H])[H])c5N([H])[H])C4([H])[H])c3Cl)c([H])c([H])c2C1([H])[H]

>  <smiles>  (71) 
[H]c1c([H])c([H])c2c(c1[H])C([H])([H])C([H])([H])C([H])([H])C2([H])N([H])C(=O)C1([H])N(C(=O)C([H])(N([H])C(=O)C([H])(N([H])C([H])([H])[H])C([H])([H])[H])C(C([H])([H])[H])(C([H])([H])[H])C([H])([H])[H])C([H])([H])c2c([H])c(OC([H])([H])c3c(Cl)c([H])c(OC([H])([H])[H])c(C([H])([H])N([H])C(=O)N4C([H])([H])C([H])([H])C([H])([H])C([H])(n5nc(-c6c([H])c([H])c(Oc7c([H])c([H])c(F)c([H])c7F)c([H])c6[H])c(C(=O)N([H])[H])c5N([H])[H])C4([H])[H])c3Cl)c([H])c([H])c2C1([H])[H]

$$$$
72:0:0
     RDKit          3D

 89 97  0  0  1  0  0  0  0  0999 V2000
  -29.0740  -21.2260   18.8900 C   0  0  0  0  0  3  0  0  0  0  0  0
  -29.0380  -22.2730   19.9520 C   0  0  0  0  0  0  0  0  0  0  0  0
  -29.4250  -19.7350   18.9050 C   0  0  0  0  0  0  0  0  0  0  0  0
  -29.4710  -21.3940   21.0810 C   0  0  0  0  0  0  0  0  0  0  0  0
  -29.8230  -19.8880   21.1140 C   0  0  0  0  0  0  0  0  0  0  0  0
  -29.8490  -18.8530   20.0280 C   0  0  0  0  0  0  0  0  0  0  0  0
  -29.2540  -19.0150   17.5820 C   0  0  0  0  0  1  0  0  0  0  0  0
  -29.5140  -22.1300   22.4150 C   0  0  0  0  0  1  0  0  0  0  0  0
  -30.1780  -19.3210   22.4830 C   0  0  0  0  0  1  0  0  0  0  0  0
  -30.8180  -15.8370   20.0810 C   0  0  0  0  0  0  0  0  0  0  0  0
  -30.9910  -13.2620   19.3920 C   0  0  0  0  0  2  0  0  0  0  0  0
  -30.0980  -12.7960   18.2040 C   0  0  0  0  0  2  0  0  0  0  0  0
  -28.6850  -12.4330   18.6860 C   0  0  0  0  0  2  0  0  0  0  0  0
  -28.1610  -13.4650   19.7100 C   0  0  0  0  0  3  0  0  0  0  0  0
  -29.1920  -13.8390   20.8010 C   0  0  0  0  0  2  0  0  0  0  0  0
  -30.3500  -14.4530   20.1110 N   0  0  0  0  0  0  0  0  0  0  0  0
  -32.0430  -15.8270   19.8530 O   0  0  0  0  0  0  0  0  0  0  0  0
  -29.9690  -17.1370   20.1530 N   0  0  0  0  0  0  0  0  0  0  0  0
  -29.0530  -16.7940   20.4040 H   0  0  0  0  0  0  0  0  0  0  0  0
  -25.8270  -13.9780   20.5720 C   0  0  0  0  0  0  0  0  0  0  0  0
  -24.7750  -13.1890   20.9420 C   0  0  0  0  0  0  0  0  0  0  0  0
  -25.2370  -11.8400   20.8380 C   0  0  0  0  0  0  0  0  0  0  0  0
  -26.8580  -13.1130   20.2570 N   0  0  0  0  0  0  0  0  0  0  0  0
  -26.5190  -11.8170   20.4840 N   0  0  0  0  0  0  0  0  0  0  0  0
  -24.5070  -10.5740   20.9970 C   0  0  0  0  0  0  0  0  0  0  0  0
  -24.8890   -9.6150   21.9620 C   0  0  0  0  0  3  0  0  0  0  0  0
  -24.1550   -8.4180   22.1110 C   0  0  0  0  0  3  0  0  0  0  0  0
  -23.0260   -8.1710   21.2940 C   0  0  0  0  0  0  0  0  0  0  0  0
  -22.6640   -9.1170   20.3200 C   0  0  0  0  0  3  0  0  0  0  0  0
  -23.3980  -10.3060   20.1700 C   0  0  0  0  0  3  0  0  0  0  0  0
  -22.2690   -7.0250   21.3500 O   0  0  0  0  0  0  0  0  0  0  0  0
  -22.0250   -6.3800   22.5370 C   0  0  0  0  0  0  0  0  0  0  0  0
  -21.3810   -7.0240   23.6160 C   0  0  0  0  0  3  0  0  0  0  0  0
  -21.0880   -6.3040   24.7910 C   0  0  0  0  0  3  0  0  0  0  0  0
  -21.4290   -4.9420   24.8870 C   0  0  0  0  0  0  0  0  0  0  0  0
  -22.0660   -4.2980   23.8120 C   0  0  0  0  0  3  0  0  0  0  0  0
  -22.3610   -5.0150   22.6390 C   0  0  0  0  0  0  0  0  0  0  0  0
  -22.9550   -4.3840   21.5980 F   0  0  0  0  0  0  0  0  0  0  0  0
  -21.1410   -4.2480   26.0130 F   0  0  0  0  0  0  0  0  0  0  0  0
  -23.3900  -13.6610   21.2690 C   0  0  0  0  0  0  0  0  0  0  0  0
  -22.6860  -12.9400   22.1340 N   0  0  0  0  0  0  0  0  0  0  0  0
  -22.9430  -14.7040   20.7940 O   0  0  0  0  0  0  0  0  0  0  0  0
  -23.0620  -12.0980   22.5410 H   0  0  0  0  0  0  0  0  0  0  0  0
  -21.7570  -13.2380   22.3950 H   0  0  0  0  0  0  0  0  0  0  0  0
  -25.9870  -15.3550   20.4440 N   0  0  0  0  0  0  0  0  0  0  0  0
  -25.2170  -15.9980   20.5950 H   0  0  0  0  0  0  0  0  0  0  0  0
  -26.8030  -15.8020   20.0490 H   0  0  0  0  0  0  0  0  0  0  0  0
  -28.2460  -23.9720   19.9180 C   0  0  0  0  0  2  0  0  0  0  0  0
  -28.5450  -25.6840   20.1180 O   0  0  0  0  0  0  0  0  0  0  0  0
  -24.9360  -31.7640   23.3130 C   0  0  0  0  0  0  0  0  0  0  0  0
  -27.5830  -26.9040   20.0940 C   0  0  0  0  0  0  0  0  0  0  0  0
  -23.8060  -30.4690   21.5560 C   0  0  0  0  0  3  0  0  0  0  0  0
  -25.3060  -28.9200   20.0900 C   0  0  0  0  0  0  0  0  0  0  0  0
  -26.3860  -30.6290   21.5250 C   0  0  0  0  0  2  0  0  0  0  0  0
  -26.4790  -29.2420   20.7820 C   0  0  0  0  0  0  0  0  0  0  0  0
  -27.6030  -28.2630   20.7560 C   0  0  0  0  0  3  0  0  0  0  0  0
  -26.3780  -26.7930   19.3540 C   0  0  0  0  0  3  0  0  0  0  0  0
  -25.2940  -27.7230   19.3540 C   0  0  0  0  0  3  0  0  0  0  0  0
  -24.0920  -29.8610   20.1520 C   0  0  0  0  0  2  0  0  0  0  0  0
  -25.0650  -30.9840   22.1860 N   0  0  0  0  0  0  0  0  0  0  0  0
  -23.8260  -32.0280   23.8070 O   0  0  0  0  0  0  0  0  0  0  0  0
  -23.0650  -29.4290   22.4410 C   0  0  0  0  0  0  0  0  0  0  0  0
  -21.7370  -29.2810   22.2650 N   0  0  0  0  0  0  0  0  0  0  0  0
  -23.6970  -28.7570   23.2580 O   0  0  0  0  0  0  0  0  0  0  0  0
  -21.2780  -29.8750   21.5900 H   0  0  0  0  0  0  0  0  0  0  0  0
  -18.3360  -28.0540   22.6180 C   0  0  0  0  0  0  0  0  0  0  0  0
  -20.8910  -28.2970   22.9530 C   0  0  0  0  0  3  0  0  0  0  0  0
  -21.0020  -26.9060   22.2860 C   0  0  0  0  0  2  0  0  0  0  0  0
  -19.9230  -26.6570   21.2260 C   0  0  0  0  0  2  0  0  0  0  0  0
  -18.5270  -26.7580   21.8470 C   0  0  0  0  0  2  0  0  0  0  0  0
  -19.4450  -28.7850   23.1220 C   0  0  0  0  0  0  0  0  0  0  0  0
  -19.2090  -29.9960   23.8070 C   0  0  0  0  0  3  0  0  0  0  0  0
  -17.8990  -30.4800   23.9880 C   0  0  0  0  0  3  0  0  0  0  0  0
  -16.8050  -29.7460   23.4950 C   0  0  0  0  0  3  0  0  0  0  0  0
  -17.0240  -28.5340   22.8170 C   0  0  0  0  0  3  0  0  0  0  0  0
  -26.1760  -32.3770   24.0320 C   0  0  0  0  0  3  0  0  0  0  0  0
  -25.8390  -33.7570   24.4360 N   0  0  0  0  0  0  0  0  0  0  0  0
  -26.1590  -34.8620   23.7510 C   0  0  0  0  0  0  0  0  0  0  0  0
  -26.8270  -34.8290   22.7150 O   0  0  0  0  0  0  0  0  0  0  0  0
  -25.2440  -33.8540   25.2460 H   0  0  0  0  0  0  0  0  0  0  0  0
  -24.4000  -36.6550   23.5410 C   0  0  0  0  0  1  0  0  0  0  0  0
  -25.6650  -36.2180   24.2980 C   0  0  0  0  0  3  0  0  0  0  0  0
  -27.8030  -37.0990   25.1330 C   0  0  0  0  0  1  0  0  0  0  0  0
  -26.6810  -37.2930   24.2190 N   0  0  0  0  0  0  0  0  0  0  0  0
  -26.2630  -38.1990   24.4190 H   0  0  0  0  0  0  0  0  0  0  0  0
  -26.6290  -31.5460   25.2970 C   0  0  1  0  0  0  0  0  0  0  0  0
  -25.4880  -31.2770   26.3080 C   0  0  0  0  0  1  0  0  0  0  0  0
  -27.2150  -30.1770   24.8830 C   0  0  0  0  0  1  0  0  0  0  0  0
  -27.7580  -32.2980   26.0410 C   0  0  0  0  0  1  0  0  0  0  0  0
  1  3  2  0
  1  2  1  0
  2  4  2  0
  3  6  1  0
  4  5  1  0
  4  8  1  0
  5  9  1  0
  6 18  1  0
  6  5  2  0
  7  3  1  0
 10 16  1  0
 10 18  1  0
 11 16  1  0
 12 13  1  0
 12 11  1  0
 14 13  1  0
 14 23  1  0
 14 15  1  0
 16 15  1  0
 17 10  2  0
 18 19  1  0
 20 21  2  0
 21 40  1  0
 22 21  1  0
 22 25  1  0
 23 24  1  0
 23 20  1  0
 24 22  2  0
 25 26  1  0
 26 27  2  0
 28 31  1  0
 28 27  1  0
 29 28  2  0
 30 29  1  0
 30 25  2  0
 31 32  1  0
 32 37  2  0
 32 33  1  0
 33 34  2  0
 34 35  1  0
 35 39  1  0
 36 35  2  0
 37 36  1  0
 38 37  1  0
 40 41  1  0
 41 44  1  0
 41 43  1  0
 42 40  2  0
 45 20  1  0
 45 46  1  0
 47 45  1  0
 48  2  1  0
 48 49  1  0
 50 61  2  0
 51 49  1  0
 51 56  1  0
 52 60  1  0
 52 62  1  0
 53 59  1  0
 53 55  1  0
 54 60  1  0
 55 54  1  0
 56 55  2  0
 57 51  2  0
 58 57  1  0
 58 53  2  0
 59 52  1  0
 60 50  1  0
 62 64  2  0
 63 62  1  0
 65 63  1  0
 66 75  2  0
 66 71  1  0
 67 63  1  0
 67 71  1  0
 68 67  1  0
 69 70  1  0
 69 68  1  0
 70 66  1  0
 71 72  2  0
 72 73  1  0
 74 73  2  0
 75 74  1  0
 76 50  1  0
 76 77  1  0
 76 86  1  0
 77 80  1  0
 78 82  1  0
 78 77  1  0
 79 78  2  0
 82 81  1  0
 84 82  1  0
 84 85  1  0
 84 83  1  0
 86 89  1  1
 86 87  1  0
 88 86  1  0
M  ISO  4  10 100  18 100  48 101  49 101
M  END
>  <TORSDO>  (72) 
F 17

>  <SCORE>  (72) 
-14.813

>  <name>  (72) 
72

>  <ligand_id>  (72) 
72

>  <original_smiles>  (72) 
[H]c1c([H])c([H])c2c(c1[H])C([H])([H])C([H])([H])C([H])([H])C2([H])N([H])C(=O)C1([H])N(C(=O)C([H])(N([H])C(=O)C([H])(N([H])C([H])([H])[H])C([H])([H])[H])C(C([H])([H])[H])(C([H])([H])[H])C([H])([H])[H])C([H])([H])c2c([H])c(OC([H])([H])c3c([H])c(C([H])([H])[H])c(N([H])C(=O)N4C([H])([H])C([H])([H])C([H])([H])C([H])(n5nc(-c6c([H])c([H])c(Oc7c([H])c([H])c(F)c([H])c7F)c([H])c6[H])c(C(=O)N([H])[H])c5N([H])[H])C4([H])[H])c(C([H])([H])[H])c3C([H])([H])[H])c([H])c([H])c2C1([H])[H]

>  <smiles>  (72) 
[H]c1c([H])c([H])c2c(c1[H])C([H])([H])C([H])([H])C([H])([H])C2([H])N([H])C(=O)C1([H])N(C(=O)C([H])(N([H])C(=O)C([H])(N([H])C([H])([H])[H])C([H])([H])[H])C(C([H])([H])[H])(C([H])([H])[H])C([H])([H])[H])C([H])([H])c2c([H])c(OC([H])([H])c3c([H])c(C([H])([H])[H])c(N([H])C(=O)N4C([H])([H])C([H])([H])C([H])([H])C([H])(n5nc(-c6c([H])c([H])c(Oc7c([H])c([H])c(F)c([H])c7F)c([H])c6[H])c(C(=O)N([H])[H])c5N([H])[H])C4([H])[H])c(C([H])([H])[H])c3C([H])([H])[H])c([H])c([H])c2C1([H])[H]

$$$$
73:0:0
     RDKit          3D

 88 96  0  0  1  0  0  0  0  0999 V2000
  -30.2050  -19.9020   20.5510 C   0  0  0  0  0  3  0  0  0  0  0  0
  -27.7900  -20.9350   19.9960 C   0  0  0  0  0  3  0  0  0  0  0  0
  -29.8830  -21.4180   20.6000 C   0  0  0  0  0  0  0  0  0  0  0  0
  -28.5990  -22.1430   20.2970 C   0  0  0  0  0  0  0  0  0  0  0  0
  -29.3520  -18.7080   20.2430 C   0  0  0  0  0  0  0  0  0  0  0  0
  -28.0980  -19.4480   19.9740 C   0  0  0  0  0  0  0  0  0  0  0  0
  -31.0450  -22.2880   21.0520 C   0  0  0  0  0  1  0  0  0  0  0  0
  -26.7520  -18.4430   19.5680 Cl  0  0  0  0  0  0  0  0  0  0  0  0
  -30.3270  -15.6880   20.1370 C   0  0  0  0  0  0  0  0  0  0  0  0
  -30.4270  -13.1670   19.2690 C   0  0  0  0  0  2  0  0  0  0  0  0
  -29.4970  -12.7830   18.0810 C   0  0  0  0  0  2  0  0  0  0  0  0
  -28.0800  -12.4330   18.5700 C   0  0  0  0  0  2  0  0  0  0  0  0
  -27.6030  -13.4080   19.6720 C   0  0  0  0  0  3  0  0  0  0  0  0
  -28.6730  -13.6890   20.7540 C   0  0  0  0  0  2  0  0  0  0  0  0
  -29.8230  -14.3210   20.0660 N   0  0  0  0  0  0  0  0  0  0  0  0
  -31.5560  -15.6670   19.9400 O   0  0  0  0  0  0  0  0  0  0  0  0
  -29.4900  -16.9910   20.2120 N   0  0  0  0  0  0  0  0  0  0  0  0
  -28.5400  -16.6470   20.2010 H   0  0  0  0  0  0  0  0  0  0  0  0
  -25.2640  -13.9010   20.5410 C   0  0  0  0  0  0  0  0  0  0  0  0
  -24.2260  -13.1040   20.9280 C   0  0  0  0  0  0  0  0  0  0  0  0
  -24.7060  -11.7600   20.8440 C   0  0  0  0  0  0  0  0  0  0  0  0
  -26.3070  -13.0480   20.2330 N   0  0  0  0  0  0  0  0  0  0  0  0
  -25.9880  -11.7500   20.4830 N   0  0  0  0  0  0  0  0  0  0  0  0
  -23.9930  -10.4880   21.0260 C   0  0  0  0  0  0  0  0  0  0  0  0
  -24.4320   -9.5170   21.9530 C   0  0  0  0  0  3  0  0  0  0  0  0
  -23.7150   -8.3130   22.1250 C   0  0  0  0  0  3  0  0  0  0  0  0
  -22.5440   -8.0710   21.3690 C   0  0  0  0  0  0  0  0  0  0  0  0
  -22.1220   -9.0300   20.4300 C   0  0  0  0  0  3  0  0  0  0  0  0
  -22.8400  -10.2250   20.2580 C   0  0  0  0  0  3  0  0  0  0  0  0
  -21.7980   -6.9200   21.4510 O   0  0  0  0  0  0  0  0  0  0  0  0
  -21.7160   -6.1960   22.6130 C   0  0  0  0  0  0  0  0  0  0  0  0
  -21.1970   -6.7520   23.8020 C   0  0  0  0  0  3  0  0  0  0  0  0
  -21.0650   -5.9530   24.9550 C   0  0  0  0  0  3  0  0  0  0  0  0
  -21.4430   -4.5980   24.9200 C   0  0  0  0  0  0  0  0  0  0  0  0
  -21.9570   -4.0400   23.7350 C   0  0  0  0  0  3  0  0  0  0  0  0
  -22.0890   -4.8360   22.5850 C   0  0  0  0  0  0  0  0  0  0  0  0
  -22.5640   -4.2880   21.4390 F   0  0  0  0  0  0  0  0  0  0  0  0
  -21.3100   -3.8270   26.0260 F   0  0  0  0  0  0  0  0  0  0  0  0
  -22.8340  -13.5620   21.2500 C   0  0  0  0  0  0  0  0  0  0  0  0
  -22.1420  -12.8540   22.1320 N   0  0  0  0  0  0  0  0  0  0  0  0
  -22.3720  -14.5900   20.7560 O   0  0  0  0  0  0  0  0  0  0  0  0
  -22.5290  -12.0250   22.5590 H   0  0  0  0  0  0  0  0  0  0  0  0
  -21.2090  -13.1470   22.3900 H   0  0  0  0  0  0  0  0  0  0  0  0
  -25.3980  -15.2770   20.3940 N   0  0  0  0  0  0  0  0  0  0  0  0
  -24.6130  -15.9000   20.5470 H   0  0  0  0  0  0  0  0  0  0  0  0
  -26.1940  -15.7450   19.9830 H   0  0  0  0  0  0  0  0  0  0  0  0
  -27.8730  -23.8710   20.3220 C   0  0  0  0  0  2  0  0  0  0  0  0
  -28.2030  -25.5870   20.3580 O   0  0  0  0  0  0  0  0  0  0  0  0
  -24.6940  -31.8780   23.2640 C   0  0  0  0  0  0  0  0  0  0  0  0
  -27.2380  -26.8040   20.3060 C   0  0  0  0  0  0  0  0  0  0  0  0
  -23.5130  -30.4850   21.6190 C   0  0  0  0  0  3  0  0  0  0  0  0
  -24.9690  -28.8340   20.2200 C   0  0  0  0  0  0  0  0  0  0  0  0
  -26.0940  -30.6220   21.5190 C   0  0  0  0  0  2  0  0  0  0  0  0
  -26.1610  -29.1900   20.8640 C   0  0  0  0  0  0  0  0  0  0  0  0
  -27.2810  -28.2050   20.8740 C   0  0  0  0  0  3  0  0  0  0  0  0
  -26.0120  -26.6550   19.6050 C   0  0  0  0  0  3  0  0  0  0  0  0
  -24.9360  -27.5910   19.5650 C   0  0  0  0  0  3  0  0  0  0  0  0
  -23.7630  -29.7870   20.2500 C   0  0  0  0  0  2  0  0  0  0  0  0
  -24.7900  -31.0270   22.1860 N   0  0  0  0  0  0  0  0  0  0  0  0
  -23.5980  -32.1830   23.7660 O   0  0  0  0  0  0  0  0  0  0  0  0
  -22.7870  -29.5090   22.5830 C   0  0  0  0  0  0  0  0  0  0  0  0
  -21.4540  -29.3570   22.4460 N   0  0  0  0  0  0  0  0  0  0  0  0
  -23.4340  -28.8850   23.4280 O   0  0  0  0  0  0  0  0  0  0  0  0
  -20.9840  -29.9080   21.7400 H   0  0  0  0  0  0  0  0  0  0  0  0
  -18.0580  -28.1640   22.9390 C   0  0  0  0  0  0  0  0  0  0  0  0
  -20.6180  -28.4250   23.2130 C   0  0  0  0  0  3  0  0  0  0  0  0
  -20.7170  -26.9910   22.6410 C   0  0  0  0  0  2  0  0  0  0  0  0
  -19.6200  -26.6710   21.6210 C   0  0  0  0  0  2  0  0  0  0  0  0
  -18.2360  -26.8170   22.2580 C   0  0  0  0  0  2  0  0  0  0  0  0
  -19.1760  -28.9260   23.3720 C   0  0  0  0  0  0  0  0  0  0  0  0
  -18.9530  -30.1830   23.9750 C   0  0  0  0  0  3  0  0  0  0  0  0
  -17.6470  -30.6790   24.1450 C   0  0  0  0  0  3  0  0  0  0  0  0
  -16.5440  -29.9160   23.7230 C   0  0  0  0  0  3  0  0  0  0  0  0
  -16.7510  -28.6600   23.1260 C   0  0  0  0  0  3  0  0  0  0  0  0
  -25.9550  -32.5240   23.9150 C   0  0  0  0  0  3  0  0  0  0  0  0
  -25.6370  -33.9300   24.2350 N   0  0  0  0  0  0  0  0  0  0  0  0
  -25.9570  -34.9850   23.4740 C   0  0  0  0  0  0  0  0  0  0  0  0
  -26.6040  -34.8780   22.4290 O   0  0  0  0  0  0  0  0  0  0  0  0
  -25.0580  -34.0860   25.0470 H   0  0  0  0  0  0  0  0  0  0  0  0
  -24.2140  -36.7820   23.1820 C   0  0  0  0  0  1  0  0  0  0  0  0
  -25.4880  -36.3800   23.9420 C   0  0  0  0  0  3  0  0  0  0  0  0
  -27.6440  -37.2920   24.6890 C   0  0  0  0  0  1  0  0  0  0  0  0
  -26.5140  -37.4320   23.7720 N   0  0  0  0  0  0  0  0  0  0  0  0
  -26.1110  -38.3550   23.9030 H   0  0  0  0  0  0  0  0  0  0  0  0
  -26.4300  -31.7730   25.2220 C   0  0  1  0  0  0  0  0  0  0  0  0
  -25.3060  -31.5650   26.2650 C   0  0  0  0  0  1  0  0  0  0  0  0
  -27.0100  -30.3810   24.8830 C   0  0  0  0  0  1  0  0  0  0  0  0
  -27.5690  -32.5690   25.9000 C   0  0  0  0  0  1  0  0  0  0  0  0
  1  3  1  0
  2  4  1  0
  3  7  1  0
  4 47  1  0
  4  3  2  0
  5  1  2  0
  6  2  2  0
  6  5  1  0
  8  6  1  0
  9 17  1  0
 10 15  1  0
 11 12  1  0
 11 10  1  0
 13 12  1  0
 13 22  1  0
 13 14  1  0
 15  9  1  0
 15 14  1  0
 16  9  2  0
 17  5  1  0
 18 17  1  0
 19 20  2  0
 20 39  1  0
 21 20  1  0
 21 24  1  0
 22 23  1  0
 22 19  1  0
 23 21  2  0
 24 25  1  0
 25 26  2  0
 27 30  1  0
 27 26  1  0
 28 27  2  0
 29 28  1  0
 29 24  2  0
 30 31  1  0
 31 32  1  0
 32 33  2  0
 34 33  1  0
 34 38  1  0
 35 34  2  0
 36 31  2  0
 36 35  1  0
 37 36  1  0
 39 40  1  0
 40 43  1  0
 40 42  1  0
 41 39  2  0
 44 19  1  0
 44 45  1  0
 46 44  1  0
 47 48  1  0
 49 60  2  0
 50 48  1  0
 50 55  1  0
 51 59  1  0
 51 61  1  0
 52 58  1  0
 52 54  1  0
 53 59  1  0
 54 55  2  0
 54 53  1  0
 56 50  2  0
 57 56  1  0
 57 52  2  0
 58 51  1  0
 59 49  1  0
 61 63  2  0
 62 61  1  0
 64 62  1  0
 65 74  2  0
 65 70  1  0
 66 62  1  0
 66 70  1  0
 67 66  1  0
 68 69  1  0
 68 67  1  0
 69 65  1  0
 70 71  2  0
 71 72  1  0
 73 72  2  0
 74 73  1  0
 75 49  1  0
 75 76  1  0
 75 85  1  0
 76 79  1  0
 77 81  1  0
 77 76  1  0
 78 77  2  0
 81 80  1  0
 83 84  1  0
 83 81  1  0
 83 82  1  0
 85 88  1  1
 85 86  1  0
 87 85  1  0
M  ISO  4   9 100  17 100  47 101  48 101
M  END
>  <TORSDO>  (73) 
F 17

>  <SCORE>  (73) 
-16.662

>  <name>  (73) 
73

>  <ligand_id>  (73) 
73

>  <original_smiles>  (73) 
[H]c1c([H])c([H])c2c(c1[H])C([H])([H])C([H])([H])C([H])([H])C2([H])N([H])C(=O)C1([H])N(C(=O)C([H])(N([H])C(=O)C([H])(N([H])C([H])([H])[H])C([H])([H])[H])C(C([H])([H])[H])(C([H])([H])[H])C([H])([H])[H])C([H])([H])c2c([H])c(OC([H])([H])c3c([H])c(Cl)c(N([H])C(=O)N4C([H])([H])C([H])([H])C([H])([H])C([H])(n5nc(-c6c([H])c([H])c(Oc7c([H])c([H])c(F)c([H])c7F)c([H])c6[H])c(C(=O)N([H])[H])c5N([H])[H])C4([H])[H])c([H])c3C([H])([H])[H])c([H])c([H])c2C1([H])[H]

>  <smiles>  (73) 
[H]c1c([H])c([H])c2c(c1[H])C([H])([H])C([H])([H])C([H])([H])C2([H])N([H])C(=O)C1([H])N(C(=O)C([H])(N([H])C(=O)C([H])(N([H])C([H])([H])[H])C([H])([H])[H])C(C([H])([H])[H])(C([H])([H])[H])C([H])([H])[H])C([H])([H])c2c([H])c(OC([H])([H])c3c([H])c(Cl)c(N([H])C(=O)N4C([H])([H])C([H])([H])C([H])([H])C([H])(n5nc(-c6c([H])c([H])c(Oc7c([H])c([H])c(F)c([H])c7F)c([H])c6[H])c(C(=O)N([H])[H])c5N([H])[H])C4([H])[H])c([H])c3C([H])([H])[H])c([H])c([H])c2C1([H])[H]

$$$$
74:0:0
     RDKit          3D

 88 95  0  0  1  0  0  0  0  0999 V2000
  -29.2910  -21.1870   20.3960 C   0  0  0  0  0  2  0  0  0  0  0  0
  -28.9560  -22.8280   19.7560 C   0  0  0  0  0  2  0  0  0  0  0  0
  -28.2010  -24.3020   20.4160 C   0  0  0  0  0  2  0  0  0  0  0  0
  -28.3600  -25.9110   20.1860 O   0  0  0  0  0  0  0  0  0  0  0  0
  -24.6200  -31.7450   23.1520 C   0  0  0  0  0  0  0  0  0  0  0  0
  -27.3030  -26.9470   20.1820 C   0  0  0  0  0  0  0  0  0  0  0  0
  -23.4790  -30.3490   21.4740 C   0  0  0  0  0  3  0  0  0  0  0  0
  -24.9770  -28.7670   20.0870 C   0  0  0  0  0  0  0  0  0  0  0  0
  -26.0430  -30.6000   21.3870 C   0  0  0  0  0  2  0  0  0  0  0  0
  -26.1450  -29.1970   20.7320 C   0  0  0  0  0  0  0  0  0  0  0  0
  -27.3080  -28.3090   20.7490 C   0  0  0  0  0  3  0  0  0  0  0  0
  -26.1030  -26.6530   19.5010 C   0  0  0  0  0  3  0  0  0  0  0  0
  -24.9780  -27.5140   19.4540 C   0  0  0  0  0  3  0  0  0  0  0  0
  -23.7490  -29.6730   20.1020 C   0  0  0  0  0  2  0  0  0  0  0  0
  -24.7340  -30.9240   22.0590 N   0  0  0  0  0  0  0  0  0  0  0  0
  -23.5160  -32.0190   23.6490 O   0  0  0  0  0  0  0  0  0  0  0  0
  -22.7750  -29.3380   22.4160 C   0  0  0  0  0  0  0  0  0  0  0  0
  -21.4450  -29.1800   22.2720 N   0  0  0  0  0  0  0  0  0  0  0  0
  -23.4290  -28.6980   23.2430 O   0  0  0  0  0  0  0  0  0  0  0  0
  -20.9720  -29.7480   21.5840 H   0  0  0  0  0  0  0  0  0  0  0  0
  -18.0510  -27.9910   22.7350 C   0  0  0  0  0  0  0  0  0  0  0  0
  -20.6110  -28.2320   23.0180 C   0  0  0  0  0  3  0  0  0  0  0  0
  -20.7050  -26.8120   22.4130 C   0  0  0  0  0  2  0  0  0  0  0  0
  -19.6060  -26.5190   21.3870 C   0  0  0  0  0  2  0  0  0  0  0  0
  -18.2210  -26.6580   22.0270 C   0  0  0  0  0  2  0  0  0  0  0  0
  -19.1730  -28.7390   23.1850 C   0  0  0  0  0  0  0  0  0  0  0  0
  -18.9560  -29.9860   23.8090 C   0  0  0  0  0  3  0  0  0  0  0  0
  -17.6520  -30.4880   23.9840 C   0  0  0  0  0  3  0  0  0  0  0  0
  -16.5450  -29.7390   23.5470 C   0  0  0  0  0  3  0  0  0  0  0  0
  -16.7470  -28.4920   22.9280 C   0  0  0  0  0  3  0  0  0  0  0  0
  -25.8700  -32.3930   23.8200 C   0  0  0  0  0  3  0  0  0  0  0  0
  -25.5340  -33.7900   24.1460 N   0  0  0  0  0  0  0  0  0  0  0  0
  -25.8830  -34.8550   23.4120 C   0  0  0  0  0  0  0  0  0  0  0  0
  -26.5840  -34.7650   22.4000 O   0  0  0  0  0  0  0  0  0  0  0  0
  -24.9160  -33.9330   24.9310 H   0  0  0  0  0  0  0  0  0  0  0  0
  -24.1460  -36.6400   23.0440 C   0  0  0  0  0  1  0  0  0  0  0  0
  -25.3780  -36.2390   23.8710 C   0  0  0  0  0  3  0  0  0  0  0  0
  -27.4910  -37.1420   24.7400 C   0  0  0  0  0  1  0  0  0  0  0  0
  -26.4020  -37.3020   23.7780 N   0  0  0  0  0  0  0  0  0  0  0  0
  -25.9850  -38.2180   23.9220 H   0  0  0  0  0  0  0  0  0  0  0  0
  -26.3440  -31.6300   25.1190 C   0  0  1  0  0  0  0  0  0  0  0  0
  -25.2130  -31.3890   26.1470 C   0  0  0  0  0  1  0  0  0  0  0  0
  -26.9500  -30.2550   24.7590 C   0  0  0  0  0  1  0  0  0  0  0  0
  -27.4630  -32.4350   25.8190 C   0  0  0  0  0  1  0  0  0  0  0  0
  -29.5110  -19.5620   19.6720 C   0  0  0  0  0  3  0  0  0  0  0  0
  -27.2740  -18.3840   20.0250 C   0  0  0  0  0  1  0  0  0  0  0  0
  -28.3940  -18.2390   17.7660 C   0  0  0  0  0  1  0  0  0  0  0  0
  -27.3450  -20.3420   18.4770 C   0  0  0  0  0  1  0  0  0  0  0  0
  -28.1530  -19.1330   19.0040 C   0  0  2  0  0  0  0  0  0  0  0  0
  -30.3100  -18.1090   20.3620 C   0  0  0  0  0  2  0  0  0  0  0  0
  -30.7460  -15.2170   20.1770 C   0  0  0  0  0  0  0  0  0  0  0  0
  -30.6350  -12.7900   19.2960 C   0  0  0  0  0  2  0  0  0  0  0  0
  -29.7070  -12.6380   18.0660 C   0  0  0  0  0  2  0  0  0  0  0  0
  -28.2470  -12.4260   18.5070 C   0  0  0  0  0  2  0  0  0  0  0  0
  -27.8320  -13.3990   19.6400 C   0  0  0  0  0  3  0  0  0  0  0  0
  -28.8880  -13.4960   20.7610 C   0  0  0  0  0  2  0  0  0  0  0  0
  -30.1360  -13.9400   20.1260 N   0  0  0  0  0  0  0  0  0  0  0  0
  -31.9680  -15.1980   19.9720 O   0  0  0  0  0  0  0  0  0  0  0  0
  -30.0040  -16.4820   20.2620 N   0  0  0  0  0  0  0  0  0  0  0  0
  -29.0160  -16.2920   20.3390 H   0  0  0  0  0  0  0  0  0  0  0  0
  -25.4720  -14.0180   20.3840 C   0  0  0  0  0  0  0  0  0  0  0  0
  -24.3930  -13.2690   20.7580 C   0  0  0  0  0  0  0  0  0  0  0  0
  -24.8310  -11.9100   20.7460 C   0  0  0  0  0  0  0  0  0  0  0  0
  -26.4970  -13.1190   20.1520 N   0  0  0  0  0  0  0  0  0  0  0  0
  -26.1240  -11.8450   20.4400 N   0  0  0  0  0  0  0  0  0  0  0  0
  -24.0790  -10.6660   20.9490 C   0  0  0  0  0  0  0  0  0  0  0  0
  -24.4860   -9.7000   21.8960 C   0  0  0  0  0  3  0  0  0  0  0  0
  -23.7300   -8.5240   22.0880 C   0  0  0  0  0  3  0  0  0  0  0  0
  -22.5530   -8.3060   21.3340 C   0  0  0  0  0  0  0  0  0  0  0  0
  -22.1650   -9.2590   20.3760 C   0  0  0  0  0  3  0  0  0  0  0  0
  -22.9200  -10.4270   20.1820 C   0  0  0  0  0  3  0  0  0  0  0  0
  -21.7710   -7.1810   21.4340 O   0  0  0  0  0  0  0  0  0  0  0  0
  -21.7020   -6.4530   22.5940 C   0  0  0  0  0  0  0  0  0  0  0  0
  -21.2890   -7.0330   23.8150 C   0  0  0  0  0  3  0  0  0  0  0  0
  -21.1660   -6.2330   24.9680 C   0  0  0  0  0  3  0  0  0  0  0  0
  -21.4470   -4.8540   24.9040 C   0  0  0  0  0  0  0  0  0  0  0  0
  -21.8530   -4.2750   23.6890 C   0  0  0  0  0  3  0  0  0  0  0  0
  -21.9770   -5.0710   22.5380 C   0  0  0  0  0  0  0  0  0  0  0  0
  -22.3470   -4.5040   21.3640 F   0  0  0  0  0  0  0  0  0  0  0  0
  -21.3220   -4.0850   26.0090 F   0  0  0  0  0  0  0  0  0  0  0  0
  -23.0050  -13.7800   21.0110 C   0  0  0  0  0  0  0  0  0  0  0  0
  -22.2650  -13.1280   21.9000 N   0  0  0  0  0  0  0  0  0  0  0  0
  -22.5870  -14.7950   20.4550 O   0  0  0  0  0  0  0  0  0  0  0  0
  -22.6140  -12.3070   22.3710 H   0  0  0  0  0  0  0  0  0  0  0  0
  -21.3340  -13.4550   22.1120 H   0  0  0  0  0  0  0  0  0  0  0  0
  -25.6580  -15.3830   20.1890 N   0  0  0  0  0  0  0  0  0  0  0  0
  -24.8960  -16.0440   20.3000 H   0  0  0  0  0  0  0  0  0  0  0  0
  -26.4990  -15.8060   19.8230 H   0  0  0  0  0  0  0  0  0  0  0  0
  2  1  1  0
  2  3  1  0
  4  3  1  0
  5 16  2  0
  6  4  1  0
  6 11  1  0
  7 15  1  0
  7 17  1  0
  8 14  1  0
  8 10  1  0
  9 15  1  0
 10 11  2  0
 10  9  1  0
 12  6  2  0
 13 12  1  0
 13  8  2  0
 14  7  1  0
 15  5  1  0
 17 19  2  0
 18 17  1  0
 20 18  1  0
 21 30  2  0
 21 26  1  0
 22 18  1  0
 22 26  1  0
 23 22  1  0
 24 25  1  0
 24 23  1  0
 25 21  1  0
 26 27  2  0
 27 28  1  0
 29 28  2  0
 30 29  1  0
 31  5  1  0
 31 32  1  0
 31 41  1  0
 32 35  1  0
 33 37  1  0
 33 32  1  0
 34 33  2  0
 37 36  1  0
 39 37  1  0
 39 40  1  0
 39 38  1  0
 41 44  1  1
 41 42  1  0
 43 41  1  0
 45 50  1  0
 45  1  1  0
 49 47  1  6
 48 49  1  0
 49 45  1  0
 49 46  1  0
 51 59  1  0
 52 57  1  0
 53 54  1  0
 53 52  1  0
 55 54  1  0
 55 64  1  0
 55 56  1  0
 57 51  1  0
 57 56  1  0
 58 51  2  0
 59 60  1  0
 59 50  1  0
 61 62  2  0
 62 81  1  0
 63 62  1  0
 63 66  1  0
 64 61  1  0
 64 65  1  0
 65 63  2  0
 66 67  1  0
 67 68  2  0
 69 72  1  0
 69 68  1  0
 70 69  2  0
 71 70  1  0
 71 66  2  0
 72 73  1  0
 73 74  1  0
 74 75  2  0
 76 75  1  0
 76 80  1  0
 77 76  2  0
 78 73  2  0
 78 77  1  0
 79 78  1  0
 81 82  1  0
 82 85  1  0
 82 84  1  0
 83 81  2  0
 86 87  1  0
 86 61  1  0
 88 86  1  0
M  ISO  4   3 101   4 101  51 100  59 100
M  END
>  <TORSDO>  (74) 
F 21

>  <SCORE>  (74) 
-15.691

>  <name>  (74) 
74

>  <ligand_id>  (74) 
74

>  <original_smiles>  (74) 
[H]c1c([H])c([H])c2c(c1[H])C([H])([H])C([H])([H])C([H])([H])C2([H])N([H])C(=O)C1([H])N(C(=O)C([H])(N([H])C(=O)C([H])(N([H])C([H])([H])[H])C([H])([H])[H])C(C([H])([H])[H])(C([H])([H])[H])C([H])([H])[H])C([H])([H])c2c([H])c(OC([H])([H])C([H])([H])C([H])([H])C([H])(C([H])([H])N([H])C(=O)N3C([H])([H])C([H])([H])C([H])([H])C([H])(n4nc(-c5c([H])c([H])c(Oc6c([H])c([H])c(F)c([H])c6F)c([H])c5[H])c(C(=O)N([H])[H])c4N([H])[H])C3([H])[H])C(C([H])([H])[H])(C([H])([H])[H])C([H])([H])[H])c([H])c([H])c2C1([H])[H]

>  <smiles>  (74) 
[H]c1c([H])c([H])c2c(c1[H])C([H])([H])C([H])([H])C([H])([H])C2([H])N([H])C(=O)C1([H])N(C(=O)C([H])(N([H])C(=O)C([H])(N([H])C([H])([H])[H])C([H])([H])[H])C(C([H])([H])[H])(C([H])([H])[H])C([H])([H])[H])C([H])([H])c2c([H])c(OC([H])([H])C([H])([H])C([H])([H])C([H])(C([H])([H])N([H])C(=O)N3C([H])([H])C([H])([H])C([H])([H])C([H])(n4nc(-c5c([H])c([H])c(Oc6c([H])c([H])c(F)c([H])c6F)c([H])c5[H])c(C(=O)N([H])[H])c4N([H])[H])C3([H])[H])C(C([H])([H])[H])(C([H])([H])[H])C([H])([H])[H])c([H])c([H])c2C1([H])[H]

$$$$
75:0:0
     RDKit          3D

 89 97  0  0  1  0  0  0  0  0999 V2000
  -29.9630  -20.2470   21.6310 C   0  0  0  0  0  3  0  0  0  0  0  0
  -29.8630  -21.5150   22.2690 C   0  0  0  0  0  3  0  0  0  0  0  0
  -29.5780  -20.0200   20.2950 C   0  0  0  0  0  0  0  0  0  0  0  0
  -28.8720  -22.7630   20.3490 C   0  0  0  0  0  0  0  0  0  0  0  0
  -29.3530  -22.7060   21.6800 C   0  0  0  0  0  0  0  0  0  0  0  0
  -29.0220  -21.3510   19.7000 C   0  0  0  0  0  0  0  0  0  0  0  0
  -29.3050  -24.1220   22.6700 Cl  0  0  0  0  0  0  0  0  0  0  0  0
  -28.4870  -21.2400   18.0640 Cl  0  0  0  0  0  0  0  0  0  0  0  0
  -29.9700  -18.4160   19.6420 C   0  0  0  0  0  2  0  0  0  0  0  0
  -30.6380  -15.5010   19.9090 C   0  0  0  0  0  0  0  0  0  0  0  0
  -30.5770  -13.0620   18.9510 C   0  0  0  0  0  2  0  0  0  0  0  0
  -29.5900  -12.8720   17.7680 C   0  0  0  0  0  2  0  0  0  0  0  0
  -28.1690  -12.5760   18.2760 C   0  0  0  0  0  2  0  0  0  0  0  0
  -27.7820  -13.4960   19.4580 C   0  0  0  0  0  3  0  0  0  0  0  0
  -28.8950  -13.5820   20.5250 C   0  0  0  0  0  2  0  0  0  0  0  0
  -30.0750  -14.1750   19.8570 N   0  0  0  0  0  0  0  0  0  0  0  0
  -31.8120  -15.4930   19.5000 O   0  0  0  0  0  0  0  0  0  0  0  0
  -28.9070  -16.7640   21.2220 C   0  0  0  0  0  1  0  0  0  0  0  0
  -29.9200  -16.8080   20.1750 N   0  0  0  0  0  0  0  0  0  0  0  0
  -25.4410  -14.0290   20.3230 C   0  0  0  0  0  0  0  0  0  0  0  0
  -24.4040  -13.2410   20.7360 C   0  0  0  0  0  0  0  0  0  0  0  0
  -24.8780  -11.8960   20.6640 C   0  0  0  0  0  0  0  0  0  0  0  0
  -26.4790  -13.1650   20.0230 N   0  0  0  0  0  0  0  0  0  0  0  0
  -26.1540  -11.8740   20.2940 N   0  0  0  0  0  0  0  0  0  0  0  0
  -24.1640  -10.6280   20.8690 C   0  0  0  0  0  0  0  0  0  0  0  0
  -24.5880   -9.6880   21.8350 C   0  0  0  0  0  3  0  0  0  0  0  0
  -23.8710   -8.4890   22.0280 C   0  0  0  0  0  3  0  0  0  0  0  0
  -22.7160   -8.2180   21.2570 C   0  0  0  0  0  0  0  0  0  0  0  0
  -22.3120   -9.1460   20.2810 C   0  0  0  0  0  3  0  0  0  0  0  0
  -23.0290  -10.3380   20.0860 C   0  0  0  0  0  3  0  0  0  0  0  0
  -21.9720   -7.0680   21.3590 O   0  0  0  0  0  0  0  0  0  0  0  0
  -21.8420   -6.3970   22.5490 C   0  0  0  0  0  0  0  0  0  0  0  0
  -21.2670   -7.0040   23.6860 C   0  0  0  0  0  3  0  0  0  0  0  0
  -21.0890   -6.2580   24.8690 C   0  0  0  0  0  3  0  0  0  0  0  0
  -21.4750   -4.9050   24.9130 C   0  0  0  0  0  0  0  0  0  0  0  0
  -22.0420   -4.2970   23.7790 C   0  0  0  0  0  3  0  0  0  0  0  0
  -22.2220   -5.0400   22.5990 C   0  0  0  0  0  0  0  0  0  0  0  0
  -22.7500   -4.4440   21.5030 F   0  0  0  0  0  0  0  0  0  0  0  0
  -21.2980   -4.1860   26.0450 F   0  0  0  0  0  0  0  0  0  0  0  0
  -23.0200  -13.7090   21.0760 C   0  0  0  0  0  0  0  0  0  0  0  0
  -22.3410  -13.0110   21.9780 N   0  0  0  0  0  0  0  0  0  0  0  0
  -22.5520  -14.7320   20.5760 O   0  0  0  0  0  0  0  0  0  0  0  0
  -22.7340  -12.1850   22.4040 H   0  0  0  0  0  0  0  0  0  0  0  0
  -21.4120  -13.3050   22.2460 H   0  0  0  0  0  0  0  0  0  0  0  0
  -25.5720  -15.4020   20.1440 N   0  0  0  0  0  0  0  0  0  0  0  0
  -24.7960  -16.0360   20.2990 H   0  0  0  0  0  0  0  0  0  0  0  0
  -26.3840  -15.8590   19.7530 H   0  0  0  0  0  0  0  0  0  0  0  0
  -28.1230  -24.2810   19.8230 C   0  0  0  0  0  2  0  0  0  0  0  0
  -28.2860  -25.8920   20.2420 O   0  0  0  0  0  0  0  0  0  0  0  0
  -24.6830  -31.8940   23.1650 C   0  0  0  0  0  0  0  0  0  0  0  0
  -27.2830  -27.0080   20.1460 C   0  0  0  0  0  0  0  0  0  0  0  0
  -23.5040  -30.4890   21.5250 C   0  0  0  0  0  3  0  0  0  0  0  0
  -24.9690  -28.8930   20.0990 C   0  0  0  0  0  0  0  0  0  0  0  0
  -26.0700  -30.7110   21.3840 C   0  0  0  0  0  2  0  0  0  0  0  0
  -26.1530  -29.2990   20.7250 C   0  0  0  0  0  0  0  0  0  0  0  0
  -27.2990  -28.3770   20.7270 C   0  0  0  0  0  3  0  0  0  0  0  0
  -26.0680  -26.7680   19.4630 C   0  0  0  0  0  3  0  0  0  0  0  0
  -24.9540  -27.6490   19.4470 C   0  0  0  0  0  3  0  0  0  0  0  0
  -23.7430  -29.8070   20.1480 C   0  0  0  0  0  2  0  0  0  0  0  0
  -24.7740  -31.0590   22.0780 N   0  0  0  0  0  0  0  0  0  0  0  0
  -23.5900  -32.1760   23.6830 O   0  0  0  0  0  0  0  0  0  0  0  0
  -22.8130  -29.4880   22.4900 C   0  0  0  0  0  0  0  0  0  0  0  0
  -21.4830  -29.3220   22.3700 N   0  0  0  0  0  0  0  0  0  0  0  0
  -23.4820  -28.8620   23.3160 O   0  0  0  0  0  0  0  0  0  0  0  0
  -20.9960  -29.8810   21.6820 H   0  0  0  0  0  0  0  0  0  0  0  0
  -18.1020  -28.1130   22.9010 C   0  0  0  0  0  0  0  0  0  0  0  0
  -20.6660  -28.3780   23.1410 C   0  0  0  0  0  3  0  0  0  0  0  0
  -20.7610  -26.9510   22.5540 C   0  0  0  0  0  2  0  0  0  0  0  0
  -19.6500  -26.6370   21.5470 C   0  0  0  0  0  2  0  0  0  0  0  0
  -18.2740  -26.7720   22.2060 C   0  0  0  0  0  2  0  0  0  0  0  0
  -19.2250  -28.8740   23.3260 C   0  0  0  0  0  0  0  0  0  0  0  0
  -19.0090  -30.1260   23.9410 C   0  0  0  0  0  3  0  0  0  0  0  0
  -17.7040  -30.6190   24.1330 C   0  0  0  0  0  3  0  0  0  0  0  0
  -16.5970  -29.8560   23.7220 C   0  0  0  0  0  3  0  0  0  0  0  0
  -16.7970  -28.6050   23.1130 C   0  0  0  0  0  3  0  0  0  0  0  0
  -25.9460  -32.5480   23.8020 C   0  0  0  0  0  3  0  0  0  0  0  0
  -25.6160  -33.9460   24.1350 N   0  0  0  0  0  0  0  0  0  0  0  0
  -25.9310  -35.0100   23.3850 C   0  0  0  0  0  0  0  0  0  0  0  0
  -26.5920  -34.9210   22.3470 O   0  0  0  0  0  0  0  0  0  0  0  0
  -25.0270  -34.0890   24.9420 H   0  0  0  0  0  0  0  0  0  0  0  0
  -24.1850  -36.7990   23.0660 C   0  0  0  0  0  1  0  0  0  0  0  0
  -25.4380  -36.3940   23.8590 C   0  0  0  0  0  3  0  0  0  0  0  0
  -27.5660  -37.3010   24.6840 C   0  0  0  0  0  1  0  0  0  0  0  0
  -26.4600  -37.4570   23.7430 N   0  0  0  0  0  0  0  0  0  0  0  0
  -26.0450  -38.3720   23.8920 H   0  0  0  0  0  0  0  0  0  0  0  0
  -26.4530  -31.7890   25.0920 C   0  0  1  0  0  0  0  0  0  0  0  0
  -25.3470  -31.5480   26.1460 C   0  0  0  0  0  1  0  0  0  0  0  0
  -27.0560  -30.4130   24.7230 C   0  0  0  0  0  1  0  0  0  0  0  0
  -27.5850  -32.6000   25.7640 C   0  0  0  0  0  1  0  0  0  0  0  0
  1  2  1  0
  3  1  2  0
  4  5  1  0
  5  2  2  0
  5  7  1  0
  6  3  1  0
  6  4  2  0
  8  6  1  0
  9 19  1  0
  9  3  1  0
 10 19  1  0
 11 16  1  0
 12 13  1  0
 12 11  1  0
 14 13  1  0
 14 23  1  0
 14 15  1  0
 16 10  1  0
 16 15  1  0
 17 10  2  0
 19 18  1  0
 20 21  2  0
 21 40  1  0
 22 21  1  0
 22 25  1  0
 23 24  1  0
 23 20  1  0
 24 22  2  0
 25 26  1  0
 26 27  2  0
 28 31  1  0
 28 27  1  0
 29 28  2  0
 30 29  1  0
 30 25  2  0
 31 32  1  0
 32 37  2  0
 32 33  1  0
 33 34  2  0
 34 35  1  0
 35 39  1  0
 36 35  2  0
 37 36  1  0
 38 37  1  0
 40 41  1  0
 41 44  1  0
 41 43  1  0
 42 40  2  0
 45 46  1  0
 45 20  1  0
 47 45  1  0
 48 49  1  0
 48  4  1  0
 50 61  2  0
 51 49  1  0
 51 56  1  0
 52 60  1  0
 52 62  1  0
 53 59  1  0
 53 55  1  0
 54 60  1  0
 55 56  2  0
 55 54  1  0
 57 51  2  0
 58 57  1  0
 58 53  2  0
 59 52  1  0
 60 50  1  0
 62 64  2  0
 63 62  1  0
 65 63  1  0
 66 75  2  0
 66 71  1  0
 67 63  1  0
 67 71  1  0
 68 67  1  0
 69 70  1  0
 69 68  1  0
 70 66  1  0
 71 72  2  0
 72 73  1  0
 74 73  2  0
 75 74  1  0
 76 50  1  0
 76 77  1  0
 76 86  1  0
 77 80  1  0
 78 82  1  0
 78 77  1  0
 79 78  2  0
 82 81  1  0
 84 82  1  0
 84 85  1  0
 84 83  1  0
 86 89  1  1
 86 87  1  0
 88 86  1  0
M  ISO  4  10 100  19 100  48 101  49 101
M  END
>  <TORSDO>  (75) 
F 18

>  <SCORE>  (75) 
-16.351

>  <name>  (75) 
75

>  <ligand_id>  (75) 
75

>  <original_smiles>  (75) 
[H]c1c([H])c([H])c2c(c1[H])C([H])([H])C([H])([H])C([H])([H])C2([H])N([H])C(=O)C1([H])N(C(=O)C([H])(N([H])C(=O)C([H])(N([H])C([H])([H])[H])C([H])([H])[H])C(C([H])([H])[H])(C([H])([H])[H])C([H])([H])[H])C([H])([H])c2c([H])c(OC([H])([H])c3c(Cl)c([H])c([H])c(C([H])([H])N(C(=O)N4C([H])([H])C([H])([H])C([H])([H])C([H])(n5nc(-c6c([H])c([H])c(Oc7c([H])c([H])c(F)c([H])c7F)c([H])c6[H])c(C(=O)N([H])[H])c5N([H])[H])C4([H])[H])C([H])([H])[H])c3Cl)c([H])c([H])c2C1([H])[H]

>  <smiles>  (75) 
[H]c1c([H])c([H])c2c(c1[H])C([H])([H])C([H])([H])C([H])([H])C2([H])N([H])C(=O)C1([H])N(C(=O)C([H])(N([H])C(=O)C([H])(N([H])C([H])([H])[H])C([H])([H])[H])C(C([H])([H])[H])(C([H])([H])[H])C([H])([H])[H])C([H])([H])c2c([H])c(OC([H])([H])c3c(Cl)c([H])c([H])c(C([H])([H])N(C(=O)N4C([H])([H])C([H])([H])C([H])([H])C([H])(n5nc(-c6c([H])c([H])c(Oc7c([H])c([H])c(F)c([H])c7F)c([H])c6[H])c(C(=O)N([H])[H])c5N([H])[H])C4([H])[H])C([H])([H])[H])c3Cl)c([H])c([H])c2C1([H])[H]

$$$$
76:0:0
     RDKit          3D

 86 93  0  0  1  0  0  0  0  0999 V2000
  -28.6120  -21.9010   20.2470 C   0  0  0  0  0  0  0  0  0  0  0  0
  -27.4250  -21.6440   20.0280 O   0  0  0  0  0  0  0  0  0  0  0  0
  -29.6370  -20.6230   20.3930 C   0  0  0  0  0  2  0  0  0  0  0  0
  -29.1760  -19.0080   20.3920 C   0  0  0  0  0  3  0  0  0  0  0  0
  -30.2250  -17.6990   20.4310 C   0  0  0  0  0  3  0  0  0  0  0  0
  -30.5190  -15.0000   20.3510 C   0  0  0  0  0  0  0  0  0  0  0  0
  -30.3930  -12.6680   19.3650 C   0  0  0  0  0  2  0  0  0  0  0  0
  -29.4470  -12.6430   18.1420 C   0  0  0  0  0  2  0  0  0  0  0  0
  -27.9870  -12.4220   18.5830 C   0  0  0  0  0  2  0  0  0  0  0  0
  -27.5900  -13.3240   19.7800 C   0  0  0  0  0  3  0  0  0  0  0  0
  -28.6560  -13.2940   20.8970 C   0  0  0  0  0  2  0  0  0  0  0  0
  -29.9170  -13.7410   20.2860 N   0  0  0  0  0  0  0  0  0  0  0  0
  -31.7250  -15.0490   20.0710 O   0  0  0  0  0  0  0  0  0  0  0  0
  -29.7580  -16.2050   20.5140 N   0  0  0  0  0  0  0  0  0  0  0  0
  -28.4010  -16.1150   20.7430 F   0  0  0  0  0  0  0  0  0  0  0  0
  -25.2120  -13.9010   20.5300 C   0  0  0  0  0  0  0  0  0  0  0  0
  -24.1480  -13.1220   20.8910 C   0  0  0  0  0  0  0  0  0  0  0  0
  -24.6150  -11.7730   20.8520 C   0  0  0  0  0  0  0  0  0  0  0  0
  -26.2550  -13.0250   20.2810 N   0  0  0  0  0  0  0  0  0  0  0  0
  -25.9050  -11.7390   20.5400 N   0  0  0  0  0  0  0  0  0  0  0  0
  -23.8940  -10.5070   21.0350 C   0  0  0  0  0  0  0  0  0  0  0  0
  -24.3190   -9.5440   21.9770 C   0  0  0  0  0  3  0  0  0  0  0  0
  -23.5970   -8.3430   22.1470 C   0  0  0  0  0  3  0  0  0  0  0  0
  -22.4370   -8.0970   21.3750 C   0  0  0  0  0  0  0  0  0  0  0  0
  -22.0320   -9.0490   20.4240 C   0  0  0  0  0  3  0  0  0  0  0  0
  -22.7540  -10.2410   20.2510 C   0  0  0  0  0  3  0  0  0  0  0  0
  -21.6870   -6.9480   21.4550 O   0  0  0  0  0  0  0  0  0  0  0  0
  -21.6070   -6.2210   22.6150 C   0  0  0  0  0  0  0  0  0  0  0  0
  -21.1060   -6.7790   23.8110 C   0  0  0  0  0  3  0  0  0  0  0  0
  -20.9760   -5.9750   24.9620 C   0  0  0  0  0  3  0  0  0  0  0  0
  -21.3370   -4.6150   24.9170 C   0  0  0  0  0  0  0  0  0  0  0  0
  -21.8310   -4.0560   23.7250 C   0  0  0  0  0  3  0  0  0  0  0  0
  -21.9630   -4.8570   22.5760 C   0  0  0  0  0  0  0  0  0  0  0  0
  -22.4190   -4.3100   21.4240 F   0  0  0  0  0  0  0  0  0  0  0  0
  -21.2050   -3.8410   26.0190 F   0  0  0  0  0  0  0  0  0  0  0  0
  -22.7500  -13.5940   21.1690 C   0  0  0  0  0  0  0  0  0  0  0  0
  -22.0280  -12.8940   22.0370 N   0  0  0  0  0  0  0  0  0  0  0  0
  -22.3060  -14.6190   20.6520 O   0  0  0  0  0  0  0  0  0  0  0  0
  -22.4000  -12.0660   22.4780 H   0  0  0  0  0  0  0  0  0  0  0  0
  -21.0900  -13.1920   22.2640 H   0  0  0  0  0  0  0  0  0  0  0  0
  -25.3780  -15.2730   20.3700 N   0  0  0  0  0  0  0  0  0  0  0  0
  -24.6350  -15.9410   20.5400 H   0  0  0  0  0  0  0  0  0  0  0  0
  -26.2780  -15.7100   20.2040 H   0  0  0  0  0  0  0  0  0  0  0  0
  -29.0330  -23.4880   20.3700 C   0  0  0  0  0  3  0  0  0  0  0  0
  -27.9870  -24.7640   20.0850 C   0  0  0  0  0  3  0  0  0  0  0  0
  -28.2570  -26.2770   20.2790 O   0  0  0  0  0  0  0  0  0  0  0  0
  -24.6130  -31.9220   23.2570 C   0  0  0  0  0  0  0  0  0  0  0  0
  -27.1920  -27.2400   20.2130 C   0  0  0  0  0  0  0  0  0  0  0  0
  -23.4130  -30.5360   21.6090 C   0  0  0  0  0  3  0  0  0  0  0  0
  -24.8600  -28.9690   20.1830 C   0  0  0  0  0  0  0  0  0  0  0  0
  -25.9660  -30.8050   21.4490 C   0  0  0  0  0  2  0  0  0  0  0  0
  -26.0380  -29.4180   20.7940 C   0  0  0  0  0  0  0  0  0  0  0  0
  -27.2050  -28.5700   20.7920 C   0  0  0  0  0  3  0  0  0  0  0  0
  -25.9870  -26.8860   19.5660 C   0  0  0  0  0  3  0  0  0  0  0  0
  -24.8450  -27.7160   19.5550 C   0  0  0  0  0  3  0  0  0  0  0  0
  -23.6340  -29.8650   20.2290 C   0  0  0  0  0  2  0  0  0  0  0  0
  -24.6830  -31.1080   22.1610 N   0  0  0  0  0  0  0  0  0  0  0  0
  -23.5260  -32.2070   23.7840 O   0  0  0  0  0  0  0  0  0  0  0  0
  -22.7310  -29.5260   22.5650 C   0  0  0  0  0  0  0  0  0  0  0  0
  -21.4030  -29.3610   22.4360 N   0  0  0  0  0  0  0  0  0  0  0  0
  -23.4000  -28.8920   23.3860 O   0  0  0  0  0  0  0  0  0  0  0  0
  -20.9200  -29.9230   21.7500 H   0  0  0  0  0  0  0  0  0  0  0  0
  -18.0130  -28.1860   22.9390 C   0  0  0  0  0  0  0  0  0  0  0  0
  -20.5750  -28.4250   23.2020 C   0  0  0  0  0  3  0  0  0  0  0  0
  -20.6640  -26.9960   22.6180 C   0  0  0  0  0  2  0  0  0  0  0  0
  -19.5570  -26.6900   21.6030 C   0  0  0  0  0  2  0  0  0  0  0  0
  -18.1780  -26.8410   22.2510 C   0  0  0  0  0  2  0  0  0  0  0  0
  -19.1400  -28.9370   23.3710 C   0  0  0  0  0  0  0  0  0  0  0  0
  -18.9320  -30.1960   23.9760 C   0  0  0  0  0  3  0  0  0  0  0  0
  -17.6300  -30.7040   24.1500 C   0  0  0  0  0  3  0  0  0  0  0  0
  -16.5200  -29.9520   23.7320 C   0  0  0  0  0  3  0  0  0  0  0  0
  -16.7120  -28.6940   23.1330 C   0  0  0  0  0  3  0  0  0  0  0  0
  -25.8920  -32.5520   23.8890 C   0  0  0  0  0  3  0  0  0  0  0  0
  -25.5840  -33.9520   24.2230 N   0  0  0  0  0  0  0  0  0  0  0  0
  -25.8900  -35.0050   23.4540 C   0  0  0  0  0  0  0  0  0  0  0  0
  -26.5290  -34.9020   22.4040 O   0  0  0  0  0  0  0  0  0  0  0  0
  -25.0120  -34.1050   25.0410 H   0  0  0  0  0  0  0  0  0  0  0  0
  -24.1330  -36.7840   23.1700 C   0  0  0  0  0  1  0  0  0  0  0  0
  -25.4140  -36.3940   23.9260 C   0  0  0  0  0  3  0  0  0  0  0  0
  -27.5730  -37.3080   24.6550 C   0  0  0  0  0  1  0  0  0  0  0  0
  -26.4310  -37.4540   23.7570 N   0  0  0  0  0  0  0  0  0  0  0  0
  -26.0230  -38.3730   23.9110 H   0  0  0  0  0  0  0  0  0  0  0  0
  -26.3940  -31.7790   25.1700 C   0  0  1  0  0  0  0  0  0  0  0  0
  -25.2910  -31.5460   26.2300 C   0  0  0  0  0  1  0  0  0  0  0  0
  -26.9750  -30.3990   24.7870 C   0  0  0  0  0  1  0  0  0  0  0  0
  -27.5420  -32.5690   25.8420 C   0  0  0  0  0  1  0  0  0  0  0  0
  1 44  1  0
  1  3  1  0
  2  1  2  0
  4  3  1  0
  4  5  2  0
  5 14  1  0
  6 14  1  0
  7 12  1  0
  8  9  1  0
  8  7  1  0
 10  9  1  0
 10 19  1  0
 10 11  1  0
 12  6  1  0
 12 11  1  0
 13  6  2  0
 14 15  1  0
 16 17  2  0
 17 36  1  0
 18 17  1  0
 18 21  1  0
 19 16  1  0
 19 20  1  0
 20 18  2  0
 21 22  1  0
 22 23  2  0
 24 27  1  0
 24 23  1  0
 25 24  2  0
 26 25  1  0
 26 21  2  0
 27 28  1  0
 28 29  1  0
 29 30  2  0
 31 30  1  0
 31 35  1  0
 32 31  2  0
 33 28  2  0
 33 32  1  0
 34 33  1  0
 36 37  1  0
 37 40  1  0
 37 39  1  0
 38 36  2  0
 41 16  1  0
 41 42  1  0
 43 41  1  0
 45 46  1  0
 45 44  2  0
 47 58  2  0
 48 46  1  0
 48 53  1  0
 49 57  1  0
 49 59  1  0
 50 56  1  0
 50 52  1  0
 51 57  1  0
 52 51  1  0
 53 52  2  0
 54 48  2  0
 55 54  1  0
 55 50  2  0
 56 49  1  0
 57 47  1  0
 59 61  2  0
 60 59  1  0
 62 60  1  0
 63 72  2  0
 63 68  1  0
 64 60  1  0
 64 68  1  0
 65 64  1  0
 66 67  1  0
 66 65  1  0
 67 63  1  0
 68 69  2  0
 69 70  1  0
 71 70  2  0
 72 71  1  0
 73 47  1  0
 73 74  1  0
 73 83  1  0
 74 77  1  0
 75 79  1  0
 75 74  1  0
 76 75  2  0
 79 78  1  0
 81 82  1  0
 81 79  1  0
 81 80  1  0
 83 86  1  1
 83 84  1  0
 85 83  1  0
M  ISO  4   6 100  14 100  45 101  46 101
M  END
>  <TORSDO>  (76) 
F 21

>  <SCORE>  (76) 
-13.306

>  <name>  (76) 
76

>  <ligand_id>  (76) 
76

>  <original_smiles>  (76) 
[H]c1c([H])c([H])c2c(c1[H])C([H])([H])C([H])([H])C([H])([H])C2([H])N([H])C(=O)C1([H])N(C(=O)C([H])(N([H])C(=O)C([H])(N([H])C([H])([H])[H])C([H])([H])[H])C(C([H])([H])[H])(C([H])([H])[H])C([H])([H])[H])C([H])([H])c2c([H])c(OC([H])([H])C([H])([H])C(=O)C([H])([H])C([H])([H])C([H])([H])N(F)C(=O)N3C([H])([H])C([H])([H])C([H])([H])C([H])(n4nc(-c5c([H])c([H])c(Oc6c([H])c([H])c(F)c([H])c6F)c([H])c5[H])c(C(=O)N([H])[H])c4N([H])[H])C3([H])[H])c([H])c([H])c2C1([H])[H]

>  <smiles>  (76) 
[H]c1c([H])c([H])c2c(c1[H])C([H])([H])C([H])([H])C([H])([H])C2([H])N([H])C(=O)C1([H])N(C(=O)C([H])(N([H])C(=O)C([H])(N([H])C([H])([H])[H])C([H])([H])[H])C(C([H])([H])[H])(C([H])([H])[H])C([H])([H])[H])C([H])([H])c2c([H])c(OC([H])([H])C([H])([H])C(=O)C([H])([H])C([H])([H])C([H])([H])N(F)C(=O)N3C([H])([H])C([H])([H])C([H])([H])C([H])(n4nc(-c5c([H])c([H])c(Oc6c([H])c([H])c(F)c([H])c6F)c([H])c5[H])c(C(=O)N([H])[H])c4N([H])[H])C3([H])[H])c([H])c([H])c2C1([H])[H]

$$$$
77:0:0
     RDKit          3D

 90 98  0  0  1  0  0  0  0  0999 V2000
  -29.0730  -21.3780   20.8020 C   0  0  0  0  0  0  0  0  0  0  0  0
  -28.7500  -21.3060   18.5730 C   0  0  0  0  0  0  0  0  0  0  0  0
  -28.6690  -22.2930   19.6960 C   0  0  0  0  0  0  0  0  0  0  0  0
  -29.4310  -19.8770   20.7940 C   0  0  0  0  0  0  0  0  0  0  0  0
  -29.1080  -19.8020   18.5630 C   0  0  0  0  0  0  0  0  0  0  0  0
  -29.5040  -18.8860   19.6750 C   0  0  0  0  0  0  0  0  0  0  0  0
  -29.0770  -22.0690   22.1610 C   0  0  0  0  0  1  0  0  0  0  0  0
  -28.3510  -21.9160   17.2320 C   0  0  0  0  0  1  0  0  0  0  0  0
  -29.7400  -19.2620   22.1550 C   0  0  0  0  0  1  0  0  0  0  0  0
  -28.9900  -19.0910   17.2220 C   0  0  0  0  0  1  0  0  0  0  0  0
  -30.5020  -15.8740   19.6150 C   0  0  0  0  0  0  0  0  0  0  0  0
  -30.6360  -13.3060   18.8880 C   0  0  0  0  0  2  0  0  0  0  0  0
  -29.6570  -12.8580   17.7660 C   0  0  0  0  0  2  0  0  0  0  0  0
  -28.2880  -12.4770   18.3480 C   0  0  0  0  0  2  0  0  0  0  0  0
  -27.8400  -13.4880   19.4270 C   0  0  0  0  0  3  0  0  0  0  0  0
  -28.9510  -13.8560   20.4380 C   0  0  0  0  0  2  0  0  0  0  0  0
  -30.0480  -14.4850   19.6670 N   0  0  0  0  0  0  0  0  0  0  0  0
  -31.7070  -15.8750   19.2930 O   0  0  0  0  0  0  0  0  0  0  0  0
  -29.6510  -17.1670   19.7670 N   0  0  0  0  0  0  0  0  0  0  0  0
  -28.7600  -16.8100   20.0830 H   0  0  0  0  0  0  0  0  0  0  0  0
  -25.5910  -13.9750   20.5040 C   0  0  0  0  0  0  0  0  0  0  0  0
  -24.5710  -13.1740   20.9330 C   0  0  0  0  0  0  0  0  0  0  0  0
  -25.0140  -11.8290   20.7420 C   0  0  0  0  0  0  0  0  0  0  0  0
  -26.5860  -13.1190   20.0690 N   0  0  0  0  0  0  0  0  0  0  0  0
  -26.2610  -11.8150   20.2770 N   0  0  0  0  0  0  0  0  0  0  0  0
  -24.2940  -10.5600   20.9160 C   0  0  0  0  0  0  0  0  0  0  0  0
  -24.7040   -9.6000   21.8680 C   0  0  0  0  0  3  0  0  0  0  0  0
  -23.9800   -8.3990   22.0320 C   0  0  0  0  0  3  0  0  0  0  0  0
  -22.8300   -8.1510   21.2450 C   0  0  0  0  0  0  0  0  0  0  0  0
  -22.4400   -9.0990   20.2820 C   0  0  0  0  0  3  0  0  0  0  0  0
  -23.1650  -10.2900   20.1160 C   0  0  0  0  0  3  0  0  0  0  0  0
  -22.0790   -7.0020   21.3180 O   0  0  0  0  0  0  0  0  0  0  0  0
  -21.8300   -6.3790   22.5140 C   0  0  0  0  0  0  0  0  0  0  0  0
  -21.1500   -7.0310   23.5660 C   0  0  0  0  0  3  0  0  0  0  0  0
  -20.8530   -6.3330   24.7530 C   0  0  0  0  0  3  0  0  0  0  0  0
  -21.2270   -4.9820   24.8880 C   0  0  0  0  0  0  0  0  0  0  0  0
  -21.8980   -4.3280   23.8380 C   0  0  0  0  0  3  0  0  0  0  0  0
  -22.1960   -5.0250   22.6540 C   0  0  0  0  0  0  0  0  0  0  0  0
  -22.8250   -4.3860   21.6390 F   0  0  0  0  0  0  0  0  0  0  0  0
  -20.9350   -4.3070   26.0230 F   0  0  0  0  0  0  0  0  0  0  0  0
  -23.2200  -13.6380   21.3930 C   0  0  0  0  0  0  0  0  0  0  0  0
  -22.5870  -12.8870   22.2880 N   0  0  0  0  0  0  0  0  0  0  0  0
  -22.7400  -14.6990   20.9970 O   0  0  0  0  0  0  0  0  0  0  0  0
  -22.9910  -12.0270   22.6270 H   0  0  0  0  0  0  0  0  0  0  0  0
  -21.6860  -13.1780   22.6390 H   0  0  0  0  0  0  0  0  0  0  0  0
  -25.7480  -15.3560   20.4110 N   0  0  0  0  0  0  0  0  0  0  0  0
  -24.9970  -15.9980   20.6420 H   0  0  0  0  0  0  0  0  0  0  0  0
  -26.5300  -15.8110   19.9590 H   0  0  0  0  0  0  0  0  0  0  0  0
  -27.8630  -23.9870   19.7590 C   0  0  0  0  0  2  0  0  0  0  0  0
  -28.1710  -25.7050   19.8660 O   0  0  0  0  0  0  0  0  0  0  0  0
  -24.6990  -31.8240   23.1480 C   0  0  0  0  0  0  0  0  0  0  0  0
  -27.2010  -26.9180   19.8810 C   0  0  0  0  0  0  0  0  0  0  0  0
  -23.4860  -30.4900   21.4770 C   0  0  0  0  0  3  0  0  0  0  0  0
  -24.9150  -28.9230   19.9610 C   0  0  0  0  0  0  0  0  0  0  0  0
  -26.0580  -30.6650   21.3040 C   0  0  0  0  0  2  0  0  0  0  0  0
  -26.1200  -29.2630   20.5850 C   0  0  0  0  0  0  0  0  0  0  0  0
  -27.2490  -28.2910   20.5140 C   0  0  0  0  0  3  0  0  0  0  0  0
  -25.9580  -26.7870   19.2100 C   0  0  0  0  0  3  0  0  0  0  0  0
  -24.8710  -27.7120   19.2510 C   0  0  0  0  0  3  0  0  0  0  0  0
  -23.7000  -29.8570   20.0720 C   0  0  0  0  0  2  0  0  0  0  0  0
  -24.7730  -31.0220   22.0300 N   0  0  0  0  0  0  0  0  0  0  0  0
  -23.6160  -32.0900   23.6960 O   0  0  0  0  0  0  0  0  0  0  0  0
  -22.8000  -29.4630   22.4190 C   0  0  0  0  0  0  0  0  0  0  0  0
  -21.4760  -29.2570   22.2760 N   0  0  0  0  0  0  0  0  0  0  0  0
  -23.4710  -28.8490   23.2530 O   0  0  0  0  0  0  0  0  0  0  0  0
  -20.9810  -29.8070   21.5880 H   0  0  0  0  0  0  0  0  0  0  0  0
  -18.1410  -27.8760   22.7010 C   0  0  0  0  0  0  0  0  0  0  0  0
  -20.6790  -28.2730   23.0200 C   0  0  0  0  0  3  0  0  0  0  0  0
  -20.8640  -26.8520   22.4360 C   0  0  0  0  0  2  0  0  0  0  0  0
  -19.8030  -26.4850   21.3940 C   0  0  0  0  0  2  0  0  0  0  0  0
  -18.4010  -26.5490   22.0080 C   0  0  0  0  0  2  0  0  0  0  0  0
  -19.2090  -28.6930   23.1600 C   0  0  0  0  0  0  0  0  0  0  0  0
  -18.9080  -29.9300   23.7700 C   0  0  0  0  0  3  0  0  0  0  0  0
  -17.5740  -30.3550   23.9210 C   0  0  0  0  0  3  0  0  0  0  0  0
  -16.5220  -29.5370   23.4750 C   0  0  0  0  0  3  0  0  0  0  0  0
  -16.8060  -28.3000   22.8710 C   0  0  0  0  0  3  0  0  0  0  0  0
  -25.9720  -32.4570   23.7870 C   0  0  0  0  0  3  0  0  0  0  0  0
  -25.6560  -33.8500   24.1600 N   0  0  0  0  0  0  0  0  0  0  0  0
  -25.9490  -34.9310   23.4240 C   0  0  0  0  0  0  0  0  0  0  0  0
  -26.5710  -34.8620   22.3610 O   0  0  0  0  0  0  0  0  0  0  0  0
  -25.0990  -33.9760   24.9930 H   0  0  0  0  0  0  0  0  0  0  0  0
  -24.1780  -36.7150   23.2430 C   0  0  0  0  0  1  0  0  0  0  0  0
  -25.4820  -36.3060   23.9470 C   0  0  0  0  0  3  0  0  0  0  0  0
  -27.6550  -37.2160   24.6450 C   0  0  0  0  0  1  0  0  0  0  0  0
  -26.4900  -37.3780   23.7800 N   0  0  0  0  0  0  0  0  0  0  0  0
  -26.0800  -38.2890   23.9680 H   0  0  0  0  0  0  0  0  0  0  0  0
  -26.4810  -31.6690   25.0580 C   0  0  1  0  0  0  0  0  0  0  0  0
  -25.3840  -31.4170   26.1190 C   0  0  0  0  0  1  0  0  0  0  0  0
  -27.0670  -30.2960   24.6600 C   0  0  0  0  0  1  0  0  0  0  0  0
  -27.6300  -32.4530   25.7350 C   0  0  0  0  0  1  0  0  0  0  0  0
  1  7  1  0
  2  3  1  0
  3 49  1  0
  3  1  2  0
  4  1  1  0
  4  9  1  0
  5  2  2  0
  5  6  1  0
  6 19  1  0
  6  4  2  0
  8  2  1  0
 10  5  1  0
 11 17  1  0
 11 19  1  0
 12 17  1  0
 13 14  1  0
 13 12  1  0
 15 14  1  0
 15 24  1  0
 15 16  1  0
 17 16  1  0
 18 11  2  0
 19 20  1  0
 21 22  2  0
 22 41  1  0
 23 26  1  0
 23 22  1  0
 24 25  1  0
 24 21  1  0
 25 23  2  0
 26 27  1  0
 27 28  2  0
 29 32  1  0
 29 28  1  0
 30 29  2  0
 31 30  1  0
 31 26  2  0
 32 33  1  0
 33 38  2  0
 33 34  1  0
 34 35  2  0
 35 36  1  0
 36 40  1  0
 37 36  2  0
 38 37  1  0
 39 38  1  0
 41 42  1  0
 42 44  1  0
 42 45  1  0
 43 41  2  0
 46 21  1  0
 46 47  1  0
 48 46  1  0
 49 50  1  0
 50 52  1  0
 51 62  2  0
 52 57  1  0
 53 61  1  0
 53 63  1  0
 54 60  1  0
 54 56  1  0
 55 61  1  0
 56 55  1  0
 57 56  2  0
 58 59  1  0
 58 52  2  0
 59 54  2  0
 60 53  1  0
 61 51  1  0
 63 65  2  0
 64 63  1  0
 66 64  1  0
 67 76  2  0
 67 72  1  0
 68 64  1  0
 68 72  1  0
 69 68  1  0
 70 71  1  0
 70 69  1  0
 71 67  1  0
 72 73  2  0
 73 74  1  0
 75 74  2  0
 76 75  1  0
 77 51  1  0
 77 78  1  0
 77 87  1  0
 78 81  1  0
 79 83  1  0
 79 78  1  0
 80 79  2  0
 83 82  1  0
 85 83  1  0
 85 86  1  0
 85 84  1  0
 87 90  1  1
 87 88  1  0
 89 87  1  0
M  ISO  4  11 100  19 100  49 101  50 101
M  END
>  <TORSDO>  (77) 
F 17

>  <SCORE>  (77) 
-14.789

>  <name>  (77) 
77

>  <ligand_id>  (77) 
77

>  <original_smiles>  (77) 
[H]c1c([H])c([H])c2c(c1[H])C([H])([H])C([H])([H])C([H])([H])C2([H])N([H])C(=O)C1([H])N(C(=O)C([H])(N([H])C(=O)C([H])(N([H])C([H])([H])[H])C([H])([H])[H])C(C([H])([H])[H])(C([H])([H])[H])C([H])([H])[H])C([H])([H])c2c([H])c(OC([H])([H])c3c(C([H])([H])[H])c(C([H])([H])[H])c(N([H])C(=O)N4C([H])([H])C([H])([H])C([H])([H])C([H])(n5nc(-c6c([H])c([H])c(Oc7c([H])c([H])c(F)c([H])c7F)c([H])c6[H])c(C(=O)N([H])[H])c5N([H])[H])C4([H])[H])c(C([H])([H])[H])c3C([H])([H])[H])c([H])c([H])c2C1([H])[H]

>  <smiles>  (77) 
[H]c1c([H])c([H])c2c(c1[H])C([H])([H])C([H])([H])C([H])([H])C2([H])N([H])C(=O)C1([H])N(C(=O)C([H])(N([H])C(=O)C([H])(N([H])C([H])([H])[H])C([H])([H])[H])C(C([H])([H])[H])(C([H])([H])[H])C([H])([H])[H])C([H])([H])c2c([H])c(OC([H])([H])c3c(C([H])([H])[H])c(C([H])([H])[H])c(N([H])C(=O)N4C([H])([H])C([H])([H])C([H])([H])C([H])(n5nc(-c6c([H])c([H])c(Oc7c([H])c([H])c(F)c([H])c7F)c([H])c6[H])c(C(=O)N([H])[H])c5N([H])[H])C4([H])[H])c(C([H])([H])[H])c3C([H])([H])[H])c([H])c([H])c2C1([H])[H]

$$$$
78:0:0
     RDKit          3D

 95103  0  0  1  0  0  0  0  0999 V2000
  -28.4390  -21.5600   20.8650 C   0  0  0  0  0  2  0  0  0  0  0  0
  -30.0820  -19.5360   21.2950 C   0  0  0  0  0  3  0  0  0  0  0  0
  -28.9650  -20.0860   20.6060 C   0  0  0  0  0  0  0  0  0  0  0  0
  -29.7900  -17.2430   20.3300 C   0  0  0  0  0  0  0  0  0  0  0  0
  -30.4940  -18.1700   21.1670 C   0  0  0  0  0  0  0  0  0  0  0  0
  -28.2540  -19.1660   19.7910 C   0  0  0  0  0  0  0  0  0  0  0  0
  -28.6380  -17.7910   19.6730 C   0  0  0  0  0  0  0  0  0  0  0  0
  -31.9130  -17.7090   22.0370 Cl  0  0  0  0  0  0  0  0  0  0  0  0
  -26.8710  -19.7300   18.9110 Cl  0  0  0  0  0  0  0  0  0  0  0  0
  -27.6470  -16.7740   18.6780 Cl  0  0  0  0  0  0  0  0  0  0  0  0
  -30.8380  -14.8750   20.6860 C   0  0  0  0  0  0  0  0  0  0  0  0
  -30.6700  -12.5640   19.8020 C   0  0  0  0  0  2  0  0  0  0  0  0
  -29.8170  -12.5620   18.5170 C   0  0  0  0  0  2  0  0  0  0  0  0
  -28.3230  -12.4220   18.8580 C   0  0  0  0  0  2  0  0  0  0  0  0
  -27.8610  -13.3600   20.0080 C   0  0  0  0  0  3  0  0  0  0  0  0
  -28.8520  -13.3690   21.1890 C   0  0  0  0  0  2  0  0  0  0  0  0
  -30.1750  -13.6750   20.6370 N   0  0  0  0  0  0  0  0  0  0  0  0
  -32.0690  -14.8740   20.7590 O   0  0  0  0  0  0  0  0  0  0  0  0
  -30.8750  -15.9620   18.5720 C   0  0  0  0  0  1  0  0  0  0  0  0
  -30.2780  -15.8980   19.9300 N   0  0  0  0  0  0  0  0  0  0  0  0
  -25.4280  -13.9370   20.5840 C   0  0  0  0  0  0  0  0  0  0  0  0
  -24.3490  -13.1550   20.8930 C   0  0  0  0  0  0  0  0  0  0  0  0
  -24.8300  -11.8100   20.9220 C   0  0  0  0  0  0  0  0  0  0  0  0
  -26.4950  -13.0670   20.4300 N   0  0  0  0  0  0  0  0  0  0  0  0
  -26.1390  -11.7860   20.7030 N   0  0  0  0  0  0  0  0  0  0  0  0
  -24.1080  -10.5410   21.0850 C   0  0  0  0  0  0  0  0  0  0  0  0
  -24.4860   -9.5960   22.0650 C   0  0  0  0  0  3  0  0  0  0  0  0
  -23.7630   -8.3930   22.2160 C   0  0  0  0  0  3  0  0  0  0  0  0
  -22.6480   -8.1260   21.3870 C   0  0  0  0  0  0  0  0  0  0  0  0
  -22.2920   -9.0580   20.3960 C   0  0  0  0  0  3  0  0  0  0  0  0
  -23.0160  -10.2530   20.2440 C   0  0  0  0  0  3  0  0  0  0  0  0
  -21.9030   -6.9750   21.4440 O   0  0  0  0  0  0  0  0  0  0  0  0
  -21.7720   -6.2590   22.6070 C   0  0  0  0  0  0  0  0  0  0  0  0
  -21.2220   -6.8280   23.7770 C   0  0  0  0  0  3  0  0  0  0  0  0
  -21.0450   -6.0370   24.9280 C   0  0  0  0  0  3  0  0  0  0  0  0
  -21.4060   -4.6760   24.9120 C   0  0  0  0  0  0  0  0  0  0  0  0
  -21.9510   -4.1070   23.7470 C   0  0  0  0  0  3  0  0  0  0  0  0
  -22.1300   -4.8960   22.5970 C   0  0  0  0  0  0  0  0  0  0  0  0
  -22.6350   -4.3360   21.4720 F   0  0  0  0  0  0  0  0  0  0  0  0
  -21.2270   -3.9140   26.0150 F   0  0  0  0  0  0  0  0  0  0  0  0
  -22.9300  -13.6180   21.0510 C   0  0  0  0  0  0  0  0  0  0  0  0
  -22.1490  -12.9320   21.8760 N   0  0  0  0  0  0  0  0  0  0  0  0
  -22.5200  -14.6260   20.4760 O   0  0  0  0  0  0  0  0  0  0  0  0
  -22.4950  -12.1210   22.3670 H   0  0  0  0  0  0  0  0  0  0  0  0
  -21.1930  -13.2230   22.0190 H   0  0  0  0  0  0  0  0  0  0  0  0
  -25.5860  -15.3050   20.3940 N   0  0  0  0  0  0  0  0  0  0  0  0
  -24.7990  -15.9410   20.4230 H   0  0  0  0  0  0  0  0  0  0  0  0
  -26.4260  -15.7300   20.0230 H   0  0  0  0  0  0  0  0  0  0  0  0
  -29.0160  -22.7280   20.0870 N   0  0  0  0  0  4  0  0  0  0  0  0
  -29.2880  -22.3300   19.2020 H   0  0  0  0  0  0  0  0  0  0  0  0
  -29.8750  -23.0150   20.5310 H   0  0  0  0  0  0  0  0  0  0  0  0
  -28.4790  -24.3610   18.2770 C   0  0  0  0  0  1  0  0  0  0  0  0
  -28.1600  -23.9510   19.7260 C   0  0  0  0  0  3  0  0  0  0  0  0
  -28.2200  -25.2350   20.6860 C   0  0  0  0  0  2  0  0  0  0  0  0
  -28.2910  -26.6110   20.1290 O   0  0  0  0  0  0  0  0  0  0  0  0
  -24.5580  -31.9500   23.2480 C   0  0  0  0  0  0  0  0  0  0  0  0
  -27.1570  -27.4280   20.1490 C   0  0  0  0  0  0  0  0  0  0  0  0
  -23.3450  -30.5570   21.6050 C   0  0  0  0  0  3  0  0  0  0  0  0
  -24.7880  -29.0190   20.1590 C   0  0  0  0  0  0  0  0  0  0  0  0
  -25.8780  -30.8950   21.3950 C   0  0  0  0  0  2  0  0  0  0  0  0
  -25.9590  -29.5180   20.7460 C   0  0  0  0  0  0  0  0  0  0  0  0
  -27.1480  -28.7360   20.7260 C   0  0  0  0  0  3  0  0  0  0  0  0
  -25.9670  -26.9720   19.5480 C   0  0  0  0  0  3  0  0  0  0  0  0
  -24.7940  -27.7540   19.5510 C   0  0  0  0  0  3  0  0  0  0  0  0
  -23.5490  -29.8900   20.2190 C   0  0  0  0  0  2  0  0  0  0  0  0
  -24.6150  -31.1510   22.1410 N   0  0  0  0  0  0  0  0  0  0  0  0
  -23.4780  -32.2160   23.7950 O   0  0  0  0  0  0  0  0  0  0  0  0
  -22.6950  -29.5320   22.5660 C   0  0  0  0  0  0  0  0  0  0  0  0
  -21.3710  -29.3420   22.4400 N   0  0  0  0  0  0  0  0  0  0  0  0
  -23.3790  -28.9100   23.3820 O   0  0  0  0  0  0  0  0  0  0  0  0
  -20.8750  -29.8920   21.7520 H   0  0  0  0  0  0  0  0  0  0  0  0
  -18.0080  -28.1090   22.9420 C   0  0  0  0  0  0  0  0  0  0  0  0
  -20.5640  -28.3940   23.2100 C   0  0  0  0  0  3  0  0  0  0  0  0
  -20.6810  -26.9660   22.6310 C   0  0  0  0  0  2  0  0  0  0  0  0
  -19.5810  -26.6340   21.6180 C   0  0  0  0  0  2  0  0  0  0  0  0
  -18.1980  -26.7630   22.2630 C   0  0  0  0  0  2  0  0  0  0  0  0
  -19.1190  -28.8810   23.3740 C   0  0  0  0  0  0  0  0  0  0  0  0
  -18.8900  -30.1390   23.9720 C   0  0  0  0  0  3  0  0  0  0  0  0
  -17.5800  -30.6270   24.1410 C   0  0  0  0  0  3  0  0  0  0  0  0
  -16.4830  -29.8530   23.7250 C   0  0  0  0  0  3  0  0  0  0  0  0
  -16.6970  -28.5960   23.1320 C   0  0  0  0  0  3  0  0  0  0  0  0
  -25.8440  -32.5820   23.8650 C   0  0  0  0  0  3  0  0  0  0  0  0
  -26.3550  -31.8200   25.1480 C   0  0  1  0  0  0  0  0  0  0  0  0
  -25.2610  -31.5980   26.2180 C   0  0  0  0  0  1  0  0  0  0  0  0
  -26.9310  -30.4360   24.7700 C   0  0  0  0  0  1  0  0  0  0  0  0
  -27.5130  -32.6120   25.7990 C   0  0  0  0  0  1  0  0  0  0  0  0
  -25.5420  -33.9850   24.1830 N   0  0  0  0  0  0  0  0  0  0  0  0
  -25.8810  -35.0300   23.4160 C   0  0  0  0  0  0  0  0  0  0  0  0
  -26.5530  -34.9130   22.3880 O   0  0  0  0  0  0  0  0  0  0  0  0
  -24.9490  -34.1510   24.9830 H   0  0  0  0  0  0  0  0  0  0  0  0
  -24.1770  -36.8390   23.0250 C   0  0  0  0  0  1  0  0  0  0  0  0
  -25.3990  -36.4260   23.8590 C   0  0  0  0  0  3  0  0  0  0  0  0
  -27.5250  -37.2970   24.7280 C   0  0  0  0  0  1  0  0  0  0  0  0
  -26.4450  -37.4690   23.7590 N   0  0  0  0  0  0  0  0  0  0  0  0
  -26.0440  -38.3930   23.8920 H   0  0  0  0  0  0  0  0  0  0  0  0
  3  1  1  0
  3  2  2  0
  4  5  2  0
  5  2  1  0
  5  8  1  0
  6  3  1  0
  7  6  2  0
  7  4  1  0
  9  6  1  0
 10  7  1  0
 11 18  2  0
 12 17  1  0
 13 14  1  0
 13 12  1  0
 15 14  1  0
 15 24  1  0
 15 16  1  0
 17 11  1  0
 17 16  1  0
 19 20  1  0
 20  4  1  0
 20 11  1  0
 21 22  2  0
 22 23  1  0
 22 41  1  0
 23 26  1  0
 24 21  1  0
 24 25  1  0
 25 23  2  0
 26 27  1  0
 27 28  2  0
 29 32  1  0
 29 28  1  0
 30 29  2  0
 31 30  1  0
 31 26  2  0
 32 33  1  0
 33 34  1  0
 34 35  2  0
 36 35  1  0
 36 40  1  0
 37 36  2  0
 38 33  2  0
 38 37  1  0
 39 38  1  0
 41 42  1  0
 42 45  1  0
 42 44  1  0
 43 41  2  0
 46 47  1  0
 46 21  1  0
 48 46  1  0
 49 51  1  0
 49  1  1  0
 50 49  1  0
 53 52  1  0
 53 49  1  0
 53 54  1  0
 55 57  1  0
 55 54  1  0
 56 67  2  0
 57 62  1  0
 58 66  1  0
 58 68  1  0
 59 65  1  0
 59 61  1  0
 60 66  1  0
 61 60  1  0
 62 61  2  0
 63 64  1  0
 63 57  2  0
 64 59  2  0
 65 58  1  0
 66 56  1  0
 68 70  2  0
 69 68  1  0
 71 69  1  0
 72 81  2  0
 72 77  1  0
 73 69  1  0
 73 77  1  0
 74 73  1  0
 75 76  1  0
 75 74  1  0
 76 72  1  0
 77 78  2  0
 78 79  1  0
 80 79  2  0
 81 80  1  0
 82 56  1  0
 82 87  1  0
 82 83  1  0
 83 86  1  1
 83 84  1  0
 85 83  1  0
 87 90  1  0
 88 92  1  0
 88 87  1  0
 89 88  2  0
 92 91  1  0
 94 92  1  0
 94 95  1  0
 94 93  1  0
M  ISO  4  11 100  20 100  54 101  55 101
M  END
>  <TORSDO>  (78) 
F 20

>  <SCORE>  (78) 
-13.493

>  <name>  (78) 
78

>  <ligand_id>  (78) 
78

>  <original_smiles>  (78) 
[H]c1c([H])c([H])c2c(c1[H])C([H])([H])C([H])([H])C([H])([H])C2([H])N([H])C(=O)C1([H])N(C(=O)C([H])(N([H])C(=O)C([H])(N([H])C([H])([H])[H])C([H])([H])[H])C(C([H])([H])[H])(C([H])([H])[H])C([H])([H])[H])C([H])([H])c2c([H])c(OC([H])([H])C([H])(C([H])([H])[H])[N+]([H])([H])C([H])([H])c3c([H])c(Cl)c(N(C(=O)N4C([H])([H])C([H])([H])C([H])([H])C([H])(n5nc(-c6c([H])c([H])c(Oc7c([H])c([H])c(F)c([H])c7F)c([H])c6[H])c(C(=O)N([H])[H])c5N([H])[H])C4([H])[H])C([H])([H])[H])c(Cl)c3Cl)c([H])c([H])c2C1([H])[H]

>  <smiles>  (78) 
[H]c1c([H])c([H])c2c(c1[H])C([H])([H])C([H])([H])C([H])([H])C2([H])N([H])C(=O)C1([H])N(C(=O)C([H])(N([H])C(=O)C([H])(N([H])C([H])([H])[H])C([H])([H])[H])C(C([H])([H])[H])(C([H])([H])[H])C([H])([H])[H])C([H])([H])c2c([H])c(OC([H])([H])C([H])(C([H])([H])[H])[N+]([H])([H])C([H])([H])c3c([H])c(Cl)c(N(C(=O)N4C([H])([H])C([H])([H])C([H])([H])C([H])(n5nc(-c6c([H])c([H])c(Oc7c([H])c([H])c(F)c([H])c7F)c([H])c6[H])c(C(=O)N([H])[H])c5N([H])[H])C4([H])[H])C([H])([H])[H])c(Cl)c3Cl)c([H])c([H])c2C1([H])[H]

$$$$
79:0:0
     RDKit          3D

 90 98  0  0  1  0  0  0  0  0999 V2000
  -30.4600  -20.5440   19.5360 C   0  0  0  0  0  3  0  0  0  0  0  0
  -29.2390  -21.3260   19.7100 C   0  0  0  0  0  0  0  0  0  0  0  0
  -28.2030  -20.3370   19.9850 C   0  0  0  0  0  0  0  0  0  0  0  0
  -29.6270  -18.0900   19.8970 C   0  0  0  0  0  0  0  0  0  0  0  0
  -30.6580  -19.0740   19.6140 C   0  0  0  0  0  0  0  0  0  0  0  0
  -28.3920  -18.8580   20.0600 C   0  0  0  0  0  0  0  0  0  0  0  0
  -26.8080  -20.8810   20.2460 C   0  0  0  0  0  1  0  0  0  0  0  0
  -32.2610  -18.5010   19.3370 Cl  0  0  0  0  0  0  0  0  0  0  0  0
  -26.9940  -17.8980   20.4090 Cl  0  0  0  0  0  0  0  0  0  0  0  0
  -30.4540  -15.2810   19.7470 C   0  0  0  0  0  0  0  0  0  0  0  0
  -30.3370  -12.8480   18.8850 C   0  0  0  0  0  2  0  0  0  0  0  0
  -29.3230  -12.6960   17.7230 C   0  0  0  0  0  2  0  0  0  0  0  0
  -27.8990  -12.4660   18.2610 C   0  0  0  0  0  2  0  0  0  0  0  0
  -27.5560  -13.4260   19.4280 C   0  0  0  0  0  3  0  0  0  0  0  0
  -28.6860  -13.5200   20.4760 C   0  0  0  0  0  2  0  0  0  0  0  0
  -29.8890  -13.9820   19.7660 N   0  0  0  0  0  0  0  0  0  0  0  0
  -31.6380  -15.3070   19.3890 O   0  0  0  0  0  0  0  0  0  0  0  0
  -29.6510  -16.4840   19.9830 N   0  0  0  0  0  0  0  0  0  0  0  0
  -28.7560  -16.1740   20.3300 H   0  0  0  0  0  0  0  0  0  0  0  0
  -25.2640  -14.0270   20.3790 C   0  0  0  0  0  0  0  0  0  0  0  0
  -24.2130  -13.2700   20.8090 C   0  0  0  0  0  0  0  0  0  0  0  0
  -24.6350  -11.9090   20.6990 C   0  0  0  0  0  0  0  0  0  0  0  0
  -26.2600  -13.1330   20.0270 N   0  0  0  0  0  0  0  0  0  0  0  0
  -25.8970  -11.8500   20.2840 N   0  0  0  0  0  0  0  0  0  0  0  0
  -23.8860  -10.6620   20.9050 C   0  0  0  0  0  0  0  0  0  0  0  0
  -24.3380   -9.6660   21.7970 C   0  0  0  0  0  3  0  0  0  0  0  0
  -23.5870   -8.4870   21.9940 C   0  0  0  0  0  3  0  0  0  0  0  0
  -22.3690   -8.2960   21.2970 C   0  0  0  0  0  0  0  0  0  0  0  0
  -21.9350   -9.2810   20.3940 C   0  0  0  0  0  3  0  0  0  0  0  0
  -22.6850  -10.4510   20.1940 C   0  0  0  0  0  3  0  0  0  0  0  0
  -21.5870   -7.1710   21.4060 O   0  0  0  0  0  0  0  0  0  0  0  0
  -21.5550   -6.4250   22.5570 C   0  0  0  0  0  0  0  0  0  0  0  0
  -21.1830   -6.9840   23.7980 C   0  0  0  0  0  3  0  0  0  0  0  0
  -21.0970   -6.1650   24.9430 C   0  0  0  0  0  3  0  0  0  0  0  0
  -21.3730   -4.7880   24.8460 C   0  0  0  0  0  0  0  0  0  0  0  0
  -21.7400   -4.2290   23.6100 C   0  0  0  0  0  3  0  0  0  0  0  0
  -21.8280   -5.0440   22.4680 C   0  0  0  0  0  0  0  0  0  0  0  0
  -22.1600   -4.4960   21.2750 F   0  0  0  0  0  0  0  0  0  0  0  0
  -21.2830   -4.0010   25.9430 F   0  0  0  0  0  0  0  0  0  0  0  0
  -22.8570  -13.7770   21.2030 C   0  0  0  0  0  0  0  0  0  0  0  0
  -22.1830  -13.0830   22.1140 N   0  0  0  0  0  0  0  0  0  0  0  0
  -22.4070  -14.8250   20.7400 O   0  0  0  0  0  0  0  0  0  0  0  0
  -22.5620  -12.2360   22.5090 H   0  0  0  0  0  0  0  0  0  0  0  0
  -21.2750  -13.4050   22.4200 H   0  0  0  0  0  0  0  0  0  0  0  0
  -25.4470  -15.3970   20.2270 N   0  0  0  0  0  0  0  0  0  0  0  0
  -24.7120  -16.0620   20.4450 H   0  0  0  0  0  0  0  0  0  0  0  0
  -26.2770  -15.8400   19.8600 H   0  0  0  0  0  0  0  0  0  0  0  0
  -29.2040  -23.0630   19.8330 C   0  0  0  0  0  3  0  0  0  0  0  0
  -28.1470  -24.4160   19.3850 C   0  0  0  0  0  3  0  0  0  0  0  0
  -28.2950  -26.0210   19.6300 O   0  0  0  0  0  0  0  0  0  0  0  0
  -24.5230  -31.5980   22.9430 C   0  0  0  0  0  0  0  0  0  0  0  0
  -27.2210  -27.0390   19.6310 C   0  0  0  0  0  0  0  0  0  0  0  0
  -23.3550  -30.2480   21.2460 C   0  0  0  0  0  3  0  0  0  0  0  0
  -24.8410  -28.7870   19.7180 C   0  0  0  0  0  0  0  0  0  0  0  0
  -25.9050  -30.5830   21.0700 C   0  0  0  0  0  2  0  0  0  0  0  0
  -26.0190  -29.2190   20.3390 C   0  0  0  0  0  0  0  0  0  0  0  0
  -27.2050  -28.3660   20.2710 C   0  0  0  0  0  3  0  0  0  0  0  0
  -26.0070  -26.7430   18.9740 C   0  0  0  0  0  3  0  0  0  0  0  0
  -24.8550  -27.5700   19.0160 C   0  0  0  0  0  3  0  0  0  0  0  0
  -23.5870  -29.6500   19.8310 C   0  0  0  0  0  2  0  0  0  0  0  0
  -24.6150  -30.8330   21.8080 N   0  0  0  0  0  0  0  0  0  0  0  0
  -23.4330  -31.8150   23.4950 O   0  0  0  0  0  0  0  0  0  0  0  0
  -22.7180  -29.1740   22.1650 C   0  0  0  0  0  0  0  0  0  0  0  0
  -21.3880  -28.9850   22.0720 N   0  0  0  0  0  0  0  0  0  0  0  0
  -23.4250  -28.5120   22.9300 O   0  0  0  0  0  0  0  0  0  0  0  0
  -20.8700  -29.5720   21.4330 H   0  0  0  0  0  0  0  0  0  0  0  0
  -18.0470  -27.6950   22.6350 C   0  0  0  0  0  0  0  0  0  0  0  0
  -20.6120  -27.9810   22.8060 C   0  0  0  0  0  3  0  0  0  0  0  0
  -20.7060  -26.5960   22.1220 C   0  0  0  0  0  2  0  0  0  0  0  0
  -19.5630  -26.3330   21.1350 C   0  0  0  0  0  2  0  0  0  0  0  0
  -18.2100  -26.4050   21.8490 C   0  0  0  0  0  2  0  0  0  0  0  0
  -19.1730  -28.4430   23.0700 C   0  0  0  0  0  0  0  0  0  0  0  0
  -18.9620  -29.6500   23.7720 C   0  0  0  0  0  3  0  0  0  0  0  0
  -17.6600  -30.1110   24.0380 C   0  0  0  0  0  3  0  0  0  0  0  0
  -16.5490  -29.3610   23.6150 C   0  0  0  0  0  3  0  0  0  0  0  0
  -16.7430  -28.1540   22.9200 C   0  0  0  0  0  3  0  0  0  0  0  0
  -25.7800  -32.2530   23.5910 C   0  0  0  0  0  3  0  0  0  0  0  0
  -25.4170  -33.6200   24.0050 N   0  0  0  0  0  0  0  0  0  0  0  0
  -25.6910  -34.7320   23.3100 C   0  0  0  0  0  0  0  0  0  0  0  0
  -26.3420  -34.7180   22.2620 O   0  0  0  0  0  0  0  0  0  0  0  0
  -24.8330  -33.7010   24.8240 H   0  0  0  0  0  0  0  0  0  0  0  0
  -23.8780  -36.4700   23.1230 C   0  0  0  0  0  1  0  0  0  0  0  0
  -25.1650  -36.0710   23.8640 C   0  0  0  0  0  3  0  0  0  0  0  0
  -27.2870  -37.0090   24.6730 C   0  0  0  0  0  1  0  0  0  0  0  0
  -26.1480  -37.1750   23.7740 N   0  0  0  0  0  0  0  0  0  0  0  0
  -25.7070  -38.0660   23.9840 H   0  0  0  0  0  0  0  0  0  0  0  0
  -26.3350  -31.4410   24.8260 C   0  0  1  0  0  0  0  0  0  0  0  0
  -25.2640  -31.1190   25.8930 C   0  0  0  0  0  1  0  0  0  0  0  0
  -26.9580  -30.1010   24.3700 C   0  0  0  0  0  1  0  0  0  0  0  0
  -27.4670  -32.2410   25.5140 C   0  0  0  0  0  1  0  0  0  0  0  0
  1  5  2  0
  1  2  1  0
  2 48  1  0
  2  3  2  0
  3  6  1  0
  3  7  1  0
  4 18  1  0
  4  6  2  0
  5  4  1  0
  6  9  1  0
  8  5  1  0
 10 16  1  0
 10 18  1  0
 11 16  1  0
 12 13  1  0
 12 11  1  0
 14 13  1  0
 14 23  1  0
 14 15  1  0
 16 15  1  0
 17 10  2  0
 18 19  1  0
 20 21  2  0
 21 40  1  0
 22 21  1  0
 22 25  1  0
 23 24  1  0
 23 20  1  0
 24 22  2  0
 25 26  1  0
 26 27  2  0
 28 31  1  0
 28 27  1  0
 29 28  2  0
 30 29  1  0
 30 25  2  0
 31 32  1  0
 32 33  1  0
 33 34  2  0
 35 34  1  0
 35 39  1  0
 36 35  2  0
 37 32  2  0
 37 36  1  0
 38 37  1  0
 40 41  1  0
 41 44  1  0
 41 43  1  0
 42 40  2  0
 45 20  1  0
 45 46  1  0
 47 45  1  0
 49 50  1  0
 49 48  2  0
 50 52  1  0
 51 62  2  0
 52 57  1  0
 53 61  1  0
 53 63  1  0
 54 60  1  0
 54 56  1  0
 55 61  1  0
 56 55  1  0
 57 56  2  0
 58 59  1  0
 58 52  2  0
 59 54  2  0
 60 53  1  0
 61 51  1  0
 63 65  2  0
 64 63  1  0
 66 64  1  0
 67 76  2  0
 67 72  1  0
 68 64  1  0
 68 72  1  0
 69 68  1  0
 70 71  1  0
 70 69  1  0
 71 67  1  0
 72 73  2  0
 73 74  1  0
 75 74  2  0
 76 75  1  0
 77 51  1  0
 77 78  1  0
 77 87  1  0
 78 81  1  0
 79 83  1  0
 79 78  1  0
 80 79  2  0
 83 82  1  0
 85 83  1  0
 85 86  1  0
 85 84  1  0
 87 90  1  1
 87 88  1  0
 89 87  1  0
M  ISO  4  10 100  18 100  49 101  50 101
M  END
>  <TORSDO>  (79) 
F 18

>  <SCORE>  (79) 
-13.952

>  <name>  (79) 
79

>  <ligand_id>  (79) 
79

>  <original_smiles>  (79) 
[H]c1c([H])c([H])c2c(c1[H])C([H])([H])C([H])([H])C([H])([H])C2([H])N([H])C(=O)C1([H])N(C(=O)C([H])(N([H])C(=O)C([H])(N([H])C([H])([H])[H])C([H])([H])[H])C(C([H])([H])[H])(C([H])([H])[H])C([H])([H])[H])C([H])([H])c2c([H])c(OC([H])([H])C([H])([H])c3c([H])c(Cl)c(N([H])C(=O)N4C([H])([H])C([H])([H])C([H])([H])C([H])(n5nc(-c6c([H])c([H])c(Oc7c([H])c([H])c(F)c([H])c7F)c([H])c6[H])c(C(=O)N([H])[H])c5N([H])[H])C4([H])[H])c(Cl)c3C([H])([H])[H])c([H])c([H])c2C1([H])[H]

>  <smiles>  (79) 
[H]c1c([H])c([H])c2c(c1[H])C([H])([H])C([H])([H])C([H])([H])C2([H])N([H])C(=O)C1([H])N(C(=O)C([H])(N([H])C(=O)C([H])(N([H])C([H])([H])[H])C([H])([H])[H])C(C([H])([H])[H])(C([H])([H])[H])C([H])([H])[H])C([H])([H])c2c([H])c(OC([H])([H])C([H])([H])c3c([H])c(Cl)c(N([H])C(=O)N4C([H])([H])C([H])([H])C([H])([H])C([H])(n5nc(-c6c([H])c([H])c(Oc7c([H])c([H])c(F)c([H])c7F)c([H])c6[H])c(C(=O)N([H])[H])c5N([H])[H])C4([H])[H])c(Cl)c3C([H])([H])[H])c([H])c([H])c2C1([H])[H]

$$$$
80:0:0
     RDKit          3D

 99107  0  0  1  0  0  0  0  0999 V2000
  -30.9140  -20.6470   20.1220 C   0  0  0  0  0  3  0  0  0  0  0  0
  -30.3120  -19.9380   21.1850 C   0  0  0  0  0  0  0  0  0  0  0  0
  -30.1180  -18.5350   21.0210 C   0  0  0  0  0  0  0  0  0  0  0  0
  -31.2880  -19.9700   18.9480 C   0  0  0  0  0  0  0  0  0  0  0  0
  -30.5270  -17.9360   19.7990 C   0  0  0  0  0  0  0  0  0  0  0  0
  -29.4580  -17.6890   22.1090 C   0  0  0  0  0  1  0  0  0  0  0  0
  -31.0970  -18.6440   18.8070 N   0  0  0  0  0  0  0  0  0  0  0  0
  -32.7160  -21.9150   18.1010 C   0  0  0  0  0  1  0  0  0  0  0  0
  -31.8060  -20.7320   17.7180 C   0  0  1  0  0  0  0  0  0  0  0  0
  -32.5700  -19.9110   16.9930 F   0  0  0  0  0  0  0  0  0  0  0  0
  -30.9800  -21.9220   15.5530 C   0  0  0  0  0  1  0  0  0  0  0  0
  -30.6100  -21.1570   16.8350 C   0  0  0  0  0  2  0  0  0  0  0  0
  -29.8730  -20.6840   22.4560 C   0  0  0  0  0  2  0  0  0  0  0  0
  -30.3300  -22.7080   23.7860 C   0  0  0  0  0  1  0  0  0  0  0  0
  -30.1030  -22.1570   22.4260 N   0  0  2  0  0  4  0  0  0  0  0  0
  -30.9760  -22.2480   21.9290 H   0  0  0  0  0  0  0  0  0  0  0  0
  -29.0580  -22.9000   21.6540 C   0  0  0  0  0  2  0  0  0  0  0  0
  -29.3840  -24.3940   21.3690 C   0  0  0  0  0  2  0  0  0  0  0  0
  -28.3670  -25.0440   20.4080 C   0  0  0  0  0  2  0  0  0  0  0  0
  -28.5340  -26.4700   20.3120 O   0  0  0  0  0  0  0  0  0  0  0  0
  -24.6420  -31.6550   23.1980 C   0  0  0  0  0  0  0  0  0  0  0  0
  -27.3700  -27.2070   20.2180 C   0  0  0  0  0  0  0  0  0  0  0  0
  -23.4740  -30.2270   21.5500 C   0  0  0  0  0  3  0  0  0  0  0  0
  -24.9640  -28.6950   20.1600 C   0  0  0  0  0  0  0  0  0  0  0  0
  -25.9990  -30.6090   21.3900 C   0  0  0  0  0  2  0  0  0  0  0  0
  -26.1070  -29.2350   20.7620 C   0  0  0  0  0  0  0  0  0  0  0  0
  -27.3140  -28.4990   20.7860 C   0  0  0  0  0  3  0  0  0  0  0  0
  -26.2130  -26.6930   19.5850 C   0  0  0  0  0  3  0  0  0  0  0  0
  -25.0110  -27.4230   19.5670 C   0  0  0  0  0  3  0  0  0  0  0  0
  -23.7110  -29.5390   20.1790 C   0  0  0  0  0  2  0  0  0  0  0  0
  -24.7210  -30.8460   22.1030 N   0  0  0  0  0  0  0  0  0  0  0  0
  -23.5510  -31.9230   23.7190 O   0  0  0  0  0  0  0  0  0  0  0  0
  -22.8180  -29.2090   22.5090 C   0  0  0  0  0  0  0  0  0  0  0  0
  -21.5010  -29.0010   22.3530 N   0  0  0  0  0  0  0  0  0  0  0  0
  -23.4930  -28.6080   23.3490 O   0  0  0  0  0  0  0  0  0  0  0  0
  -21.0160  -29.5420   21.6490 H   0  0  0  0  0  0  0  0  0  0  0  0
  -18.1410  -27.7390   22.7690 C   0  0  0  0  0  0  0  0  0  0  0  0
  -20.6810  -28.0600   23.1170 C   0  0  0  0  0  3  0  0  0  0  0  0
  -20.8330  -26.6190   22.5770 C   0  0  0  0  0  2  0  0  0  0  0  0
  -19.7730  -26.2500   21.5350 C   0  0  0  0  0  2  0  0  0  0  0  0
  -18.3680  -26.3780   22.1310 C   0  0  0  0  0  2  0  0  0  0  0  0
  -19.2270  -28.5350   23.2170 C   0  0  0  0  0  0  0  0  0  0  0  0
  -18.9620  -29.8060   23.7720 C   0  0  0  0  0  3  0  0  0  0  0  0
  -17.6430  -30.2820   23.8830 C   0  0  0  0  0  3  0  0  0  0  0  0
  -16.5700  -29.4840   23.4510 C   0  0  0  0  0  3  0  0  0  0  0  0
  -16.8190  -28.2140   22.9000 C   0  0  0  0  0  3  0  0  0  0  0  0
  -25.9130  -32.3030   23.8300 C   0  0  0  0  0  3  0  0  0  0  0  0
  -25.5850  -33.6960   24.1570 N   0  0  0  0  0  0  0  0  0  0  0  0
  -25.9070  -34.7510   23.3970 C   0  0  0  0  0  0  0  0  0  0  0  0
  -26.5840  -34.6550   22.3700 O   0  0  0  0  0  0  0  0  0  0  0  0
  -24.9860  -33.8450   24.9560 H   0  0  0  0  0  0  0  0  0  0  0  0
  -24.1510  -36.5140   23.0300 C   0  0  0  0  0  1  0  0  0  0  0  0
  -25.3960  -36.1330   23.8480 C   0  0  0  0  0  3  0  0  0  0  0  0
  -27.5100  -37.0550   24.6890 C   0  0  0  0  0  1  0  0  0  0  0  0
  -26.4120  -37.2020   23.7370 N   0  0  0  0  0  0  0  0  0  0  0  0
  -25.9900  -38.1170   23.8780 H   0  0  0  0  0  0  0  0  0  0  0  0
  -26.4320  -31.5360   25.1090 C   0  0  1  0  0  0  0  0  0  0  0  0
  -25.3340  -31.2790   26.1680 C   0  0  0  0  0  1  0  0  0  0  0  0
  -27.0390  -30.1700   24.7150 C   0  0  0  0  0  1  0  0  0  0  0  0
  -27.5630  -32.3480   25.7840 C   0  0  0  0  0  1  0  0  0  0  0  0
  -30.1880  -16.5050   19.3870 C   0  0  0  0  0  2  0  0  0  0  0  0
  -31.1900  -14.3660   19.9820 C   0  0  0  0  0  0  0  0  0  0  0  0
  -30.7900  -12.2110   18.8820 C   0  0  0  0  0  2  0  0  0  0  0  0
  -29.8270  -12.4840   17.7060 C   0  0  0  0  0  2  0  0  0  0  0  0
  -28.3580  -12.4220   18.1730 C   0  0  0  0  0  2  0  0  0  0  0  0
  -28.0990  -13.2590   19.4550 C   0  0  0  0  0  3  0  0  0  0  0  0
  -29.1720  -12.9650   20.5310 C   0  0  0  0  0  2  0  0  0  0  0  0
  -30.5000  -13.1970   19.9340 N   0  0  0  0  0  0  0  0  0  0  0  0
  -32.3080  -14.5220   19.4830 O   0  0  0  0  0  0  0  0  0  0  0  0
  -30.4390  -15.4160   20.3360 N   0  0  0  0  0  0  0  0  0  0  0  0
  -29.6330  -15.1780   20.8910 H   0  0  0  0  0  0  0  0  0  0  0  0
  -25.7510  -13.9890   20.2230 C   0  0  0  0  0  0  0  0  0  0  0  0
  -24.6580  -13.2700   20.6300 C   0  0  0  0  0  0  0  0  0  0  0  0
  -25.0540  -11.8990   20.5930 C   0  0  0  0  0  0  0  0  0  0  0  0
  -26.7460  -13.0580   19.9690 N   0  0  0  0  0  0  0  0  0  0  0  0
  -26.3300  -11.7950   20.2430 N   0  0  0  0  0  0  0  0  0  0  0  0
  -24.2740  -10.6720   20.8100 C   0  0  0  0  0  0  0  0  0  0  0  0
  -24.6550   -9.7210   21.7820 C   0  0  0  0  0  3  0  0  0  0  0  0
  -23.8820   -8.5590   21.9860 C   0  0  0  0  0  3  0  0  0  0  0  0
  -22.7140   -8.3400   21.2190 C   0  0  0  0  0  0  0  0  0  0  0  0
  -22.3510   -9.2790   20.2380 C   0  0  0  0  0  3  0  0  0  0  0  0
  -23.1240  -10.4340   20.0310 C   0  0  0  0  0  3  0  0  0  0  0  0
  -21.9150   -7.2270   21.3310 O   0  0  0  0  0  0  0  0  0  0  0  0
  -21.7700   -6.5620   22.5210 C   0  0  0  0  0  0  0  0  0  0  0  0
  -21.2880   -7.2050   23.6810 C   0  0  0  0  0  3  0  0  0  0  0  0
  -21.0900   -6.4670   24.8650 C   0  0  0  0  0  3  0  0  0  0  0  0
  -21.3630   -5.0860   24.8880 C   0  0  0  0  0  0  0  0  0  0  0  0
  -21.8380   -4.4420   23.7320 C   0  0  0  0  0  3  0  0  0  0  0  0
  -22.0380   -5.1780   22.5510 C   0  0  0  0  0  0  0  0  0  0  0  0
  -22.4760   -4.5500   21.4330 F   0  0  0  0  0  0  0  0  0  0  0  0
  -21.1660   -4.3740   26.0220 F   0  0  0  0  0  0  0  0  0  0  0  0
  -23.2940  -13.8160   20.9420 C   0  0  0  0  0  0  0  0  0  0  0  0
  -22.5650  -13.1650   21.8430 N   0  0  0  0  0  0  0  0  0  0  0  0
  -22.8850  -14.8530   20.4230 O   0  0  0  0  0  0  0  0  0  0  0  0
  -22.9070  -12.3270   22.2900 H   0  0  0  0  0  0  0  0  0  0  0  0
  -21.6500  -13.5120   22.0930 H   0  0  0  0  0  0  0  0  0  0  0  0
  -25.9700  -15.3490   20.0300 N   0  0  0  0  0  0  0  0  0  0  0  0
  -25.2240  -16.0270   20.1430 H   0  0  0  0  0  0  0  0  0  0  0  0
  -26.8080  -15.7470   19.6300 H   0  0  0  0  0  0  0  0  0  0  0  0
  1  2  1  0
  2 13  1  0
  3  2  2  0
  3  6  1  0
  4  1  2  0
  5  3  1  0
  7  4  1  0
  7  5  2  0
  9  8  1  1
  9  4  1  0
 10  9  1  0
 11 12  1  0
 12  9  1  0
 15 13  1  0
 15 14  1  0
 15 16  1  6
 17 15  1  0
 18 17  1  0
 19 18  1  0
 20 19  1  0
 21 32  2  0
 22 20  1  0
 22 27  1  0
 23 31  1  0
 23 33  1  0
 24 30  1  0
 24 26  1  0
 25 31  1  0
 26 27  2  0
 26 25  1  0
 28 22  2  0
 29 28  1  0
 29 24  2  0
 30 23  1  0
 31 21  1  0
 33 35  2  0
 34 33  1  0
 36 34  1  0
 37 46  2  0
 37 42  1  0
 38 34  1  0
 38 42  1  0
 39 38  1  0
 40 41  1  0
 40 39  1  0
 41 37  1  0
 42 43  2  0
 43 44  1  0
 45 44  2  0
 46 45  1  0
 47 21  1  0
 47 48  1  0
 47 57  1  0
 48 51  1  0
 49 53  1  0
 49 48  1  0
 50 49  2  0
 53 52  1  0
 55 53  1  0
 55 56  1  0
 55 54  1  0
 57 60  1  1
 57 58  1  0
 59 57  1  0
 61  5  1  0
 61 70  1  0
 62 70  1  0
 63 68  1  0
 64 65  1  0
 64 63  1  0
 66 65  1  0
 66 75  1  0
 66 67  1  0
 68 62  1  0
 68 67  1  0
 69 62  2  0
 70 71  1  0
 72 73  2  0
 73 92  1  0
 74 73  1  0
 74 77  1  0
 75 72  1  0
 75 76  1  0
 76 74  2  0
 77 78  1  0
 78 79  2  0
 80 83  1  0
 80 79  1  0
 81 80  2  0
 82 81  1  0
 82 77  2  0
 83 84  1  0
 84 89  2  0
 84 85  1  0
 85 86  2  0
 86 87  1  0
 87 91  1  0
 88 87  2  0
 89 88  1  0
 90 89  1  0
 92 93  1  0
 93 96  1  0
 93 95  1  0
 94 92  2  0
 97 98  1  0
 97 72  1  0
 99 97  1  0
M  ISO  4  19 101  20 101  62 100  70 100
M  END
>  <TORSDO>  (80) 
F 24

>  <SCORE>  (80) 
-11.208

>  <name>  (80) 
80

>  <ligand_id>  (80) 
80

>  <original_smiles>  (80) 
[H]c1c([H])c([H])c2c(c1[H])C([H])([H])C([H])([H])C([H])([H])C2([H])N([H])C(=O)C1([H])N(C(=O)C([H])(N([H])C(=O)C([H])(N([H])C([H])([H])[H])C([H])([H])[H])C(C([H])([H])[H])(C([H])([H])[H])C([H])([H])[H])C([H])([H])c2c([H])c(OC([H])([H])C([H])([H])C([H])([H])[N+]([H])(C([H])([H])[H])C([H])([H])c3c([H])c(C(F)(C([H])([H])[H])C([H])([H])C([H])([H])[H])nc(C([H])([H])N([H])C(=O)N4C([H])([H])C([H])([H])C([H])([H])C([H])(n5nc(-c6c([H])c([H])c(Oc7c([H])c([H])c(F)c([H])c7F)c([H])c6[H])c(C(=O)N([H])[H])c5N([H])[H])C4([H])[H])c3C([H])([H])[H])c([H])c([H])c2C1([H])[H]

>  <smiles>  (80) 
[H]c1c([H])c([H])c2c(c1[H])C([H])([H])C([H])([H])C([H])([H])C2([H])N([H])C(=O)C1([H])N(C(=O)C([H])(N([H])C(=O)C([H])(N([H])C([H])([H])[H])C([H])([H])[H])C(C([H])([H])[H])(C([H])([H])[H])C([H])([H])[H])C([H])([H])c2c([H])c(OC([H])([H])C([H])([H])C([H])([H])[N+]([H])(C([H])([H])[H])C([H])([H])c3c([H])c(C(F)(C([H])([H])[H])C([H])([H])C([H])([H])[H])nc(C([H])([H])N([H])C(=O)N4C([H])([H])C([H])([H])C([H])([H])C([H])(n5nc(-c6c([H])c([H])c(Oc7c([H])c([H])c(F)c([H])c7F)c([H])c6[H])c(C(=O)N([H])[H])c5N([H])[H])C4([H])[H])c3C([H])([H])[H])c([H])c([H])c2C1([H])[H]

$$$$
81:0:0
     RDKit          3D

 92100  0  0  1  0  0  0  0  0999 V2000
  -29.2130  -19.0410   21.2290 C   0  0  0  0  0  2  0  0  0  0  0  0
  -29.9820  -18.5360   18.8390 C   0  0  0  0  0  2  0  0  0  0  0  0
  -29.5530  -20.6780   21.0830 C   0  0  0  0  0  2  0  0  0  0  0  0
  -29.3400  -21.2690   18.7520 C   0  0  0  0  0  2  0  0  0  0  0  0
  -29.4640  -17.8410   20.1360 C   0  0  0  0  0  3  0  0  0  0  0  0
  -29.1080  -19.7610   18.2470 C   0  0  2  0  0  0  0  0  0  0  0  0
  -27.5930  -19.4560   18.2750 C   0  0  0  0  0  1  0  0  0  0  0  0
  -29.5010  -19.8060   16.7510 C   0  0  0  0  0  1  0  0  0  0  0  0
  -28.8690  -21.6960   20.1170 N   0  0  2  0  0  4  0  0  0  0  0  0
  -27.8770  -21.5190   20.1750 H   0  0  0  0  0  0  0  0  0  0  0  0
  -30.4610  -15.1140   20.1910 C   0  0  0  0  0  0  0  0  0  0  0  0
  -30.3700  -12.7330   19.2800 C   0  0  0  0  0  2  0  0  0  0  0  0
  -29.4070  -12.6660   18.0690 C   0  0  0  0  0  2  0  0  0  0  0  0
  -27.9560  -12.4390   18.5370 C   0  0  0  0  0  2  0  0  0  0  0  0
  -27.5710  -13.3630   19.7210 C   0  0  0  0  0  3  0  0  0  0  0  0
  -28.6550  -13.3860   20.8220 C   0  0  0  0  0  2  0  0  0  0  0  0
  -29.9080  -13.8260   20.1890 N   0  0  0  0  0  0  0  0  0  0  0  0
  -31.6310  -15.2120   19.8020 O   0  0  0  0  0  0  0  0  0  0  0  0
  -29.6370  -16.2620   20.4480 N   0  0  0  0  0  0  0  0  0  0  0  0
  -28.7750  -15.9150   20.8420 H   0  0  0  0  0  0  0  0  0  0  0  0
  -25.2180  -13.9340   20.5480 C   0  0  0  0  0  0  0  0  0  0  0  0
  -24.1630  -13.1560   20.9350 C   0  0  0  0  0  0  0  0  0  0  0  0
  -24.6170  -11.8040   20.8560 C   0  0  0  0  0  0  0  0  0  0  0  0
  -26.2490  -13.0560   20.2530 N   0  0  0  0  0  0  0  0  0  0  0  0
  -25.8980  -11.7680   20.5040 N   0  0  0  0  0  0  0  0  0  0  0  0
  -23.8870  -10.5420   21.0390 C   0  0  0  0  0  0  0  0  0  0  0  0
  -24.3220   -9.5640   21.9610 C   0  0  0  0  0  3  0  0  0  0  0  0
  -23.5920   -8.3690   22.1340 C   0  0  0  0  0  3  0  0  0  0  0  0
  -22.4130   -8.1410   21.3860 C   0  0  0  0  0  0  0  0  0  0  0  0
  -21.9970   -9.1070   20.4530 C   0  0  0  0  0  3  0  0  0  0  0  0
  -22.7270  -10.2950   20.2770 C   0  0  0  0  0  3  0  0  0  0  0  0
  -21.6540   -6.9990   21.4690 O   0  0  0  0  0  0  0  0  0  0  0  0
  -21.5790   -6.2660   22.6270 C   0  0  0  0  0  0  0  0  0  0  0  0
  -21.0850   -6.8210   23.8280 C   0  0  0  0  0  3  0  0  0  0  0  0
  -20.9600   -6.0120   24.9760 C   0  0  0  0  0  3  0  0  0  0  0  0
  -21.3190   -4.6520   24.9230 C   0  0  0  0  0  0  0  0  0  0  0  0
  -21.8060   -4.0980   23.7260 C   0  0  0  0  0  3  0  0  0  0  0  0
  -21.9320   -4.9030   22.5810 C   0  0  0  0  0  0  0  0  0  0  0  0
  -22.3810   -4.3590   21.4240 F   0  0  0  0  0  0  0  0  0  0  0  0
  -21.1920   -3.8740   26.0240 F   0  0  0  0  0  0  0  0  0  0  0  0
  -22.7780  -13.6340   21.2590 C   0  0  0  0  0  0  0  0  0  0  0  0
  -22.0730  -12.9260   22.1330 N   0  0  0  0  0  0  0  0  0  0  0  0
  -22.3320  -14.6710   20.7700 O   0  0  0  0  0  0  0  0  0  0  0  0
  -22.4470  -12.0870   22.5520 H   0  0  0  0  0  0  0  0  0  0  0  0
  -21.1430  -13.2290   22.3890 H   0  0  0  0  0  0  0  0  0  0  0  0
  -25.3850  -15.3070   20.3940 N   0  0  0  0  0  0  0  0  0  0  0  0
  -24.6190  -15.9570   20.5350 H   0  0  0  0  0  0  0  0  0  0  0  0
  -26.2070  -15.7450   20.0000 H   0  0  0  0  0  0  0  0  0  0  0  0
  -29.0740  -23.2890   20.3780 C   0  0  0  0  0  2  0  0  0  0  0  0
  -26.8720  -24.2500   21.2970 C   0  0  0  0  0  1  0  0  0  0  0  0
  -27.9240  -24.5550   20.2110 C   0  0  0  0  0  3  0  0  0  0  0  0
  -28.1880  -26.1290   20.2740 O   0  0  0  0  0  0  0  0  0  0  0  0
  -24.6310  -31.9160   23.2600 C   0  0  0  0  0  0  0  0  0  0  0  0
  -27.1610  -27.1640   20.1870 C   0  0  0  0  0  0  0  0  0  0  0  0
  -23.4150  -30.5330   21.6230 C   0  0  0  0  0  3  0  0  0  0  0  0
  -24.8500  -28.9610   20.1690 C   0  0  0  0  0  0  0  0  0  0  0  0
  -25.9730  -30.7760   21.4480 C   0  0  0  0  0  2  0  0  0  0  0  0
  -26.0350  -29.3840   20.7840 C   0  0  0  0  0  0  0  0  0  0  0  0
  -27.1890  -28.5010   20.7770 C   0  0  0  0  0  3  0  0  0  0  0  0
  -25.9600  -26.8770   19.5000 C   0  0  0  0  0  3  0  0  0  0  0  0
  -24.8300  -27.7250   19.5060 C   0  0  0  0  0  3  0  0  0  0  0  0
  -23.6260  -29.8630   20.2380 C   0  0  0  0  0  2  0  0  0  0  0  0
  -24.6930  -31.0980   22.1640 N   0  0  0  0  0  0  0  0  0  0  0  0
  -23.5490  -32.2030   23.7970 O   0  0  0  0  0  0  0  0  0  0  0  0
  -22.7380  -29.5240   22.5850 C   0  0  0  0  0  0  0  0  0  0  0  0
  -21.4110  -29.3440   22.4570 N   0  0  0  0  0  0  0  0  0  0  0  0
  -23.4110  -28.9050   23.4140 O   0  0  0  0  0  0  0  0  0  0  0  0
  -20.9240  -29.8950   21.7640 H   0  0  0  0  0  0  0  0  0  0  0  0
  -18.0360  -28.1210   22.9570 C   0  0  0  0  0  0  0  0  0  0  0  0
  -20.5930  -28.4020   23.2270 C   0  0  0  0  0  3  0  0  0  0  0  0
  -20.7070  -26.9700   22.6570 C   0  0  0  0  0  2  0  0  0  0  0  0
  -19.6100  -26.6370   21.6400 C   0  0  0  0  0  2  0  0  0  0  0  0
  -18.2260  -26.7720   22.2810 C   0  0  0  0  0  2  0  0  0  0  0  0
  -19.1480  -28.8930   23.3870 C   0  0  0  0  0  0  0  0  0  0  0  0
  -18.9170  -30.1520   23.9800 C   0  0  0  0  0  3  0  0  0  0  0  0
  -17.6080  -30.6410   24.1460 C   0  0  0  0  0  3  0  0  0  0  0  0
  -16.5110  -29.8660   23.7310 C   0  0  0  0  0  3  0  0  0  0  0  0
  -16.7260  -28.6080   23.1430 C   0  0  0  0  0  3  0  0  0  0  0  0
  -25.9130  -32.5470   23.8820 C   0  0  0  0  0  3  0  0  0  0  0  0
  -25.6080  -33.9450   24.2220 N   0  0  0  0  0  0  0  0  0  0  0  0
  -25.9080  -35.0030   23.4570 C   0  0  0  0  0  0  0  0  0  0  0  0
  -26.5380  -34.9040   22.4010 O   0  0  0  0  0  0  0  0  0  0  0  0
  -25.0420  -34.0960   25.0450 H   0  0  0  0  0  0  0  0  0  0  0  0
  -24.1550  -36.7910   23.1900 C   0  0  0  0  0  1  0  0  0  0  0  0
  -25.4380  -36.3910   23.9380 C   0  0  0  0  0  3  0  0  0  0  0  0
  -27.6000  -37.2970   24.6710 C   0  0  0  0  0  1  0  0  0  0  0  0
  -26.4570  -37.4500   23.7740 N   0  0  0  0  0  0  0  0  0  0  0  0
  -26.0510  -38.3680   23.9310 H   0  0  0  0  0  0  0  0  0  0  0  0
  -26.4290  -31.7730   25.1580 C   0  0  1  0  0  0  0  0  0  0  0  0
  -25.3350  -31.5370   26.2260 C   0  0  0  0  0  1  0  0  0  0  0  0
  -27.0110  -30.3940   24.7700 C   0  0  0  0  0  1  0  0  0  0  0  0
  -27.5810  -32.5650   25.8210 C   0  0  0  0  0  1  0  0  0  0  0  0
  2  5  1  0
  3  1  1  0
  4  9  1  0
  5 19  1  0
  5  1  1  0
  6  7  1  6
  6  4  1  0
  6  2  1  0
  8  6  1  0
  9 10  1  6
  9 49  1  0
  9  3  1  0
 11 19  1  0
 12 17  1  0
 13 14  1  0
 13 12  1  0
 15 14  1  0
 15 24  1  0
 15 16  1  0
 17 11  1  0
 17 16  1  0
 18 11  2  0
 19 20  1  0
 21 22  2  0
 22 41  1  0
 23 22  1  0
 23 26  1  0
 24 25  1  0
 24 21  1  0
 25 23  2  0
 26 27  1  0
 27 28  2  0
 29 32  1  0
 29 28  1  0
 30 29  2  0
 31 30  1  0
 31 26  2  0
 32 33  1  0
 33 34  1  0
 34 35  2  0
 36 35  1  0
 36 40  1  0
 37 36  2  0
 38 33  2  0
 38 37  1  0
 39 38  1  0
 41 42  1  0
 42 45  1  0
 42 44  1  0
 43 41  2  0
 46 47  1  0
 46 21  1  0
 48 46  1  0
 51 52  1  0
 51 49  1  0
 51 50  1  0
 53 64  2  0
 54 52  1  0
 54 59  1  0
 55 63  1  0
 55 65  1  0
 56 62  1  0
 56 58  1  0
 57 63  1  0
 58 57  1  0
 59 58  2  0
 60 61  1  0
 60 54  2  0
 61 56  2  0
 62 55  1  0
 63 53  1  0
 65 67  2  0
 66 65  1  0
 68 66  1  0
 69 78  2  0
 69 74  1  0
 70 66  1  0
 70 74  1  0
 71 70  1  0
 72 73  1  0
 72 71  1  0
 73 69  1  0
 74 75  2  0
 75 76  1  0
 77 76  2  0
 78 77  1  0
 79 53  1  0
 79 80  1  0
 79 89  1  0
 80 83  1  0
 81 85  1  0
 81 80  1  0
 82 81  2  0
 85 84  1  0
 87 88  1  0
 87 85  1  0
 87 86  1  0
 89 92  1  1
 89 90  1  0
 91 89  1  0
M  ISO  4  11 100  19 100  51 101  52 101
M  END
>  <TORSDO>  (81) 
F 18

>  <SCORE>  (81) 
-15.049

>  <name>  (81) 
81

>  <ligand_id>  (81) 
81

>  <original_smiles>  (81) 
[H]c1c([H])c([H])c2c(c1[H])C([H])([H])C([H])([H])C([H])([H])C2([H])N([H])C(=O)C1([H])N(C(=O)C([H])(N([H])C(=O)C([H])(N([H])C([H])([H])[H])C([H])([H])[H])C(C([H])([H])[H])(C([H])([H])[H])C([H])([H])[H])C([H])([H])c2c([H])c(OC([H])(C([H])([H])[H])C([H])([H])[N+]3([H])C([H])([H])C([H])([H])C([H])(N([H])C(=O)N4C([H])([H])C([H])([H])C([H])([H])C([H])(n5nc(-c6c([H])c([H])c(Oc7c([H])c([H])c(F)c([H])c7F)c([H])c6[H])c(C(=O)N([H])[H])c5N([H])[H])C4([H])[H])C([H])([H])C(C([H])([H])[H])(C([H])([H])[H])C3([H])[H])c([H])c([H])c2C1([H])[H]

>  <smiles>  (81) 
[H]c1c([H])c([H])c2c(c1[H])C([H])([H])C([H])([H])C([H])([H])C2([H])N([H])C(=O)C1([H])N(C(=O)C([H])(N([H])C(=O)C([H])(N([H])C([H])([H])[H])C([H])([H])[H])C(C([H])([H])[H])(C([H])([H])[H])C([H])([H])[H])C([H])([H])c2c([H])c(OC([H])(C([H])([H])[H])C([H])([H])[N+]3([H])C([H])([H])C([H])([H])C([H])(N([H])C(=O)N4C([H])([H])C([H])([H])C([H])([H])C([H])(n5nc(-c6c([H])c([H])c(Oc7c([H])c([H])c(F)c([H])c7F)c([H])c6[H])c(C(=O)N([H])[H])c5N([H])[H])C4([H])[H])C([H])([H])C(C([H])([H])[H])(C([H])([H])[H])C3([H])[H])c([H])c([H])c2C1([H])[H]

$$$$
82:0:0
     RDKit          3D

 89 97  0  0  1  0  0  0  0  0999 V2000
  -29.0740  -21.2260   18.8900 C   0  0  0  0  0  3  0  0  0  0  0  0
  -29.0380  -22.2730   19.9520 C   0  0  0  0  0  0  0  0  0  0  0  0
  -29.4250  -19.7350   18.9050 C   0  0  0  0  0  0  0  0  0  0  0  0
  -29.4710  -21.3940   21.0810 C   0  0  0  0  0  0  0  0  0  0  0  0
  -29.8230  -19.8880   21.1140 C   0  0  0  0  0  0  0  0  0  0  0  0
  -29.8490  -18.8530   20.0280 C   0  0  0  0  0  0  0  0  0  0  0  0
  -29.2540  -19.0150   17.5820 C   0  0  0  0  0  1  0  0  0  0  0  0
  -29.5140  -22.1300   22.4150 C   0  0  0  0  0  1  0  0  0  0  0  0
  -30.1780  -19.3210   22.4830 C   0  0  0  0  0  1  0  0  0  0  0  0
  -30.8180  -15.8370   20.0810 C   0  0  0  0  0  0  0  0  0  0  0  0
  -30.9910  -13.2620   19.3920 C   0  0  0  0  0  2  0  0  0  0  0  0
  -30.0980  -12.7960   18.2040 C   0  0  0  0  0  2  0  0  0  0  0  0
  -28.6850  -12.4330   18.6860 C   0  0  0  0  0  2  0  0  0  0  0  0
  -28.1610  -13.4650   19.7100 C   0  0  0  0  0  3  0  0  0  0  0  0
  -29.1920  -13.8390   20.8010 C   0  0  0  0  0  2  0  0  0  0  0  0
  -30.3500  -14.4530   20.1110 N   0  0  0  0  0  0  0  0  0  0  0  0
  -32.0430  -15.8270   19.8530 O   0  0  0  0  0  0  0  0  0  0  0  0
  -29.9690  -17.1370   20.1530 N   0  0  0  0  0  0  0  0  0  0  0  0
  -29.0530  -16.7940   20.4040 H   0  0  0  0  0  0  0  0  0  0  0  0
  -25.8270  -13.9780   20.5720 C   0  0  0  0  0  0  0  0  0  0  0  0
  -24.7750  -13.1890   20.9420 C   0  0  0  0  0  0  0  0  0  0  0  0
  -25.2370  -11.8400   20.8380 C   0  0  0  0  0  0  0  0  0  0  0  0
  -26.8580  -13.1130   20.2570 N   0  0  0  0  0  0  0  0  0  0  0  0
  -26.5190  -11.8170   20.4840 N   0  0  0  0  0  0  0  0  0  0  0  0
  -24.5070  -10.5740   20.9970 C   0  0  0  0  0  0  0  0  0  0  0  0
  -24.8890   -9.6150   21.9620 C   0  0  0  0  0  3  0  0  0  0  0  0
  -24.1550   -8.4180   22.1110 C   0  0  0  0  0  3  0  0  0  0  0  0
  -23.0260   -8.1710   21.2940 C   0  0  0  0  0  0  0  0  0  0  0  0
  -22.6640   -9.1170   20.3200 C   0  0  0  0  0  3  0  0  0  0  0  0
  -23.3980  -10.3060   20.1700 C   0  0  0  0  0  3  0  0  0  0  0  0
  -22.2690   -7.0250   21.3500 O   0  0  0  0  0  0  0  0  0  0  0  0
  -22.0250   -6.3800   22.5370 C   0  0  0  0  0  0  0  0  0  0  0  0
  -21.3810   -7.0240   23.6160 C   0  0  0  0  0  3  0  0  0  0  0  0
  -21.0880   -6.3040   24.7910 C   0  0  0  0  0  3  0  0  0  0  0  0
  -21.4290   -4.9420   24.8870 C   0  0  0  0  0  0  0  0  0  0  0  0
  -22.0660   -4.2980   23.8120 C   0  0  0  0  0  3  0  0  0  0  0  0
  -22.3610   -5.0150   22.6390 C   0  0  0  0  0  0  0  0  0  0  0  0
  -22.9550   -4.3840   21.5980 F   0  0  0  0  0  0  0  0  0  0  0  0
  -21.1410   -4.2480   26.0130 F   0  0  0  0  0  0  0  0  0  0  0  0
  -23.3900  -13.6610   21.2690 C   0  0  0  0  0  0  0  0  0  0  0  0
  -22.6860  -12.9400   22.1340 N   0  0  0  0  0  0  0  0  0  0  0  0
  -22.9430  -14.7040   20.7940 O   0  0  0  0  0  0  0  0  0  0  0  0
  -23.0620  -12.0980   22.5410 H   0  0  0  0  0  0  0  0  0  0  0  0
  -21.7570  -13.2380   22.3950 H   0  0  0  0  0  0  0  0  0  0  0  0
  -25.9870  -15.3550   20.4440 N   0  0  0  0  0  0  0  0  0  0  0  0
  -25.2170  -15.9980   20.5950 H   0  0  0  0  0  0  0  0  0  0  0  0
  -26.8030  -15.8020   20.0490 H   0  0  0  0  0  0  0  0  0  0  0  0
  -28.2460  -23.9720   19.9180 C   0  0  0  0  0  2  0  0  0  0  0  0
  -28.5450  -25.6840   20.1180 O   0  0  0  0  0  0  0  0  0  0  0  0
  -24.9360  -31.7640   23.3130 C   0  0  0  0  0  0  0  0  0  0  0  0
  -27.5830  -26.9040   20.0940 C   0  0  0  0  0  0  0  0  0  0  0  0
  -23.8060  -30.4690   21.5560 C   0  0  0  0  0  3  0  0  0  0  0  0
  -25.3060  -28.9200   20.0900 C   0  0  0  0  0  0  0  0  0  0  0  0
  -26.3860  -30.6290   21.5250 C   0  0  0  0  0  2  0  0  0  0  0  0
  -26.4790  -29.2420   20.7820 C   0  0  0  0  0  0  0  0  0  0  0  0
  -27.6030  -28.2630   20.7560 C   0  0  0  0  0  3  0  0  0  0  0  0
  -26.3780  -26.7930   19.3540 C   0  0  0  0  0  3  0  0  0  0  0  0
  -25.2940  -27.7230   19.3540 C   0  0  0  0  0  3  0  0  0  0  0  0
  -24.0920  -29.8610   20.1520 C   0  0  0  0  0  2  0  0  0  0  0  0
  -25.0650  -30.9840   22.1860 N   0  0  0  0  0  0  0  0  0  0  0  0
  -23.8260  -32.0280   23.8070 O   0  0  0  0  0  0  0  0  0  0  0  0
  -23.0650  -29.4290   22.4410 C   0  0  0  0  0  0  0  0  0  0  0  0
  -21.7370  -29.2810   22.2650 N   0  0  0  0  0  0  0  0  0  0  0  0
  -23.6970  -28.7570   23.2580 O   0  0  0  0  0  0  0  0  0  0  0  0
  -21.2780  -29.8750   21.5900 H   0  0  0  0  0  0  0  0  0  0  0  0
  -18.3360  -28.0540   22.6180 C   0  0  0  0  0  0  0  0  0  0  0  0
  -20.8910  -28.2970   22.9530 C   0  0  0  0  0  3  0  0  0  0  0  0
  -21.0020  -26.9060   22.2860 C   0  0  0  0  0  2  0  0  0  0  0  0
  -19.9230  -26.6570   21.2260 C   0  0  0  0  0  2  0  0  0  0  0  0
  -18.5270  -26.7580   21.8470 C   0  0  0  0  0  2  0  0  0  0  0  0
  -19.4450  -28.7850   23.1220 C   0  0  0  0  0  0  0  0  0  0  0  0
  -19.2090  -29.9960   23.8070 C   0  0  0  0  0  3  0  0  0  0  0  0
  -17.8990  -30.4800   23.9880 C   0  0  0  0  0  3  0  0  0  0  0  0
  -16.8050  -29.7460   23.4950 C   0  0  0  0  0  3  0  0  0  0  0  0
  -17.0240  -28.5340   22.8170 C   0  0  0  0  0  3  0  0  0  0  0  0
  -26.1760  -32.3770   24.0320 C   0  0  0  0  0  3  0  0  0  0  0  0
  -25.8390  -33.7570   24.4360 N   0  0  0  0  0  0  0  0  0  0  0  0
  -26.1590  -34.8620   23.7510 C   0  0  0  0  0  0  0  0  0  0  0  0
  -26.8270  -34.8290   22.7150 O   0  0  0  0  0  0  0  0  0  0  0  0
  -25.2440  -33.8540   25.2460 H   0  0  0  0  0  0  0  0  0  0  0  0
  -24.4000  -36.6550   23.5410 C   0  0  0  0  0  1  0  0  0  0  0  0
  -25.6650  -36.2180   24.2980 C   0  0  0  0  0  3  0  0  0  0  0  0
  -27.8030  -37.0990   25.1330 C   0  0  0  0  0  1  0  0  0  0  0  0
  -26.6810  -37.2930   24.2190 N   0  0  0  0  0  0  0  0  0  0  0  0
  -26.2630  -38.1990   24.4190 H   0  0  0  0  0  0  0  0  0  0  0  0
  -26.6290  -31.5460   25.2970 C   0  0  1  0  0  0  0  0  0  0  0  0
  -25.4880  -31.2770   26.3080 C   0  0  0  0  0  1  0  0  0  0  0  0
  -27.2150  -30.1770   24.8830 C   0  0  0  0  0  1  0  0  0  0  0  0
  -27.7580  -32.2980   26.0410 C   0  0  0  0  0  1  0  0  0  0  0  0
  1  3  2  0
  1  2  1  0
  2  4  2  0
  3  6  1  0
  4  5  1  0
  4  8  1  0
  5  9  1  0
  6 18  1  0
  6  5  2  0
  7  3  1  0
 10 16  1  0
 10 18  1  0
 11 16  1  0
 12 13  1  0
 12 11  1  0
 14 13  1  0
 14 23  1  0
 14 15  1  0
 16 15  1  0
 17 10  2  0
 18 19  1  0
 20 21  2  0
 21 40  1  0
 22 21  1  0
 22 25  1  0
 23 24  1  0
 23 20  1  0
 24 22  2  0
 25 26  1  0
 26 27  2  0
 28 31  1  0
 28 27  1  0
 29 28  2  0
 30 29  1  0
 30 25  2  0
 31 32  1  0
 32 37  2  0
 32 33  1  0
 33 34  2  0
 34 35  1  0
 35 39  1  0
 36 35  2  0
 37 36  1  0
 38 37  1  0
 40 41  1  0
 41 44  1  0
 41 43  1  0
 42 40  2  0
 45 20  1  0
 45 46  1  0
 47 45  1  0
 48  2  1  0
 48 49  1  0
 50 61  2  0
 51 49  1  0
 51 56  1  0
 52 60  1  0
 52 62  1  0
 53 59  1  0
 53 55  1  0
 54 60  1  0
 55 54  1  0
 56 55  2  0
 57 51  2  0
 58 57  1  0
 58 53  2  0
 59 52  1  0
 60 50  1  0
 62 64  2  0
 63 62  1  0
 65 63  1  0
 66 75  2  0
 66 71  1  0
 67 63  1  0
 67 71  1  0
 68 67  1  0
 69 70  1  0
 69 68  1  0
 70 66  1  0
 71 72  2  0
 72 73  1  0
 74 73  2  0
 75 74  1  0
 76 50  1  0
 76 77  1  0
 76 86  1  0
 77 80  1  0
 78 82  1  0
 78 77  1  0
 79 78  2  0
 82 81  1  0
 84 82  1  0
 84 85  1  0
 84 83  1  0
 86 89  1  1
 86 87  1  0
 88 86  1  0
M  ISO  4  10 100  18 100  48 101  49 101
M  END
>  <TORSDO>  (82) 
F 17

>  <SCORE>  (82) 
-14.813

>  <name>  (82) 
82

>  <ligand_id>  (82) 
82

>  <original_smiles>  (82) 
[H]c1c([H])c([H])c2c(c1[H])C([H])([H])C([H])([H])C([H])([H])C2([H])N([H])C(=O)C1([H])N(C(=O)C([H])(N([H])C(=O)C([H])(N([H])C([H])([H])[H])C([H])([H])[H])C(C([H])([H])[H])(C([H])([H])[H])C([H])([H])[H])C([H])([H])c2c([H])c(OC([H])([H])c3c([H])c(C([H])([H])[H])c(N([H])C(=O)N4C([H])([H])C([H])([H])C([H])([H])C([H])(n5nc(-c6c([H])c([H])c(Oc7c([H])c([H])c(F)c([H])c7F)c([H])c6[H])c(C(=O)N([H])[H])c5N([H])[H])C4([H])[H])c(C([H])([H])[H])c3C([H])([H])[H])c([H])c([H])c2C1([H])[H]

>  <smiles>  (82) 
[H]c1c([H])c([H])c2c(c1[H])C([H])([H])C([H])([H])C([H])([H])C2([H])N([H])C(=O)C1([H])N(C(=O)C([H])(N([H])C(=O)C([H])(N([H])C([H])([H])[H])C([H])([H])[H])C(C([H])([H])[H])(C([H])([H])[H])C([H])([H])[H])C([H])([H])c2c([H])c(OC([H])([H])c3c([H])c(C([H])([H])[H])c(N([H])C(=O)N4C([H])([H])C([H])([H])C([H])([H])C([H])(n5nc(-c6c([H])c([H])c(Oc7c([H])c([H])c(F)c([H])c7F)c([H])c6[H])c(C(=O)N([H])[H])c5N([H])[H])C4([H])[H])c(C([H])([H])[H])c3C([H])([H])[H])c([H])c([H])c2C1([H])[H]

$$$$
83:0:0
     RDKit          3D

 89 97  0  0  1  0  0  0  0  0999 V2000
  -30.9400  -19.5500   20.2780 C   0  0  0  0  0  3  0  0  0  0  0  0
  -31.3000  -20.9430   20.3360 C   0  0  0  0  0  0  0  0  0  0  0  0
  -30.4030  -22.0840   20.2830 C   0  0  0  0  0  0  0  0  0  0  0  0
  -28.9880  -21.9840   20.1350 C   0  0  0  0  0  0  0  0  0  0  0  0
  -28.6990  -20.3690   20.0850 C   0  0  0  0  0  0  0  0  0  0  0  0
  -29.6340  -19.0270   20.1540 C   0  0  0  0  0  0  0  0  0  0  0  0
  -32.7980  -21.1960   20.4600 C   0  0  0  0  0  1  0  0  0  0  0  0
  -30.9600  -23.5020   20.3780 C   0  0  0  0  0  1  0  0  0  0  0  0
  -27.2290  -20.0320   19.9390 C   0  0  0  0  0  1  0  0  0  0  0  0
  -30.2930  -15.8790   20.0100 C   0  0  0  0  0  0  0  0  0  0  0  0
  -30.4160  -13.3180   19.1390 C   0  0  0  0  0  2  0  0  0  0  0  0
  -29.4900  -12.8640   17.9700 C   0  0  0  0  0  2  0  0  0  0  0  0
  -28.1020  -12.4590   18.4880 C   0  0  0  0  0  2  0  0  0  0  0  0
  -27.6120  -13.4430   19.5730 C   0  0  0  0  0  3  0  0  0  0  0  0
  -28.6810  -13.7970   20.6370 C   0  0  0  0  0  2  0  0  0  0  0  0
  -29.7930  -14.4870   19.9300 N   0  0  0  0  0  0  0  0  0  0  0  0
  -31.5220  -15.8060   19.7980 O   0  0  0  0  0  0  0  0  0  0  0  0
  -29.5150  -17.2660   20.1270 N   0  0  0  0  0  0  0  0  0  0  0  0
  -28.5430  -17.0080   20.2210 H   0  0  0  0  0  0  0  0  0  0  0  0
  -25.2820  -13.9180   20.4510 C   0  0  0  0  0  0  0  0  0  0  0  0
  -24.2520  -13.1170   20.8500 C   0  0  0  0  0  0  0  0  0  0  0  0
  -24.7430  -11.7750   20.7810 C   0  0  0  0  0  0  0  0  0  0  0  0
  -26.3280  -13.0690   20.1490 N   0  0  0  0  0  0  0  0  0  0  0  0
  -26.0230  -11.7700   20.4140 N   0  0  0  0  0  0  0  0  0  0  0  0
  -24.0420  -10.4980   20.9820 C   0  0  0  0  0  0  0  0  0  0  0  0
  -24.4910   -9.5480   21.9240 C   0  0  0  0  0  3  0  0  0  0  0  0
  -23.7840   -8.3400   22.1160 C   0  0  0  0  0  3  0  0  0  0  0  0
  -22.6130   -8.0760   21.3670 C   0  0  0  0  0  0  0  0  0  0  0  0
  -22.1830   -9.0160   20.4140 C   0  0  0  0  0  3  0  0  0  0  0  0
  -22.8910  -10.2140   20.2200 C   0  0  0  0  0  3  0  0  0  0  0  0
  -21.8770   -6.9200   21.4680 O   0  0  0  0  0  0  0  0  0  0  0  0
  -21.7980   -6.2170   22.6430 C   0  0  0  0  0  0  0  0  0  0  0  0
  -21.2590   -6.7870   23.8170 C   0  0  0  0  0  3  0  0  0  0  0  0
  -21.1320   -6.0080   24.9840 C   0  0  0  0  0  3  0  0  0  0  0  0
  -21.5340   -4.6580   24.9780 C   0  0  0  0  0  0  0  0  0  0  0  0
  -22.0660   -4.0880   23.8080 C   0  0  0  0  0  3  0  0  0  0  0  0
  -22.1940   -4.8640   22.6440 C   0  0  0  0  0  0  0  0  0  0  0  0
  -22.6880   -4.3030   21.5140 F   0  0  0  0  0  0  0  0  0  0  0  0
  -21.4050   -3.9070   26.0960 F   0  0  0  0  0  0  0  0  0  0  0  0
  -22.8580  -13.5670   21.1760 C   0  0  0  0  0  0  0  0  0  0  0  0
  -22.1800  -12.8610   22.0720 N   0  0  0  0  0  0  0  0  0  0  0  0
  -22.3830  -14.5830   20.6710 O   0  0  0  0  0  0  0  0  0  0  0  0
  -22.5800  -12.0390   22.5010 H   0  0  0  0  0  0  0  0  0  0  0  0
  -21.2470  -13.1460   22.3340 H   0  0  0  0  0  0  0  0  0  0  0  0
  -25.4100  -15.2940   20.2830 N   0  0  0  0  0  0  0  0  0  0  0  0
  -24.6330  -15.9280   20.4330 H   0  0  0  0  0  0  0  0  0  0  0  0
  -26.2240  -15.7500   19.8950 H   0  0  0  0  0  0  0  0  0  0  0  0
  -28.0160  -23.6390   20.0220 C   0  0  0  0  0  2  0  0  0  0  0  0
  -28.2290  -25.4330   20.1710 O   0  0  0  0  0  0  0  0  0  0  0  0
  -24.7200  -31.8010   23.1930 C   0  0  0  0  0  0  0  0  0  0  0  0
  -27.2740  -26.6960   20.1410 C   0  0  0  0  0  0  0  0  0  0  0  0
  -23.5540  -30.4350   21.5170 C   0  0  0  0  0  3  0  0  0  0  0  0
  -25.0180  -28.7950   20.0950 C   0  0  0  0  0  0  0  0  0  0  0  0
  -26.1380  -30.5500   21.4370 C   0  0  0  0  0  2  0  0  0  0  0  0
  -26.2080  -29.1190   20.7540 C   0  0  0  0  0  0  0  0  0  0  0  0
  -27.3170  -28.1030   20.7410 C   0  0  0  0  0  3  0  0  0  0  0  0
  -26.0450  -26.6090   19.4310 C   0  0  0  0  0  3  0  0  0  0  0  0
  -24.9810  -27.5680   19.4090 C   0  0  0  0  0  3  0  0  0  0  0  0
  -23.8140  -29.7570   20.1390 C   0  0  0  0  0  2  0  0  0  0  0  0
  -24.8280  -30.9630   22.1020 N   0  0  0  0  0  0  0  0  0  0  0  0
  -23.6190  -32.0950   23.6910 O   0  0  0  0  0  0  0  0  0  0  0  0
  -22.8160  -29.4470   22.4620 C   0  0  0  0  0  0  0  0  0  0  0  0
  -21.4830  -29.3100   22.3270 N   0  0  0  0  0  0  0  0  0  0  0  0
  -23.4580  -28.8010   23.2940 O   0  0  0  0  0  0  0  0  0  0  0  0
  -21.0120  -29.8790   21.6380 H   0  0  0  0  0  0  0  0  0  0  0  0
  -18.0730  -28.1580   22.8490 C   0  0  0  0  0  0  0  0  0  0  0  0
  -20.6440  -28.3620   23.0740 C   0  0  0  0  0  3  0  0  0  0  0  0
  -20.7010  -26.9520   22.4390 C   0  0  0  0  0  2  0  0  0  0  0  0
  -19.5760  -26.6970   21.4310 C   0  0  0  0  0  2  0  0  0  0  0  0
  -18.2100  -26.8390   22.1050 C   0  0  0  0  0  2  0  0  0  0  0  0
  -19.2150  -28.8810   23.2890 C   0  0  0  0  0  0  0  0  0  0  0  0
  -19.0280  -30.1130   23.9510 C   0  0  0  0  0  3  0  0  0  0  0  0
  -17.7340  -30.6250   24.1710 C   0  0  0  0  0  3  0  0  0  0  0  0
  -16.6090  -29.9000   23.7420 C   0  0  0  0  0  3  0  0  0  0  0  0
  -16.7800  -28.6670   23.0880 C   0  0  0  0  0  3  0  0  0  0  0  0
  -25.9710  -32.4430   23.8660 C   0  0  0  0  0  3  0  0  0  0  0  0
  -25.6530  -33.8470   24.1960 N   0  0  0  0  0  0  0  0  0  0  0  0
  -25.9720  -34.9110   23.4460 C   0  0  0  0  0  0  0  0  0  0  0  0
  -26.6210  -34.8130   22.4010 O   0  0  0  0  0  0  0  0  0  0  0  0
  -25.0720  -33.9950   25.0080 H   0  0  0  0  0  0  0  0  0  0  0  0
  -24.2260  -36.7090   23.1700 C   0  0  0  0  0  1  0  0  0  0  0  0
  -25.5030  -36.3020   23.9240 C   0  0  0  0  0  3  0  0  0  0  0  0
  -27.6610  -37.2120   24.6710 C   0  0  0  0  0  1  0  0  0  0  0  0
  -26.5270  -37.3600   23.7640 N   0  0  0  0  0  0  0  0  0  0  0  0
  -26.1210  -38.2800   23.9120 H   0  0  0  0  0  0  0  0  0  0  0  0
  -26.4270  -31.6810   25.1720 C   0  0  1  0  0  0  0  0  0  0  0  0
  -25.2920  -31.4690   26.2030 C   0  0  0  0  0  1  0  0  0  0  0  0
  -27.0090  -30.2920   24.8330 C   0  0  0  0  0  1  0  0  0  0  0  0
  -27.5610  -32.4700   25.8700 C   0  0  0  0  0  1  0  0  0  0  0  0
  1  2  1  0
  2  7  1  0
  3  2  2  0
  3  8  1  0
  4  3  1  0
  5  4  2  0
  5  6  1  0
  6  1  2  0
  9  5  1  0
 10 18  1  0
 11 16  1  0
 12 13  1  0
 12 11  1  0
 14 13  1  0
 14 23  1  0
 14 15  1  0
 16 10  1  0
 16 15  1  0
 17 10  2  0
 18  6  1  0
 18 19  1  0
 20 21  2  0
 21 40  1  0
 22 21  1  0
 22 25  1  0
 23 24  1  0
 23 20  1  0
 24 22  2  0
 25 26  1  0
 26 27  2  0
 28 31  1  0
 28 27  1  0
 29 28  2  0
 30 29  1  0
 30 25  2  0
 31 32  1  0
 32 37  2  0
 32 33  1  0
 33 34  2  0
 35 34  1  0
 35 39  1  0
 36 35  2  0
 37 36  1  0
 38 37  1  0
 40 41  1  0
 41 44  1  0
 41 43  1  0
 42 40  2  0
 45 46  1  0
 45 20  1  0
 47 45  1  0
 48  4  1  0
 48 49  1  0
 50 61  2  0
 51 49  1  0
 51 56  1  0
 52 60  1  0
 52 62  1  0
 53 59  1  0
 53 55  1  0
 54 60  1  0
 55 54  1  0
 56 55  2  0
 57 51  2  0
 58 57  1  0
 58 53  2  0
 59 52  1  0
 60 50  1  0
 62 64  2  0
 63 62  1  0
 65 63  1  0
 66 75  2  0
 66 71  1  0
 67 63  1  0
 67 71  1  0
 68 67  1  0
 69 70  1  0
 69 68  1  0
 70 66  1  0
 71 72  2  0
 72 73  1  0
 74 73  2  0
 75 74  1  0
 76 50  1  0
 76 77  1  0
 76 86  1  0
 77 80  1  0
 78 82  1  0
 78 77  1  0
 79 78  2  0
 82 81  1  0
 84 85  1  0
 84 82  1  0
 84 83  1  0
 86 89  1  1
 86 87  1  0
 88 86  1  0
M  ISO  4  10 100  18 100  48 101  49 101
M  END
>  <TORSDO>  (83) 
F 17

>  <SCORE>  (83) 
-16.255

>  <name>  (83) 
83

>  <ligand_id>  (83) 
83

>  <original_smiles>  (83) 
[H]c1c([H])c([H])c2c(c1[H])C([H])([H])C([H])([H])C([H])([H])C2([H])N([H])C(=O)C1([H])N(C(=O)C([H])(N([H])C(=O)C([H])(N([H])C([H])([H])[H])C([H])([H])[H])C(C([H])([H])[H])(C([H])([H])[H])C([H])([H])[H])C([H])([H])c2c([H])c(OC([H])([H])c3c(C([H])([H])[H])c(N([H])C(=O)N4C([H])([H])C([H])([H])C([H])([H])C([H])(n5nc(-c6c([H])c([H])c(Oc7c([H])c([H])c(F)c([H])c7F)c([H])c6[H])c(C(=O)N([H])[H])c5N([H])[H])C4([H])[H])c([H])c(C([H])([H])[H])c3C([H])([H])[H])c([H])c([H])c2C1([H])[H]

>  <smiles>  (83) 
[H]c1c([H])c([H])c2c(c1[H])C([H])([H])C([H])([H])C([H])([H])C2([H])N([H])C(=O)C1([H])N(C(=O)C([H])(N([H])C(=O)C([H])(N([H])C([H])([H])[H])C([H])([H])[H])C(C([H])([H])[H])(C([H])([H])[H])C([H])([H])[H])C([H])([H])c2c([H])c(OC([H])([H])c3c(C([H])([H])[H])c(N([H])C(=O)N4C([H])([H])C([H])([H])C([H])([H])C([H])(n5nc(-c6c([H])c([H])c(Oc7c([H])c([H])c(F)c([H])c7F)c([H])c6[H])c(C(=O)N([H])[H])c5N([H])[H])C4([H])[H])c([H])c(C([H])([H])[H])c3C([H])([H])[H])c([H])c([H])c2C1([H])[H]

$$$$
84:0:0
     RDKit          3D

 92100  0  0  1  0  0  0  0  0999 V2000
  -30.3490  -19.8530   18.3250 C   0  0  0  0  0  3  0  0  0  0  0  0
  -29.7740  -20.7070   19.3240 C   0  0  0  0  0  0  0  0  0  0  0  0
  -29.5870  -20.0250   20.5730 C   0  0  0  0  0  0  0  0  0  0  0  0
  -29.9320  -18.6230   20.7790 C   0  0  0  0  0  0  0  0  0  0  0  0
  -30.4860  -17.7690   19.7550 C   0  0  0  0  0  0  0  0  0  0  0  0
  -30.6920  -18.4460   18.5080 C   0  0  0  0  0  0  0  0  0  0  0  0
  -28.9010  -20.8050   21.6950 C   0  0  0  0  0  1  0  0  0  0  0  0
  -29.6420  -18.0100   22.1490 C   0  0  0  0  0  1  0  0  0  0  0  0
  -31.4870  -15.2130   19.6820 C   0  0  0  0  0  0  0  0  0  0  0  0
  -31.3980  -12.8130   18.9050 C   0  0  0  0  0  2  0  0  0  0  0  0
  -30.3930  -12.7160   17.7330 C   0  0  0  0  0  2  0  0  0  0  0  0
  -28.9500  -12.5480   18.2510 C   0  0  0  0  0  2  0  0  0  0  0  0
  -28.6150  -13.5380   19.3960 C   0  0  0  0  0  3  0  0  0  0  0  0
  -29.7240  -13.5580   20.4690 C   0  0  0  0  0  2  0  0  0  0  0  0
  -30.9710  -13.9320   19.7860 N   0  0  0  0  0  0  0  0  0  0  0  0
  -32.6370  -15.3540   19.2440 O   0  0  0  0  0  0  0  0  0  0  0  0
  -30.6260  -16.2770   19.9940 N   0  0  0  0  0  0  0  0  0  0  0  0
  -29.8320  -15.9130   20.4990 H   0  0  0  0  0  0  0  0  0  0  0  0
  -26.3210  -14.1960   20.3330 C   0  0  0  0  0  0  0  0  0  0  0  0
  -25.2510  -13.4520   20.7470 C   0  0  0  0  0  0  0  0  0  0  0  0
  -25.6490  -12.0840   20.6180 C   0  0  0  0  0  0  0  0  0  0  0  0
  -27.3010  -13.2840   19.9730 N   0  0  0  0  0  0  0  0  0  0  0  0
  -26.9070  -12.0070   20.2070 N   0  0  0  0  0  0  0  0  0  0  0  0
  -24.8810  -10.8470   20.8060 C   0  0  0  0  0  0  0  0  0  0  0  0
  -25.2340   -9.9010   21.7930 C   0  0  0  0  0  3  0  0  0  0  0  0
  -24.4690   -8.7280   21.9670 C   0  0  0  0  0  3  0  0  0  0  0  0
  -23.3360   -8.4940   21.1520 C   0  0  0  0  0  0  0  0  0  0  0  0
  -23.0020   -9.4270   20.1540 C   0  0  0  0  0  3  0  0  0  0  0  0
  -23.7680  -10.5910   19.9800 C   0  0  0  0  0  3  0  0  0  0  0  0
  -22.5500   -7.3690   21.2310 O   0  0  0  0  0  0  0  0  0  0  0  0
  -22.2420   -6.7890   22.4350 C   0  0  0  0  0  0  0  0  0  0  0  0
  -21.5490   -7.4900   23.4450 C   0  0  0  0  0  3  0  0  0  0  0  0
  -21.1940   -6.8340   24.6400 C   0  0  0  0  0  3  0  0  0  0  0  0
  -21.5210   -5.4780   24.8250 C   0  0  0  0  0  0  0  0  0  0  0  0
  -22.2060   -4.7760   23.8160 C   0  0  0  0  0  3  0  0  0  0  0  0
  -22.5630   -5.4300   22.6240 C   0  0  0  0  0  0  0  0  0  0  0  0
  -23.2050   -4.7420   21.6490 F   0  0  0  0  0  0  0  0  0  0  0  0
  -21.1730   -4.8440   25.9680 F   0  0  0  0  0  0  0  0  0  0  0  0
  -23.9030  -13.9750   21.1470 C   0  0  0  0  0  0  0  0  0  0  0  0
  -23.2160  -13.2770   22.0430 N   0  0  0  0  0  0  0  0  0  0  0  0
  -23.4700  -15.0370   20.6990 O   0  0  0  0  0  0  0  0  0  0  0  0
  -23.5800  -12.4170   22.4280 H   0  0  0  0  0  0  0  0  0  0  0  0
  -22.3130  -13.6090   22.3510 H   0  0  0  0  0  0  0  0  0  0  0  0
  -26.5360  -15.5660   20.2070 N   0  0  0  0  0  0  0  0  0  0  0  0
  -25.8040  -16.2400   20.4030 H   0  0  0  0  0  0  0  0  0  0  0  0
  -27.3570  -15.9890   19.7940 H   0  0  0  0  0  0  0  0  0  0  0  0
  -31.4500  -18.2680   16.2270 C   0  0  0  0  0  1  0  0  0  0  0  0
  -31.1660  -17.6580   17.4790 O   0  0  0  0  0  0  0  0  0  0  0  0
  -29.1070  -22.1670   18.9720 C   0  0  0  0  0  2  0  0  0  0  0  0
  -29.6160  -23.6960   19.3570 C   0  0  0  0  0  3  0  0  0  0  0  0
  -28.6200  -25.0030   19.0900 C   0  0  0  0  0  3  0  0  0  0  0  0
  -28.7780  -26.4630   19.5540 O   0  0  0  0  0  0  0  0  0  0  0  0
  -24.6100  -31.3760   23.0570 C   0  0  0  0  0  0  0  0  0  0  0  0
  -27.6440  -27.3410   19.5600 C   0  0  0  0  0  0  0  0  0  0  0  0
  -23.5600  -30.0640   21.2500 C   0  0  0  0  0  3  0  0  0  0  0  0
  -25.1630  -28.8270   19.6750 C   0  0  0  0  0  0  0  0  0  0  0  0
  -26.0730  -30.6000   21.1640 C   0  0  0  0  0  2  0  0  0  0  0  0
  -26.2840  -29.3110   20.3610 C   0  0  0  0  0  0  0  0  0  0  0  0
  -27.5250  -28.5810   20.2960 C   0  0  0  0  0  3  0  0  0  0  0  0
  -26.4980  -26.9690   18.8250 C   0  0  0  0  0  3  0  0  0  0  0  0
  -25.2820  -27.6740   18.8900 C   0  0  0  0  0  3  0  0  0  0  0  0
  -23.8520  -29.5810   19.8050 C   0  0  0  0  0  2  0  0  0  0  0  0
  -24.7630  -30.6970   21.8800 N   0  0  0  0  0  0  0  0  0  0  0  0
  -23.4970  -31.4930   23.5940 O   0  0  0  0  0  0  0  0  0  0  0  0
  -22.9810  -28.8920   22.0810 C   0  0  0  0  0  0  0  0  0  0  0  0
  -21.6830  -28.5890   21.8950 N   0  0  0  0  0  0  0  0  0  0  0  0
  -23.7000  -28.2620   22.8620 O   0  0  0  0  0  0  0  0  0  0  0  0
  -21.1500  -29.1610   21.2550 H   0  0  0  0  0  0  0  0  0  0  0  0
  -18.4480  -26.9840   22.1550 C   0  0  0  0  0  0  0  0  0  0  0  0
  -20.9550  -27.4950   22.5410 C   0  0  0  0  0  3  0  0  0  0  0  0
  -21.2310  -26.1480   21.8330 C   0  0  0  0  0  2  0  0  0  0  0  0
  -20.1980  -25.8110   20.7540 C   0  0  0  0  0  2  0  0  0  0  0  0
  -18.7920  -25.7390   21.3560 C   0  0  0  0  0  2  0  0  0  0  0  0
  -19.4620  -27.8160   22.6980 C   0  0  0  0  0  0  0  0  0  0  0  0
  -19.0860  -28.9800   23.4040 C   0  0  0  0  0  3  0  0  0  0  0  0
  -17.7290  -29.3140   23.5700 C   0  0  0  0  0  3  0  0  0  0  0  0
  -16.7300  -28.4780   23.0430 C   0  0  0  0  0  3  0  0  0  0  0  0
  -17.0900  -27.3140   22.3400 C   0  0  0  0  0  3  0  0  0  0  0  0
  -25.8180  -32.0550   23.7710 C   0  0  0  0  0  3  0  0  0  0  0  0
  -26.2740  -31.2940   25.0770 C   0  0  1  0  0  0  0  0  0  0  0  0
  -25.1200  -31.0100   26.0670 C   0  0  0  0  0  1  0  0  0  0  0  0
  -26.9350  -29.9400   24.7240 C   0  0  0  0  0  1  0  0  0  0  0  0
  -27.3430  -32.1260   25.8210 C   0  0  0  0  0  1  0  0  0  0  0  0
  -25.4280  -33.4360   24.0930 N   0  0  0  0  0  0  0  0  0  0  0  0
  -25.7160  -34.5060   23.3420 C   0  0  0  0  0  0  0  0  0  0  0  0
  -26.4060  -34.4410   22.3220 O   0  0  0  0  0  0  0  0  0  0  0  0
  -24.8120  -33.5610   24.8830 H   0  0  0  0  0  0  0  0  0  0  0  0
  -23.8900  -36.2020   22.9820 C   0  0  0  0  0  1  0  0  0  0  0  0
  -25.1490  -35.8660   23.7950 C   0  0  0  0  0  3  0  0  0  0  0  0
  -27.2240  -36.8790   24.6320 C   0  0  0  0  0  1  0  0  0  0  0  0
  -26.1180  -36.9790   23.6850 N   0  0  0  0  0  0  0  0  0  0  0  0
  -25.6540  -37.8700   23.8320 H   0  0  0  0  0  0  0  0  0  0  0  0
  1  6  2  0
  1  2  1  0
  2  3  2  0
  3  4  1  0
  3  7  1  0
  4  8  1  0
  5 17  1  0
  5  4  2  0
  6  5  1  0
  9 15  1  0
  9 17  1  0
 10 15  1  0
 11 12  1  0
 11 10  1  0
 13 12  1  0
 13 22  1  0
 13 14  1  0
 15 14  1  0
 16  9  2  0
 17 18  1  0
 19 20  2  0
 20 39  1  0
 21 20  1  0
 21 24  1  0
 22 23  1  0
 22 19  1  0
 23 21  2  0
 24 25  1  0
 25 26  2  0
 27 30  1  0
 27 26  1  0
 28 27  2  0
 29 28  1  0
 29 24  2  0
 30 31  1  0
 31 36  2  0
 31 32  1  0
 32 33  2  0
 33 34  1  0
 34 38  1  0
 35 34  2  0
 36 35  1  0
 37 36  1  0
 39 40  1  0
 40 43  1  0
 40 42  1  0
 41 39  2  0
 44 19  1  0
 44 45  1  0
 46 44  1  0
 47 48  1  0
 48  6  1  0
 49  2  1  0
 49 50  1  0
 51 50  2  0
 51 52  1  0
 52 54  1  0
 53 64  2  0
 54 59  1  0
 55 63  1  0
 55 65  1  0
 56 62  1  0
 56 58  1  0
 57 63  1  0
 58 57  1  0
 59 58  2  0
 60 61  1  0
 60 54  2  0
 61 56  2  0
 62 55  1  0
 63 53  1  0
 65 67  2  0
 66 65  1  0
 68 66  1  0
 69 78  2  0
 69 74  1  0
 70 66  1  0
 70 74  1  0
 71 70  1  0
 72 73  1  0
 72 71  1  0
 73 69  1  0
 74 75  2  0
 75 76  1  0
 77 76  2  0
 78 77  1  0
 79 53  1  0
 79 84  1  0
 79 80  1  0
 80 83  1  1
 80 81  1  0
 82 80  1  0
 84 87  1  0
 85 89  1  0
 85 84  1  0
 86 85  2  0
 89 88  1  0
 91 89  1  0
 91 92  1  0
 91 90  1  0
M  ISO  4   9 100  17 100  51 101  52 101
M  END
>  <TORSDO>  (84) 
F 20

>  <SCORE>  (84) 
-10.249

>  <name>  (84) 
84

>  <ligand_id>  (84) 
84

>  <original_smiles>  (84) 
[H]c1c([H])c([H])c2c(c1[H])C([H])([H])C([H])([H])C([H])([H])C2([H])N([H])C(=O)C1([H])N(C(=O)C([H])(N([H])C(=O)C([H])(N([H])C([H])([H])[H])C([H])([H])[H])C(C([H])([H])[H])(C([H])([H])[H])C([H])([H])[H])C([H])([H])c2c([H])c(OC([H])([H])C([H])([H])C([H])([H])c3c([H])c(OC([H])([H])[H])c(N([H])C(=O)N4C([H])([H])C([H])([H])C([H])([H])C([H])(n5nc(-c6c([H])c([H])c(Oc7c([H])c([H])c(F)c([H])c7F)c([H])c6[H])c(C(=O)N([H])[H])c5N([H])[H])C4([H])[H])c(C([H])([H])[H])c3C([H])([H])[H])c([H])c([H])c2C1([H])[H]

>  <smiles>  (84) 
[H]c1c([H])c([H])c2c(c1[H])C([H])([H])C([H])([H])C([H])([H])C2([H])N([H])C(=O)C1([H])N(C(=O)C([H])(N([H])C(=O)C([H])(N([H])C([H])([H])[H])C([H])([H])[H])C(C([H])([H])[H])(C([H])([H])[H])C([H])([H])[H])C([H])([H])c2c([H])c(OC([H])([H])C([H])([H])C([H])([H])c3c([H])c(OC([H])([H])[H])c(N([H])C(=O)N4C([H])([H])C([H])([H])C([H])([H])C([H])(n5nc(-c6c([H])c([H])c(Oc7c([H])c([H])c(F)c([H])c7F)c([H])c6[H])c(C(=O)N([H])[H])c5N([H])[H])C4([H])[H])c(C([H])([H])[H])c3C([H])([H])[H])c([H])c([H])c2C1([H])[H]

$$$$
85:0:0
     RDKit          3D

 97105  0  0  1  0  0  0  0  0999 V2000
  -29.4360  -20.0730   19.7700 C   0  0  0  0  0  0  0  0  0  0  0  0
  -29.1290  -21.4630   20.2570 C   0  0  0  0  0  0  0  0  0  0  0  0
  -29.4180  -19.9680   18.3510 C   0  0  0  0  0  0  0  0  0  0  0  0
  -29.4160  -22.4440   18.0440 C   0  0  0  0  0  0  0  0  0  0  0  0
  -29.0450  -22.6910   19.4090 C   0  0  0  0  0  0  0  0  0  0  0  0
  -29.5320  -21.1160   17.5030 C   0  0  0  0  0  0  0  0  0  0  0  0
  -28.7710  -21.6510   21.7210 C   0  0  0  0  0  1  0  0  0  0  0  0
  -29.0620  -18.6080   17.7520 C   0  0  0  0  0  1  0  0  0  0  0  0
  -28.5060  -25.4640   19.7180 C   0  0  0  0  0  0  0  0  0  0  0  0
  -26.9340  -27.4420   20.1040 C   0  0  0  0  0  2  0  0  0  0  0  0
  -25.6120  -26.9680   20.7630 C   0  0  0  0  0  2  0  0  0  0  0  0
  -24.6080  -26.4310   19.7200 C   0  0  0  0  0  2  0  0  0  0  0  0
  -25.2840  -25.4970   18.6880 C   0  0  0  0  0  3  0  0  0  0  0  0
  -26.5690  -26.1430   18.1490 C   0  0  0  0  0  2  0  0  0  0  0  0
  -27.4640  -26.3030   19.3040 N   0  0  0  0  0  0  0  0  0  0  0  0
  -29.3900  -25.9820   20.4130 O   0  0  0  0  0  0  0  0  0  0  0  0
  -28.3070  -24.0410   19.6760 N   0  0  0  0  0  0  0  0  0  0  0  0
  -27.3460  -23.9250   19.4020 H   0  0  0  0  0  0  0  0  0  0  0  0
  -24.0290  -23.8040   17.2360 C   0  0  0  0  0  0  0  0  0  0  0  0
  -23.0900  -23.9560   16.2500 C   0  0  0  0  0  0  0  0  0  0  0  0
  -22.9380  -25.3630   16.0660 C   0  0  0  0  0  0  0  0  0  0  0  0
  -24.3850  -25.0880   17.6160 N   0  0  0  0  0  0  0  0  0  0  0  0
  -23.7740  -26.0300   16.8530 N   0  0  0  0  0  0  0  0  0  0  0  0
  -22.0000  -26.1180   15.2280 C   0  0  0  0  0  0  0  0  0  0  0  0
  -22.4030  -26.7020   14.0070 C   0  0  0  0  0  3  0  0  0  0  0  0
  -21.4730  -27.4070   13.2140 C   0  0  0  0  0  3  0  0  0  0  0  0
  -20.1250  -27.5240   13.6330 C   0  0  0  0  0  0  0  0  0  0  0  0
  -19.7360  -26.9620   14.8620 C   0  0  0  0  0  3  0  0  0  0  0  0
  -20.6660  -26.2660   15.6550 C   0  0  0  0  0  3  0  0  0  0  0  0
  -19.1600  -28.2140   12.9360 O   0  0  0  0  0  0  0  0  0  0  0  0
  -19.0230  -28.0880   11.5760 C   0  0  0  0  0  0  0  0  0  0  0  0
  -18.3640  -26.9840   10.9960 C   0  0  0  0  0  3  0  0  0  0  0  0
  -18.1790  -26.9280    9.6000 C   0  0  0  0  0  3  0  0  0  0  0  0
  -18.6460  -27.9800    8.7860 C   0  0  0  0  0  0  0  0  0  0  0  0
  -19.2950  -29.0840    9.3630 C   0  0  0  0  0  3  0  0  0  0  0  0
  -19.4790  -29.1390   10.7560 C   0  0  0  0  0  0  0  0  0  0  0  0
  -20.0860  -30.2170   11.3100 F   0  0  0  0  0  0  0  0  0  0  0  0
  -18.4660  -27.9330    7.4450 F   0  0  0  0  0  0  0  0  0  0  0  0
  -22.3120  -22.8570   15.5870 C   0  0  0  0  0  0  0  0  0  0  0  0
  -22.0930  -22.9590   14.2790 N   0  0  0  0  0  0  0  0  0  0  0  0
  -21.9350  -21.8700   16.2160 O   0  0  0  0  0  0  0  0  0  0  0  0
  -22.4060  -23.7610   13.7510 H   0  0  0  0  0  0  0  0  0  0  0  0
  -21.5910  -22.2230   13.8010 H   0  0  0  0  0  0  0  0  0  0  0  0
  -24.5820  -22.6870   17.8500 N   0  0  0  0  0  0  0  0  0  0  0  0
  -24.3430  -21.7410   17.5680 H   0  0  0  0  0  0  0  0  0  0  0  0
  -25.2650  -22.7100   18.5940 H   0  0  0  0  0  0  0  0  0  0  0  0
  -31.0380  -24.2440   17.2120 C   0  0  0  0  0  1  0  0  0  0  0  0
  -29.6330  -23.6360   17.0960 C   0  0  0  0  0  2  0  0  0  0  0  0
  -29.6470  -21.0440   16.0870 N   0  0  0  0  0  0  0  0  0  0  0  0
  -29.0520  -21.6980   15.5900 H   0  0  0  0  0  0  0  0  0  0  0  0
  -32.0160  -21.2300   15.3830 C   0  0  0  0  0  1  0  0  0  0  0  0
  -30.2130  -20.3760   13.7860 C   0  0  0  0  0  1  0  0  0  0  0  0
  -30.6950  -20.4690   15.2430 C   0  0  0  0  0  3  0  0  0  0  0  0
  -29.5470  -18.6420   20.6350 C   0  0  0  0  0  2  0  0  0  0  0  0
  -30.8720  -17.5620   20.7760 C   0  0  0  0  0  2  0  0  0  0  0  0
  -30.8530  -15.8700   20.6040 C   0  0  0  0  0  2  0  0  0  0  0  0
  -31.8590  -14.7910   21.1500 O   0  0  0  0  0  0  0  0  0  0  0  0
  -37.0810   -9.5900   20.6630 C   0  0  0  0  0  0  0  0  0  0  0  0
  -32.5510  -13.7870   20.3640 C   0  0  0  0  0  0  0  0  0  0  0  0
  -36.3570  -10.6780   18.5720 C   0  0  0  0  0  3  0  0  0  0  0  0
  -34.1670  -12.0160   18.6980 C   0  0  0  0  0  0  0  0  0  0  0  0
  -34.7100  -10.4310   20.5360 C   0  0  0  0  0  2  0  0  0  0  0  0
  -33.9790  -11.6980   20.0510 C   0  0  0  0  0  0  0  0  0  0  0  0
  -33.1640  -12.5670   20.8760 C   0  0  0  0  0  3  0  0  0  0  0  0
  -32.7240  -13.9780   18.9720 C   0  0  0  0  0  3  0  0  0  0  0  0
  -33.5210  -13.1400   18.1650 C   0  0  0  0  0  3  0  0  0  0  0  0
  -35.0590  -11.1200   17.8510 C   0  0  0  0  0  2  0  0  0  0  0  0
  -36.0810  -10.2200   19.9740 N   0  0  0  0  0  0  0  0  0  0  0  0
  -38.1900   -9.3810   20.1480 O   0  0  0  0  0  0  0  0  0  0  0  0
  -37.4000  -11.8210   18.4960 C   0  0  0  0  0  0  0  0  0  0  0  0
  -38.1410  -11.9020   17.3740 N   0  0  0  0  0  0  0  0  0  0  0  0
  -37.5160  -12.6230   19.4260 O   0  0  0  0  0  0  0  0  0  0  0  0
  -38.0000  -11.2030   16.6570 H   0  0  0  0  0  0  0  0  0  0  0  0
  -40.7820  -12.8310   15.0830 C   0  0  0  0  0  0  0  0  0  0  0  0
  -39.1440  -12.9260   17.0810 C   0  0  0  0  0  3  0  0  0  0  0  0
  -38.5060  -14.1400   16.3660 C   0  0  0  0  0  2  0  0  0  0  0  0
  -38.5740  -14.0470   14.8390 C   0  0  0  0  0  2  0  0  0  0  0  0
  -40.0290  -13.9430   14.3720 C   0  0  0  0  0  2  0  0  0  0  0  0
  -40.3580  -12.3420   16.3470 C   0  0  0  0  0  0  0  0  0  0  0  0
  -41.0740  -11.2860   16.9490 C   0  0  0  0  0  3  0  0  0  0  0  0
  -42.1940  -10.7170   16.3110 C   0  0  0  0  0  3  0  0  0  0  0  0
  -42.6210  -11.2160   15.0680 C   0  0  0  0  0  3  0  0  0  0  0  0
  -41.9200  -12.2730   14.4610 C   0  0  0  0  0  3  0  0  0  0  0  0
  -36.8710   -9.0850   22.1250 C   0  0  0  0  0  3  0  0  0  0  0  0
  -37.4270   -7.7260   22.2110 N   0  0  0  0  0  0  0  0  0  0  0  0
  -36.7110   -6.5990   22.1090 C   0  0  0  0  0  0  0  0  0  0  0  0
  -35.4820   -6.5960   21.9930 O   0  0  0  0  0  0  0  0  0  0  0  0
  -38.4320   -7.6510   22.2570 H   0  0  0  0  0  0  0  0  0  0  0  0
  -37.5310   -4.6610   20.7310 C   0  0  0  0  0  1  0  0  0  0  0  0
  -37.4780   -5.2620   22.1450 C   0  0  0  0  0  3  0  0  0  0  0  0
  -37.2390   -4.5390   24.4810 C   0  0  0  0  0  1  0  0  0  0  0  0
  -36.9020   -4.2740   23.0840 N   0  0  0  0  0  0  0  0  0  0  0  0
  -37.2200   -3.3350   22.8560 H   0  0  0  0  0  0  0  0  0  0  0  0
  -37.5370  -10.0210   23.2060 C   0  0  1  0  0  0  0  0  0  0  0  0
  -38.9950  -10.4090   22.8700 C   0  0  0  0  0  1  0  0  0  0  0  0
  -36.7340  -11.3320   23.3720 C   0  0  0  0  0  1  0  0  0  0  0  0
  -37.5300   -9.3230   24.5840 C   0  0  0  0  0  1  0  0  0  0  0  0
  1  2  1  0
  1 54  1  0
  2  7  1  0
  3  1  2  0
  4  5  1  0
  5 17  1  0
  5  2  2  0
  6  4  2  0
  6  3  1  0
  8  3  1  0
  9 16  2  0
 10 11  1  0
 12 11  1  0
 13 22  1  0
 13 12  1  0
 14 13  1  0
 14 15  1  0
 15  9  1  0
 15 10  1  0
 17  9  1  0
 18 17  1  0
 19 22  1  0
 19 44  1  0
 20 19  2  0
 21 20  1  0
 21 23  2  0
 23 22  1  0
 24 29  1  0
 24 21  1  0
 25 24  2  0
 26 27  2  0
 26 25  1  0
 27 28  1  0
 28 29  2  0
 30 27  1  0
 31 30  1  0
 32 31  1  0
 33 32  2  0
 34 35  2  0
 34 33  1  0
 35 36  1  0
 36 37  1  0
 36 31  2  0
 38 34  1  0
 39 41  2  0
 39 20  1  0
 40 39  1  0
 42 40  1  0
 43 40  1  0
 44 46  1  0
 45 44  1  0
 48 47  1  0
 48  4  1  0
 49  6  1  0
 50 49  1  0
 52 53  1  0
 53 51  1  0
 53 49  1  0
 54 55  1  0
 56 55  1  0
 56 57  1  0
 59 64  1  0
 59 57  1  0
 60 70  1  0
 60 68  1  0
 61 63  1  0
 63 62  1  0
 63 64  2  0
 65 59  2  0
 66 61  2  0
 66 65  1  0
 67 60  1  0
 67 61  1  0
 68 62  1  0
 68 58  1  0
 69 58  2  0
 70 72  2  0
 71 70  1  0
 73 71  1  0
 74 79  1  0
 75 71  1  0
 76 75  1  0
 77 76  1  0
 78 77  1  0
 78 74  1  0
 79 80  2  0
 79 75  1  0
 81 80  1  0
 82 81  2  0
 83 82  1  0
 83 74  2  0
 84 58  1  0
 84 85  1  0
 84 94  1  0
 85 88  1  0
 86 90  1  0
 86 85  1  0
 87 86  2  0
 90 89  1  0
 90 92  1  0
 92 91  1  0
 93 92  1  0
 94 96  1  1
 94 97  1  0
 95 94  1  0
M  ISO  4   9 100  17 100  56 101  57 101
M  END
>  <TORSDO>  (85) 
F 22

>  <SCORE>  (85) 
-6.216

>  <name>  (85) 
85

>  <ligand_id>  (85) 
85

>  <original_smiles>  (85) 
[H]c1c([H])c([H])c2c(c1[H])C([H])([H])C([H])([H])C([H])([H])C2([H])N([H])C(=O)C1([H])N(C(=O)C([H])(N([H])C(=O)C([H])(N([H])C([H])([H])[H])C([H])([H])[H])C(C([H])([H])[H])(C([H])([H])[H])C([H])([H])[H])C([H])([H])c2c([H])c(OC([H])([H])C([H])([H])C([H])([H])c3c(C([H])([H])[H])c(N([H])C(=O)N4C([H])([H])C([H])([H])C([H])([H])C([H])(n5nc(-c6c([H])c([H])c(Oc7c([H])c([H])c(F)c([H])c7F)c([H])c6[H])c(C(=O)N([H])[H])c5N([H])[H])C4([H])[H])c(C([H])([H])C([H])([H])[H])c(N([H])C([H])(C([H])([H])[H])C([H])([H])[H])c3C([H])([H])[H])c([H])c([H])c2C1([H])[H]

>  <smiles>  (85) 
[H]c1c([H])c([H])c2c(c1[H])C([H])([H])C([H])([H])C([H])([H])C2([H])N([H])C(=O)C1([H])N(C(=O)C([H])(N([H])C(=O)C([H])(N([H])C([H])([H])[H])C([H])([H])[H])C(C([H])([H])[H])(C([H])([H])[H])C([H])([H])[H])C([H])([H])c2c([H])c(OC([H])([H])C([H])([H])C([H])([H])c3c(C([H])([H])[H])c(N([H])C(=O)N4C([H])([H])C([H])([H])C([H])([H])C([H])(n5nc(-c6c([H])c([H])c(Oc7c([H])c([H])c(F)c([H])c7F)c([H])c6[H])c(C(=O)N([H])[H])c5N([H])[H])C4([H])[H])c(C([H])([H])C([H])([H])[H])c(N([H])C([H])(C([H])([H])[H])C([H])([H])[H])c3C([H])([H])[H])c([H])c([H])c2C1([H])[H]

$$$$
86:0:0
     RDKit          3D

 96104  0  0  1  0  0  0  0  0999 V2000
  -29.1010  -18.9950   21.0890 C   0  0  0  0  0  3  0  0  0  0  0  0
  -29.5850  -18.0990   20.1100 C   0  0  0  0  0  0  0  0  0  0  0  0
  -28.9080  -20.8060   19.4320 C   0  0  0  0  0  0  0  0  0  0  0  0
  -29.5140  -19.9470   18.4670 C   0  0  0  0  0  0  0  0  0  0  0  0
  -28.7650  -20.3240   20.7560 C   0  0  0  0  0  0  0  0  0  0  0  0
  -29.8530  -18.6050   18.8140 C   0  0  0  0  0  0  0  0  0  0  0  0
  -29.7500  -20.3970   17.0300 C   0  0  0  0  0  1  0  0  0  0  0  0
  -28.2150  -21.1140   21.7090 F   0  0  0  0  0  0  0  0  0  0  0  0
  -30.5100  -17.5420   17.6150 Cl  0  0  0  0  0  0  0  0  0  0  0  0
  -29.6180  -16.5850   20.4190 C   0  0  0  0  0  2  0  0  0  0  0  0
  -31.3390  -14.8180   19.9280 C   0  0  0  0  0  0  0  0  0  0  0  0
  -30.9610  -12.5390   19.0310 C   0  0  0  0  0  2  0  0  0  0  0  0
  -29.9880  -12.5700   17.8370 C   0  0  0  0  0  2  0  0  0  0  0  0
  -28.5370  -12.4310   18.3290 C   0  0  0  0  0  2  0  0  0  0  0  0
  -28.2150  -13.4240   19.4730 C   0  0  0  0  0  3  0  0  0  0  0  0
  -29.3090  -13.4070   20.5710 C   0  0  0  0  0  2  0  0  0  0  0  0
  -30.6120  -13.6570   19.9320 N   0  0  0  0  0  0  0  0  0  0  0  0
  -32.4340  -14.8730   19.3550 O   0  0  0  0  0  0  0  0  0  0  0  0
  -31.9200  -16.7490   21.2920 C   0  0  0  0  0  1  0  0  0  0  0  0
  -30.9110  -15.8970   20.6500 N   0  0  0  0  0  0  0  0  0  0  0  0
  -25.9060  -14.1390   20.3520 C   0  0  0  0  0  0  0  0  0  0  0  0
  -24.8190  -13.4120   20.7530 C   0  0  0  0  0  0  0  0  0  0  0  0
  -25.2010  -12.0390   20.6480 C   0  0  0  0  0  0  0  0  0  0  0  0
  -26.8830  -13.2090   20.0270 N   0  0  0  0  0  0  0  0  0  0  0  0
  -26.4680  -11.9410   20.2670 N   0  0  0  0  0  0  0  0  0  0  0  0
  -24.4190  -10.8110   20.8300 C   0  0  0  0  0  0  0  0  0  0  0  0
  -24.8020   -9.8190   21.7600 C   0  0  0  0  0  3  0  0  0  0  0  0
  -24.0220   -8.6560   21.9280 C   0  0  0  0  0  3  0  0  0  0  0  0
  -22.8440   -8.4760   21.1650 C   0  0  0  0  0  0  0  0  0  0  0  0
  -22.4810   -9.4530   20.2220 C   0  0  0  0  0  3  0  0  0  0  0  0
  -23.2610  -10.6090   20.0520 C   0  0  0  0  0  3  0  0  0  0  0  0
  -22.0390   -7.3660   21.2430 O   0  0  0  0  0  0  0  0  0  0  0  0
  -21.9030   -6.6570   22.4100 C   0  0  0  0  0  0  0  0  0  0  0  0
  -21.3930   -7.2480   23.5870 C   0  0  0  0  0  3  0  0  0  0  0  0
  -21.2040   -6.4660   24.7420 C   0  0  0  0  0  3  0  0  0  0  0  0
  -21.5160   -5.0930   24.7230 C   0  0  0  0  0  0  0  0  0  0  0  0
  -22.0200   -4.5020   23.5510 C   0  0  0  0  0  3  0  0  0  0  0  0
  -22.2100   -5.2820   22.3970 C   0  0  0  0  0  0  0  0  0  0  0  0
  -22.6760   -4.7020   21.2640 F   0  0  0  0  0  0  0  0  0  0  0  0
  -21.3300   -4.3380   25.8310 F   0  0  0  0  0  0  0  0  0  0  0  0
  -23.4660  -13.9520   21.1190 C   0  0  0  0  0  0  0  0  0  0  0  0
  -22.7510  -13.2660   22.0040 N   0  0  0  0  0  0  0  0  0  0  0  0
  -23.0550  -15.0160   20.6570 O   0  0  0  0  0  0  0  0  0  0  0  0
  -23.0960  -12.4030   22.3980 H   0  0  0  0  0  0  0  0  0  0  0  0
  -21.8460  -13.6120   22.2950 H   0  0  0  0  0  0  0  0  0  0  0  0
  -26.1390  -15.5040   20.2150 N   0  0  0  0  0  0  0  0  0  0  0  0
  -25.4130  -16.1910   20.3800 H   0  0  0  0  0  0  0  0  0  0  0  0
  -26.9800  -15.9070   19.8220 H   0  0  0  0  0  0  0  0  0  0  0  0
  -28.1950  -22.1270   19.0570 C   0  0  0  0  0  2  0  0  0  0  0  0
  -29.0050  -23.3760   18.9120 N   0  0  0  0  0  4  0  0  0  0  0  0
  -29.7820  -23.2010   18.2950 H   0  0  0  0  0  0  0  0  0  0  0  0
  -29.3900  -23.5820   19.8210 H   0  0  0  0  0  0  0  0  0  0  0  0
  -27.8100  -24.4050   16.9370 C   0  0  0  0  0  1  0  0  0  0  0  0
  -28.2340  -24.5770   18.4250 C   0  0  0  0  0  3  0  0  0  0  0  0
  -29.0110  -25.9390   18.5560 C   0  0  0  0  0  2  0  0  0  0  0  0
  -28.6750  -26.8480   19.6280 O   0  0  0  0  0  0  0  0  0  0  0  0
  -24.7130  -31.6210   23.1370 C   0  0  0  0  0  0  0  0  0  0  0  0
  -27.4890  -27.5690   19.6290 C   0  0  0  0  0  0  0  0  0  0  0  0
  -23.5580  -30.3670   21.3510 C   0  0  0  0  0  3  0  0  0  0  0  0
  -25.0610  -29.0350   19.7800 C   0  0  0  0  0  0  0  0  0  0  0  0
  -26.0780  -30.7980   21.2190 C   0  0  0  0  0  2  0  0  0  0  0  0
  -26.1990  -29.5010   20.4460 C   0  0  0  0  0  0  0  0  0  0  0  0
  -27.4100  -28.7660   20.3840 C   0  0  0  0  0  3  0  0  0  0  0  0
  -26.3280  -27.1440   18.9450 C   0  0  0  0  0  3  0  0  0  0  0  0
  -25.1210  -27.8560   19.0270 C   0  0  0  0  0  3  0  0  0  0  0  0
  -23.7950  -29.8520   19.9070 C   0  0  0  0  0  2  0  0  0  0  0  0
  -24.8010  -30.9390   21.9600 N   0  0  0  0  0  0  0  0  0  0  0  0
  -23.6200  -31.8060   23.6900 O   0  0  0  0  0  0  0  0  0  0  0  0
  -22.9310  -29.2300   22.1900 C   0  0  0  0  0  0  0  0  0  0  0  0
  -21.6110  -29.0370   22.0460 N   0  0  0  0  0  0  0  0  0  0  0  0
  -23.6310  -28.5310   22.9290 O   0  0  0  0  0  0  0  0  0  0  0  0
  -21.1080  -29.6530   21.4210 H   0  0  0  0  0  0  0  0  0  0  0  0
  -18.2570  -27.7570   22.4480 C   0  0  0  0  0  0  0  0  0  0  0  0
  -20.8160  -28.0070   22.7120 C   0  0  0  0  0  3  0  0  0  0  0  0
  -20.9230  -26.6570   21.9660 C   0  0  0  0  0  2  0  0  0  0  0  0
  -19.8080  -26.4460   20.9380 C   0  0  0  0  0  2  0  0  0  0  0  0
  -18.4330  -26.5020   21.6120 C   0  0  0  0  0  2  0  0  0  0  0  0
  -19.3760  -28.4730   22.9520 C   0  0  0  0  0  0  0  0  0  0  0  0
  -19.1570  -29.6560   23.6930 C   0  0  0  0  0  3  0  0  0  0  0  0
  -17.8520  -30.1210   23.9350 C   0  0  0  0  0  3  0  0  0  0  0  0
  -16.7470  -29.4010   23.4490 C   0  0  0  0  0  3  0  0  0  0  0  0
  -16.9500  -28.2220   22.7110 C   0  0  0  0  0  3  0  0  0  0  0  0
  -25.9770  -32.2200   23.8300 C   0  0  0  0  0  3  0  0  0  0  0  0
  -25.6560  -33.6030   24.2080 N   0  0  0  0  0  0  0  0  0  0  0  0
  -26.0340  -34.6870   23.5170 C   0  0  0  0  0  0  0  0  0  0  0  0
  -26.7590  -34.6290   22.5210 O   0  0  0  0  0  0  0  0  0  0  0  0
  -25.0210  -33.7260   24.9830 H   0  0  0  0  0  0  0  0  0  0  0  0
  -24.3320  -36.5030   23.1560 C   0  0  0  0  0  1  0  0  0  0  0  0
  -25.5260  -36.0550   24.0120 C   0  0  0  0  0  3  0  0  0  0  0  0
  -27.6080  -36.8990   25.0040 C   0  0  0  0  0  1  0  0  0  0  0  0
  -26.5660  -37.1080   24.0030 N   0  0  0  0  0  0  0  0  0  0  0  0
  -26.1530  -38.0230   24.1650 H   0  0  0  0  0  0  0  0  0  0  0  0
  -26.4450  -31.3920   25.0880 C   0  0  1  0  0  0  0  0  0  0  0  0
  -25.3160  -31.1220   26.1090 C   0  0  0  0  0  1  0  0  0  0  0  0
  -27.0290  -30.0270   24.6540 C   0  0  0  0  0  1  0  0  0  0  0  0
  -27.5870  -32.1450   25.8140 C   0  0  0  0  0  1  0  0  0  0  0  0
  2 10  1  0
  2  1  2  0
  3  5  2  0
  4  6  2  0
  4  3  1  0
  5  1  1  0
  5  8  1  0
  6  2  1  0
  7  4  1  0
  9  6  1  0
 10 20  1  0
 11 17  1  0
 11 20  1  0
 12 17  1  0
 13 14  1  0
 13 12  1  0
 15 14  1  0
 15 24  1  0
 15 16  1  0
 17 16  1  0
 18 11  2  0
 20 19  1  0
 21 22  2  0
 22 41  1  0
 23 22  1  0
 23 26  1  0
 24 25  1  0
 24 21  1  0
 25 23  2  0
 26 27  1  0
 27 28  2  0
 29 32  1  0
 29 28  1  0
 30 29  2  0
 31 30  1  0
 31 26  2  0
 32 33  1  0
 33 34  1  0
 34 35  2  0
 36 35  1  0
 36 40  1  0
 37 36  2  0
 38 33  2  0
 38 37  1  0
 39 38  1  0
 41 42  1  0
 42 45  1  0
 42 44  1  0
 43 41  2  0
 46 21  1  0
 46 47  1  0
 48 46  1  0
 49  3  1  0
 50 49  1  0
 50 52  1  0
 51 50  1  0
 54 53  1  0
 54 55  1  0
 54 50  1  0
 55 56  1  0
 56 58  1  0
 57 68  2  0
 58 63  1  0
 59 67  1  0
 59 69  1  0
 60 66  1  0
 60 62  1  0
 61 67  1  0
 62 61  1  0
 63 62  2  0
 64 65  1  0
 64 58  2  0
 65 60  2  0
 66 59  1  0
 67 57  1  0
 69 71  2  0
 70 69  1  0
 72 70  1  0
 73 82  2  0
 73 78  1  0
 74 70  1  0
 74 78  1  0
 75 74  1  0
 76 77  1  0
 76 75  1  0
 77 73  1  0
 78 79  2  0
 79 80  1  0
 81 80  2  0
 82 81  1  0
 83 57  1  0
 83 84  1  0
 83 93  1  0
 84 87  1  0
 85 89  1  0
 85 84  1  0
 86 85  2  0
 89 88  1  0
 91 89  1  0
 91 92  1  0
 91 90  1  0
 93 96  1  1
 93 94  1  0
 95 93  1  0
M  ISO  4  11 100  20 100  55 101  56 101
M  END
>  <TORSDO>  (86) 
F 21

>  <SCORE>  (86) 
-11.755

>  <name>  (86) 
86

>  <ligand_id>  (86) 
86

>  <original_smiles>  (86) 
[H]c1c([H])c([H])c2c(c1[H])C([H])([H])C([H])([H])C([H])([H])C2([H])N([H])C(=O)C1([H])N(C(=O)C([H])(N([H])C(=O)C([H])(N([H])C([H])([H])[H])C([H])([H])[H])C(C([H])([H])[H])(C([H])([H])[H])C([H])([H])[H])C([H])([H])c2c([H])c(OC([H])([H])C([H])(C([H])([H])[H])[N+]([H])([H])C([H])([H])c3c(F)c([H])c(C([H])([H])N(C(=O)N4C([H])([H])C([H])([H])C([H])([H])C([H])(n5nc(-c6c([H])c([H])c(Oc7c([H])c([H])c(F)c([H])c7F)c([H])c6[H])c(C(=O)N([H])[H])c5N([H])[H])C4([H])[H])C([H])([H])[H])c(Cl)c3C([H])([H])[H])c([H])c([H])c2C1([H])[H]

>  <smiles>  (86) 
[H]c1c([H])c([H])c2c(c1[H])C([H])([H])C([H])([H])C([H])([H])C2([H])N([H])C(=O)C1([H])N(C(=O)C([H])(N([H])C(=O)C([H])(N([H])C([H])([H])[H])C([H])([H])[H])C(C([H])([H])[H])(C([H])([H])[H])C([H])([H])[H])C([H])([H])c2c([H])c(OC([H])([H])C([H])(C([H])([H])[H])[N+]([H])([H])C([H])([H])c3c(F)c([H])c(C([H])([H])N(C(=O)N4C([H])([H])C([H])([H])C([H])([H])C([H])(n5nc(-c6c([H])c([H])c(Oc7c([H])c([H])c(F)c([H])c7F)c([H])c6[H])c(C(=O)N([H])[H])c5N([H])[H])C4([H])[H])C([H])([H])[H])c(Cl)c3C([H])([H])[H])c([H])c([H])c2C1([H])[H]

$$$$
88:0:0
     RDKit          3D

 89 97  0  0  1  0  0  0  0  0999 V2000
  -29.0630  -23.4200   20.2320 C   0  0  0  0  0  0  0  0  0  0  0  0
  -27.4610  -21.6880   19.5120 C   0  0  0  0  0  1  0  0  0  0  0  0
  -28.8120  -22.0270   19.9580 N   0  0  0  0  0  0  0  0  0  0  0  0
  -30.1830  -23.7340   20.6450 O   0  0  0  0  0  0  0  0  0  0  0  0
  -29.8490  -20.0740   21.4650 C   0  0  0  0  0  2  0  0  0  0  0  0
  -30.6010  -18.6820   21.3640 C   0  0  0  0  0  2  0  0  0  0  0  0
  -29.5570  -19.2790   19.2820 C   0  0  0  0  0  2  0  0  0  0  0  0
  -29.7530  -20.7280   20.0650 C   0  0  0  0  0  3  0  0  0  0  0  0
  -30.4070  -18.0160   19.9610 C   0  0  0  0  0  3  0  0  0  0  0  0
  -30.7230  -15.2170   19.8730 C   0  0  0  0  0  0  0  0  0  0  0  0
  -30.6460  -12.8180   18.9640 C   0  0  0  0  0  2  0  0  0  0  0  0
  -29.6260  -12.6390   17.8110 C   0  0  0  0  0  2  0  0  0  0  0  0
  -28.2010  -12.3880   18.3470 C   0  0  0  0  0  2  0  0  0  0  0  0
  -27.8430  -13.3330   19.5190 C   0  0  0  0  0  3  0  0  0  0  0  0
  -28.9840  -13.3750   20.5640 C   0  0  0  0  0  2  0  0  0  0  0  0
  -30.1560  -13.9220   19.8570 N   0  0  0  0  0  0  0  0  0  0  0  0
  -31.9260  -15.2450   19.5720 O   0  0  0  0  0  0  0  0  0  0  0  0
  -28.5260  -16.5060   20.2300 C   0  0  0  0  0  1  0  0  0  0  0  0
  -29.9720  -16.4710   20.0030 N   0  0  0  0  0  0  0  0  0  0  0  0
  -25.5250  -13.9290   20.4350 C   0  0  0  0  0  0  0  0  0  0  0  0
  -24.4790  -13.1580   20.8500 C   0  0  0  0  0  0  0  0  0  0  0  0
  -24.9200  -11.8050   20.7370 C   0  0  0  0  0  0  0  0  0  0  0  0
  -26.5420  -13.0460   20.1010 N   0  0  0  0  0  0  0  0  0  0  0  0
  -26.1870  -11.7600   20.3450 N   0  0  0  0  0  0  0  0  0  0  0  0
  -24.1880  -10.5490   20.9230 C   0  0  0  0  0  0  0  0  0  0  0  0
  -24.6070   -9.5850   21.8640 C   0  0  0  0  0  3  0  0  0  0  0  0
  -23.8720   -8.3930   22.0400 C   0  0  0  0  0  3  0  0  0  0  0  0
  -22.7070   -8.1570   21.2740 C   0  0  0  0  0  0  0  0  0  0  0  0
  -22.3080   -9.1110   20.3210 C   0  0  0  0  0  3  0  0  0  0  0  0
  -23.0430  -10.2940   20.1420 C   0  0  0  0  0  3  0  0  0  0  0  0
  -21.9460   -7.0170   21.3580 O   0  0  0  0  0  0  0  0  0  0  0  0
  -21.7900   -6.3430   22.5440 C   0  0  0  0  0  0  0  0  0  0  0  0
  -21.2240   -6.9570   23.6820 C   0  0  0  0  0  3  0  0  0  0  0  0
  -21.0190   -6.2070   24.8570 C   0  0  0  0  0  3  0  0  0  0  0  0
  -21.3720   -4.8440   24.8940 C   0  0  0  0  0  0  0  0  0  0  0  0
  -21.9330   -4.2320   23.7590 C   0  0  0  0  0  3  0  0  0  0  0  0
  -22.1400   -4.9790   22.5870 C   0  0  0  0  0  0  0  0  0  0  0  0
  -22.6610   -4.3780   21.4910 F   0  0  0  0  0  0  0  0  0  0  0  0
  -21.1700   -4.1210   26.0190 F   0  0  0  0  0  0  0  0  0  0  0  0
  -23.1130  -13.6470   21.2310 C   0  0  0  0  0  0  0  0  0  0  0  0
  -22.4340  -12.9330   22.1220 N   0  0  0  0  0  0  0  0  0  0  0  0
  -22.6590  -14.6980   20.7760 O   0  0  0  0  0  0  0  0  0  0  0  0
  -22.8160  -12.0860   22.5130 H   0  0  0  0  0  0  0  0  0  0  0  0
  -21.5190  -13.2410   22.4180 H   0  0  0  0  0  0  0  0  0  0  0  0
  -25.6710  -15.3030   20.2850 N   0  0  0  0  0  0  0  0  0  0  0  0
  -24.8940  -15.9360   20.4490 H   0  0  0  0  0  0  0  0  0  0  0  0
  -26.4910  -15.7620   19.9170 H   0  0  0  0  0  0  0  0  0  0  0  0
  -27.9790  -24.6870   20.0410 C   0  0  0  0  0  2  0  0  0  0  0  0
  -28.2900  -26.2000   20.3480 O   0  0  0  0  0  0  0  0  0  0  0  0
  -24.6940  -31.9330   23.3370 C   0  0  0  0  0  0  0  0  0  0  0  0
  -27.2540  -27.2140   20.2740 C   0  0  0  0  0  0  0  0  0  0  0  0
  -23.4970  -30.5580   21.6830 C   0  0  0  0  0  3  0  0  0  0  0  0
  -24.9390  -28.9930   20.2420 C   0  0  0  0  0  0  0  0  0  0  0  0
  -26.0500  -30.8060   21.5290 C   0  0  0  0  0  2  0  0  0  0  0  0
  -26.1190  -29.4170   20.8660 C   0  0  0  0  0  0  0  0  0  0  0  0
  -27.2740  -28.5450   20.8690 C   0  0  0  0  0  3  0  0  0  0  0  0
  -26.0480  -26.9000   19.6080 C   0  0  0  0  0  3  0  0  0  0  0  0
  -24.9190  -27.7480   19.5980 C   0  0  0  0  0  3  0  0  0  0  0  0
  -23.7180  -29.9000   20.2960 C   0  0  0  0  0  2  0  0  0  0  0  0
  -24.7670  -31.1220   22.2390 N   0  0  0  0  0  0  0  0  0  0  0  0
  -23.6060  -32.2160   23.8630 O   0  0  0  0  0  0  0  0  0  0  0  0
  -22.8100  -29.5430   22.6320 C   0  0  0  0  0  0  0  0  0  0  0  0
  -21.4850  -29.3610   22.4880 N   0  0  0  0  0  0  0  0  0  0  0  0
  -23.4740  -28.9220   23.4660 O   0  0  0  0  0  0  0  0  0  0  0  0
  -21.0040  -29.9100   21.7890 H   0  0  0  0  0  0  0  0  0  0  0  0
  -18.1090  -28.1310   22.9410 C   0  0  0  0  0  0  0  0  0  0  0  0
  -20.6600  -28.4210   23.2490 C   0  0  0  0  0  3  0  0  0  0  0  0
  -20.7900  -26.9880   22.6830 C   0  0  0  0  0  2  0  0  0  0  0  0
  -19.7080  -26.6480   21.6550 C   0  0  0  0  0  2  0  0  0  0  0  0
  -18.3130  -26.7830   22.2700 C   0  0  0  0  0  2  0  0  0  0  0  0
  -19.2120  -28.9070   23.3870 C   0  0  0  0  0  0  0  0  0  0  0  0
  -18.9690  -30.1650   23.9750 C   0  0  0  0  0  3  0  0  0  0  0  0
  -17.6570  -30.6530   24.1200 C   0  0  0  0  0  3  0  0  0  0  0  0
  -16.5670  -29.8770   23.6890 C   0  0  0  0  0  3  0  0  0  0  0  0
  -16.7940  -28.6170   23.1050 C   0  0  0  0  0  3  0  0  0  0  0  0
  -25.9710  -32.5620   23.9710 C   0  0  0  0  0  3  0  0  0  0  0  0
  -25.6770  -33.9710   24.2780 N   0  0  0  0  0  0  0  0  0  0  0  0
  -26.0080  -35.0080   23.4960 C   0  0  0  0  0  0  0  0  0  0  0  0
  -26.6560  -34.8790   22.4540 O   0  0  0  0  0  0  0  0  0  0  0  0
  -25.1030  -34.1480   25.0880 H   0  0  0  0  0  0  0  0  0  0  0  0
  -24.2770  -36.8010   23.1630 C   0  0  0  0  0  1  0  0  0  0  0  0
  -25.5440  -36.4090   23.9400 C   0  0  0  0  0  3  0  0  0  0  0  0
  -27.7060  -37.3060   24.6800 C   0  0  0  0  0  1  0  0  0  0  0  0
  -26.5760  -37.4550   23.7670 N   0  0  0  0  0  0  0  0  0  0  0  0
  -26.1770  -38.3780   23.9080 H   0  0  0  0  0  0  0  0  0  0  0  0
  -26.4530  -31.8080   25.2720 C   0  0  1  0  0  0  0  0  0  0  0  0
  -25.3330  -31.6050   26.3190 C   0  0  0  0  0  1  0  0  0  0  0  0
  -27.0320  -30.4180   24.9170 C   0  0  0  0  0  1  0  0  0  0  0  0
  -27.5990  -32.6010   25.9440 C   0  0  0  0  0  1  0  0  0  0  0  0
  1  4  2  0
  2  3  1  0
  3  1  1  0
  6  5  1  0
  7  9  1  0
  7  8  1  0
  8  3  1  0
  8  5  1  0
  9 19  1  0
  9  6  1  0
 10 19  1  0
 11 16  1  0
 12 13  1  0
 12 11  1  0
 14 13  1  0
 14 23  1  0
 14 15  1  0
 16 10  1  0
 16 15  1  0
 17 10  2  0
 19 18  1  0
 20 21  2  0
 21 40  1  0
 22 21  1  0
 22 25  1  0
 23 24  1  0
 23 20  1  0
 24 22  2  0
 25 26  1  0
 26 27  2  0
 28 31  1  0
 28 27  1  0
 29 28  2  0
 30 29  1  0
 30 25  2  0
 31 32  1  0
 32 37  2  0
 32 33  1  0
 33 34  2  0
 34 35  1  0
 35 39  1  0
 36 35  2  0
 37 36  1  0
 38 37  1  0
 40 41  1  0
 41 44  1  0
 41 43  1  0
 42 40  2  0
 45 20  1  0
 45 46  1  0
 47 45  1  0
 48  1  1  0
 48 49  1  0
 50 61  2  0
 51 49  1  0
 51 56  1  0
 52 60  1  0
 52 62  1  0
 53 59  1  0
 53 55  1  0
 54 60  1  0
 55 56  2  0
 55 54  1  0
 57 51  2  0
 58 57  1  0
 58 53  2  0
 59 52  1  0
 60 50  1  0
 62 64  2  0
 63 62  1  0
 65 63  1  0
 66 75  2  0
 66 71  1  0
 67 63  1  0
 67 71  1  0
 68 67  1  0
 69 70  1  0
 69 68  1  0
 70 66  1  0
 71 72  2  0
 72 73  1  0
 74 73  2  0
 75 74  1  0
 76 50  1  0
 76 77  1  0
 76 86  1  0
 77 80  1  0
 78 82  1  0
 78 77  1  0
 79 78  2  0
 82 81  1  0
 84 85  1  0
 84 82  1  0
 84 83  1  0
 86 89  1  1
 86 87  1  0
 88 86  1  0
M  ISO  4  10 100  19 100  48 101  49 101
M  END
>  <TORSDO>  (87) 
F 18

>  <SCORE>  (87) 
-14.245

>  <name>  (87) 
88

>  <ligand_id>  (87) 
88

>  <original_smiles>  (87) 
[H]c1c([H])c([H])c2c(c1[H])C([H])([H])C([H])([H])C([H])([H])C2([H])N([H])C(=O)C1([H])N(C(=O)C([H])(N([H])C(=O)C([H])(N([H])C([H])([H])[H])C([H])([H])[H])C(C([H])([H])[H])(C([H])([H])[H])C([H])([H])[H])C([H])([H])c2c([H])c(OC([H])([H])C(=O)N(C([H])([H])[H])C3([H])C([H])([H])C([H])([H])C([H])(N(C(=O)N4C([H])([H])C([H])([H])C([H])([H])C([H])(n5nc(-c6c([H])c([H])c(Oc7c([H])c([H])c(F)c([H])c7F)c([H])c6[H])c(C(=O)N([H])[H])c5N([H])[H])C4([H])[H])C([H])([H])[H])C3([H])[H])c([H])c([H])c2C1([H])[H]

>  <smiles>  (87) 
[H]c1c([H])c([H])c2c(c1[H])C([H])([H])C([H])([H])C([H])([H])C2([H])N([H])C(=O)C1([H])N(C(=O)C([H])(N([H])C(=O)C([H])(N([H])C([H])([H])[H])C([H])([H])[H])C(C([H])([H])[H])(C([H])([H])[H])C([H])([H])[H])C([H])([H])c2c([H])c(OC([H])([H])C(=O)N(C([H])([H])[H])C3([H])C([H])([H])C([H])([H])C([H])(N(C(=O)N4C([H])([H])C([H])([H])C([H])([H])C([H])(n5nc(-c6c([H])c([H])c(Oc7c([H])c([H])c(F)c([H])c7F)c([H])c6[H])c(C(=O)N([H])[H])c5N([H])[H])C4([H])[H])C([H])([H])[H])C3([H])[H])c([H])c([H])c2C1([H])[H]

$$$$
89:0:0
     RDKit          3D

 95103  0  0  1  0  0  0  0  0999 V2000
  -30.5670  -20.1150   20.7970 C   0  0  0  0  0  3  0  0  0  0  0  0
  -31.1210  -18.8560   21.1050 C   0  0  0  0  0  0  0  0  0  0  0  0
  -30.3450  -17.6850   20.8790 C   0  0  0  0  0  0  0  0  0  0  0  0
  -28.9970  -17.7990   20.4360 C   0  0  0  0  0  0  0  0  0  0  0  0
  -29.2560  -20.2570   20.2910 C   0  0  0  0  0  0  0  0  0  0  0  0
  -28.4610  -19.0850   20.1300 C   0  0  0  0  0  0  0  0  0  0  0  0
  -32.5600  -18.7730   21.6030 C   0  0  0  0  0  1  0  0  0  0  0  0
  -28.1490  -16.5220   20.2980 C   0  0  0  0  0  1  0  0  0  0  0  0
  -26.8610  -19.2160   19.4940 Cl  0  0  0  0  0  0  0  0  0  0  0  0
  -28.3610  -22.5770   20.5430 C   0  0  0  0  0  0  0  0  0  0  0  0
  -29.4060  -21.9080   18.4830 C   0  0  0  0  0  1  0  0  0  0  0  0
  -28.8810  -21.5620   19.7950 N   0  0  0  0  0  0  0  0  0  0  0  0
  -27.4580  -22.3840   21.3630 O   0  0  0  0  0  0  0  0  0  0  0  0
  -28.9200  -24.0380   20.3640 C   0  0  0  0  0  2  0  0  0  0  0  0
  -28.0130  -25.0850   19.6520 C   0  0  0  0  0  2  0  0  0  0  0  0
  -28.2970  -26.4970   19.9150 O   0  0  0  0  0  0  0  0  0  0  0  0
  -24.4860  -31.6900   23.0600 C   0  0  0  0  0  0  0  0  0  0  0  0
  -27.1890  -27.3350   19.8460 C   0  0  0  0  0  0  0  0  0  0  0  0
  -23.3230  -30.3540   21.3510 C   0  0  0  0  0  3  0  0  0  0  0  0
  -24.8080  -28.8970   19.8810 C   0  0  0  0  0  0  0  0  0  0  0  0
  -25.8700  -30.6920   21.2360 C   0  0  0  0  0  2  0  0  0  0  0  0
  -25.9710  -29.3730   20.4990 C   0  0  0  0  0  0  0  0  0  0  0  0
  -27.1700  -28.6100   20.4750 C   0  0  0  0  0  3  0  0  0  0  0  0
  -26.0120  -26.9070   19.1920 C   0  0  0  0  0  3  0  0  0  0  0  0
  -24.8280  -27.6620   19.2270 C   0  0  0  0  0  3  0  0  0  0  0  0
  -23.5720  -29.7740   19.9400 C   0  0  0  0  0  2  0  0  0  0  0  0
  -24.5770  -30.9310   21.9320 N   0  0  0  0  0  0  0  0  0  0  0  0
  -23.3910  -31.9270   23.5870 O   0  0  0  0  0  0  0  0  0  0  0  0
  -22.6830  -29.2560   22.2310 C   0  0  0  0  0  0  0  0  0  0  0  0
  -21.3550  -29.1260   22.1560 N   0  0  0  0  0  0  0  0  0  0  0  0
  -23.3780  -28.5350   22.9540 O   0  0  0  0  0  0  0  0  0  0  0  0
  -20.8650  -29.8580   21.6570 H   0  0  0  0  0  0  0  0  0  0  0  0
  -17.9780  -27.8920   22.6220 C   0  0  0  0  0  0  0  0  0  0  0  0
  -20.5470  -28.1170   22.8440 C   0  0  0  0  0  3  0  0  0  0  0  0
  -20.6420  -26.7240   22.1750 C   0  0  0  0  0  2  0  0  0  0  0  0
  -19.4910  -26.3850   21.2310 C   0  0  0  0  0  2  0  0  0  0  0  0
  -18.1080  -26.5830   21.8580 C   0  0  0  0  0  2  0  0  0  0  0  0
  -19.1130  -28.6040   23.0770 C   0  0  0  0  0  0  0  0  0  0  0  0
  -18.9220  -29.8110   23.7850 C   0  0  0  0  0  3  0  0  0  0  0  0
  -17.6290  -30.3190   24.0150 C   0  0  0  0  0  3  0  0  0  0  0  0
  -16.5060  -29.6000   23.5640 C   0  0  0  0  0  3  0  0  0  0  0  0
  -16.6850  -28.3860   22.8720 C   0  0  0  0  0  3  0  0  0  0  0  0
  -25.7550  -32.3050   23.7280 C   0  0  0  0  0  3  0  0  0  0  0  0
  -26.2530  -31.5110   24.9930 C   0  0  1  0  0  0  0  0  0  0  0  0
  -25.1420  -31.2360   26.0300 C   0  0  0  0  0  1  0  0  0  0  0  0
  -26.8550  -30.1450   24.5940 C   0  0  0  0  0  1  0  0  0  0  0  0
  -27.3940  -32.2950   25.6870 C   0  0  0  0  0  1  0  0  0  0  0  0
  -25.4300  -33.6890   24.0830 N   0  0  0  0  0  0  0  0  0  0  0  0
  -25.7450  -34.7620   23.3490 C   0  0  0  0  0  0  0  0  0  0  0  0
  -26.4190  -34.6970   22.3150 O   0  0  0  0  0  0  0  0  0  0  0  0
  -24.8390  -33.8170   24.8900 H   0  0  0  0  0  0  0  0  0  0  0  0
  -23.9840  -36.5290   23.0120 C   0  0  0  0  0  1  0  0  0  0  0  0
  -25.2220  -36.1320   23.8320 C   0  0  0  0  0  3  0  0  0  0  0  0
  -27.3270  -37.0290   24.7220 C   0  0  0  0  0  1  0  0  0  0  0  0
  -26.2370  -37.2040   23.7650 N   0  0  0  0  0  0  0  0  0  0  0  0
  -25.8150  -38.1140   23.9260 H   0  0  0  0  0  0  0  0  0  0  0  0
  -30.9660  -16.3010   21.0380 C   0  0  0  0  0  2  0  0  0  0  0  0
  -31.0850  -14.2300   19.7670 C   0  0  0  0  0  0  0  0  0  0  0  0
  -30.6570  -11.9700   18.9320 C   0  0  0  0  0  2  0  0  0  0  0  0
  -29.6690  -12.1280   17.7610 C   0  0  0  0  0  2  0  0  0  0  0  0
  -28.2260  -12.0350   18.2930 C   0  0  0  0  0  2  0  0  0  0  0  0
  -27.9540  -13.0400   19.4500 C   0  0  0  0  0  3  0  0  0  0  0  0
  -29.0740  -12.9300   20.5150 C   0  0  0  0  0  2  0  0  0  0  0  0
  -30.3630  -13.0920   19.8230 N   0  0  0  0  0  0  0  0  0  0  0  0
  -32.2290  -14.3060   19.3250 O   0  0  0  0  0  0  0  0  0  0  0  0
  -30.4100  -15.3370   20.0900 N   0  0  0  0  0  0  0  0  0  0  0  0
  -29.3990  -15.3370   19.9600 H   0  0  0  0  0  0  0  0  0  0  0  0
  -25.6520  -13.8290   20.3200 C   0  0  0  0  0  0  0  0  0  0  0  0
  -24.5640  -13.1310   20.7540 C   0  0  0  0  0  0  0  0  0  0  0  0
  -24.9270  -11.7470   20.6970 C   0  0  0  0  0  0  0  0  0  0  0  0
  -26.6200  -12.8760   20.0190 N   0  0  0  0  0  0  0  0  0  0  0  0
  -26.1870  -11.6230   20.3020 N   0  0  0  0  0  0  0  0  0  0  0  0
  -24.1380  -10.5380   20.9210 C   0  0  0  0  0  0  0  0  0  0  0  0
  -24.5550   -9.5360   21.8280 C   0  0  0  0  0  3  0  0  0  0  0  0
  -23.7660   -8.3850   22.0380 C   0  0  0  0  0  3  0  0  0  0  0  0
  -22.5440   -8.2270   21.3410 C   0  0  0  0  0  0  0  0  0  0  0  0
  -22.1440   -9.2120   20.4180 C   0  0  0  0  0  3  0  0  0  0  0  0
  -22.9360  -10.3530   20.2050 C   0  0  0  0  0  3  0  0  0  0  0  0
  -21.7210   -7.1320   21.4690 O   0  0  0  0  0  0  0  0  0  0  0  0
  -21.6590   -6.4120   22.6340 C   0  0  0  0  0  0  0  0  0  0  0  0
  -21.3110   -7.0100   23.8630 C   0  0  0  0  0  3  0  0  0  0  0  0
  -21.1830   -6.2180   25.0220 C   0  0  0  0  0  3  0  0  0  0  0  0
  -21.4050   -4.8300   24.9560 C   0  0  0  0  0  0  0  0  0  0  0  0
  -21.7530   -4.2320   23.7320 C   0  0  0  0  0  3  0  0  0  0  0  0
  -21.8740   -5.0200   22.5730 C   0  0  0  0  0  0  0  0  0  0  0  0
  -22.1840   -4.4350   21.3920 F   0  0  0  0  0  0  0  0  0  0  0  0
  -21.2770   -4.0660   26.0670 F   0  0  0  0  0  0  0  0  0  0  0  0
  -23.2220  -13.6940   21.1230 C   0  0  0  0  0  0  0  0  0  0  0  0
  -22.5150  -13.0490   22.0420 N   0  0  0  0  0  0  0  0  0  0  0  0
  -22.8180  -14.7410   20.6180 O   0  0  0  0  0  0  0  0  0  0  0  0
  -22.8610  -12.1990   22.4680 H   0  0  0  0  0  0  0  0  0  0  0  0
  -21.6200  -13.4070   22.3410 H   0  0  0  0  0  0  0  0  0  0  0  0
  -25.8910  -15.1900   20.1210 N   0  0  0  0  0  0  0  0  0  0  0  0
  -25.1620  -15.8870   20.2160 H   0  0  0  0  0  0  0  0  0  0  0  0
  -26.7690  -15.5910   19.8310 H   0  0  0  0  0  0  0  0  0  0  0  0
  1  2  1  0
  2  7  1  0
  3 57  1  0
  3  2  2  0
  4  3  1  0
  5  1  2  0
  6  5  1  0
  6  4  2  0
  8  4  1  0
  9  6  1  0
 10 13  2  0
 11 12  1  0
 12  5  1  0
 12 10  1  0
 14 10  1  0
 15 16  1  0
 15 14  1  0
 17 28  2  0
 18 16  1  0
 18 23  1  0
 19 27  1  0
 19 29  1  0
 20 26  1  0
 20 22  1  0
 21 27  1  0
 22 21  1  0
 23 22  2  0
 24 25  1  0
 24 18  2  0
 25 20  2  0
 26 19  1  0
 27 17  1  0
 29 31  2  0
 30 29  1  0
 32 30  1  0
 33 42  2  0
 33 38  1  0
 34 30  1  0
 34 38  1  0
 35 34  1  0
 36 37  1  0
 36 35  1  0
 37 33  1  0
 38 39  2  0
 39 40  1  0
 41 40  2  0
 42 41  1  0
 43 17  1  0
 43 48  1  0
 43 44  1  0
 44 47  1  1
 44 45  1  0
 46 44  1  0
 48 51  1  0
 49 53  1  0
 49 48  1  0
 50 49  2  0
 53 52  1  0
 55 53  1  0
 55 56  1  0
 55 54  1  0
 58 64  1  0
 58 66  1  0
 59 64  1  0
 60 61  1  0
 60 59  1  0
 62 61  1  0
 62 71  1  0
 62 63  1  0
 64 63  1  0
 65 58  2  0
 66 57  1  0
 67 66  1  0
 68 69  2  0
 69 88  1  0
 70 69  1  0
 70 73  1  0
 71 72  1  0
 71 68  1  0
 72 70  2  0
 73 74  1  0
 74 75  2  0
 76 79  1  0
 76 75  1  0
 77 76  2  0
 78 77  1  0
 78 73  2  0
 79 80  1  0
 80 81  1  0
 81 82  2  0
 83 82  1  0
 83 87  1  0
 84 83  2  0
 85 80  2  0
 85 84  1  0
 86 85  1  0
 88 89  1  0
 89 92  1  0
 89 91  1  0
 90 88  2  0
 93 94  1  0
 93 68  1  0
 95 93  1  0
M  ISO  4  15 101  16 101  58 100  66 100
M  END
>  <TORSDO>  (88) 
F 20

>  <SCORE>  (88) 
-13.732

>  <name>  (88) 
89

>  <ligand_id>  (88) 
89

>  <original_smiles>  (88) 
[H]c1c([H])c([H])c2c(c1[H])C([H])([H])C([H])([H])C([H])([H])C2([H])N([H])C(=O)C1([H])N(C(=O)C([H])(N([H])C(=O)C([H])(N([H])C([H])([H])[H])C([H])([H])[H])C(C([H])([H])[H])(C([H])([H])[H])C([H])([H])[H])C([H])([H])c2c([H])c(OC([H])([H])C([H])([H])C(=O)N(c3c([H])c(C([H])([H])[H])c(C([H])([H])N([H])C(=O)N4C([H])([H])C([H])([H])C([H])([H])C([H])(n5nc(-c6c([H])c([H])c(Oc7c([H])c([H])c(F)c([H])c7F)c([H])c6[H])c(C(=O)N([H])[H])c5N([H])[H])C4([H])[H])c(C([H])([H])[H])c3Cl)C([H])([H])[H])c([H])c([H])c2C1([H])[H]

>  <smiles>  (88) 
[H]c1c([H])c([H])c2c(c1[H])C([H])([H])C([H])([H])C([H])([H])C2([H])N([H])C(=O)C1([H])N(C(=O)C([H])(N([H])C(=O)C([H])(N([H])C([H])([H])[H])C([H])([H])[H])C(C([H])([H])[H])(C([H])([H])[H])C([H])([H])[H])C([H])([H])c2c([H])c(OC([H])([H])C([H])([H])C(=O)N(c3c([H])c(C([H])([H])[H])c(C([H])([H])N([H])C(=O)N4C([H])([H])C([H])([H])C([H])([H])C([H])(n5nc(-c6c([H])c([H])c(Oc7c([H])c([H])c(F)c([H])c7F)c([H])c6[H])c(C(=O)N([H])[H])c5N([H])[H])C4([H])[H])c(C([H])([H])[H])c3Cl)C([H])([H])[H])c([H])c([H])c2C1([H])[H]

$$$$
90:0:0
     RDKit          3D

 94102  0  0  1  0  0  0  0  0999 V2000
  -29.8370  -19.0850   19.3260 C   0  0  0  0  0  3  0  0  0  0  0  0
  -30.2670  -19.6810   18.1110 C   0  0  0  0  0  0  0  0  0  0  0  0
  -30.0140  -17.7060   19.7260 C   0  0  0  0  0  0  0  0  0  0  0  0
  -31.0740  -18.7780   17.3370 C   0  0  0  0  0  0  0  0  0  0  0  0
  -31.3550  -17.3920   17.7360 C   0  0  0  0  0  0  0  0  0  0  0  0
  -30.7890  -16.7650   18.9210 C   0  0  0  0  0  0  0  0  0  0  0  0
  -31.5920  -19.2960   15.9990 C   0  0  0  0  0  1  0  0  0  0  0  0
  -32.2500  -16.5370   16.8380 C   0  0  0  0  0  1  0  0  0  0  0  0
  -31.6200  -14.1200   19.0890 C   0  0  0  0  0  0  0  0  0  0  0  0
  -31.3800  -11.6680   18.5460 C   0  0  0  0  0  2  0  0  0  0  0  0
  -30.2770  -11.4960   17.4760 C   0  0  0  0  0  2  0  0  0  0  0  0
  -28.8750  -11.4110   18.1170 C   0  0  0  0  0  2  0  0  0  0  0  0
  -28.6580  -12.4990   19.2040 C   0  0  0  0  0  3  0  0  0  0  0  0
  -29.8660  -12.5720   20.1600 C   0  0  0  0  0  2  0  0  0  0  0  0
  -31.0490  -12.8780   19.3420 N   0  0  0  0  0  0  0  0  0  0  0  0
  -32.7590  -14.1450   18.6100 O   0  0  0  0  0  0  0  0  0  0  0  0
  -30.8180  -15.2680   19.2410 N   0  0  0  0  0  0  0  0  0  0  0  0
  -29.9860  -14.9990   19.7450 H   0  0  0  0  0  0  0  0  0  0  0  0
  -26.4940  -13.3040   20.3300 C   0  0  0  0  0  0  0  0  0  0  0  0
  -25.4340  -12.6340   20.8730 C   0  0  0  0  0  0  0  0  0  0  0  0
  -25.7420  -11.2450   20.7510 C   0  0  0  0  0  0  0  0  0  0  0  0
  -27.3910  -12.3310   19.9120 N   0  0  0  0  0  0  0  0  0  0  0  0
  -26.9510  -11.0850   20.2240 N   0  0  0  0  0  0  0  0  0  0  0  0
  -24.9260  -10.0570   21.0450 C   0  0  0  0  0  0  0  0  0  0  0  0
  -25.1320   -9.2890   22.2110 C   0  0  0  0  0  3  0  0  0  0  0  0
  -24.3220   -8.1650   22.4820 C   0  0  0  0  0  3  0  0  0  0  0  0
  -23.2920   -7.8000   21.5830 C   0  0  0  0  0  0  0  0  0  0  0  0
  -23.1050   -8.5560   20.4110 C   0  0  0  0  0  3  0  0  0  0  0  0
  -23.9150   -9.6710   20.1420 C   0  0  0  0  0  3  0  0  0  0  0  0
  -22.4730   -6.7100   21.7480 O   0  0  0  0  0  0  0  0  0  0  0  0
  -21.7590   -6.5170   22.9030 C   0  0  0  0  0  0  0  0  0  0  0  0
  -20.8880   -7.5040   23.4140 C   0  0  0  0  0  3  0  0  0  0  0  0
  -20.1220   -7.2380   24.5690 C   0  0  0  0  0  3  0  0  0  0  0  0
  -20.2140   -5.9870   25.2040 C   0  0  0  0  0  0  0  0  0  0  0  0
  -21.0760   -5.0000   24.6930 C   0  0  0  0  0  3  0  0  0  0  0  0
  -21.8450   -5.2640   23.5450 C   0  0  0  0  0  0  0  0  0  0  0  0
  -22.6590   -4.3040   23.0450 F   0  0  0  0  0  0  0  0  0  0  0  0
  -19.4750   -5.7270   26.3070 F   0  0  0  0  0  0  0  0  0  0  0  0
  -24.1600  -13.2440   21.3780 C   0  0  0  0  0  0  0  0  0  0  0  0
  -23.5420  -12.6380   22.3850 N   0  0  0  0  0  0  0  0  0  0  0  0
  -23.7270  -14.2960   20.9110 O   0  0  0  0  0  0  0  0  0  0  0  0
  -23.9040  -11.7910   22.7960 H   0  0  0  0  0  0  0  0  0  0  0  0
  -22.6920  -13.0400   22.7520 H   0  0  0  0  0  0  0  0  0  0  0  0
  -26.7540  -14.6560   20.1320 N   0  0  0  0  0  0  0  0  0  0  0  0
  -26.1040  -15.3810   20.4210 H   0  0  0  0  0  0  0  0  0  0  0  0
  -27.5500  -15.0250   19.6330 H   0  0  0  0  0  0  0  0  0  0  0  0
  -27.8130  -18.0210   20.9260 C   0  0  0  0  0  1  0  0  0  0  0  0
  -29.9070  -17.8920   22.2880 C   0  0  0  0  0  1  0  0  0  0  0  0
  -28.9510  -15.8620   21.3040 C   0  0  0  0  0  1  0  0  0  0  0  0
  -29.2030  -17.3530   21.0210 C   0  0  2  0  0  0  0  0  0  0  0  0
  -29.5710  -21.0780   17.6080 C   0  0  0  0  0  3  0  0  0  0  0  0
  -30.0710  -22.6530   17.6930 C   0  0  0  0  0  3  0  0  0  0  0  0
  -28.9820  -23.8740   17.4040 C   0  0  0  0  0  2  0  0  0  0  0  0
  -29.0120  -25.3160   17.9250 O   0  0  0  0  0  0  0  0  0  0  0  0
  -24.8550  -29.3320   22.4420 C   0  0  0  0  0  0  0  0  0  0  0  0
  -27.7960  -26.0370   18.1710 C   0  0  0  0  0  0  0  0  0  0  0  0
  -23.7090  -28.1730   20.5890 C   0  0  0  0  0  3  0  0  0  0  0  0
  -25.2220  -27.2560   18.7280 C   0  0  0  0  0  0  0  0  0  0  0  0
  -26.1530  -28.9210   20.3270 C   0  0  0  0  0  2  0  0  0  0  0  0
  -26.3710  -27.7550   19.3530 C   0  0  0  0  0  0  0  0  0  0  0  0
  -27.6520  -27.1580   19.0730 C   0  0  0  0  0  3  0  0  0  0  0  0
  -26.6020  -25.6320   17.5290 C   0  0  0  0  0  3  0  0  0  0  0  0
  -25.3460  -26.2080   17.8050 C   0  0  0  0  0  3  0  0  0  0  0  0
  -23.8800  -27.8770   19.0750 C   0  0  0  0  0  2  0  0  0  0  0  0
  -24.9280  -28.8180   21.1770 N   0  0  0  0  0  0  0  0  0  0  0  0
  -23.8020  -29.2960   23.0960 O   0  0  0  0  0  0  0  0  0  0  0  0
  -23.2970  -26.8680   21.3150 C   0  0  0  0  0  0  0  0  0  0  0  0
  -22.1180  -26.3200   20.9690 N   0  0  0  0  0  0  0  0  0  0  0  0
  -24.0450  -26.3560   22.1530 O   0  0  0  0  0  0  0  0  0  0  0  0
  -21.5580  -26.8000   20.2770 H   0  0  0  0  0  0  0  0  0  0  0  0
  -19.3810  -23.9760   20.6560 C   0  0  0  0  0  0  0  0  0  0  0  0
  -21.5680  -25.0710   21.4980 C   0  0  0  0  0  3  0  0  0  0  0  0
  -22.2930  -23.8470   20.8920 C   0  0  0  0  0  2  0  0  0  0  0  0
  -21.5980  -23.2890   19.6470 C   0  0  0  0  0  2  0  0  0  0  0  0
  -20.1610  -22.8670   19.9710 C   0  0  0  0  0  2  0  0  0  0  0  0
  -20.0410  -25.0190   21.3590 C   0  0  0  0  0  0  0  0  0  0  0  0
  -19.2680  -26.0420   21.9490 C   0  0  0  0  0  3  0  0  0  0  0  0
  -17.8640  -26.0350   21.8460 C   0  0  0  0  0  3  0  0  0  0  0  0
  -17.2150  -24.9930   21.1620 C   0  0  0  0  0  3  0  0  0  0  0  0
  -17.9730  -23.9650   20.5730 C   0  0  0  0  0  3  0  0  0  0  0  0
  -26.0870  -30.0090   23.1160 C   0  0  0  0  0  3  0  0  0  0  0  0
  -26.7310  -29.1270   24.2550 C   0  0  1  0  0  0  0  0  0  0  0  0
  -25.6980  -28.5710   25.2640 C   0  0  0  0  0  1  0  0  0  0  0  0
  -27.5030  -27.9260   23.6590 C   0  0  0  0  0  1  0  0  0  0  0  0
  -27.7670  -29.9630   25.0420 C   0  0  0  0  0  1  0  0  0  0  0  0
  -25.6430  -31.3030   23.6580 N   0  0  0  0  0  0  0  0  0  0  0  0
  -25.7540  -32.4760   23.0180 C   0  0  0  0  0  0  0  0  0  0  0  0
  -26.3100  -32.5900   21.9240 O   0  0  0  0  0  0  0  0  0  0  0  0
  -25.1300  -31.2770   24.5260 H   0  0  0  0  0  0  0  0  0  0  0  0
  -23.7760  -34.0310   23.0860 C   0  0  0  0  0  1  0  0  0  0  0  0
  -25.1500  -33.7200   23.7010 C   0  0  0  0  0  3  0  0  0  0  0  0
  -27.2250  -34.8180   24.4210 C   0  0  0  0  0  1  0  0  0  0  0  0
  -26.0140  -34.9170   23.6120 N   0  0  0  0  0  0  0  0  0  0  0  0
  -25.5060  -35.7500   23.9000 H   0  0  0  0  0  0  0  0  0  0  0  0
  1  3  1  0
  2  1  2  0
  3 50  1  0
  4  5  2  0
  4  2  1  0
  5  6  1  0
  6 17  1  0
  6  3  2  0
  7  4  1  0
  8  5  1  0
  9 17  1  0
  9 15  1  0
 10 15  1  0
 11 12  1  0
 11 10  1  0
 13 12  1  0
 13 22  1  0
 13 14  1  0
 15 14  1  0
 16  9  2  0
 17 18  1  0
 19 20  2  0
 20 39  1  0
 21 20  1  0
 21 24  1  0
 22 23  1  0
 22 19  1  0
 23 21  2  0
 24 25  1  0
 25 26  2  0
 27 30  1  0
 27 26  1  0
 28 27  2  0
 29 28  1  0
 29 24  2  0
 30 31  1  0
 31 32  2  0
 31 36  1  0
 32 33  1  0
 33 34  2  0
 34 38  1  0
 35 34  1  0
 36 35  2  0
 37 36  1  0
 39 40  1  0
 40 43  1  0
 40 42  1  0
 41 39  2  0
 44 19  1  0
 44 45  1  0
 46 44  1  0
 50 47  1  6
 50 49  1  0
 50 48  1  0
 51 52  2  0
 51  2  1  0
 53 52  1  0
 53 54  1  0
 54 56  1  0
 55 66  2  0
 56 61  1  0
 57 65  1  0
 57 67  1  0
 58 64  1  0
 58 60  1  0
 59 65  1  0
 60 59  1  0
 61 60  2  0
 62 63  1  0
 62 56  2  0
 63 58  2  0
 64 57  1  0
 65 55  1  0
 67 69  2  0
 68 67  1  0
 70 68  1  0
 71 76  1  0
 72 68  1  0
 73 72  1  0
 74 75  1  0
 74 73  1  0
 75 71  1  0
 76 72  1  0
 76 77  2  0
 78 77  1  0
 79 78  2  0
 80 71  2  0
 80 79  1  0
 81 55  1  0
 81 86  1  0
 81 82  1  0
 82 85  1  1
 82 83  1  0
 84 82  1  0
 86 89  1  0
 87 86  1  0
 87 91  1  0
 88 87  2  0
 91 90  1  0
 93 91  1  0
 93 94  1  0
 93 92  1  0
M  ISO  4   9 100  17 100  53 101  54 101
M  END
>  <TORSDO>  (89) 
F 20

>  <SCORE>  (89) 
-4.831

>  <name>  (89) 
90

>  <ligand_id>  (89) 
90

>  <original_smiles>  (89) 
[H]c1c([H])c([H])c2c(c1[H])C([H])([H])C([H])([H])C([H])([H])C2([H])N([H])C(=O)C1([H])N(C(=O)C([H])(N([H])C(=O)C([H])(N([H])C([H])([H])[H])C([H])([H])[H])C(C([H])([H])[H])(C([H])([H])[H])C([H])([H])[H])C([H])([H])c2c([H])c(OC([H])([H])C([H])([H])C([H])([H])c3c([H])c(C(C([H])([H])[H])(C([H])([H])[H])C([H])([H])[H])c(N([H])C(=O)N4C([H])([H])C([H])([H])C([H])([H])C([H])(n5nc(-c6c([H])c([H])c(Oc7c([H])c([H])c(F)c([H])c7F)c([H])c6[H])c(C(=O)N([H])[H])c5N([H])[H])C4([H])[H])c(C([H])([H])[H])c3C([H])([H])[H])c([H])c([H])c2C1([H])[H]

>  <smiles>  (89) 
[H]c1c([H])c([H])c2c(c1[H])C([H])([H])C([H])([H])C([H])([H])C2([H])N([H])C(=O)C1([H])N(C(=O)C([H])(N([H])C(=O)C([H])(N([H])C([H])([H])[H])C([H])([H])[H])C(C([H])([H])[H])(C([H])([H])[H])C([H])([H])[H])C([H])([H])c2c([H])c(OC([H])([H])C([H])([H])C([H])([H])c3c([H])c(C(C([H])([H])[H])(C([H])([H])[H])C([H])([H])[H])c(N([H])C(=O)N4C([H])([H])C([H])([H])C([H])([H])C([H])(n5nc(-c6c([H])c([H])c(Oc7c([H])c([H])c(F)c([H])c7F)c([H])c6[H])c(C(=O)N([H])[H])c5N([H])[H])C4([H])[H])c(C([H])([H])[H])c3C([H])([H])[H])c([H])c([H])c2C1([H])[H]

$$$$
91:0:0
     RDKit          3D

 89 97  0  0  1  0  0  0  0  0999 V2000
  -30.9400  -19.5500   20.2780 C   0  0  0  0  0  3  0  0  0  0  0  0
  -31.3000  -20.9430   20.3360 C   0  0  0  0  0  0  0  0  0  0  0  0
  -30.4030  -22.0840   20.2830 C   0  0  0  0  0  0  0  0  0  0  0  0
  -28.9880  -21.9840   20.1350 C   0  0  0  0  0  0  0  0  0  0  0  0
  -28.6990  -20.3690   20.0850 C   0  0  0  0  0  0  0  0  0  0  0  0
  -29.6340  -19.0270   20.1540 C   0  0  0  0  0  0  0  0  0  0  0  0
  -32.7980  -21.1960   20.4600 C   0  0  0  0  0  1  0  0  0  0  0  0
  -30.9600  -23.5020   20.3780 C   0  0  0  0  0  1  0  0  0  0  0  0
  -27.2290  -20.0320   19.9390 C   0  0  0  0  0  1  0  0  0  0  0  0
  -30.2930  -15.8790   20.0100 C   0  0  0  0  0  0  0  0  0  0  0  0
  -30.4160  -13.3180   19.1390 C   0  0  0  0  0  2  0  0  0  0  0  0
  -29.4900  -12.8640   17.9700 C   0  0  0  0  0  2  0  0  0  0  0  0
  -28.1020  -12.4590   18.4880 C   0  0  0  0  0  2  0  0  0  0  0  0
  -27.6120  -13.4430   19.5730 C   0  0  0  0  0  3  0  0  0  0  0  0
  -28.6810  -13.7970   20.6370 C   0  0  0  0  0  2  0  0  0  0  0  0
  -29.7930  -14.4870   19.9300 N   0  0  0  0  0  0  0  0  0  0  0  0
  -31.5220  -15.8060   19.7980 O   0  0  0  0  0  0  0  0  0  0  0  0
  -29.5150  -17.2660   20.1270 N   0  0  0  0  0  0  0  0  0  0  0  0
  -28.5430  -17.0080   20.2210 H   0  0  0  0  0  0  0  0  0  0  0  0
  -25.2820  -13.9180   20.4510 C   0  0  0  0  0  0  0  0  0  0  0  0
  -24.2520  -13.1170   20.8500 C   0  0  0  0  0  0  0  0  0  0  0  0
  -24.7430  -11.7750   20.7810 C   0  0  0  0  0  0  0  0  0  0  0  0
  -26.3280  -13.0690   20.1490 N   0  0  0  0  0  0  0  0  0  0  0  0
  -26.0230  -11.7700   20.4140 N   0  0  0  0  0  0  0  0  0  0  0  0
  -24.0420  -10.4980   20.9820 C   0  0  0  0  0  0  0  0  0  0  0  0
  -24.4910   -9.5480   21.9240 C   0  0  0  0  0  3  0  0  0  0  0  0
  -23.7840   -8.3400   22.1160 C   0  0  0  0  0  3  0  0  0  0  0  0
  -22.6130   -8.0760   21.3670 C   0  0  0  0  0  0  0  0  0  0  0  0
  -22.1830   -9.0160   20.4140 C   0  0  0  0  0  3  0  0  0  0  0  0
  -22.8910  -10.2140   20.2200 C   0  0  0  0  0  3  0  0  0  0  0  0
  -21.8770   -6.9200   21.4680 O   0  0  0  0  0  0  0  0  0  0  0  0
  -21.7980   -6.2170   22.6430 C   0  0  0  0  0  0  0  0  0  0  0  0
  -21.2590   -6.7870   23.8170 C   0  0  0  0  0  3  0  0  0  0  0  0
  -21.1320   -6.0080   24.9840 C   0  0  0  0  0  3  0  0  0  0  0  0
  -21.5340   -4.6580   24.9780 C   0  0  0  0  0  0  0  0  0  0  0  0
  -22.0660   -4.0880   23.8080 C   0  0  0  0  0  3  0  0  0  0  0  0
  -22.1940   -4.8640   22.6440 C   0  0  0  0  0  0  0  0  0  0  0  0
  -22.6880   -4.3030   21.5140 F   0  0  0  0  0  0  0  0  0  0  0  0
  -21.4050   -3.9070   26.0960 F   0  0  0  0  0  0  0  0  0  0  0  0
  -22.8580  -13.5670   21.1760 C   0  0  0  0  0  0  0  0  0  0  0  0
  -22.1800  -12.8610   22.0720 N   0  0  0  0  0  0  0  0  0  0  0  0
  -22.3830  -14.5830   20.6710 O   0  0  0  0  0  0  0  0  0  0  0  0
  -22.5800  -12.0390   22.5010 H   0  0  0  0  0  0  0  0  0  0  0  0
  -21.2470  -13.1460   22.3340 H   0  0  0  0  0  0  0  0  0  0  0  0
  -25.4100  -15.2940   20.2830 N   0  0  0  0  0  0  0  0  0  0  0  0
  -24.6330  -15.9280   20.4330 H   0  0  0  0  0  0  0  0  0  0  0  0
  -26.2240  -15.7500   19.8950 H   0  0  0  0  0  0  0  0  0  0  0  0
  -28.0160  -23.6390   20.0220 C   0  0  0  0  0  2  0  0  0  0  0  0
  -28.2290  -25.4330   20.1710 O   0  0  0  0  0  0  0  0  0  0  0  0
  -24.7200  -31.8010   23.1930 C   0  0  0  0  0  0  0  0  0  0  0  0
  -27.2740  -26.6960   20.1410 C   0  0  0  0  0  0  0  0  0  0  0  0
  -23.5540  -30.4350   21.5170 C   0  0  0  0  0  3  0  0  0  0  0  0
  -25.0180  -28.7950   20.0950 C   0  0  0  0  0  0  0  0  0  0  0  0
  -26.1380  -30.5500   21.4370 C   0  0  0  0  0  2  0  0  0  0  0  0
  -26.2080  -29.1190   20.7540 C   0  0  0  0  0  0  0  0  0  0  0  0
  -27.3170  -28.1030   20.7410 C   0  0  0  0  0  3  0  0  0  0  0  0
  -26.0450  -26.6090   19.4310 C   0  0  0  0  0  3  0  0  0  0  0  0
  -24.9810  -27.5680   19.4090 C   0  0  0  0  0  3  0  0  0  0  0  0
  -23.8140  -29.7570   20.1390 C   0  0  0  0  0  2  0  0  0  0  0  0
  -24.8280  -30.9630   22.1020 N   0  0  0  0  0  0  0  0  0  0  0  0
  -23.6190  -32.0950   23.6910 O   0  0  0  0  0  0  0  0  0  0  0  0
  -22.8160  -29.4470   22.4620 C   0  0  0  0  0  0  0  0  0  0  0  0
  -21.4830  -29.3100   22.3270 N   0  0  0  0  0  0  0  0  0  0  0  0
  -23.4580  -28.8010   23.2940 O   0  0  0  0  0  0  0  0  0  0  0  0
  -21.0120  -29.8790   21.6380 H   0  0  0  0  0  0  0  0  0  0  0  0
  -18.0730  -28.1580   22.8490 C   0  0  0  0  0  0  0  0  0  0  0  0
  -20.6440  -28.3620   23.0740 C   0  0  0  0  0  3  0  0  0  0  0  0
  -20.7010  -26.9520   22.4390 C   0  0  0  0  0  2  0  0  0  0  0  0
  -19.5760  -26.6970   21.4310 C   0  0  0  0  0  2  0  0  0  0  0  0
  -18.2100  -26.8390   22.1050 C   0  0  0  0  0  2  0  0  0  0  0  0
  -19.2150  -28.8810   23.2890 C   0  0  0  0  0  0  0  0  0  0  0  0
  -19.0280  -30.1130   23.9510 C   0  0  0  0  0  3  0  0  0  0  0  0
  -17.7340  -30.6250   24.1710 C   0  0  0  0  0  3  0  0  0  0  0  0
  -16.6090  -29.9000   23.7420 C   0  0  0  0  0  3  0  0  0  0  0  0
  -16.7800  -28.6670   23.0880 C   0  0  0  0  0  3  0  0  0  0  0  0
  -25.9710  -32.4430   23.8660 C   0  0  0  0  0  3  0  0  0  0  0  0
  -25.6530  -33.8470   24.1960 N   0  0  0  0  0  0  0  0  0  0  0  0
  -25.9720  -34.9110   23.4460 C   0  0  0  0  0  0  0  0  0  0  0  0
  -26.6210  -34.8130   22.4010 O   0  0  0  0  0  0  0  0  0  0  0  0
  -25.0720  -33.9950   25.0080 H   0  0  0  0  0  0  0  0  0  0  0  0
  -24.2260  -36.7090   23.1700 C   0  0  0  0  0  1  0  0  0  0  0  0
  -25.5030  -36.3020   23.9240 C   0  0  0  0  0  3  0  0  0  0  0  0
  -27.6610  -37.2120   24.6710 C   0  0  0  0  0  1  0  0  0  0  0  0
  -26.5270  -37.3600   23.7640 N   0  0  0  0  0  0  0  0  0  0  0  0
  -26.1210  -38.2800   23.9120 H   0  0  0  0  0  0  0  0  0  0  0  0
  -26.4270  -31.6810   25.1720 C   0  0  1  0  0  0  0  0  0  0  0  0
  -25.2920  -31.4690   26.2030 C   0  0  0  0  0  1  0  0  0  0  0  0
  -27.0090  -30.2920   24.8330 C   0  0  0  0  0  1  0  0  0  0  0  0
  -27.5610  -32.4700   25.8700 C   0  0  0  0  0  1  0  0  0  0  0  0
  1  2  1  0
  2  7  1  0
  3  2  2  0
  3  8  1  0
  4  3  1  0
  5  4  2  0
  5  6  1  0
  6  1  2  0
  9  5  1  0
 10 18  1  0
 11 16  1  0
 12 13  1  0
 12 11  1  0
 14 13  1  0
 14 23  1  0
 14 15  1  0
 16 10  1  0
 16 15  1  0
 17 10  2  0
 18  6  1  0
 18 19  1  0
 20 21  2  0
 21 40  1  0
 22 21  1  0
 22 25  1  0
 23 24  1  0
 23 20  1  0
 24 22  2  0
 25 26  1  0
 26 27  2  0
 28 31  1  0
 28 27  1  0
 29 28  2  0
 30 29  1  0
 30 25  2  0
 31 32  1  0
 32 37  2  0
 32 33  1  0
 33 34  2  0
 35 34  1  0
 35 39  1  0
 36 35  2  0
 37 36  1  0
 38 37  1  0
 40 41  1  0
 41 44  1  0
 41 43  1  0
 42 40  2  0
 45 46  1  0
 45 20  1  0
 47 45  1  0
 48  4  1  0
 48 49  1  0
 50 61  2  0
 51 49  1  0
 51 56  1  0
 52 60  1  0
 52 62  1  0
 53 59  1  0
 53 55  1  0
 54 60  1  0
 55 54  1  0
 56 55  2  0
 57 51  2  0
 58 57  1  0
 58 53  2  0
 59 52  1  0
 60 50  1  0
 62 64  2  0
 63 62  1  0
 65 63  1  0
 66 75  2  0
 66 71  1  0
 67 63  1  0
 67 71  1  0
 68 67  1  0
 69 70  1  0
 69 68  1  0
 70 66  1  0
 71 72  2  0
 72 73  1  0
 74 73  2  0
 75 74  1  0
 76 50  1  0
 76 77  1  0
 76 86  1  0
 77 80  1  0
 78 82  1  0
 78 77  1  0
 79 78  2  0
 82 81  1  0
 84 85  1  0
 84 82  1  0
 84 83  1  0
 86 89  1  1
 86 87  1  0
 88 86  1  0
M  ISO  4  10 100  18 100  48 101  49 101
M  END
>  <TORSDO>  (90) 
F 17

>  <SCORE>  (90) 
-16.255

>  <name>  (90) 
91

>  <ligand_id>  (90) 
91

>  <original_smiles>  (90) 
[H]c1c([H])c([H])c2c(c1[H])C([H])([H])C([H])([H])C([H])([H])C2([H])N([H])C(=O)C1([H])N(C(=O)C([H])(N([H])C(=O)C([H])(N([H])C([H])([H])[H])C([H])([H])[H])C(C([H])([H])[H])(C([H])([H])[H])C([H])([H])[H])C([H])([H])c2c([H])c(OC([H])([H])c3c(C([H])([H])[H])c(N([H])C(=O)N4C([H])([H])C([H])([H])C([H])([H])C([H])(n5nc(-c6c([H])c([H])c(Oc7c([H])c([H])c(F)c([H])c7F)c([H])c6[H])c(C(=O)N([H])[H])c5N([H])[H])C4([H])[H])c([H])c(C([H])([H])[H])c3C([H])([H])[H])c([H])c([H])c2C1([H])[H]

>  <smiles>  (90) 
[H]c1c([H])c([H])c2c(c1[H])C([H])([H])C([H])([H])C([H])([H])C2([H])N([H])C(=O)C1([H])N(C(=O)C([H])(N([H])C(=O)C([H])(N([H])C([H])([H])[H])C([H])([H])[H])C(C([H])([H])[H])(C([H])([H])[H])C([H])([H])[H])C([H])([H])c2c([H])c(OC([H])([H])c3c(C([H])([H])[H])c(N([H])C(=O)N4C([H])([H])C([H])([H])C([H])([H])C([H])(n5nc(-c6c([H])c([H])c(Oc7c([H])c([H])c(F)c([H])c7F)c([H])c6[H])c(C(=O)N([H])[H])c5N([H])[H])C4([H])[H])c([H])c(C([H])([H])[H])c3C([H])([H])[H])c([H])c([H])c2C1([H])[H]

$$$$
92:0:0
     RDKit          3D

 97105  0  0  1  0  0  0  0  0999 V2000
  -29.2090  -21.0460   18.4990 C   0  0  0  0  0  3  0  0  0  0  0  0
  -30.6710  -21.5020   20.3040 C   0  0  0  0  0  0  0  0  0  0  0  0
  -29.7410  -22.0730   19.3470 C   0  0  0  0  0  0  0  0  0  0  0  0
  -30.5120  -19.0860   19.4350 C   0  0  0  0  0  0  0  0  0  0  0  0
  -29.5630  -19.6480   18.5300 C   0  0  0  0  0  0  0  0  0  0  0  0
  -31.0470  -20.0840   20.3190 C   0  0  0  0  0  0  0  0  0  0  0  0
  -28.9900  -18.8330   17.6120 F   0  0  0  0  0  0  0  0  0  0  0  0
  -32.2600  -19.5400   21.4360 Cl  0  0  0  0  0  0  0  0  0  0  0  0
  -31.3170  -22.3530   21.3150 C   0  0  0  0  0  0  0  0  0  0  0  0
  -30.6970  -22.6590   22.4860 C   0  0  0  0  0  0  0  0  0  0  0  0
  -32.7340  -22.7720   20.9410 C   0  0  0  0  0  1  0  0  0  0  0  0
  -31.3440  -23.4840   23.5900 C   0  0  0  0  0  1  0  0  0  0  0  0
  -29.2530  -21.1240   23.9300 C   0  0  0  0  0  1  0  0  0  0  0  0
  -29.2830  -22.1980   22.8330 C   0  0  0  0  0  2  0  0  0  0  0  0
  -29.1340  -23.6040   19.1640 C   0  0  0  0  0  2  0  0  0  0  0  0
  -28.9560  -25.1190   21.3500 C   0  0  0  0  0  1  0  0  0  0  0  0
  -29.4720  -25.0590   19.9040 C   0  0  0  0  0  3  0  0  0  0  0  0
  -29.2120  -26.4540   19.2950 O   0  0  0  0  0  0  0  0  0  0  0  0
  -25.0650  -31.1410   23.1100 C   0  0  0  0  0  0  0  0  0  0  0  0
  -28.0120  -27.2120   19.4450 C   0  0  0  0  0  0  0  0  0  0  0  0
  -23.9440  -29.7900   21.3750 C   0  0  0  0  0  3  0  0  0  0  0  0
  -25.4840  -28.5810   19.7150 C   0  0  0  0  0  0  0  0  0  0  0  0
  -26.4220  -30.4170   21.1180 C   0  0  0  0  0  2  0  0  0  0  0  0
  -26.6280  -29.1280   20.3120 C   0  0  0  0  0  0  0  0  0  0  0  0
  -27.8930  -28.4630   20.1580 C   0  0  0  0  0  3  0  0  0  0  0  0
  -26.8360  -26.7390   18.8300 C   0  0  0  0  0  3  0  0  0  0  0  0
  -25.5940  -27.3990   18.9620 C   0  0  0  0  0  3  0  0  0  0  0  0
  -24.1600  -29.2980   19.9190 C   0  0  0  0  0  2  0  0  0  0  0  0
  -25.1640  -30.4670   21.9250 N   0  0  0  0  0  0  0  0  0  0  0  0
  -23.9880  -31.2230   23.7200 O   0  0  0  0  0  0  0  0  0  0  0  0
  -23.4560  -28.6060   22.2440 C   0  0  0  0  0  0  0  0  0  0  0  0
  -22.1800  -28.2150   22.0810 N   0  0  0  0  0  0  0  0  0  0  0  0
  -24.2270  -28.0440   23.0270 O   0  0  0  0  0  0  0  0  0  0  0  0
  -21.6060  -28.7310   21.4300 H   0  0  0  0  0  0  0  0  0  0  0  0
  -19.1150  -26.3010   22.3000 C   0  0  0  0  0  0  0  0  0  0  0  0
  -21.5330  -27.0910   22.7610 C   0  0  0  0  0  3  0  0  0  0  0  0
  -21.9790  -25.7410   22.1520 C   0  0  0  0  0  2  0  0  0  0  0  0
  -21.0410  -25.2370   21.0510 C   0  0  0  0  0  2  0  0  0  0  0  0
  -19.6220  -25.0540   21.5960 C   0  0  0  0  0  2  0  0  0  0  0  0
  -20.0110  -27.2650   22.8320 C   0  0  0  0  0  0  0  0  0  0  0  0
  -19.4860  -28.4210   23.4470 C   0  0  0  0  0  3  0  0  0  0  0  0
  -18.0960  -28.6230   23.5350 C   0  0  0  0  0  3  0  0  0  0  0  0
  -17.2120  -27.6600   23.0180 C   0  0  0  0  0  3  0  0  0  0  0  0
  -17.7210  -26.5010   22.4060 C   0  0  0  0  0  3  0  0  0  0  0  0
  -26.2950  -31.8580   23.7470 C   0  0  0  0  0  3  0  0  0  0  0  0
  -25.8840  -33.2280   24.0920 N   0  0  0  0  0  0  0  0  0  0  0  0
  -26.1780  -34.3180   23.3710 C   0  0  0  0  0  0  0  0  0  0  0  0
  -26.8910  -34.2810   22.3640 O   0  0  0  0  0  0  0  0  0  0  0  0
  -25.2490  -33.3260   24.8710 H   0  0  0  0  0  0  0  0  0  0  0  0
  -24.3620  -36.0180   22.9860 C   0  0  0  0  0  1  0  0  0  0  0  0
  -25.5900  -35.6640   23.8410 C   0  0  0  0  0  3  0  0  0  0  0  0
  -27.6320  -36.6500   24.7830 C   0  0  0  0  0  1  0  0  0  0  0  0
  -26.5620  -36.7780   23.7980 N   0  0  0  0  0  0  0  0  0  0  0  0
  -26.0960  -37.6690   23.9510 H   0  0  0  0  0  0  0  0  0  0  0  0
  -26.8560  -31.1150   25.0220 C   0  0  1  0  0  0  0  0  0  0  0  0
  -25.7780  -30.8090   26.0870 C   0  0  0  0  0  1  0  0  0  0  0  0
  -27.5200  -29.7750   24.6260 C   0  0  0  0  0  1  0  0  0  0  0  0
  -27.9570  -31.9730   25.6860 C   0  0  0  0  0  1  0  0  0  0  0  0
  -31.1280  -17.5810   19.2270 C   0  0  0  0  0  2  0  0  0  0  0  0
  -31.2380  -14.9460   19.5150 C   0  0  0  0  0  0  0  0  0  0  0  0
  -30.9340  -12.5410   18.8450 C   0  0  0  0  0  2  0  0  0  0  0  0
  -29.9300  -12.4420   17.6750 C   0  0  0  0  0  2  0  0  0  0  0  0
  -28.4870  -12.3560   18.2090 C   0  0  0  0  0  2  0  0  0  0  0  0
  -28.1940  -13.4120   19.3070 C   0  0  0  0  0  3  0  0  0  0  0  0
  -29.3170  -13.4840   20.3650 C   0  0  0  0  0  2  0  0  0  0  0  0
  -30.5680  -13.7400   19.6460 N   0  0  0  0  0  0  0  0  0  0  0  0
  -32.4170  -14.9200   19.1520 O   0  0  0  0  0  0  0  0  0  0  0  0
  -30.5520  -16.1750   19.5720 N   0  0  0  0  0  0  0  0  0  0  0  0
  -29.5780  -16.1360   19.8280 H   0  0  0  0  0  0  0  0  0  0  0  0
  -25.9580  -14.1840   20.2860 C   0  0  0  0  0  0  0  0  0  0  0  0
  -24.8560  -13.4980   20.7140 C   0  0  0  0  0  0  0  0  0  0  0  0
  -25.1740  -12.1110   20.5770 C   0  0  0  0  0  0  0  0  0  0  0  0
  -26.8800  -13.2220   19.9100 N   0  0  0  0  0  0  0  0  0  0  0  0
  -26.4230  -11.9660   20.1490 N   0  0  0  0  0  0  0  0  0  0  0  0
  -24.3400  -10.9180   20.7700 C   0  0  0  0  0  0  0  0  0  0  0  0
  -24.7250   -9.8800   21.6490 C   0  0  0  0  0  3  0  0  0  0  0  0
  -23.8950   -8.7540   21.8330 C   0  0  0  0  0  3  0  0  0  0  0  0
  -22.6650   -8.6560   21.1390 C   0  0  0  0  0  0  0  0  0  0  0  0
  -22.2970   -9.6810   20.2490 C   0  0  0  0  0  3  0  0  0  0  0  0
  -23.1270  -10.7990   20.0620 C   0  0  0  0  0  3  0  0  0  0  0  0
  -21.8070   -7.5870   21.2360 O   0  0  0  0  0  0  0  0  0  0  0  0
  -21.6670   -6.8810   22.4040 C   0  0  0  0  0  0  0  0  0  0  0  0
  -21.2700   -7.5030   23.6080 C   0  0  0  0  0  3  0  0  0  0  0  0
  -21.0710   -6.7280   24.7690 C   0  0  0  0  0  3  0  0  0  0  0  0
  -21.2570   -5.3330   24.7240 C   0  0  0  0  0  0  0  0  0  0  0  0
  -21.6450   -4.7120   23.5250 C   0  0  0  0  0  3  0  0  0  0  0  0
  -21.8460   -5.4830   22.3670 C   0  0  0  0  0  0  0  0  0  0  0  0
  -22.2000   -4.8760   21.2080 F   0  0  0  0  0  0  0  0  0  0  0  0
  -21.0580   -4.5870   25.8370 F   0  0  0  0  0  0  0  0  0  0  0  0
  -23.5430  -14.0940   21.1330 C   0  0  0  0  0  0  0  0  0  0  0  0
  -22.8470  -13.4520   22.0640 N   0  0  0  0  0  0  0  0  0  0  0  0
  -23.1510  -15.1630   20.6680 O   0  0  0  0  0  0  0  0  0  0  0  0
  -23.1810  -12.5850   22.4600 H   0  0  0  0  0  0  0  0  0  0  0  0
  -21.9700  -13.8340   22.3870 H   0  0  0  0  0  0  0  0  0  0  0  0
  -26.2440  -15.5390   20.1580 N   0  0  0  0  0  0  0  0  0  0  0  0
  -25.5560  -16.2540   20.3670 H   0  0  0  0  0  0  0  0  0  0  0  0
  -27.0880  -15.9140   19.7440 H   0  0  0  0  0  0  0  0  0  0  0  0
  1  5  2  0
  1  3  1  0
  2  6  1  0
  2  9  1  0
  3  2  2  0
  4  6  2  0
  5  4  1  0
  6  8  1  0
  7  5  1  0
  9 10  2  0
 10 14  1  0
 10 12  1  0
 11  9  1  0
 14 13  1  0
 15  3  1  0
 15 17  1  0
 17 16  1  0
 18 20  1  0
 18 17  1  0
 19 30  2  0
 20 25  1  0
 21 29  1  0
 21 31  1  0
 22 28  1  0
 22 24  1  0
 23 29  1  0
 24 23  1  0
 25 24  2  0
 26 27  1  0
 26 20  2  0
 27 22  2  0
 28 21  1  0
 29 19  1  0
 31 33  2  0
 32 31  1  0
 34 32  1  0
 35 44  2  0
 35 40  1  0
 36 32  1  0
 36 40  1  0
 37 36  1  0
 38 39  1  0
 38 37  1  0
 39 35  1  0
 40 41  2  0
 41 42  1  0
 43 42  2  0
 44 43  1  0
 45 19  1  0
 45 46  1  0
 45 55  1  0
 46 49  1  0
 47 51  1  0
 47 46  1  0
 48 47  2  0
 51 50  1  0
 53 51  1  0
 53 54  1  0
 53 52  1  0
 55 58  1  1
 55 56  1  0
 57 55  1  0
 59  4  1  0
 59 68  1  0
 60 68  1  0
 60 66  1  0
 61 66  1  0
 62 63  1  0
 62 61  1  0
 64 63  1  0
 64 73  1  0
 64 65  1  0
 66 65  1  0
 67 60  2  0
 68 69  1  0
 70 71  2  0
 71 90  1  0
 72 71  1  0
 72 75  1  0
 73 74  1  0
 73 70  1  0
 74 72  2  0
 75 76  1  0
 76 77  2  0
 78 81  1  0
 78 77  1  0
 79 78  2  0
 80 79  1  0
 80 75  2  0
 81 82  1  0
 82 83  1  0
 83 84  2  0
 85 84  1  0
 85 89  1  0
 86 85  2  0
 87 82  2  0
 87 86  1  0
 88 87  1  0
 90 91  1  0
 91 94  1  0
 91 93  1  0
 92 90  2  0
 95 70  1  0
 95 96  1  0
 97 95  1  0
M  ISO  4  17 101  18 101  60 100  68 100
M  END
>  <TORSDO>  (91) 
F 21

>  <SCORE>  (91) 
-6.996

>  <name>  (91) 
92

>  <ligand_id>  (91) 
92

>  <original_smiles>  (91) 
[H]c1c([H])c([H])c2c(c1[H])C([H])([H])C([H])([H])C([H])([H])C2([H])N([H])C(=O)C1([H])N(C(=O)C([H])(N([H])C(=O)C([H])(N([H])C([H])([H])[H])C([H])([H])[H])C(C([H])([H])[H])(C([H])([H])[H])C([H])([H])[H])C([H])([H])c2c([H])c(OC([H])(C([H])([H])[H])C([H])([H])c3c([H])c(F)c(C([H])([H])N([H])C(=O)N4C([H])([H])C([H])([H])C([H])([H])C([H])(n5nc(-c6c([H])c([H])c(Oc7c([H])c([H])c(F)c([H])c7F)c([H])c6[H])c(C(=O)N([H])[H])c5N([H])[H])C4([H])[H])c(Cl)c3C(=C(C([H])([H])[H])C([H])([H])C([H])([H])[H])C([H])([H])[H])c([H])c([H])c2C1([H])[H]

>  <smiles>  (91) 
[H]c1c([H])c([H])c2c(c1[H])C([H])([H])C([H])([H])C([H])([H])C2([H])N([H])C(=O)C1([H])N(C(=O)C([H])(N([H])C(=O)C([H])(N([H])C([H])([H])[H])C([H])([H])[H])C(C([H])([H])[H])(C([H])([H])[H])C([H])([H])[H])C([H])([H])c2c([H])c(OC([H])(C([H])([H])[H])C([H])([H])c3c([H])c(F)c(C([H])([H])N([H])C(=O)N4C([H])([H])C([H])([H])C([H])([H])C([H])(n5nc(-c6c([H])c([H])c(Oc7c([H])c([H])c(F)c([H])c7F)c([H])c6[H])c(C(=O)N([H])[H])c5N([H])[H])C4([H])[H])c(Cl)c3C(=C(C([H])([H])[H])C([H])([H])C([H])([H])[H])C([H])([H])[H])c([H])c([H])c2C1([H])[H]

$$$$
93:0:0
     RDKit          3D

 91 99  0  0  1  0  0  0  0  0999 V2000
  -30.6400  -20.5490   19.1710 C   0  0  0  0  0  0  0  0  0  0  0  0
  -28.5150  -20.3850   20.1240 C   0  0  0  0  0  0  0  0  0  0  0  0
  -29.4810  -21.3440   19.6160 C   0  0  0  0  0  0  0  0  0  0  0  0
  -30.8170  -19.0610   19.2700 C   0  0  0  0  0  0  0  0  0  0  0  0
  -28.6830  -18.9050   20.2070 C   0  0  0  0  0  0  0  0  0  0  0  0
  -29.8510  -18.1160   19.8200 C   0  0  0  0  0  0  0  0  0  0  0  0
  -31.7940  -21.3510   18.5720 C   0  0  0  0  0  1  0  0  0  0  0  0
  -27.2050  -20.9820   20.6330 C   0  0  0  0  0  1  0  0  0  0  0  0
  -32.1150  -18.4290   18.7710 C   0  0  0  0  0  1  0  0  0  0  0  0
  -27.5100  -18.1210   20.7910 C   0  0  0  0  0  1  0  0  0  0  0  0
  -30.6780  -15.2940   19.7650 C   0  0  0  0  0  0  0  0  0  0  0  0
  -30.5620  -12.8530   18.9500 C   0  0  0  0  0  2  0  0  0  0  0  0
  -29.5650  -12.6800   17.7770 C   0  0  0  0  0  2  0  0  0  0  0  0
  -28.1330  -12.4560   18.2960 C   0  0  0  0  0  2  0  0  0  0  0  0
  -27.7690  -13.4320   19.4440 C   0  0  0  0  0  3  0  0  0  0  0  0
  -28.8860  -13.5530   20.5040 C   0  0  0  0  0  2  0  0  0  0  0  0
  -30.1020  -14.0000   19.8000 N   0  0  0  0  0  0  0  0  0  0  0  0
  -31.8760  -15.3060   19.4530 O   0  0  0  0  0  0  0  0  0  0  0  0
  -29.8730  -16.5090   19.9220 N   0  0  0  0  0  0  0  0  0  0  0  0
  -28.9710  -16.1870   20.2330 H   0  0  0  0  0  0  0  0  0  0  0  0
  -25.4660  -14.0400   20.3640 C   0  0  0  0  0  0  0  0  0  0  0  0
  -24.4040  -13.2840   20.7750 C   0  0  0  0  0  0  0  0  0  0  0  0
  -24.8230  -11.9220   20.6710 C   0  0  0  0  0  0  0  0  0  0  0  0
  -26.4630  -13.1420   20.0250 N   0  0  0  0  0  0  0  0  0  0  0  0
  -26.0920  -11.8600   20.2790 N   0  0  0  0  0  0  0  0  0  0  0  0
  -24.0690  -10.6760   20.8630 C   0  0  0  0  0  0  0  0  0  0  0  0
  -24.4700   -9.7080   21.8100 C   0  0  0  0  0  3  0  0  0  0  0  0
  -23.7140   -8.5290   21.9960 C   0  0  0  0  0  3  0  0  0  0  0  0
  -22.5430   -8.3100   21.2340 C   0  0  0  0  0  0  0  0  0  0  0  0
  -22.1580   -9.2670   20.2780 C   0  0  0  0  0  3  0  0  0  0  0  0
  -22.9140  -10.4380   20.0910 C   0  0  0  0  0  3  0  0  0  0  0  0
  -21.7610   -7.1830   21.3260 O   0  0  0  0  0  0  0  0  0  0  0  0
  -21.6250   -6.4970   22.5060 C   0  0  0  0  0  0  0  0  0  0  0  0
  -21.1010   -7.1070   23.6660 C   0  0  0  0  0  3  0  0  0  0  0  0
  -20.9140   -6.3470   24.8390 C   0  0  0  0  0  3  0  0  0  0  0  0
  -21.2360   -4.9780   24.8480 C   0  0  0  0  0  0  0  0  0  0  0  0
  -21.7510   -4.3660   23.6920 C   0  0  0  0  0  3  0  0  0  0  0  0
  -21.9410   -5.1240   22.5230 C   0  0  0  0  0  0  0  0  0  0  0  0
  -22.4150   -4.5240   21.4050 F   0  0  0  0  0  0  0  0  0  0  0  0
  -21.0490   -4.2450   25.9720 F   0  0  0  0  0  0  0  0  0  0  0  0
  -23.0390  -13.7920   21.1410 C   0  0  0  0  0  0  0  0  0  0  0  0
  -22.3500  -13.1070   22.0460 N   0  0  0  0  0  0  0  0  0  0  0  0
  -22.5960  -14.8330   20.6580 O   0  0  0  0  0  0  0  0  0  0  0  0
  -22.7240  -12.2640   22.4590 H   0  0  0  0  0  0  0  0  0  0  0  0
  -21.4360  -13.4290   22.3300 H   0  0  0  0  0  0  0  0  0  0  0  0
  -25.6590  -15.4110   20.2150 N   0  0  0  0  0  0  0  0  0  0  0  0
  -24.9280  -16.0850   20.4090 H   0  0  0  0  0  0  0  0  0  0  0  0
  -26.4710  -15.8260   19.7790 H   0  0  0  0  0  0  0  0  0  0  0  0
  -29.4140  -23.0830   19.7980 C   0  0  0  0  0  3  0  0  0  0  0  0
  -28.3620  -24.4270   19.3080 C   0  0  0  0  0  3  0  0  0  0  0  0
  -28.4710  -26.0340   19.5720 O   0  0  0  0  0  0  0  0  0  0  0  0
  -24.6690  -31.5540   22.9660 C   0  0  0  0  0  0  0  0  0  0  0  0
  -27.3860  -27.0420   19.5880 C   0  0  0  0  0  0  0  0  0  0  0  0
  -23.5030  -30.2150   21.2580 C   0  0  0  0  0  3  0  0  0  0  0  0
  -24.9920  -28.7760   19.7090 C   0  0  0  0  0  0  0  0  0  0  0  0
  -26.0530  -30.5610   21.0820 C   0  0  0  0  0  2  0  0  0  0  0  0
  -26.1710  -29.2060   20.3310 C   0  0  0  0  0  0  0  0  0  0  0  0
  -27.3630  -28.3640   20.2400 C   0  0  0  0  0  3  0  0  0  0  0  0
  -26.1670  -26.7450   18.9380 C   0  0  0  0  0  3  0  0  0  0  0  0
  -25.0140  -27.5680   18.9890 C   0  0  0  0  0  3  0  0  0  0  0  0
  -23.7320  -29.6290   19.8380 C   0  0  0  0  0  2  0  0  0  0  0  0
  -24.7630  -30.8000   21.8240 N   0  0  0  0  0  0  0  0  0  0  0  0
  -23.5780  -31.7630   23.5220 O   0  0  0  0  0  0  0  0  0  0  0  0
  -22.8670  -29.1340   22.1690 C   0  0  0  0  0  0  0  0  0  0  0  0
  -21.5360  -28.9490   22.0810 N   0  0  0  0  0  0  0  0  0  0  0  0
  -23.5760  -28.4600   22.9230 O   0  0  0  0  0  0  0  0  0  0  0  0
  -21.0150  -29.5450   21.4540 H   0  0  0  0  0  0  0  0  0  0  0  0
  -18.1960  -27.6390   22.6250 C   0  0  0  0  0  0  0  0  0  0  0  0
  -20.7590  -27.9380   22.8070 C   0  0  0  0  0  3  0  0  0  0  0  0
  -20.8630  -26.5580   22.1170 C   0  0  0  0  0  2  0  0  0  0  0  0
  -19.7260  -26.2930   21.1240 C   0  0  0  0  0  2  0  0  0  0  0  0
  -18.3700  -26.3540   21.8320 C   0  0  0  0  0  2  0  0  0  0  0  0
  -19.3170  -28.3920   23.0690 C   0  0  0  0  0  0  0  0  0  0  0  0
  -19.0970  -29.5930   23.7760 C   0  0  0  0  0  3  0  0  0  0  0  0
  -17.7910  -30.0470   24.0380 C   0  0  0  0  0  3  0  0  0  0  0  0
  -16.6860  -29.2930   23.6080 C   0  0  0  0  0  3  0  0  0  0  0  0
  -16.8900  -28.0900   22.9090 C   0  0  0  0  0  3  0  0  0  0  0  0
  -25.9240  -32.2060   23.6220 C   0  0  0  0  0  3  0  0  0  0  0  0
  -25.5580  -33.5710   24.0430 N   0  0  0  0  0  0  0  0  0  0  0  0
  -25.8850  -34.6900   23.3840 C   0  0  0  0  0  0  0  0  0  0  0  0
  -26.5870  -34.6840   22.3690 O   0  0  0  0  0  0  0  0  0  0  0  0
  -24.9340  -33.6470   24.8320 H   0  0  0  0  0  0  0  0  0  0  0  0
  -24.1180  -36.4680   23.1290 C   0  0  0  0  0  1  0  0  0  0  0  0
  -25.3500  -36.0280   23.9360 C   0  0  0  0  0  3  0  0  0  0  0  0
  -27.4320  -36.9100   24.9000 C   0  0  0  0  0  1  0  0  0  0  0  0
  -26.3560  -37.1140   23.9310 N   0  0  0  0  0  0  0  0  0  0  0  0
  -25.9190  -38.0110   24.1240 H   0  0  0  0  0  0  0  0  0  0  0  0
  -26.4760  -31.3870   24.8550 C   0  0  1  0  0  0  0  0  0  0  0  0
  -25.4050  -31.0710   25.9260 C   0  0  0  0  0  1  0  0  0  0  0  0
  -27.0830  -30.0410   24.3970 C   0  0  0  0  0  1  0  0  0  0  0  0
  -27.6180  -32.1750   25.5380 C   0  0  0  0  0  1  0  0  0  0  0  0
  1  4  2  0
  1  3  1  0
  2  5  1  0
  2  8  1  0
  3 49  1  0
  3  2  2  0
  4  6  1  0
  5 10  1  0
  6 19  1  0
  6  5  2  0
  7  1  1  0
  9  4  1  0
 11 17  1  0
 11 19  1  0
 12 17  1  0
 13 14  1  0
 13 12  1  0
 15 14  1  0
 15 24  1  0
 15 16  1  0
 17 16  1  0
 18 11  2  0
 19 20  1  0
 21 22  2  0
 22 41  1  0
 23 22  1  0
 23 26  1  0
 24 25  1  0
 24 21  1  0
 25 23  2  0
 26 27  1  0
 27 28  2  0
 29 32  1  0
 29 28  1  0
 30 29  2  0
 31 30  1  0
 31 26  2  0
 32 33  1  0
 33 38  2  0
 33 34  1  0
 34 35  2  0
 35 36  1  0
 36 40  1  0
 37 36  2  0
 38 37  1  0
 39 38  1  0
 41 42  1  0
 42 45  1  0
 42 44  1  0
 43 41  2  0
 46 21  1  0
 46 47  1  0
 48 46  1  0
 50 51  1  0
 50 49  2  0
 51 53  1  0
 52 63  2  0
 53 58  1  0
 54 62  1  0
 54 64  1  0
 55 61  1  0
 55 57  1  0
 56 62  1  0
 57 56  1  0
 58 57  2  0
 59 60  1  0
 59 53  2  0
 60 55  2  0
 61 54  1  0
 62 52  1  0
 64 66  2  0
 65 64  1  0
 67 65  1  0
 68 77  2  0
 68 73  1  0
 69 65  1  0
 69 73  1  0
 70 69  1  0
 71 72  1  0
 71 70  1  0
 72 68  1  0
 73 74  2  0
 74 75  1  0
 76 75  2  0
 77 76  1  0
 78 52  1  0
 78 79  1  0
 78 88  1  0
 79 82  1  0
 80 84  1  0
 80 79  1  0
 81 80  2  0
 84 83  1  0
 86 84  1  0
 86 87  1  0
 86 85  1  0
 88 91  1  1
 88 89  1  0
 90 88  1  0
M  ISO  4  11 100  19 100  50 101  51 101
M  END
>  <TORSDO>  (92) 
F 18

>  <SCORE>  (92) 
-13.477

>  <name>  (92) 
93

>  <ligand_id>  (92) 
93

>  <original_smiles>  (92) 
[H]c1c([H])c([H])c2c(c1[H])C([H])([H])C([H])([H])C([H])([H])C2([H])N([H])C(=O)C1([H])N(C(=O)C([H])(N([H])C(=O)C([H])(N([H])C([H])([H])[H])C([H])([H])[H])C(C([H])([H])[H])(C([H])([H])[H])C([H])([H])[H])C([H])([H])c2c([H])c(OC([H])([H])C([H])([H])c3c(C([H])([H])[H])c(C([H])([H])[H])c(N([H])C(=O)N4C([H])([H])C([H])([H])C([H])([H])C([H])(n5nc(-c6c([H])c([H])c(Oc7c([H])c([H])c(F)c([H])c7F)c([H])c6[H])c(C(=O)N([H])[H])c5N([H])[H])C4([H])[H])c(C([H])([H])[H])c3C([H])([H])[H])c([H])c([H])c2C1([H])[H]

>  <smiles>  (92) 
[H]c1c([H])c([H])c2c(c1[H])C([H])([H])C([H])([H])C([H])([H])C2([H])N([H])C(=O)C1([H])N(C(=O)C([H])(N([H])C(=O)C([H])(N([H])C([H])([H])[H])C([H])([H])[H])C(C([H])([H])[H])(C([H])([H])[H])C([H])([H])[H])C([H])([H])c2c([H])c(OC([H])([H])C([H])([H])c3c(C([H])([H])[H])c(C([H])([H])[H])c(N([H])C(=O)N4C([H])([H])C([H])([H])C([H])([H])C([H])(n5nc(-c6c([H])c([H])c(Oc7c([H])c([H])c(F)c([H])c7F)c([H])c6[H])c(C(=O)N([H])[H])c5N([H])[H])C4([H])[H])c(C([H])([H])[H])c3C([H])([H])[H])c([H])c([H])c2C1([H])[H]

$$$$
