0:0:0
     RDKit          3D

 93101  0  0  1  0  0  0  0  0999 V2000
  -30.1470  -19.8880   19.8430 C   0  0  0  0  0  3  0  0  0  0  0  0
  -30.4370  -18.4530   19.9490 C   0  0  0  0  0  3  0  0  0  0  0  0
  -27.8420  -19.4210   20.0140 C   0  0  0  0  0  3  0  0  0  0  0  0
  -28.8210  -20.4560   19.8530 C   0  0  0  0  0  0  0  0  0  0  0  0
  -29.4310  -17.4300   20.0890 C   0  0  0  0  0  0  0  0  0  0  0  0
  -28.1160  -17.9960   20.1460 C   0  0  0  0  0  0  0  0  0  0  0  0
  -30.3550  -14.8250   19.7360 C   0  0  0  0  0  0  0  0  0  0  0  0
  -30.2060  -12.4990   18.7350 C   0  0  0  0  0  2  0  0  0  0  0  0
  -29.1750  -12.5000   17.5810 C   0  0  0  0  0  2  0  0  0  0  0  0
  -27.7470  -12.2740   18.1150 C   0  0  0  0  0  2  0  0  0  0  0  0
  -27.4350  -13.1600   19.3510 C   0  0  0  0  0  3  0  0  0  0  0  0
  -28.5730  -13.1110   20.3940 C   0  0  0  0  0  2  0  0  0  0  0  0
  -29.8040  -13.5460   19.7150 N   0  0  0  0  0  0  0  0  0  0  0  0
  -31.5000  -14.9720   19.2940 O   0  0  0  0  0  0  0  0  0  0  0  0
  -29.5290  -15.9000   20.1330 N   0  0  0  0  0  0  0  0  0  0  0  0
  -28.6920  -15.5250   20.5540 H   0  0  0  0  0  0  0  0  0  0  0  0
  -25.0880  -13.7090   20.2170 C   0  0  0  0  0  0  0  0  0  0  0  0
  -24.0670  -12.9210   20.6730 C   0  0  0  0  0  0  0  0  0  0  0  0
  -24.5580  -11.5810   20.6420 C   0  0  0  0  0  0  0  0  0  0  0  0
  -26.1350  -12.8470   19.9350 N   0  0  0  0  0  0  0  0  0  0  0  0
  -25.8280  -11.5630   20.2520 N   0  0  0  0  0  0  0  0  0  0  0  0
  -23.8720  -10.3090   20.9040 C   0  0  0  0  0  0  0  0  0  0  0  0
  -24.3420   -9.4020   21.8790 C   0  0  0  0  0  3  0  0  0  0  0  0
  -23.6540   -8.1950   22.1260 C   0  0  0  0  0  3  0  0  0  0  0  0
  -22.4800   -7.8850   21.3980 C   0  0  0  0  0  0  0  0  0  0  0  0
  -22.0290   -8.7800   20.4120 C   0  0  0  0  0  3  0  0  0  0  0  0
  -22.7190   -9.9790   20.1640 C   0  0  0  0  0  3  0  0  0  0  0  0
  -21.7600   -6.7250   21.5520 O   0  0  0  0  0  0  0  0  0  0  0  0
  -21.7070   -6.0650   22.7540 C   0  0  0  0  0  0  0  0  0  0  0  0
  -21.2350   -6.6920   23.9270 C   0  0  0  0  0  3  0  0  0  0  0  0
  -21.1320   -5.9570   25.1250 C   0  0  0  0  0  3  0  0  0  0  0  0
  -21.4890   -4.5960   25.1500 C   0  0  0  0  0  0  0  0  0  0  0  0
  -21.9540   -3.9680   23.9810 C   0  0  0  0  0  3  0  0  0  0  0  0
  -22.0590   -4.7010   22.7860 C   0  0  0  0  0  0  0  0  0  0  0  0
  -22.4880   -4.0860   21.6570 F   0  0  0  0  0  0  0  0  0  0  0  0
  -21.3820   -3.8870   26.2980 F   0  0  0  0  0  0  0  0  0  0  0  0
  -22.6810  -13.3770   21.0230 C   0  0  0  0  0  0  0  0  0  0  0  0
  -22.0300  -12.6970   21.9600 N   0  0  0  0  0  0  0  0  0  0  0  0
  -22.1840  -14.3750   20.5010 O   0  0  0  0  0  0  0  0  0  0  0  0
  -22.4450  -11.8910   22.4040 H   0  0  0  0  0  0  0  0  0  0  0  0
  -21.1030  -12.9870   22.2390 H   0  0  0  0  0  0  0  0  0  0  0  0
  -25.2060  -15.0780   19.9970 N   0  0  0  0  0  0  0  0  0  0  0  0
  -24.4340  -15.7140   20.1570 H   0  0  0  0  0  0  0  0  0  0  0  0
  -26.0380  -15.5450   19.6630 H   0  0  0  0  0  0  0  0  0  0  0  0
  -28.8330  -23.2350   19.6670 C   0  0  0  0  0  0  0  0  0  0  0  0
  -28.3510  -21.9010   19.6090 N   0  0  0  0  0  0  0  0  0  0  0  0
  -29.9780  -23.4630   20.0650 O   0  0  0  0  0  0  0  0  0  0  0  0
  -27.3730  -21.9280   19.3540 H   0  0  0  0  0  0  0  0  0  0  0  0
  -27.8950  -24.5160   19.1840 C   0  0  0  0  0  2  0  0  0  0  0  0
  -28.2230  -26.0260   19.3990 O   0  0  0  0  0  0  0  0  0  0  0  0
  -24.5180  -31.4680   22.7440 C   0  0  0  0  0  0  0  0  0  0  0  0
  -27.1480  -26.9940   19.4090 C   0  0  0  0  0  0  0  0  0  0  0  0
  -23.3170  -30.1240   21.0660 C   0  0  0  0  0  3  0  0  0  0  0  0
  -24.7710  -28.6730   19.5270 C   0  0  0  0  0  0  0  0  0  0  0  0
  -25.8580  -30.4730   20.8530 C   0  0  0  0  0  2  0  0  0  0  0  0
  -25.9550  -29.1200   20.1270 C   0  0  0  0  0  0  0  0  0  0  0  0
  -27.1450  -28.2990   20.0520 C   0  0  0  0  0  3  0  0  0  0  0  0
  -25.9310  -26.6560   18.7750 C   0  0  0  0  0  3  0  0  0  0  0  0
  -24.7710  -27.4550   18.8360 C   0  0  0  0  0  3  0  0  0  0  0  0
  -23.5210  -29.5280   19.6490 C   0  0  0  0  0  2  0  0  0  0  0  0
  -24.5850  -30.7070   21.6090 N   0  0  0  0  0  0  0  0  0  0  0  0
  -23.4390  -31.6920   23.3120 O   0  0  0  0  0  0  0  0  0  0  0  0
  -22.6930  -29.0470   21.9900 C   0  0  0  0  0  0  0  0  0  0  0  0
  -21.3560  -28.9030   21.9500 N   0  0  0  0  0  0  0  0  0  0  0  0
  -23.4120  -28.3450   22.7060 O   0  0  0  0  0  0  0  0  0  0  0  0
  -20.8300  -29.5210   21.3480 H   0  0  0  0  0  0  0  0  0  0  0  0
  -17.9940  -27.7610   22.6730 C   0  0  0  0  0  0  0  0  0  0  0  0
  -20.5770  -27.9160   22.7030 C   0  0  0  0  0  3  0  0  0  0  0  0
  -20.5630  -26.5480   21.9820 C   0  0  0  0  0  2  0  0  0  0  0  0
  -19.3540  -26.3650   21.0580 C   0  0  0  0  0  2  0  0  0  0  0  0
  -18.0490  -26.4850   21.8490 C   0  0  0  0  0  2  0  0  0  0  0  0
  -19.1800  -28.4410   23.0600 C   0  0  0  0  0  0  0  0  0  0  0  0
  -19.0700  -29.6410   23.7970 C   0  0  0  0  0  3  0  0  0  0  0  0
  -17.8080  -30.1590   24.1460 C   0  0  0  0  0  3  0  0  0  0  0  0
  -16.6390  -29.4740   23.7720 C   0  0  0  0  0  3  0  0  0  0  0  0
  -16.7340  -28.2760   23.0410 C   0  0  0  0  0  3  0  0  0  0  0  0
  -25.7930  -32.1090   23.3710 C   0  0  0  0  0  3  0  0  0  0  0  0
  -26.3950  -31.2610   24.5590 C   0  0  1  0  0  0  0  0  0  0  0  0
  -25.3600  -30.8980   25.6500 C   0  0  0  0  0  1  0  0  0  0  0  0
  -27.0090  -29.9410   24.0360 C   0  0  0  0  0  1  0  0  0  0  0  0
  -27.5440  -32.0450   25.2330 C   0  0  0  0  0  1  0  0  0  0  0  0
  -25.4340  -33.4590   23.8350 N   0  0  0  0  0  0  0  0  0  0  0  0
  -25.7130  -34.5920   23.1790 C   0  0  0  0  0  0  0  0  0  0  0  0
  -26.3660  -34.6140   22.1330 O   0  0  0  0  0  0  0  0  0  0  0  0
  -24.8540  -33.5130   24.6590 H   0  0  0  0  0  0  0  0  0  0  0  0
  -23.9140  -36.3460   23.0290 C   0  0  0  0  0  1  0  0  0  0  0  0
  -25.1850  -35.9120   23.7770 C   0  0  0  0  0  3  0  0  0  0  0  0
  -27.3020  -36.7960   24.6550 C   0  0  0  0  0  1  0  0  0  0  0  0
  -26.1760  -37.0090   23.7490 N   0  0  0  0  0  0  0  0  0  0  0  0
  -25.7400  -37.8950   23.9900 H   0  0  0  0  0  0  0  0  0  0  0  0
  -27.1160  -17.0610   20.3250 O   0  0  0  0  0  0  0  0  0  0  0  0
  -24.8960  -16.3210   20.8340 C   0  0  0  0  0  1  0  0  0  0  0  0
  -25.7640  -17.4970   20.3780 C   0  0  0  0  0  2  0  0  0  0  0  0
  1  4  2  0
  1  2  1  0
  2  5  2  0
  3  6  2  0
  4  3  1  0
  5 15  1  0
  5  6  1  0
  6 91  1  0
  7 15  1  0
  8 13  1  0
  9 10  1  0
  9  8  1  0
 11 10  1  0
 11 20  1  0
 11 12  1  0
 13  7  1  0
 13 12  1  0
 14  7  2  0
 15 16  1  0
 17 18  2  0
 18 37  1  0
 19 18  1  0
 19 22  1  0
 20 17  1  0
 20 21  1  0
 21 19  2  0
 22 23  1  0
 23 24  2  0
 25 28  1  0
 25 24  1  0
 26 25  2  0
 27 26  1  0
 27 22  2  0
 28 29  1  0
 29 34  2  0
 29 30  1  0
 30 31  2  0
 31 32  1  0
 32 36  1  0
 33 32  2  0
 34 33  1  0
 35 34  1  0
 37 38  1  0
 38 41  1  0
 38 40  1  0
 39 37  2  0
 42 43  1  0
 42 17  1  0
 44 42  1  0
 45 47  2  0
 46 45  1  0
 46  4  1  0
 48 46  1  0
 49 50  1  0
 49 45  1  0
 50 52  1  0
 51 62  2  0
 52 57  1  0
 53 61  1  0
 53 63  1  0
 54 60  1  0
 54 56  1  0
 55 61  1  0
 56 55  1  0
 57 56  2  0
 58 59  1  0
 58 52  2  0
 59 54  2  0
 60 53  1  0
 61 51  1  0
 63 65  2  0
 64 63  1  0
 66 64  1  0
 67 76  2  0
 67 72  1  0
 68 64  1  0
 68 72  1  0
 69 68  1  0
 70 71  1  0
 70 69  1  0
 71 67  1  0
 72 73  2  0
 73 74  1  0
 75 74  2  0
 76 75  1  0
 77 51  1  0
 77 82  1  0
 77 78  1  0
 78 81  1  1
 78 79  1  0
 80 78  1  0
 82 85  1  0
 83 87  1  0
 83 82  1  0
 84 83  2  0
 87 86  1  0
 89 87  1  0
 89 90  1  0
 89 88  1  0
 91 93  1  0
 93 92  1  0
M  ISO  4   7 100  15 100  49 101  50 101
M  END
>  <TORSDO>  (1) 
F 20

>  <SCORE>  (1) 
-11.427

>  <name>  (1) 
0

>  <ligand_id>  (1) 
0

>  <original_smiles>  (1) 
[H]c1c([H])c([H])c2c(c1[H])C([H])([H])C([H])([H])C([H])([H])C2([H])N([H])C(=O)C1([H])N(C(=O)C([H])(N([H])C(=O)C([H])(N([H])C([H])([H])[H])C([H])([H])[H])C(C([H])([H])[H])(C([H])([H])[H])C([H])([H])[H])C([H])([H])c2c([H])c(OC([H])([H])C(=O)N([H])c3c([H])c([H])c(N([H])C(=O)N4C([H])([H])C([H])([H])C([H])([H])C([H])(n5nc(-c6c([H])c([H])c(Oc7c([H])c([H])c(F)c([H])c7F)c([H])c6[H])c(C(=O)N([H])[H])c5N([H])[H])C4([H])[H])c(OC([H])([H])C([H])([H])[H])c3[H])c([H])c([H])c2C1([H])[H]

>  <smiles>  (1) 
[H]c1c([H])c([H])c2c(c1[H])C([H])([H])C([H])([H])C([H])([H])C2([H])N([H])C(=O)C1([H])N(C(=O)C([H])(N([H])C(=O)C([H])(N([H])C([H])([H])[H])C([H])([H])[H])C(C([H])([H])[H])(C([H])([H])[H])C([H])([H])[H])C([H])([H])c2c([H])c(OC([H])([H])C(=O)N([H])c3c([H])c([H])c(N([H])C(=O)N4C([H])([H])C([H])([H])C([H])([H])C([H])(n5nc(-c6c([H])c([H])c(Oc7c([H])c([H])c(F)c([H])c7F)c([H])c6[H])c(C(=O)N([H])[H])c5N([H])[H])C4([H])[H])c(OC([H])([H])C([H])([H])[H])c3[H])c([H])c([H])c2C1([H])[H]

$$$$
1:0:0
     RDKit          3D

 89 97  0  0  1  0  0  0  0  0999 V2000
  -30.6180  -18.5840   20.2340 C   0  0  0  0  0  3  0  0  0  0  0  0
  -30.3220  -20.0210   20.1180 C   0  0  0  0  0  3  0  0  0  0  0  0
  -28.3230  -18.1100   19.9970 C   0  0  0  0  0  3  0  0  0  0  0  0
  -29.6220  -17.5390   20.1790 C   0  0  0  0  0  0  0  0  0  0  0  0
  -28.9990  -20.5680   19.9200 C   0  0  0  0  0  0  0  0  0  0  0  0
  -28.0300  -19.5160   19.8660 C   0  0  0  0  0  0  0  0  0  0  0  0
  -26.7350  -19.8670   19.6790 F   0  0  0  0  0  0  0  0  0  0  0  0
  -30.5800  -14.9230   20.0660 C   0  0  0  0  0  0  0  0  0  0  0  0
  -30.4510  -12.5660   19.1460 C   0  0  0  0  0  2  0  0  0  0  0  0
  -29.4680  -12.5400   17.9490 C   0  0  0  0  0  2  0  0  0  0  0  0
  -28.0140  -12.3550   18.4280 C   0  0  0  0  0  2  0  0  0  0  0  0
  -27.6620  -13.2860   19.6170 C   0  0  0  0  0  3  0  0  0  0  0  0
  -28.7540  -13.2570   20.7090 C   0  0  0  0  0  2  0  0  0  0  0  0
  -30.0190  -13.6500   20.0680 N   0  0  0  0  0  0  0  0  0  0  0  0
  -31.7560  -15.0460   19.7010 O   0  0  0  0  0  0  0  0  0  0  0  0
  -29.7160  -16.0150   20.3160 N   0  0  0  0  0  0  0  0  0  0  0  0
  -28.8300  -15.6250   20.5980 H   0  0  0  0  0  0  0  0  0  0  0  0
  -25.3230  -13.9140   20.4530 C   0  0  0  0  0  0  0  0  0  0  0  0
  -24.2550  -13.1600   20.8530 C   0  0  0  0  0  0  0  0  0  0  0  0
  -24.6820  -11.7990   20.7750 C   0  0  0  0  0  0  0  0  0  0  0  0
  -26.3340  -13.0150   20.1560 N   0  0  0  0  0  0  0  0  0  0  0  0
  -25.9580  -11.7360   20.4130 N   0  0  0  0  0  0  0  0  0  0  0  0
  -23.9310  -10.5510   20.9660 C   0  0  0  0  0  0  0  0  0  0  0  0
  -24.3600   -9.5610   21.8760 C   0  0  0  0  0  3  0  0  0  0  0  0
  -23.6090   -8.3800   22.0560 C   0  0  0  0  0  3  0  0  0  0  0  0
  -22.4150   -8.1800   21.3260 C   0  0  0  0  0  0  0  0  0  0  0  0
  -22.0020   -9.1580   20.4040 C   0  0  0  0  0  3  0  0  0  0  0  0
  -22.7540  -10.3310   20.2210 C   0  0  0  0  0  3  0  0  0  0  0  0
  -21.6350   -7.0520   21.4170 O   0  0  0  0  0  0  0  0  0  0  0  0
  -21.5790   -6.3060   22.5670 C   0  0  0  0  0  0  0  0  0  0  0  0
  -21.1440   -6.8560   23.7920 C   0  0  0  0  0  3  0  0  0  0  0  0
  -21.0370   -6.0370   24.9340 C   0  0  0  0  0  3  0  0  0  0  0  0
  -21.3540   -4.6680   24.8510 C   0  0  0  0  0  0  0  0  0  0  0  0
  -21.7830   -4.1170   23.6300 C   0  0  0  0  0  3  0  0  0  0  0  0
  -21.8920   -4.9330   22.4910 C   0  0  0  0  0  0  0  0  0  0  0  0
  -22.2850   -4.3930   21.3120 F   0  0  0  0  0  0  0  0  0  0  0  0
  -21.2440   -3.8790   25.9450 F   0  0  0  0  0  0  0  0  0  0  0  0
  -22.8820  -13.6670   21.1860 C   0  0  0  0  0  0  0  0  0  0  0  0
  -22.1720  -12.9770   22.0720 N   0  0  0  0  0  0  0  0  0  0  0  0
  -22.4480  -14.7080   20.6950 O   0  0  0  0  0  0  0  0  0  0  0  0
  -22.5360  -12.1340   22.4910 H   0  0  0  0  0  0  0  0  0  0  0  0
  -21.2520  -13.2980   22.3390 H   0  0  0  0  0  0  0  0  0  0  0  0
  -25.5110  -15.2840   20.2900 N   0  0  0  0  0  0  0  0  0  0  0  0
  -24.7430  -15.9360   20.4050 H   0  0  0  0  0  0  0  0  0  0  0  0
  -26.3000  -15.6870   19.8030 H   0  0  0  0  0  0  0  0  0  0  0  0
  -28.5040  -21.9350   19.7320 O   0  0  0  0  0  0  0  0  0  0  0  0
  -29.0950  -23.3350   19.9090 C   0  0  0  0  0  3  0  0  0  0  0  0
  -28.1160  -24.6810   19.6400 C   0  0  0  0  0  3  0  0  0  0  0  0
  -28.3620  -26.1910   19.9150 O   0  0  0  0  0  0  0  0  0  0  0  0
  -24.5360  -31.6270   23.0850 C   0  0  0  0  0  0  0  0  0  0  0  0
  -27.2770  -27.1420   19.8750 C   0  0  0  0  0  0  0  0  0  0  0  0
  -23.3960  -30.2890   21.3560 C   0  0  0  0  0  3  0  0  0  0  0  0
  -24.9060  -28.8230   19.8830 C   0  0  0  0  0  0  0  0  0  0  0  0
  -25.9460  -30.6220   21.2520 C   0  0  0  0  0  2  0  0  0  0  0  0
  -26.0640  -29.2680   20.5340 C   0  0  0  0  0  0  0  0  0  0  0  0
  -27.2500  -28.4450   20.5130 C   0  0  0  0  0  3  0  0  0  0  0  0
  -26.0890  -26.7970   19.1910 C   0  0  0  0  0  3  0  0  0  0  0  0
  -24.9310  -27.6010   19.1980 C   0  0  0  0  0  3  0  0  0  0  0  0
  -23.6570  -29.6880   19.9500 C   0  0  0  0  0  2  0  0  0  0  0  0
  -24.6450  -30.8640   21.9540 N   0  0  0  0  0  0  0  0  0  0  0  0
  -23.4340  -31.8620   23.6050 O   0  0  0  0  0  0  0  0  0  0  0  0
  -22.7240  -29.2200   22.2530 C   0  0  0  0  0  0  0  0  0  0  0  0
  -21.3950  -29.0550   22.1190 N   0  0  0  0  0  0  0  0  0  0  0  0
  -23.3990  -28.5440   23.0340 O   0  0  0  0  0  0  0  0  0  0  0  0
  -20.9070  -29.6540   21.4680 H   0  0  0  0  0  0  0  0  0  0  0  0
  -18.0080  -27.8640   22.6020 C   0  0  0  0  0  0  0  0  0  0  0  0
  -20.5770  -28.0710   22.8320 C   0  0  0  0  0  3  0  0  0  0  0  0
  -20.6440  -26.6870   22.1430 C   0  0  0  0  0  2  0  0  0  0  0  0
  -19.5160  -26.4610   21.1320 C   0  0  0  0  0  2  0  0  0  0  0  0
  -18.1500  -26.5720   21.8170 C   0  0  0  0  0  2  0  0  0  0  0  0
  -19.1480  -28.5760   23.0650 C   0  0  0  0  0  0  0  0  0  0  0  0
  -18.9590  -29.7890   23.7640 C   0  0  0  0  0  3  0  0  0  0  0  0
  -17.6650  -30.2900   24.0000 C   0  0  0  0  0  3  0  0  0  0  0  0
  -16.5420  -29.5740   23.5510 C   0  0  0  0  0  3  0  0  0  0  0  0
  -16.7140  -28.3630   22.8590 C   0  0  0  0  0  3  0  0  0  0  0  0
  -25.7880  -32.2560   23.7670 C   0  0  0  0  0  3  0  0  0  0  0  0
  -26.2640  -31.4600   25.0450 C   0  0  1  0  0  0  0  0  0  0  0  0
  -25.1360  -31.1940   26.0690 C   0  0  0  0  0  1  0  0  0  0  0  0
  -26.8680  -30.0930   24.6470 C   0  0  0  0  0  1  0  0  0  0  0  0
  -27.3860  -32.2460   25.7630 C   0  0  0  0  0  1  0  0  0  0  0  0
  -25.4530  -33.6440   24.1230 N   0  0  0  0  0  0  0  0  0  0  0  0
  -25.7720  -34.7190   23.3900 C   0  0  0  0  0  0  0  0  0  0  0  0
  -26.4450  -34.6480   22.3590 O   0  0  0  0  0  0  0  0  0  0  0  0
  -24.8550  -33.7720   24.9260 H   0  0  0  0  0  0  0  0  0  0  0  0
  -24.0050  -36.4870   23.0910 C   0  0  0  0  0  1  0  0  0  0  0  0
  -25.2650  -36.0920   23.8780 C   0  0  0  0  0  3  0  0  0  0  0  0
  -27.3890  -37.0120   24.7010 C   0  0  0  0  0  1  0  0  0  0  0  0
  -26.2770  -37.1660   23.7680 N   0  0  0  0  0  0  0  0  0  0  0  0
  -25.8530  -38.0770   23.9260 H   0  0  0  0  0  0  0  0  0  0  0  0
  2  1  2  0
  3  4  2  0
  4  1  1  0
  4 16  1  0
  5  2  1  0
  6  5  2  0
  6  3  1  0
  7  6  1  0
  8 14  1  0
  8 16  1  0
  9 14  1  0
 10 11  1  0
 10  9  1  0
 12 11  1  0
 12 21  1  0
 12 13  1  0
 14 13  1  0
 15  8  2  0
 16 17  1  0
 18 19  2  0
 19 38  1  0
 20 19  1  0
 20 23  1  0
 21 22  1  0
 21 18  1  0
 22 20  2  0
 23 24  1  0
 24 25  2  0
 26 29  1  0
 26 25  1  0
 27 26  2  0
 28 27  1  0
 28 23  2  0
 29 30  1  0
 30 31  1  0
 31 32  2  0
 33 32  1  0
 33 37  1  0
 34 33  2  0
 35 30  2  0
 35 34  1  0
 36 35  1  0
 38 39  1  0
 39 42  1  0
 39 41  1  0
 40 38  2  0
 43 44  1  0
 43 18  1  0
 45 43  1  0
 46 47  1  0
 46  5  1  0
 48 47  2  0
 48 49  1  0
 50 61  2  0
 51 49  1  0
 51 56  1  0
 52 60  1  0
 52 62  1  0
 53 59  1  0
 53 55  1  0
 54 60  1  0
 55 54  1  0
 56 55  2  0
 57 58  1  0
 57 51  2  0
 58 53  2  0
 59 52  1  0
 60 50  1  0
 62 64  2  0
 63 62  1  0
 65 63  1  0
 66 75  2  0
 66 71  1  0
 67 63  1  0
 67 71  1  0
 68 67  1  0
 69 70  1  0
 69 68  1  0
 70 66  1  0
 71 72  2  0
 72 73  1  0
 74 73  2  0
 75 74  1  0
 76 50  1  0
 76 81  1  0
 76 77  1  0
 77 80  1  1
 77 78  1  0
 79 77  1  0
 81 84  1  0
 82 86  1  0
 82 81  1  0
 83 82  2  0
 86 85  1  0
 88 86  1  0
 88 89  1  0
 88 87  1  0
M  ISO  4   8 100  16 100  48 101  49 101
M  END
>  <TORSDO>  (2) 
F 19

>  <SCORE>  (2) 
-13.742

>  <name>  (2) 
1

>  <ligand_id>  (2) 
1

>  <original_smiles>  (2) 
[H]c1c([H])c([H])c2c(c1[H])C([H])([H])C([H])([H])C([H])([H])C2([H])N([H])C(=O)C1([H])N(C(=O)C([H])(N([H])C(=O)C([H])(N([H])C([H])([H])[H])C([H])([H])[H])C(C([H])([H])[H])(C([H])([H])[H])C([H])([H])[H])C([H])([H])c2c([H])c(OC([H])([H])C([H])([H])Oc3c([H])c([H])c(N([H])C(=O)N4C([H])([H])C([H])([H])C([H])([H])C([H])(n5nc(-c6c([H])c([H])c(Oc7c([H])c([H])c(F)c([H])c7F)c([H])c6[H])c(C(=O)N([H])[H])c5N([H])[H])C4([H])[H])c([H])c3F)c([H])c([H])c2C1([H])[H]

>  <smiles>  (2) 
[H]c1c([H])c([H])c2c(c1[H])C([H])([H])C([H])([H])C([H])([H])C2([H])N([H])C(=O)C1([H])N(C(=O)C([H])(N([H])C(=O)C([H])(N([H])C([H])([H])[H])C([H])([H])[H])C(C([H])([H])[H])(C([H])([H])[H])C([H])([H])[H])C([H])([H])c2c([H])c(OC([H])([H])C([H])([H])Oc3c([H])c([H])c(N([H])C(=O)N4C([H])([H])C([H])([H])C([H])([H])C([H])(n5nc(-c6c([H])c([H])c(Oc7c([H])c([H])c(F)c([H])c7F)c([H])c6[H])c(C(=O)N([H])[H])c5N([H])[H])C4([H])[H])c([H])c3F)c([H])c([H])c2C1([H])[H]

$$$$
2:0:0
     RDKit          3D

 90 98  0  0  1  0  0  0  0  0999 V2000
  -28.9310  -23.4160   20.2220 C   0  0  0  0  0  0  0  0  0  0  0  0
  -28.4630  -22.0840   20.1210 N   0  0  0  0  0  0  0  0  0  0  0  0
  -30.1160  -23.6430   20.4820 O   0  0  0  0  0  0  0  0  0  0  0  0
  -27.4640  -22.1140   19.9670 H   0  0  0  0  0  0  0  0  0  0  0  0
  -27.9860  -19.5960   20.3820 C   0  0  0  0  0  3  0  0  0  0  0  0
  -30.2740  -20.0540   20.0680 C   0  0  0  0  0  3  0  0  0  0  0  0
  -28.2670  -18.1810   20.4180 C   0  0  0  0  0  3  0  0  0  0  0  0
  -30.5590  -18.6110   20.0910 C   0  0  0  0  0  3  0  0  0  0  0  0
  -28.9570  -20.6310   20.2070 C   0  0  0  0  0  0  0  0  0  0  0  0
  -29.5590  -17.5830   20.2670 C   0  0  0  0  0  0  0  0  0  0  0  0
  -30.5130  -14.9770   20.0040 C   0  0  0  0  0  0  0  0  0  0  0  0
  -30.3820  -12.6540   18.9940 C   0  0  0  0  0  2  0  0  0  0  0  0
  -29.3680  -12.6620   17.8240 C   0  0  0  0  0  2  0  0  0  0  0  0
  -27.9300  -12.4380   18.3350 C   0  0  0  0  0  2  0  0  0  0  0  0
  -27.6000  -13.3170   19.5690 C   0  0  0  0  0  3  0  0  0  0  0  0
  -28.7220  -13.2610   20.6290 C   0  0  0  0  0  2  0  0  0  0  0  0
  -29.9630  -13.6970   19.9700 N   0  0  0  0  0  0  0  0  0  0  0  0
  -31.6770  -15.1220   19.6110 O   0  0  0  0  0  0  0  0  0  0  0  0
  -29.6540  -16.0530   20.3280 N   0  0  0  0  0  0  0  0  0  0  0  0
  -28.7800  -15.6530   20.6320 H   0  0  0  0  0  0  0  0  0  0  0  0
  -25.2640  -13.8770   20.4600 C   0  0  0  0  0  0  0  0  0  0  0  0
  -24.2230  -13.0910   20.8730 C   0  0  0  0  0  0  0  0  0  0  0  0
  -24.6820  -11.7420   20.7720 C   0  0  0  0  0  0  0  0  0  0  0  0
  -26.2900  -13.0060   20.1330 N   0  0  0  0  0  0  0  0  0  0  0  0
  -25.9530  -11.7150   20.3840 N   0  0  0  0  0  0  0  0  0  0  0  0
  -23.9660  -10.4750   20.9660 C   0  0  0  0  0  0  0  0  0  0  0  0
  -24.4190   -9.5040   21.8880 C   0  0  0  0  0  3  0  0  0  0  0  0
  -23.7010   -8.3020   22.0710 C   0  0  0  0  0  3  0  0  0  0  0  0
  -22.5180   -8.0620   21.3330 C   0  0  0  0  0  0  0  0  0  0  0  0
  -22.0850   -9.0220   20.4000 C   0  0  0  0  0  3  0  0  0  0  0  0
  -22.8030  -10.2140   20.2150 C   0  0  0  0  0  3  0  0  0  0  0  0
  -21.7710   -6.9130   21.4260 O   0  0  0  0  0  0  0  0  0  0  0  0
  -21.6980   -6.1940   22.5920 C   0  0  0  0  0  0  0  0  0  0  0  0
  -21.2190   -6.7650   23.7910 C   0  0  0  0  0  3  0  0  0  0  0  0
  -21.0960   -5.9710   24.9500 C   0  0  0  0  0  3  0  0  0  0  0  0
  -21.4430   -4.6080   24.9090 C   0  0  0  0  0  0  0  0  0  0  0  0
  -21.9150   -4.0360   23.7150 C   0  0  0  0  0  3  0  0  0  0  0  0
  -22.0400   -4.8260   22.5590 C   0  0  0  0  0  0  0  0  0  0  0  0
  -22.4760   -4.2660   21.4050 F   0  0  0  0  0  0  0  0  0  0  0  0
  -21.3170   -3.8430   26.0190 F   0  0  0  0  0  0  0  0  0  0  0  0
  -22.8450  -13.5600   21.2390 C   0  0  0  0  0  0  0  0  0  0  0  0
  -22.1690  -12.8420   22.1280 N   0  0  0  0  0  0  0  0  0  0  0  0
  -22.3770  -14.5980   20.7720 O   0  0  0  0  0  0  0  0  0  0  0  0
  -22.5610  -12.0010   22.5270 H   0  0  0  0  0  0  0  0  0  0  0  0
  -21.2460  -13.1360   22.4160 H   0  0  0  0  0  0  0  0  0  0  0  0
  -25.4150  -15.2520   20.3080 N   0  0  0  0  0  0  0  0  0  0  0  0
  -24.6390  -15.8890   20.4550 H   0  0  0  0  0  0  0  0  0  0  0  0
  -26.1990  -15.6880   19.8400 H   0  0  0  0  0  0  0  0  0  0  0  0
  -27.9110  -24.7020   19.9780 C   0  0  0  0  0  2  0  0  0  0  0  0
  -28.2560  -26.1990   20.2280 O   0  0  0  0  0  0  0  0  0  0  0  0
  -24.6290  -31.8650   23.2570 C   0  0  0  0  0  0  0  0  0  0  0  0
  -27.2090  -27.1930   20.1680 C   0  0  0  0  0  0  0  0  0  0  0  0
  -23.4300  -30.4920   21.5980 C   0  0  0  0  0  3  0  0  0  0  0  0
  -24.8800  -28.9390   20.1560 C   0  0  0  0  0  0  0  0  0  0  0  0
  -25.9860  -30.7580   21.4420 C   0  0  0  0  0  2  0  0  0  0  0  0
  -26.0600  -29.3750   20.7720 C   0  0  0  0  0  0  0  0  0  0  0  0
  -27.2250  -28.5190   20.7620 C   0  0  0  0  0  3  0  0  0  0  0  0
  -26.0000  -26.8630   19.5110 C   0  0  0  0  0  3  0  0  0  0  0  0
  -24.8630  -27.6960   19.5110 C   0  0  0  0  0  3  0  0  0  0  0  0
  -23.6540  -29.8350   20.2110 C   0  0  0  0  0  2  0  0  0  0  0  0
  -24.7020  -31.0590   22.1540 N   0  0  0  0  0  0  0  0  0  0  0  0
  -23.5430  -32.1440   23.7860 O   0  0  0  0  0  0  0  0  0  0  0  0
  -22.7490  -29.4720   22.5450 C   0  0  0  0  0  0  0  0  0  0  0  0
  -21.4220  -29.2990   22.4060 N   0  0  0  0  0  0  0  0  0  0  0  0
  -23.4160  -28.8410   23.3690 O   0  0  0  0  0  0  0  0  0  0  0  0
  -20.9400  -29.8590   21.7180 H   0  0  0  0  0  0  0  0  0  0  0  0
  -18.0400  -28.0900   22.8780 C   0  0  0  0  0  0  0  0  0  0  0  0
  -20.5970  -28.3540   23.1640 C   0  0  0  0  0  3  0  0  0  0  0  0
  -20.7040  -26.9270   22.5780 C   0  0  0  0  0  2  0  0  0  0  0  0
  -19.6090  -26.6110   21.5540 C   0  0  0  0  0  2  0  0  0  0  0  0
  -18.2230  -26.7480   22.1900 C   0  0  0  0  0  2  0  0  0  0  0  0
  -19.1540  -28.8510   23.3210 C   0  0  0  0  0  0  0  0  0  0  0  0
  -18.9270  -30.1070   23.9260 C   0  0  0  0  0  3  0  0  0  0  0  0
  -17.6190  -30.6010   24.0910 C   0  0  0  0  0  3  0  0  0  0  0  0
  -16.5210  -29.8380   23.6630 C   0  0  0  0  0  3  0  0  0  0  0  0
  -16.7310  -28.5830   23.0620 C   0  0  0  0  0  3  0  0  0  0  0  0
  -25.9070  -32.4900   23.8940 C   0  0  0  0  0  3  0  0  0  0  0  0
  -25.6030  -33.8920   24.2220 N   0  0  0  0  0  0  0  0  0  0  0  0
  -25.9250  -34.9430   23.4550 C   0  0  0  0  0  0  0  0  0  0  0  0
  -26.5760  -34.8340   22.4130 O   0  0  0  0  0  0  0  0  0  0  0  0
  -25.0230  -34.0500   25.0320 H   0  0  0  0  0  0  0  0  0  0  0  0
  -24.1830  -36.7330   23.1470 C   0  0  0  0  0  1  0  0  0  0  0  0
  -25.4530  -36.3360   23.9180 C   0  0  0  0  0  3  0  0  0  0  0  0
  -27.6100  -37.2370   24.6730 C   0  0  0  0  0  1  0  0  0  0  0  0
  -26.4790  -37.3900   23.7600 N   0  0  0  0  0  0  0  0  0  0  0  0
  -26.0760  -38.3110   23.9070 H   0  0  0  0  0  0  0  0  0  0  0  0
  -26.3980  -31.7190   25.1810 C   0  0  1  0  0  0  0  0  0  0  0  0
  -25.2890  -31.4950   26.2350 C   0  0  0  0  0  1  0  0  0  0  0  0
  -26.9750  -30.3350   24.8060 C   0  0  0  0  0  1  0  0  0  0  0  0
  -27.5470  -32.5060   25.8560 C   0  0  0  0  0  1  0  0  0  0  0  0
  1  3  2  0
  2  9  1  0
  2  1  1  0
  4  2  1  0
  5  7  1  0
  6  8  2  0
  6  9  1  0
  8 10  1  0
  9  5  2  0
 10 19  1  0
 10  7  2  0
 11 19  1  0
 12 17  1  0
 13 14  1  0
 13 12  1  0
 15 14  1  0
 15 24  1  0
 15 16  1  0
 17 11  1  0
 17 16  1  0
 18 11  2  0
 19 20  1  0
 21 22  2  0
 22 41  1  0
 23 22  1  0
 23 26  1  0
 24 25  1  0
 24 21  1  0
 25 23  2  0
 26 27  1  0
 27 28  2  0
 29 32  1  0
 29 28  1  0
 30 29  2  0
 31 30  1  0
 31 26  2  0
 32 33  1  0
 33 34  1  0
 34 35  2  0
 36 35  1  0
 36 40  1  0
 37 36  2  0
 38 33  2  0
 38 37  1  0
 39 38  1  0
 41 42  1  0
 42 45  1  0
 42 44  1  0
 43 41  2  0
 46 47  1  0
 46 21  1  0
 48 46  1  0
 49  1  1  0
 49 50  1  0
 51 62  2  0
 52 50  1  0
 52 57  1  0
 53 61  1  0
 53 63  1  0
 54 60  1  0
 54 56  1  0
 55 61  1  0
 56 55  1  0
 57 56  2  0
 58 52  2  0
 59 58  1  0
 59 54  2  0
 60 53  1  0
 61 51  1  0
 63 65  2  0
 64 63  1  0
 66 64  1  0
 67 76  2  0
 67 72  1  0
 68 64  1  0
 68 72  1  0
 69 68  1  0
 70 71  1  0
 70 69  1  0
 71 67  1  0
 72 73  2  0
 73 74  1  0
 75 74  2  0
 76 75  1  0
 77 51  1  0
 77 78  1  0
 77 87  1  0
 78 81  1  0
 79 83  1  0
 79 78  1  0
 80 79  2  0
 83 82  1  0
 85 86  1  0
 85 83  1  0
 85 84  1  0
 87 90  1  1
 87 88  1  0
 89 87  1  0
M  ISO  4  11 100  19 100  49 101  50 101
M  END
>  <TORSDO>  (3) 
F 18

>  <SCORE>  (3) 
-14.555

>  <name>  (3) 
2

>  <ligand_id>  (3) 
2

>  <original_smiles>  (3) 
[H]c1c([H])c([H])c2c(c1[H])C([H])([H])C([H])([H])C([H])([H])C2([H])N([H])C(=O)C1([H])N(C(=O)C([H])(N([H])C(=O)C([H])(N([H])C([H])([H])[H])C([H])([H])[H])C(C([H])([H])[H])(C([H])([H])[H])C([H])([H])[H])C([H])([H])c2c([H])c(OC([H])([H])C(=O)N([H])c3c([H])c([H])c(N([H])C(=O)N4C([H])([H])C([H])([H])C([H])([H])C([H])(n5nc(-c6c([H])c([H])c(Oc7c([H])c([H])c(F)c([H])c7F)c([H])c6[H])c(C(=O)N([H])[H])c5N([H])[H])C4([H])[H])c([H])c3[H])c([H])c([H])c2C1([H])[H]

>  <smiles>  (3) 
[H]c1c([H])c([H])c2c(c1[H])C([H])([H])C([H])([H])C([H])([H])C2([H])N([H])C(=O)C1([H])N(C(=O)C([H])(N([H])C(=O)C([H])(N([H])C([H])([H])[H])C([H])([H])[H])C(C([H])([H])[H])(C([H])([H])[H])C([H])([H])[H])C([H])([H])c2c([H])c(OC([H])([H])C(=O)N([H])c3c([H])c([H])c(N([H])C(=O)N4C([H])([H])C([H])([H])C([H])([H])C([H])(n5nc(-c6c([H])c([H])c(Oc7c([H])c([H])c(F)c([H])c7F)c([H])c6[H])c(C(=O)N([H])[H])c5N([H])[H])C4([H])[H])c([H])c3[H])c([H])c([H])c2C1([H])[H]

$$$$
3:0:0
     RDKit          3D

 93101  0  0  1  0  0  0  0  0999 V2000
  -28.1750  -19.5940   20.3320 C   0  0  0  0  0  3  0  0  0  0  0  0
  -30.7540  -18.6230   20.5700 C   0  0  0  0  0  3  0  0  0  0  0  0
  -29.1640  -20.6320   20.3480 C   0  0  0  0  0  0  0  0  0  0  0  0
  -29.7410  -17.5970   20.5280 C   0  0  0  0  0  0  0  0  0  0  0  0
  -28.4330  -18.1670   20.4360 C   0  0  0  0  0  0  0  0  0  0  0  0
  -30.4850  -20.0650   20.4840 C   0  0  0  0  0  0  0  0  0  0  0  0
  -31.5460  -20.9060   20.4800 F   0  0  0  0  0  0  0  0  0  0  0  0
  -30.6560  -14.9940   20.1250 C   0  0  0  0  0  0  0  0  0  0  0  0
  -30.5160  -12.7070   19.0400 C   0  0  0  0  0  2  0  0  0  0  0  0
  -29.5040  -12.7530   17.8700 C   0  0  0  0  0  2  0  0  0  0  0  0
  -28.0690  -12.5040   18.3750 C   0  0  0  0  0  2  0  0  0  0  0  0
  -27.7330  -13.3430   19.6360 C   0  0  0  0  0  3  0  0  0  0  0  0
  -28.8560  -13.2620   20.6930 C   0  0  0  0  0  2  0  0  0  0  0  0
  -30.0990  -13.7190   20.0500 N   0  0  0  0  0  0  0  0  0  0  0  0
  -31.8120  -15.1500   19.7170 O   0  0  0  0  0  0  0  0  0  0  0  0
  -29.8250  -16.0630   20.5270 N   0  0  0  0  0  0  0  0  0  0  0  0
  -28.9680  -15.6800   20.8970 H   0  0  0  0  0  0  0  0  0  0  0  0
  -25.3790  -13.8510   20.5100 C   0  0  0  0  0  0  0  0  0  0  0  0
  -24.3490  -13.0420   20.9040 C   0  0  0  0  0  0  0  0  0  0  0  0
  -24.8350  -11.7030   20.8010 C   0  0  0  0  0  0  0  0  0  0  0  0
  -26.4260  -13.0030   20.1880 N   0  0  0  0  0  0  0  0  0  0  0  0
  -26.1090  -11.7030   20.4250 N   0  0  0  0  0  0  0  0  0  0  0  0
  -24.1410  -10.4210   20.9800 C   0  0  0  0  0  0  0  0  0  0  0  0
  -24.6060   -9.4490   21.8930 C   0  0  0  0  0  3  0  0  0  0  0  0
  -23.9090   -8.2330   22.0620 C   0  0  0  0  0  3  0  0  0  0  0  0
  -22.7330   -7.9800   21.3180 C   0  0  0  0  0  0  0  0  0  0  0  0
  -22.2860   -8.9410   20.3940 C   0  0  0  0  0  3  0  0  0  0  0  0
  -22.9840  -10.1480   20.2220 C   0  0  0  0  0  3  0  0  0  0  0  0
  -22.0060   -6.8170   21.3980 O   0  0  0  0  0  0  0  0  0  0  0  0
  -21.9270   -6.0940   22.5610 C   0  0  0  0  0  0  0  0  0  0  0  0
  -21.4060   -6.6520   23.7500 C   0  0  0  0  0  3  0  0  0  0  0  0
  -21.2780   -5.8540   24.9040 C   0  0  0  0  0  3  0  0  0  0  0  0
  -21.6620   -4.5000   24.8710 C   0  0  0  0  0  0  0  0  0  0  0  0
  -22.1770   -3.9420   23.6880 C   0  0  0  0  0  3  0  0  0  0  0  0
  -22.3060   -4.7370   22.5350 C   0  0  0  0  0  0  0  0  0  0  0  0
  -22.7830   -4.1900   21.3910 F   0  0  0  0  0  0  0  0  0  0  0  0
  -21.5330   -3.7320   25.9780 F   0  0  0  0  0  0  0  0  0  0  0  0
  -22.9590  -13.4830   21.2650 C   0  0  0  0  0  0  0  0  0  0  0  0
  -22.3080  -12.7740   22.1780 N   0  0  0  0  0  0  0  0  0  0  0  0
  -22.4610  -14.4940   20.7700 O   0  0  0  0  0  0  0  0  0  0  0  0
  -22.7260  -11.9570   22.6000 H   0  0  0  0  0  0  0  0  0  0  0  0
  -21.3810  -13.0540   22.4630 H   0  0  0  0  0  0  0  0  0  0  0  0
  -25.5040  -15.2300   20.3760 N   0  0  0  0  0  0  0  0  0  0  0  0
  -24.7270  -15.8560   20.5500 H   0  0  0  0  0  0  0  0  0  0  0  0
  -26.3440  -15.7150   20.0870 H   0  0  0  0  0  0  0  0  0  0  0  0
  -29.0990  -23.4160   20.3740 C   0  0  0  0  0  0  0  0  0  0  0  0
  -28.7240  -22.0820   20.0750 N   0  0  0  0  0  0  0  0  0  0  0  0
  -30.0860  -23.6430   21.0780 O   0  0  0  0  0  0  0  0  0  0  0  0
  -27.8560  -22.1050   19.5590 H   0  0  0  0  0  0  0  0  0  0  0  0
  -28.2320  -24.7060   19.7910 C   0  0  0  0  0  2  0  0  0  0  0  0
  -28.4890  -26.2070   20.1330 O   0  0  0  0  0  0  0  0  0  0  0  0
  -24.5740  -31.7600   23.0210 C   0  0  0  0  0  0  0  0  0  0  0  0
  -27.4090  -27.1630   20.0370 C   0  0  0  0  0  0  0  0  0  0  0  0
  -23.4770  -30.3440   21.3290 C   0  0  0  0  0  3  0  0  0  0  0  0
  -25.0250  -28.8340   19.9420 C   0  0  0  0  0  0  0  0  0  0  0  0
  -26.0280  -30.6900   21.2590 C   0  0  0  0  0  2  0  0  0  0  0  0
  -26.1680  -29.3100   20.5960 C   0  0  0  0  0  0  0  0  0  0  0  0
  -27.3600  -28.4920   20.6260 C   0  0  0  0  0  3  0  0  0  0  0  0
  -26.2330  -26.7920   19.3460 C   0  0  0  0  0  3  0  0  0  0  0  0
  -25.0690  -27.5880   19.3030 C   0  0  0  0  0  3  0  0  0  0  0  0
  -23.7700  -29.6920   19.9530 C   0  0  0  0  0  2  0  0  0  0  0  0
  -24.7100  -30.9530   21.9260 N   0  0  0  0  0  0  0  0  0  0  0  0
  -23.4620  -32.0060   23.5120 O   0  0  0  0  0  0  0  0  0  0  0  0
  -22.7980  -29.3050   22.2560 C   0  0  0  0  0  0  0  0  0  0  0  0
  -21.4680  -29.1440   22.1280 N   0  0  0  0  0  0  0  0  0  0  0  0
  -23.4690  -28.6480   23.0570 O   0  0  0  0  0  0  0  0  0  0  0  0
  -20.9840  -29.7290   21.4620 H   0  0  0  0  0  0  0  0  0  0  0  0
  -18.0680  -28.0420   22.7140 C   0  0  0  0  0  0  0  0  0  0  0  0
  -20.6450  -28.1850   22.8710 C   0  0  0  0  0  3  0  0  0  0  0  0
  -20.6590  -26.7960   22.1920 C   0  0  0  0  0  2  0  0  0  0  0  0
  -19.4980  -26.5910   21.2130 C   0  0  0  0  0  2  0  0  0  0  0  0
  -18.1550  -26.7400   21.9340 C   0  0  0  0  0  2  0  0  0  0  0  0
  -19.2370  -28.7280   23.1400 C   0  0  0  0  0  0  0  0  0  0  0  0
  -19.0980  -29.9470   23.8350 C   0  0  0  0  0  3  0  0  0  0  0  0
  -17.8250  -30.4830   24.1040 C   0  0  0  0  0  3  0  0  0  0  0  0
  -16.6710  -29.7940   23.6930 C   0  0  0  0  0  3  0  0  0  0  0  0
  -16.7930  -28.5730   23.0050 C   0  0  0  0  0  3  0  0  0  0  0  0
  -25.8100  -32.4310   23.6960 C   0  0  0  0  0  3  0  0  0  0  0  0
  -26.3130  -31.6540   24.9770 C   0  0  1  0  0  0  0  0  0  0  0  0
  -25.1920  -31.3450   25.9970 C   0  0  0  0  0  1  0  0  0  0  0  0
  -26.9740  -30.3140   24.5850 C   0  0  0  0  0  1  0  0  0  0  0  0
  -27.3990  -32.4870   25.6990 C   0  0  0  0  0  1  0  0  0  0  0  0
  -25.4360  -33.8090   24.0480 N   0  0  0  0  0  0  0  0  0  0  0  0
  -25.7180  -34.8910   23.3100 C   0  0  0  0  0  0  0  0  0  0  0  0
  -26.3880  -34.8340   22.2750 O   0  0  0  0  0  0  0  0  0  0  0  0
  -24.8400  -33.9230   24.8550 H   0  0  0  0  0  0  0  0  0  0  0  0
  -23.9110  -36.6120   22.9930 C   0  0  0  0  0  1  0  0  0  0  0  0
  -25.1720  -36.2490   23.7940 C   0  0  0  0  0  3  0  0  0  0  0  0
  -27.2570  -37.2260   24.6450 C   0  0  0  0  0  1  0  0  0  0  0  0
  -26.1550  -37.3490   23.6950 N   0  0  0  0  0  0  0  0  0  0  0  0
  -25.7070  -38.2490   23.8450 H   0  0  0  0  0  0  0  0  0  0  0  0
  -26.0920  -17.6860   20.1750 C   0  0  0  0  0  1  0  0  0  0  0  0
  -27.4150  -17.2350   20.4330 O   0  0  0  0  0  0  0  0  0  0  0  0
  1  3  2  0
  1  5  1  0
  3  6  1  0
  4  2  1  0
  5  4  2  0
  6  2  2  0
  7  6  1  0
  8 16  1  0
  9 14  1  0
 10 11  1  0
 10  9  1  0
 12 11  1  0
 12 21  1  0
 12 13  1  0
 14  8  1  0
 14 13  1  0
 15  8  2  0
 16  4  1  0
 16 17  1  0
 18 19  2  0
 19 38  1  0
 20 19  1  0
 20 23  1  0
 21 22  1  0
 21 18  1  0
 22 20  2  0
 23 24  1  0
 24 25  2  0
 26 29  1  0
 26 25  1  0
 27 26  2  0
 28 27  1  0
 28 23  2  0
 29 30  1  0
 30 31  1  0
 31 32  2  0
 33 32  1  0
 33 37  1  0
 34 33  2  0
 35 30  2  0
 35 34  1  0
 36 35  1  0
 38 39  1  0
 39 42  1  0
 39 41  1  0
 40 38  2  0
 43 18  1  0
 43 44  1  0
 45 43  1  0
 46 48  2  0
 47  3  1  0
 47 46  1  0
 49 47  1  0
 50 51  1  0
 50 46  1  0
 52 63  2  0
 53 51  1  0
 53 58  1  0
 54 62  1  0
 54 64  1  0
 55 61  1  0
 55 57  1  0
 56 62  1  0
 57 58  2  0
 57 56  1  0
 59 53  2  0
 60 59  1  0
 60 55  2  0
 61 54  1  0
 62 52  1  0
 64 66  2  0
 65 64  1  0
 67 65  1  0
 68 77  2  0
 68 73  1  0
 69 65  1  0
 69 73  1  0
 70 69  1  0
 71 72  1  0
 71 70  1  0
 72 68  1  0
 73 74  2  0
 74 75  1  0
 76 75  2  0
 77 76  1  0
 78 52  1  0
 78 83  1  0
 78 79  1  0
 79 82  1  1
 79 80  1  0
 81 79  1  0
 83 86  1  0
 84 88  1  0
 84 83  1  0
 85 84  2  0
 88 87  1  0
 90 88  1  0
 90 91  1  0
 90 89  1  0
 92 93  1  0
 93  5  1  0
M  ISO  4   8 100  16 100  50 101  51 101
M  END
>  <TORSDO>  (4) 
F 19

>  <SCORE>  (4) 
-14.090

>  <name>  (4) 
3

>  <ligand_id>  (4) 
3

>  <original_smiles>  (4) 
[H]c1c([H])c([H])c2c(c1[H])C([H])([H])C([H])([H])C([H])([H])C2([H])N([H])C(=O)C1([H])N(C(=O)C([H])(N([H])C(=O)C([H])(N([H])C([H])([H])[H])C([H])([H])[H])C(C([H])([H])[H])(C([H])([H])[H])C([H])([H])[H])C([H])([H])c2c([H])c(OC([H])([H])C(=O)N([H])c3c([H])c(OC([H])([H])[H])c(N([H])C(=O)N4C([H])([H])C([H])([H])C([H])([H])C([H])(n5nc(-c6c([H])c([H])c(Oc7c([H])c([H])c(F)c([H])c7F)c([H])c6[H])c(C(=O)N([H])[H])c5N([H])[H])C4([H])[H])c([H])c3F)c([H])c([H])c2C1([H])[H]

>  <smiles>  (4) 
[H]c1c([H])c([H])c2c(c1[H])C([H])([H])C([H])([H])C([H])([H])C2([H])N([H])C(=O)C1([H])N(C(=O)C([H])(N([H])C(=O)C([H])(N([H])C([H])([H])[H])C([H])([H])[H])C(C([H])([H])[H])(C([H])([H])[H])C([H])([H])[H])C([H])([H])c2c([H])c(OC([H])([H])C(=O)N([H])c3c([H])c(OC([H])([H])[H])c(N([H])C(=O)N4C([H])([H])C([H])([H])C([H])([H])C([H])(n5nc(-c6c([H])c([H])c(Oc7c([H])c([H])c(F)c([H])c7F)c([H])c6[H])c(C(=O)N([H])[H])c5N([H])[H])C4([H])[H])c([H])c3F)c([H])c([H])c2C1([H])[H]

$$$$
4:0:0
     RDKit          3D

 92100  0  0  1  0  0  0  0  0999 V2000
  -30.2490  -19.9610   19.7850 C   0  0  0  0  0  3  0  0  0  0  0  0
  -30.5110  -18.5190   19.8700 C   0  0  0  0  0  3  0  0  0  0  0  0
  -27.9410  -19.5400   20.0170 C   0  0  0  0  0  3  0  0  0  0  0  0
  -28.9350  -20.5560   19.8400 C   0  0  0  0  0  0  0  0  0  0  0  0
  -29.4870  -17.5140   20.0310 C   0  0  0  0  0  0  0  0  0  0  0  0
  -28.1860  -18.1090   20.1240 C   0  0  0  0  0  0  0  0  0  0  0  0
  -30.3630  -14.8890   19.6940 C   0  0  0  0  0  0  0  0  0  0  0  0
  -30.1610  -12.5680   18.6920 C   0  0  0  0  0  2  0  0  0  0  0  0
  -29.1120  -12.5960   17.5540 C   0  0  0  0  0  2  0  0  0  0  0  0
  -27.6890  -12.3900   18.1090 C   0  0  0  0  0  2  0  0  0  0  0  0
  -27.4100  -13.2680   19.3560 C   0  0  0  0  0  3  0  0  0  0  0  0
  -28.5650  -13.1990   20.3790 C   0  0  0  0  0  2  0  0  0  0  0  0
  -29.7920  -13.6180   19.6810 N   0  0  0  0  0  0  0  0  0  0  0  0
  -31.5080  -15.0150   19.2450 O   0  0  0  0  0  0  0  0  0  0  0  0
  -29.5550  -15.9820   20.0810 N   0  0  0  0  0  0  0  0  0  0  0  0
  -28.7040  -15.6230   20.4900 H   0  0  0  0  0  0  0  0  0  0  0  0
  -25.1090  -13.8480   20.3180 C   0  0  0  0  0  0  0  0  0  0  0  0
  -24.0720  -13.0750   20.7590 C   0  0  0  0  0  0  0  0  0  0  0  0
  -24.5140  -11.7210   20.6450 C   0  0  0  0  0  0  0  0  0  0  0  0
  -26.1170  -12.9690   19.9610 N   0  0  0  0  0  0  0  0  0  0  0  0
  -25.7720  -11.6810   20.2200 N   0  0  0  0  0  0  0  0  0  0  0  0
  -23.7900  -10.4610   20.8630 C   0  0  0  0  0  0  0  0  0  0  0  0
  -24.2580   -9.4870   21.7730 C   0  0  0  0  0  3  0  0  0  0  0  0
  -23.5320   -8.2940   21.9790 C   0  0  0  0  0  3  0  0  0  0  0  0
  -22.3260   -8.0660   21.2750 C   0  0  0  0  0  0  0  0  0  0  0  0
  -21.8770   -9.0280   20.3550 C   0  0  0  0  0  3  0  0  0  0  0  0
  -22.6030  -10.2140   20.1470 C   0  0  0  0  0  3  0  0  0  0  0  0
  -21.5700   -6.9250   21.3920 O   0  0  0  0  0  0  0  0  0  0  0  0
  -21.5220   -6.2090   22.5610 C   0  0  0  0  0  0  0  0  0  0  0  0
  -21.0980   -6.7920   23.7750 C   0  0  0  0  0  3  0  0  0  0  0  0
  -20.9970   -6.0030   24.9380 C   0  0  0  0  0  3  0  0  0  0  0  0
  -21.3100   -4.6310   24.8880 C   0  0  0  0  0  0  0  0  0  0  0  0
  -21.7270   -4.0470   23.6800 C   0  0  0  0  0  3  0  0  0  0  0  0
  -21.8290   -4.8340   22.5190 C   0  0  0  0  0  0  0  0  0  0  0  0
  -22.2110   -4.2610   21.3520 F   0  0  0  0  0  0  0  0  0  0  0  0
  -21.2060   -3.8720   26.0040 F   0  0  0  0  0  0  0  0  0  0  0  0
  -22.7120  -13.5580   21.1710 C   0  0  0  0  0  0  0  0  0  0  0  0
  -22.0640  -12.8540   22.0910 N   0  0  0  0  0  0  0  0  0  0  0  0
  -22.2370  -14.5970   20.7140 O   0  0  0  0  0  0  0  0  0  0  0  0
  -22.4620  -12.0140   22.4840 H   0  0  0  0  0  0  0  0  0  0  0  0
  -21.1550  -13.1610   22.4090 H   0  0  0  0  0  0  0  0  0  0  0  0
  -25.2680  -15.2230   20.1700 N   0  0  0  0  0  0  0  0  0  0  0  0
  -24.5200  -15.8710   20.3840 H   0  0  0  0  0  0  0  0  0  0  0  0
  -26.1070  -15.6810   19.8410 H   0  0  0  0  0  0  0  0  0  0  0  0
  -28.9340  -23.3380   19.7560 C   0  0  0  0  0  0  0  0  0  0  0  0
  -28.4760  -22.0050   19.6120 N   0  0  0  0  0  0  0  0  0  0  0  0
  -30.0590  -23.5630   20.2130 O   0  0  0  0  0  0  0  0  0  0  0  0
  -27.5120  -22.0370   19.3030 H   0  0  0  0  0  0  0  0  0  0  0  0
  -27.9910  -24.6260   19.3040 C   0  0  0  0  0  2  0  0  0  0  0  0
  -28.2910  -26.1250   19.6000 O   0  0  0  0  0  0  0  0  0  0  0  0
  -24.5210  -31.5370   22.9170 C   0  0  0  0  0  0  0  0  0  0  0  0
  -27.2110  -27.0880   19.5990 C   0  0  0  0  0  0  0  0  0  0  0  0
  -23.3480  -30.2040   21.2090 C   0  0  0  0  0  3  0  0  0  0  0  0
  -24.8300  -28.7620   19.6870 C   0  0  0  0  0  0  0  0  0  0  0  0
  -25.8930  -30.5540   21.0440 C   0  0  0  0  0  2  0  0  0  0  0  0
  -26.0020  -29.2060   20.3110 C   0  0  0  0  0  0  0  0  0  0  0  0
  -27.1930  -28.3860   20.2530 C   0  0  0  0  0  3  0  0  0  0  0  0
  -26.0050  -26.7510   18.9420 C   0  0  0  0  0  3  0  0  0  0  0  0
  -24.8440  -27.5480   18.9880 C   0  0  0  0  0  3  0  0  0  0  0  0
  -23.5770  -29.6170   19.7920 C   0  0  0  0  0  2  0  0  0  0  0  0
  -24.6060  -30.7840   21.7790 N   0  0  0  0  0  0  0  0  0  0  0  0
  -23.4310  -31.7600   23.4660 O   0  0  0  0  0  0  0  0  0  0  0  0
  -22.7070  -29.1230   22.1150 C   0  0  0  0  0  0  0  0  0  0  0  0
  -21.3740  -28.9600   22.0280 N   0  0  0  0  0  0  0  0  0  0  0  0
  -23.4090  -28.4350   22.8590 O   0  0  0  0  0  0  0  0  0  0  0  0
  -20.8630  -29.5690   21.4040 H   0  0  0  0  0  0  0  0  0  0  0  0
  -18.0050  -27.7750   22.6350 C   0  0  0  0  0  0  0  0  0  0  0  0
  -20.5810  -27.9670   22.7580 C   0  0  0  0  0  3  0  0  0  0  0  0
  -20.6130  -26.5960   22.0440 C   0  0  0  0  0  2  0  0  0  0  0  0
  -19.4420  -26.3910   21.0770 C   0  0  0  0  0  2  0  0  0  0  0  0
  -18.1070  -26.4950   21.8210 C   0  0  0  0  0  2  0  0  0  0  0  0
  -19.1650  -28.4740   23.0610 C   0  0  0  0  0  0  0  0  0  0  0  0
  -19.0110  -29.6730   23.7880 C   0  0  0  0  0  3  0  0  0  0  0  0
  -17.7320  -30.1750   24.0890 C   0  0  0  0  0  3  0  0  0  0  0  0
  -16.5860  -29.4720   23.6750 C   0  0  0  0  0  3  0  0  0  0  0  0
  -16.7250  -28.2730   22.9540 C   0  0  0  0  0  3  0  0  0  0  0  0
  -25.7840  -32.1730   23.5710 C   0  0  0  0  0  3  0  0  0  0  0  0
  -26.3330  -31.3430   24.7970 C   0  0  1  0  0  0  0  0  0  0  0  0
  -25.2570  -31.0200   25.8600 C   0  0  0  0  0  1  0  0  0  0  0  0
  -26.9430  -30.0020   24.3270 C   0  0  0  0  0  1  0  0  0  0  0  0
  -27.4710  -32.1250   25.4920 C   0  0  0  0  0  1  0  0  0  0  0  0
  -25.4310  -33.5380   23.9940 N   0  0  0  0  0  0  0  0  0  0  0  0
  -25.7250  -34.6510   23.3080 C   0  0  0  0  0  0  0  0  0  0  0  0
  -26.3890  -34.6370   22.2690 O   0  0  0  0  0  0  0  0  0  0  0  0
  -24.8390  -33.6190   24.8070 H   0  0  0  0  0  0  0  0  0  0  0  0
  -23.9340  -36.4070   23.0990 C   0  0  0  0  0  1  0  0  0  0  0  0
  -25.2020  -35.9900   23.8630 C   0  0  0  0  0  3  0  0  0  0  0  0
  -27.3190  -36.8940   24.7210 C   0  0  0  0  0  1  0  0  0  0  0  0
  -26.1980  -37.0820   23.8020 N   0  0  0  0  0  0  0  0  0  0  0  0
  -25.7650  -37.9780   24.0100 H   0  0  0  0  0  0  0  0  0  0  0  0
  -25.8320  -17.6910   20.4190 C   0  0  0  0  0  1  0  0  0  0  0  0
  -27.1630  -17.2010   20.3100 O   0  0  0  0  0  0  0  0  0  0  0  0
  1  4  2  0
  1  2  1  0
  2  5  2  0
  3  6  2  0
  4  3  1  0
  5 15  1  0
  5  6  1  0
  6 92  1  0
  7 15  1  0
  8 13  1  0
  9 10  1  0
  9  8  1  0
 11 10  1  0
 11 20  1  0
 11 12  1  0
 13  7  1  0
 13 12  1  0
 14  7  2  0
 15 16  1  0
 17 18  2  0
 18 37  1  0
 19 18  1  0
 19 22  1  0
 20 21  1  0
 20 17  1  0
 21 19  2  0
 22 23  1  0
 23 24  2  0
 25 28  1  0
 25 24  1  0
 26 25  2  0
 27 26  1  0
 27 22  2  0
 28 29  1  0
 29 30  1  0
 30 31  2  0
 32 31  1  0
 32 36  1  0
 33 32  2  0
 34 29  2  0
 34 33  1  0
 35 34  1  0
 37 38  1  0
 38 41  1  0
 38 40  1  0
 39 37  2  0
 42 17  1  0
 42 43  1  0
 44 42  1  0
 45 47  2  0
 46 45  1  0
 46  4  1  0
 48 46  1  0
 49 50  1  0
 49 45  1  0
 51 62  2  0
 52 50  1  0
 52 57  1  0
 53 61  1  0
 53 63  1  0
 54 60  1  0
 54 56  1  0
 55 61  1  0
 56 55  1  0
 57 56  2  0
 58 59  1  0
 58 52  2  0
 59 54  2  0
 60 53  1  0
 61 51  1  0
 63 65  2  0
 64 63  1  0
 66 64  1  0
 67 76  2  0
 67 72  1  0
 68 64  1  0
 68 72  1  0
 69 68  1  0
 70 71  1  0
 70 69  1  0
 71 67  1  0
 72 73  2  0
 73 74  1  0
 75 74  2  0
 76 75  1  0
 77 51  1  0
 77 82  1  0
 77 78  1  0
 78 81  1  1
 78 79  1  0
 80 78  1  0
 82 85  1  0
 83 87  1  0
 83 82  1  0
 84 83  2  0
 87 86  1  0
 89 87  1  0
 89 90  1  0
 89 88  1  0
 92 91  1  0
M  ISO  4   7 100  15 100  49 101  50 101
M  END
>  <TORSDO>  (5) 
F 19

>  <SCORE>  (5) 
-12.859

>  <name>  (5) 
4

>  <ligand_id>  (5) 
4

>  <original_smiles>  (5) 
[H]c1c([H])c([H])c2c(c1[H])C([H])([H])C([H])([H])C([H])([H])C2([H])N([H])C(=O)C1([H])N(C(=O)C([H])(N([H])C(=O)C([H])(N([H])C([H])([H])[H])C([H])([H])[H])C(C([H])([H])[H])(C([H])([H])[H])C([H])([H])[H])C([H])([H])c2c([H])c(OC([H])([H])C(=O)N([H])c3c([H])c([H])c(N([H])C(=O)N4C([H])([H])C([H])([H])C([H])([H])C([H])(n5nc(-c6c([H])c([H])c(Oc7c([H])c([H])c(F)c([H])c7F)c([H])c6[H])c(C(=O)N([H])[H])c5N([H])[H])C4([H])[H])c(OC([H])([H])[H])c3[H])c([H])c([H])c2C1([H])[H]

>  <smiles>  (5) 
[H]c1c([H])c([H])c2c(c1[H])C([H])([H])C([H])([H])C([H])([H])C2([H])N([H])C(=O)C1([H])N(C(=O)C([H])(N([H])C(=O)C([H])(N([H])C([H])([H])[H])C([H])([H])[H])C(C([H])([H])[H])(C([H])([H])[H])C([H])([H])[H])C([H])([H])c2c([H])c(OC([H])([H])C(=O)N([H])c3c([H])c([H])c(N([H])C(=O)N4C([H])([H])C([H])([H])C([H])([H])C([H])(n5nc(-c6c([H])c([H])c(Oc7c([H])c([H])c(F)c([H])c7F)c([H])c6[H])c(C(=O)N([H])[H])c5N([H])[H])C4([H])[H])c(OC([H])([H])[H])c3[H])c([H])c([H])c2C1([H])[H]

$$$$
5:0:0
     RDKit          3D

 93101  0  0  1  0  0  0  0  0999 V2000
  -30.4880  -18.5690   19.4730 C   0  0  0  0  0  3  0  0  0  0  0  0
  -28.0680  -19.6370   20.2990 C   0  0  0  0  0  3  0  0  0  0  0  0
  -29.5530  -17.5840   19.9710 C   0  0  0  0  0  0  0  0  0  0  0  0
  -28.9740  -20.6230   19.7980 C   0  0  0  0  0  0  0  0  0  0  0  0
  -30.2100  -20.0160   19.3620 C   0  0  0  0  0  0  0  0  0  0  0  0
  -28.3350  -18.2190   20.3830 C   0  0  0  0  0  0  0  0  0  0  0  0
  -27.0700  -17.2190   21.0030 Cl  0  0  0  0  0  0  0  0  0  0  0  0
  -30.4260  -14.9440   19.6560 C   0  0  0  0  0  0  0  0  0  0  0  0
  -30.2190  -12.6160   18.6770 C   0  0  0  0  0  2  0  0  0  0  0  0
  -29.1630  -12.6270   17.5470 C   0  0  0  0  0  2  0  0  0  0  0  0
  -27.7470  -12.4150   18.1140 C   0  0  0  0  0  2  0  0  0  0  0  0
  -27.4700  -13.3050   19.3550 C   0  0  0  0  0  3  0  0  0  0  0  0
  -28.6320  -13.2590   20.3700 C   0  0  0  0  0  2  0  0  0  0  0  0
  -29.8520  -13.6730   19.6590 N   0  0  0  0  0  0  0  0  0  0  0  0
  -31.5720  -15.0620   19.2120 O   0  0  0  0  0  0  0  0  0  0  0  0
  -29.6180  -16.0470   20.0240 N   0  0  0  0  0  0  0  0  0  0  0  0
  -28.7800  -15.6870   20.4580 H   0  0  0  0  0  0  0  0  0  0  0  0
  -25.1740  -13.8840   20.3360 C   0  0  0  0  0  0  0  0  0  0  0  0
  -24.1430  -13.1100   20.7910 C   0  0  0  0  0  0  0  0  0  0  0  0
  -24.5850  -11.7560   20.6750 C   0  0  0  0  0  0  0  0  0  0  0  0
  -26.1810  -13.0050   19.9720 N   0  0  0  0  0  0  0  0  0  0  0  0
  -25.8400  -11.7170   20.2380 N   0  0  0  0  0  0  0  0  0  0  0  0
  -23.8630  -10.4970   20.8980 C   0  0  0  0  0  0  0  0  0  0  0  0
  -24.3480   -9.5160   21.7910 C   0  0  0  0  0  3  0  0  0  0  0  0
  -23.6260   -8.3220   22.0040 C   0  0  0  0  0  3  0  0  0  0  0  0
  -22.4030   -8.1010   21.3270 C   0  0  0  0  0  0  0  0  0  0  0  0
  -21.9350   -9.0720   20.4250 C   0  0  0  0  0  3  0  0  0  0  0  0
  -22.6570  -10.2570   20.2080 C   0  0  0  0  0  3  0  0  0  0  0  0
  -21.6470   -6.9610   21.4530 O   0  0  0  0  0  0  0  0  0  0  0  0
  -21.6380   -6.2250   22.6110 C   0  0  0  0  0  0  0  0  0  0  0  0
  -21.2560   -6.7890   23.8480 C   0  0  0  0  0  3  0  0  0  0  0  0
  -21.1960   -5.9810   25.0000 C   0  0  0  0  0  3  0  0  0  0  0  0
  -21.5050   -4.6110   24.9180 C   0  0  0  0  0  0  0  0  0  0  0  0
  -21.8790   -4.0460   23.6860 C   0  0  0  0  0  3  0  0  0  0  0  0
  -21.9430   -4.8520   22.5350 C   0  0  0  0  0  0  0  0  0  0  0  0
  -22.2840   -4.2990   21.3470 F   0  0  0  0  0  0  0  0  0  0  0  0
  -21.4390   -3.8320   26.0230 F   0  0  0  0  0  0  0  0  0  0  0  0
  -22.7850  -13.5940   21.2110 C   0  0  0  0  0  0  0  0  0  0  0  0
  -22.1410  -12.8900   22.1340 N   0  0  0  0  0  0  0  0  0  0  0  0
  -22.3070  -14.6310   20.7540 O   0  0  0  0  0  0  0  0  0  0  0  0
  -22.5440  -12.0530   22.5290 H   0  0  0  0  0  0  0  0  0  0  0  0
  -21.2330  -13.1950   22.4530 H   0  0  0  0  0  0  0  0  0  0  0  0
  -25.3260  -15.2570   20.1770 N   0  0  0  0  0  0  0  0  0  0  0  0
  -24.5810  -15.9040   20.4090 H   0  0  0  0  0  0  0  0  0  0  0  0
  -26.1450  -15.7160   19.8030 H   0  0  0  0  0  0  0  0  0  0  0  0
  -28.9120  -23.3860   19.8180 C   0  0  0  0  0  0  0  0  0  0  0  0
  -28.4920  -22.0590   19.5600 N   0  0  0  0  0  0  0  0  0  0  0  0
  -29.9760  -23.5990   20.4040 O   0  0  0  0  0  0  0  0  0  0  0  0
  -27.5630  -22.0770   19.1580 H   0  0  0  0  0  0  0  0  0  0  0  0
  -27.9980  -24.6850   19.3550 C   0  0  0  0  0  2  0  0  0  0  0  0
  -28.2950  -26.1670   19.7140 O   0  0  0  0  0  0  0  0  0  0  0  0
  -24.5470  -31.5970   23.0120 C   0  0  0  0  0  0  0  0  0  0  0  0
  -27.2220  -27.1330   19.7050 C   0  0  0  0  0  0  0  0  0  0  0  0
  -23.3700  -30.2550   21.3140 C   0  0  0  0  0  3  0  0  0  0  0  0
  -24.8460  -28.8070   19.7930 C   0  0  0  0  0  0  0  0  0  0  0  0
  -25.9130  -30.6030   21.1380 C   0  0  0  0  0  2  0  0  0  0  0  0
  -26.0200  -29.2530   20.4120 C   0  0  0  0  0  0  0  0  0  0  0  0
  -27.2090  -28.4310   20.3550 C   0  0  0  0  0  3  0  0  0  0  0  0
  -26.0160  -26.7940   19.0490 C   0  0  0  0  0  3  0  0  0  0  0  0
  -24.8550  -27.5920   19.0980 C   0  0  0  0  0  3  0  0  0  0  0  0
  -23.5930  -29.6620   19.8990 C   0  0  0  0  0  2  0  0  0  0  0  0
  -24.6300  -30.8350   21.8760 N   0  0  0  0  0  0  0  0  0  0  0  0
  -23.4590  -31.8220   23.5620 O   0  0  0  0  0  0  0  0  0  0  0  0
  -22.7320  -29.1760   22.2260 C   0  0  0  0  0  0  0  0  0  0  0  0
  -21.4060  -28.9840   22.1120 N   0  0  0  0  0  0  0  0  0  0  0  0
  -23.4320  -28.5180   23.0000 O   0  0  0  0  0  0  0  0  0  0  0  0
  -20.8960  -29.5710   21.4660 H   0  0  0  0  0  0  0  0  0  0  0  0
  -18.0520  -27.7200   22.6400 C   0  0  0  0  0  0  0  0  0  0  0  0
  -20.6160  -27.9880   22.8440 C   0  0  0  0  0  3  0  0  0  0  0  0
  -20.7090  -26.6000   22.1710 C   0  0  0  0  0  2  0  0  0  0  0  0
  -19.5780  -26.3350   21.1720 C   0  0  0  0  0  2  0  0  0  0  0  0
  -18.2160  -26.4230   21.8670 C   0  0  0  0  0  2  0  0  0  0  0  0
  -19.1780  -28.4630   23.0840 C   0  0  0  0  0  0  0  0  0  0  0  0
  -18.9680  -29.6780   23.7710 C   0  0  0  0  0  3  0  0  0  0  0  0
  -17.6640  -30.1520   24.0140 C   0  0  0  0  0  3  0  0  0  0  0  0
  -16.5530  -29.4050   23.5830 C   0  0  0  0  0  3  0  0  0  0  0  0
  -16.7480  -28.1900   22.9030 C   0  0  0  0  0  3  0  0  0  0  0  0
  -25.8130  -32.2350   23.6590 C   0  0  0  0  0  3  0  0  0  0  0  0
  -26.3340  -31.4360   24.9180 C   0  0  1  0  0  0  0  0  0  0  0  0
  -25.2410  -31.1610   25.9770 C   0  0  0  0  0  1  0  0  0  0  0  0
  -26.9310  -30.0750   24.4950 C   0  0  0  0  0  1  0  0  0  0  0  0
  -27.4770  -32.2240   25.6000 C   0  0  0  0  0  1  0  0  0  0  0  0
  -25.4750  -33.6160   24.0340 N   0  0  0  0  0  0  0  0  0  0  0  0
  -25.7860  -34.7000   23.3120 C   0  0  0  0  0  0  0  0  0  0  0  0
  -26.4540  -34.6450   22.2770 O   0  0  0  0  0  0  0  0  0  0  0  0
  -24.8800  -33.7310   24.8410 H   0  0  0  0  0  0  0  0  0  0  0  0
  -24.0210  -36.4730   23.0310 C   0  0  0  0  0  1  0  0  0  0  0  0
  -25.2760  -36.0650   23.8200 C   0  0  0  0  0  3  0  0  0  0  0  0
  -27.3990  -36.9680   24.6630 C   0  0  0  0  0  1  0  0  0  0  0  0
  -26.2870  -37.1420   23.7330 N   0  0  0  0  0  0  0  0  0  0  0  0
  -25.8640  -38.0500   23.9100 H   0  0  0  0  0  0  0  0  0  0  0  0
  -32.0730  -20.3700   17.8870 C   0  0  0  0  0  1  0  0  0  0  0  0
  -31.0890  -20.8970   18.7690 O   0  0  0  0  0  0  0  0  0  0  0  0
  1  3  1  0
  2  6  1  0
  3 16  1  0
  3  6  2  0
  4  2  2  0
  5  1  2  0
  5  4  1  0
  6  7  1  0
  8 14  1  0
  8 16  1  0
  9 14  1  0
 10 11  1  0
 10  9  1  0
 12 11  1  0
 12 21  1  0
 12 13  1  0
 14 13  1  0
 15  8  2  0
 16 17  1  0
 18 19  2  0
 19 38  1  0
 20 19  1  0
 20 23  1  0
 21 22  1  0
 21 18  1  0
 22 20  2  0
 23 24  1  0
 24 25  2  0
 26 29  1  0
 26 25  1  0
 27 26  2  0
 28 27  1  0
 28 23  2  0
 29 30  1  0
 30 31  1  0
 31 32  2  0
 33 32  1  0
 33 37  1  0
 34 33  2  0
 35 30  2  0
 35 34  1  0
 36 35  1  0
 38 39  1  0
 39 42  1  0
 39 41  1  0
 40 38  2  0
 43 18  1  0
 43 44  1  0
 45 43  1  0
 46 48  2  0
 47  4  1  0
 47 46  1  0
 49 47  1  0
 50 51  1  0
 50 46  1  0
 52 63  2  0
 53 51  1  0
 53 58  1  0
 54 62  1  0
 54 64  1  0
 55 61  1  0
 55 57  1  0
 56 62  1  0
 57 56  1  0
 58 57  2  0
 59 60  1  0
 59 53  2  0
 60 55  2  0
 61 54  1  0
 62 52  1  0
 64 66  2  0
 65 64  1  0
 67 65  1  0
 68 77  2  0
 68 73  1  0
 69 65  1  0
 69 73  1  0
 70 69  1  0
 71 72  1  0
 71 70  1  0
 72 68  1  0
 73 74  2  0
 74 75  1  0
 76 75  2  0
 77 76  1  0
 78 52  1  0
 78 83  1  0
 78 79  1  0
 79 82  1  1
 79 80  1  0
 81 79  1  0
 83 86  1  0
 84 88  1  0
 84 83  1  0
 85 84  2  0
 88 87  1  0
 90 88  1  0
 90 91  1  0
 90 89  1  0
 92 93  1  0
 93  5  1  0
M  ISO  4   8 100  16 100  50 101  51 101
M  END
>  <TORSDO>  (6) 
F 19

>  <SCORE>  (6) 
-12.677

>  <name>  (6) 
5

>  <ligand_id>  (6) 
5

>  <original_smiles>  (6) 
[H]c1c([H])c([H])c2c(c1[H])C([H])([H])C([H])([H])C([H])([H])C2([H])N([H])C(=O)C1([H])N(C(=O)C([H])(N([H])C(=O)C([H])(N([H])C([H])([H])[H])C([H])([H])[H])C(C([H])([H])[H])(C([H])([H])[H])C([H])([H])[H])C([H])([H])c2c([H])c(OC([H])([H])C(=O)N([H])c3c([H])c(Cl)c(N([H])C(=O)N4C([H])([H])C([H])([H])C([H])([H])C([H])(n5nc(-c6c([H])c([H])c(Oc7c([H])c([H])c(F)c([H])c7F)c([H])c6[H])c(C(=O)N([H])[H])c5N([H])[H])C4([H])[H])c([H])c3OC([H])([H])[H])c([H])c([H])c2C1([H])[H]

>  <smiles>  (6) 
[H]c1c([H])c([H])c2c(c1[H])C([H])([H])C([H])([H])C([H])([H])C2([H])N([H])C(=O)C1([H])N(C(=O)C([H])(N([H])C(=O)C([H])(N([H])C([H])([H])[H])C([H])([H])[H])C(C([H])([H])[H])(C([H])([H])[H])C([H])([H])[H])C([H])([H])c2c([H])c(OC([H])([H])C(=O)N([H])c3c([H])c(Cl)c(N([H])C(=O)N4C([H])([H])C([H])([H])C([H])([H])C([H])(n5nc(-c6c([H])c([H])c(Oc7c([H])c([H])c(F)c([H])c7F)c([H])c6[H])c(C(=O)N([H])[H])c5N([H])[H])C4([H])[H])c([H])c3OC([H])([H])[H])c([H])c([H])c2C1([H])[H]

$$$$
6:0:0
     RDKit          3D

 89 97  0  0  1  0  0  0  0  0999 V2000
  -30.6180  -18.5840   20.2340 C   0  0  0  0  0  3  0  0  0  0  0  0
  -30.3220  -20.0210   20.1180 C   0  0  0  0  0  3  0  0  0  0  0  0
  -28.3230  -18.1100   19.9970 C   0  0  0  0  0  3  0  0  0  0  0  0
  -29.6220  -17.5390   20.1790 C   0  0  0  0  0  0  0  0  0  0  0  0
  -28.9990  -20.5680   19.9200 C   0  0  0  0  0  0  0  0  0  0  0  0
  -28.0300  -19.5160   19.8660 C   0  0  0  0  0  0  0  0  0  0  0  0
  -26.7350  -19.8670   19.6790 F   0  0  0  0  0  0  0  0  0  0  0  0
  -30.5800  -14.9230   20.0660 C   0  0  0  0  0  0  0  0  0  0  0  0
  -30.4510  -12.5660   19.1460 C   0  0  0  0  0  2  0  0  0  0  0  0
  -29.4680  -12.5400   17.9490 C   0  0  0  0  0  2  0  0  0  0  0  0
  -28.0140  -12.3550   18.4280 C   0  0  0  0  0  2  0  0  0  0  0  0
  -27.6620  -13.2860   19.6170 C   0  0  0  0  0  3  0  0  0  0  0  0
  -28.7540  -13.2570   20.7090 C   0  0  0  0  0  2  0  0  0  0  0  0
  -30.0190  -13.6500   20.0680 N   0  0  0  0  0  0  0  0  0  0  0  0
  -31.7560  -15.0460   19.7010 O   0  0  0  0  0  0  0  0  0  0  0  0
  -29.7160  -16.0150   20.3160 N   0  0  0  0  0  0  0  0  0  0  0  0
  -28.8300  -15.6250   20.5980 H   0  0  0  0  0  0  0  0  0  0  0  0
  -25.3230  -13.9140   20.4530 C   0  0  0  0  0  0  0  0  0  0  0  0
  -24.2550  -13.1600   20.8530 C   0  0  0  0  0  0  0  0  0  0  0  0
  -24.6820  -11.7990   20.7750 C   0  0  0  0  0  0  0  0  0  0  0  0
  -26.3340  -13.0150   20.1560 N   0  0  0  0  0  0  0  0  0  0  0  0
  -25.9580  -11.7360   20.4130 N   0  0  0  0  0  0  0  0  0  0  0  0
  -23.9310  -10.5510   20.9660 C   0  0  0  0  0  0  0  0  0  0  0  0
  -24.3600   -9.5610   21.8760 C   0  0  0  0  0  3  0  0  0  0  0  0
  -23.6090   -8.3800   22.0560 C   0  0  0  0  0  3  0  0  0  0  0  0
  -22.4150   -8.1800   21.3260 C   0  0  0  0  0  0  0  0  0  0  0  0
  -22.0020   -9.1580   20.4040 C   0  0  0  0  0  3  0  0  0  0  0  0
  -22.7540  -10.3310   20.2210 C   0  0  0  0  0  3  0  0  0  0  0  0
  -21.6350   -7.0520   21.4170 O   0  0  0  0  0  0  0  0  0  0  0  0
  -21.5790   -6.3060   22.5670 C   0  0  0  0  0  0  0  0  0  0  0  0
  -21.1440   -6.8560   23.7920 C   0  0  0  0  0  3  0  0  0  0  0  0
  -21.0370   -6.0370   24.9340 C   0  0  0  0  0  3  0  0  0  0  0  0
  -21.3540   -4.6680   24.8510 C   0  0  0  0  0  0  0  0  0  0  0  0
  -21.7830   -4.1170   23.6300 C   0  0  0  0  0  3  0  0  0  0  0  0
  -21.8920   -4.9330   22.4910 C   0  0  0  0  0  0  0  0  0  0  0  0
  -22.2850   -4.3930   21.3120 F   0  0  0  0  0  0  0  0  0  0  0  0
  -21.2440   -3.8790   25.9450 F   0  0  0  0  0  0  0  0  0  0  0  0
  -22.8820  -13.6670   21.1860 C   0  0  0  0  0  0  0  0  0  0  0  0
  -22.1720  -12.9770   22.0720 N   0  0  0  0  0  0  0  0  0  0  0  0
  -22.4480  -14.7080   20.6950 O   0  0  0  0  0  0  0  0  0  0  0  0
  -22.5360  -12.1340   22.4910 H   0  0  0  0  0  0  0  0  0  0  0  0
  -21.2520  -13.2980   22.3390 H   0  0  0  0  0  0  0  0  0  0  0  0
  -25.5110  -15.2840   20.2900 N   0  0  0  0  0  0  0  0  0  0  0  0
  -24.7430  -15.9360   20.4050 H   0  0  0  0  0  0  0  0  0  0  0  0
  -26.3000  -15.6870   19.8030 H   0  0  0  0  0  0  0  0  0  0  0  0
  -28.5040  -21.9350   19.7320 O   0  0  0  0  0  0  0  0  0  0  0  0
  -29.0950  -23.3350   19.9090 C   0  0  0  0  0  3  0  0  0  0  0  0
  -28.1160  -24.6810   19.6400 C   0  0  0  0  0  3  0  0  0  0  0  0
  -28.3620  -26.1910   19.9150 O   0  0  0  0  0  0  0  0  0  0  0  0
  -24.5360  -31.6270   23.0850 C   0  0  0  0  0  0  0  0  0  0  0  0
  -27.2770  -27.1420   19.8750 C   0  0  0  0  0  0  0  0  0  0  0  0
  -23.3960  -30.2890   21.3560 C   0  0  0  0  0  3  0  0  0  0  0  0
  -24.9060  -28.8230   19.8830 C   0  0  0  0  0  0  0  0  0  0  0  0
  -25.9460  -30.6220   21.2520 C   0  0  0  0  0  2  0  0  0  0  0  0
  -26.0640  -29.2680   20.5340 C   0  0  0  0  0  0  0  0  0  0  0  0
  -27.2500  -28.4450   20.5130 C   0  0  0  0  0  3  0  0  0  0  0  0
  -26.0890  -26.7970   19.1910 C   0  0  0  0  0  3  0  0  0  0  0  0
  -24.9310  -27.6010   19.1980 C   0  0  0  0  0  3  0  0  0  0  0  0
  -23.6570  -29.6880   19.9500 C   0  0  0  0  0  2  0  0  0  0  0  0
  -24.6450  -30.8640   21.9540 N   0  0  0  0  0  0  0  0  0  0  0  0
  -23.4340  -31.8620   23.6050 O   0  0  0  0  0  0  0  0  0  0  0  0
  -22.7240  -29.2200   22.2530 C   0  0  0  0  0  0  0  0  0  0  0  0
  -21.3950  -29.0550   22.1190 N   0  0  0  0  0  0  0  0  0  0  0  0
  -23.3990  -28.5440   23.0340 O   0  0  0  0  0  0  0  0  0  0  0  0
  -20.9070  -29.6540   21.4680 H   0  0  0  0  0  0  0  0  0  0  0  0
  -18.0080  -27.8640   22.6020 C   0  0  0  0  0  0  0  0  0  0  0  0
  -20.5770  -28.0710   22.8320 C   0  0  0  0  0  3  0  0  0  0  0  0
  -20.6440  -26.6870   22.1430 C   0  0  0  0  0  2  0  0  0  0  0  0
  -19.5160  -26.4610   21.1320 C   0  0  0  0  0  2  0  0  0  0  0  0
  -18.1500  -26.5720   21.8170 C   0  0  0  0  0  2  0  0  0  0  0  0
  -19.1480  -28.5760   23.0650 C   0  0  0  0  0  0  0  0  0  0  0  0
  -18.9590  -29.7890   23.7640 C   0  0  0  0  0  3  0  0  0  0  0  0
  -17.6650  -30.2900   24.0000 C   0  0  0  0  0  3  0  0  0  0  0  0
  -16.5420  -29.5740   23.5510 C   0  0  0  0  0  3  0  0  0  0  0  0
  -16.7140  -28.3630   22.8590 C   0  0  0  0  0  3  0  0  0  0  0  0
  -25.7880  -32.2560   23.7670 C   0  0  0  0  0  3  0  0  0  0  0  0
  -26.2640  -31.4600   25.0450 C   0  0  1  0  0  0  0  0  0  0  0  0
  -25.1360  -31.1940   26.0690 C   0  0  0  0  0  1  0  0  0  0  0  0
  -26.8680  -30.0930   24.6470 C   0  0  0  0  0  1  0  0  0  0  0  0
  -27.3860  -32.2460   25.7630 C   0  0  0  0  0  1  0  0  0  0  0  0
  -25.4530  -33.6440   24.1230 N   0  0  0  0  0  0  0  0  0  0  0  0
  -25.7720  -34.7190   23.3900 C   0  0  0  0  0  0  0  0  0  0  0  0
  -26.4450  -34.6480   22.3590 O   0  0  0  0  0  0  0  0  0  0  0  0
  -24.8550  -33.7720   24.9260 H   0  0  0  0  0  0  0  0  0  0  0  0
  -24.0050  -36.4870   23.0910 C   0  0  0  0  0  1  0  0  0  0  0  0
  -25.2650  -36.0920   23.8780 C   0  0  0  0  0  3  0  0  0  0  0  0
  -27.3890  -37.0120   24.7010 C   0  0  0  0  0  1  0  0  0  0  0  0
  -26.2770  -37.1660   23.7680 N   0  0  0  0  0  0  0  0  0  0  0  0
  -25.8530  -38.0770   23.9260 H   0  0  0  0  0  0  0  0  0  0  0  0
  2  1  2  0
  3  4  2  0
  4  1  1  0
  4 16  1  0
  5  2  1  0
  6  5  2  0
  6  3  1  0
  7  6  1  0
  8 14  1  0
  8 16  1  0
  9 14  1  0
 10 11  1  0
 10  9  1  0
 12 11  1  0
 12 21  1  0
 12 13  1  0
 14 13  1  0
 15  8  2  0
 16 17  1  0
 18 19  2  0
 19 38  1  0
 20 19  1  0
 20 23  1  0
 21 22  1  0
 21 18  1  0
 22 20  2  0
 23 24  1  0
 24 25  2  0
 26 29  1  0
 26 25  1  0
 27 26  2  0
 28 27  1  0
 28 23  2  0
 29 30  1  0
 30 31  1  0
 31 32  2  0
 33 32  1  0
 33 37  1  0
 34 33  2  0
 35 30  2  0
 35 34  1  0
 36 35  1  0
 38 39  1  0
 39 42  1  0
 39 41  1  0
 40 38  2  0
 43 44  1  0
 43 18  1  0
 45 43  1  0
 46 47  1  0
 46  5  1  0
 48 47  2  0
 48 49  1  0
 50 61  2  0
 51 49  1  0
 51 56  1  0
 52 60  1  0
 52 62  1  0
 53 59  1  0
 53 55  1  0
 54 60  1  0
 55 54  1  0
 56 55  2  0
 57 58  1  0
 57 51  2  0
 58 53  2  0
 59 52  1  0
 60 50  1  0
 62 64  2  0
 63 62  1  0
 65 63  1  0
 66 75  2  0
 66 71  1  0
 67 63  1  0
 67 71  1  0
 68 67  1  0
 69 70  1  0
 69 68  1  0
 70 66  1  0
 71 72  2  0
 72 73  1  0
 74 73  2  0
 75 74  1  0
 76 50  1  0
 76 81  1  0
 76 77  1  0
 77 80  1  1
 77 78  1  0
 79 77  1  0
 81 84  1  0
 82 86  1  0
 82 81  1  0
 83 82  2  0
 86 85  1  0
 88 86  1  0
 88 89  1  0
 88 87  1  0
M  ISO  4   8 100  16 100  48 101  49 101
M  END
>  <TORSDO>  (7) 
F 19

>  <SCORE>  (7) 
-13.742

>  <name>  (7) 
6

>  <ligand_id>  (7) 
6

>  <original_smiles>  (7) 
[H]c1c([H])c([H])c2c(c1[H])C([H])([H])C([H])([H])C([H])([H])C2([H])N([H])C(=O)C1([H])N(C(=O)C([H])(N([H])C(=O)C([H])(N([H])C([H])([H])[H])C([H])([H])[H])C(C([H])([H])[H])(C([H])([H])[H])C([H])([H])[H])C([H])([H])c2c([H])c(OC([H])([H])C([H])([H])Oc3c([H])c([H])c(N([H])C(=O)N4C([H])([H])C([H])([H])C([H])([H])C([H])(n5nc(-c6c([H])c([H])c(Oc7c([H])c([H])c(F)c([H])c7F)c([H])c6[H])c(C(=O)N([H])[H])c5N([H])[H])C4([H])[H])c([H])c3F)c([H])c([H])c2C1([H])[H]

>  <smiles>  (7) 
[H]c1c([H])c([H])c2c(c1[H])C([H])([H])C([H])([H])C([H])([H])C2([H])N([H])C(=O)C1([H])N(C(=O)C([H])(N([H])C(=O)C([H])(N([H])C([H])([H])[H])C([H])([H])[H])C(C([H])([H])[H])(C([H])([H])[H])C([H])([H])[H])C([H])([H])c2c([H])c(OC([H])([H])C([H])([H])Oc3c([H])c([H])c(N([H])C(=O)N4C([H])([H])C([H])([H])C([H])([H])C([H])(n5nc(-c6c([H])c([H])c(Oc7c([H])c([H])c(F)c([H])c7F)c([H])c6[H])c(C(=O)N([H])[H])c5N([H])[H])C4([H])[H])c([H])c3F)c([H])c([H])c2C1([H])[H]

$$$$
7:0:0
     RDKit          3D

103111  0  0  1  0  0  0  0  0999 V2000
  -32.3010  -17.2460   19.2780 C   0  0  0  0  0  3  0  0  0  0  0  0
  -32.2330  -18.5810   18.7820 C   0  0  0  0  0  3  0  0  0  0  0  0
  -29.9780  -17.3830   19.8520 C   0  0  0  0  0  3  0  0  0  0  0  0
  -29.8970  -18.7250   19.3660 C   0  0  0  0  0  0  0  0  0  0  0  0
  -31.1660  -16.6110   19.8380 C   0  0  0  0  0  0  0  0  0  0  0  0
  -31.0500  -19.3800   18.8080 C   0  0  0  0  0  0  0  0  0  0  0  0
  -31.8770  -14.1280   20.1160 C   0  0  0  0  0  0  0  0  0  0  0  0
  -31.6210  -11.6960   19.6730 C   0  0  0  0  0  2  0  0  0  0  0  0
  -30.5960  -11.5270   18.5290 C   0  0  0  0  0  2  0  0  0  0  0  0
  -29.1550  -11.4960   19.0780 C   0  0  0  0  0  2  0  0  0  0  0  0
  -28.8740  -12.6460   20.0800 C   0  0  0  0  0  3  0  0  0  0  0  0
  -30.0030  -12.7590   21.1290 C   0  0  0  0  0  2  0  0  0  0  0  0
  -31.2740  -12.9320   20.4040 N   0  0  0  0  0  0  0  0  0  0  0  0
  -32.9870  -14.1770   19.5770 O   0  0  0  0  0  0  0  0  0  0  0  0
  -31.1180  -15.2430   20.3480 N   0  0  0  0  0  0  0  0  0  0  0  0
  -30.3010  -15.0340   20.9030 H   0  0  0  0  0  0  0  0  0  0  0  0
  -26.7260  -13.4960   21.2080 C   0  0  0  0  0  0  0  0  0  0  0  0
  -25.5880  -12.8530   21.6140 C   0  0  0  0  0  0  0  0  0  0  0  0
  -25.7920  -11.4690   21.3260 C   0  0  0  0  0  0  0  0  0  0  0  0
  -27.5600  -12.5100   20.7050 N   0  0  0  0  0  0  0  0  0  0  0  0
  -27.0100  -11.2760   20.8320 N   0  0  0  0  0  0  0  0  0  0  0  0
  -24.8780  -10.3240   21.4370 C   0  0  0  0  0  0  0  0  0  0  0  0
  -25.2050   -9.1920   22.2150 C   0  0  0  0  0  3  0  0  0  0  0  0
  -24.3010   -8.1110   22.3210 C   0  0  0  0  0  3  0  0  0  0  0  0
  -23.0560   -8.1580   21.6480 C   0  0  0  0  0  0  0  0  0  0  0  0
  -22.7470   -9.2790   20.8580 C   0  0  0  0  0  3  0  0  0  0  0  0
  -23.6490  -10.3510   20.7480 C   0  0  0  0  0  3  0  0  0  0  0  0
  -22.1280   -7.1460   21.6730 O   0  0  0  0  0  0  0  0  0  0  0  0
  -22.0200   -6.2950   22.7430 C   0  0  0  0  0  0  0  0  0  0  0  0
  -21.6950   -6.7610   24.0360 C   0  0  0  0  0  3  0  0  0  0  0  0
  -21.5240   -5.8440   25.0920 C   0  0  0  0  0  3  0  0  0  0  0  0
  -21.6680   -4.4630   24.8580 C   0  0  0  0  0  0  0  0  0  0  0  0
  -21.9870   -3.9970   23.5700 C   0  0  0  0  0  3  0  0  0  0  0  0
  -22.1580   -4.9100   22.5150 C   0  0  0  0  0  0  0  0  0  0  0  0
  -22.4430   -4.4550   21.2720 F   0  0  0  0  0  0  0  0  0  0  0  0
  -21.4980   -3.5810   25.8700 F   0  0  0  0  0  0  0  0  0  0  0  0
  -24.3400  -13.4970   22.1490 C   0  0  0  0  0  0  0  0  0  0  0  0
  -23.4690  -12.7140   22.7750 N   0  0  0  0  0  0  0  0  0  0  0  0
  -24.1560  -14.7090   22.0590 O   0  0  0  0  0  0  0  0  0  0  0  0
  -23.6290  -11.7220   22.8680 H   0  0  0  0  0  0  0  0  0  0  0  0
  -22.6280  -13.1140   23.1680 H   0  0  0  0  0  0  0  0  0  0  0  0
  -27.1120  -14.8340   21.2040 N   0  0  0  0  0  0  0  0  0  0  0  0
  -26.4770  -15.5710   21.4870 H   0  0  0  0  0  0  0  0  0  0  0  0
  -27.9660  -15.1810   20.7900 H   0  0  0  0  0  0  0  0  0  0  0  0
  -28.5760  -19.4080   19.5630 C   0  0  0  0  0  0  0  0  0  0  0  0
  -27.7110  -19.3080   18.5470 N   0  0  0  0  0  0  0  0  0  0  0  0
  -28.3160  -19.9780   20.6260 O   0  0  0  0  0  0  0  0  0  0  0  0
  -28.0150  -18.7910   17.7350 H   0  0  0  0  0  0  0  0  0  0  0  0
  -26.4010  -19.9490   18.4900 C   0  0  0  0  0  2  0  0  0  0  0  0
  -25.3680  -19.2270   19.3700 C   0  0  0  0  0  2  0  0  0  0  0  0
  -25.5770  -17.7050   19.4140 C   0  0  0  0  0  2  0  0  0  0  0  0
  -24.2790  -16.9370   19.6900 C   0  0  0  0  0  2  0  0  0  0  0  0
  -24.4700  -15.4150   19.6140 C   0  0  0  0  0  2  0  0  0  0  0  0
  -23.2060  -14.7010   19.1040 C   0  0  0  0  0  2  0  0  0  0  0  0
  -23.3890  -13.1990   18.8790 C   0  0  0  0  0  0  0  0  0  0  0  0
  -22.1510  -12.4010   18.5010 C   0  0  0  0  0  1  0  0  0  0  0  0
  -24.4900  -12.6500   18.9770 O   0  0  0  0  0  0  0  0  0  0  0  0
  -32.2280  -21.4790   19.0890 C   0  0  0  0  0  1  0  0  0  0  0  0
  -31.1600  -20.7640   18.3890 N   0  0  0  0  0  0  0  0  0  0  0  0
  -30.0740  -21.6060   17.7880 C   0  0  0  0  0  3  0  0  0  0  0  0
  -30.4800  -22.9750   17.0780 C   0  0  0  0  0  3  0  0  0  0  0  0
  -29.2800  -23.9090   16.6330 C   0  0  0  0  0  2  0  0  0  0  0  0
  -29.4480  -25.3770   16.5810 O   0  0  0  0  0  0  0  0  0  0  0  0
  -25.6320  -28.0760   22.0740 C   0  0  0  0  0  0  0  0  0  0  0  0
  -28.3660  -26.1640   17.0030 C   0  0  0  0  0  0  0  0  0  0  0  0
  -24.5530  -28.1270   19.8550 C   0  0  0  0  0  3  0  0  0  0  0  0
  -26.0810  -27.6580   17.8610 C   0  0  0  0  0  0  0  0  0  0  0  0
  -27.1070  -28.2350   20.0570 C   0  0  0  0  0  2  0  0  0  0  0  0
  -27.1980  -27.5550   18.6980 C   0  0  0  0  0  0  0  0  0  0  0  0
  -28.3460  -26.8250   18.2700 C   0  0  0  0  0  3  0  0  0  0  0  0
  -27.2270  -26.3270   16.1780 C   0  0  0  0  0  3  0  0  0  0  0  0
  -26.0980  -27.0530   16.5970 C   0  0  0  0  0  3  0  0  0  0  0  0
  -24.8840  -28.4330   18.3710 C   0  0  0  0  0  2  0  0  0  0  0  0
  -25.7790  -28.1210   20.7170 N   0  0  0  0  0  0  0  0  0  0  0  0
  -24.5100  -28.0720   22.6000 O   0  0  0  0  0  0  0  0  0  0  0  0
  -23.7470  -26.8080   19.9250 C   0  0  0  0  0  0  0  0  0  0  0  0
  -22.6150  -26.7540   19.2020 N   0  0  0  0  0  0  0  0  0  0  0  0
  -24.1540  -25.8560   20.5950 O   0  0  0  0  0  0  0  0  0  0  0  0
  -22.3420  -27.5800   18.6870 H   0  0  0  0  0  0  0  0  0  0  0  0
  -19.6990  -25.4830   17.4800 C   0  0  0  0  0  0  0  0  0  0  0  0
  -21.7210  -25.6010   19.0860 C   0  0  0  0  0  3  0  0  0  0  0  0
  -22.3520  -24.4940   18.2100 C   0  0  0  0  0  2  0  0  0  0  0  0
  -21.9470  -24.5860   16.7350 C   0  0  0  0  0  2  0  0  0  0  0  0
  -20.4260  -24.4880   16.5890 C   0  0  0  0  0  2  0  0  0  0  0  0
  -20.3150  -26.0180   18.6430 C   0  0  0  0  0  0  0  0  0  0  0  0
  -19.6110  -26.9680   19.4160 C   0  0  0  0  0  3  0  0  0  0  0  0
  -18.3160  -27.3770   19.0470 C   0  0  0  0  0  3  0  0  0  0  0  0
  -17.7050  -26.8340   17.9030 C   0  0  0  0  0  3  0  0  0  0  0  0
  -18.3960  -25.8880   17.1230 C   0  0  0  0  0  3  0  0  0  0  0  0
  -26.8670  -28.0490   23.0260 C   0  0  0  0  0  3  0  0  0  0  0  0
  -26.8180  -29.2630   23.8520 N   0  0  0  0  0  0  0  0  0  0  0  0
  -27.5290  -30.3730   23.6190 C   0  0  0  0  0  0  0  0  0  0  0  0
  -28.3610  -30.4580   22.7120 O   0  0  0  0  0  0  0  0  0  0  0  0
  -26.1250  -29.2800   24.5870 H   0  0  0  0  0  0  0  0  0  0  0  0
  -26.3550  -32.5860   23.8320 C   0  0  0  0  0  1  0  0  0  0  0  0
  -27.2790  -31.5830   24.5400 C   0  0  0  0  0  3  0  0  0  0  0  0
  -29.3310  -31.4740   25.8840 C   0  0  0  0  0  1  0  0  0  0  0  0
  -28.5200  -32.2670   24.9660 N   0  0  0  0  0  0  0  0  0  0  0  0
  -28.3050  -33.1520   25.4150 H   0  0  0  0  0  0  0  0  0  0  0  0
  -26.9220  -26.7590   23.9330 C   0  0  1  0  0  0  0  0  0  0  0  0
  -25.6230  -26.5050   24.7350 C   0  0  0  0  0  1  0  0  0  0  0  0
  -27.2020  -25.5010   23.0770 C   0  0  0  0  0  1  0  0  0  0  0  0
  -28.0860  -26.8770   24.9450 C   0  0  0  0  0  1  0  0  0  0  0  0
  1  5  1  0
  2  6  1  0
  2  1  2  0
  4 45  1  0
  4  3  1  0
  5  3  2  0
  5 15  1  0
  6  4  2  0
  7 15  1  0
  7 13  1  0
  8 13  1  0
  9 10  1  0
  9  8  1  0
 11 10  1  0
 11 20  1  0
 11 12  1  0
 13 12  1  0
 14  7  2  0
 15 16  1  0
 17 18  2  0
 18 37  1  0
 19 22  1  0
 19 18  1  0
 20 21  1  0
 20 17  1  0
 21 19  2  0
 22 23  1  0
 23 24  2  0
 25 28  1  0
 25 24  1  0
 26 25  2  0
 27 26  1  0
 27 22  2  0
 28 29  1  0
 29 30  1  0
 30 31  2  0
 32 31  1  0
 32 36  1  0
 33 32  2  0
 34 29  2  0
 34 33  1  0
 35 34  1  0
 37 38  1  0
 38 40  1  0
 38 41  1  0
 39 37  2  0
 42 17  1  0
 42 43  1  0
 44 42  1  0
 45 47  2  0
 46 45  1  0
 48 46  1  0
 49 46  1  0
 49 50  1  0
 50 51  1  0
 51 52  1  0
 53 52  1  0
 54 53  1  0
 55 57  2  0
 55 54  1  0
 56 55  1  0
 59  6  1  0
 59 58  1  0
 60 59  1  0
 61 60  2  0
 62 61  1  0
 63 62  1  0
 63 65  1  0
 64 75  2  0
 65 70  1  0
 66 76  1  0
 66 74  1  0
 67 73  1  0
 67 69  1  0
 68 74  1  0
 69 68  1  0
 70 69  2  0
 71 72  1  0
 71 65  2  0
 72 67  2  0
 73 66  1  0
 74 64  1  0
 76 78  2  0
 77 76  1  0
 79 77  1  0
 80 85  1  0
 81 77  1  0
 82 81  1  0
 83 82  1  0
 84 83  1  0
 84 80  1  0
 85 81  1  0
 85 86  2  0
 87 86  1  0
 88 87  2  0
 89 80  2  0
 89 88  1  0
 90 64  1  0
 90 91  1  0
 90100  1  0
 91 94  1  0
 92 91  1  0
 92 96  1  0
 93 92  2  0
 96 95  1  0
 96 98  1  0
 98 99  1  0
 98 97  1  0
100101  1  1
100103  1  0
102100  1  0
M  ISO  4   7 100  15 100  62 101  63 101
M  END
>  <TORSDO>  (8) 
F 28

>  <SCORE>  (8) 
0.169

>  <name>  (8) 
7

>  <ligand_id>  (8) 
7

>  <original_smiles>  (8) 
[H]c1c([H])c([H])c2c(c1[H])C([H])([H])C([H])([H])C([H])([H])C2([H])N([H])C(=O)C1([H])N(C(=O)C([H])(N([H])C(=O)C([H])(N([H])C([H])([H])[H])C([H])([H])[H])C(C([H])([H])[H])(C([H])([H])[H])C([H])([H])[H])C([H])([H])c2c([H])c(OC([H])([H])C([H])([H])C([H])([H])N(c3c([H])c([H])c(N([H])C(=O)N4C([H])([H])C([H])([H])C([H])([H])C([H])(n5nc(-c6c([H])c([H])c(Oc7c([H])c([H])c(F)c([H])c7F)c([H])c6[H])c(C(=O)N([H])[H])c5N([H])[H])C4([H])[H])c([H])c3C(=O)N([H])C([H])([H])C([H])([H])C([H])([H])C([H])([H])C([H])([H])C([H])([H])C(=O)C([H])([H])[H])C([H])([H])[H])c([H])c([H])c2C1([H])[H]

>  <smiles>  (8) 
[H]c1c([H])c([H])c2c(c1[H])C([H])([H])C([H])([H])C([H])([H])C2([H])N([H])C(=O)C1([H])N(C(=O)C([H])(N([H])C(=O)C([H])(N([H])C([H])([H])[H])C([H])([H])[H])C(C([H])([H])[H])(C([H])([H])[H])C([H])([H])[H])C([H])([H])c2c([H])c(OC([H])([H])C([H])([H])C([H])([H])N(c3c([H])c([H])c(N([H])C(=O)N4C([H])([H])C([H])([H])C([H])([H])C([H])(n5nc(-c6c([H])c([H])c(Oc7c([H])c([H])c(F)c([H])c7F)c([H])c6[H])c(C(=O)N([H])[H])c5N([H])[H])C4([H])[H])c([H])c3C(=O)N([H])C([H])([H])C([H])([H])C([H])([H])C([H])([H])C([H])([H])C([H])([H])C(=O)C([H])([H])[H])C([H])([H])[H])c([H])c([H])c2C1([H])[H]

$$$$
8:0:0
     RDKit          3D

 93101  0  0  1  0  0  0  0  0999 V2000
  -31.3980  -18.2210   20.5130 C   0  0  0  0  0  3  0  0  0  0  0  0
  -30.8920  -20.6540   20.4680 C   0  0  0  0  0  3  0  0  0  0  0  0
  -30.0430  -17.8270   20.4610 C   0  0  0  0  0  0  0  0  0  0  0  0
  -29.4930  -20.4710   20.4260 C   0  0  0  0  0  0  0  0  0  0  0  0
  -29.1060  -19.0080   20.4140 C   0  0  0  0  0  0  0  0  0  0  0  0
  -31.8040  -19.5750   20.5130 C   0  0  0  0  0  0  0  0  0  0  0  0
  -33.1300  -19.8520   20.5610 F   0  0  0  0  0  0  0  0  0  0  0  0
  -30.4940  -15.0880   20.3260 C   0  0  0  0  0  0  0  0  0  0  0  0
  -30.3810  -12.7280   19.3650 C   0  0  0  0  0  2  0  0  0  0  0  0
  -29.4330  -12.6600   18.1440 C   0  0  0  0  0  2  0  0  0  0  0  0
  -27.9810  -12.4210   18.5970 C   0  0  0  0  0  2  0  0  0  0  0  0
  -27.5770  -13.3360   19.7830 C   0  0  0  0  0  3  0  0  0  0  0  0
  -28.6480  -13.3740   20.8930 C   0  0  0  0  0  2  0  0  0  0  0  0
  -29.8970  -13.8220   20.2630 N   0  0  0  0  0  0  0  0  0  0  0  0
  -31.6990  -15.1170   20.0540 O   0  0  0  0  0  0  0  0  0  0  0  0
  -29.7230  -16.2980   20.4710 N   0  0  0  0  0  0  0  0  0  0  0  0
  -28.7410  -16.1040   20.5890 H   0  0  0  0  0  0  0  0  0  0  0  0
  -25.2060  -13.8810   20.5670 C   0  0  0  0  0  0  0  0  0  0  0  0
  -24.1540  -13.0920   20.9410 C   0  0  0  0  0  0  0  0  0  0  0  0
  -24.6290  -11.7460   20.8870 C   0  0  0  0  0  0  0  0  0  0  0  0
  -26.2520  -13.0160   20.3010 N   0  0  0  0  0  0  0  0  0  0  0  0
  -25.9180  -11.7240   20.5600 N   0  0  0  0  0  0  0  0  0  0  0  0
  -23.9150  -10.4750   21.0680 C   0  0  0  0  0  0  0  0  0  0  0  0
  -24.3580   -9.5030   21.9920 C   0  0  0  0  0  3  0  0  0  0  0  0
  -23.6410   -8.2980   22.1620 C   0  0  0  0  0  3  0  0  0  0  0  0
  -22.4670   -8.0580   21.4100 C   0  0  0  0  0  0  0  0  0  0  0  0
  -22.0430   -9.0200   20.4760 C   0  0  0  0  0  3  0  0  0  0  0  0
  -22.7610  -10.2140   20.3030 C   0  0  0  0  0  3  0  0  0  0  0  0
  -21.7200   -6.9070   21.4920 O   0  0  0  0  0  0  0  0  0  0  0  0
  -21.6710   -6.1620   22.6420 C   0  0  0  0  0  0  0  0  0  0  0  0
  -21.2040   -6.7020   23.8610 C   0  0  0  0  0  3  0  0  0  0  0  0
  -21.1040   -5.8810   25.0030 C   0  0  0  0  0  3  0  0  0  0  0  0
  -21.4590   -4.5210   24.9260 C   0  0  0  0  0  0  0  0  0  0  0  0
  -21.9190   -3.9800   23.7120 C   0  0  0  0  0  3  0  0  0  0  0  0
  -22.0210   -4.7980   22.5730 C   0  0  0  0  0  0  0  0  0  0  0  0
  -22.4440   -4.2670   21.4000 F   0  0  0  0  0  0  0  0  0  0  0  0
  -21.3570   -3.7300   26.0200 F   0  0  0  0  0  0  0  0  0  0  0  0
  -22.7560  -13.5550   21.2320 C   0  0  0  0  0  0  0  0  0  0  0  0
  -22.0450  -12.8460   22.1010 N   0  0  0  0  0  0  0  0  0  0  0  0
  -22.3040  -14.5800   20.7230 O   0  0  0  0  0  0  0  0  0  0  0  0
  -22.4250  -12.0170   22.5330 H   0  0  0  0  0  0  0  0  0  0  0  0
  -21.1070  -13.1380   22.3390 H   0  0  0  0  0  0  0  0  0  0  0  0
  -25.3530  -15.2550   20.4050 N   0  0  0  0  0  0  0  0  0  0  0  0
  -24.5790  -15.8970   20.5370 H   0  0  0  0  0  0  0  0  0  0  0  0
  -26.1850  -15.7100   20.0530 H   0  0  0  0  0  0  0  0  0  0  0  0
  -27.2080  -18.8340   19.0710 C   0  0  0  0  0  1  0  0  0  0  0  0
  -27.7710  -18.7050   20.3690 O   0  0  0  0  0  0  0  0  0  0  0  0
  -28.6400  -21.7160   20.3870 N   0  0  0  0  0  0  0  0  0  0  0  0
  -27.6400  -21.5340   20.3400 H   0  0  0  0  0  0  0  0  0  0  0  0
  -29.4880  -23.4580   22.0140 C   0  0  0  0  0  1  0  0  0  0  0  0
  -29.0070  -23.2530   20.5700 C   0  0  0  0  0  3  0  0  0  0  0  0
  -27.9710  -24.5820   20.2230 C   0  0  0  0  0  2  0  0  0  0  0  0
  -28.2380  -26.1320   20.4030 O   0  0  0  0  0  0  0  0  0  0  0  0
  -24.6420  -31.9380   23.2980 C   0  0  0  0  0  0  0  0  0  0  0  0
  -27.2010  -27.1500   20.3190 C   0  0  0  0  0  0  0  0  0  0  0  0
  -23.4470  -30.5450   21.6540 C   0  0  0  0  0  3  0  0  0  0  0  0
  -24.8940  -28.9450   20.2510 C   0  0  0  0  0  0  0  0  0  0  0  0
  -26.0070  -30.7760   21.5160 C   0  0  0  0  0  2  0  0  0  0  0  0
  -26.0740  -29.3760   20.8700 C   0  0  0  0  0  0  0  0  0  0  0  0
  -27.2270  -28.4960   20.8840 C   0  0  0  0  0  3  0  0  0  0  0  0
  -25.9950  -26.8310   19.6580 C   0  0  0  0  0  3  0  0  0  0  0  0
  -24.8710  -27.6880   19.6270 C   0  0  0  0  0  3  0  0  0  0  0  0
  -23.6770  -29.8580   20.2820 C   0  0  0  0  0  2  0  0  0  0  0  0
  -24.7180  -31.1090   22.2110 N   0  0  0  0  0  0  0  0  0  0  0  0
  -23.5520  -32.2350   23.8130 O   0  0  0  0  0  0  0  0  0  0  0  0
  -22.7460  -29.5510   22.6150 C   0  0  0  0  0  0  0  0  0  0  0  0
  -21.4180  -29.3920   22.4770 N   0  0  0  0  0  0  0  0  0  0  0  0
  -23.4030  -28.9240   23.4520 O   0  0  0  0  0  0  0  0  0  0  0  0
  -20.9440  -29.9470   21.7790 H   0  0  0  0  0  0  0  0  0  0  0  0
  -18.0200  -28.2270   22.9620 C   0  0  0  0  0  0  0  0  0  0  0  0
  -20.5810  -28.4660   23.2450 C   0  0  0  0  0  3  0  0  0  0  0  0
  -20.6710  -27.0300   22.6760 C   0  0  0  0  0  2  0  0  0  0  0  0
  -19.5730  -26.7150   21.6550 C   0  0  0  0  0  2  0  0  0  0  0  0
  -18.1890  -26.8750   22.2890 C   0  0  0  0  0  2  0  0  0  0  0  0
  -19.1440  -28.9800   23.3960 C   0  0  0  0  0  0  0  0  0  0  0  0
  -18.9300  -30.2450   23.9870 C   0  0  0  0  0  3  0  0  0  0  0  0
  -17.6290  -30.7560   24.1460 C   0  0  0  0  0  3  0  0  0  0  0  0
  -16.5210  -30.0000   23.7250 C   0  0  0  0  0  3  0  0  0  0  0  0
  -16.7180  -28.7370   23.1390 C   0  0  0  0  0  3  0  0  0  0  0  0
  -25.9160  -32.5680   23.9360 C   0  0  0  0  0  3  0  0  0  0  0  0
  -26.4030  -31.8060   25.2310 C   0  0  1  0  0  0  0  0  0  0  0  0
  -25.2900  -31.5920   26.2830 C   0  0  0  0  0  1  0  0  0  0  0  0
  -26.9790  -30.4180   24.8700 C   0  0  0  0  0  1  0  0  0  0  0  0
  -27.5490  -32.5970   25.9040 C   0  0  0  0  0  1  0  0  0  0  0  0
  -25.6130  -33.9730   24.2540 N   0  0  0  0  0  0  0  0  0  0  0  0
  -25.9320  -35.0190   23.4810 C   0  0  0  0  0  0  0  0  0  0  0  0
  -26.5790  -34.9040   22.4370 O   0  0  0  0  0  0  0  0  0  0  0  0
  -25.0360  -34.1360   25.0660 H   0  0  0  0  0  0  0  0  0  0  0  0
  -24.1880  -36.8080   23.1700 C   0  0  0  0  0  1  0  0  0  0  0  0
  -25.4630  -36.4150   23.9370 C   0  0  0  0  0  3  0  0  0  0  0  0
  -27.6220  -37.3220   24.6730 C   0  0  0  0  0  1  0  0  0  0  0  0
  -26.4870  -37.4680   23.7660 N   0  0  0  0  0  0  0  0  0  0  0  0
  -26.0840  -38.3910   23.9080 H   0  0  0  0  0  0  0  0  0  0  0  0
  1  6  1  0
  2  6  2  0
  3 16  1  0
  3  1  2  0
  4  2  1  0
  5  4  2  0
  5  3  1  0
  6  7  1  0
  8 16  1  0
  9 14  1  0
 10 11  1  0
 10  9  1  0
 12 11  1  0
 12 21  1  0
 12 13  1  0
 14  8  1  0
 14 13  1  0
 15  8  2  0
 16 17  1  0
 18 19  2  0
 19 38  1  0
 20 19  1  0
 20 23  1  0
 21 22  1  0
 21 18  1  0
 22 20  2  0
 23 24  1  0
 24 25  2  0
 26 29  1  0
 26 25  1  0
 27 26  2  0
 28 27  1  0
 28 23  2  0
 29 30  1  0
 30 31  1  0
 31 32  2  0
 33 32  1  0
 33 37  1  0
 34 33  2  0
 35 30  2  0
 35 34  1  0
 36 35  1  0
 38 39  1  0
 39 42  1  0
 39 41  1  0
 40 38  2  0
 43 44  1  0
 43 18  1  0
 45 43  1  0
 46 47  1  0
 47  5  1  0
 48  4  1  0
 48 51  1  0
 49 48  1  0
 51 50  1  0
 52 53  1  0
 52 51  1  0
 54 65  2  0
 55 53  1  0
 55 60  1  0
 56 64  1  0
 56 66  1  0
 57 63  1  0
 57 59  1  0
 58 64  1  0
 59 60  2  0
 59 58  1  0
 61 55  2  0
 62 61  1  0
 62 57  2  0
 63 56  1  0
 64 54  1  0
 66 68  2  0
 67 66  1  0
 69 67  1  0
 70 79  2  0
 70 75  1  0
 71 67  1  0
 71 75  1  0
 72 71  1  0
 73 74  1  0
 73 72  1  0
 74 70  1  0
 75 76  2  0
 76 77  1  0
 78 77  2  0
 79 78  1  0
 80 54  1  0
 80 85  1  0
 80 81  1  0
 81 84  1  1
 81 82  1  0
 83 81  1  0
 85 88  1  0
 86 90  1  0
 86 85  1  0
 87 86  2  0
 90 89  1  0
 92 93  1  0
 92 90  1  0
 92 91  1  0
M  ISO  4   8 100  16 100  52 101  53 101
M  END
>  <TORSDO>  (9) 
F 20

>  <SCORE>  (9) 
-14.762

>  <name>  (9) 
8

>  <ligand_id>  (9) 
8

>  <original_smiles>  (9) 
[H]c1c([H])c([H])c2c(c1[H])C([H])([H])C([H])([H])C([H])([H])C2([H])N([H])C(=O)C1([H])N(C(=O)C([H])(N([H])C(=O)C([H])(N([H])C([H])([H])[H])C([H])([H])[H])C(C([H])([H])[H])(C([H])([H])[H])C([H])([H])[H])C([H])([H])c2c([H])c(OC([H])([H])C([H])(N([H])c3c([H])c(F)c([H])c(N([H])C(=O)N4C([H])([H])C([H])([H])C([H])([H])C([H])(n5nc(-c6c([H])c([H])c(Oc7c([H])c([H])c(F)c([H])c7F)c([H])c6[H])c(C(=O)N([H])[H])c5N([H])[H])C4([H])[H])c3OC([H])([H])[H])C([H])([H])[H])c([H])c([H])c2C1([H])[H]

>  <smiles>  (9) 
[H]c1c([H])c([H])c2c(c1[H])C([H])([H])C([H])([H])C([H])([H])C2([H])N([H])C(=O)C1([H])N(C(=O)C([H])(N([H])C(=O)C([H])(N([H])C([H])([H])[H])C([H])([H])[H])C(C([H])([H])[H])(C([H])([H])[H])C([H])([H])[H])C([H])([H])c2c([H])c(OC([H])([H])C([H])(N([H])c3c([H])c(F)c([H])c(N([H])C(=O)N4C([H])([H])C([H])([H])C([H])([H])C([H])(n5nc(-c6c([H])c([H])c(Oc7c([H])c([H])c(F)c([H])c7F)c([H])c6[H])c(C(=O)N([H])[H])c5N([H])[H])C4([H])[H])c3OC([H])([H])[H])C([H])([H])[H])c([H])c([H])c2C1([H])[H]

$$$$
9:0:0
     RDKit          3D

 91 99  0  0  1  0  0  0  0  0999 V2000
  -28.9200  -23.4070   20.2880 C   0  0  0  0  0  0  0  0  0  0  0  0
  -28.4800  -22.0730   20.1000 N   0  0  0  0  0  0  0  0  0  0  0  0
  -30.0660  -23.6340   20.6870 O   0  0  0  0  0  0  0  0  0  0  0  0
  -27.5130  -22.1050   19.8010 H   0  0  0  0  0  0  0  0  0  0  0  0
  -30.2820  -20.0580   20.4200 C   0  0  0  0  0  3  0  0  0  0  0  0
  -30.5710  -18.6180   20.4870 C   0  0  0  0  0  3  0  0  0  0  0  0
  -27.9980  -19.5700   20.1140 C   0  0  0  0  0  3  0  0  0  0  0  0
  -28.9640  -20.6200   20.2310 C   0  0  0  0  0  0  0  0  0  0  0  0
  -29.5680  -17.5840   20.3820 C   0  0  0  0  0  0  0  0  0  0  0  0
  -28.2750  -18.1570   20.1900 C   0  0  0  0  0  0  0  0  0  0  0  0
  -27.2350  -17.2980   20.0710 F   0  0  0  0  0  0  0  0  0  0  0  0
  -30.5100  -14.9630   20.3310 C   0  0  0  0  0  0  0  0  0  0  0  0
  -30.4250  -12.6170   19.3750 C   0  0  0  0  0  2  0  0  0  0  0  0
  -29.4820  -12.5960   18.1490 C   0  0  0  0  0  2  0  0  0  0  0  0
  -28.0160  -12.3860   18.5800 C   0  0  0  0  0  2  0  0  0  0  0  0
  -27.6140  -13.2920   19.7720 C   0  0  0  0  0  3  0  0  0  0  0  0
  -28.6750  -13.2690   20.8940 C   0  0  0  0  0  2  0  0  0  0  0  0
  -29.9520  -13.6870   20.2940 N   0  0  0  0  0  0  0  0  0  0  0  0
  -31.7030  -15.0880   20.0360 O   0  0  0  0  0  0  0  0  0  0  0  0
  -29.6350  -16.0570   20.5100 N   0  0  0  0  0  0  0  0  0  0  0  0
  -28.7070  -15.6950   20.6650 H   0  0  0  0  0  0  0  0  0  0  0  0
  -25.2220  -13.8590   20.5000 C   0  0  0  0  0  0  0  0  0  0  0  0
  -24.1620  -13.0780   20.8700 C   0  0  0  0  0  0  0  0  0  0  0  0
  -24.6370  -11.7310   20.8440 C   0  0  0  0  0  0  0  0  0  0  0  0
  -26.2750  -12.9890   20.2680 N   0  0  0  0  0  0  0  0  0  0  0  0
  -25.9300  -11.7020   20.5400 N   0  0  0  0  0  0  0  0  0  0  0  0
  -23.9190  -10.4650   21.0370 C   0  0  0  0  0  0  0  0  0  0  0  0
  -24.3550   -9.5000   21.9720 C   0  0  0  0  0  3  0  0  0  0  0  0
  -23.6330   -8.3010   22.1520 C   0  0  0  0  0  3  0  0  0  0  0  0
  -22.4600   -8.0580   21.3990 C   0  0  0  0  0  0  0  0  0  0  0  0
  -22.0410   -9.0120   20.4550 C   0  0  0  0  0  3  0  0  0  0  0  0
  -22.7640  -10.2020   20.2720 C   0  0  0  0  0  3  0  0  0  0  0  0
  -21.7110   -6.9100   21.4890 O   0  0  0  0  0  0  0  0  0  0  0  0
  -21.6710   -6.1640   22.6410 C   0  0  0  0  0  0  0  0  0  0  0  0
  -21.2450   -6.7130   23.8690 C   0  0  0  0  0  3  0  0  0  0  0  0
  -21.1540   -5.8950   25.0120 C   0  0  0  0  0  3  0  0  0  0  0  0
  -21.4780   -4.5270   24.9270 C   0  0  0  0  0  0  0  0  0  0  0  0
  -21.8960   -3.9770   23.7040 C   0  0  0  0  0  3  0  0  0  0  0  0
  -21.9900   -4.7940   22.5620 C   0  0  0  0  0  0  0  0  0  0  0  0
  -22.3740   -4.2540   21.3800 F   0  0  0  0  0  0  0  0  0  0  0  0
  -21.3820   -3.7390   26.0230 F   0  0  0  0  0  0  0  0  0  0  0  0
  -22.7610  -13.5480   21.1340 C   0  0  0  0  0  0  0  0  0  0  0  0
  -22.0370  -12.8550   22.0060 N   0  0  0  0  0  0  0  0  0  0  0  0
  -22.3180  -14.5670   20.6060 O   0  0  0  0  0  0  0  0  0  0  0  0
  -22.4090  -12.0330   22.4580 H   0  0  0  0  0  0  0  0  0  0  0  0
  -21.0980  -13.1540   22.2280 H   0  0  0  0  0  0  0  0  0  0  0  0
  -25.3610  -15.2300   20.3230 N   0  0  0  0  0  0  0  0  0  0  0  0
  -24.5760  -15.8570   20.4490 H   0  0  0  0  0  0  0  0  0  0  0  0
  -26.2010  -15.7250   20.0400 H   0  0  0  0  0  0  0  0  0  0  0  0
  -27.9180  -24.6900   19.9720 C   0  0  0  0  0  2  0  0  0  0  0  0
  -28.2470  -26.1880   20.2400 O   0  0  0  0  0  0  0  0  0  0  0  0
  -24.6450  -31.8880   23.2390 C   0  0  0  0  0  0  0  0  0  0  0  0
  -27.1970  -27.1790   20.1790 C   0  0  0  0  0  0  0  0  0  0  0  0
  -23.4310  -30.4950   21.6090 C   0  0  0  0  0  3  0  0  0  0  0  0
  -24.8660  -28.9240   20.1720 C   0  0  0  0  0  0  0  0  0  0  0  0
  -25.9850  -30.7580   21.4260 C   0  0  0  0  0  2  0  0  0  0  0  0
  -26.0520  -29.3670   20.7720 C   0  0  0  0  0  0  0  0  0  0  0  0
  -27.2170  -28.5100   20.7610 C   0  0  0  0  0  3  0  0  0  0  0  0
  -25.9820  -26.8410   19.5390 C   0  0  0  0  0  3  0  0  0  0  0  0
  -24.8440  -27.6730   19.5410 C   0  0  0  0  0  3  0  0  0  0  0  0
  -23.6400  -29.8210   20.2290 C   0  0  0  0  0  2  0  0  0  0  0  0
  -24.7070  -31.0690   22.1470 N   0  0  0  0  0  0  0  0  0  0  0  0
  -23.5630  -32.1750   23.7740 O   0  0  0  0  0  0  0  0  0  0  0  0
  -22.7580  -29.4880   22.5750 C   0  0  0  0  0  0  0  0  0  0  0  0
  -21.4290  -29.3160   22.4540 N   0  0  0  0  0  0  0  0  0  0  0  0
  -23.4330  -28.8630   23.3970 O   0  0  0  0  0  0  0  0  0  0  0  0
  -20.9400  -29.8710   21.7670 H   0  0  0  0  0  0  0  0  0  0  0  0
  -18.0510  -28.1080   22.9660 C   0  0  0  0  0  0  0  0  0  0  0  0
  -20.6090  -28.3810   23.2310 C   0  0  0  0  0  3  0  0  0  0  0  0
  -20.7160  -26.9450   22.6660 C   0  0  0  0  0  2  0  0  0  0  0  0
  -19.6140  -26.6120   21.6540 C   0  0  0  0  0  2  0  0  0  0  0  0
  -18.2330  -26.7560   22.2980 C   0  0  0  0  0  2  0  0  0  0  0  0
  -19.1680  -28.8790   23.3910 C   0  0  0  0  0  0  0  0  0  0  0  0
  -18.9420  -30.1420   23.9770 C   0  0  0  0  0  3  0  0  0  0  0  0
  -17.6350  -30.6370   24.1430 C   0  0  0  0  0  3  0  0  0  0  0  0
  -16.5340  -29.8650   23.7330 C   0  0  0  0  0  3  0  0  0  0  0  0
  -16.7440  -28.6030   23.1500 C   0  0  0  0  0  3  0  0  0  0  0  0
  -25.9280  -32.5210   23.8570 C   0  0  0  0  0  3  0  0  0  0  0  0
  -25.6200  -33.9190   24.1960 N   0  0  0  0  0  0  0  0  0  0  0  0
  -25.9220  -34.9760   23.4320 C   0  0  0  0  0  0  0  0  0  0  0  0
  -26.5590  -34.8760   22.3780 O   0  0  0  0  0  0  0  0  0  0  0  0
  -25.0490  -34.0690   25.0160 H   0  0  0  0  0  0  0  0  0  0  0  0
  -24.1640  -36.7560   23.1570 C   0  0  0  0  0  1  0  0  0  0  0  0
  -25.4470  -36.3620   23.9080 C   0  0  0  0  0  3  0  0  0  0  0  0
  -27.6110  -37.2720   24.6310 C   0  0  0  0  0  1  0  0  0  0  0  0
  -26.4650  -37.4240   23.7400 N   0  0  0  0  0  0  0  0  0  0  0  0
  -26.0570  -38.3420   23.8980 H   0  0  0  0  0  0  0  0  0  0  0  0
  -26.4490  -31.7490   25.1330 C   0  0  1  0  0  0  0  0  0  0  0  0
  -25.3590  -31.5150   26.2060 C   0  0  0  0  0  1  0  0  0  0  0  0
  -27.0240  -30.3670   24.7420 C   0  0  0  0  0  1  0  0  0  0  0  0
  -27.6050  -32.5390   25.7870 C   0  0  0  0  0  1  0  0  0  0  0  0
  1  3  2  0
  2  8  1  0
  2  1  1  0
  4  2  1  0
  5  6  1  0
  7 10  2  0
  7  8  1  0
  8  5  2  0
  9  6  2  0
  9 20  1  0
 10  9  1  0
 11 10  1  0
 12 20  1  0
 13 18  1  0
 14 15  1  0
 14 13  1  0
 16 15  1  0
 16 25  1  0
 16 17  1  0
 18 12  1  0
 18 17  1  0
 19 12  2  0
 20 21  1  0
 22 23  2  0
 23 42  1  0
 24 23  1  0
 24 27  1  0
 25 22  1  0
 25 26  1  0
 26 24  2  0
 27 28  1  0
 28 29  2  0
 30 33  1  0
 30 29  1  0
 31 30  2  0
 32 31  1  0
 32 27  2  0
 33 34  1  0
 34 35  1  0
 35 36  2  0
 37 36  1  0
 37 41  1  0
 38 37  2  0
 39 34  2  0
 39 38  1  0
 40 39  1  0
 42 43  1  0
 43 46  1  0
 43 45  1  0
 44 42  2  0
 47 48  1  0
 47 22  1  0
 49 47  1  0
 50 51  1  0
 50  1  1  0
 52 63  2  0
 53 51  1  0
 53 58  1  0
 54 62  1  0
 54 64  1  0
 55 61  1  0
 55 57  1  0
 56 62  1  0
 57 56  1  0
 58 57  2  0
 59 60  1  0
 59 53  2  0
 60 55  2  0
 61 54  1  0
 62 52  1  0
 64 66  2  0
 65 64  1  0
 67 65  1  0
 68 77  2  0
 68 73  1  0
 69 65  1  0
 69 73  1  0
 70 69  1  0
 71 72  1  0
 71 70  1  0
 72 68  1  0
 73 74  2  0
 74 75  1  0
 76 75  2  0
 77 76  1  0
 78 52  1  0
 78 79  1  0
 78 88  1  0
 79 82  1  0
 80 84  1  0
 80 79  1  0
 81 80  2  0
 84 83  1  0
 86 87  1  0
 86 84  1  0
 86 85  1  0
 88 91  1  1
 88 89  1  0
 90 88  1  0
M  ISO  4  12 100  20 100  50 101  51 101
M  END
>  <TORSDO>  (10) 
F 18

>  <SCORE>  (10) 
-14.879

>  <name>  (10) 
9

>  <ligand_id>  (10) 
9

>  <original_smiles>  (10) 
[H]c1c([H])c([H])c2c(c1[H])C([H])([H])C([H])([H])C([H])([H])C2([H])N([H])C(=O)C1([H])N(C(=O)C([H])(N([H])C(=O)C([H])(N([H])C([H])([H])[H])C([H])([H])[H])C(C([H])([H])[H])(C([H])([H])[H])C([H])([H])[H])C([H])([H])c2c([H])c(OC([H])([H])C(=O)N([H])c3c([H])c([H])c(N([H])C(=O)N4C([H])([H])C([H])([H])C([H])([H])C([H])(n5nc(-c6c([H])c([H])c(Oc7c([H])c([H])c(F)c([H])c7F)c([H])c6[H])c(C(=O)N([H])[H])c5N([H])[H])C4([H])[H])c(F)c3[H])c([H])c([H])c2C1([H])[H]

>  <smiles>  (10) 
[H]c1c([H])c([H])c2c(c1[H])C([H])([H])C([H])([H])C([H])([H])C2([H])N([H])C(=O)C1([H])N(C(=O)C([H])(N([H])C(=O)C([H])(N([H])C([H])([H])[H])C([H])([H])[H])C(C([H])([H])[H])(C([H])([H])[H])C([H])([H])[H])C([H])([H])c2c([H])c(OC([H])([H])C(=O)N([H])c3c([H])c([H])c(N([H])C(=O)N4C([H])([H])C([H])([H])C([H])([H])C([H])(n5nc(-c6c([H])c([H])c(Oc7c([H])c([H])c(F)c([H])c7F)c([H])c6[H])c(C(=O)N([H])[H])c5N([H])[H])C4([H])[H])c(F)c3[H])c([H])c([H])c2C1([H])[H]

$$$$
10:0:0
     RDKit          3D

 92100  0  0  1  0  0  0  0  0999 V2000
  -30.5550  -19.8470   19.4090 C   0  0  0  0  0  3  0  0  0  0  0  0
  -30.7100  -18.4150   19.6150 C   0  0  0  0  0  3  0  0  0  0  0  0
  -28.3210  -19.7570   20.1280 C   0  0  0  0  0  3  0  0  0  0  0  0
  -29.3570  -20.6260   19.6390 C   0  0  0  0  0  0  0  0  0  0  0  0
  -29.6610  -17.5530   20.0650 C   0  0  0  0  0  0  0  0  0  0  0  0
  -28.4510  -18.3040   20.3080 C   0  0  0  0  0  0  0  0  0  0  0  0
  -30.4840  -14.9130   19.8720 C   0  0  0  0  0  0  0  0  0  0  0  0
  -30.3460  -12.5640   18.9290 C   0  0  0  0  0  2  0  0  0  0  0  0
  -29.3300  -12.5440   17.7620 C   0  0  0  0  0  2  0  0  0  0  0  0
  -27.8940  -12.3260   18.2780 C   0  0  0  0  0  2  0  0  0  0  0  0
  -27.5660  -13.2250   19.5000 C   0  0  0  0  0  3  0  0  0  0  0  0
  -28.6950  -13.2060   20.5550 C   0  0  0  0  0  2  0  0  0  0  0  0
  -29.9290  -13.6330   19.8810 N   0  0  0  0  0  0  0  0  0  0  0  0
  -31.6370  -15.0350   19.4470 O   0  0  0  0  0  0  0  0  0  0  0  0
  -29.6720  -16.0240   20.2130 N   0  0  0  0  0  0  0  0  0  0  0  0
  -28.8240  -15.7030   20.6540 H   0  0  0  0  0  0  0  0  0  0  0  0
  -25.2470  -13.7830   20.4300 C   0  0  0  0  0  0  0  0  0  0  0  0
  -24.2050  -13.0000   20.8460 C   0  0  0  0  0  0  0  0  0  0  0  0
  -24.6550  -11.6490   20.7260 C   0  0  0  0  0  0  0  0  0  0  0  0
  -26.2630  -12.9120   20.0780 N   0  0  0  0  0  0  0  0  0  0  0  0
  -25.9200  -11.6200   20.3200 N   0  0  0  0  0  0  0  0  0  0  0  0
  -23.9330  -10.3840   20.9160 C   0  0  0  0  0  0  0  0  0  0  0  0
  -24.3510   -9.4310   21.8720 C   0  0  0  0  0  3  0  0  0  0  0  0
  -23.6290   -8.2300   22.0500 C   0  0  0  0  0  3  0  0  0  0  0  0
  -22.4750   -7.9750   21.2730 C   0  0  0  0  0  0  0  0  0  0  0  0
  -22.0760   -8.9150   20.3070 C   0  0  0  0  0  3  0  0  0  0  0  0
  -22.7990  -10.1060   20.1270 C   0  0  0  0  0  3  0  0  0  0  0  0
  -21.7260   -6.8260   21.3610 O   0  0  0  0  0  0  0  0  0  0  0  0
  -21.5790   -6.1500   22.5460 C   0  0  0  0  0  0  0  0  0  0  0  0
  -21.0190   -6.7620   23.6890 C   0  0  0  0  0  3  0  0  0  0  0  0
  -20.8250   -6.0110   24.8650 C   0  0  0  0  0  3  0  0  0  0  0  0
  -21.1780   -4.6480   24.8980 C   0  0  0  0  0  0  0  0  0  0  0  0
  -21.7270   -4.0350   23.7590 C   0  0  0  0  0  3  0  0  0  0  0  0
  -21.9260   -4.7850   22.5860 C   0  0  0  0  0  0  0  0  0  0  0  0
  -22.4380   -4.1830   21.4850 F   0  0  0  0  0  0  0  0  0  0  0  0
  -20.9820   -3.9250   26.0250 F   0  0  0  0  0  0  0  0  0  0  0  0
  -22.8350  -13.4710   21.2380 C   0  0  0  0  0  0  0  0  0  0  0  0
  -22.1780  -12.7610   22.1480 N   0  0  0  0  0  0  0  0  0  0  0  0
  -22.3610  -14.5050   20.7720 O   0  0  0  0  0  0  0  0  0  0  0  0
  -22.5750  -11.9220   22.5440 H   0  0  0  0  0  0  0  0  0  0  0  0
  -21.2600  -13.0580   22.4510 H   0  0  0  0  0  0  0  0  0  0  0  0
  -25.4050  -15.1600   20.2940 N   0  0  0  0  0  0  0  0  0  0  0  0
  -24.6490  -15.8080   20.4800 H   0  0  0  0  0  0  0  0  0  0  0  0
  -26.2180  -15.6030   19.8870 H   0  0  0  0  0  0  0  0  0  0  0  0
  -28.6350  -23.2590   19.8960 C   0  0  0  0  0  0  0  0  0  0  0  0
  -30.0340  -22.4810   18.0740 C   0  0  0  0  0  1  0  0  0  0  0  0
  -29.2300  -22.1270   19.2530 N   0  0  0  0  0  0  0  0  0  0  0  0
  -28.4790  -23.2180   21.1210 O   0  0  0  0  0  0  0  0  0  0  0  0
  -28.0290  -24.6160   19.1330 C   0  0  0  0  0  2  0  0  0  0  0  0
  -28.3000  -26.1060   19.5060 O   0  0  0  0  0  0  0  0  0  0  0  0
  -24.6420  -31.5540   22.8490 C   0  0  0  0  0  0  0  0  0  0  0  0
  -27.2380  -27.0910   19.4810 C   0  0  0  0  0  0  0  0  0  0  0  0
  -23.4300  -30.2410   21.1530 C   0  0  0  0  0  3  0  0  0  0  0  0
  -24.8760  -28.7920   19.5990 C   0  0  0  0  0  0  0  0  0  0  0  0
  -25.9750  -30.5680   20.9510 C   0  0  0  0  0  2  0  0  0  0  0  0
  -26.0610  -29.2210   20.2120 C   0  0  0  0  0  0  0  0  0  0  0  0
  -27.2380  -28.3850   20.1440 C   0  0  0  0  0  3  0  0  0  0  0  0
  -26.0300  -26.7830   18.8130 C   0  0  0  0  0  3  0  0  0  0  0  0
  -24.8730  -27.5870   18.8840 C   0  0  0  0  0  3  0  0  0  0  0  0
  -23.6330  -29.6570   19.7290 C   0  0  0  0  0  2  0  0  0  0  0  0
  -24.7030  -30.8060   21.7060 N   0  0  0  0  0  0  0  0  0  0  0  0
  -23.5640  -31.7830   23.4180 O   0  0  0  0  0  0  0  0  0  0  0  0
  -22.7920  -29.1600   22.0630 C   0  0  0  0  0  0  0  0  0  0  0  0
  -21.4560  -29.0110   21.9970 N   0  0  0  0  0  0  0  0  0  0  0  0
  -23.5000  -28.4610   22.7930 O   0  0  0  0  0  0  0  0  0  0  0  0
  -20.9400  -29.6260   21.3820 H   0  0  0  0  0  0  0  0  0  0  0  0
  -18.0880  -27.8370   22.6290 C   0  0  0  0  0  0  0  0  0  0  0  0
  -20.6660  -28.0220   22.7350 C   0  0  0  0  0  3  0  0  0  0  0  0
  -20.6890  -26.6480   22.0250 C   0  0  0  0  0  2  0  0  0  0  0  0
  -19.5110  -26.4450   21.0670 C   0  0  0  0  0  2  0  0  0  0  0  0
  -18.1820  -26.5550   21.8190 C   0  0  0  0  0  2  0  0  0  0  0  0
  -19.2540  -28.5320   23.0470 C   0  0  0  0  0  0  0  0  0  0  0  0
  -19.1090  -29.7360   23.7710 C   0  0  0  0  0  3  0  0  0  0  0  0
  -17.8310  -30.2410   24.0790 C   0  0  0  0  0  3  0  0  0  0  0  0
  -16.6810  -29.5400   23.6750 C   0  0  0  0  0  3  0  0  0  0  0  0
  -16.8120  -28.3400   22.9570 C   0  0  0  0  0  3  0  0  0  0  0  0
  -25.9220  -32.1740   23.4850 C   0  0  0  0  0  3  0  0  0  0  0  0
  -26.5120  -31.3040   24.6630 C   0  0  1  0  0  0  0  0  0  0  0  0
  -25.4730  -30.9420   25.7490 C   0  0  0  0  0  1  0  0  0  0  0  0
  -27.1070  -29.9810   24.1270 C   0  0  0  0  0  1  0  0  0  0  0  0
  -27.6770  -32.0640   25.3410 C   0  0  0  0  0  1  0  0  0  0  0  0
  -25.5780  -33.5230   23.9650 N   0  0  0  0  0  0  0  0  0  0  0  0
  -25.8790  -34.6610   23.3240 C   0  0  0  0  0  0  0  0  0  0  0  0
  -26.5440  -34.6850   22.2860 O   0  0  0  0  0  0  0  0  0  0  0  0
  -24.9840  -33.5730   24.7790 H   0  0  0  0  0  0  0  0  0  0  0  0
  -24.1100  -36.4420   23.1720 C   0  0  0  0  0  1  0  0  0  0  0  0
  -25.3630  -35.9800   23.9330 C   0  0  0  0  0  3  0  0  0  0  0  0
  -27.4750  -36.8220   24.8600 C   0  0  0  0  0  1  0  0  0  0  0  0
  -26.3710  -37.0630   23.9340 N   0  0  0  0  0  0  0  0  0  0  0  0
  -25.9450  -37.9530   24.1760 H   0  0  0  0  0  0  0  0  0  0  0  0
  -26.0750  -17.9390   20.4040 C   0  0  0  0  0  1  0  0  0  0  0  0
  -27.3940  -17.5140   20.7110 O   0  0  0  0  0  0  0  0  0  0  0  0
  1  2  2  0
  1  4  1  0
  2  5  1  0
  3  6  1  0
  4  3  2  0
  5 15  1  0
  5  6  2  0
  6 92  1  0
  7 13  1  0
  7 15  1  0
  8 13  1  0
  9 10  1  0
  9  8  1  0
 11 10  1  0
 11 20  1  0
 11 12  1  0
 13 12  1  0
 14  7  2  0
 15 16  1  0
 17 18  2  0
 18 37  1  0
 19 18  1  0
 19 22  1  0
 20 21  1  0
 20 17  1  0
 21 19  2  0
 22 23  1  0
 23 24  2  0
 25 28  1  0
 25 24  1  0
 26 25  2  0
 27 26  1  0
 27 22  2  0
 28 29  1  0
 29 34  2  0
 29 30  1  0
 30 31  2  0
 31 32  1  0
 32 36  1  0
 33 32  2  0
 34 33  1  0
 35 34  1  0
 37 38  1  0
 38 41  1  0
 38 40  1  0
 39 37  2  0
 42 17  1  0
 42 43  1  0
 44 42  1  0
 45 48  2  0
 46 47  1  0
 47  4  1  0
 47 45  1  0
 49 50  1  0
 49 45  1  0
 51 62  2  0
 52 50  1  0
 52 57  1  0
 53 61  1  0
 53 63  1  0
 54 60  1  0
 54 56  1  0
 55 61  1  0
 56 55  1  0
 57 56  2  0
 58 59  1  0
 58 52  2  0
 59 54  2  0
 60 53  1  0
 61 51  1  0
 63 65  2  0
 64 63  1  0
 66 64  1  0
 67 76  2  0
 67 72  1  0
 68 64  1  0
 68 72  1  0
 69 68  1  0
 70 71  1  0
 70 69  1  0
 71 67  1  0
 72 73  2  0
 73 74  1  0
 75 74  2  0
 76 75  1  0
 77 51  1  0
 77 82  1  0
 77 78  1  0
 78 81  1  1
 78 79  1  0
 80 78  1  0
 82 85  1  0
 83 87  1  0
 83 82  1  0
 84 83  2  0
 87 86  1  0
 87 89  1  0
 89 90  1  0
 89 88  1  0
 91 92  1  0
M  ISO  4   7 100  15 100  49 101  50 101
M  END
>  <TORSDO>  (11) 
F 19

>  <SCORE>  (11) 
-12.906

>  <name>  (11) 
10

>  <ligand_id>  (11) 
10

>  <original_smiles>  (11) 
[H]c1c([H])c([H])c2c(c1[H])C([H])([H])C([H])([H])C([H])([H])C2([H])N([H])C(=O)C1([H])N(C(=O)C([H])(N([H])C(=O)C([H])(N([H])C([H])([H])[H])C([H])([H])[H])C(C([H])([H])[H])(C([H])([H])[H])C([H])([H])[H])C([H])([H])c2c([H])c(OC([H])([H])C(=O)N(c3c([H])c([H])c(N([H])C(=O)N4C([H])([H])C([H])([H])C([H])([H])C([H])(n5nc(-c6c([H])c([H])c(Oc7c([H])c([H])c(F)c([H])c7F)c([H])c6[H])c(C(=O)N([H])[H])c5N([H])[H])C4([H])[H])c(OC([H])([H])[H])c3[H])C([H])([H])[H])c([H])c([H])c2C1([H])[H]

>  <smiles>  (11) 
[H]c1c([H])c([H])c2c(c1[H])C([H])([H])C([H])([H])C([H])([H])C2([H])N([H])C(=O)C1([H])N(C(=O)C([H])(N([H])C(=O)C([H])(N([H])C([H])([H])[H])C([H])([H])[H])C(C([H])([H])[H])(C([H])([H])[H])C([H])([H])[H])C([H])([H])c2c([H])c(OC([H])([H])C(=O)N(c3c([H])c([H])c(N([H])C(=O)N4C([H])([H])C([H])([H])C([H])([H])C([H])(n5nc(-c6c([H])c([H])c(Oc7c([H])c([H])c(F)c([H])c7F)c([H])c6[H])c(C(=O)N([H])[H])c5N([H])[H])C4([H])[H])c(OC([H])([H])[H])c3[H])C([H])([H])[H])c([H])c([H])c2C1([H])[H]

$$$$
11:0:0
     RDKit          3D

 92100  0  0  1  0  0  0  0  0999 V2000
  -29.7000  -20.1870   21.6560 C   0  0  0  0  0  3  0  0  0  0  0  0
  -31.5370  -18.6710   20.1540 C   0  0  0  0  0  3  0  0  0  0  0  0
  -30.9150  -19.7760   22.2360 C   0  0  0  0  0  0  0  0  0  0  0  0
  -30.1750  -18.6450   19.7590 C   0  0  0  0  0  0  0  0  0  0  0  0
  -29.4290  -19.9520   20.2890 C   0  0  0  0  0  0  0  0  0  0  0  0
  -31.8770  -19.1350   21.4380 C   0  0  0  0  0  0  0  0  0  0  0  0
  -33.0990  -18.8590   21.9590 F   0  0  0  0  0  0  0  0  0  0  0  0
  -30.6650  -15.7490   19.7000 C   0  0  0  0  0  0  0  0  0  0  0  0
  -30.7060  -13.2100   19.0690 C   0  0  0  0  0  2  0  0  0  0  0  0
  -29.7510  -12.7990   17.9210 C   0  0  0  0  0  2  0  0  0  0  0  0
  -28.3420  -12.5080   18.4640 C   0  0  0  0  0  2  0  0  0  0  0  0
  -27.8850  -13.5800   19.4880 C   0  0  0  0  0  3  0  0  0  0  0  0
  -28.9730  -13.9220   20.5300 C   0  0  0  0  0  2  0  0  0  0  0  0
  -30.1340  -14.4210   19.7750 N   0  0  0  0  0  0  0  0  0  0  0  0
  -31.8840  -15.7280   19.4630 O   0  0  0  0  0  0  0  0  0  0  0  0
  -29.8800  -17.0360   19.6500 N   0  0  0  0  0  0  0  0  0  0  0  0
  -28.8910  -16.8360   19.6250 H   0  0  0  0  0  0  0  0  0  0  0  0
  -25.6050  -14.1550   20.4710 C   0  0  0  0  0  0  0  0  0  0  0  0
  -24.5590  -13.3870   20.8950 C   0  0  0  0  0  0  0  0  0  0  0  0
  -24.9820  -12.0280   20.7560 C   0  0  0  0  0  0  0  0  0  0  0  0
  -26.5990  -13.2690   20.0970 N   0  0  0  0  0  0  0  0  0  0  0  0
  -26.2430  -11.9790   20.3370 N   0  0  0  0  0  0  0  0  0  0  0  0
  -24.2340  -10.7770   20.9410 C   0  0  0  0  0  0  0  0  0  0  0  0
  -24.6450   -9.8010   21.8770 C   0  0  0  0  0  3  0  0  0  0  0  0
  -23.8950   -8.6170   22.0520 C   0  0  0  0  0  3  0  0  0  0  0  0
  -22.7230   -8.3990   21.2890 C   0  0  0  0  0  0  0  0  0  0  0  0
  -22.3310   -9.3630   20.3430 C   0  0  0  0  0  3  0  0  0  0  0  0
  -23.0810  -10.5380   20.1660 C   0  0  0  0  0  3  0  0  0  0  0  0
  -21.9440   -7.2710   21.3770 O   0  0  0  0  0  0  0  0  0  0  0  0
  -21.7910   -6.5910   22.5580 C   0  0  0  0  0  0  0  0  0  0  0  0
  -21.1970   -7.1880   23.6910 C   0  0  0  0  0  3  0  0  0  0  0  0
  -20.9940   -6.4300   24.8600 C   0  0  0  0  0  3  0  0  0  0  0  0
  -21.3770   -5.0760   24.8980 C   0  0  0  0  0  0  0  0  0  0  0  0
  -21.9620   -4.4770   23.7700 C   0  0  0  0  0  3  0  0  0  0  0  0
  -22.1670   -5.2320   22.6010 C   0  0  0  0  0  0  0  0  0  0  0  0
  -22.7130   -4.6450   21.5080 F   0  0  0  0  0  0  0  0  0  0  0  0
  -21.1760   -4.3440   26.0200 F   0  0  0  0  0  0  0  0  0  0  0  0
  -23.2020  -13.8820   21.2990 C   0  0  0  0  0  0  0  0  0  0  0  0
  -22.5300  -13.1700   22.1930 N   0  0  0  0  0  0  0  0  0  0  0  0
  -22.7510  -14.9400   20.8610 O   0  0  0  0  0  0  0  0  0  0  0  0
  -22.9100  -12.3200   22.5820 H   0  0  0  0  0  0  0  0  0  0  0  0
  -21.6230  -13.4880   22.5060 H   0  0  0  0  0  0  0  0  0  0  0  0
  -25.7880  -15.5310   20.3460 N   0  0  0  0  0  0  0  0  0  0  0  0
  -25.0470  -16.1860   20.5700 H   0  0  0  0  0  0  0  0  0  0  0  0
  -26.5690  -15.9670   19.8740 H   0  0  0  0  0  0  0  0  0  0  0  0
  -31.2140  -20.0910   23.5640 N   0  0  0  0  0  0  0  0  0  0  0  0
  -30.4440  -20.1090   24.2260 H   0  0  0  0  0  0  0  0  0  0  0  0
  -32.0320  -19.6220   23.9450 H   0  0  0  0  0  0  0  0  0  0  0  0
  -28.8120  -21.2430   19.6900 O   0  0  0  0  0  0  0  0  0  0  0  0
  -28.6420  -22.8090   20.3000 C   0  0  0  0  0  2  0  0  0  0  0  0
  -27.8470  -24.4070   19.8210 C   0  0  0  0  0  2  0  0  0  0  0  0
  -27.9810  -26.0450   20.1820 O   0  0  0  0  0  0  0  0  0  0  0  0
  -24.6170  -32.0670   23.3340 C   0  0  0  0  0  0  0  0  0  0  0  0
  -26.9820  -27.1740   20.1330 C   0  0  0  0  0  0  0  0  0  0  0  0
  -23.3300  -30.6960   21.7440 C   0  0  0  0  0  3  0  0  0  0  0  0
  -24.6950  -29.0940   20.2280 C   0  0  0  0  0  0  0  0  0  0  0  0
  -25.8870  -30.8890   21.4640 C   0  0  0  0  0  2  0  0  0  0  0  0
  -25.9170  -29.4810   20.7900 C   0  0  0  0  0  0  0  0  0  0  0  0
  -27.0500  -28.5440   20.7180 C   0  0  0  0  0  3  0  0  0  0  0  0
  -25.7320  -26.9630   19.5070 C   0  0  0  0  0  3  0  0  0  0  0  0
  -24.6290  -27.8570   19.5640 C   0  0  0  0  0  3  0  0  0  0  0  0
  -23.4850  -30.0220   20.3530 C   0  0  0  0  0  2  0  0  0  0  0  0
  -24.6380  -31.2440   22.2340 N   0  0  0  0  0  0  0  0  0  0  0  0
  -23.5590  -32.3570   23.9170 O   0  0  0  0  0  0  0  0  0  0  0  0
  -22.6790  -29.6970   22.7370 C   0  0  0  0  0  0  0  0  0  0  0  0
  -21.3640  -29.4460   22.5980 N   0  0  0  0  0  0  0  0  0  0  0  0
  -23.3670  -29.1470   23.5990 O   0  0  0  0  0  0  0  0  0  0  0  0
  -20.8590  -29.9410   21.8750 H   0  0  0  0  0  0  0  0  0  0  0  0
  -18.0910  -27.9350   23.0060 C   0  0  0  0  0  0  0  0  0  0  0  0
  -20.5890  -28.4860   23.3920 C   0  0  0  0  0  3  0  0  0  0  0  0
  -20.8690  -27.0340   22.9360 C   0  0  0  0  0  2  0  0  0  0  0  0
  -19.8740  -26.5280   21.8870 C   0  0  0  0  0  2  0  0  0  0  0  0
  -18.4470  -26.5690   22.4410 C   0  0  0  0  0  2  0  0  0  0  0  0
  -19.0960  -28.8400   23.4390 C   0  0  0  0  0  0  0  0  0  0  0  0
  -18.7120  -30.1070   23.9300 C   0  0  0  0  0  3  0  0  0  0  0  0
  -17.3550  -30.4740   23.9910 C   0  0  0  0  0  3  0  0  0  0  0  0
  -16.3620  -29.5690   23.5740 C   0  0  0  0  0  3  0  0  0  0  0  0
  -16.7310  -28.3010   23.0880 C   0  0  0  0  0  3  0  0  0  0  0  0
  -25.9240  -32.6960   23.9060 C   0  0  0  0  0  3  0  0  0  0  0  0
  -26.4730  -31.9350   25.1770 C   0  0  1  0  0  0  0  0  0  0  0  0
  -25.4060  -31.7010   26.2720 C   0  0  0  0  0  1  0  0  0  0  0  0
  -27.0510  -30.5560   24.7880 C   0  0  0  0  0  1  0  0  0  0  0  0
  -27.6350  -32.7370   25.8090 C   0  0  0  0  0  1  0  0  0  0  0  0
  -25.6420  -34.1030   24.2430 N   0  0  0  0  0  0  0  0  0  0  0  0
  -25.9340  -35.1540   23.4650 C   0  0  0  0  0  0  0  0  0  0  0  0
  -26.5340  -35.0390   22.3930 O   0  0  0  0  0  0  0  0  0  0  0  0
  -25.0960  -34.2650   25.0780 H   0  0  0  0  0  0  0  0  0  0  0  0
  -24.1960  -36.9630   23.2470 C   0  0  0  0  0  1  0  0  0  0  0  0
  -25.4980  -36.5530   23.9510 C   0  0  0  0  0  3  0  0  0  0  0  0
  -27.6920  -37.4460   24.6030 C   0  0  0  0  0  1  0  0  0  0  0  0
  -26.5250  -37.5980   23.7400 N   0  0  0  0  0  0  0  0  0  0  0  0
  -26.1330  -38.5230   23.8960 H   0  0  0  0  0  0  0  0  0  0  0  0
  1  3  1  0
  2  6  1  0
  3 46  1  0
  4  2  2  0
  4  5  1  0
  5  1  2  0
  6  7  1  0
  6  3  2  0
  8 14  1  0
  9 14  1  0
 10 11  1  0
 10  9  1  0
 12 11  1  0
 12 21  1  0
 12 13  1  0
 14 13  1  0
 15  8  2  0
 16  8  1  0
 16  4  1  0
 17 16  1  0
 18 19  2  0
 19 38  1  0
 20 19  1  0
 20 23  1  0
 21 22  1  0
 21 18  1  0
 22 20  2  0
 23 24  1  0
 24 25  2  0
 26 29  1  0
 26 25  1  0
 27 26  2  0
 28 27  1  0
 28 23  2  0
 29 30  1  0
 30 35  2  0
 30 31  1  0
 31 32  2  0
 32 33  1  0
 33 37  1  0
 34 33  2  0
 35 34  1  0
 36 35  1  0
 38 39  1  0
 39 42  1  0
 39 41  1  0
 40 38  2  0
 43 18  1  0
 43 44  1  0
 45 43  1  0
 46 48  1  0
 46 47  1  0
 49  5  1  0
 49 50  1  0
 51 52  1  0
 51 50  1  0
 53 64  2  0
 54 52  1  0
 54 59  1  0
 55 63  1  0
 55 65  1  0
 56 62  1  0
 56 58  1  0
 57 63  1  0
 58 57  1  0
 59 58  2  0
 60 61  1  0
 60 54  2  0
 61 56  2  0
 62 55  1  0
 63 53  1  0
 65 67  2  0
 66 65  1  0
 68 66  1  0
 69 78  2  0
 69 74  1  0
 70 66  1  0
 70 74  1  0
 71 70  1  0
 72 73  1  0
 72 71  1  0
 73 69  1  0
 74 75  2  0
 75 76  1  0
 77 76  2  0
 78 77  1  0
 79 53  1  0
 79 84  1  0
 79 80  1  0
 80 83  1  1
 80 81  1  0
 82 80  1  0
 84 87  1  0
 85 89  1  0
 85 84  1  0
 86 85  2  0
 89 88  1  0
 91 92  1  0
 91 89  1  0
 91 90  1  0
M  ISO  4   8 100  16 100  51 101  52 101
M  END
>  <TORSDO>  (12) 
F 20

>  <SCORE>  (12) 
-15.056

>  <name>  (12) 
11

>  <ligand_id>  (12) 
11

>  <original_smiles>  (12) 
[H]c1c([H])c([H])c2c(c1[H])C([H])([H])C([H])([H])C([H])([H])C2([H])N([H])C(=O)C1([H])N(C(=O)C([H])(N([H])C(=O)C([H])(N([H])C([H])([H])[H])C([H])([H])[H])C(C([H])([H])[H])(C([H])([H])[H])C([H])([H])[H])C([H])([H])c2c([H])c(OC([H])([H])C([H])([H])Oc3c([H])c(N([H])[H])c(F)c([H])c3N([H])C(=O)N3C([H])([H])C([H])([H])C([H])([H])C([H])(n4nc(-c5c([H])c([H])c(Oc6c([H])c([H])c(F)c([H])c6F)c([H])c5[H])c(C(=O)N([H])[H])c4N([H])[H])C3([H])[H])c([H])c([H])c2C1([H])[H]

>  <smiles>  (12) 
[H]c1c([H])c([H])c2c(c1[H])C([H])([H])C([H])([H])C([H])([H])C2([H])N([H])C(=O)C1([H])N(C(=O)C([H])(N([H])C(=O)C([H])(N([H])C([H])([H])[H])C([H])([H])[H])C(C([H])([H])[H])(C([H])([H])[H])C([H])([H])[H])C([H])([H])c2c([H])c(OC([H])([H])C([H])([H])Oc3c([H])c(N([H])[H])c(F)c([H])c3N([H])C(=O)N3C([H])([H])C([H])([H])C([H])([H])C([H])(n4nc(-c5c([H])c([H])c(Oc6c([H])c([H])c(F)c([H])c6F)c([H])c5[H])c(C(=O)N([H])[H])c4N([H])[H])C3([H])[H])c([H])c([H])c2C1([H])[H]

$$$$
12:0:0
     RDKit          3D

 91 99  0  0  1  0  0  0  0  0999 V2000
  -28.5780  -23.3350   20.2560 C   0  0  0  0  0  0  0  0  0  0  0  0
  -30.6180  -22.8760   19.0860 C   0  0  0  0  0  1  0  0  0  0  0  0
  -29.4550  -22.3060   19.7810 N   0  0  0  0  0  0  0  0  0  0  0  0
  -27.8610  -23.1040   21.2350 O   0  0  0  0  0  0  0  0  0  0  0  0
  -28.9140  -18.4960   21.0230 C   0  0  0  0  0  3  0  0  0  0  0  0
  -28.8040  -19.9480   20.9090 C   0  0  0  0  0  3  0  0  0  0  0  0
  -30.4200  -18.4310   19.2290 C   0  0  0  0  0  3  0  0  0  0  0  0
  -29.7420  -17.6390   20.2060 C   0  0  0  0  0  0  0  0  0  0  0  0
  -29.4970  -20.7520   19.9390 C   0  0  0  0  0  0  0  0  0  0  0  0
  -30.2920  -19.8750   19.0880 C   0  0  0  0  0  0  0  0  0  0  0  0
  -30.9610  -20.4010   18.0350 F   0  0  0  0  0  0  0  0  0  0  0  0
  -30.5300  -14.9960   19.9410 C   0  0  0  0  0  0  0  0  0  0  0  0
  -30.3690  -12.6720   18.9420 C   0  0  0  0  0  2  0  0  0  0  0  0
  -29.3500  -12.6830   17.7770 C   0  0  0  0  0  2  0  0  0  0  0  0
  -27.9160  -12.4670   18.2980 C   0  0  0  0  0  2  0  0  0  0  0  0
  -27.6000  -13.3440   19.5390 C   0  0  0  0  0  3  0  0  0  0  0  0
  -28.7300  -13.2900   20.5890 C   0  0  0  0  0  2  0  0  0  0  0  0
  -29.9670  -13.7220   19.9210 N   0  0  0  0  0  0  0  0  0  0  0  0
  -31.6790  -15.1200   19.5010 O   0  0  0  0  0  0  0  0  0  0  0  0
  -29.7400  -16.1060   20.3420 N   0  0  0  0  0  0  0  0  0  0  0  0
  -28.9140  -15.7700   20.8140 H   0  0  0  0  0  0  0  0  0  0  0  0
  -25.2780  -13.9080   20.4580 C   0  0  0  0  0  0  0  0  0  0  0  0
  -24.2360  -13.1250   20.8730 C   0  0  0  0  0  0  0  0  0  0  0  0
  -24.6880  -11.7750   20.7610 C   0  0  0  0  0  0  0  0  0  0  0  0
  -26.2960  -13.0340   20.1140 N   0  0  0  0  0  0  0  0  0  0  0  0
  -25.9540  -11.7440   20.3590 N   0  0  0  0  0  0  0  0  0  0  0  0
  -23.9680  -10.5090   20.9580 C   0  0  0  0  0  0  0  0  0  0  0  0
  -24.4250   -9.5320   21.8700 C   0  0  0  0  0  3  0  0  0  0  0  0
  -23.7050   -8.3320   22.0550 C   0  0  0  0  0  3  0  0  0  0  0  0
  -22.5120   -8.1010   21.3290 C   0  0  0  0  0  0  0  0  0  0  0  0
  -22.0730   -9.0670   20.4070 C   0  0  0  0  0  3  0  0  0  0  0  0
  -22.7950  -10.2580   20.2190 C   0  0  0  0  0  3  0  0  0  0  0  0
  -21.7600   -6.9550   21.4260 O   0  0  0  0  0  0  0  0  0  0  0  0
  -21.7010   -6.2290   22.5880 C   0  0  0  0  0  0  0  0  0  0  0  0
  -21.2460   -6.7940   23.7980 C   0  0  0  0  0  3  0  0  0  0  0  0
  -21.1350   -5.9920   24.9520 C   0  0  0  0  0  3  0  0  0  0  0  0
  -21.4700   -4.6260   24.8960 C   0  0  0  0  0  0  0  0  0  0  0  0
  -21.9170   -4.0590   23.6900 C   0  0  0  0  0  3  0  0  0  0  0  0
  -22.0290   -4.8580   22.5390 C   0  0  0  0  0  0  0  0  0  0  0  0
  -22.4420   -4.3020   21.3730 F   0  0  0  0  0  0  0  0  0  0  0  0
  -21.3560   -3.8540   26.0030 F   0  0  0  0  0  0  0  0  0  0  0  0
  -22.8650  -13.5990   21.2580 C   0  0  0  0  0  0  0  0  0  0  0  0
  -22.1930  -12.8780   22.1480 N   0  0  0  0  0  0  0  0  0  0  0  0
  -22.3990  -14.6430   20.8030 O   0  0  0  0  0  0  0  0  0  0  0  0
  -22.5840  -12.0330   22.5380 H   0  0  0  0  0  0  0  0  0  0  0  0
  -21.2750  -13.1780   22.4460 H   0  0  0  0  0  0  0  0  0  0  0  0
  -25.4390  -15.2840   20.3210 N   0  0  0  0  0  0  0  0  0  0  0  0
  -24.6870  -15.9350   20.5130 H   0  0  0  0  0  0  0  0  0  0  0  0
  -26.2630  -15.7330   19.9420 H   0  0  0  0  0  0  0  0  0  0  0  0
  -28.3700  -24.8310   19.5290 C   0  0  0  0  0  2  0  0  0  0  0  0
  -28.2730  -26.2080   20.2620 O   0  0  0  0  0  0  0  0  0  0  0  0
  -24.6100  -31.8720   23.2080 C   0  0  0  0  0  0  0  0  0  0  0  0
  -27.2050  -27.1760   20.1460 C   0  0  0  0  0  0  0  0  0  0  0  0
  -23.4120  -30.4740   21.5700 C   0  0  0  0  0  3  0  0  0  0  0  0
  -24.8640  -28.9160   20.1300 C   0  0  0  0  0  0  0  0  0  0  0  0
  -25.9660  -30.7500   21.4010 C   0  0  0  0  0  2  0  0  0  0  0  0
  -26.0420  -29.3610   20.7430 C   0  0  0  0  0  0  0  0  0  0  0  0
  -27.2070  -28.5040   20.7400 C   0  0  0  0  0  3  0  0  0  0  0  0
  -25.9960  -26.8380   19.4930 C   0  0  0  0  0  3  0  0  0  0  0  0
  -24.8560  -27.6680   19.4920 C   0  0  0  0  0  3  0  0  0  0  0  0
  -23.6320  -29.8050   20.1880 C   0  0  0  0  0  2  0  0  0  0  0  0
  -24.6830  -31.0540   22.1140 N   0  0  0  0  0  0  0  0  0  0  0  0
  -23.5230  -32.1510   23.7390 O   0  0  0  0  0  0  0  0  0  0  0  0
  -22.7420  -29.4620   22.5300 C   0  0  0  0  0  0  0  0  0  0  0  0
  -21.4140  -29.2880   22.4100 N   0  0  0  0  0  0  0  0  0  0  0  0
  -23.4190  -28.8350   23.3490 O   0  0  0  0  0  0  0  0  0  0  0  0
  -20.9230  -29.8450   21.7250 H   0  0  0  0  0  0  0  0  0  0  0  0
  -18.0350  -28.0880   22.9360 C   0  0  0  0  0  0  0  0  0  0  0  0
  -20.5970  -28.3470   23.1830 C   0  0  0  0  0  3  0  0  0  0  0  0
  -20.6920  -26.9190   22.5990 C   0  0  0  0  0  2  0  0  0  0  0  0
  -19.5820  -26.6020   21.5930 C   0  0  0  0  0  2  0  0  0  0  0  0
  -18.2050  -26.7440   22.2490 C   0  0  0  0  0  2  0  0  0  0  0  0
  -19.1580  -28.8480   23.3600 C   0  0  0  0  0  0  0  0  0  0  0  0
  -18.9430  -30.1060   23.9650 C   0  0  0  0  0  3  0  0  0  0  0  0
  -17.6390  -30.6040   24.1480 C   0  0  0  0  0  3  0  0  0  0  0  0
  -16.5310  -29.8410   23.7390 C   0  0  0  0  0  3  0  0  0  0  0  0
  -16.7310  -28.5850   23.1370 C   0  0  0  0  0  3  0  0  0  0  0  0
  -25.8870  -32.5130   23.8340 C   0  0  0  0  0  3  0  0  0  0  0  0
  -25.5660  -33.9080   24.1740 N   0  0  0  0  0  0  0  0  0  0  0  0
  -25.8860  -34.9710   23.4230 C   0  0  0  0  0  0  0  0  0  0  0  0
  -26.5480  -34.8800   22.3860 O   0  0  0  0  0  0  0  0  0  0  0  0
  -24.9740  -34.0520   24.9780 H   0  0  0  0  0  0  0  0  0  0  0  0
  -24.1440  -36.7600   23.1040 C   0  0  0  0  0  1  0  0  0  0  0  0
  -25.3960  -36.3540   23.8980 C   0  0  0  0  0  3  0  0  0  0  0  0
  -27.5330  -37.2490   24.7140 C   0  0  0  0  0  1  0  0  0  0  0  0
  -26.4210  -37.4150   23.7820 N   0  0  0  0  0  0  0  0  0  0  0  0
  -26.0100  -38.3310   23.9370 H   0  0  0  0  0  0  0  0  0  0  0  0
  -26.4040  -31.7420   25.1110 C   0  0  1  0  0  0  0  0  0  0  0  0
  -25.3100  -31.5010   26.1790 C   0  0  0  0  0  1  0  0  0  0  0  0
  -26.9910  -30.3650   24.7240 C   0  0  0  0  0  1  0  0  0  0  0  0
  -27.5520  -32.5390   25.7740 C   0  0  0  0  0  1  0  0  0  0  0  0
  1  4  2  0
  2  3  1  0
  3  9  1  0
  3  1  1  0
  6  5  1  0
  7  8  1  0
  8 20  1  0
  8  5  2  0
  9  6  2  0
 10  7  2  0
 10  9  1  0
 11 10  1  0
 12 20  1  0
 13 18  1  0
 14 15  1  0
 14 13  1  0
 16 15  1  0
 16 25  1  0
 16 17  1  0
 18 12  1  0
 18 17  1  0
 19 12  2  0
 20 21  1  0
 22 23  2  0
 23 42  1  0
 24 23  1  0
 24 27  1  0
 25 26  1  0
 25 22  1  0
 26 24  2  0
 27 28  1  0
 28 29  2  0
 30 33  1  0
 30 29  1  0
 31 30  2  0
 32 31  1  0
 32 27  2  0
 33 34  1  0
 34 35  1  0
 35 36  2  0
 37 36  1  0
 37 41  1  0
 38 37  2  0
 39 34  2  0
 39 38  1  0
 40 39  1  0
 42 43  1  0
 43 46  1  0
 43 45  1  0
 44 42  2  0
 47 22  1  0
 47 48  1  0
 49 47  1  0
 50  1  1  0
 50 51  1  0
 52 63  2  0
 53 51  1  0
 53 58  1  0
 54 62  1  0
 54 64  1  0
 55 61  1  0
 55 57  1  0
 56 62  1  0
 57 56  1  0
 58 57  2  0
 59 53  2  0
 60 59  1  0
 60 55  2  0
 61 54  1  0
 62 52  1  0
 64 66  2  0
 65 64  1  0
 67 65  1  0
 68 77  2  0
 68 73  1  0
 69 65  1  0
 69 73  1  0
 70 69  1  0
 71 72  1  0
 71 70  1  0
 72 68  1  0
 73 74  2  0
 74 75  1  0
 76 75  2  0
 77 76  1  0
 78 52  1  0
 78 79  1  0
 78 88  1  0
 79 82  1  0
 80 84  1  0
 80 79  1  0
 81 80  2  0
 84 83  1  0
 86 84  1  0
 86 87  1  0
 86 85  1  0
 88 91  1  1
 88 89  1  0
 90 88  1  0
M  ISO  4  12 100  20 100  50 101  51 101
M  END
>  <TORSDO>  (13) 
F 18

>  <SCORE>  (13) 
-14.179

>  <name>  (13) 
12

>  <ligand_id>  (13) 
12

>  <original_smiles>  (13) 
[H]c1c([H])c([H])c2c(c1[H])C([H])([H])C([H])([H])C([H])([H])C2([H])N([H])C(=O)C1([H])N(C(=O)C([H])(N([H])C(=O)C([H])(N([H])C([H])([H])[H])C([H])([H])[H])C(C([H])([H])[H])(C([H])([H])[H])C([H])([H])[H])C([H])([H])c2c([H])c(OC([H])([H])C(=O)N(c3c([H])c([H])c(N([H])C(=O)N4C([H])([H])C([H])([H])C([H])([H])C([H])(n5nc(-c6c([H])c([H])c(Oc7c([H])c([H])c(F)c([H])c7F)c([H])c6[H])c(C(=O)N([H])[H])c5N([H])[H])C4([H])[H])c([H])c3F)C([H])([H])[H])c([H])c([H])c2C1([H])[H]

>  <smiles>  (13) 
[H]c1c([H])c([H])c2c(c1[H])C([H])([H])C([H])([H])C([H])([H])C2([H])N([H])C(=O)C1([H])N(C(=O)C([H])(N([H])C(=O)C([H])(N([H])C([H])([H])[H])C([H])([H])[H])C(C([H])([H])[H])(C([H])([H])[H])C([H])([H])[H])C([H])([H])c2c([H])c(OC([H])([H])C(=O)N(c3c([H])c([H])c(N([H])C(=O)N4C([H])([H])C([H])([H])C([H])([H])C([H])(n5nc(-c6c([H])c([H])c(Oc7c([H])c([H])c(F)c([H])c7F)c([H])c6[H])c(C(=O)N([H])[H])c5N([H])[H])C4([H])[H])c([H])c3F)C([H])([H])[H])c([H])c([H])c2C1([H])[H]

$$$$
13:0:0
     RDKit          3D

 92100  0  0  1  0  0  0  0  0999 V2000
  -30.2490  -19.9610   19.7850 C   0  0  0  0  0  3  0  0  0  0  0  0
  -30.5110  -18.5190   19.8700 C   0  0  0  0  0  3  0  0  0  0  0  0
  -27.9410  -19.5400   20.0170 C   0  0  0  0  0  3  0  0  0  0  0  0
  -28.9350  -20.5560   19.8400 C   0  0  0  0  0  0  0  0  0  0  0  0
  -29.4870  -17.5140   20.0310 C   0  0  0  0  0  0  0  0  0  0  0  0
  -28.1860  -18.1090   20.1240 C   0  0  0  0  0  0  0  0  0  0  0  0
  -30.3630  -14.8890   19.6940 C   0  0  0  0  0  0  0  0  0  0  0  0
  -30.1610  -12.5680   18.6920 C   0  0  0  0  0  2  0  0  0  0  0  0
  -29.1120  -12.5960   17.5540 C   0  0  0  0  0  2  0  0  0  0  0  0
  -27.6890  -12.3900   18.1090 C   0  0  0  0  0  2  0  0  0  0  0  0
  -27.4100  -13.2680   19.3560 C   0  0  0  0  0  3  0  0  0  0  0  0
  -28.5650  -13.1990   20.3790 C   0  0  0  0  0  2  0  0  0  0  0  0
  -29.7920  -13.6180   19.6810 N   0  0  0  0  0  0  0  0  0  0  0  0
  -31.5080  -15.0150   19.2450 O   0  0  0  0  0  0  0  0  0  0  0  0
  -29.5550  -15.9820   20.0810 N   0  0  0  0  0  0  0  0  0  0  0  0
  -28.7040  -15.6230   20.4900 H   0  0  0  0  0  0  0  0  0  0  0  0
  -25.1090  -13.8480   20.3180 C   0  0  0  0  0  0  0  0  0  0  0  0
  -24.0720  -13.0750   20.7590 C   0  0  0  0  0  0  0  0  0  0  0  0
  -24.5140  -11.7210   20.6450 C   0  0  0  0  0  0  0  0  0  0  0  0
  -26.1170  -12.9690   19.9610 N   0  0  0  0  0  0  0  0  0  0  0  0
  -25.7720  -11.6810   20.2200 N   0  0  0  0  0  0  0  0  0  0  0  0
  -23.7900  -10.4610   20.8630 C   0  0  0  0  0  0  0  0  0  0  0  0
  -24.2580   -9.4870   21.7730 C   0  0  0  0  0  3  0  0  0  0  0  0
  -23.5320   -8.2940   21.9790 C   0  0  0  0  0  3  0  0  0  0  0  0
  -22.3260   -8.0660   21.2750 C   0  0  0  0  0  0  0  0  0  0  0  0
  -21.8770   -9.0280   20.3550 C   0  0  0  0  0  3  0  0  0  0  0  0
  -22.6030  -10.2140   20.1470 C   0  0  0  0  0  3  0  0  0  0  0  0
  -21.5700   -6.9250   21.3920 O   0  0  0  0  0  0  0  0  0  0  0  0
  -21.5220   -6.2090   22.5610 C   0  0  0  0  0  0  0  0  0  0  0  0
  -21.0980   -6.7920   23.7750 C   0  0  0  0  0  3  0  0  0  0  0  0
  -20.9970   -6.0030   24.9380 C   0  0  0  0  0  3  0  0  0  0  0  0
  -21.3100   -4.6310   24.8880 C   0  0  0  0  0  0  0  0  0  0  0  0
  -21.7270   -4.0470   23.6800 C   0  0  0  0  0  3  0  0  0  0  0  0
  -21.8290   -4.8340   22.5190 C   0  0  0  0  0  0  0  0  0  0  0  0
  -22.2110   -4.2610   21.3520 F   0  0  0  0  0  0  0  0  0  0  0  0
  -21.2060   -3.8720   26.0040 F   0  0  0  0  0  0  0  0  0  0  0  0
  -22.7120  -13.5580   21.1710 C   0  0  0  0  0  0  0  0  0  0  0  0
  -22.0640  -12.8540   22.0910 N   0  0  0  0  0  0  0  0  0  0  0  0
  -22.2370  -14.5970   20.7140 O   0  0  0  0  0  0  0  0  0  0  0  0
  -22.4620  -12.0140   22.4840 H   0  0  0  0  0  0  0  0  0  0  0  0
  -21.1550  -13.1610   22.4090 H   0  0  0  0  0  0  0  0  0  0  0  0
  -25.2680  -15.2230   20.1700 N   0  0  0  0  0  0  0  0  0  0  0  0
  -24.5200  -15.8710   20.3840 H   0  0  0  0  0  0  0  0  0  0  0  0
  -26.1070  -15.6810   19.8410 H   0  0  0  0  0  0  0  0  0  0  0  0
  -28.9340  -23.3380   19.7560 C   0  0  0  0  0  0  0  0  0  0  0  0
  -28.4760  -22.0050   19.6120 N   0  0  0  0  0  0  0  0  0  0  0  0
  -30.0590  -23.5630   20.2130 O   0  0  0  0  0  0  0  0  0  0  0  0
  -27.5120  -22.0370   19.3030 H   0  0  0  0  0  0  0  0  0  0  0  0
  -27.9910  -24.6260   19.3040 C   0  0  0  0  0  2  0  0  0  0  0  0
  -28.2910  -26.1250   19.6000 O   0  0  0  0  0  0  0  0  0  0  0  0
  -24.5210  -31.5370   22.9170 C   0  0  0  0  0  0  0  0  0  0  0  0
  -27.2110  -27.0880   19.5990 C   0  0  0  0  0  0  0  0  0  0  0  0
  -23.3480  -30.2040   21.2090 C   0  0  0  0  0  3  0  0  0  0  0  0
  -24.8300  -28.7620   19.6870 C   0  0  0  0  0  0  0  0  0  0  0  0
  -25.8930  -30.5540   21.0440 C   0  0  0  0  0  2  0  0  0  0  0  0
  -26.0020  -29.2060   20.3110 C   0  0  0  0  0  0  0  0  0  0  0  0
  -27.1930  -28.3860   20.2530 C   0  0  0  0  0  3  0  0  0  0  0  0
  -26.0050  -26.7510   18.9420 C   0  0  0  0  0  3  0  0  0  0  0  0
  -24.8440  -27.5480   18.9880 C   0  0  0  0  0  3  0  0  0  0  0  0
  -23.5770  -29.6170   19.7920 C   0  0  0  0  0  2  0  0  0  0  0  0
  -24.6060  -30.7840   21.7790 N   0  0  0  0  0  0  0  0  0  0  0  0
  -23.4310  -31.7600   23.4660 O   0  0  0  0  0  0  0  0  0  0  0  0
  -22.7070  -29.1230   22.1150 C   0  0  0  0  0  0  0  0  0  0  0  0
  -21.3740  -28.9600   22.0280 N   0  0  0  0  0  0  0  0  0  0  0  0
  -23.4090  -28.4350   22.8590 O   0  0  0  0  0  0  0  0  0  0  0  0
  -20.8630  -29.5690   21.4040 H   0  0  0  0  0  0  0  0  0  0  0  0
  -18.0050  -27.7750   22.6350 C   0  0  0  0  0  0  0  0  0  0  0  0
  -20.5810  -27.9670   22.7580 C   0  0  0  0  0  3  0  0  0  0  0  0
  -20.6130  -26.5960   22.0440 C   0  0  0  0  0  2  0  0  0  0  0  0
  -19.4420  -26.3910   21.0770 C   0  0  0  0  0  2  0  0  0  0  0  0
  -18.1070  -26.4950   21.8210 C   0  0  0  0  0  2  0  0  0  0  0  0
  -19.1650  -28.4740   23.0610 C   0  0  0  0  0  0  0  0  0  0  0  0
  -19.0110  -29.6730   23.7880 C   0  0  0  0  0  3  0  0  0  0  0  0
  -17.7320  -30.1750   24.0890 C   0  0  0  0  0  3  0  0  0  0  0  0
  -16.5860  -29.4720   23.6750 C   0  0  0  0  0  3  0  0  0  0  0  0
  -16.7250  -28.2730   22.9540 C   0  0  0  0  0  3  0  0  0  0  0  0
  -25.7840  -32.1730   23.5710 C   0  0  0  0  0  3  0  0  0  0  0  0
  -26.3330  -31.3430   24.7970 C   0  0  1  0  0  0  0  0  0  0  0  0
  -25.2570  -31.0200   25.8600 C   0  0  0  0  0  1  0  0  0  0  0  0
  -26.9430  -30.0020   24.3270 C   0  0  0  0  0  1  0  0  0  0  0  0
  -27.4710  -32.1250   25.4920 C   0  0  0  0  0  1  0  0  0  0  0  0
  -25.4310  -33.5380   23.9940 N   0  0  0  0  0  0  0  0  0  0  0  0
  -25.7250  -34.6510   23.3080 C   0  0  0  0  0  0  0  0  0  0  0  0
  -26.3890  -34.6370   22.2690 O   0  0  0  0  0  0  0  0  0  0  0  0
  -24.8390  -33.6190   24.8070 H   0  0  0  0  0  0  0  0  0  0  0  0
  -23.9340  -36.4070   23.0990 C   0  0  0  0  0  1  0  0  0  0  0  0
  -25.2020  -35.9900   23.8630 C   0  0  0  0  0  3  0  0  0  0  0  0
  -27.3190  -36.8940   24.7210 C   0  0  0  0  0  1  0  0  0  0  0  0
  -26.1980  -37.0820   23.8020 N   0  0  0  0  0  0  0  0  0  0  0  0
  -25.7650  -37.9780   24.0100 H   0  0  0  0  0  0  0  0  0  0  0  0
  -25.8320  -17.6910   20.4190 C   0  0  0  0  0  1  0  0  0  0  0  0
  -27.1630  -17.2010   20.3100 O   0  0  0  0  0  0  0  0  0  0  0  0
  1  4  2  0
  1  2  1  0
  2  5  2  0
  3  6  2  0
  4  3  1  0
  5 15  1  0
  5  6  1  0
  6 92  1  0
  7 15  1  0
  8 13  1  0
  9 10  1  0
  9  8  1  0
 11 10  1  0
 11 20  1  0
 11 12  1  0
 13  7  1  0
 13 12  1  0
 14  7  2  0
 15 16  1  0
 17 18  2  0
 18 37  1  0
 19 18  1  0
 19 22  1  0
 20 21  1  0
 20 17  1  0
 21 19  2  0
 22 23  1  0
 23 24  2  0
 25 28  1  0
 25 24  1  0
 26 25  2  0
 27 26  1  0
 27 22  2  0
 28 29  1  0
 29 30  1  0
 30 31  2  0
 32 31  1  0
 32 36  1  0
 33 32  2  0
 34 29  2  0
 34 33  1  0
 35 34  1  0
 37 38  1  0
 38 41  1  0
 38 40  1  0
 39 37  2  0
 42 17  1  0
 42 43  1  0
 44 42  1  0
 45 47  2  0
 46 45  1  0
 46  4  1  0
 48 46  1  0
 49 50  1  0
 49 45  1  0
 51 62  2  0
 52 50  1  0
 52 57  1  0
 53 61  1  0
 53 63  1  0
 54 60  1  0
 54 56  1  0
 55 61  1  0
 56 55  1  0
 57 56  2  0
 58 59  1  0
 58 52  2  0
 59 54  2  0
 60 53  1  0
 61 51  1  0
 63 65  2  0
 64 63  1  0
 66 64  1  0
 67 76  2  0
 67 72  1  0
 68 64  1  0
 68 72  1  0
 69 68  1  0
 70 71  1  0
 70 69  1  0
 71 67  1  0
 72 73  2  0
 73 74  1  0
 75 74  2  0
 76 75  1  0
 77 51  1  0
 77 82  1  0
 77 78  1  0
 78 81  1  1
 78 79  1  0
 80 78  1  0
 82 85  1  0
 83 87  1  0
 83 82  1  0
 84 83  2  0
 87 86  1  0
 89 87  1  0
 89 90  1  0
 89 88  1  0
 92 91  1  0
M  ISO  4   7 100  15 100  49 101  50 101
M  END
>  <TORSDO>  (14) 
F 19

>  <SCORE>  (14) 
-12.859

>  <name>  (14) 
13

>  <ligand_id>  (14) 
13

>  <original_smiles>  (14) 
[H]c1c([H])c([H])c2c(c1[H])C([H])([H])C([H])([H])C([H])([H])C2([H])N([H])C(=O)C1([H])N(C(=O)C([H])(N([H])C(=O)C([H])(N([H])C([H])([H])[H])C([H])([H])[H])C(C([H])([H])[H])(C([H])([H])[H])C([H])([H])[H])C([H])([H])c2c([H])c(OC([H])([H])C(=O)N([H])c3c([H])c([H])c(N([H])C(=O)N4C([H])([H])C([H])([H])C([H])([H])C([H])(n5nc(-c6c([H])c([H])c(Oc7c([H])c([H])c(F)c([H])c7F)c([H])c6[H])c(C(=O)N([H])[H])c5N([H])[H])C4([H])[H])c(OC([H])([H])[H])c3[H])c([H])c([H])c2C1([H])[H]

>  <smiles>  (14) 
[H]c1c([H])c([H])c2c(c1[H])C([H])([H])C([H])([H])C([H])([H])C2([H])N([H])C(=O)C1([H])N(C(=O)C([H])(N([H])C(=O)C([H])(N([H])C([H])([H])[H])C([H])([H])[H])C(C([H])([H])[H])(C([H])([H])[H])C([H])([H])[H])C([H])([H])c2c([H])c(OC([H])([H])C(=O)N([H])c3c([H])c([H])c(N([H])C(=O)N4C([H])([H])C([H])([H])C([H])([H])C([H])(n5nc(-c6c([H])c([H])c(Oc7c([H])c([H])c(F)c([H])c7F)c([H])c6[H])c(C(=O)N([H])[H])c5N([H])[H])C4([H])[H])c(OC([H])([H])[H])c3[H])c([H])c([H])c2C1([H])[H]

$$$$
14:0:0
     RDKit          3D

 93101  0  0  1  0  0  0  0  0999 V2000
  -30.1100  -22.0520   18.7320 C   0  0  0  0  0  0  0  0  0  0  0  0
  -31.2520  -20.2700   17.5710 C   0  0  0  0  0  1  0  0  0  0  0  0
  -30.4560  -20.7210   18.7260 N   0  0  0  0  0  0  0  0  0  0  0  0
  -30.4840  -22.7710   17.7950 O   0  0  0  0  0  0  0  0  0  0  0  0
  -28.8570  -17.5970   19.9940 C   0  0  0  0  0  3  0  0  0  0  0  0
  -28.9640  -18.9280   19.5200 C   0  0  0  0  0  3  0  0  0  0  0  0
  -31.1270  -17.6980   20.8260 C   0  0  0  0  0  3  0  0  0  0  0  0
  -31.2390  -19.0390   20.3710 C   0  0  0  0  0  0  0  0  0  0  0  0
  -29.9600  -16.9370   20.5850 C   0  0  0  0  0  0  0  0  0  0  0  0
  -30.1720  -19.6520   19.6500 C   0  0  0  0  0  0  0  0  0  0  0  0
  -32.5560  -19.7650   20.5800 C   0  0  0  0  0  1  0  0  0  0  0  0
  -30.6330  -14.5300   20.4830 C   0  0  0  0  0  0  0  0  0  0  0  0
  -30.3920  -12.3440   19.3570 C   0  0  0  0  0  2  0  0  0  0  0  0
  -29.4500  -12.5370   18.1490 C   0  0  0  0  0  2  0  0  0  0  0  0
  -27.9760  -12.3840   18.5720 C   0  0  0  0  0  2  0  0  0  0  0  0
  -27.6280  -13.2190   19.8340 C   0  0  0  0  0  3  0  0  0  0  0  0
  -28.6800  -13.0030   20.9460 C   0  0  0  0  0  2  0  0  0  0  0  0
  -30.0010  -13.3270   20.3810 N   0  0  0  0  0  0  0  0  0  0  0  0
  -31.7800  -14.7120   20.0590 O   0  0  0  0  0  0  0  0  0  0  0  0
  -29.8570  -15.5470   20.9320 N   0  0  0  0  0  0  0  0  0  0  0  0
  -28.9420  -15.2390   21.2270 H   0  0  0  0  0  0  0  0  0  0  0  0
  -25.2240  -13.8210   20.5240 C   0  0  0  0  0  0  0  0  0  0  0  0
  -24.1570  -13.0460   20.8910 C   0  0  0  0  0  0  0  0  0  0  0  0
  -24.6240  -11.6960   20.8690 C   0  0  0  0  0  0  0  0  0  0  0  0
  -26.2740  -12.9430   20.3060 N   0  0  0  0  0  0  0  0  0  0  0  0
  -25.9160  -11.6620   20.5710 N   0  0  0  0  0  0  0  0  0  0  0  0
  -23.9020  -10.4320   21.0610 C   0  0  0  0  0  0  0  0  0  0  0  0
  -24.3360   -9.4700   21.9980 C   0  0  0  0  0  3  0  0  0  0  0  0
  -23.6160   -8.2700   22.1790 C   0  0  0  0  0  3  0  0  0  0  0  0
  -22.4460   -8.0240   21.4210 C   0  0  0  0  0  0  0  0  0  0  0  0
  -22.0320   -8.9760   20.4720 C   0  0  0  0  0  3  0  0  0  0  0  0
  -22.7530  -10.1680   20.2910 C   0  0  0  0  0  3  0  0  0  0  0  0
  -21.6950   -6.8770   21.5090 O   0  0  0  0  0  0  0  0  0  0  0  0
  -21.6510   -6.1340   22.6600 C   0  0  0  0  0  0  0  0  0  0  0  0
  -21.2190   -6.6850   23.8860 C   0  0  0  0  0  3  0  0  0  0  0  0
  -21.1240   -5.8680   25.0310 C   0  0  0  0  0  3  0  0  0  0  0  0
  -21.4490   -4.5010   24.9490 C   0  0  0  0  0  0  0  0  0  0  0  0
  -21.8740   -3.9490   23.7280 C   0  0  0  0  0  3  0  0  0  0  0  0
  -21.9730   -4.7630   22.5870 C   0  0  0  0  0  0  0  0  0  0  0  0
  -22.3630   -4.2230   21.4060 F   0  0  0  0  0  0  0  0  0  0  0  0
  -21.3500   -3.7140   26.0450 F   0  0  0  0  0  0  0  0  0  0  0  0
  -22.7560  -13.5190   21.1540 C   0  0  0  0  0  0  0  0  0  0  0  0
  -22.0280  -12.8220   22.0200 N   0  0  0  0  0  0  0  0  0  0  0  0
  -22.3170  -14.5430   20.6320 O   0  0  0  0  0  0  0  0  0  0  0  0
  -22.3970  -11.9930   22.4620 H   0  0  0  0  0  0  0  0  0  0  0  0
  -21.0880  -13.1200   22.2430 H   0  0  0  0  0  0  0  0  0  0  0  0
  -25.3840  -15.1910   20.3410 N   0  0  0  0  0  0  0  0  0  0  0  0
  -24.6110  -15.8420   20.4370 H   0  0  0  0  0  0  0  0  0  0  0  0
  -26.2270  -15.6310   20.0000 H   0  0  0  0  0  0  0  0  0  0  0  0
  -29.2830  -22.7720   19.8340 C   0  0  0  0  0  2  0  0  0  0  0  0
  -29.1760  -24.3320   19.5600 C   0  0  0  0  0  2  0  0  0  0  0  0
  -28.3110  -25.2190   20.4990 C   0  0  0  0  0  2  0  0  0  0  0  0
  -28.3980  -26.6370   20.1670 O   0  0  0  0  0  0  0  0  0  0  0  0
  -24.5770  -31.8700   23.2220 C   0  0  0  0  0  0  0  0  0  0  0  0
  -27.2310  -27.3890   20.1640 C   0  0  0  0  0  0  0  0  0  0  0  0
  -23.3790  -30.4630   21.5820 C   0  0  0  0  0  3  0  0  0  0  0  0
  -24.8390  -28.9220   20.1600 C   0  0  0  0  0  0  0  0  0  0  0  0
  -25.9080  -30.8160   21.3920 C   0  0  0  0  0  2  0  0  0  0  0  0
  -25.9980  -29.4410   20.7520 C   0  0  0  0  0  0  0  0  0  0  0  0
  -27.1970  -28.6830   20.7450 C   0  0  0  0  0  3  0  0  0  0  0  0
  -26.0560  -26.9020   19.5500 C   0  0  0  0  0  3  0  0  0  0  0  0
  -24.8660  -27.6550   19.5520 C   0  0  0  0  0  3  0  0  0  0  0  0
  -23.5940  -29.7820   20.2030 C   0  0  0  0  0  2  0  0  0  0  0  0
  -24.6400  -31.0650   22.1230 N   0  0  0  0  0  0  0  0  0  0  0  0
  -23.4930  -32.1410   23.7590 O   0  0  0  0  0  0  0  0  0  0  0  0
  -22.7270  -29.4420   22.5420 C   0  0  0  0  0  0  0  0  0  0  0  0
  -21.4010  -29.2630   22.4180 N   0  0  0  0  0  0  0  0  0  0  0  0
  -23.4100  -28.8150   23.3560 O   0  0  0  0  0  0  0  0  0  0  0  0
  -20.9110  -29.8210   21.7330 H   0  0  0  0  0  0  0  0  0  0  0  0
  -18.0240  -28.0820   22.9310 C   0  0  0  0  0  0  0  0  0  0  0  0
  -20.5840  -28.3240   23.1870 C   0  0  0  0  0  3  0  0  0  0  0  0
  -20.6750  -26.8960   22.6010 C   0  0  0  0  0  2  0  0  0  0  0  0
  -19.5640  -26.5870   21.5920 C   0  0  0  0  0  2  0  0  0  0  0  0
  -18.1880  -26.7360   22.2460 C   0  0  0  0  0  2  0  0  0  0  0  0
  -19.1480  -28.8350   23.3580 C   0  0  0  0  0  0  0  0  0  0  0  0
  -18.9410  -30.0960   23.9570 C   0  0  0  0  0  3  0  0  0  0  0  0
  -17.6400  -30.6050   24.1350 C   0  0  0  0  0  3  0  0  0  0  0  0
  -16.5290  -29.8470   23.7220 C   0  0  0  0  0  3  0  0  0  0  0  0
  -16.7220  -28.5880   23.1270 C   0  0  0  0  0  3  0  0  0  0  0  0
  -25.8590  -32.5070   23.8460 C   0  0  0  0  0  3  0  0  0  0  0  0
  -26.3780  -31.7350   25.1210 C   0  0  1  0  0  0  0  0  0  0  0  0
  -25.2870  -31.4910   26.1890 C   0  0  0  0  0  1  0  0  0  0  0  0
  -26.9660  -30.3610   24.7250 C   0  0  0  0  0  1  0  0  0  0  0  0
  -27.5270  -32.5320   25.7830 C   0  0  0  0  0  1  0  0  0  0  0  0
  -25.5440  -33.9030   24.1760 N   0  0  0  0  0  0  0  0  0  0  0  0
  -25.8760  -34.9560   23.4180 C   0  0  0  0  0  0  0  0  0  0  0  0
  -26.5490  -34.8550   22.3870 O   0  0  0  0  0  0  0  0  0  0  0  0
  -24.9480  -34.0570   24.9750 H   0  0  0  0  0  0  0  0  0  0  0  0
  -24.1470  -36.7470   23.0540 C   0  0  0  0  0  1  0  0  0  0  0  0
  -25.3830  -36.3420   23.8730 C   0  0  0  0  0  3  0  0  0  0  0  0
  -27.5100  -37.2310   24.7210 C   0  0  0  0  0  1  0  0  0  0  0  0
  -26.4140  -37.3990   23.7700 N   0  0  0  0  0  0  0  0  0  0  0  0
  -26.0050  -38.3180   23.9160 H   0  0  0  0  0  0  0  0  0  0  0  0
  1 50  1  0
  2  3  1  0
  3  1  1  0
  3 10  1  0
  4  1  2  0
  5  9  1  0
  6 10  1  0
  6  5  2  0
  8 11  1  0
  8  7  1  0
  9  7  2  0
  9 20  1  0
 10  8  2  0
 12 20  1  0
 13 18  1  0
 14 15  1  0
 14 13  1  0
 16 15  1  0
 16 25  1  0
 16 17  1  0
 18 12  1  0
 18 17  1  0
 19 12  2  0
 20 21  1  0
 22 23  2  0
 23 42  1  0
 24 23  1  0
 24 27  1  0
 25 22  1  0
 25 26  1  0
 26 24  2  0
 27 28  1  0
 28 29  2  0
 30 33  1  0
 30 29  1  0
 31 30  2  0
 32 31  1  0
 32 27  2  0
 33 34  1  0
 34 35  1  0
 35 36  2  0
 37 36  1  0
 37 41  1  0
 38 37  2  0
 39 34  2  0
 39 38  1  0
 40 39  1  0
 42 43  1  0
 43 46  1  0
 43 45  1  0
 44 42  2  0
 47 48  1  0
 47 22  1  0
 49 47  1  0
 51 50  1  0
 51 52  1  0
 53 52  1  0
 54 65  2  0
 55 53  1  0
 55 60  1  0
 56 64  1  0
 56 66  1  0
 57 63  1  0
 57 59  1  0
 58 64  1  0
 59 58  1  0
 60 59  2  0
 61 62  1  0
 61 55  2  0
 62 57  2  0
 63 56  1  0
 64 54  1  0
 66 68  2  0
 67 66  1  0
 69 67  1  0
 70 79  2  0
 70 75  1  0
 71 67  1  0
 71 75  1  0
 72 71  1  0
 73 74  1  0
 73 72  1  0
 74 70  1  0
 75 76  2  0
 76 77  1  0
 78 77  2  0
 79 78  1  0
 80 54  1  0
 80 85  1  0
 80 81  1  0
 81 84  1  1
 81 82  1  0
 83 81  1  0
 85 88  1  0
 86 90  1  0
 86 85  1  0
 87 86  2  0
 90 89  1  0
 92 90  1  0
 92 93  1  0
 92 91  1  0
M  ISO  4  12 100  20 100  52 101  53 101
M  END
>  <TORSDO>  (15) 
F 20

>  <SCORE>  (15) 
-14.018

>  <name>  (15) 
14

>  <ligand_id>  (15) 
14

>  <original_smiles>  (15) 
[H]c1c([H])c([H])c2c(c1[H])C([H])([H])C([H])([H])C([H])([H])C2([H])N([H])C(=O)C1([H])N(C(=O)C([H])(N([H])C(=O)C([H])(N([H])C([H])([H])[H])C([H])([H])[H])C(C([H])([H])[H])(C([H])([H])[H])C([H])([H])[H])C([H])([H])c2c([H])c(OC([H])([H])C([H])([H])C([H])([H])C(=O)N(c3c([H])c([H])c(N([H])C(=O)N4C([H])([H])C([H])([H])C([H])([H])C([H])(n5nc(-c6c([H])c([H])c(Oc7c([H])c([H])c(F)c([H])c7F)c([H])c6[H])c(C(=O)N([H])[H])c5N([H])[H])C4([H])[H])c([H])c3C([H])([H])[H])C([H])([H])[H])c([H])c([H])c2C1([H])[H]

>  <smiles>  (15) 
[H]c1c([H])c([H])c2c(c1[H])C([H])([H])C([H])([H])C([H])([H])C2([H])N([H])C(=O)C1([H])N(C(=O)C([H])(N([H])C(=O)C([H])(N([H])C([H])([H])[H])C([H])([H])[H])C(C([H])([H])[H])(C([H])([H])[H])C([H])([H])[H])C([H])([H])c2c([H])c(OC([H])([H])C([H])([H])C([H])([H])C(=O)N(c3c([H])c([H])c(N([H])C(=O)N4C([H])([H])C([H])([H])C([H])([H])C([H])(n5nc(-c6c([H])c([H])c(Oc7c([H])c([H])c(F)c([H])c7F)c([H])c6[H])c(C(=O)N([H])[H])c5N([H])[H])C4([H])[H])c([H])c3C([H])([H])[H])C([H])([H])[H])c([H])c([H])c2C1([H])[H]

$$$$
15:0:0
     RDKit          3D

 90 98  0  0  1  0  0  0  0  0999 V2000
  -28.9310  -23.4160   20.2220 C   0  0  0  0  0  0  0  0  0  0  0  0
  -28.4630  -22.0840   20.1210 N   0  0  0  0  0  0  0  0  0  0  0  0
  -30.1160  -23.6430   20.4820 O   0  0  0  0  0  0  0  0  0  0  0  0
  -27.4640  -22.1140   19.9670 H   0  0  0  0  0  0  0  0  0  0  0  0
  -27.9860  -19.5960   20.3820 C   0  0  0  0  0  3  0  0  0  0  0  0
  -30.2740  -20.0540   20.0680 C   0  0  0  0  0  3  0  0  0  0  0  0
  -28.2670  -18.1810   20.4180 C   0  0  0  0  0  3  0  0  0  0  0  0
  -30.5590  -18.6110   20.0910 C   0  0  0  0  0  3  0  0  0  0  0  0
  -28.9570  -20.6310   20.2070 C   0  0  0  0  0  0  0  0  0  0  0  0
  -29.5590  -17.5830   20.2670 C   0  0  0  0  0  0  0  0  0  0  0  0
  -30.5130  -14.9770   20.0040 C   0  0  0  0  0  0  0  0  0  0  0  0
  -30.3820  -12.6540   18.9940 C   0  0  0  0  0  2  0  0  0  0  0  0
  -29.3680  -12.6620   17.8240 C   0  0  0  0  0  2  0  0  0  0  0  0
  -27.9300  -12.4380   18.3350 C   0  0  0  0  0  2  0  0  0  0  0  0
  -27.6000  -13.3170   19.5690 C   0  0  0  0  0  3  0  0  0  0  0  0
  -28.7220  -13.2610   20.6290 C   0  0  0  0  0  2  0  0  0  0  0  0
  -29.9630  -13.6970   19.9700 N   0  0  0  0  0  0  0  0  0  0  0  0
  -31.6770  -15.1220   19.6110 O   0  0  0  0  0  0  0  0  0  0  0  0
  -29.6540  -16.0530   20.3280 N   0  0  0  0  0  0  0  0  0  0  0  0
  -28.7800  -15.6530   20.6320 H   0  0  0  0  0  0  0  0  0  0  0  0
  -25.2640  -13.8770   20.4600 C   0  0  0  0  0  0  0  0  0  0  0  0
  -24.2230  -13.0910   20.8730 C   0  0  0  0  0  0  0  0  0  0  0  0
  -24.6820  -11.7420   20.7720 C   0  0  0  0  0  0  0  0  0  0  0  0
  -26.2900  -13.0060   20.1330 N   0  0  0  0  0  0  0  0  0  0  0  0
  -25.9530  -11.7150   20.3840 N   0  0  0  0  0  0  0  0  0  0  0  0
  -23.9660  -10.4750   20.9660 C   0  0  0  0  0  0  0  0  0  0  0  0
  -24.4190   -9.5040   21.8880 C   0  0  0  0  0  3  0  0  0  0  0  0
  -23.7010   -8.3020   22.0710 C   0  0  0  0  0  3  0  0  0  0  0  0
  -22.5180   -8.0620   21.3330 C   0  0  0  0  0  0  0  0  0  0  0  0
  -22.0850   -9.0220   20.4000 C   0  0  0  0  0  3  0  0  0  0  0  0
  -22.8030  -10.2140   20.2150 C   0  0  0  0  0  3  0  0  0  0  0  0
  -21.7710   -6.9130   21.4260 O   0  0  0  0  0  0  0  0  0  0  0  0
  -21.6980   -6.1940   22.5920 C   0  0  0  0  0  0  0  0  0  0  0  0
  -21.2190   -6.7650   23.7910 C   0  0  0  0  0  3  0  0  0  0  0  0
  -21.0960   -5.9710   24.9500 C   0  0  0  0  0  3  0  0  0  0  0  0
  -21.4430   -4.6080   24.9090 C   0  0  0  0  0  0  0  0  0  0  0  0
  -21.9150   -4.0360   23.7150 C   0  0  0  0  0  3  0  0  0  0  0  0
  -22.0400   -4.8260   22.5590 C   0  0  0  0  0  0  0  0  0  0  0  0
  -22.4760   -4.2660   21.4050 F   0  0  0  0  0  0  0  0  0  0  0  0
  -21.3170   -3.8430   26.0190 F   0  0  0  0  0  0  0  0  0  0  0  0
  -22.8450  -13.5600   21.2390 C   0  0  0  0  0  0  0  0  0  0  0  0
  -22.1690  -12.8420   22.1280 N   0  0  0  0  0  0  0  0  0  0  0  0
  -22.3770  -14.5980   20.7720 O   0  0  0  0  0  0  0  0  0  0  0  0
  -22.5610  -12.0010   22.5270 H   0  0  0  0  0  0  0  0  0  0  0  0
  -21.2460  -13.1360   22.4160 H   0  0  0  0  0  0  0  0  0  0  0  0
  -25.4150  -15.2520   20.3080 N   0  0  0  0  0  0  0  0  0  0  0  0
  -24.6390  -15.8890   20.4550 H   0  0  0  0  0  0  0  0  0  0  0  0
  -26.1990  -15.6880   19.8400 H   0  0  0  0  0  0  0  0  0  0  0  0
  -27.9110  -24.7020   19.9780 C   0  0  0  0  0  2  0  0  0  0  0  0
  -28.2560  -26.1990   20.2280 O   0  0  0  0  0  0  0  0  0  0  0  0
  -24.6290  -31.8650   23.2570 C   0  0  0  0  0  0  0  0  0  0  0  0
  -27.2090  -27.1930   20.1680 C   0  0  0  0  0  0  0  0  0  0  0  0
  -23.4300  -30.4920   21.5980 C   0  0  0  0  0  3  0  0  0  0  0  0
  -24.8800  -28.9390   20.1560 C   0  0  0  0  0  0  0  0  0  0  0  0
  -25.9860  -30.7580   21.4420 C   0  0  0  0  0  2  0  0  0  0  0  0
  -26.0600  -29.3750   20.7720 C   0  0  0  0  0  0  0  0  0  0  0  0
  -27.2250  -28.5190   20.7620 C   0  0  0  0  0  3  0  0  0  0  0  0
  -26.0000  -26.8630   19.5110 C   0  0  0  0  0  3  0  0  0  0  0  0
  -24.8630  -27.6960   19.5110 C   0  0  0  0  0  3  0  0  0  0  0  0
  -23.6540  -29.8350   20.2110 C   0  0  0  0  0  2  0  0  0  0  0  0
  -24.7020  -31.0590   22.1540 N   0  0  0  0  0  0  0  0  0  0  0  0
  -23.5430  -32.1440   23.7860 O   0  0  0  0  0  0  0  0  0  0  0  0
  -22.7490  -29.4720   22.5450 C   0  0  0  0  0  0  0  0  0  0  0  0
  -21.4220  -29.2990   22.4060 N   0  0  0  0  0  0  0  0  0  0  0  0
  -23.4160  -28.8410   23.3690 O   0  0  0  0  0  0  0  0  0  0  0  0
  -20.9400  -29.8590   21.7180 H   0  0  0  0  0  0  0  0  0  0  0  0
  -18.0400  -28.0900   22.8780 C   0  0  0  0  0  0  0  0  0  0  0  0
  -20.5970  -28.3540   23.1640 C   0  0  0  0  0  3  0  0  0  0  0  0
  -20.7040  -26.9270   22.5780 C   0  0  0  0  0  2  0  0  0  0  0  0
  -19.6090  -26.6110   21.5540 C   0  0  0  0  0  2  0  0  0  0  0  0
  -18.2230  -26.7480   22.1900 C   0  0  0  0  0  2  0  0  0  0  0  0
  -19.1540  -28.8510   23.3210 C   0  0  0  0  0  0  0  0  0  0  0  0
  -18.9270  -30.1070   23.9260 C   0  0  0  0  0  3  0  0  0  0  0  0
  -17.6190  -30.6010   24.0910 C   0  0  0  0  0  3  0  0  0  0  0  0
  -16.5210  -29.8380   23.6630 C   0  0  0  0  0  3  0  0  0  0  0  0
  -16.7310  -28.5830   23.0620 C   0  0  0  0  0  3  0  0  0  0  0  0
  -25.9070  -32.4900   23.8940 C   0  0  0  0  0  3  0  0  0  0  0  0
  -25.6030  -33.8920   24.2220 N   0  0  0  0  0  0  0  0  0  0  0  0
  -25.9250  -34.9430   23.4550 C   0  0  0  0  0  0  0  0  0  0  0  0
  -26.5760  -34.8340   22.4130 O   0  0  0  0  0  0  0  0  0  0  0  0
  -25.0230  -34.0500   25.0320 H   0  0  0  0  0  0  0  0  0  0  0  0
  -24.1830  -36.7330   23.1470 C   0  0  0  0  0  1  0  0  0  0  0  0
  -25.4530  -36.3360   23.9180 C   0  0  0  0  0  3  0  0  0  0  0  0
  -27.6100  -37.2370   24.6730 C   0  0  0  0  0  1  0  0  0  0  0  0
  -26.4790  -37.3900   23.7600 N   0  0  0  0  0  0  0  0  0  0  0  0
  -26.0760  -38.3110   23.9070 H   0  0  0  0  0  0  0  0  0  0  0  0
  -26.3980  -31.7190   25.1810 C   0  0  1  0  0  0  0  0  0  0  0  0
  -25.2890  -31.4950   26.2350 C   0  0  0  0  0  1  0  0  0  0  0  0
  -26.9750  -30.3350   24.8060 C   0  0  0  0  0  1  0  0  0  0  0  0
  -27.5470  -32.5060   25.8560 C   0  0  0  0  0  1  0  0  0  0  0  0
  1  3  2  0
  2  9  1  0
  2  1  1  0
  4  2  1  0
  5  7  1  0
  6  8  2  0
  6  9  1  0
  8 10  1  0
  9  5  2  0
 10 19  1  0
 10  7  2  0
 11 19  1  0
 12 17  1  0
 13 14  1  0
 13 12  1  0
 15 14  1  0
 15 24  1  0
 15 16  1  0
 17 11  1  0
 17 16  1  0
 18 11  2  0
 19 20  1  0
 21 22  2  0
 22 41  1  0
 23 22  1  0
 23 26  1  0
 24 25  1  0
 24 21  1  0
 25 23  2  0
 26 27  1  0
 27 28  2  0
 29 32  1  0
 29 28  1  0
 30 29  2  0
 31 30  1  0
 31 26  2  0
 32 33  1  0
 33 34  1  0
 34 35  2  0
 36 35  1  0
 36 40  1  0
 37 36  2  0
 38 33  2  0
 38 37  1  0
 39 38  1  0
 41 42  1  0
 42 45  1  0
 42 44  1  0
 43 41  2  0
 46 47  1  0
 46 21  1  0
 48 46  1  0
 49  1  1  0
 49 50  1  0
 51 62  2  0
 52 50  1  0
 52 57  1  0
 53 61  1  0
 53 63  1  0
 54 60  1  0
 54 56  1  0
 55 61  1  0
 56 55  1  0
 57 56  2  0
 58 52  2  0
 59 58  1  0
 59 54  2  0
 60 53  1  0
 61 51  1  0
 63 65  2  0
 64 63  1  0
 66 64  1  0
 67 76  2  0
 67 72  1  0
 68 64  1  0
 68 72  1  0
 69 68  1  0
 70 71  1  0
 70 69  1  0
 71 67  1  0
 72 73  2  0
 73 74  1  0
 75 74  2  0
 76 75  1  0
 77 51  1  0
 77 78  1  0
 77 87  1  0
 78 81  1  0
 79 83  1  0
 79 78  1  0
 80 79  2  0
 83 82  1  0
 85 86  1  0
 85 83  1  0
 85 84  1  0
 87 90  1  1
 87 88  1  0
 89 87  1  0
M  ISO  4  11 100  19 100  49 101  50 101
M  END
>  <TORSDO>  (16) 
F 18

>  <SCORE>  (16) 
-14.555

>  <name>  (16) 
15

>  <ligand_id>  (16) 
15

>  <original_smiles>  (16) 
[H]c1c([H])c([H])c2c(c1[H])C([H])([H])C([H])([H])C([H])([H])C2([H])N([H])C(=O)C1([H])N(C(=O)C([H])(N([H])C(=O)C([H])(N([H])C([H])([H])[H])C([H])([H])[H])C(C([H])([H])[H])(C([H])([H])[H])C([H])([H])[H])C([H])([H])c2c([H])c(OC([H])([H])C(=O)N([H])c3c([H])c([H])c(N([H])C(=O)N4C([H])([H])C([H])([H])C([H])([H])C([H])(n5nc(-c6c([H])c([H])c(Oc7c([H])c([H])c(F)c([H])c7F)c([H])c6[H])c(C(=O)N([H])[H])c5N([H])[H])C4([H])[H])c([H])c3[H])c([H])c([H])c2C1([H])[H]

>  <smiles>  (16) 
[H]c1c([H])c([H])c2c(c1[H])C([H])([H])C([H])([H])C([H])([H])C2([H])N([H])C(=O)C1([H])N(C(=O)C([H])(N([H])C(=O)C([H])(N([H])C([H])([H])[H])C([H])([H])[H])C(C([H])([H])[H])(C([H])([H])[H])C([H])([H])[H])C([H])([H])c2c([H])c(OC([H])([H])C(=O)N([H])c3c([H])c([H])c(N([H])C(=O)N4C([H])([H])C([H])([H])C([H])([H])C([H])(n5nc(-c6c([H])c([H])c(Oc7c([H])c([H])c(F)c([H])c7F)c([H])c6[H])c(C(=O)N([H])[H])c5N([H])[H])C4([H])[H])c([H])c3[H])c([H])c([H])c2C1([H])[H]

$$$$
16:0:0
     RDKit          3D

 98106  0  0  1  0  0  0  0  0999 V2000
  -31.0010  -19.2350   22.9770 C   0  0  0  0  0  0  0  0  0  0  0  0
  -30.9760  -20.2940   22.1640 N   0  0  0  0  0  0  0  0  0  0  0  0
  -30.9440  -19.3180   24.2040 O   0  0  0  0  0  0  0  0  0  0  0  0
  -31.0030  -20.0880   21.1760 H   0  0  0  0  0  0  0  0  0  0  0  0
  -31.9060  -17.6230   21.2310 C   0  0  0  0  0  3  0  0  0  0  0  0
  -31.8520  -16.3910   20.5500 C   0  0  0  0  0  3  0  0  0  0  0  0
  -30.0420  -16.9320   22.6460 C   0  0  0  0  0  3  0  0  0  0  0  0
  -30.9880  -17.9100   22.2710 C   0  0  0  0  0  0  0  0  0  0  0  0
  -30.8840  -15.4330   20.9130 C   0  0  0  0  0  0  0  0  0  0  0  0
  -29.9880  -15.6980   21.9710 C   0  0  0  0  0  0  0  0  0  0  0  0
  -30.6590  -13.8800   18.9930 C   0  0  0  0  0  0  0  0  0  0  0  0
  -29.9350  -11.9680   17.6010 C   0  0  0  0  0  2  0  0  0  0  0  0
  -28.7200  -12.2690   16.7070 C   0  0  0  0  0  2  0  0  0  0  0  0
  -27.4030  -12.0730   17.4800 C   0  0  0  0  0  2  0  0  0  0  0  0
  -27.4020  -12.8230   18.8350 C   0  0  0  0  0  3  0  0  0  0  0  0
  -28.6750  -12.4850   19.6310 C   0  0  0  0  0  2  0  0  0  0  0  0
  -29.8620  -12.8010   18.8050 N   0  0  0  0  0  0  0  0  0  0  0  0
  -31.3800  -14.3740   18.1180 O   0  0  0  0  0  0  0  0  0  0  0  0
  -30.7610  -14.1720   20.2940 N   0  0  0  0  0  0  0  0  0  0  0  0
  -30.2590  -13.5040   20.8610 H   0  0  0  0  0  0  0  0  0  0  0  0
  -25.2570  -13.4030   20.1450 C   0  0  0  0  0  0  0  0  0  0  0  0
  -24.2960  -12.6120   20.7160 C   0  0  0  0  0  0  0  0  0  0  0  0
  -24.7110  -11.2630   20.4920 C   0  0  0  0  0  0  0  0  0  0  0  0
  -26.1970  -12.5330   19.6110 N   0  0  0  0  0  0  0  0  0  0  0  0
  -25.8840  -11.2380   19.8720 N   0  0  0  0  0  0  0  0  0  0  0  0
  -24.0310   -9.9930   20.7770 C   0  0  0  0  0  0  0  0  0  0  0  0
  -24.5320   -9.0890   21.7390 C   0  0  0  0  0  3  0  0  0  0  0  0
  -23.8540   -7.8810   22.0090 C   0  0  0  0  0  3  0  0  0  0  0  0
  -22.6590   -7.5690   21.3170 C   0  0  0  0  0  0  0  0  0  0  0  0
  -22.1770   -8.4620   20.3430 C   0  0  0  0  0  3  0  0  0  0  0  0
  -22.8570   -9.6620   20.0720 C   0  0  0  0  0  3  0  0  0  0  0  0
  -21.9460   -6.4070   21.4920 O   0  0  0  0  0  0  0  0  0  0  0  0
  -21.6870   -5.9040   22.7420 C   0  0  0  0  0  0  0  0  0  0  0  0
  -21.0510   -6.6760   23.7400 C   0  0  0  0  0  3  0  0  0  0  0  0
  -20.7420   -6.0970   24.9860 C   0  0  0  0  0  3  0  0  0  0  0  0
  -21.0580   -4.7480   25.2350 C   0  0  0  0  0  0  0  0  0  0  0  0
  -21.6860   -3.9760   24.2410 C   0  0  0  0  0  3  0  0  0  0  0  0
  -21.9970   -4.5530   22.9980 C   0  0  0  0  0  0  0  0  0  0  0  0
  -22.5820   -3.8010   22.0350 F   0  0  0  0  0  0  0  0  0  0  0  0
  -20.7530   -4.1890   26.4290 F   0  0  0  0  0  0  0  0  0  0  0  0
  -23.0170  -13.0740   21.3520 C   0  0  0  0  0  0  0  0  0  0  0  0
  -22.5240  -12.3370   22.3420 N   0  0  0  0  0  0  0  0  0  0  0  0
  -22.4700  -14.1190   21.0030 O   0  0  0  0  0  0  0  0  0  0  0  0
  -22.9850  -11.4920   22.6460 H   0  0  0  0  0  0  0  0  0  0  0  0
  -21.6730  -12.6250   22.8060 H   0  0  0  0  0  0  0  0  0  0  0  0
  -25.4010  -14.7810   20.0180 N   0  0  0  0  0  0  0  0  0  0  0  0
  -24.7020  -15.4340   20.3570 H   0  0  0  0  0  0  0  0  0  0  0  0
  -26.1740  -15.2340   19.5470 H   0  0  0  0  0  0  0  0  0  0  0  0
  -29.0150  -14.7870   22.2950 O   0  0  0  0  0  0  0  0  0  0  0  0
  -29.4840  -13.4560   22.4490 C   0  0  0  0  0  2  0  0  0  0  0  0
  -28.6700  -11.0430   22.1510 C   0  0  0  0  0  1  0  0  0  0  0  0
  -28.2780  -12.5190   22.3000 C   0  0  0  0  0  2  0  0  0  0  0  0
  -30.7850  -21.6890   22.5390 C   0  0  0  0  0  2  0  0  0  0  0  0
  -29.7670  -22.3020   21.5670 C   0  0  0  0  0  2  0  0  0  0  0  0
  -29.4260  -23.7780   21.8170 C   0  0  0  0  0  2  0  0  0  0  0  0
  -28.4980  -24.3020   20.7090 C   0  0  0  0  0  2  0  0  0  0  0  0
  -28.2580  -25.8140   20.7470 C   0  0  0  0  0  2  0  0  0  0  0  0
  -27.4950  -26.1290   19.5850 O   0  0  0  0  0  0  0  0  0  0  0  0
  -24.7920  -31.4300   23.4760 C   0  0  0  0  0  0  0  0  0  0  0  0
  -26.4720  -27.0150   19.7920 C   0  0  0  0  0  0  0  0  0  0  0  0
  -23.2470  -30.3850   21.8430 C   0  0  0  0  0  3  0  0  0  0  0  0
  -24.3260  -28.8030   20.1610 C   0  0  0  0  0  0  0  0  0  0  0  0
  -25.7660  -30.4100   21.4280 C   0  0  0  0  0  2  0  0  0  0  0  0
  -25.5910  -29.1070   20.6810 C   0  0  0  0  0  0  0  0  0  0  0  0
  -26.6660  -28.2160   20.5050 C   0  0  0  0  0  3  0  0  0  0  0  0
  -25.2020  -26.7190   19.2590 C   0  0  0  0  0  3  0  0  0  0  0  0
  -24.1230  -27.6040   19.4520 C   0  0  0  0  0  3  0  0  0  0  0  0
  -23.2330  -29.8200   20.3970 C   0  0  0  0  0  2  0  0  0  0  0  0
  -24.6260  -30.7480   22.3080 N   0  0  0  0  0  0  0  0  0  0  0  0
  -23.8160  -31.7980   24.1430 O   0  0  0  0  0  0  0  0  0  0  0  0
  -22.5350  -29.3780   22.7740 C   0  0  0  0  0  0  0  0  0  0  0  0
  -21.2010  -29.2930   22.6500 N   0  0  0  0  0  0  0  0  0  0  0  0
  -23.1800  -28.6800   23.5610 O   0  0  0  0  0  0  0  0  0  0  0  0
  -20.7480  -29.9080   21.9890 H   0  0  0  0  0  0  0  0  0  0  0  0
  -17.7750  -28.2170   23.0170 C   0  0  0  0  0  0  0  0  0  0  0  0
  -20.3260  -28.3880   23.3940 C   0  0  0  0  0  3  0  0  0  0  0  0
  -20.4030  -26.9500   22.8290 C   0  0  0  0  0  2  0  0  0  0  0  0
  -19.3320  -26.6580   21.7740 C   0  0  0  0  0  2  0  0  0  0  0  0
  -17.9310  -26.8560   22.3590 C   0  0  0  0  0  2  0  0  0  0  0  0
  -18.9000  -28.9410   23.4890 C   0  0  0  0  0  0  0  0  0  0  0  0
  -18.7050  -30.2170   24.0610 C   0  0  0  0  0  3  0  0  0  0  0  0
  -17.4130  -30.7660   24.1700 C   0  0  0  0  0  3  0  0  0  0  0  0
  -16.3000  -30.0370   23.7170 C   0  0  0  0  0  3  0  0  0  0  0  0
  -16.4820  -28.7660   23.1440 C   0  0  0  0  0  3  0  0  0  0  0  0
  -26.2080  -31.8010   24.0140 C   0  0  0  0  0  3  0  0  0  0  0  0
  -26.7620  -30.7720   25.0740 C   0  0  1  0  0  0  0  0  0  0  0  0
  -25.7350  -30.3950   26.1680 C   0  0  0  0  0  1  0  0  0  0  0  0
  -27.2180  -29.4670   24.3800 C   0  0  0  0  0  1  0  0  0  0  0  0
  -28.0090  -31.3590   25.7760 C   0  0  0  0  0  1  0  0  0  0  0  0
  -26.1190  -33.1480   24.5930 N   0  0  0  0  0  0  0  0  0  0  0  0
  -26.5910  -34.2580   24.0100 C   0  0  0  0  0  0  0  0  0  0  0  0
  -27.2180  -34.2420   22.9470 O   0  0  0  0  0  0  0  0  0  0  0  0
  -25.5620  -33.2460   25.4300 H   0  0  0  0  0  0  0  0  0  0  0  0
  -25.1990  -36.3530   23.9940 C   0  0  0  0  0  1  0  0  0  0  0  0
  -26.3250  -35.5980   24.7190 C   0  0  0  0  0  3  0  0  0  0  0  0
  -28.5600  -35.9210   25.6830 C   0  0  0  0  0  1  0  0  0  0  0  0
  -27.5210  -36.4630   24.8120 N   0  0  0  0  0  0  0  0  0  0  0  0
  -27.2730  -37.3880   25.1510 H   0  0  0  0  0  0  0  0  0  0  0  0
  1  3  2  0
  2 53  1  0
  2  1  1  0
  4  2  1  0
  5  8  1  0
  6  9  1  0
  6  5  2  0
  8  7  2  0
  8  1  1  0
  9 10  2  0
 10 49  1  0
 10  7  1  0
 11 19  1  0
 12 17  1  0
 13 14  1  0
 13 12  1  0
 15 14  1  0
 15 24  1  0
 15 16  1  0
 17 11  1  0
 17 16  1  0
 18 11  2  0
 19 20  1  0
 19  9  1  0
 21 22  2  0
 22 41  1  0
 23 22  1  0
 23 26  1  0
 24 25  1  0
 24 21  1  0
 25 23  2  0
 26 27  1  0
 27 28  2  0
 29 32  1  0
 29 28  1  0
 30 29  2  0
 31 30  1  0
 31 26  2  0
 32 33  1  0
 33 38  2  0
 33 34  1  0
 34 35  2  0
 35 36  1  0
 36 40  1  0
 37 36  2  0
 38 37  1  0
 39 38  1  0
 41 42  1  0
 42 44  1  0
 42 45  1  0
 43 41  2  0
 46 21  1  0
 46 47  1  0
 48 46  1  0
 49 50  1  0
 51 52  1  0
 52 50  1  0
 54 55  1  0
 54 53  1  0
 56 57  1  0
 56 55  1  0
 58 60  1  0
 58 57  1  0
 59 70  2  0
 60 65  1  0
 61 69  1  0
 61 71  1  0
 62 68  1  0
 62 64  1  0
 63 69  1  0
 64 63  1  0
 65 64  2  0
 66 67  1  0
 66 60  2  0
 67 62  2  0
 68 61  1  0
 69 59  1  0
 71 73  2  0
 72 71  1  0
 74 72  1  0
 75 84  2  0
 75 80  1  0
 76 72  1  0
 76 80  1  0
 77 76  1  0
 78 79  1  0
 78 77  1  0
 79 75  1  0
 80 81  2  0
 81 82  1  0
 83 82  2  0
 84 83  1  0
 85 59  1  0
 85 90  1  0
 85 86  1  0
 86 89  1  1
 86 87  1  0
 88 86  1  0
 90 93  1  0
 91 90  1  0
 91 95  1  0
 92 91  2  0
 95 94  1  0
 95 97  1  0
 97 98  1  0
 97 96  1  0
M  ISO  4  11 100  19 100  57 101  58 101
M  END
>  <TORSDO>  (17) 
F 25

>  <SCORE>  (17) 
-4.411

>  <name>  (17) 
16

>  <ligand_id>  (17) 
16

>  <original_smiles>  (17) 
[H]c1c([H])c([H])c2c(c1[H])C([H])([H])C([H])([H])C([H])([H])C2([H])N([H])C(=O)C1([H])N(C(=O)C([H])(N([H])C(=O)C([H])(N([H])C([H])([H])[H])C([H])([H])[H])C(C([H])([H])[H])(C([H])([H])[H])C([H])([H])[H])C([H])([H])c2c([H])c(OC([H])([H])C([H])([H])C([H])([H])C([H])([H])C([H])([H])N([H])C(=O)c3c([H])c([H])c(N([H])C(=O)N4C([H])([H])C([H])([H])C([H])([H])C([H])(n5nc(-c6c([H])c([H])c(Oc7c([H])c([H])c(F)c([H])c7F)c([H])c6[H])c(C(=O)N([H])[H])c5N([H])[H])C4([H])[H])c(OC([H])([H])C([H])([H])C([H])([H])[H])c3[H])c([H])c([H])c2C1([H])[H]

>  <smiles>  (17) 
[H]c1c([H])c([H])c2c(c1[H])C([H])([H])C([H])([H])C([H])([H])C2([H])N([H])C(=O)C1([H])N(C(=O)C([H])(N([H])C(=O)C([H])(N([H])C([H])([H])[H])C([H])([H])[H])C(C([H])([H])[H])(C([H])([H])[H])C([H])([H])[H])C([H])([H])c2c([H])c(OC([H])([H])C([H])([H])C([H])([H])C([H])([H])C([H])([H])N([H])C(=O)c3c([H])c([H])c(N([H])C(=O)N4C([H])([H])C([H])([H])C([H])([H])C([H])(n5nc(-c6c([H])c([H])c(Oc7c([H])c([H])c(F)c([H])c7F)c([H])c6[H])c(C(=O)N([H])[H])c5N([H])[H])C4([H])[H])c(OC([H])([H])C([H])([H])C([H])([H])[H])c3[H])c([H])c([H])c2C1([H])[H]

$$$$
17:0:0
     RDKit          3D

 93101  0  0  1  0  0  0  0  0999 V2000
  -30.3580  -21.6810   20.1440 C   0  0  0  0  0  2  0  0  0  0  0  0
  -28.9630  -19.4330   20.3480 C   0  0  0  0  0  3  0  0  0  0  0  0
  -31.2720  -17.8560   20.0940 C   0  0  0  0  0  3  0  0  0  0  0  0
  -30.1860  -20.1130   20.1190 C   0  0  0  0  0  0  0  0  0  0  0  0
  -30.0520  -17.1730   20.3430 C   0  0  0  0  0  0  0  0  0  0  0  0
  -31.3350  -19.2780   19.9920 C   0  0  0  0  0  0  0  0  0  0  0  0
  -28.9010  -18.0070   20.4600 C   0  0  0  0  0  0  0  0  0  0  0  0
  -32.5470  -19.8490   19.7870 F   0  0  0  0  0  0  0  0  0  0  0  0
  -27.3660  -17.2800   20.7750 Cl  0  0  0  0  0  0  0  0  0  0  0  0
  -30.6410  -14.6520   20.0130 C   0  0  0  0  0  0  0  0  0  0  0  0
  -30.3310  -12.4540   18.8940 C   0  0  0  0  0  2  0  0  0  0  0  0
  -29.3340  -12.6370   17.7280 C   0  0  0  0  0  2  0  0  0  0  0  0
  -27.8790  -12.4950   18.2190 C   0  0  0  0  0  2  0  0  0  0  0  0
  -27.5970  -13.3200   19.5020 C   0  0  0  0  0  3  0  0  0  0  0  0
  -28.7040  -13.1120   20.5620 C   0  0  0  0  0  2  0  0  0  0  0  0
  -29.9920  -13.4470   19.9340 N   0  0  0  0  0  0  0  0  0  0  0  0
  -31.7830  -14.7870   19.5650 O   0  0  0  0  0  0  0  0  0  0  0  0
  -29.9020  -15.7140   20.4640 N   0  0  0  0  0  0  0  0  0  0  0  0
  -29.0260  -15.4370   20.8810 H   0  0  0  0  0  0  0  0  0  0  0  0
  -25.2380  -13.9310   20.3180 C   0  0  0  0  0  0  0  0  0  0  0  0
  -24.1800  -13.1650   20.7260 C   0  0  0  0  0  0  0  0  0  0  0  0
  -24.6290  -11.8100   20.6650 C   0  0  0  0  0  0  0  0  0  0  0  0
  -26.2660  -13.0450   20.0390 N   0  0  0  0  0  0  0  0  0  0  0  0
  -25.9060  -11.7630   20.3060 N   0  0  0  0  0  0  0  0  0  0  0  0
  -23.8980  -10.5530   20.8710 C   0  0  0  0  0  0  0  0  0  0  0  0
  -24.3160   -9.6040   21.8290 C   0  0  0  0  0  3  0  0  0  0  0  0
  -23.5860   -8.4110   22.0220 C   0  0  0  0  0  3  0  0  0  0  0  0
  -22.4220   -8.1600   21.2560 C   0  0  0  0  0  0  0  0  0  0  0  0
  -22.0230   -9.0980   20.2890 C   0  0  0  0  0  3  0  0  0  0  0  0
  -22.7540  -10.2820   20.0940 C   0  0  0  0  0  3  0  0  0  0  0  0
  -21.6640   -7.0190   21.3580 O   0  0  0  0  0  0  0  0  0  0  0  0
  -21.5400   -6.3400   22.5440 C   0  0  0  0  0  0  0  0  0  0  0  0
  -21.0230   -6.9560   23.7040 C   0  0  0  0  0  3  0  0  0  0  0  0
  -20.8480   -6.2020   24.8830 C   0  0  0  0  0  3  0  0  0  0  0  0
  -21.1790   -4.8350   24.8990 C   0  0  0  0  0  0  0  0  0  0  0  0
  -21.6890   -4.2180   23.7430 C   0  0  0  0  0  3  0  0  0  0  0  0
  -21.8650   -4.9690   22.5670 C   0  0  0  0  0  0  0  0  0  0  0  0
  -22.3360   -4.3650   21.4500 F   0  0  0  0  0  0  0  0  0  0  0  0
  -21.0040   -4.1080   26.0280 F   0  0  0  0  0  0  0  0  0  0  0  0
  -22.8010  -13.6530   21.0610 C   0  0  0  0  0  0  0  0  0  0  0  0
  -22.1090  -12.9650   21.9630 N   0  0  0  0  0  0  0  0  0  0  0  0
  -22.3460  -14.6800   20.5580 O   0  0  0  0  0  0  0  0  0  0  0  0
  -22.4910  -12.1350   22.3910 H   0  0  0  0  0  0  0  0  0  0  0  0
  -21.1850  -13.2740   22.2290 H   0  0  0  0  0  0  0  0  0  0  0  0
  -25.4040  -15.3000   20.1420 N   0  0  0  0  0  0  0  0  0  0  0  0
  -24.6540  -15.9600   20.3180 H   0  0  0  0  0  0  0  0  0  0  0  0
  -26.2560  -15.7460   19.8310 H   0  0  0  0  0  0  0  0  0  0  0  0
  -29.3540  -24.0280   20.0570 C   0  0  0  0  0  0  0  0  0  0  0  0
  -29.2370  -22.6610   19.9280 N   0  0  0  0  0  0  0  0  0  0  0  0
  -30.3970  -24.5280   20.4850 O   0  0  0  0  0  0  0  0  0  0  0  0
  -28.3670  -22.2980   19.5630 H   0  0  0  0  0  0  0  0  0  0  0  0
  -28.1760  -24.9880   19.6320 C   0  0  0  0  0  2  0  0  0  0  0  0
  -28.3650  -26.4400   19.8930 O   0  0  0  0  0  0  0  0  0  0  0  0
  -24.4910  -31.6320   23.0980 C   0  0  0  0  0  0  0  0  0  0  0  0
  -27.2200  -27.2570   19.8770 C   0  0  0  0  0  0  0  0  0  0  0  0
  -23.3180  -30.2490   21.4230 C   0  0  0  0  0  3  0  0  0  0  0  0
  -24.8040  -28.7950   19.9390 C   0  0  0  0  0  0  0  0  0  0  0  0
  -25.8450  -30.6520   21.2320 C   0  0  0  0  0  2  0  0  0  0  0  0
  -25.9630  -29.2990   20.5410 C   0  0  0  0  0  0  0  0  0  0  0  0
  -27.1730  -28.5430   20.5000 C   0  0  0  0  0  3  0  0  0  0  0  0
  -26.0300  -26.8070   19.2540 C   0  0  0  0  0  3  0  0  0  0  0  0
  -24.8390  -27.5530   19.2870 C   0  0  0  0  0  3  0  0  0  0  0  0
  -23.5410  -29.6270   20.0200 C   0  0  0  0  0  2  0  0  0  0  0  0
  -24.5700  -30.8600   21.9740 N   0  0  0  0  0  0  0  0  0  0  0  0
  -23.4030  -31.8580   23.6480 O   0  0  0  0  0  0  0  0  0  0  0  0
  -22.6950  -29.1810   22.3540 C   0  0  0  0  0  0  0  0  0  0  0  0
  -21.3760  -28.9580   22.2210 N   0  0  0  0  0  0  0  0  0  0  0  0
  -23.3970  -28.5580   23.1560 O   0  0  0  0  0  0  0  0  0  0  0  0
  -20.8670  -29.5160   21.5510 H   0  0  0  0  0  0  0  0  0  0  0  0
  -18.0400  -27.6460   22.7050 C   0  0  0  0  0  0  0  0  0  0  0  0
  -20.5920  -27.9710   22.9650 C   0  0  0  0  0  3  0  0  0  0  0  0
  -20.7310  -26.5640   22.3430 C   0  0  0  0  0  2  0  0  0  0  0  0
  -19.6320  -26.2420   21.3260 C   0  0  0  0  0  2  0  0  0  0  0  0
  -18.2510  -26.3250   21.9840 C   0  0  0  0  0  2  0  0  0  0  0  0
  -19.1390  -28.4260   23.1520 C   0  0  0  0  0  0  0  0  0  0  0  0
  -18.8870  -29.6630   23.7850 C   0  0  0  0  0  3  0  0  0  0  0  0
  -17.5690  -30.1190   23.9760 C   0  0  0  0  0  3  0  0  0  0  0  0
  -16.4840  -29.3350   23.5450 C   0  0  0  0  0  3  0  0  0  0  0  0
  -16.7210  -28.1010   22.9150 C   0  0  0  0  0  3  0  0  0  0  0  0
  -25.7580  -32.2840   23.7310 C   0  0  0  0  0  3  0  0  0  0  0  0
  -26.2840  -31.5110   25.0020 C   0  0  1  0  0  0  0  0  0  0  0  0
  -25.1910  -31.2410   26.0620 C   0  0  0  0  0  1  0  0  0  0  0  0
  -26.8960  -30.1500   24.6000 C   0  0  0  0  0  1  0  0  0  0  0  0
  -27.4140  -32.3220   25.6780 C   0  0  0  0  0  1  0  0  0  0  0  0
  -25.4190  -33.6720   24.0740 N   0  0  0  0  0  0  0  0  0  0  0  0
  -25.7120  -34.7380   23.3160 C   0  0  0  0  0  0  0  0  0  0  0  0
  -26.3680  -34.6560   22.2730 O   0  0  0  0  0  0  0  0  0  0  0  0
  -24.8340  -33.8080   24.8860 H   0  0  0  0  0  0  0  0  0  0  0  0
  -23.9270  -36.4820   23.0110 C   0  0  0  0  0  1  0  0  0  0  0  0
  -25.1990  -36.1100   23.7890 C   0  0  0  0  0  3  0  0  0  0  0  0
  -27.3250  -37.0580   24.5740 C   0  0  0  0  0  1  0  0  0  0  0  0
  -26.1990  -37.1930   23.6530 N   0  0  0  0  0  0  0  0  0  0  0  0
  -25.7690  -38.1010   23.8090 H   0  0  0  0  0  0  0  0  0  0  0  0
  2  7  1  0
  3  5  1  0
  4  1  1  0
  4  2  2  0
  5  7  2  0
  5 18  1  0
  6  3  2  0
  6  4  1  0
  7  9  1  0
  8  6  1  0
 10 18  1  0
 11 16  1  0
 12 13  1  0
 12 11  1  0
 14 13  1  0
 14 23  1  0
 14 15  1  0
 16 10  1  0
 16 15  1  0
 17 10  2  0
 18 19  1  0
 20 21  2  0
 21 40  1  0
 22 21  1  0
 22 25  1  0
 23 24  1  0
 23 20  1  0
 24 22  2  0
 25 26  1  0
 26 27  2  0
 28 31  1  0
 28 27  1  0
 29 28  2  0
 30 29  1  0
 30 25  2  0
 31 32  1  0
 32 37  2  0
 32 33  1  0
 33 34  2  0
 34 35  1  0
 35 39  1  0
 36 35  2  0
 37 36  1  0
 38 37  1  0
 40 41  1  0
 41 44  1  0
 41 43  1  0
 42 40  2  0
 45 20  1  0
 45 46  1  0
 47 45  1  0
 48 50  2  0
 49 48  1  0
 49  1  1  0
 51 49  1  0
 52 53  1  0
 52 48  1  0
 54 65  2  0
 55 53  1  0
 55 60  1  0
 56 64  1  0
 56 66  1  0
 57 63  1  0
 57 59  1  0
 58 64  1  0
 59 58  1  0
 60 59  2  0
 61 62  1  0
 61 55  2  0
 62 57  2  0
 63 56  1  0
 64 54  1  0
 66 68  2  0
 67 66  1  0
 69 67  1  0
 70 79  2  0
 70 75  1  0
 71 67  1  0
 71 75  1  0
 72 71  1  0
 73 74  1  0
 73 72  1  0
 74 70  1  0
 75 76  2  0
 76 77  1  0
 78 77  2  0
 79 78  1  0
 80 54  1  0
 80 85  1  0
 80 81  1  0
 81 84  1  1
 81 82  1  0
 83 81  1  0
 85 88  1  0
 86 90  1  0
 86 85  1  0
 87 86  2  0
 90 89  1  0
 92 90  1  0
 92 93  1  0
 92 91  1  0
M  ISO  4  10 100  18 100  52 101  53 101
M  END
>  <TORSDO>  (18) 
F 19

>  <SCORE>  (18) 
-13.425

>  <name>  (18) 
17

>  <ligand_id>  (18) 
17

>  <original_smiles>  (18) 
[H]c1c([H])c([H])c2c(c1[H])C([H])([H])C([H])([H])C([H])([H])C2([H])N([H])C(=O)C1([H])N(C(=O)C([H])(N([H])C(=O)C([H])(N([H])C([H])([H])[H])C([H])([H])[H])C(C([H])([H])[H])(C([H])([H])[H])C([H])([H])[H])C([H])([H])c2c([H])c(OC([H])([H])C(=O)N([H])C([H])([H])c3c([H])c(Cl)c(N([H])C(=O)N4C([H])([H])C([H])([H])C([H])([H])C([H])(n5nc(-c6c([H])c([H])c(Oc7c([H])c([H])c(F)c([H])c7F)c([H])c6[H])c(C(=O)N([H])[H])c5N([H])[H])C4([H])[H])c([H])c3F)c([H])c([H])c2C1([H])[H]

>  <smiles>  (18) 
[H]c1c([H])c([H])c2c(c1[H])C([H])([H])C([H])([H])C([H])([H])C2([H])N([H])C(=O)C1([H])N(C(=O)C([H])(N([H])C(=O)C([H])(N([H])C([H])([H])[H])C([H])([H])[H])C(C([H])([H])[H])(C([H])([H])[H])C([H])([H])[H])C([H])([H])c2c([H])c(OC([H])([H])C(=O)N([H])C([H])([H])c3c([H])c(Cl)c(N([H])C(=O)N4C([H])([H])C([H])([H])C([H])([H])C([H])(n5nc(-c6c([H])c([H])c(Oc7c([H])c([H])c(F)c([H])c7F)c([H])c6[H])c(C(=O)N([H])[H])c5N([H])[H])C4([H])[H])c([H])c3F)c([H])c([H])c2C1([H])[H]

$$$$
18:0:0
     RDKit          3D

103111  0  0  1  0  0  0  0  0999 V2000
  -31.1230  -17.0870   21.9280 C   0  0  0  0  0  3  0  0  0  0  0  0
  -31.6200  -18.1210   22.7240 C   0  0  0  0  0  3  0  0  0  0  0  0
  -30.8690  -19.7120   21.0610 C   0  0  0  0  0  3  0  0  0  0  0  0
  -30.3510  -18.7080   20.1990 C   0  0  0  0  0  0  0  0  0  0  0  0
  -30.4920  -17.2820   20.6640 C   0  0  0  0  0  0  0  0  0  0  0  0
  -31.5040  -19.4380   22.2790 C   0  0  0  0  0  0  0  0  0  0  0  0
  -30.7040  -14.7470   20.0330 C   0  0  0  0  0  0  0  0  0  0  0  0
  -30.4780  -12.3600   19.2730 C   0  0  0  0  0  2  0  0  0  0  0  0
  -29.5400  -12.2450   18.0550 C   0  0  0  0  0  2  0  0  0  0  0  0
  -28.0770  -12.1140   18.5160 C   0  0  0  0  0  2  0  0  0  0  0  0
  -27.6970  -13.1570   19.5990 C   0  0  0  0  0  3  0  0  0  0  0  0
  -28.7570  -13.2480   20.7160 C   0  0  0  0  0  2  0  0  0  0  0  0
  -30.0360  -13.5380   20.0610 N   0  0  0  0  0  0  0  0  0  0  0  0
  -31.8980  -14.7470   19.7220 O   0  0  0  0  0  0  0  0  0  0  0  0
  -30.0060  -15.9670   20.1230 N   0  0  0  0  0  0  0  0  0  0  0  0
  -29.0090  -15.9020   19.9880 H   0  0  0  0  0  0  0  0  0  0  0  0
  -25.3920  -13.8560   20.4660 C   0  0  0  0  0  0  0  0  0  0  0  0
  -24.2860  -13.1360   20.8250 C   0  0  0  0  0  0  0  0  0  0  0  0
  -24.6500  -11.7610   20.6900 C   0  0  0  0  0  0  0  0  0  0  0  0
  -26.3590  -12.9250   20.1300 N   0  0  0  0  0  0  0  0  0  0  0  0
  -25.9240  -11.6550   20.3310 N   0  0  0  0  0  0  0  0  0  0  0  0
  -23.8410  -10.5420   20.8240 C   0  0  0  0  0  0  0  0  0  0  0  0
  -24.2480   -9.4710   21.6510 C   0  0  0  0  0  3  0  0  0  0  0  0
  -23.4410   -8.3200   21.7790 C   0  0  0  0  0  3  0  0  0  0  0  0
  -22.2140   -8.2320   21.0800 C   0  0  0  0  0  0  0  0  0  0  0  0
  -21.8250   -9.2900   20.2410 C   0  0  0  0  0  3  0  0  0  0  0  0
  -22.6310  -10.4330   20.1110 C   0  0  0  0  0  3  0  0  0  0  0  0
  -21.3790   -7.1410   21.1250 O   0  0  0  0  0  0  0  0  0  0  0  0
  -21.3530   -6.2980   22.2050 C   0  0  0  0  0  0  0  0  0  0  0  0
  -21.0510   -6.7590   23.5050 C   0  0  0  0  0  3  0  0  0  0  0  0
  -20.9670   -5.8450   24.5740 C   0  0  0  0  0  3  0  0  0  0  0  0
  -21.1770   -4.4730   24.3470 C   0  0  0  0  0  0  0  0  0  0  0  0
  -21.4740   -4.0090   23.0530 C   0  0  0  0  0  3  0  0  0  0  0  0
  -21.5590   -4.9200   21.9850 C   0  0  0  0  0  0  0  0  0  0  0  0
  -21.8250   -4.4670   20.7360 F   0  0  0  0  0  0  0  0  0  0  0  0
  -21.0890   -3.5940   25.3720 F   0  0  0  0  0  0  0  0  0  0  0  0
  -22.9380  -13.6910   21.1770 C   0  0  0  0  0  0  0  0  0  0  0  0
  -22.2010  -13.0060   22.0450 N   0  0  0  0  0  0  0  0  0  0  0  0
  -22.5500  -14.7640   20.7180 O   0  0  0  0  0  0  0  0  0  0  0  0
  -22.5300  -12.1360   22.4360 H   0  0  0  0  0  0  0  0  0  0  0  0
  -21.2970  -13.3590   22.3240 H   0  0  0  0  0  0  0  0  0  0  0  0
  -25.6470  -15.2220   20.3700 N   0  0  0  0  0  0  0  0  0  0  0  0
  -24.9290  -15.9160   20.5440 H   0  0  0  0  0  0  0  0  0  0  0  0
  -26.5060  -15.6220   20.0150 H   0  0  0  0  0  0  0  0  0  0  0  0
  -33.2800  -20.8270   23.2710 C   0  0  0  0  0  0  0  0  0  0  0  0
  -33.6150  -21.8380   24.0680 N   0  0  0  0  0  0  0  0  0  0  0  0
  -34.2610  -20.1480   22.6710 N   0  0  0  0  0  4  0  0  0  0  0  0
  -31.9760  -20.5330   23.0920 N   0  0  0  0  0  0  0  0  0  0  0  0
  -34.5760  -22.1010   24.2310 H   0  0  0  0  0  0  0  0  0  0  0  0
  -32.9130  -22.3700   24.5660 H   0  0  0  0  0  0  0  0  0  0  0  0
  -35.2380  -20.3510   22.8250 H   0  0  0  0  0  0  0  0  0  0  0  0
  -34.0370  -19.4090   22.0230 H   0  0  0  0  0  0  0  0  0  0  0  0
  -31.3310  -21.2730   23.3340 H   0  0  0  0  0  0  0  0  0  0  0  0
  -29.7140  -19.2680   18.8840 C   0  0  0  0  0  0  0  0  0  0  0  0
  -28.9980  -20.4960   18.7480 N   0  0  0  0  0  0  0  0  0  0  0  0
  -29.6990  -18.4670   17.9450 O   0  0  0  0  0  0  0  0  0  0  0  0
  -27.6570  -20.3530   18.1430 C   0  0  0  0  0  2  0  0  0  0  0  0
  -25.2630  -19.5330   18.5200 C   0  0  0  0  0  1  0  0  0  0  0  0
  -26.6690  -19.6700   19.1120 C   0  0  0  0  0  2  0  0  0  0  0  0
  -29.2030  -21.9710   19.2000 C   0  0  0  0  0  2  0  0  0  0  0  0
  -28.5310  -23.2930   18.4550 C   0  0  0  0  0  2  0  0  0  0  0  0
  -28.0640  -24.6360   19.2790 C   0  0  0  0  0  2  0  0  0  0  0  0
  -28.1910  -26.0760   18.8110 O   0  0  0  0  0  0  0  0  0  0  0  0
  -25.1190  -30.9830   23.2820 C   0  0  0  0  0  0  0  0  0  0  0  0
  -27.1830  -27.0330   19.0950 C   0  0  0  0  0  0  0  0  0  0  0  0
  -23.7440  -30.1250   21.4210 C   0  0  0  0  0  3  0  0  0  0  0  0
  -24.9980  -28.8410   19.5910 C   0  0  0  0  0  0  0  0  0  0  0  0
  -26.2980  -30.2510   21.1850 C   0  0  0  0  0  2  0  0  0  0  0  0
  -26.2290  -29.0600   20.2240 C   0  0  0  0  0  0  0  0  0  0  0  0
  -27.3280  -28.1740   19.9600 C   0  0  0  0  0  3  0  0  0  0  0  0
  -25.9350  -26.8870   18.4570 C   0  0  0  0  0  3  0  0  0  0  0  0
  -24.8580  -27.7670   18.6970 C   0  0  0  0  0  3  0  0  0  0  0  0
  -23.8530  -29.7860   19.9110 C   0  0  0  0  0  2  0  0  0  0  0  0
  -25.0770  -30.4570   22.0220 N   0  0  0  0  0  0  0  0  0  0  0  0
  -24.0820  -31.2110   23.9220 O   0  0  0  0  0  0  0  0  0  0  0  0
  -23.0150  -28.9690   22.1480 C   0  0  0  0  0  0  0  0  0  0  0  0
  -21.6740  -28.9390   22.0530 N   0  0  0  0  0  0  0  0  0  0  0  0
  -23.6560  -28.1110   22.7600 O   0  0  0  0  0  0  0  0  0  0  0  0
  -21.2190  -29.6840   21.5440 H   0  0  0  0  0  0  0  0  0  0  0  0
  -18.2230  -27.8930   22.3640 C   0  0  0  0  0  0  0  0  0  0  0  0
  -20.7950  -27.9120   22.6190 C   0  0  0  0  0  3  0  0  0  0  0  0
  -20.7890  -26.6400   21.7400 C   0  0  0  0  0  2  0  0  0  0  0  0
  -19.6570  -26.6260   20.7070 C   0  0  0  0  0  2  0  0  0  0  0  0
  -18.2950  -26.7180   21.4020 C   0  0  0  0  0  2  0  0  0  0  0  0
  -19.3970  -28.4640   22.9220 C   0  0  0  0  0  0  0  0  0  0  0  0
  -19.2750  -29.5750   23.7830 C   0  0  0  0  0  3  0  0  0  0  0  0
  -18.0110  -30.1130   24.0920 C   0  0  0  0  0  3  0  0  0  0  0  0
  -16.8510  -29.5350   23.5490 C   0  0  0  0  0  3  0  0  0  0  0  0
  -16.9570  -28.4250   22.6900 C   0  0  0  0  0  3  0  0  0  0  0  0
  -26.4720  -31.3420   23.9710 C   0  0  0  0  0  3  0  0  0  0  0  0
  -26.3070  -32.6500   24.6250 N   0  0  0  0  0  0  0  0  0  0  0  0
  -26.8390  -33.7970   24.1810 C   0  0  0  0  0  0  0  0  0  0  0  0
  -27.5870  -33.8500   23.2000 O   0  0  0  0  0  0  0  0  0  0  0  0
  -25.6610  -32.6890   25.3990 H   0  0  0  0  0  0  0  0  0  0  0  0
  -25.4620  -35.9030   24.1440 C   0  0  0  0  0  1  0  0  0  0  0  0
  -26.4920  -35.0890   24.9450 C   0  0  0  0  0  3  0  0  0  0  0  0
  -28.5720  -35.3380   26.2270 C   0  0  0  0  0  1  0  0  0  0  0  0
  -27.6690  -35.9330   25.2440 N   0  0  0  0  0  0  0  0  0  0  0  0
  -27.3810  -36.8450   25.5890 H   0  0  0  0  0  0  0  0  0  0  0  0
  -26.9410  -30.2560   25.0180 C   0  0  1  0  0  0  0  0  0  0  0  0
  -25.8560  -29.8840   26.0560 C   0  0  0  0  0  1  0  0  0  0  0  0
  -27.3750  -28.9550   24.3030 C   0  0  0  0  0  1  0  0  0  0  0  0
  -28.1800  -30.7730   25.7860 C   0  0  0  0  0  1  0  0  0  0  0  0
  1  2  1  0
  3  6  1  0
  4  5  1  0
  4  3  2  0
  5  1  2  0
  6  2  2  0
  6 48  1  0
  7 13  1  0
  7 15  1  0
  8 13  1  0
  9 10  1  0
  9  8  1  0
 11 10  1  0
 11 20  1  0
 11 12  1  0
 13 12  1  0
 14  7  2  0
 15  5  1  0
 16 15  1  0
 17 18  2  0
 18 37  1  0
 19 22  1  0
 19 18  1  0
 20 21  1  0
 20 17  1  0
 21 19  2  0
 22 23  1  0
 23 24  2  0
 25 28  1  0
 25 24  1  0
 26 25  2  0
 27 26  1  0
 27 22  2  0
 28 29  1  0
 29 30  1  0
 30 31  2  0
 32 31  1  0
 32 36  1  0
 33 32  2  0
 34 29  2  0
 34 33  1  0
 35 34  1  0
 37 38  1  0
 38 41  1  0
 38 40  1  0
 39 37  2  0
 42 17  1  0
 42 43  1  0
 44 42  1  0
 45 46  1  0
 46 49  1  0
 46 50  1  0
 47 51  1  0
 47 45  2  0
 48 45  1  0
 48 53  1  0
 52 47  1  0
 54  4  1  0
 55 54  1  0
 55 60  1  0
 56 54  2  0
 57 55  1  0
 57 59  1  0
 58 59  1  0
 61 60  1  0
 61 62  1  0
 63 65  1  0
 63 62  1  0
 64 75  2  0
 65 70  1  0
 66 74  1  0
 66 76  1  0
 67 73  1  0
 67 69  1  0
 68 74  1  0
 69 68  1  0
 70 69  2  0
 71 72  1  0
 71 65  2  0
 72 67  2  0
 73 66  1  0
 74 64  1  0
 76 78  2  0
 77 76  1  0
 79 77  1  0
 80 89  2  0
 80 85  1  0
 81 77  1  0
 81 85  1  0
 82 81  1  0
 83 84  1  0
 83 82  1  0
 84 80  1  0
 85 86  2  0
 86 87  1  0
 88 87  2  0
 89 88  1  0
 90 64  1  0
 90 91  1  0
 90100  1  0
 91 94  1  0
 92 91  1  0
 92 96  1  0
 93 92  2  0
 96 95  1  0
 96 98  1  0
 98 99  1  0
 98 97  1  0
100103  1  1
100101  1  0
102100  1  0
M  ISO  4   7 100  15 100  62 101  63 101
M  END
>  <TORSDO>  (19) 
F 23

>  <SCORE>  (19) 
-9.333

>  <name>  (19) 
18

>  <ligand_id>  (19) 
18

>  <original_smiles>  (19) 
[H]c1c([H])c([H])c2c(c1[H])C([H])([H])C([H])([H])C([H])([H])C2([H])N([H])C(=O)C1([H])N(C(=O)C([H])(N([H])C(=O)C([H])(N([H])C([H])([H])[H])C([H])([H])[H])C(C([H])([H])[H])(C([H])([H])[H])C([H])([H])[H])C([H])([H])c2c([H])c(OC([H])([H])C([H])([H])C([H])([H])N(C(=O)c3c([H])c(N([H])C(N([H])[H])=[N+]([H])[H])c([H])c([H])c3N([H])C(=O)N3C([H])([H])C([H])([H])C([H])([H])C([H])(n4nc(-c5c([H])c([H])c(Oc6c([H])c([H])c(F)c([H])c6F)c([H])c5[H])c(C(=O)N([H])[H])c4N([H])[H])C3([H])[H])C([H])([H])C([H])([H])C([H])([H])[H])c([H])c([H])c2C1([H])[H]

>  <smiles>  (19) 
[H]c1c([H])c([H])c2c(c1[H])C([H])([H])C([H])([H])C([H])([H])C2([H])N([H])C(=O)C1([H])N(C(=O)C([H])(N([H])C(=O)C([H])(N([H])C([H])([H])[H])C([H])([H])[H])C(C([H])([H])[H])(C([H])([H])[H])C([H])([H])[H])C([H])([H])c2c([H])c(OC([H])([H])C([H])([H])C([H])([H])N(C(=O)c3c([H])c(N([H])C(N([H])[H])=[N+]([H])[H])c([H])c([H])c3N([H])C(=O)N3C([H])([H])C([H])([H])C([H])([H])C([H])(n4nc(-c5c([H])c([H])c(Oc6c([H])c([H])c(F)c([H])c6F)c([H])c5[H])c(C(=O)N([H])[H])c4N([H])[H])C3([H])[H])C([H])([H])C([H])([H])C([H])([H])[H])c([H])c([H])c2C1([H])[H]

$$$$
19:0:0
     RDKit          3D

 96 96  0  0  1  0  0  0  0  0999 V2000
  -27.8400  -23.0500   20.7830 C   0  0  0  0  0  2  0  0  0  0  0  0
  -26.8300  -24.5730   21.0890 C   0  0  0  0  0  1  0  0  0  0  0  0
  -29.4680  -23.9250   18.0100 C   0  0  0  0  0 15  0  0  0  0  0  0
  -29.0560  -22.6580   19.4650 C   0  0  0  0  0  2  0  0  0  0  0  0
  -26.8080  -26.1140   19.3770 C   0  0  0  0  0  2  0  0  0  0  0  0
  -28.4580  -25.6780   17.7200 C   0  0  0  0  0  2  0  0  0  0  0  0
  -29.4760  -19.5980   20.2800 C   0  0  0  0  0  0  0  0  0  0  0  0
  -29.7160  -21.0370   19.6710 N   0  0  0  0  0  0  0  0  0  0  0  0
  -28.3820  -19.5110   20.8400 O   0  0  0  0  0  0  0  0  0  0  0  0
  -30.6130  -20.9870   19.2060 H   0  0  0  0  0  0  0  0  0  0  0  0
  -30.3870  -17.9280   20.4160 C   0  0  0  0  0  2  0  0  0  0  0  0
  -30.8230  -14.7310   20.8280 C   0  0  0  0  0  0  0  0  0  0  0  0
  -30.9460  -12.1020   20.2600 C   0  0  0  0  0  2  0  0  0  0  0  0
  -30.1710  -11.5650   19.0210 C   0  0  0  0  0  2  0  0  0  0  0  0
  -28.7130  -11.2380   19.3740 C   0  0  0  0  0  2  0  0  0  0  0  0
  -28.1110  -12.3280   20.2860 C   0  0  0  0  0  3  0  0  0  0  0  0
  -29.0400  -12.7730   21.4460 C   0  0  0  0  0  2  0  0  0  0  0  0
  -30.2680  -13.3600   20.8370 N   0  0  0  0  0  0  0  0  0  0  0  0
  -32.0610  -14.6050   20.7710 O   0  0  0  0  0  0  0  0  0  0  0  0
  -30.1320  -16.1510   20.7070 N   0  0  0  0  0  0  0  0  0  0  0  0
  -29.1370  -15.9980   20.7780 H   0  0  0  0  0  0  0  0  0  0  0  0
  -25.6980  -12.9070   20.8210 C   0  0  0  0  0  0  0  0  0  0  0  0
  -24.6030  -12.1550   21.1370 C   0  0  0  0  0  0  0  0  0  0  0  0
  -25.0600  -10.8020   21.2170 C   0  0  0  0  0  0  0  0  0  0  0  0
  -26.7510  -12.0200   20.7140 N   0  0  0  0  0  0  0  0  0  0  0  0
  -26.3750  -10.7490   21.0210 N   0  0  0  0  0  0  0  0  0  0  0  0
  -24.3010   -9.5570   21.4070 C   0  0  0  0  0  0  0  0  0  0  0  0
  -24.6500   -8.6210   22.4060 C   0  0  0  0  0  3  0  0  0  0  0  0
  -23.8880   -7.4460   22.5850 C   0  0  0  0  0  3  0  0  0  0  0  0
  -22.7610   -7.1980   21.7660 C   0  0  0  0  0  0  0  0  0  0  0  0
  -22.4300   -8.1210   20.7580 C   0  0  0  0  0  3  0  0  0  0  0  0
  -23.1930   -9.2870   20.5770 C   0  0  0  0  0  3  0  0  0  0  0  0
  -21.9780   -6.0710   21.8510 O   0  0  0  0  0  0  0  0  0  0  0  0
  -21.8740   -5.3520   23.0150 C   0  0  0  0  0  0  0  0  0  0  0  0
  -21.2810   -5.8950   24.1750 C   0  0  0  0  0  3  0  0  0  0  0  0
  -21.1320   -5.1000   25.3290 C   0  0  0  0  0  3  0  0  0  0  0  0
  -21.5650   -3.7600   25.3220 C   0  0  0  0  0  0  0  0  0  0  0  0
  -22.1520   -3.2160   24.1660 C   0  0  0  0  0  3  0  0  0  0  0  0
  -22.3020   -4.0090   23.0140 C   0  0  0  0  0  0  0  0  0  0  0  0
  -22.8490   -3.4740   21.8960 F   0  0  0  0  0  0  0  0  0  0  0  0
  -21.4160   -2.9920   26.4260 F   0  0  0  0  0  0  0  0  0  0  0  0
  -23.1940  -12.6540   21.2510 C   0  0  0  0  0  0  0  0  0  0  0  0
  -22.3860  -12.0260   22.0970 N   0  0  0  0  0  0  0  0  0  0  0  0
  -22.8150  -13.6430   20.6230 O   0  0  0  0  0  0  0  0  0  0  0  0
  -22.7040  -11.2290   22.6300 H   0  0  0  0  0  0  0  0  0  0  0  0
  -21.4350  -12.3460   22.2170 H   0  0  0  0  0  0  0  0  0  0  0  0
  -25.8850  -14.2650   20.5830 N   0  0  0  0  0  0  0  0  0  0  0  0
  -25.1150  -14.9240   20.5860 H   0  0  0  0  0  0  0  0  0  0  0  0
  -26.7610  -14.6790   20.2880 H   0  0  0  0  0  0  0  0  0  0  0  0
  -27.0910  -26.4830   20.1880 C   0  0  0  0  0  2  0  0  0  0  0  0
  -26.9660  -26.2120   18.0500 N   0  0  0  0  0  0  0  0  0  0  0  0
  -26.0120  -26.7660   16.7730 C   0  0  0  0  0  2  0  0  0  0  0  0
  -24.5150  -26.2360   17.1050 C   0  0  0  0  0  2  0  0  0  0  0  0
  -24.5680  -26.5590   18.8470 O   0  0  0  0  0  0  0  0  0  0  0  0
  -25.3720  -31.9360   24.5210 C   0  0  0  0  0  0  0  0  0  0  0  0
  -25.7680  -26.3720   20.2240 C   0  0  0  0  0  1  0  0  0  0  0  0
  -23.5070  -31.5500   22.9430 C   0  0  0  0  0  3  0  0  0  0  0  0
  -23.8590  -30.3270   20.6360 C   0  0  0  0  0  1  0  0  0  0  0  0
  -26.0500  -31.1800   22.2350 C   0  0  0  0  0  2  0  0  0  0  0  0
  -25.7540  -30.0290   21.2980 C   0  0  0  0  0  1  0  0  0  0  0  0
  -26.7650  -28.1700   21.2040 C   0  0  0  0  0 15  0  0  0  0  0  0
  -23.4710  -26.9750   19.2440 C   0  0  0  0  0  1  0  0  0  0  0  0
  -22.7400  -28.8870   19.7230 C   0  0  0  0  0 15  0  0  0  0  0  0
  -23.1710  -31.4450   21.4020 C   0  0  0  0  0  2  0  0  0  0  0  0
  -24.9920  -31.5280   23.2680 N   0  0  0  0  0  0  0  0  0  0  0  0
  -24.5530  -32.3330   25.3660 O   0  0  0  0  0  0  0  0  0  0  0  0
  -22.6540  -30.5660   23.8210 C   0  0  0  0  0  0  0  0  0  0  0  0
  -21.3650  -30.3450   23.4870 N   0  0  0  0  0  0  0  0  0  0  0  0
  -23.1600  -30.0130   24.8010 O   0  0  0  0  0  0  0  0  0  0  0  0
  -20.9910  -30.8420   22.6910 H   0  0  0  0  0  0  0  0  0  0  0  0
  -18.2390  -28.4970   23.1790 C   0  0  0  0  0  0  0  0  0  0  0  0
  -20.4470  -29.4180   24.1760 C   0  0  0  0  0  3  0  0  0  0  0  0
  -20.9610  -27.9610   24.0950 C   0  0  0  0  0  2  0  0  0  0  0  0
  -20.3850  -27.1840   22.9040 C   0  0  0  0  0  2  0  0  0  0  0  0
  -18.8580  -27.1230   22.9890 C   0  0  0  0  0  2  0  0  0  0  0  0
  -18.9870  -29.5770   23.7240 C   0  0  0  0  0  0  0  0  0  0  0  0
  -18.3650  -30.8360   23.8610 C   0  0  0  0  0  3  0  0  0  0  0  0
  -17.0300  -31.0290   23.4600 C   0  0  0  0  0  3  0  0  0  0  0  0
  -16.2940  -29.9570   22.9240 C   0  0  0  0  0  3  0  0  0  0  0  0
  -16.8960  -28.6930   22.7920 C   0  0  0  0  0  3  0  0  0  0  0  0
  -26.8760  -31.9540   24.9380 C   0  0  0  0  0  3  0  0  0  0  0  0
  -27.1640  -33.2510   25.5660 N   0  0  0  0  0  0  0  0  0  0  0  0
  -27.7460  -34.2810   24.9360 C   0  0  0  0  0  0  0  0  0  0  0  0
  -28.1430  -34.2160   23.7690 O   0  0  0  0  0  0  0  0  0  0  0  0
  -26.8130  -33.3920   26.5020 H   0  0  0  0  0  0  0  0  0  0  0  0
  -26.8110  -36.5800   25.3320 C   0  0  0  0  0  1  0  0  0  0  0  0
  -27.9200  -35.5930   25.7250 C   0  0  0  0  0  3  0  0  0  0  0  0
  -30.3380  -35.4770   26.1420 C   0  0  0  0  0  1  0  0  0  0  0  0
  -29.2430  -36.2260   25.5300 N   0  0  0  0  0  0  0  0  0  0  0  0
  -29.2510  -37.1670   25.9120 H   0  0  0  0  0  0  0  0  0  0  0  0
  -27.2630  -30.7590   25.8900 C   0  0  1  0  0  0  0  0  0  0  0  0
  -26.3660  -30.6560   27.1440 C   0  0  0  0  0  1  0  0  0  0  0  0
  -27.1890  -29.4040   25.1450 C   0  0  0  0  0  1  0  0  0  0  0  0
  -28.7280  -30.9270   26.3550 C   0  0  0  0  0  1  0  0  0  0  0  0
  -28.8580  -27.7810   16.4500 C   0  0  0  0  0  1  0  0  0  0  0  0
  -28.9590  -26.3680   16.5920 O   0  0  0  0  0  0  0  0  0  0  0  0
  1  2  1  0
  4  8  1  0
  4  1  1  0
  5 50  1  0
  6 51  1  0
  7 11  1  0
  7  9  2  0
  8  7  1  0
 10  8  1  0
 11 20  1  0
 12 18  1  0
 13 18  1  0
 14 15  1  0
 14 13  1  0
 16 15  1  0
 16 25  1  0
 16 17  1  0
 18 17  1  0
 19 12  2  0
 20 21  1  0
 20 12  1  0
 22 23  2  0
 23 24  1  0
 23 42  1  0
 24 27  1  0
 25 22  1  0
 25 26  1  0
 26 24  2  0
 27 28  1  0
 28 29  2  0
 30 33  1  0
 30 29  1  0
 31 30  2  0
 32 31  1  0
 32 27  2  0
 33 34  1  0
 34 35  1  0
 35 36  2  0
 37 36  1  0
 37 41  1  0
 38 37  2  0
 39 34  2  0
 39 38  1  0
 40 39  1  0
 42 43  1  0
 43 46  1  0
 43 45  1  0
 44 42  2  0
 47 48  1  0
 47 22  1  0
 49 47  1  0
 50 56  1  0
 51  5  1  0
 52 53  1  0
 52 51  1  0
 53 54  1  0
 54 62  1  0
 55 66  2  0
 57 64  1  0
 57 65  1  0
 57 67  1  0
 58 64  1  0
 59 65  1  0
 60 59  1  0
 65 55  1  0
 67 69  2  0
 68 67  1  0
 70 68  1  0
 71 76  1  0
 72 68  1  0
 73 72  1  0
 74 75  1  0
 74 73  1  0
 75 71  1  0
 76 77  2  0
 76 72  1  0
 78 77  1  0
 79 78  2  0
 80 79  1  0
 80 71  2  0
 81 55  1  0
 81 82  1  0
 81 91  1  0
 82 85  1  0
 83 82  1  0
 83 87  1  0
 84 83  2  0
 87 86  1  0
 89 87  1  0
 89 90  1  0
 89 88  1  0
 91 94  1  1
 91 92  1  0
 93 91  1  0
 95 96  1  0
 96  6  1  0
M  ISO  4  12 100  20 100  53 101  54 101
M  END
>  <TORSDO>  (20) 
F 22

>  <SCORE>  (20) 
-8.681

>  <name>  (20) 
19

>  <ligand_id>  (20) 
19

>  <original_smiles>  (20) 
[H]c1c([H])c([H])c2c(c1[H])C([H])([H])C([H])([H])C([H])([H])C2([H])N([H])C(=O)C1([H])N(C(=O)C([H])(N([H])C(=O)C([H])(N([H])C([H])([H])[H])C([H])([H])[H])C(C([H])([H])[H])(C([H])([H])[H])C([H])([H])[H])C([H])([H])c2c([H])c(OC([H])([H])C([H])([H])N(c3c([H])c([H])c(N([H])C(=O)C([H])([H])N([H])C(=O)N4C([H])([H])C([H])([H])C([H])([H])C([H])(n5nc(-c6c([H])c([H])c(Oc7c([H])c([H])c(F)c([H])c7F)c([H])c6[H])c(C(=O)N([H])[H])c5N([H])[H])C4([H])[H])c([H])c3OC([H])([H])[H])C([H])([H])[H])c([H])c([H])c2C1([H])[H]

>  <smiles>  (20) 
[H]c1c([H])c([H])c2c(c1[H])C([H])([H])C([H])([H])C([H])([H])C2([H])N([H])C(=O)C1([H])N(C(=O)C([H])(N([H])C(=O)C([H])(N([H])C([H])([H])[H])C([H])([H])[H])C(C([H])([H])[H])(C([H])([H])[H])C([H])([H])[H])C([H])([H])c2c([H])c(OC([H])([H])C([H])([H])N(c3c([H])c([H])c(N([H])C(=O)C([H])([H])N([H])C(=O)N4C([H])([H])C([H])([H])C([H])([H])C([H])(n5nc(-c6c([H])c([H])c(Oc7c([H])c([H])c(F)c([H])c7F)c([H])c6[H])c(C(=O)N([H])[H])c5N([H])[H])C4([H])[H])c([H])c3OC([H])([H])[H])C([H])([H])[H])c([H])c([H])c2C1([H])[H]

$$$$
20:0:0
     RDKit          3D

 92100  0  0  1  0  0  0  0  0999 V2000
  -30.7370  -19.6890   18.6610 C   0  0  0  0  0  3  0  0  0  0  0  0
  -30.9300  -18.2580   18.8290 C   0  0  0  0  0  3  0  0  0  0  0  0
  -30.1080  -19.9140   20.9140 C   0  0  0  0  0  3  0  0  0  0  0  0
  -30.2700  -20.6100   19.6740 C   0  0  0  0  0  0  0  0  0  0  0  0
  -30.6700  -17.5600   20.0490 C   0  0  0  0  0  0  0  0  0  0  0  0
  -30.2940  -18.4740   21.0990 C   0  0  0  0  0  0  0  0  0  0  0  0
  -31.4210  -14.9140   19.9600 C   0  0  0  0  0  0  0  0  0  0  0  0
  -31.2410  -12.5410   19.1020 C   0  0  0  0  0  2  0  0  0  0  0  0
  -30.2520  -12.4920   17.9120 C   0  0  0  0  0  2  0  0  0  0  0  0
  -28.8050  -12.3250   18.4100 C   0  0  0  0  0  2  0  0  0  0  0  0
  -28.4640  -13.2880   19.5770 C   0  0  0  0  0  3  0  0  0  0  0  0
  -29.5660  -13.2910   20.6610 C   0  0  0  0  0  2  0  0  0  0  0  0
  -30.8290  -13.6550   20.0010 N   0  0  0  0  0  0  0  0  0  0  0  0
  -32.5830  -15.0000   19.5460 O   0  0  0  0  0  0  0  0  0  0  0  0
  -30.6410  -16.0470   20.2710 N   0  0  0  0  0  0  0  0  0  0  0  0
  -29.7750  -15.7540   20.6970 H   0  0  0  0  0  0  0  0  0  0  0  0
  -26.1570  -13.9370   20.4810 C   0  0  0  0  0  0  0  0  0  0  0  0
  -25.0780  -13.1940   20.8710 C   0  0  0  0  0  0  0  0  0  0  0  0
  -25.4720  -11.8260   20.7410 C   0  0  0  0  0  0  0  0  0  0  0  0
  -27.1400  -13.0260   20.1330 N   0  0  0  0  0  0  0  0  0  0  0  0
  -26.7390  -11.7470   20.3500 N   0  0  0  0  0  0  0  0  0  0  0  0
  -24.6930  -10.5910   20.9040 C   0  0  0  0  0  0  0  0  0  0  0  0
  -25.0120   -9.6430   21.9020 C   0  0  0  0  0  3  0  0  0  0  0  0
  -24.2350   -8.4730   22.0520 C   0  0  0  0  0  3  0  0  0  0  0  0
  -23.1260   -8.2430   21.2040 C   0  0  0  0  0  0  0  0  0  0  0  0
  -22.8270   -9.1780   20.1980 C   0  0  0  0  0  3  0  0  0  0  0  0
  -23.6040  -10.3390   20.0460 C   0  0  0  0  0  3  0  0  0  0  0  0
  -22.3320   -7.1220   21.2610 O   0  0  0  0  0  0  0  0  0  0  0  0
  -21.9930   -6.5400   22.4550 C   0  0  0  0  0  0  0  0  0  0  0  0
  -21.2980   -7.2510   23.4600 C   0  0  0  0  0  3  0  0  0  0  0  0
  -20.9080   -6.5930   24.6440 C   0  0  0  0  0  3  0  0  0  0  0  0
  -21.2030   -5.2280   24.8230 C   0  0  0  0  0  0  0  0  0  0  0  0
  -21.8910   -4.5190   23.8220 C   0  0  0  0  0  3  0  0  0  0  0  0
  -22.2820   -5.1740   22.6400 C   0  0  0  0  0  0  0  0  0  0  0  0
  -22.9260   -4.4810   21.6710 F   0  0  0  0  0  0  0  0  0  0  0  0
  -20.8210   -4.5940   25.9570 F   0  0  0  0  0  0  0  0  0  0  0  0
  -23.7240  -13.7190   21.2490 C   0  0  0  0  0  0  0  0  0  0  0  0
  -23.0200  -13.0220   22.1330 N   0  0  0  0  0  0  0  0  0  0  0  0
  -23.3040  -14.7840   20.7990 O   0  0  0  0  0  0  0  0  0  0  0  0
  -23.3740  -12.1590   22.5190 H   0  0  0  0  0  0  0  0  0  0  0  0
  -22.1130  -13.3580   22.4280 H   0  0  0  0  0  0  0  0  0  0  0  0
  -26.3760  -15.3070   20.3720 N   0  0  0  0  0  0  0  0  0  0  0  0
  -25.6520  -15.9830   20.5890 H   0  0  0  0  0  0  0  0  0  0  0  0
  -27.2250  -15.7360   20.0270 H   0  0  0  0  0  0  0  0  0  0  0  0
  -30.8590  -18.4370   23.4780 C   0  0  0  0  0  1  0  0  0  0  0  0
  -30.0900  -17.8960   22.3640 N   0  0  0  0  0  0  0  0  0  0  0  0
  -30.0260  -16.8830   22.3570 H   0  0  0  0  0  0  0  0  0  0  0  0
  -29.6380  -22.2010   17.9550 C   0  0  0  0  0  1  0  0  0  0  0  0
  -29.8450  -22.0170   19.3930 N   0  0  0  0  0  0  0  0  0  0  0  0
  -30.0000  -23.3670   20.1670 C   0  0  0  0  0  3  0  0  0  0  0  0
  -28.9940  -24.7000   19.8980 C   0  0  0  0  0  3  0  0  0  0  0  0
  -29.1490  -26.1580   20.4110 O   0  0  0  0  0  0  0  0  0  0  0  0
  -25.3220  -31.4790   23.7490 C   0  0  0  0  0  0  0  0  0  0  0  0
  -28.0770  -27.1210   20.3720 C   0  0  0  0  0  0  0  0  0  0  0  0
  -24.2040  -30.2450   21.9310 C   0  0  0  0  0  3  0  0  0  0  0  0
  -25.7250  -28.8310   20.4180 C   0  0  0  0  0  0  0  0  0  0  0  0
  -26.7580  -30.5430   21.9000 C   0  0  0  0  0  2  0  0  0  0  0  0
  -26.8720  -29.2250   21.1190 C   0  0  0  0  0  0  0  0  0  0  0  0
  -28.0460  -28.3850   21.0840 C   0  0  0  0  0  3  0  0  0  0  0  0
  -26.9050  -26.8320   19.6360 C   0  0  0  0  0  3  0  0  0  0  0  0
  -25.7540  -27.6490   19.6630 C   0  0  0  0  0  3  0  0  0  0  0  0
  -24.4870  -29.7090   20.5030 C   0  0  0  0  0  2  0  0  0  0  0  0
  -25.4460  -30.7720   22.5850 N   0  0  0  0  0  0  0  0  0  0  0  0
  -24.2140  -31.7040   24.2570 O   0  0  0  0  0  0  0  0  0  0  0  0
  -23.4970  -29.1430   22.7600 C   0  0  0  0  0  0  0  0  0  0  0  0
  -22.2110  -28.8830   22.4650 N   0  0  0  0  0  0  0  0  0  0  0  0
  -24.1130  -28.5260   23.6340 O   0  0  0  0  0  0  0  0  0  0  0  0
  -21.7700  -29.4380   21.7450 H   0  0  0  0  0  0  0  0  0  0  0  0
  -18.9200  -27.3700   22.4450 C   0  0  0  0  0  0  0  0  0  0  0  0
  -21.3770  -27.8540   23.0910 C   0  0  0  0  0  3  0  0  0  0  0  0
  -21.6950  -26.4540   22.5150 C   0  0  0  0  0  2  0  0  0  0  0  0
  -20.7870  -26.0640   21.3450 C   0  0  0  0  0  2  0  0  0  0  0  0
  -19.3190  -26.0640   21.7800 C   0  0  0  0  0  2  0  0  0  0  0  0
  -19.8870  -28.2180   23.0470 C   0  0  0  0  0  0  0  0  0  0  0  0
  -19.4660  -29.4350   23.6240 C   0  0  0  0  0  3  0  0  0  0  0  0
  -18.1080  -29.8090   23.6060 C   0  0  0  0  0  3  0  0  0  0  0  0
  -17.1540  -28.9590   23.0200 C   0  0  0  0  0  3  0  0  0  0  0  0
  -17.5590  -27.7410   22.4460 C   0  0  0  0  0  3  0  0  0  0  0  0
  -26.5680  -32.0570   24.4880 C   0  0  0  0  0  3  0  0  0  0  0  0
  -26.9330  -31.2630   25.8020 C   0  0  1  0  0  0  0  0  0  0  0  0
  -25.7340  -31.0590   26.7600 C   0  0  0  0  0  1  0  0  0  0  0  0
  -27.5030  -29.8670   25.4610 C   0  0  0  0  0  1  0  0  0  0  0  0
  -28.0420  -32.0130   26.5760 C   0  0  0  0  0  1  0  0  0  0  0  0
  -26.2890  -33.4670   24.8020 N   0  0  0  0  0  0  0  0  0  0  0  0
  -26.7290  -34.5110   24.0870 C   0  0  0  0  0  0  0  0  0  0  0  0
  -27.4800  -34.3850   23.1150 O   0  0  0  0  0  0  0  0  0  0  0  0
  -25.6360  -33.6400   25.5510 H   0  0  0  0  0  0  0  0  0  0  0  0
  -25.1280  -36.3900   23.6000 C   0  0  0  0  0  1  0  0  0  0  0  0
  -26.2670  -35.9170   24.5180 C   0  0  0  0  0  3  0  0  0  0  0  0
  -28.3490  -36.6980   25.5630 C   0  0  0  0  0  1  0  0  0  0  0  0
  -27.3540  -36.9210   24.5160 N   0  0  0  0  0  0  0  0  0  0  0  0
  -26.9790  -37.8590   24.6300 H   0  0  0  0  0  0  0  0  0  0  0  0
  1  2  2  0
  1  4  1  0
  2  5  1  0
  3  6  1  0
  4  3  2  0
  5 15  1  0
  5  6  2  0
  6 46  1  0
  7 13  1  0
  7 15  1  0
  8 13  1  0
  9 10  1  0
  9  8  1  0
 11 10  1  0
 11 20  1  0
 11 12  1  0
 13 12  1  0
 14  7  2  0
 15 16  1  0
 17 18  2  0
 18 37  1  0
 19 18  1  0
 19 22  1  0
 20 21  1  0
 20 17  1  0
 21 19  2  0
 22 23  1  0
 23 24  2  0
 25 28  1  0
 25 24  1  0
 26 25  2  0
 27 26  1  0
 27 22  2  0
 28 29  1  0
 29 34  2  0
 29 30  1  0
 30 31  2  0
 31 32  1  0
 32 36  1  0
 33 32  2  0
 34 33  1  0
 35 34  1  0
 37 38  1  0
 38 41  1  0
 38 40  1  0
 39 37  2  0
 42 17  1  0
 42 43  1  0
 44 42  1  0
 46 45  1  0
 47 46  1  0
 48 49  1  0
 49  4  1  0
 49 50  1  0
 51 50  2  0
 51 52  1  0
 53 64  2  0
 54 52  1  0
 54 59  1  0
 55 63  1  0
 55 65  1  0
 56 62  1  0
 56 58  1  0
 57 63  1  0
 58 57  1  0
 59 58  2  0
 60 61  1  0
 60 54  2  0
 61 56  2  0
 62 55  1  0
 63 53  1  0
 65 67  2  0
 66 65  1  0
 68 66  1  0
 69 78  2  0
 69 74  1  0
 70 66  1  0
 71 70  1  0
 72 73  1  0
 72 71  1  0
 73 69  1  0
 74 70  1  0
 74 75  2  0
 76 75  1  0
 77 76  2  0
 78 77  1  0
 79 53  1  0
 79 84  1  0
 79 80  1  0
 80 83  1  1
 80 81  1  0
 82 80  1  0
 84 87  1  0
 85 89  1  0
 85 84  1  0
 86 85  2  0
 89 88  1  0
 91 89  1  0
 91 92  1  0
 91 90  1  0
M  ISO  4   7 100  15 100  51 101  52 101
M  END
>  <TORSDO>  (21) 
F 20

>  <SCORE>  (21) 
-10.595

>  <name>  (21) 
20

>  <ligand_id>  (21) 
20

>  <original_smiles>  (21) 
[H]c1c([H])c([H])c2c(c1[H])C([H])([H])C([H])([H])C([H])([H])C2([H])N([H])C(=O)C1([H])N(C(=O)C([H])(N([H])C(=O)C([H])(N([H])C([H])([H])[H])C([H])([H])[H])C(C([H])([H])[H])(C([H])([H])[H])C([H])([H])[H])C([H])([H])c2c([H])c(OC([H])([H])C([H])([H])N(c3c([H])c([H])c(N([H])C(=O)N4C([H])([H])C([H])([H])C([H])([H])C([H])(n5nc(-c6c([H])c([H])c(Oc7c([H])c([H])c(F)c([H])c7F)c([H])c6[H])c(C(=O)N([H])[H])c5N([H])[H])C4([H])[H])c(N([H])C([H])([H])[H])c3[H])C([H])([H])[H])c([H])c([H])c2C1([H])[H]

>  <smiles>  (21) 
[H]c1c([H])c([H])c2c(c1[H])C([H])([H])C([H])([H])C([H])([H])C2([H])N([H])C(=O)C1([H])N(C(=O)C([H])(N([H])C(=O)C([H])(N([H])C([H])([H])[H])C([H])([H])[H])C(C([H])([H])[H])(C([H])([H])[H])C([H])([H])[H])C([H])([H])c2c([H])c(OC([H])([H])C([H])([H])N(c3c([H])c([H])c(N([H])C(=O)N4C([H])([H])C([H])([H])C([H])([H])C([H])(n5nc(-c6c([H])c([H])c(Oc7c([H])c([H])c(F)c([H])c7F)c([H])c6[H])c(C(=O)N([H])[H])c5N([H])[H])C4([H])[H])c(N([H])C([H])([H])[H])c3[H])C([H])([H])[H])c([H])c([H])c2C1([H])[H]

$$$$
21:0:0
     RDKit          3D

 95103  0  0  1  0  0  0  0  0999 V2000
  -30.3120  -22.0100   21.6870 C   0  0  0  0  0  0  0  0  0  0  0  0
  -31.1080  -20.9250   21.7200 N   0  0  0  0  0  0  0  0  0  0  0  0
  -29.1070  -21.9850   21.4150 O   0  0  0  0  0  0  0  0  0  0  0  0
  -32.0830  -21.1340   21.8880 H   0  0  0  0  0  0  0  0  0  0  0  0
  -31.8990  -18.6590   21.3920 C   0  0  0  0  0  3  0  0  0  0  0  0
  -29.4970  -19.0110   21.5100 C   0  0  0  0  0  3  0  0  0  0  0  0
  -31.6930  -17.2750   21.2230 C   0  0  0  0  0  3  0  0  0  0  0  0
  -29.2910  -17.6250   21.3460 C   0  0  0  0  0  3  0  0  0  0  0  0
  -30.8080  -19.5450   21.5250 C   0  0  0  0  0  0  0  0  0  0  0  0
  -30.3820  -16.7440   21.1840 C   0  0  0  0  0  0  0  0  0  0  0  0
  -30.7100  -14.4560   20.2330 C   0  0  0  0  0  0  0  0  0  0  0  0
  -30.3620  -12.3520   18.9880 C   0  0  0  0  0  2  0  0  0  0  0  0
  -29.3770  -12.5920   17.8260 C   0  0  0  0  0  2  0  0  0  0  0  0
  -27.9190  -12.4360   18.3020 C   0  0  0  0  0  2  0  0  0  0  0  0
  -27.6260  -13.2360   19.6000 C   0  0  0  0  0  3  0  0  0  0  0  0
  -28.7150  -12.9680   20.6630 C   0  0  0  0  0  2  0  0  0  0  0  0
  -30.0260  -13.2910   20.0690 N   0  0  0  0  0  0  0  0  0  0  0  0
  -31.7680  -14.6930   19.6430 O   0  0  0  0  0  0  0  0  0  0  0  0
  -30.1040  -15.3550   21.0310 N   0  0  0  0  0  0  0  0  0  0  0  0
  -29.2270  -15.0360   21.4100 H   0  0  0  0  0  0  0  0  0  0  0  0
  -25.2480  -13.8230   20.3950 C   0  0  0  0  0  0  0  0  0  0  0  0
  -24.1940  -13.0400   20.7830 C   0  0  0  0  0  0  0  0  0  0  0  0
  -24.6560  -11.6900   20.7060 C   0  0  0  0  0  0  0  0  0  0  0  0
  -26.2870  -12.9500   20.1130 N   0  0  0  0  0  0  0  0  0  0  0  0
  -25.9360  -11.6610   20.3550 N   0  0  0  0  0  0  0  0  0  0  0  0
  -23.9410  -10.4210   20.8940 C   0  0  0  0  0  0  0  0  0  0  0  0
  -24.3510   -9.4790   21.8630 C   0  0  0  0  0  3  0  0  0  0  0  0
  -23.6360   -8.2740   22.0360 C   0  0  0  0  0  3  0  0  0  0  0  0
  -22.4980   -8.0030   21.2410 C   0  0  0  0  0  0  0  0  0  0  0  0
  -22.1080   -8.9350   20.2620 C   0  0  0  0  0  3  0  0  0  0  0  0
  -22.8230  -10.1310   20.0870 C   0  0  0  0  0  3  0  0  0  0  0  0
  -21.7580   -6.8490   21.3210 O   0  0  0  0  0  0  0  0  0  0  0  0
  -21.5910   -6.1810   22.5080 C   0  0  0  0  0  0  0  0  0  0  0  0
  -21.0000   -6.7970   23.6320 C   0  0  0  0  0  3  0  0  0  0  0  0
  -20.7850   -6.0540   24.8110 C   0  0  0  0  0  3  0  0  0  0  0  0
  -21.1510   -4.6950   24.8620 C   0  0  0  0  0  0  0  0  0  0  0  0
  -21.7350   -4.0790   23.7420 C   0  0  0  0  0  3  0  0  0  0  0  0
  -21.9510   -4.8200   22.5670 C   0  0  0  0  0  0  0  0  0  0  0  0
  -22.4950   -4.2160   21.4830 F   0  0  0  0  0  0  0  0  0  0  0  0
  -20.9380   -3.9790   25.9910 F   0  0  0  0  0  0  0  0  0  0  0  0
  -22.8050  -13.5060   21.1120 C   0  0  0  0  0  0  0  0  0  0  0  0
  -22.1100  -12.7900   21.9890 N   0  0  0  0  0  0  0  0  0  0  0  0
  -22.3450  -14.5410   20.6300 O   0  0  0  0  0  0  0  0  0  0  0  0
  -22.4940  -11.9520   22.4010 H   0  0  0  0  0  0  0  0  0  0  0  0
  -21.1790  -13.0830   22.2520 H   0  0  0  0  0  0  0  0  0  0  0  0
  -25.4030  -15.1970   20.2410 N   0  0  0  0  0  0  0  0  0  0  0  0
  -24.6390  -15.8480   20.3850 H   0  0  0  0  0  0  0  0  0  0  0  0
  -26.2400  -15.6420   19.8860 H   0  0  0  0  0  0  0  0  0  0  0  0
  -31.0060  -23.3430   22.0130 C   0  0  0  0  0  2  0  0  0  0  0  0
  -30.1280  -25.4060   20.9020 C   0  0  0  0  0  0  0  0  0  0  0  0
  -30.1330  -24.5180   21.9060 N   0  0  0  0  0  0  0  0  0  0  0  0
  -30.8560  -25.2840   19.9130 O   0  0  0  0  0  0  0  0  0  0  0  0
  -29.4710  -24.6560   22.6580 H   0  0  0  0  0  0  0  0  0  0  0  0
  -29.1840  -26.6140   21.0200 C   0  0  0  0  0  2  0  0  0  0  0  0
  -28.3950  -26.7050   19.8370 O   0  0  0  0  0  0  0  0  0  0  0  0
  -24.4900  -31.7250   23.1110 C   0  0  0  0  0  0  0  0  0  0  0  0
  -27.2390  -27.4430   19.9210 C   0  0  0  0  0  0  0  0  0  0  0  0
  -23.3090  -30.3240   21.4470 C   0  0  0  0  0  3  0  0  0  0  0  0
  -24.7960  -28.8570   19.9830 C   0  0  0  0  0  0  0  0  0  0  0  0
  -25.8180  -30.7630   21.2380 C   0  0  0  0  0  2  0  0  0  0  0  0
  -25.9380  -29.4060   20.5790 C   0  0  0  0  0  0  0  0  0  0  0  0
  -27.1620  -28.7020   20.5590 C   0  0  0  0  0  3  0  0  0  0  0  0
  -26.0860  -26.9100   19.3120 C   0  0  0  0  0  3  0  0  0  0  0  0
  -24.8620  -27.6030   19.3500 C   0  0  0  0  0  3  0  0  0  0  0  0
  -23.5260  -29.6750   20.0540 C   0  0  0  0  0  2  0  0  0  0  0  0
  -24.5570  -30.9510   21.9910 N   0  0  0  0  0  0  0  0  0  0  0  0
  -23.4080  -31.9560   23.6660 O   0  0  0  0  0  0  0  0  0  0  0  0
  -22.6950  -29.2660   22.3920 C   0  0  0  0  0  0  0  0  0  0  0  0
  -21.3750  -29.0480   22.2680 N   0  0  0  0  0  0  0  0  0  0  0  0
  -23.4020  -28.6450   23.1910 O   0  0  0  0  0  0  0  0  0  0  0  0
  -20.8660  -29.6030   21.5960 H   0  0  0  0  0  0  0  0  0  0  0  0
  -18.0410  -27.7510   22.7570 C   0  0  0  0  0  0  0  0  0  0  0  0
  -20.5900  -28.0720   23.0240 C   0  0  0  0  0  3  0  0  0  0  0  0
  -20.7290  -26.6560   22.4180 C   0  0  0  0  0  2  0  0  0  0  0  0
  -19.6320  -26.3240   21.4020 C   0  0  0  0  0  2  0  0  0  0  0  0
  -18.2500  -26.4200   22.0550 C   0  0  0  0  0  2  0  0  0  0  0  0
  -19.1390  -28.5340   23.1980 C   0  0  0  0  0  0  0  0  0  0  0  0
  -18.8910  -29.7800   23.8140 C   0  0  0  0  0  3  0  0  0  0  0  0
  -17.5740  -30.2430   23.9940 C   0  0  0  0  0  3  0  0  0  0  0  0
  -16.4880  -29.4560   23.5710 C   0  0  0  0  0  3  0  0  0  0  0  0
  -16.7230  -28.2120   22.9590 C   0  0  0  0  0  3  0  0  0  0  0  0
  -25.7670  -32.3750   23.7310 C   0  0  0  0  0  3  0  0  0  0  0  0
  -26.3050  -31.6050   24.9990 C   0  0  1  0  0  0  0  0  0  0  0  0
  -25.2200  -31.3360   26.0680 C   0  0  0  0  0  1  0  0  0  0  0  0
  -26.9150  -30.2430   24.5910 C   0  0  0  0  0  1  0  0  0  0  0  0
  -27.4410  -32.4170   25.6630 C   0  0  0  0  0  1  0  0  0  0  0  0
  -25.4340  -33.7650   24.0690 N   0  0  0  0  0  0  0  0  0  0  0  0
  -25.7370  -34.8250   23.3080 C   0  0  0  0  0  0  0  0  0  0  0  0
  -26.4000  -34.7380   22.2700 O   0  0  0  0  0  0  0  0  0  0  0  0
  -24.8440  -33.9060   24.8760 H   0  0  0  0  0  0  0  0  0  0  0  0
  -23.9700  -36.5820   22.9720 C   0  0  0  0  0  1  0  0  0  0  0  0
  -25.2250  -36.2020   23.7720 C   0  0  0  0  0  3  0  0  0  0  0  0
  -27.3440  -37.1330   24.5920 C   0  0  0  0  0  1  0  0  0  0  0  0
  -26.2360  -37.2760   23.6530 N   0  0  0  0  0  0  0  0  0  0  0  0
  -25.8100  -38.1880   23.7980 H   0  0  0  0  0  0  0  0  0  0  0  0
  1  2  1  0
  1 49  1  0
  2  4  1  0
  3  1  2  0
  5  9  1  0
  6  9  2  0
  7  5  2  0
  8  6  1  0
  9  2  1  0
 10  7  1  0
 10  8  2  0
 11 19  1  0
 12 17  1  0
 13 14  1  0
 13 12  1  0
 15 14  1  0
 15 24  1  0
 15 16  1  0
 17 11  1  0
 17 16  1  0
 18 11  2  0
 19 10  1  0
 19 20  1  0
 21 22  2  0
 22 41  1  0
 23 22  1  0
 23 26  1  0
 24 25  1  0
 24 21  1  0
 25 23  2  0
 26 27  1  0
 27 28  2  0
 29 32  1  0
 29 28  1  0
 30 29  2  0
 31 30  1  0
 31 26  2  0
 32 33  1  0
 33 38  2  0
 33 34  1  0
 34 35  2  0
 35 36  1  0
 36 40  1  0
 37 36  2  0
 38 37  1  0
 39 38  1  0
 41 42  1  0
 42 45  1  0
 42 44  1  0
 43 41  2  0
 46 47  1  0
 46 21  1  0
 48 46  1  0
 50 54  1  0
 50 51  1  0
 51 49  1  0
 51 53  1  0
 52 50  2  0
 55 57  1  0
 55 54  1  0
 56 67  2  0
 57 62  1  0
 58 66  1  0
 58 68  1  0
 59 65  1  0
 59 61  1  0
 60 66  1  0
 61 60  1  0
 62 61  2  0
 63 64  1  0
 63 57  2  0
 64 59  2  0
 65 58  1  0
 66 56  1  0
 68 70  2  0
 69 68  1  0
 71 69  1  0
 72 81  2  0
 72 77  1  0
 73 69  1  0
 73 77  1  0
 74 73  1  0
 75 76  1  0
 75 74  1  0
 76 72  1  0
 77 78  2  0
 78 79  1  0
 80 79  2  0
 81 80  1  0
 82 56  1  0
 82 87  1  0
 82 83  1  0
 83 86  1  1
 83 84  1  0
 85 83  1  0
 87 90  1  0
 88 92  1  0
 88 87  1  0
 89 88  2  0
 92 91  1  0
 94 92  1  0
 94 95  1  0
 94 93  1  0
M  ISO  4  11 100  19 100  54 101  55 101
M  END
>  <TORSDO>  (22) 
F 20

>  <SCORE>  (22) 
-12.715

>  <name>  (22) 
21

>  <ligand_id>  (22) 
21

>  <original_smiles>  (22) 
[H]c1c([H])c([H])c2c(c1[H])C([H])([H])C([H])([H])C([H])([H])C2([H])N([H])C(=O)C1([H])N(C(=O)C([H])(N([H])C(=O)C([H])(N([H])C([H])([H])[H])C([H])([H])[H])C(C([H])([H])[H])(C([H])([H])[H])C([H])([H])[H])C([H])([H])c2c([H])c(OC([H])([H])C(=O)N([H])C([H])([H])C(=O)N([H])c3c([H])c([H])c(N([H])C(=O)N4C([H])([H])C([H])([H])C([H])([H])C([H])(n5nc(-c6c([H])c([H])c(Oc7c([H])c([H])c(F)c([H])c7F)c([H])c6[H])c(C(=O)N([H])[H])c5N([H])[H])C4([H])[H])c([H])c3[H])c([H])c([H])c2C1([H])[H]

>  <smiles>  (22) 
[H]c1c([H])c([H])c2c(c1[H])C([H])([H])C([H])([H])C([H])([H])C2([H])N([H])C(=O)C1([H])N(C(=O)C([H])(N([H])C(=O)C([H])(N([H])C([H])([H])[H])C([H])([H])[H])C(C([H])([H])[H])(C([H])([H])[H])C([H])([H])[H])C([H])([H])c2c([H])c(OC([H])([H])C(=O)N([H])C([H])([H])C(=O)N([H])c3c([H])c([H])c(N([H])C(=O)N4C([H])([H])C([H])([H])C([H])([H])C([H])(n5nc(-c6c([H])c([H])c(Oc7c([H])c([H])c(F)c([H])c7F)c([H])c6[H])c(C(=O)N([H])[H])c5N([H])[H])C4([H])[H])c([H])c3[H])c([H])c([H])c2C1([H])[H]

$$$$
22:0:0
     RDKit          3D

 93101  0  0  1  0  0  0  0  0999 V2000
  -30.1470  -19.8880   19.8430 C   0  0  0  0  0  3  0  0  0  0  0  0
  -30.4370  -18.4530   19.9490 C   0  0  0  0  0  3  0  0  0  0  0  0
  -27.8420  -19.4210   20.0140 C   0  0  0  0  0  3  0  0  0  0  0  0
  -28.8210  -20.4560   19.8530 C   0  0  0  0  0  0  0  0  0  0  0  0
  -29.4310  -17.4300   20.0890 C   0  0  0  0  0  0  0  0  0  0  0  0
  -28.1160  -17.9960   20.1460 C   0  0  0  0  0  0  0  0  0  0  0  0
  -30.3550  -14.8250   19.7360 C   0  0  0  0  0  0  0  0  0  0  0  0
  -30.2060  -12.4990   18.7350 C   0  0  0  0  0  2  0  0  0  0  0  0
  -29.1750  -12.5000   17.5810 C   0  0  0  0  0  2  0  0  0  0  0  0
  -27.7470  -12.2740   18.1150 C   0  0  0  0  0  2  0  0  0  0  0  0
  -27.4350  -13.1600   19.3510 C   0  0  0  0  0  3  0  0  0  0  0  0
  -28.5730  -13.1110   20.3940 C   0  0  0  0  0  2  0  0  0  0  0  0
  -29.8040  -13.5460   19.7150 N   0  0  0  0  0  0  0  0  0  0  0  0
  -31.5000  -14.9720   19.2940 O   0  0  0  0  0  0  0  0  0  0  0  0
  -29.5290  -15.9000   20.1330 N   0  0  0  0  0  0  0  0  0  0  0  0
  -28.6920  -15.5250   20.5540 H   0  0  0  0  0  0  0  0  0  0  0  0
  -25.0880  -13.7090   20.2170 C   0  0  0  0  0  0  0  0  0  0  0  0
  -24.0670  -12.9210   20.6730 C   0  0  0  0  0  0  0  0  0  0  0  0
  -24.5580  -11.5810   20.6420 C   0  0  0  0  0  0  0  0  0  0  0  0
  -26.1350  -12.8470   19.9350 N   0  0  0  0  0  0  0  0  0  0  0  0
  -25.8280  -11.5630   20.2520 N   0  0  0  0  0  0  0  0  0  0  0  0
  -23.8720  -10.3090   20.9040 C   0  0  0  0  0  0  0  0  0  0  0  0
  -24.3420   -9.4020   21.8790 C   0  0  0  0  0  3  0  0  0  0  0  0
  -23.6540   -8.1950   22.1260 C   0  0  0  0  0  3  0  0  0  0  0  0
  -22.4800   -7.8850   21.3980 C   0  0  0  0  0  0  0  0  0  0  0  0
  -22.0290   -8.7800   20.4120 C   0  0  0  0  0  3  0  0  0  0  0  0
  -22.7190   -9.9790   20.1640 C   0  0  0  0  0  3  0  0  0  0  0  0
  -21.7600   -6.7250   21.5520 O   0  0  0  0  0  0  0  0  0  0  0  0
  -21.7070   -6.0650   22.7540 C   0  0  0  0  0  0  0  0  0  0  0  0
  -21.2350   -6.6920   23.9270 C   0  0  0  0  0  3  0  0  0  0  0  0
  -21.1320   -5.9570   25.1250 C   0  0  0  0  0  3  0  0  0  0  0  0
  -21.4890   -4.5960   25.1500 C   0  0  0  0  0  0  0  0  0  0  0  0
  -21.9540   -3.9680   23.9810 C   0  0  0  0  0  3  0  0  0  0  0  0
  -22.0590   -4.7010   22.7860 C   0  0  0  0  0  0  0  0  0  0  0  0
  -22.4880   -4.0860   21.6570 F   0  0  0  0  0  0  0  0  0  0  0  0
  -21.3820   -3.8870   26.2980 F   0  0  0  0  0  0  0  0  0  0  0  0
  -22.6810  -13.3770   21.0230 C   0  0  0  0  0  0  0  0  0  0  0  0
  -22.0300  -12.6970   21.9600 N   0  0  0  0  0  0  0  0  0  0  0  0
  -22.1840  -14.3750   20.5010 O   0  0  0  0  0  0  0  0  0  0  0  0
  -22.4450  -11.8910   22.4040 H   0  0  0  0  0  0  0  0  0  0  0  0
  -21.1030  -12.9870   22.2390 H   0  0  0  0  0  0  0  0  0  0  0  0
  -25.2060  -15.0780   19.9970 N   0  0  0  0  0  0  0  0  0  0  0  0
  -24.4340  -15.7140   20.1570 H   0  0  0  0  0  0  0  0  0  0  0  0
  -26.0380  -15.5450   19.6630 H   0  0  0  0  0  0  0  0  0  0  0  0
  -28.8330  -23.2350   19.6670 C   0  0  0  0  0  0  0  0  0  0  0  0
  -28.3510  -21.9010   19.6090 N   0  0  0  0  0  0  0  0  0  0  0  0
  -29.9780  -23.4630   20.0650 O   0  0  0  0  0  0  0  0  0  0  0  0
  -27.3730  -21.9280   19.3540 H   0  0  0  0  0  0  0  0  0  0  0  0
  -27.8950  -24.5160   19.1840 C   0  0  0  0  0  2  0  0  0  0  0  0
  -28.2230  -26.0260   19.3990 O   0  0  0  0  0  0  0  0  0  0  0  0
  -24.5180  -31.4680   22.7440 C   0  0  0  0  0  0  0  0  0  0  0  0
  -27.1480  -26.9940   19.4090 C   0  0  0  0  0  0  0  0  0  0  0  0
  -23.3170  -30.1240   21.0660 C   0  0  0  0  0  3  0  0  0  0  0  0
  -24.7710  -28.6730   19.5270 C   0  0  0  0  0  0  0  0  0  0  0  0
  -25.8580  -30.4730   20.8530 C   0  0  0  0  0  2  0  0  0  0  0  0
  -25.9550  -29.1200   20.1270 C   0  0  0  0  0  0  0  0  0  0  0  0
  -27.1450  -28.2990   20.0520 C   0  0  0  0  0  3  0  0  0  0  0  0
  -25.9310  -26.6560   18.7750 C   0  0  0  0  0  3  0  0  0  0  0  0
  -24.7710  -27.4550   18.8360 C   0  0  0  0  0  3  0  0  0  0  0  0
  -23.5210  -29.5280   19.6490 C   0  0  0  0  0  2  0  0  0  0  0  0
  -24.5850  -30.7070   21.6090 N   0  0  0  0  0  0  0  0  0  0  0  0
  -23.4390  -31.6920   23.3120 O   0  0  0  0  0  0  0  0  0  0  0  0
  -22.6930  -29.0470   21.9900 C   0  0  0  0  0  0  0  0  0  0  0  0
  -21.3560  -28.9030   21.9500 N   0  0  0  0  0  0  0  0  0  0  0  0
  -23.4120  -28.3450   22.7060 O   0  0  0  0  0  0  0  0  0  0  0  0
  -20.8300  -29.5210   21.3480 H   0  0  0  0  0  0  0  0  0  0  0  0
  -17.9940  -27.7610   22.6730 C   0  0  0  0  0  0  0  0  0  0  0  0
  -20.5770  -27.9160   22.7030 C   0  0  0  0  0  3  0  0  0  0  0  0
  -20.5630  -26.5480   21.9820 C   0  0  0  0  0  2  0  0  0  0  0  0
  -19.3540  -26.3650   21.0580 C   0  0  0  0  0  2  0  0  0  0  0  0
  -18.0490  -26.4850   21.8490 C   0  0  0  0  0  2  0  0  0  0  0  0
  -19.1800  -28.4410   23.0600 C   0  0  0  0  0  0  0  0  0  0  0  0
  -19.0700  -29.6410   23.7970 C   0  0  0  0  0  3  0  0  0  0  0  0
  -17.8080  -30.1590   24.1460 C   0  0  0  0  0  3  0  0  0  0  0  0
  -16.6390  -29.4740   23.7720 C   0  0  0  0  0  3  0  0  0  0  0  0
  -16.7340  -28.2760   23.0410 C   0  0  0  0  0  3  0  0  0  0  0  0
  -25.7930  -32.1090   23.3710 C   0  0  0  0  0  3  0  0  0  0  0  0
  -26.3950  -31.2610   24.5590 C   0  0  1  0  0  0  0  0  0  0  0  0
  -25.3600  -30.8980   25.6500 C   0  0  0  0  0  1  0  0  0  0  0  0
  -27.0090  -29.9410   24.0360 C   0  0  0  0  0  1  0  0  0  0  0  0
  -27.5440  -32.0450   25.2330 C   0  0  0  0  0  1  0  0  0  0  0  0
  -25.4340  -33.4590   23.8350 N   0  0  0  0  0  0  0  0  0  0  0  0
  -25.7130  -34.5920   23.1790 C   0  0  0  0  0  0  0  0  0  0  0  0
  -26.3660  -34.6140   22.1330 O   0  0  0  0  0  0  0  0  0  0  0  0
  -24.8540  -33.5130   24.6590 H   0  0  0  0  0  0  0  0  0  0  0  0
  -23.9140  -36.3460   23.0290 C   0  0  0  0  0  1  0  0  0  0  0  0
  -25.1850  -35.9120   23.7770 C   0  0  0  0  0  3  0  0  0  0  0  0
  -27.3020  -36.7960   24.6550 C   0  0  0  0  0  1  0  0  0  0  0  0
  -26.1760  -37.0090   23.7490 N   0  0  0  0  0  0  0  0  0  0  0  0
  -25.7400  -37.8950   23.9900 H   0  0  0  0  0  0  0  0  0  0  0  0
  -27.1160  -17.0610   20.3250 O   0  0  0  0  0  0  0  0  0  0  0  0
  -24.8960  -16.3210   20.8340 C   0  0  0  0  0  1  0  0  0  0  0  0
  -25.7640  -17.4970   20.3780 C   0  0  0  0  0  2  0  0  0  0  0  0
  1  4  2  0
  1  2  1  0
  2  5  2  0
  3  6  2  0
  4  3  1  0
  5 15  1  0
  5  6  1  0
  6 91  1  0
  7 15  1  0
  8 13  1  0
  9 10  1  0
  9  8  1  0
 11 10  1  0
 11 20  1  0
 11 12  1  0
 13  7  1  0
 13 12  1  0
 14  7  2  0
 15 16  1  0
 17 18  2  0
 18 37  1  0
 19 18  1  0
 19 22  1  0
 20 17  1  0
 20 21  1  0
 21 19  2  0
 22 23  1  0
 23 24  2  0
 25 28  1  0
 25 24  1  0
 26 25  2  0
 27 26  1  0
 27 22  2  0
 28 29  1  0
 29 34  2  0
 29 30  1  0
 30 31  2  0
 31 32  1  0
 32 36  1  0
 33 32  2  0
 34 33  1  0
 35 34  1  0
 37 38  1  0
 38 41  1  0
 38 40  1  0
 39 37  2  0
 42 43  1  0
 42 17  1  0
 44 42  1  0
 45 47  2  0
 46 45  1  0
 46  4  1  0
 48 46  1  0
 49 50  1  0
 49 45  1  0
 50 52  1  0
 51 62  2  0
 52 57  1  0
 53 61  1  0
 53 63  1  0
 54 60  1  0
 54 56  1  0
 55 61  1  0
 56 55  1  0
 57 56  2  0
 58 59  1  0
 58 52  2  0
 59 54  2  0
 60 53  1  0
 61 51  1  0
 63 65  2  0
 64 63  1  0
 66 64  1  0
 67 76  2  0
 67 72  1  0
 68 64  1  0
 68 72  1  0
 69 68  1  0
 70 71  1  0
 70 69  1  0
 71 67  1  0
 72 73  2  0
 73 74  1  0
 75 74  2  0
 76 75  1  0
 77 51  1  0
 77 82  1  0
 77 78  1  0
 78 81  1  1
 78 79  1  0
 80 78  1  0
 82 85  1  0
 83 87  1  0
 83 82  1  0
 84 83  2  0
 87 86  1  0
 89 87  1  0
 89 90  1  0
 89 88  1  0
 91 93  1  0
 93 92  1  0
M  ISO  4   7 100  15 100  49 101  50 101
M  END
>  <TORSDO>  (23) 
F 20

>  <SCORE>  (23) 
-11.427

>  <name>  (23) 
22

>  <ligand_id>  (23) 
22

>  <original_smiles>  (23) 
[H]c1c([H])c([H])c2c(c1[H])C([H])([H])C([H])([H])C([H])([H])C2([H])N([H])C(=O)C1([H])N(C(=O)C([H])(N([H])C(=O)C([H])(N([H])C([H])([H])[H])C([H])([H])[H])C(C([H])([H])[H])(C([H])([H])[H])C([H])([H])[H])C([H])([H])c2c([H])c(OC([H])([H])C(=O)N([H])c3c([H])c([H])c(N([H])C(=O)N4C([H])([H])C([H])([H])C([H])([H])C([H])(n5nc(-c6c([H])c([H])c(Oc7c([H])c([H])c(F)c([H])c7F)c([H])c6[H])c(C(=O)N([H])[H])c5N([H])[H])C4([H])[H])c(OC([H])([H])C([H])([H])[H])c3[H])c([H])c([H])c2C1([H])[H]

>  <smiles>  (23) 
[H]c1c([H])c([H])c2c(c1[H])C([H])([H])C([H])([H])C([H])([H])C2([H])N([H])C(=O)C1([H])N(C(=O)C([H])(N([H])C(=O)C([H])(N([H])C([H])([H])[H])C([H])([H])[H])C(C([H])([H])[H])(C([H])([H])[H])C([H])([H])[H])C([H])([H])c2c([H])c(OC([H])([H])C(=O)N([H])c3c([H])c([H])c(N([H])C(=O)N4C([H])([H])C([H])([H])C([H])([H])C([H])(n5nc(-c6c([H])c([H])c(Oc7c([H])c([H])c(F)c([H])c7F)c([H])c6[H])c(C(=O)N([H])[H])c5N([H])[H])C4([H])[H])c(OC([H])([H])C([H])([H])[H])c3[H])c([H])c([H])c2C1([H])[H]

$$$$
23:0:0
     RDKit          3D

 92100  0  0  1  0  0  0  0  0999 V2000
  -29.0050  -22.4510   20.1550 C   0  0  0  0  0  0  0  0  0  0  0  0
  -29.9890  -21.5090   20.0120 N   0  0  0  0  0  0  0  0  0  0  0  0
  -27.8210  -22.1300   20.2880 O   0  0  0  0  0  0  0  0  0  0  0  0
  -30.8990  -21.9030   19.8120 H   0  0  0  0  0  0  0  0  0  0  0  0
  -31.1620  -19.3060   19.8660 C   0  0  0  0  0  3  0  0  0  0  0  0
  -31.2210  -17.8840   19.9630 C   0  0  0  0  0  3  0  0  0  0  0  0
  -28.8230  -19.2680   20.4210 C   0  0  0  0  0  3  0  0  0  0  0  0
  -29.9630  -20.0430   20.0820 C   0  0  0  0  0  0  0  0  0  0  0  0
  -30.0770  -17.1130   20.3010 C   0  0  0  0  0  0  0  0  0  0  0  0
  -28.8800  -17.8480   20.5320 C   0  0  0  0  0  0  0  0  0  0  0  0
  -27.4410  -16.9990   20.9730 Cl  0  0  0  0  0  0  0  0  0  0  0  0
  -30.7550  -14.6450   19.8360 C   0  0  0  0  0  0  0  0  0  0  0  0
  -30.4350  -12.4650   18.6850 C   0  0  0  0  0  2  0  0  0  0  0  0
  -29.3890  -12.6630   17.5660 C   0  0  0  0  0  2  0  0  0  0  0  0
  -27.9570  -12.4910   18.1120 C   0  0  0  0  0  2  0  0  0  0  0  0
  -27.7170  -13.2900   19.4210 C   0  0  0  0  0  3  0  0  0  0  0  0
  -28.8670  -13.0640   20.4290 C   0  0  0  0  0  2  0  0  0  0  0  0
  -30.1270  -13.4280   19.7620 N   0  0  0  0  0  0  0  0  0  0  0  0
  -31.8590  -14.8300   19.3150 O   0  0  0  0  0  0  0  0  0  0  0  0
  -30.0260  -15.6540   20.3990 N   0  0  0  0  0  0  0  0  0  0  0  0
  -29.2070  -15.3200   20.8840 H   0  0  0  0  0  0  0  0  0  0  0  0
  -25.3900  -13.8600   20.3530 C   0  0  0  0  0  0  0  0  0  0  0  0
  -24.3560  -13.0730   20.7840 C   0  0  0  0  0  0  0  0  0  0  0  0
  -24.8110  -11.7250   20.6650 C   0  0  0  0  0  0  0  0  0  0  0  0
  -26.4120  -12.9900   20.0040 N   0  0  0  0  0  0  0  0  0  0  0  0
  -26.0720  -11.6980   20.2480 N   0  0  0  0  0  0  0  0  0  0  0  0
  -24.1000  -10.4560   20.8690 C   0  0  0  0  0  0  0  0  0  0  0  0
  -24.4980   -9.5380   21.8670 C   0  0  0  0  0  3  0  0  0  0  0  0
  -23.7860   -8.3340   22.0540 C   0  0  0  0  0  3  0  0  0  0  0  0
  -22.6620   -8.0390   21.2470 C   0  0  0  0  0  0  0  0  0  0  0  0
  -22.2840   -8.9460   20.2410 C   0  0  0  0  0  3  0  0  0  0  0  0
  -22.9970  -10.1420   20.0510 C   0  0  0  0  0  3  0  0  0  0  0  0
  -21.9270   -6.8830   21.3410 O   0  0  0  0  0  0  0  0  0  0  0  0
  -21.6840   -6.2810   22.5490 C   0  0  0  0  0  0  0  0  0  0  0  0
  -21.0140   -6.9520   23.5950 C   0  0  0  0  0  3  0  0  0  0  0  0
  -20.7230   -6.2730   24.7960 C   0  0  0  0  0  3  0  0  0  0  0  0
  -21.0940   -4.9230   24.9480 C   0  0  0  0  0  0  0  0  0  0  0  0
  -21.7550   -4.2510   23.9070 C   0  0  0  0  0  3  0  0  0  0  0  0
  -22.0470   -4.9280   22.7090 C   0  0  0  0  0  0  0  0  0  0  0  0
  -22.6670   -4.2700   21.6990 F   0  0  0  0  0  0  0  0  0  0  0  0
  -20.8070   -4.2690   26.0980 F   0  0  0  0  0  0  0  0  0  0  0  0
  -22.9890  -13.5400   21.1940 C   0  0  0  0  0  0  0  0  0  0  0  0
  -22.3470  -12.8280   22.1130 N   0  0  0  0  0  0  0  0  0  0  0  0
  -22.5010  -14.5720   20.7320 O   0  0  0  0  0  0  0  0  0  0  0  0
  -22.7560  -11.9950   22.5080 H   0  0  0  0  0  0  0  0  0  0  0  0
  -21.4350  -13.1230   22.4300 H   0  0  0  0  0  0  0  0  0  0  0  0
  -25.5380  -15.2350   20.2100 N   0  0  0  0  0  0  0  0  0  0  0  0
  -24.7930  -15.8830   20.4430 H   0  0  0  0  0  0  0  0  0  0  0  0
  -26.3770  -15.6980   19.8890 H   0  0  0  0  0  0  0  0  0  0  0  0
  -29.3770  -23.9890   20.1450 C   0  0  0  0  0  3  0  0  0  0  0  0
  -28.2310  -25.0250   19.7730 C   0  0  0  0  0  3  0  0  0  0  0  0
  -28.4300  -26.4770   19.9970 O   0  0  0  0  0  0  0  0  0  0  0  0
  -24.5140  -31.6530   23.1450 C   0  0  0  0  0  0  0  0  0  0  0  0
  -27.2920  -27.3010   19.9510 C   0  0  0  0  0  0  0  0  0  0  0  0
  -23.3790  -30.3120   21.4130 C   0  0  0  0  0  3  0  0  0  0  0  0
  -24.8940  -28.8610   19.9550 C   0  0  0  0  0  0  0  0  0  0  0  0
  -25.9150  -30.6890   21.3090 C   0  0  0  0  0  2  0  0  0  0  0  0
  -26.0390  -29.3440   20.6020 C   0  0  0  0  0  0  0  0  0  0  0  0
  -27.2400  -28.5770   20.5900 C   0  0  0  0  0  3  0  0  0  0  0  0
  -26.1220  -26.8710   19.2820 C   0  0  0  0  0  3  0  0  0  0  0  0
  -24.9380  -27.6290   19.2870 C   0  0  0  0  0  3  0  0  0  0  0  0
  -23.6390  -29.7070   20.0090 C   0  0  0  0  0  2  0  0  0  0  0  0
  -24.6210  -30.8990   22.0140 N   0  0  0  0  0  0  0  0  0  0  0  0
  -23.4120  -31.8870   23.6640 O   0  0  0  0  0  0  0  0  0  0  0  0
  -22.7120  -29.2380   22.3060 C   0  0  0  0  0  0  0  0  0  0  0  0
  -21.3980  -29.0280   22.1220 N   0  0  0  0  0  0  0  0  0  0  0  0
  -23.3780  -28.5990   23.1250 O   0  0  0  0  0  0  0  0  0  0  0  0
  -20.9200  -29.5980   21.4370 H   0  0  0  0  0  0  0  0  0  0  0  0
  -18.0310  -27.7570   22.4780 C   0  0  0  0  0  0  0  0  0  0  0  0
  -20.5780  -28.0410   22.8240 C   0  0  0  0  0  3  0  0  0  0  0  0
  -20.7170  -26.6420   22.1790 C   0  0  0  0  0  2  0  0  0  0  0  0
  -19.6450  -26.3540   21.1250 C   0  0  0  0  0  2  0  0  0  0  0  0
  -18.2460  -26.4460   21.7410 C   0  0  0  0  0  2  0  0  0  0  0  0
  -19.1270  -28.5130   22.9740 C   0  0  0  0  0  0  0  0  0  0  0  0
  -18.8720  -29.7410   23.6220 C   0  0  0  0  0  3  0  0  0  0  0  0
  -17.5560  -30.2130   23.7800 C   0  0  0  0  0  3  0  0  0  0  0  0
  -16.4740  -29.4530   23.3020 C   0  0  0  0  0  3  0  0  0  0  0  0
  -16.7140  -28.2270   22.6560 C   0  0  0  0  0  3  0  0  0  0  0  0
  -25.7690  -32.2770   23.8300 C   0  0  0  0  0  3  0  0  0  0  0  0
  -26.2400  -31.4810   25.1080 C   0  0  1  0  0  0  0  0  0  0  0  0
  -25.1060  -31.2050   26.1220 C   0  0  0  0  0  1  0  0  0  0  0  0
  -26.8550  -30.1190   24.7070 C   0  0  0  0  0  1  0  0  0  0  0  0
  -27.3530  -32.2700   25.8360 C   0  0  0  0  0  1  0  0  0  0  0  0
  -25.4380  -33.6660   24.1790 N   0  0  0  0  0  0  0  0  0  0  0  0
  -25.7680  -34.7350   23.4430 C   0  0  0  0  0  0  0  0  0  0  0  0
  -26.4520  -34.6580   22.4190 O   0  0  0  0  0  0  0  0  0  0  0  0
  -24.8300  -33.8000   24.9750 H   0  0  0  0  0  0  0  0  0  0  0  0
  -24.0170  -36.5100   23.1040 C   0  0  0  0  0  1  0  0  0  0  0  0
  -25.2580  -36.1110   23.9170 C   0  0  0  0  0  3  0  0  0  0  0  0
  -27.3680  -37.0200   24.7830 C   0  0  0  0  0  1  0  0  0  0  0  0
  -26.2770  -37.1790   23.8260 N   0  0  0  0  0  0  0  0  0  0  0  0
  -25.8550  -38.0930   23.9740 H   0  0  0  0  0  0  0  0  0  0  0  0
  1  3  2  0
  2  8  1  0
  2  1  1  0
  4  2  1  0
  5  6  2  0
  5  8  1  0
  6  9  1  0
  7 10  1  0
  8  7  2  0
  9 20  1  0
  9 10  2  0
 10 11  1  0
 12 20  1  0
 13 18  1  0
 14 15  1  0
 14 13  1  0
 16 15  1  0
 16 25  1  0
 16 17  1  0
 18 12  1  0
 18 17  1  0
 19 12  2  0
 20 21  1  0
 22 23  2  0
 23 42  1  0
 24 23  1  0
 24 27  1  0
 25 26  1  0
 25 22  1  0
 26 24  2  0
 27 28  1  0
 28 29  2  0
 30 33  1  0
 30 29  1  0
 31 30  2  0
 32 31  1  0
 32 27  2  0
 33 34  1  0
 34 39  2  0
 34 35  1  0
 35 36  2  0
 36 37  1  0
 37 41  1  0
 38 37  2  0
 39 38  1  0
 40 39  1  0
 42 43  1  0
 43 46  1  0
 43 45  1  0
 44 42  2  0
 47 22  1  0
 47 48  1  0
 49 47  1  0
 50  1  1  0
 51 52  1  0
 51 50  2  0
 53 64  2  0
 54 52  1  0
 54 59  1  0
 55 63  1  0
 55 65  1  0
 56 62  1  0
 56 58  1  0
 57 63  1  0
 58 57  1  0
 59 58  2  0
 60 61  1  0
 60 54  2  0
 61 56  2  0
 62 55  1  0
 63 53  1  0
 65 67  2  0
 66 65  1  0
 68 66  1  0
 69 78  2  0
 69 74  1  0
 70 66  1  0
 70 74  1  0
 71 70  1  0
 72 73  1  0
 72 71  1  0
 73 69  1  0
 74 75  2  0
 75 76  1  0
 77 76  2  0
 78 77  1  0
 79 53  1  0
 79 84  1  0
 79 80  1  0
 80 83  1  1
 80 81  1  0
 82 80  1  0
 84 87  1  0
 85 89  1  0
 85 84  1  0
 86 85  2  0
 89 88  1  0
 91 89  1  0
 91 92  1  0
 91 90  1  0
M  ISO  4  12 100  20 100  51 101  52 101
M  END
>  <TORSDO>  (24) 
F 19

>  <SCORE>  (24) 
-12.685

>  <name>  (24) 
23

>  <ligand_id>  (24) 
23

>  <original_smiles>  (24) 
[H]c1c([H])c([H])c2c(c1[H])C([H])([H])C([H])([H])C([H])([H])C2([H])N([H])C(=O)C1([H])N(C(=O)C([H])(N([H])C(=O)C([H])(N([H])C([H])([H])[H])C([H])([H])[H])C(C([H])([H])[H])(C([H])([H])[H])C([H])([H])[H])C([H])([H])c2c([H])c(OC([H])([H])C([H])([H])C(=O)N([H])c3c([H])c([H])c(N([H])C(=O)N4C([H])([H])C([H])([H])C([H])([H])C([H])(n5nc(-c6c([H])c([H])c(Oc7c([H])c([H])c(F)c([H])c7F)c([H])c6[H])c(C(=O)N([H])[H])c5N([H])[H])C4([H])[H])c(Cl)c3[H])c([H])c([H])c2C1([H])[H]

>  <smiles>  (24) 
[H]c1c([H])c([H])c2c(c1[H])C([H])([H])C([H])([H])C([H])([H])C2([H])N([H])C(=O)C1([H])N(C(=O)C([H])(N([H])C(=O)C([H])(N([H])C([H])([H])[H])C([H])([H])[H])C(C([H])([H])[H])(C([H])([H])[H])C([H])([H])[H])C([H])([H])c2c([H])c(OC([H])([H])C([H])([H])C(=O)N([H])c3c([H])c([H])c(N([H])C(=O)N4C([H])([H])C([H])([H])C([H])([H])C([H])(n5nc(-c6c([H])c([H])c(Oc7c([H])c([H])c(F)c([H])c7F)c([H])c6[H])c(C(=O)N([H])[H])c5N([H])[H])C4([H])[H])c(Cl)c3[H])c([H])c([H])c2C1([H])[H]

$$$$
24:0:0
     RDKit          3D

 94102  0  0  1  0  0  0  0  0999 V2000
  -30.8220  -20.0630   19.9570 C   0  0  0  0  0  3  0  0  0  0  0  0
  -30.8970  -18.6010   20.0970 C   0  0  0  0  0  3  0  0  0  0  0  0
  -28.4950  -19.9350   19.8110 C   0  0  0  0  0  3  0  0  0  0  0  0
  -28.5370  -18.4900   19.9110 C   0  0  0  0  0  0  0  0  0  0  0  0
  -29.5960  -20.8130   19.8150 C   0  0  0  0  0  0  0  0  0  0  0  0
  -29.7630  -17.7050   20.0690 C   0  0  0  0  0  0  0  0  0  0  0  0
  -30.5170  -14.9760   19.9110 C   0  0  0  0  0  0  0  0  0  0  0  0
  -30.3110  -12.6250   18.9490 C   0  0  0  0  0  2  0  0  0  0  0  0
  -29.2980  -12.6160   17.7820 C   0  0  0  0  0  2  0  0  0  0  0  0
  -27.8600  -12.4010   18.2960 C   0  0  0  0  0  2  0  0  0  0  0  0
  -27.5330  -13.2800   19.5320 C   0  0  0  0  0  3  0  0  0  0  0  0
  -28.6770  -13.2600   20.5750 C   0  0  0  0  0  2  0  0  0  0  0  0
  -29.9070  -13.7080   19.8930 N   0  0  0  0  0  0  0  0  0  0  0  0
  -31.6960  -15.0330   19.5490 O   0  0  0  0  0  0  0  0  0  0  0  0
  -29.7320  -16.1460   20.1490 N   0  0  0  0  0  0  0  0  0  0  0  0
  -28.8120  -15.8400   20.4200 H   0  0  0  0  0  0  0  0  0  0  0  0
  -25.1800  -13.8150   20.4160 C   0  0  0  0  0  0  0  0  0  0  0  0
  -24.1450  -13.0520   20.8400 C   0  0  0  0  0  0  0  0  0  0  0  0
  -24.6090  -11.7090   20.7500 C   0  0  0  0  0  0  0  0  0  0  0  0
  -26.2260  -12.9620   20.1040 N   0  0  0  0  0  0  0  0  0  0  0  0
  -25.8810  -11.6740   20.3610 N   0  0  0  0  0  0  0  0  0  0  0  0
  -23.8820  -10.4590   20.9510 C   0  0  0  0  0  0  0  0  0  0  0  0
  -24.3340   -9.4850   21.8650 C   0  0  0  0  0  3  0  0  0  0  0  0
  -23.5980   -8.2970   22.0560 C   0  0  0  0  0  3  0  0  0  0  0  0
  -22.3980   -8.0840   21.3360 C   0  0  0  0  0  0  0  0  0  0  0  0
  -21.9660   -9.0500   20.4120 C   0  0  0  0  0  3  0  0  0  0  0  0
  -22.7030  -10.2280   20.2160 C   0  0  0  0  0  3  0  0  0  0  0  0
  -21.6300   -6.9510   21.4410 O   0  0  0  0  0  0  0  0  0  0  0  0
  -21.5810   -6.2260   22.6040 C   0  0  0  0  0  0  0  0  0  0  0  0
  -21.1720   -6.8040   23.8260 C   0  0  0  0  0  3  0  0  0  0  0  0
  -21.0710   -6.0050   24.9820 C   0  0  0  0  0  3  0  0  0  0  0  0
  -21.3690   -4.6310   24.9180 C   0  0  0  0  0  0  0  0  0  0  0  0
  -21.7740   -4.0530   23.7020 C   0  0  0  0  0  3  0  0  0  0  0  0
  -21.8780   -4.8500   22.5470 C   0  0  0  0  0  0  0  0  0  0  0  0
  -22.2490   -4.2860   21.3720 F   0  0  0  0  0  0  0  0  0  0  0  0
  -21.2610   -3.8620   26.0270 F   0  0  0  0  0  0  0  0  0  0  0  0
  -22.7740  -13.5490   21.2020 C   0  0  0  0  0  0  0  0  0  0  0  0
  -22.0910  -12.8600   22.1070 N   0  0  0  0  0  0  0  0  0  0  0  0
  -22.3230  -14.5910   20.7240 O   0  0  0  0  0  0  0  0  0  0  0  0
  -22.4690  -12.0220   22.5210 H   0  0  0  0  0  0  0  0  0  0  0  0
  -21.1770  -13.1780   22.3930 H   0  0  0  0  0  0  0  0  0  0  0  0
  -25.2680  -15.1730   20.2520 N   0  0  0  0  0  0  0  0  0  0  0  0
  -24.4820  -15.7700   20.4770 H   0  0  0  0  0  0  0  0  0  0  0  0
  -26.0720  -15.6850   19.9190 H   0  0  0  0  0  0  0  0  0  0  0  0
  -25.9380  -18.7250   19.6400 C   0  0  0  0  0  1  0  0  0  0  0  0
  -26.9140  -16.8370   20.8590 C   0  0  0  0  0  1  0  0  0  0  0  0
  -27.3100  -17.2290   18.2440 C   0  0  0  0  0  1  0  0  0  0  0  0
  -27.1880  -17.8050   19.6800 C   0  0  2  0  0  0  0  0  0  0  0  0
  -29.1830  -23.5070   20.0350 C   0  0  0  0  0  0  0  0  0  0  0  0
  -29.3690  -22.2630   19.3880 N   0  0  0  0  0  0  0  0  0  0  0  0
  -29.6370  -23.6790   21.1700 O   0  0  0  0  0  0  0  0  0  0  0  0
  -29.0290  -22.3190   18.4340 H   0  0  0  0  0  0  0  0  0  0  0  0
  -28.3810  -24.7640   19.3230 C   0  0  0  0  0  2  0  0  0  0  0  0
  -28.4750  -26.2320   19.8020 O   0  0  0  0  0  0  0  0  0  0  0  0
  -24.5340  -31.5990   22.9440 C   0  0  0  0  0  0  0  0  0  0  0  0
  -27.3500  -27.1350   19.7530 C   0  0  0  0  0  0  0  0  0  0  0  0
  -23.4020  -30.2140   21.2430 C   0  0  0  0  0  3  0  0  0  0  0  0
  -24.9260  -28.7520   19.7810 C   0  0  0  0  0  0  0  0  0  0  0  0
  -25.9410  -30.5920   21.1150 C   0  0  0  0  0  2  0  0  0  0  0  0
  -26.0790  -29.2310   20.4150 C   0  0  0  0  0  0  0  0  0  0  0  0
  -27.2830  -28.4360   20.3920 C   0  0  0  0  0  3  0  0  0  0  0  0
  -26.1630  -26.7520   19.0820 C   0  0  0  0  0  3  0  0  0  0  0  0
  -24.9780  -27.5230   19.1040 C   0  0  0  0  0  3  0  0  0  0  0  0
  -23.6600  -29.5950   19.8460 C   0  0  0  0  0  2  0  0  0  0  0  0
  -24.6440  -30.8200   21.8240 N   0  0  0  0  0  0  0  0  0  0  0  0
  -23.4340  -31.8240   23.4710 O   0  0  0  0  0  0  0  0  0  0  0  0
  -22.7550  -29.1510   22.1660 C   0  0  0  0  0  0  0  0  0  0  0  0
  -21.4240  -28.9800   22.0630 N   0  0  0  0  0  0  0  0  0  0  0  0
  -23.4500  -28.4820   22.9350 O   0  0  0  0  0  0  0  0  0  0  0  0
  -20.9180  -29.5740   21.4210 H   0  0  0  0  0  0  0  0  0  0  0  0
  -18.0520  -27.7920   22.6450 C   0  0  0  0  0  0  0  0  0  0  0  0
  -20.6260  -27.9980   22.8010 C   0  0  0  0  0  3  0  0  0  0  0  0
  -20.6720  -26.6130   22.1160 C   0  0  0  0  0  2  0  0  0  0  0  0
  -19.5150  -26.3860   21.1370 C   0  0  0  0  0  2  0  0  0  0  0  0
  -18.1700  -26.5000   21.8580 C   0  0  0  0  0  2  0  0  0  0  0  0
  -19.2040  -28.5040   23.0750 C   0  0  0  0  0  0  0  0  0  0  0  0
  -19.0370  -29.7190   23.7750 C   0  0  0  0  0  3  0  0  0  0  0  0
  -17.7500  -30.2190   24.0500 C   0  0  0  0  0  3  0  0  0  0  0  0
  -16.6130  -29.5040   23.6350 C   0  0  0  0  0  3  0  0  0  0  0  0
  -16.7650  -28.2910   22.9380 C   0  0  0  0  0  3  0  0  0  0  0  0
  -25.7850  -32.2570   23.6050 C   0  0  0  0  0  3  0  0  0  0  0  0
  -26.3270  -31.4480   24.8490 C   0  0  1  0  0  0  0  0  0  0  0  0
  -25.2410  -31.1320   25.9040 C   0  0  0  0  0  1  0  0  0  0  0  0
  -26.9530  -30.1060   24.4060 C   0  0  0  0  0  1  0  0  0  0  0  0
  -27.4500  -32.2520   25.5450 C   0  0  0  0  0  1  0  0  0  0  0  0
  -25.4120  -33.6220   24.0060 N   0  0  0  0  0  0  0  0  0  0  0  0
  -25.6950  -34.7280   23.3060 C   0  0  0  0  0  0  0  0  0  0  0  0
  -26.3670  -34.7090   22.2720 O   0  0  0  0  0  0  0  0  0  0  0  0
  -24.8170  -33.7090   24.8160 H   0  0  0  0  0  0  0  0  0  0  0  0
  -23.8890  -36.4610   23.0520 C   0  0  0  0  0  1  0  0  0  0  0  0
  -25.1510  -36.0690   23.8370 C   0  0  0  0  0  3  0  0  0  0  0  0
  -27.2470  -37.0050   24.7070 C   0  0  0  0  0  1  0  0  0  0  0  0
  -26.1340  -37.1720   23.7770 N   0  0  0  0  0  0  0  0  0  0  0  0
  -25.6870  -38.0650   23.9740 H   0  0  0  0  0  0  0  0  0  0  0  0
  1  2  1  0
  3  5  1  0
  3  4  2  0
  4  6  1  0
  5  1  2  0
  6  2  2  0
  6 15  1  0
  7 15  1  0
  8 13  1  0
  9 10  1  0
  9  8  1  0
 11 10  1  0
 11 20  1  0
 11 12  1  0
 13  7  1  0
 13 12  1  0
 14  7  2  0
 15 16  1  0
 17 18  2  0
 18 37  1  0
 19 18  1  0
 19 22  1  0
 20 21  1  0
 20 17  1  0
 21 19  2  0
 22 23  1  0
 23 24  2  0
 25 28  1  0
 25 24  1  0
 26 25  2  0
 27 26  1  0
 27 22  2  0
 28 29  1  0
 29 30  1  0
 30 31  2  0
 32 31  1  0
 32 36  1  0
 33 32  2  0
 34 29  2  0
 34 33  1  0
 35 34  1  0
 37 38  1  0
 38 41  1  0
 38 40  1  0
 39 37  2  0
 42 17  1  0
 42 43  1  0
 44 42  1  0
 48 45  1  6
 47 48  1  0
 48  4  1  0
 48 46  1  0
 49 51  2  0
 50  5  1  0
 50 49  1  0
 52 50  1  0
 53 54  1  0
 53 49  1  0
 55 66  2  0
 56 54  1  0
 56 61  1  0
 57 65  1  0
 57 67  1  0
 58 64  1  0
 58 60  1  0
 59 65  1  0
 60 59  1  0
 61 60  2  0
 62 63  1  0
 62 56  2  0
 63 58  2  0
 64 57  1  0
 65 55  1  0
 67 69  2  0
 68 67  1  0
 70 68  1  0
 71 80  2  0
 71 76  1  0
 72 68  1  0
 72 76  1  0
 73 72  1  0
 74 75  1  0
 74 73  1  0
 75 71  1  0
 76 77  2  0
 77 78  1  0
 79 78  2  0
 80 79  1  0
 81 55  1  0
 81 86  1  0
 81 82  1  0
 82 85  1  1
 82 83  1  0
 84 82  1  0
 86 89  1  0
 87 91  1  0
 87 86  1  0
 88 87  2  0
 91 90  1  0
 93 91  1  0
 93 94  1  0
 93 92  1  0
M  ISO  4   7 100  15 100  53 101  54 101
M  END
>  <TORSDO>  (25) 
F 19

>  <SCORE>  (25) 
-12.197

>  <name>  (25) 
24

>  <ligand_id>  (25) 
24

>  <original_smiles>  (25) 
[H]c1c([H])c([H])c2c(c1[H])C([H])([H])C([H])([H])C([H])([H])C2([H])N([H])C(=O)C1([H])N(C(=O)C([H])(N([H])C(=O)C([H])(N([H])C([H])([H])[H])C([H])([H])[H])C(C([H])([H])[H])(C([H])([H])[H])C([H])([H])[H])C([H])([H])c2c([H])c(OC([H])([H])C(=O)N([H])c3c([H])c([H])c(N([H])C(=O)N4C([H])([H])C([H])([H])C([H])([H])C([H])(n5nc(-c6c([H])c([H])c(Oc7c([H])c([H])c(F)c([H])c7F)c([H])c6[H])c(C(=O)N([H])[H])c5N([H])[H])C4([H])[H])c(C(C([H])([H])[H])(C([H])([H])[H])C([H])([H])[H])c3[H])c([H])c([H])c2C1([H])[H]

>  <smiles>  (25) 
[H]c1c([H])c([H])c2c(c1[H])C([H])([H])C([H])([H])C([H])([H])C2([H])N([H])C(=O)C1([H])N(C(=O)C([H])(N([H])C(=O)C([H])(N([H])C([H])([H])[H])C([H])([H])[H])C(C([H])([H])[H])(C([H])([H])[H])C([H])([H])[H])C([H])([H])c2c([H])c(OC([H])([H])C(=O)N([H])c3c([H])c([H])c(N([H])C(=O)N4C([H])([H])C([H])([H])C([H])([H])C([H])(n5nc(-c6c([H])c([H])c(Oc7c([H])c([H])c(F)c([H])c7F)c([H])c6[H])c(C(=O)N([H])[H])c5N([H])[H])C4([H])[H])c(C(C([H])([H])[H])(C([H])([H])[H])C([H])([H])[H])c3[H])c([H])c([H])c2C1([H])[H]

$$$$
25:0:0
     RDKit          3D

 89 97  0  0  1  0  0  0  0  0999 V2000
  -30.6320  -18.5540   20.0960 C   0  0  0  0  0  3  0  0  0  0  0  0
  -30.3370  -19.9850   19.9270 C   0  0  0  0  0  3  0  0  0  0  0  0
  -28.3280  -18.0820   19.9740 C   0  0  0  0  0  3  0  0  0  0  0  0
  -29.6320  -17.5130   20.1270 C   0  0  0  0  0  0  0  0  0  0  0  0
  -29.0100  -20.5310   19.7590 C   0  0  0  0  0  0  0  0  0  0  0  0
  -28.0350  -19.4830   19.7960 C   0  0  0  0  0  0  0  0  0  0  0  0
  -26.3710  -19.9180   19.6130 Cl  0  0  0  0  0  0  0  0  0  0  0  0
  -30.5950  -14.8970   20.0790 C   0  0  0  0  0  0  0  0  0  0  0  0
  -30.4810  -12.5140   19.2280 C   0  0  0  0  0  2  0  0  0  0  0  0
  -29.5180  -12.4560   18.0170 C   0  0  0  0  0  2  0  0  0  0  0  0
  -28.0560  -12.2860   18.4780 C   0  0  0  0  0  2  0  0  0  0  0  0
  -27.6870  -13.2480   19.6370 C   0  0  0  0  0  3  0  0  0  0  0  0
  -28.7630  -13.2460   20.7450 C   0  0  0  0  0  2  0  0  0  0  0  0
  -30.0360  -13.6240   20.1130 N   0  0  0  0  0  0  0  0  0  0  0  0
  -31.7730  -15.0130   19.7230 O   0  0  0  0  0  0  0  0  0  0  0  0
  -29.7280  -15.9920   20.2970 N   0  0  0  0  0  0  0  0  0  0  0  0
  -28.8460  -15.6100   20.6000 H   0  0  0  0  0  0  0  0  0  0  0  0
  -25.3460  -13.9020   20.4510 C   0  0  0  0  0  0  0  0  0  0  0  0
  -24.2670  -13.1580   20.8420 C   0  0  0  0  0  0  0  0  0  0  0  0
  -24.6810  -11.7920   20.7700 C   0  0  0  0  0  0  0  0  0  0  0  0
  -26.3500  -12.9920   20.1630 N   0  0  0  0  0  0  0  0  0  0  0  0
  -25.9600  -11.7170   20.4180 N   0  0  0  0  0  0  0  0  0  0  0  0
  -23.9150  -10.5530   20.9570 C   0  0  0  0  0  0  0  0  0  0  0  0
  -24.3510   -9.5420   21.8410 C   0  0  0  0  0  3  0  0  0  0  0  0
  -23.5880   -8.3680   22.0180 C   0  0  0  0  0  3  0  0  0  0  0  0
  -22.3730   -8.1980   21.3110 C   0  0  0  0  0  0  0  0  0  0  0  0
  -21.9550   -9.1970   20.4160 C   0  0  0  0  0  3  0  0  0  0  0  0
  -22.7190  -10.3630   20.2370 C   0  0  0  0  0  3  0  0  0  0  0  0
  -21.5790   -7.0800   21.4020 O   0  0  0  0  0  0  0  0  0  0  0  0
  -21.5640   -6.2950   22.5270 C   0  0  0  0  0  0  0  0  0  0  0  0
  -21.2280   -6.8180   23.7950 C   0  0  0  0  0  3  0  0  0  0  0  0
  -21.1590   -5.9620   24.9130 C   0  0  0  0  0  3  0  0  0  0  0  0
  -21.4160   -4.5850   24.7640 C   0  0  0  0  0  0  0  0  0  0  0  0
  -21.7450   -4.0630   23.5000 C   0  0  0  0  0  3  0  0  0  0  0  0
  -21.8160   -4.9160   22.3850 C   0  0  0  0  0  0  0  0  0  0  0  0
  -22.1140   -4.4040   21.1660 F   0  0  0  0  0  0  0  0  0  0  0  0
  -21.3410   -3.7620   25.8350 F   0  0  0  0  0  0  0  0  0  0  0  0
  -22.8960  -13.6790   21.1630 C   0  0  0  0  0  0  0  0  0  0  0  0
  -22.1710  -12.9990   22.0440 N   0  0  0  0  0  0  0  0  0  0  0  0
  -22.4770  -14.7240   20.6650 O   0  0  0  0  0  0  0  0  0  0  0  0
  -22.5240  -12.1540   22.4690 H   0  0  0  0  0  0  0  0  0  0  0  0
  -21.2520  -13.3300   22.3000 H   0  0  0  0  0  0  0  0  0  0  0  0
  -25.5500  -15.2690   20.2890 N   0  0  0  0  0  0  0  0  0  0  0  0
  -24.7910  -15.9310   20.4050 H   0  0  0  0  0  0  0  0  0  0  0  0
  -26.3510  -15.6680   19.8190 H   0  0  0  0  0  0  0  0  0  0  0  0
  -28.5220  -21.8940   19.5190 O   0  0  0  0  0  0  0  0  0  0  0  0
  -29.1290  -23.2960   19.6130 C   0  0  0  0  0  3  0  0  0  0  0  0
  -28.1420  -24.6400   19.3640 C   0  0  0  0  0  3  0  0  0  0  0  0
  -28.3950  -26.1550   19.6110 O   0  0  0  0  0  0  0  0  0  0  0  0
  -24.6430  -31.5280   22.9760 C   0  0  0  0  0  0  0  0  0  0  0  0
  -27.3060  -27.1010   19.6210 C   0  0  0  0  0  0  0  0  0  0  0  0
  -23.4570  -30.2090   21.2650 C   0  0  0  0  0  3  0  0  0  0  0  0
  -24.9270  -28.7700   19.7280 C   0  0  0  0  0  0  0  0  0  0  0  0
  -26.0000  -30.5560   21.0880 C   0  0  0  0  0  2  0  0  0  0  0  0
  -26.1020  -29.2120   20.3480 C   0  0  0  0  0  0  0  0  0  0  0  0
  -27.2920  -28.3950   20.2780 C   0  0  0  0  0  3  0  0  0  0  0  0
  -26.0980  -26.7590   18.9710 C   0  0  0  0  0  3  0  0  0  0  0  0
  -24.9360  -27.5580   19.0240 C   0  0  0  0  0  3  0  0  0  0  0  0
  -23.6770  -29.6270   19.8440 C   0  0  0  0  0  2  0  0  0  0  0  0
  -24.7200  -30.7820   21.8320 N   0  0  0  0  0  0  0  0  0  0  0  0
  -23.5570  -31.7500   23.5340 O   0  0  0  0  0  0  0  0  0  0  0  0
  -22.8170  -29.1240   22.1680 C   0  0  0  0  0  0  0  0  0  0  0  0
  -21.4870  -28.9480   22.0670 N   0  0  0  0  0  0  0  0  0  0  0  0
  -23.5190  -28.4460   22.9220 O   0  0  0  0  0  0  0  0  0  0  0  0
  -20.9770  -29.5490   21.4360 H   0  0  0  0  0  0  0  0  0  0  0  0
  -18.1280  -27.7040   22.6060 C   0  0  0  0  0  0  0  0  0  0  0  0
  -20.6970  -27.9480   22.7890 C   0  0  0  0  0  3  0  0  0  0  0  0
  -20.7730  -26.5690   22.0940 C   0  0  0  0  0  2  0  0  0  0  0  0
  -19.6290  -26.3300   21.1020 C   0  0  0  0  0  2  0  0  0  0  0  0
  -18.2760  -26.4170   21.8120 C   0  0  0  0  0  2  0  0  0  0  0  0
  -19.2650  -28.4310   23.0520 C   0  0  0  0  0  0  0  0  0  0  0  0
  -19.0710  -29.6380   23.7580 C   0  0  0  0  0  3  0  0  0  0  0  0
  -17.7740  -30.1190   24.0210 C   0  0  0  0  0  3  0  0  0  0  0  0
  -16.6540  -29.3880   23.5890 C   0  0  0  0  0  3  0  0  0  0  0  0
  -16.8320  -28.1820   22.8890 C   0  0  0  0  0  3  0  0  0  0  0  0
  -25.9130  -32.1560   23.6270 C   0  0  0  0  0  3  0  0  0  0  0  0
  -26.4450  -31.3320   24.8650 C   0  0  1  0  0  0  0  0  0  0  0  0
  -25.3610  -31.0310   25.9260 C   0  0  0  0  0  1  0  0  0  0  0  0
  -27.0450  -29.9810   24.4100 C   0  0  0  0  0  1  0  0  0  0  0  0
  -27.5900  -32.1090   25.5570 C   0  0  0  0  0  1  0  0  0  0  0  0
  -25.5750  -33.5300   24.0330 N   0  0  0  0  0  0  0  0  0  0  0  0
  -25.8700  -34.6290   23.3270 C   0  0  0  0  0  0  0  0  0  0  0  0
  -26.5210  -34.5950   22.2790 O   0  0  0  0  0  0  0  0  0  0  0  0
  -24.9930  -33.6270   24.8520 H   0  0  0  0  0  0  0  0  0  0  0  0
  -24.0890  -36.3950   23.1120 C   0  0  0  0  0  1  0  0  0  0  0  0
  -25.3630  -35.9820   23.8660 C   0  0  0  0  0  3  0  0  0  0  0  0
  -27.4990  -36.8830   24.6800 C   0  0  0  0  0  1  0  0  0  0  0  0
  -26.3670  -37.0650   23.7750 N   0  0  0  0  0  0  0  0  0  0  0  0
  -25.9430  -37.9670   23.9760 H   0  0  0  0  0  0  0  0  0  0  0  0
  1  4  1  0
  2  1  2  0
  3  4  2  0
  4 16  1  0
  5  6  2  0
  5  2  1  0
  6  3  1  0
  7  6  1  0
  8 14  1  0
  8 16  1  0
  9 14  1  0
 10 11  1  0
 10  9  1  0
 12 11  1  0
 12 21  1  0
 12 13  1  0
 14 13  1  0
 15  8  2  0
 16 17  1  0
 18 19  2  0
 19 38  1  0
 20 19  1  0
 20 23  1  0
 21 22  1  0
 21 18  1  0
 22 20  2  0
 23 24  1  0
 24 25  2  0
 26 29  1  0
 26 25  1  0
 27 26  2  0
 28 27  1  0
 28 23  2  0
 29 30  1  0
 30 31  1  0
 31 32  2  0
 33 32  1  0
 33 37  1  0
 34 33  2  0
 35 30  2  0
 35 34  1  0
 36 35  1  0
 38 39  1  0
 39 42  1  0
 39 41  1  0
 40 38  2  0
 43 44  1  0
 43 18  1  0
 45 43  1  0
 46 47  1  0
 46  5  1  0
 48 49  1  0
 48 47  2  0
 49 51  1  0
 50 61  2  0
 51 56  1  0
 52 60  1  0
 52 62  1  0
 53 59  1  0
 53 55  1  0
 54 60  1  0
 55 54  1  0
 56 55  2  0
 57 58  1  0
 57 51  2  0
 58 53  2  0
 59 52  1  0
 60 50  1  0
 62 64  2  0
 63 62  1  0
 65 63  1  0
 66 75  2  0
 66 71  1  0
 67 63  1  0
 67 71  1  0
 68 67  1  0
 69 70  1  0
 69 68  1  0
 70 66  1  0
 71 72  2  0
 72 73  1  0
 74 73  2  0
 75 74  1  0
 76 50  1  0
 76 81  1  0
 76 77  1  0
 77 80  1  1
 77 78  1  0
 79 77  1  0
 81 84  1  0
 82 86  1  0
 82 81  1  0
 83 82  2  0
 86 85  1  0
 88 86  1  0
 88 89  1  0
 88 87  1  0
M  ISO  4   8 100  16 100  48 101  49 101
M  END
>  <TORSDO>  (26) 
F 19

>  <SCORE>  (26) 
-12.798

>  <name>  (26) 
25

>  <ligand_id>  (26) 
25

>  <original_smiles>  (26) 
[H]c1c([H])c([H])c2c(c1[H])C([H])([H])C([H])([H])C([H])([H])C2([H])N([H])C(=O)C1([H])N(C(=O)C([H])(N([H])C(=O)C([H])(N([H])C([H])([H])[H])C([H])([H])[H])C(C([H])([H])[H])(C([H])([H])[H])C([H])([H])[H])C([H])([H])c2c([H])c(OC([H])([H])C([H])([H])Oc3c([H])c([H])c(N([H])C(=O)N4C([H])([H])C([H])([H])C([H])([H])C([H])(n5nc(-c6c([H])c([H])c(Oc7c([H])c([H])c(F)c([H])c7F)c([H])c6[H])c(C(=O)N([H])[H])c5N([H])[H])C4([H])[H])c([H])c3Cl)c([H])c([H])c2C1([H])[H]

>  <smiles>  (26) 
[H]c1c([H])c([H])c2c(c1[H])C([H])([H])C([H])([H])C([H])([H])C2([H])N([H])C(=O)C1([H])N(C(=O)C([H])(N([H])C(=O)C([H])(N([H])C([H])([H])[H])C([H])([H])[H])C(C([H])([H])[H])(C([H])([H])[H])C([H])([H])[H])C([H])([H])c2c([H])c(OC([H])([H])C([H])([H])Oc3c([H])c([H])c(N([H])C(=O)N4C([H])([H])C([H])([H])C([H])([H])C([H])(n5nc(-c6c([H])c([H])c(Oc7c([H])c([H])c(F)c([H])c7F)c([H])c6[H])c(C(=O)N([H])[H])c5N([H])[H])C4([H])[H])c([H])c3Cl)c([H])c([H])c2C1([H])[H]

$$$$
26:0:0
     RDKit          3D

 90 98  0  0  1  0  0  0  0  0999 V2000
  -27.8170  -21.8590   21.4820 C   0  0  0  0  0  1  0  0  0  0  0  0
  -28.8510  -21.5230   20.5000 N   0  0  0  0  0  0  0  0  0  0  0  0
  -28.7220  -17.7450   21.0840 C   0  0  0  0  0  3  0  0  0  0  0  0
  -30.7610  -18.1740   19.9040 C   0  0  0  0  0  3  0  0  0  0  0  0
  -28.4120  -19.1270   21.0620 C   0  0  0  0  0  3  0  0  0  0  0  0
  -30.4460  -19.5830   19.8980 C   0  0  0  0  0  3  0  0  0  0  0  0
  -29.8940  -17.2100   20.5020 C   0  0  0  0  0  0  0  0  0  0  0  0
  -29.2500  -20.1210   20.4770 C   0  0  0  0  0  0  0  0  0  0  0  0
  -30.8040  -14.7780   20.0020 C   0  0  0  0  0  0  0  0  0  0  0  0
  -30.5680  -12.5550   18.8950 C   0  0  0  0  0  2  0  0  0  0  0  0
  -29.5430  -12.6930   17.7450 C   0  0  0  0  0  2  0  0  0  0  0  0
  -28.0960  -12.5270   18.2590 C   0  0  0  0  0  2  0  0  0  0  0  0
  -27.8160  -13.3560   19.5390 C   0  0  0  0  0  3  0  0  0  0  0  0
  -28.9430  -13.1550   20.5780 C   0  0  0  0  0  2  0  0  0  0  0  0
  -30.2160  -13.5380   19.9390 N   0  0  0  0  0  0  0  0  0  0  0  0
  -31.9070  -14.9980   19.4920 O   0  0  0  0  0  0  0  0  0  0  0  0
  -30.0250  -15.7490   20.5770 N   0  0  0  0  0  0  0  0  0  0  0  0
  -29.2520  -15.3170   21.0570 H   0  0  0  0  0  0  0  0  0  0  0  0
  -25.4770  -13.9400   20.4360 C   0  0  0  0  0  0  0  0  0  0  0  0
  -24.4300  -13.1580   20.8450 C   0  0  0  0  0  0  0  0  0  0  0  0
  -24.8770  -11.8060   20.7260 C   0  0  0  0  0  0  0  0  0  0  0  0
  -26.4970  -13.0630   20.0970 N   0  0  0  0  0  0  0  0  0  0  0  0
  -26.1430  -11.7730   20.3300 N   0  0  0  0  0  0  0  0  0  0  0  0
  -24.1550  -10.5410   20.9120 C   0  0  0  0  0  0  0  0  0  0  0  0
  -24.5700   -9.5860   21.8660 C   0  0  0  0  0  3  0  0  0  0  0  0
  -23.8490   -8.3850   22.0370 C   0  0  0  0  0  3  0  0  0  0  0  0
  -22.6960   -8.1310   21.2560 C   0  0  0  0  0  0  0  0  0  0  0  0
  -22.3000   -9.0750   20.2930 C   0  0  0  0  0  3  0  0  0  0  0  0
  -23.0220  -10.2670   20.1180 C   0  0  0  0  0  3  0  0  0  0  0  0
  -21.9470   -6.9820   21.3370 O   0  0  0  0  0  0  0  0  0  0  0  0
  -21.7830   -6.3130   22.5230 C   0  0  0  0  0  0  0  0  0  0  0  0
  -21.2160   -6.9340   23.6580 C   0  0  0  0  0  3  0  0  0  0  0  0
  -21.0030   -6.1890   24.8340 C   0  0  0  0  0  3  0  0  0  0  0  0
  -21.3430   -4.8240   24.8770 C   0  0  0  0  0  0  0  0  0  0  0  0
  -21.9000   -4.2020   23.7460 C   0  0  0  0  0  3  0  0  0  0  0  0
  -22.1170   -4.9440   22.5710 C   0  0  0  0  0  0  0  0  0  0  0  0
  -22.6350   -4.3350   21.4780 F   0  0  0  0  0  0  0  0  0  0  0  0
  -21.1300   -4.1060   26.0040 F   0  0  0  0  0  0  0  0  0  0  0  0
  -23.0560  -13.6310   21.2290 C   0  0  0  0  0  0  0  0  0  0  0  0
  -22.3810  -12.9020   22.1100 N   0  0  0  0  0  0  0  0  0  0  0  0
  -22.5940  -14.6800   20.7830 O   0  0  0  0  0  0  0  0  0  0  0  0
  -22.7660  -12.0500   22.4920 H   0  0  0  0  0  0  0  0  0  0  0  0
  -21.4620  -13.1980   22.4070 H   0  0  0  0  0  0  0  0  0  0  0  0
  -25.6430  -15.3160   20.3050 N   0  0  0  0  0  0  0  0  0  0  0  0
  -24.8930  -15.9730   20.4890 H   0  0  0  0  0  0  0  0  0  0  0  0
  -26.4660  -15.7550   19.9150 H   0  0  0  0  0  0  0  0  0  0  0  0
  -29.6530  -22.6970   20.0230 C   0  0  0  0  0  2  0  0  0  0  0  0
  -28.8940  -24.0390   19.5470 C   0  0  0  0  0  2  0  0  0  0  0  0
  -28.5450  -25.2350   20.5460 C   0  0  0  0  0  2  0  0  0  0  0  0
  -28.5920  -26.6390   20.0720 O   0  0  0  0  0  0  0  0  0  0  0  0
  -24.7880  -31.8390   23.3650 C   0  0  0  0  0  0  0  0  0  0  0  0
  -27.4430  -27.4370   20.1310 C   0  0  0  0  0  0  0  0  0  0  0  0
  -23.5970  -30.5090   21.6570 C   0  0  0  0  0  3  0  0  0  0  0  0
  -25.0610  -29.0190   20.1780 C   0  0  0  0  0  0  0  0  0  0  0  0
  -26.1320  -30.8500   21.4970 C   0  0  0  0  0  2  0  0  0  0  0  0
  -26.2240  -29.4970   20.7980 C   0  0  0  0  0  0  0  0  0  0  0  0
  -27.4180  -28.7190   20.7590 C   0  0  0  0  0  3  0  0  0  0  0  0
  -26.2560  -26.9960   19.5080 C   0  0  0  0  0  3  0  0  0  0  0  0
  -25.0780  -27.7730   19.5280 C   0  0  0  0  0  3  0  0  0  0  0  0
  -23.8200  -29.8880   20.2520 C   0  0  0  0  0  2  0  0  0  0  0  0
  -24.8570  -31.0810   22.2320 N   0  0  0  0  0  0  0  0  0  0  0  0
  -23.7020  -32.0930   23.9060 O   0  0  0  0  0  0  0  0  0  0  0  0
  -22.9320  -29.4510   22.5700 C   0  0  0  0  0  0  0  0  0  0  0  0
  -21.6070  -29.2760   22.4240 N   0  0  0  0  0  0  0  0  0  0  0  0
  -23.6040  -28.7930   23.3670 O   0  0  0  0  0  0  0  0  0  0  0  0
  -21.1260  -29.8590   21.7520 H   0  0  0  0  0  0  0  0  0  0  0  0
  -18.2290  -28.0480   22.8280 C   0  0  0  0  0  0  0  0  0  0  0  0
  -20.7820  -28.3050   23.1450 C   0  0  0  0  0  3  0  0  0  0  0  0
  -20.8980  -26.8990   22.5110 C   0  0  0  0  0  2  0  0  0  0  0  0
  -19.8110  -26.6160   21.4700 C   0  0  0  0  0  2  0  0  0  0  0  0
  -18.4190  -26.7280   22.1000 C   0  0  0  0  0  2  0  0  0  0  0  0
  -19.3390  -28.7960   23.3030 C   0  0  0  0  0  0  0  0  0  0  0  0
  -19.1070  -30.0330   23.9430 C   0  0  0  0  0  3  0  0  0  0  0  0
  -17.7980  -30.5220   24.1150 C   0  0  0  0  0  3  0  0  0  0  0  0
  -16.7020  -29.7700   23.6570 C   0  0  0  0  0  3  0  0  0  0  0  0
  -16.9180  -28.5350   23.0190 C   0  0  0  0  0  3  0  0  0  0  0  0
  -26.0670  -32.4430   24.0250 C   0  0  0  0  0  3  0  0  0  0  0  0
  -26.5630  -31.6270   25.2810 C   0  0  1  0  0  0  0  0  0  0  0  0
  -25.4530  -31.3550   26.3250 C   0  0  0  0  0  1  0  0  0  0  0  0
  -27.1460  -30.2630   24.8440 C   0  0  0  0  0  1  0  0  0  0  0  0
  -27.7090  -32.3910   25.9840 C   0  0  0  0  0  1  0  0  0  0  0  0
  -25.7600  -33.8310   24.3990 N   0  0  0  0  0  0  0  0  0  0  0  0
  -26.1160  -34.9080   23.6890 C   0  0  0  0  0  0  0  0  0  0  0  0
  -26.8050  -34.8380   22.6660 O   0  0  0  0  0  0  0  0  0  0  0  0
  -25.1460  -33.9580   25.1900 H   0  0  0  0  0  0  0  0  0  0  0  0
  -24.4150  -36.7330   23.3560 C   0  0  0  0  0  1  0  0  0  0  0  0
  -25.6280  -36.2820   24.1870 C   0  0  0  0  0  3  0  0  0  0  0  0
  -27.7440  -37.1110   25.1140 C   0  0  0  0  0  1  0  0  0  0  0  0
  -26.6720  -37.3290   24.1460 N   0  0  0  0  0  0  0  0  0  0  0  0
  -26.2710  -38.2470   24.3180 H   0  0  0  0  0  0  0  0  0  0  0  0
  2  1  1  0
  4  7  1  0
  5  3  1  0
  6  4  2  0
  6  8  1  0
  7 17  1  0
  7  3  2  0
  8  2  1  0
  8  5  2  0
  9 17  1  0
 10 15  1  0
 11 12  1  0
 11 10  1  0
 13 12  1  0
 13 22  1  0
 13 14  1  0
 15  9  1  0
 15 14  1  0
 16  9  2  0
 17 18  1  0
 19 20  2  0
 20 39  1  0
 21 20  1  0
 21 24  1  0
 22 23  1  0
 22 19  1  0
 23 21  2  0
 24 25  1  0
 25 26  2  0
 27 30  1  0
 27 26  1  0
 28 27  2  0
 29 28  1  0
 29 24  2  0
 30 31  1  0
 31 36  2  0
 31 32  1  0
 32 33  2  0
 33 34  1  0
 34 38  1  0
 35 34  2  0
 36 35  1  0
 37 36  1  0
 39 40  1  0
 40 43  1  0
 40 42  1  0
 41 39  2  0
 44 19  1  0
 44 45  1  0
 46 44  1  0
 47  2  1  0
 48 47  1  0
 48 49  1  0
 50 52  1  0
 50 49  1  0
 51 62  2  0
 52 57  1  0
 53 61  1  0
 53 63  1  0
 54 60  1  0
 54 56  1  0
 55 61  1  0
 56 55  1  0
 57 56  2  0
 58 59  1  0
 58 52  2  0
 59 54  2  0
 60 53  1  0
 61 51  1  0
 63 65  2  0
 64 63  1  0
 66 64  1  0
 67 76  2  0
 67 72  1  0
 68 64  1  0
 68 72  1  0
 69 68  1  0
 70 71  1  0
 70 69  1  0
 71 67  1  0
 72 73  2  0
 73 74  1  0
 75 74  2  0
 76 75  1  0
 77 51  1  0
 77 82  1  0
 77 78  1  0
 78 81  1  1
 78 79  1  0
 80 78  1  0
 82 85  1  0
 83 87  1  0
 83 82  1  0
 84 83  2  0
 87 86  1  0
 89 87  1  0
 89 90  1  0
 89 88  1  0
M  ISO  4   9 100  17 100  49 101  50 101
M  END
>  <TORSDO>  (27) 
F 20

>  <SCORE>  (27) 
-12.465

>  <name>  (27) 
26

>  <ligand_id>  (27) 
26

>  <original_smiles>  (27) 
[H]c1c([H])c([H])c2c(c1[H])C([H])([H])C([H])([H])C([H])([H])C2([H])N([H])C(=O)C1([H])N(C(=O)C([H])(N([H])C(=O)C([H])(N([H])C([H])([H])[H])C([H])([H])[H])C(C([H])([H])[H])(C([H])([H])[H])C([H])([H])[H])C([H])([H])c2c([H])c(OC([H])([H])C([H])([H])C([H])([H])N(c3c([H])c([H])c(N([H])C(=O)N4C([H])([H])C([H])([H])C([H])([H])C([H])(n5nc(-c6c([H])c([H])c(Oc7c([H])c([H])c(F)c([H])c7F)c([H])c6[H])c(C(=O)N([H])[H])c5N([H])[H])C4([H])[H])c([H])c3[H])C([H])([H])[H])c([H])c([H])c2C1([H])[H]

>  <smiles>  (27) 
[H]c1c([H])c([H])c2c(c1[H])C([H])([H])C([H])([H])C([H])([H])C2([H])N([H])C(=O)C1([H])N(C(=O)C([H])(N([H])C(=O)C([H])(N([H])C([H])([H])[H])C([H])([H])[H])C(C([H])([H])[H])(C([H])([H])[H])C([H])([H])[H])C([H])([H])c2c([H])c(OC([H])([H])C([H])([H])C([H])([H])N(c3c([H])c([H])c(N([H])C(=O)N4C([H])([H])C([H])([H])C([H])([H])C([H])(n5nc(-c6c([H])c([H])c(Oc7c([H])c([H])c(F)c([H])c7F)c([H])c6[H])c(C(=O)N([H])[H])c5N([H])[H])C4([H])[H])c([H])c3[H])C([H])([H])[H])c([H])c([H])c2C1([H])[H]

$$$$
27:0:0
     RDKit          3D

 91 99  0  0  1  0  0  0  0  0999 V2000
  -28.9840  -23.4060   20.2160 C   0  0  0  0  0  0  0  0  0  0  0  0
  -28.5330  -22.0740   20.0580 N   0  0  0  0  0  0  0  0  0  0  0  0
  -30.1440  -23.6320   20.5700 O   0  0  0  0  0  0  0  0  0  0  0  0
  -27.5480  -22.0810   19.8230 H   0  0  0  0  0  0  0  0  0  0  0  0
  -30.6150  -18.6040   20.2960 C   0  0  0  0  0  3  0  0  0  0  0  0
  -30.3410  -20.0470   20.2500 C   0  0  0  0  0  3  0  0  0  0  0  0
  -28.2990  -18.1820   20.2110 C   0  0  0  0  0  3  0  0  0  0  0  0
  -29.5970  -17.5800   20.2820 C   0  0  0  0  0  0  0  0  0  0  0  0
  -29.0190  -20.6250   20.1720 C   0  0  0  0  0  0  0  0  0  0  0  0
  -28.0240  -19.5980   20.1470 C   0  0  0  0  0  0  0  0  0  0  0  0
  -26.7300  -19.9890   20.0570 F   0  0  0  0  0  0  0  0  0  0  0  0
  -30.5510  -14.9620   20.1150 C   0  0  0  0  0  0  0  0  0  0  0  0
  -30.4380  -12.6340   19.1180 C   0  0  0  0  0  2  0  0  0  0  0  0
  -29.4590  -12.6410   17.9190 C   0  0  0  0  0  2  0  0  0  0  0  0
  -28.0060  -12.4260   18.3900 C   0  0  0  0  0  2  0  0  0  0  0  0
  -27.6440  -13.3100   19.6110 C   0  0  0  0  0  3  0  0  0  0  0  0
  -28.7370  -13.2580   20.7010 C   0  0  0  0  0  2  0  0  0  0  0  0
  -29.9960  -13.6850   20.0730 N   0  0  0  0  0  0  0  0  0  0  0  0
  -31.7310  -15.0980   19.7720 O   0  0  0  0  0  0  0  0  0  0  0  0
  -29.6790  -16.0480   20.3690 N   0  0  0  0  0  0  0  0  0  0  0  0
  -28.7830  -15.6540   20.6080 H   0  0  0  0  0  0  0  0  0  0  0  0
  -25.2800  -13.8790   20.4200 C   0  0  0  0  0  0  0  0  0  0  0  0
  -24.2290  -13.0980   20.8130 C   0  0  0  0  0  0  0  0  0  0  0  0
  -24.6940  -11.7480   20.7490 C   0  0  0  0  0  0  0  0  0  0  0  0
  -26.3180  -13.0050   20.1380 N   0  0  0  0  0  0  0  0  0  0  0  0
  -25.9750  -11.7180   20.4010 N   0  0  0  0  0  0  0  0  0  0  0  0
  -23.9740  -10.4820   20.9410 C   0  0  0  0  0  0  0  0  0  0  0  0
  -24.4040   -9.5240   21.8840 C   0  0  0  0  0  3  0  0  0  0  0  0
  -23.6830   -8.3230   22.0640 C   0  0  0  0  0  3  0  0  0  0  0  0
  -22.5180   -8.0720   21.3000 C   0  0  0  0  0  0  0  0  0  0  0  0
  -22.1080   -9.0210   20.3460 C   0  0  0  0  0  3  0  0  0  0  0  0
  -22.8300  -10.2120   20.1650 C   0  0  0  0  0  3  0  0  0  0  0  0
  -21.7710   -6.9240   21.3890 O   0  0  0  0  0  0  0  0  0  0  0  0
  -21.6710   -6.2170   22.5600 C   0  0  0  0  0  0  0  0  0  0  0  0
  -21.1670   -6.8020   23.7430 C   0  0  0  0  0  3  0  0  0  0  0  0
  -21.0170   -6.0230   24.9060 C   0  0  0  0  0  3  0  0  0  0  0  0
  -21.3610   -4.6570   24.8890 C   0  0  0  0  0  0  0  0  0  0  0  0
  -21.8590   -4.0710   23.7110 C   0  0  0  0  0  3  0  0  0  0  0  0
  -22.0100   -4.8490   22.5500 C   0  0  0  0  0  0  0  0  0  0  0  0
  -22.4700   -4.2740   21.4130 F   0  0  0  0  0  0  0  0  0  0  0  0
  -21.2100   -3.9060   26.0050 F   0  0  0  0  0  0  0  0  0  0  0  0
  -22.8380  -13.5690   21.1280 C   0  0  0  0  0  0  0  0  0  0  0  0
  -22.1370  -12.8660   22.0090 N   0  0  0  0  0  0  0  0  0  0  0  0
  -22.3840  -14.5970   20.6260 O   0  0  0  0  0  0  0  0  0  0  0  0
  -22.5180  -12.0350   22.4370 H   0  0  0  0  0  0  0  0  0  0  0  0
  -21.2060  -13.1640   22.2620 H   0  0  0  0  0  0  0  0  0  0  0  0
  -25.4330  -15.2520   20.2490 N   0  0  0  0  0  0  0  0  0  0  0  0
  -24.6480  -15.8850   20.3550 H   0  0  0  0  0  0  0  0  0  0  0  0
  -26.2200  -15.6750   19.7760 H   0  0  0  0  0  0  0  0  0  0  0  0
  -27.9800  -24.6920   19.9200 C   0  0  0  0  0  2  0  0  0  0  0  0
  -28.3120  -26.1880   20.1970 O   0  0  0  0  0  0  0  0  0  0  0  0
  -24.6660  -31.8440   23.2340 C   0  0  0  0  0  0  0  0  0  0  0  0
  -27.2610  -27.1790   20.1420 C   0  0  0  0  0  0  0  0  0  0  0  0
  -23.4720  -30.4670   21.5760 C   0  0  0  0  0  3  0  0  0  0  0  0
  -24.9260  -28.9180   20.1340 C   0  0  0  0  0  0  0  0  0  0  0  0
  -26.0270  -30.7400   21.4210 C   0  0  0  0  0  2  0  0  0  0  0  0
  -26.1060  -29.3580   20.7490 C   0  0  0  0  0  0  0  0  0  0  0  0
  -27.2740  -28.5040   20.7380 C   0  0  0  0  0  3  0  0  0  0  0  0
  -26.0520  -26.8450   19.4880 C   0  0  0  0  0  3  0  0  0  0  0  0
  -24.9120  -27.6740   19.4900 C   0  0  0  0  0  3  0  0  0  0  0  0
  -23.6970  -29.8110   20.1890 C   0  0  0  0  0  2  0  0  0  0  0  0
  -24.7420  -31.0380   22.1320 N   0  0  0  0  0  0  0  0  0  0  0  0
  -23.5780  -32.1210   23.7620 O   0  0  0  0  0  0  0  0  0  0  0  0
  -22.7940  -29.4450   22.5230 C   0  0  0  0  0  0  0  0  0  0  0  0
  -21.4650  -29.2810   22.3990 N   0  0  0  0  0  0  0  0  0  0  0  0
  -23.4660  -28.8030   23.3340 O   0  0  0  0  0  0  0  0  0  0  0  0
  -20.9790  -29.8510   21.7200 H   0  0  0  0  0  0  0  0  0  0  0  0
  -18.0770  -28.1010   22.9080 C   0  0  0  0  0  0  0  0  0  0  0  0
  -20.6410  -28.3360   23.1580 C   0  0  0  0  0  3  0  0  0  0  0  0
  -20.7240  -26.9140   22.5550 C   0  0  0  0  0  2  0  0  0  0  0  0
  -19.6100  -26.6210   21.5450 C   0  0  0  0  0  2  0  0  0  0  0  0
  -18.2360  -26.7640   22.2040 C   0  0  0  0  0  2  0  0  0  0  0  0
  -19.2060  -28.8470   23.3430 C   0  0  0  0  0  0  0  0  0  0  0  0
  -19.0010  -30.0970   23.9630 C   0  0  0  0  0  3  0  0  0  0  0  0
  -17.7010  -30.6040   24.1540 C   0  0  0  0  0  3  0  0  0  0  0  0
  -16.5880  -29.8560   23.7330 C   0  0  0  0  0  3  0  0  0  0  0  0
  -16.7770  -28.6060   23.1170 C   0  0  0  0  0  3  0  0  0  0  0  0
  -25.9420  -32.4740   23.8720 C   0  0  0  0  0  3  0  0  0  0  0  0
  -25.6290  -33.8700   24.2110 N   0  0  0  0  0  0  0  0  0  0  0  0
  -25.9410  -34.9310   23.4540 C   0  0  0  0  0  0  0  0  0  0  0  0
  -26.5900  -34.8350   22.4080 O   0  0  0  0  0  0  0  0  0  0  0  0
  -25.0490  -34.0180   25.0240 H   0  0  0  0  0  0  0  0  0  0  0  0
  -24.1860  -36.7120   23.1640 C   0  0  0  0  0  1  0  0  0  0  0  0
  -25.4600  -36.3150   23.9290 C   0  0  0  0  0  3  0  0  0  0  0  0
  -27.6110  -37.2250   24.6860 C   0  0  0  0  0  1  0  0  0  0  0  0
  -26.4790  -37.3770   23.7770 N   0  0  0  0  0  0  0  0  0  0  0  0
  -26.0690  -38.2950   23.9310 H   0  0  0  0  0  0  0  0  0  0  0  0
  -26.4440  -31.6960   25.1500 C   0  0  1  0  0  0  0  0  0  0  0  0
  -25.3410  -31.4590   26.2070 C   0  0  0  0  0  1  0  0  0  0  0  0
  -27.0260  -30.3170   24.7630 C   0  0  0  0  0  1  0  0  0  0  0  0
  -27.5910  -32.4850   25.8250 C   0  0  0  0  0  1  0  0  0  0  0  0
  1  3  2  0
  2  9  1  0
  2  1  1  0
  4  2  1  0
  6  5  2  0
  7  8  2  0
  8  5  1  0
  8 20  1  0
  9  6  1  0
 10  9  2  0
 10  7  1  0
 11 10  1  0
 12 20  1  0
 13 18  1  0
 14 15  1  0
 14 13  1  0
 16 15  1  0
 16 25  1  0
 16 17  1  0
 18 12  1  0
 18 17  1  0
 19 12  2  0
 20 21  1  0
 22 23  2  0
 23 42  1  0
 24 23  1  0
 24 27  1  0
 25 26  1  0
 25 22  1  0
 26 24  2  0
 27 28  1  0
 28 29  2  0
 30 33  1  0
 30 29  1  0
 31 30  2  0
 32 31  1  0
 32 27  2  0
 33 34  1  0
 34 35  1  0
 35 36  2  0
 37 36  1  0
 37 41  1  0
 38 37  2  0
 39 34  2  0
 39 38  1  0
 40 39  1  0
 42 43  1  0
 43 46  1  0
 43 45  1  0
 44 42  2  0
 47 48  1  0
 47 22  1  0
 49 47  1  0
 50 51  1  0
 50  1  1  0
 52 63  2  0
 53 51  1  0
 53 58  1  0
 54 62  1  0
 54 64  1  0
 55 61  1  0
 55 57  1  0
 56 62  1  0
 57 56  1  0
 58 57  2  0
 59 60  1  0
 59 53  2  0
 60 55  2  0
 61 54  1  0
 62 52  1  0
 64 66  2  0
 65 64  1  0
 67 65  1  0
 68 77  2  0
 68 73  1  0
 69 65  1  0
 69 73  1  0
 70 69  1  0
 71 72  1  0
 71 70  1  0
 72 68  1  0
 73 74  2  0
 74 75  1  0
 76 75  2  0
 77 76  1  0
 78 52  1  0
 78 79  1  0
 78 88  1  0
 79 82  1  0
 80 84  1  0
 80 79  1  0
 81 80  2  0
 84 83  1  0
 86 84  1  0
 86 87  1  0
 86 85  1  0
 88 91  1  1
 88 89  1  0
 90 88  1  0
M  ISO  4  12 100  20 100  50 101  51 101
M  END
>  <TORSDO>  (28) 
F 18

>  <SCORE>  (28) 
-14.264

>  <name>  (28) 
27

>  <ligand_id>  (28) 
27

>  <original_smiles>  (28) 
[H]c1c([H])c([H])c2c(c1[H])C([H])([H])C([H])([H])C([H])([H])C2([H])N([H])C(=O)C1([H])N(C(=O)C([H])(N([H])C(=O)C([H])(N([H])C([H])([H])[H])C([H])([H])[H])C(C([H])([H])[H])(C([H])([H])[H])C([H])([H])[H])C([H])([H])c2c([H])c(OC([H])([H])C(=O)N([H])c3c([H])c([H])c(N([H])C(=O)N4C([H])([H])C([H])([H])C([H])([H])C([H])(n5nc(-c6c([H])c([H])c(Oc7c([H])c([H])c(F)c([H])c7F)c([H])c6[H])c(C(=O)N([H])[H])c5N([H])[H])C4([H])[H])c([H])c3F)c([H])c([H])c2C1([H])[H]

>  <smiles>  (28) 
[H]c1c([H])c([H])c2c(c1[H])C([H])([H])C([H])([H])C([H])([H])C2([H])N([H])C(=O)C1([H])N(C(=O)C([H])(N([H])C(=O)C([H])(N([H])C([H])([H])[H])C([H])([H])[H])C(C([H])([H])[H])(C([H])([H])[H])C([H])([H])[H])C([H])([H])c2c([H])c(OC([H])([H])C(=O)N([H])c3c([H])c([H])c(N([H])C(=O)N4C([H])([H])C([H])([H])C([H])([H])C([H])(n5nc(-c6c([H])c([H])c(Oc7c([H])c([H])c(F)c([H])c7F)c([H])c6[H])c(C(=O)N([H])[H])c5N([H])[H])C4([H])[H])c([H])c3F)c([H])c([H])c2C1([H])[H]

$$$$
28:0:0
     RDKit          3D

 92100  0  0  1  0  0  0  0  0999 V2000
  -30.0930  -21.6440   19.8970 C   0  0  0  0  0  2  0  0  0  0  0  0
  -28.7710  -19.4130   20.5200 C   0  0  0  0  0  3  0  0  0  0  0  0
  -28.7470  -17.9920   20.6850 C   0  0  0  0  0  3  0  0  0  0  0  0
  -31.0920  -17.8640   20.1880 C   0  0  0  0  0  3  0  0  0  0  0  0
  -29.9650  -20.0980   20.1810 C   0  0  0  0  0  0  0  0  0  0  0  0
  -29.8980  -17.1700   20.5150 C   0  0  0  0  0  0  0  0  0  0  0  0
  -31.1180  -19.2800   20.0270 C   0  0  0  0  0  0  0  0  0  0  0  0
  -32.2960  -19.8620   19.6960 F   0  0  0  0  0  0  0  0  0  0  0  0
  -30.5860  -14.6620   20.3240 C   0  0  0  0  0  0  0  0  0  0  0  0
  -30.3620  -12.4310   19.2500 C   0  0  0  0  0  2  0  0  0  0  0  0
  -29.4080  -12.5780   18.0450 C   0  0  0  0  0  2  0  0  0  0  0  0
  -27.9400  -12.4120   18.4850 C   0  0  0  0  0  2  0  0  0  0  0  0
  -27.5940  -13.2600   19.7380 C   0  0  0  0  0  3  0  0  0  0  0  0
  -28.6620  -13.0970   20.8420 C   0  0  0  0  0  2  0  0  0  0  0  0
  -29.9680  -13.4400   20.2530 N   0  0  0  0  0  0  0  0  0  0  0  0
  -31.7480  -14.8110   19.9310 O   0  0  0  0  0  0  0  0  0  0  0  0
  -29.7820  -15.7150   20.6820 N   0  0  0  0  0  0  0  0  0  0  0  0
  -28.8750  -15.4090   20.9980 H   0  0  0  0  0  0  0  0  0  0  0  0
  -25.2070  -13.8530   20.4820 C   0  0  0  0  0  0  0  0  0  0  0  0
  -24.1460  -13.0790   20.8630 C   0  0  0  0  0  0  0  0  0  0  0  0
  -24.6100  -11.7280   20.8260 C   0  0  0  0  0  0  0  0  0  0  0  0
  -26.2500  -12.9750   20.2340 N   0  0  0  0  0  0  0  0  0  0  0  0
  -25.8980  -11.6910   20.5020 N   0  0  0  0  0  0  0  0  0  0  0  0
  -23.8880  -10.4630   21.0240 C   0  0  0  0  0  0  0  0  0  0  0  0
  -24.3300   -9.4960   21.9530 C   0  0  0  0  0  3  0  0  0  0  0  0
  -23.6090   -8.2980   22.1370 C   0  0  0  0  0  3  0  0  0  0  0  0
  -22.4320   -8.0550   21.3890 C   0  0  0  0  0  0  0  0  0  0  0  0
  -22.0100   -9.0100   20.4490 C   0  0  0  0  0  3  0  0  0  0  0  0
  -22.7310  -10.2020   20.2630 C   0  0  0  0  0  3  0  0  0  0  0  0
  -21.6820   -6.9080   21.4840 O   0  0  0  0  0  0  0  0  0  0  0  0
  -21.6410   -6.1680   22.6380 C   0  0  0  0  0  0  0  0  0  0  0  0
  -21.2130   -6.7220   23.8640 C   0  0  0  0  0  3  0  0  0  0  0  0
  -21.1180   -5.9070   25.0110 C   0  0  0  0  0  3  0  0  0  0  0  0
  -21.4410   -4.5390   24.9320 C   0  0  0  0  0  0  0  0  0  0  0  0
  -21.8610   -3.9850   23.7110 C   0  0  0  0  0  3  0  0  0  0  0  0
  -21.9590   -4.7950   22.5670 C   0  0  0  0  0  0  0  0  0  0  0  0
  -22.3450   -4.2520   21.3870 F   0  0  0  0  0  0  0  0  0  0  0  0
  -21.3430   -3.7540   26.0300 F   0  0  0  0  0  0  0  0  0  0  0  0
  -22.7510  -13.5540   21.1490 C   0  0  0  0  0  0  0  0  0  0  0  0
  -22.0300  -12.8550   22.0200 N   0  0  0  0  0  0  0  0  0  0  0  0
  -22.3070  -14.5800   20.6360 O   0  0  0  0  0  0  0  0  0  0  0  0
  -22.4000  -12.0260   22.4610 H   0  0  0  0  0  0  0  0  0  0  0  0
  -21.0930  -13.1560   22.2510 H   0  0  0  0  0  0  0  0  0  0  0  0
  -25.3650  -15.2240   20.3030 N   0  0  0  0  0  0  0  0  0  0  0  0
  -24.5860  -15.8650   20.4010 H   0  0  0  0  0  0  0  0  0  0  0  0
  -26.1890  -15.6620   19.9120 H   0  0  0  0  0  0  0  0  0  0  0  0
  -29.2420  -24.0320   20.1650 C   0  0  0  0  0  0  0  0  0  0  0  0
  -29.0660  -22.6720   20.2810 N   0  0  0  0  0  0  0  0  0  0  0  0
  -30.3360  -24.4960   19.8360 O   0  0  0  0  0  0  0  0  0  0  0  0
  -28.1540  -22.3390   20.5650 H   0  0  0  0  0  0  0  0  0  0  0  0
  -28.0440  -25.0250   20.4090 C   0  0  0  0  0  2  0  0  0  0  0  0
  -28.3200  -26.4710   20.1830 O   0  0  0  0  0  0  0  0  0  0  0  0
  -24.6270  -31.8890   23.2370 C   0  0  0  0  0  0  0  0  0  0  0  0
  -27.2090  -27.3320   20.1550 C   0  0  0  0  0  0  0  0  0  0  0  0
  -23.4130  -30.5000   21.5980 C   0  0  0  0  0  3  0  0  0  0  0  0
  -24.8520  -28.9530   20.1610 C   0  0  0  0  0  0  0  0  0  0  0  0
  -25.9520  -30.8080   21.4090 C   0  0  0  0  0  2  0  0  0  0  0  0
  -26.0240  -29.4310   20.7610 C   0  0  0  0  0  0  0  0  0  0  0  0
  -27.2060  -28.6300   20.7540 C   0  0  0  0  0  3  0  0  0  0  0  0
  -26.0190  -26.9210   19.5130 C   0  0  0  0  0  3  0  0  0  0  0  0
  -24.8510  -27.7040   19.5280 C   0  0  0  0  0  3  0  0  0  0  0  0
  -23.6210  -29.8320   20.2130 C   0  0  0  0  0  2  0  0  0  0  0  0
  -24.6830  -31.0830   22.1370 N   0  0  0  0  0  0  0  0  0  0  0  0
  -23.5460  -32.1690   23.7750 O   0  0  0  0  0  0  0  0  0  0  0  0
  -22.7520  -29.4800   22.5550 C   0  0  0  0  0  0  0  0  0  0  0  0
  -21.4240  -29.3070   22.4320 N   0  0  0  0  0  0  0  0  0  0  0  0
  -23.4300  -28.8480   23.3690 O   0  0  0  0  0  0  0  0  0  0  0  0
  -20.9350  -29.8680   21.7480 H   0  0  0  0  0  0  0  0  0  0  0  0
  -18.0440  -28.1240   22.9410 C   0  0  0  0  0  0  0  0  0  0  0  0
  -20.6050  -28.3710   23.2050 C   0  0  0  0  0  3  0  0  0  0  0  0
  -20.6990  -26.9410   22.6270 C   0  0  0  0  0  2  0  0  0  0  0  0
  -19.5930  -26.6240   21.6160 C   0  0  0  0  0  2  0  0  0  0  0  0
  -18.2130  -26.7740   22.2650 C   0  0  0  0  0  2  0  0  0  0  0  0
  -19.1670  -28.8810   23.3690 C   0  0  0  0  0  0  0  0  0  0  0  0
  -18.9550  -30.1440   23.9640 C   0  0  0  0  0  3  0  0  0  0  0  0
  -17.6520  -30.6490   24.1350 C   0  0  0  0  0  3  0  0  0  0  0  0
  -16.5440  -29.8900   23.7200 C   0  0  0  0  0  3  0  0  0  0  0  0
  -16.7410  -28.6290   23.1290 C   0  0  0  0  0  3  0  0  0  0  0  0
  -25.9150  -32.5150   23.8550 C   0  0  0  0  0  3  0  0  0  0  0  0
  -26.4350  -31.7360   25.1250 C   0  0  1  0  0  0  0  0  0  0  0  0
  -25.3470  -31.4960   26.1970 C   0  0  0  0  0  1  0  0  0  0  0  0
  -27.0120  -30.3580   24.7240 C   0  0  0  0  0  1  0  0  0  0  0  0
  -27.5920  -32.5220   25.7850 C   0  0  0  0  0  1  0  0  0  0  0  0
  -25.6090  -33.9120   24.1950 N   0  0  0  0  0  0  0  0  0  0  0  0
  -25.9300  -34.9670   23.4340 C   0  0  0  0  0  0  0  0  0  0  0  0
  -26.5850  -34.8670   22.3930 O   0  0  0  0  0  0  0  0  0  0  0  0
  -25.0290  -34.0640   25.0070 H   0  0  0  0  0  0  0  0  0  0  0  0
  -24.1970  -36.7600   23.1090 C   0  0  0  0  0  1  0  0  0  0  0  0
  -25.4500  -36.3550   23.9020 C   0  0  0  0  0  3  0  0  0  0  0  0
  -27.5960  -37.2380   24.7040 C   0  0  0  0  0  1  0  0  0  0  0  0
  -26.4800  -37.4070   23.7760 N   0  0  0  0  0  0  0  0  0  0  0  0
  -26.0760  -38.3270   23.9320 H   0  0  0  0  0  0  0  0  0  0  0  0
  1  5  1  0
  1 48  1  0
  2  3  1  0
  4  6  1  0
  5  2  2  0
  6 17  1  0
  6  3  2  0
  7  5  1  0
  7  4  2  0
  8  7  1  0
  9 17  1  0
 10 15  1  0
 11 12  1  0
 11 10  1  0
 13 12  1  0
 13 22  1  0
 13 14  1  0
 15  9  1  0
 15 14  1  0
 16  9  2  0
 17 18  1  0
 19 20  2  0
 20 39  1  0
 21 20  1  0
 21 24  1  0
 22 19  1  0
 22 23  1  0
 23 21  2  0
 24 25  1  0
 25 26  2  0
 27 30  1  0
 27 26  1  0
 28 27  2  0
 29 28  1  0
 29 24  2  0
 30 31  1  0
 31 32  1  0
 32 33  2  0
 34 33  1  0
 34 38  1  0
 35 34  2  0
 36 31  2  0
 36 35  1  0
 37 36  1  0
 39 40  1  0
 40 43  1  0
 40 42  1  0
 41 39  2  0
 44 45  1  0
 44 19  1  0
 46 44  1  0
 47 48  1  0
 47 51  1  0
 48 50  1  0
 49 47  2  0
 52 51  1  0
 53 64  2  0
 54 52  1  0
 54 59  1  0
 55 63  1  0
 55 65  1  0
 56 62  1  0
 56 58  1  0
 57 63  1  0
 58 57  1  0
 59 58  2  0
 60 61  1  0
 60 54  2  0
 61 56  2  0
 62 55  1  0
 63 53  1  0
 65 67  2  0
 66 65  1  0
 68 66  1  0
 69 78  2  0
 69 74  1  0
 70 66  1  0
 70 74  1  0
 71 70  1  0
 72 73  1  0
 72 71  1  0
 73 69  1  0
 74 75  2  0
 75 76  1  0
 77 76  2  0
 78 77  1  0
 79 53  1  0
 79 84  1  0
 79 80  1  0
 80 83  1  1
 80 81  1  0
 82 80  1  0
 84 87  1  0
 85 89  1  0
 85 84  1  0
 86 85  2  0
 89 88  1  0
 91 89  1  0
 91 92  1  0
 91 90  1  0
M  ISO  4   9 100  17 100  51 101  52 101
M  END
>  <TORSDO>  (29) 
F 19

>  <SCORE>  (29) 
-14.298

>  <name>  (29) 
28

>  <ligand_id>  (29) 
28

>  <original_smiles>  (29) 
[H]c1c([H])c([H])c2c(c1[H])C([H])([H])C([H])([H])C([H])([H])C2([H])N([H])C(=O)C1([H])N(C(=O)C([H])(N([H])C(=O)C([H])(N([H])C([H])([H])[H])C([H])([H])[H])C(C([H])([H])[H])(C([H])([H])[H])C([H])([H])[H])C([H])([H])c2c([H])c(OC([H])([H])C(=O)N([H])C([H])([H])c3c([H])c([H])c(N([H])C(=O)N4C([H])([H])C([H])([H])C([H])([H])C([H])(n5nc(-c6c([H])c([H])c(Oc7c([H])c([H])c(F)c([H])c7F)c([H])c6[H])c(C(=O)N([H])[H])c5N([H])[H])C4([H])[H])c([H])c3F)c([H])c([H])c2C1([H])[H]

>  <smiles>  (29) 
[H]c1c([H])c([H])c2c(c1[H])C([H])([H])C([H])([H])C([H])([H])C2([H])N([H])C(=O)C1([H])N(C(=O)C([H])(N([H])C(=O)C([H])(N([H])C([H])([H])[H])C([H])([H])[H])C(C([H])([H])[H])(C([H])([H])[H])C([H])([H])[H])C([H])([H])c2c([H])c(OC([H])([H])C(=O)N([H])C([H])([H])c3c([H])c([H])c(N([H])C(=O)N4C([H])([H])C([H])([H])C([H])([H])C([H])(n5nc(-c6c([H])c([H])c(Oc7c([H])c([H])c(F)c([H])c7F)c([H])c6[H])c(C(=O)N([H])[H])c5N([H])[H])C4([H])[H])c([H])c3F)c([H])c([H])c2C1([H])[H]

$$$$
29:0:0
     RDKit          3D

107116  0  0  1  0  0  0  0  0999 V2000
  -32.8470  -24.8990   19.7900 C   0  0  0  0  0  0  0  0  0  0  0  0
  -33.7080  -28.2170   20.0820 C   0  0  0  0  0  2  0  0  0  0  0  0
  -34.9110  -27.0040   21.9580 C   0  0  0  0  0  2  0  0  0  0  0  0
  -34.1110  -26.9640   19.2740 C   0  0  0  0  0  2  0  0  0  0  0  0
  -34.8190  -25.6540   21.1900 C   0  0  0  0  0  2  0  0  0  0  0  0
  -33.7780  -28.0090   21.6210 C   0  0  0  0  0  3  0  0  0  0  0  0
  -33.8760  -25.7440   20.0590 N   0  0  0  0  0  0  0  0  0  0  0  0
  -32.0270  -25.1630   18.9070 O   0  0  0  0  0  0  0  0  0  0  0  0
  -32.4820  -27.5570   22.1930 N   0  0  0  0  0  4  0  0  0  0  0  0
  -32.6120  -27.4220   23.1840 H   0  0  0  0  0  0  0  0  0  0  0  0
  -32.2340  -26.6670   21.8010 H   0  0  0  0  0  0  0  0  0  0  0  0
  -31.3300  -28.4770   22.0390 C   0  0  0  0  0  2  0  0  0  0  0  0
  -30.0080  -27.7290   21.7490 C   0  0  0  0  0  2  0  0  0  0  0  0
  -29.7760  -27.4140   20.2510 C   0  0  0  0  0  2  0  0  0  0  0  0
  -28.5170  -26.7760   20.0030 O   0  0  0  0  0  0  0  0  0  0  0  0
  -24.6760  -31.7260   23.3900 C   0  0  0  0  0  0  0  0  0  0  0  0
  -27.3610  -27.5270   20.0760 C   0  0  0  0  0  0  0  0  0  0  0  0
  -23.4630  -30.4070   21.6790 C   0  0  0  0  0  3  0  0  0  0  0  0
  -24.9190  -28.9570   20.1680 C   0  0  0  0  0  0  0  0  0  0  0  0
  -25.9720  -30.8200   21.4710 C   0  0  0  0  0  2  0  0  0  0  0  0
  -26.0660  -29.4850   20.7680 C   0  0  0  0  0  0  0  0  0  0  0  0
  -27.2830  -28.7850   20.7170 C   0  0  0  0  0  3  0  0  0  0  0  0
  -26.1950  -27.0020   19.4760 C   0  0  0  0  0  3  0  0  0  0  0  0
  -24.9750  -27.7100   19.5150 C   0  0  0  0  0  3  0  0  0  0  0  0
  -23.6630  -29.7900   20.2650 C   0  0  0  0  0  2  0  0  0  0  0  0
  -24.7220  -30.9940   22.2410 N   0  0  0  0  0  0  0  0  0  0  0  0
  -23.5990  -31.9600   23.9540 O   0  0  0  0  0  0  0  0  0  0  0  0
  -22.8260  -29.3350   22.5910 C   0  0  0  0  0  0  0  0  0  0  0  0
  -21.5290  -29.0660   22.3780 N   0  0  0  0  0  0  0  0  0  0  0  0
  -23.5010  -28.7470   23.4400 O   0  0  0  0  0  0  0  0  0  0  0  0
  -21.0470  -29.5940   21.6630 H   0  0  0  0  0  0  0  0  0  0  0  0
  -18.2700  -27.5200   22.5220 C   0  0  0  0  0  0  0  0  0  0  0  0
  -20.7300  -28.0700   23.0890 C   0  0  0  0  0  3  0  0  0  0  0  0
  -21.0590  -26.6430   22.5930 C   0  0  0  0  0  2  0  0  0  0  0  0
  -20.1320  -26.1670   21.4690 C   0  0  0  0  0  2  0  0  0  0  0  0
  -18.6730  -26.1790   21.9350 C   0  0  0  0  0  2  0  0  0  0  0  0
  -19.2380  -28.4150   23.0500 C   0  0  0  0  0  0  0  0  0  0  0  0
  -18.8140  -29.6630   23.5530 C   0  0  0  0  0  3  0  0  0  0  0  0
  -17.4530  -30.0210   23.5370 C   0  0  0  0  0  3  0  0  0  0  0  0
  -16.4970  -29.1270   23.0270 C   0  0  0  0  0  3  0  0  0  0  0  0
  -16.9050  -27.8790   22.5250 C   0  0  0  0  0  3  0  0  0  0  0  0
  -25.9650  -32.3270   24.0330 C   0  0  0  0  0  3  0  0  0  0  0  0
  -25.6860  -33.7370   24.3400 N   0  0  0  0  0  0  0  0  0  0  0  0
  -26.0920  -34.7710   23.5900 C   0  0  0  0  0  0  0  0  0  0  0  0
  -26.8090  -34.6370   22.5940 O   0  0  0  0  0  0  0  0  0  0  0  0
  -25.0560  -33.9150   25.1080 H   0  0  0  0  0  0  0  0  0  0  0  0
  -24.4490  -36.6240   23.1350 C   0  0  0  0  0  1  0  0  0  0  0  0
  -25.6300  -36.1790   24.0120 C   0  0  0  0  0  3  0  0  0  0  0  0
  -27.7480  -36.9960   24.9520 C   0  0  0  0  0  1  0  0  0  0  0  0
  -26.7040  -37.1930   23.9490 N   0  0  0  0  0  0  0  0  0  0  0  0
  -26.3240  -38.1270   24.0680 H   0  0  0  0  0  0  0  0  0  0  0  0
  -26.4390  -31.5560   25.3260 C   0  0  1  0  0  0  0  0  0  0  0  0
  -25.3240  -31.3680   26.3800 C   0  0  0  0  0  1  0  0  0  0  0  0
  -26.9840  -30.1560   24.9560 C   0  0  0  0  0  1  0  0  0  0  0  0
  -27.6080  -32.3200   25.9940 C   0  0  0  0  0  1  0  0  0  0  0  0
  -32.6690  -23.6080   20.6230 C   0  0  0  0  0  2  0  0  0  0  0  0
  -31.2450  -22.0750   19.2510 C   0  0  0  0  0  0  0  0  0  0  0  0
  -31.4480  -22.8570   20.3190 N   0  0  0  0  0  0  0  0  0  0  0  0
  -32.1190  -21.9180   18.3940 O   0  0  0  0  0  0  0  0  0  0  0  0
  -30.6820  -22.9360   20.9720 H   0  0  0  0  0  0  0  0  0  0  0  0
  -29.4320  -21.2970   17.6640 C   0  0  0  0  0  1  0  0  0  0  0  0
  -28.7890  -22.1280   19.9210 C   0  0  0  0  0  1  0  0  0  0  0  0
  -29.8750  -21.3390   19.1430 C   0  0  2  0  0  0  0  0  0  0  0  0
  -31.1430  -19.1140   19.2360 C   0  0  0  0  0  3  0  0  0  0  0  0
  -29.0660  -19.2620   20.4760 C   0  0  0  0  0  3  0  0  0  0  0  0
  -31.2980  -17.7790   19.6420 C   0  0  0  0  0  3  0  0  0  0  0  0
  -29.2100  -17.9150   20.8710 C   0  0  0  0  0  3  0  0  0  0  0  0
  -30.0310  -19.8860   19.6460 C   0  0  0  0  0  0  0  0  0  0  0  0
  -30.3180  -17.1540   20.4490 C   0  0  0  0  0  0  0  0  0  0  0  0
  -31.0350  -14.7920   20.2230 C   0  0  0  0  0  0  0  0  0  0  0  0
  -30.7350  -12.6120   19.1370 C   0  0  0  0  0  2  0  0  0  0  0  0
  -29.7690  -12.7940   17.9480 C   0  0  0  0  0  2  0  0  0  0  0  0
  -28.3050  -12.6500   18.4080 C   0  0  0  0  0  2  0  0  0  0  0  0
  -27.9810  -13.5070   19.6620 C   0  0  0  0  0  3  0  0  0  0  0  0
  -29.0600  -13.3160   20.7520 C   0  0  0  0  0  2  0  0  0  0  0  0
  -30.3760  -13.6080   20.1560 N   0  0  0  0  0  0  0  0  0  0  0  0
  -32.1390  -14.9680   19.6990 O   0  0  0  0  0  0  0  0  0  0  0  0
  -30.3580  -15.7810   20.8270 N   0  0  0  0  0  0  0  0  0  0  0  0
  -29.5570  -15.4590   21.3480 H   0  0  0  0  0  0  0  0  0  0  0  0
  -25.6060  -14.0930   20.4690 C   0  0  0  0  0  0  0  0  0  0  0  0
  -24.5500  -13.3080   20.8490 C   0  0  0  0  0  0  0  0  0  0  0  0
  -25.0080  -11.9590   20.7570 C   0  0  0  0  0  0  0  0  0  0  0  0
  -26.6420  -13.2190   20.1740 N   0  0  0  0  0  0  0  0  0  0  0  0
  -26.2850  -11.9300   20.4030 N   0  0  0  0  0  0  0  0  0  0  0  0
  -24.2880  -10.6900   20.9330 C   0  0  0  0  0  0  0  0  0  0  0  0
  -24.6730   -9.7510   21.9140 C   0  0  0  0  0  3  0  0  0  0  0  0
  -23.9550   -8.5460   22.0750 C   0  0  0  0  0  3  0  0  0  0  0  0
  -22.8370   -8.2720   21.2530 C   0  0  0  0  0  0  0  0  0  0  0  0
  -22.4710   -9.1990   20.2610 C   0  0  0  0  0  3  0  0  0  0  0  0
  -23.1900  -10.3960   20.1000 C   0  0  0  0  0  3  0  0  0  0  0  0
  -22.0950   -7.1180   21.3190 O   0  0  0  0  0  0  0  0  0  0  0  0
  -21.8380   -6.4960   22.5150 C   0  0  0  0  0  0  0  0  0  0  0  0
  -21.1370   -7.1420   23.5560 C   0  0  0  0  0  3  0  0  0  0  0  0
  -20.8340   -6.4420   24.7400 C   0  0  0  0  0  3  0  0  0  0  0  0
  -21.2210   -5.0960   24.8830 C   0  0  0  0  0  0  0  0  0  0  0  0
  -21.9140   -4.4490   23.8450 C   0  0  0  0  0  3  0  0  0  0  0  0
  -22.2190   -5.1460   22.6630 C   0  0  0  0  0  0  0  0  0  0  0  0
  -22.8680   -4.5120   21.6580 F   0  0  0  0  0  0  0  0  0  0  0  0
  -20.9230   -4.4200   26.0170 F   0  0  0  0  0  0  0  0  0  0  0  0
  -23.1630  -13.7760   21.1870 C   0  0  0  0  0  0  0  0  0  0  0  0
  -22.4700  -13.0590   22.0640 N   0  0  0  0  0  0  0  0  0  0  0  0
  -22.7030  -14.8110   20.7070 O   0  0  0  0  0  0  0  0  0  0  0  0
  -22.8540  -12.2210   22.4760 H   0  0  0  0  0  0  0  0  0  0  0  0
  -21.5410  -13.3530   22.3300 H   0  0  0  0  0  0  0  0  0  0  0  0
  -25.7650  -15.4680   20.3340 N   0  0  0  0  0  0  0  0  0  0  0  0
  -25.0030  -16.1190   20.4920 H   0  0  0  0  0  0  0  0  0  0  0  0
  -26.6070  -15.9190   19.9940 H   0  0  0  0  0  0  0  0  0  0  0  0
  1  7  1  0
  1 56  1  0
  2  6  1  0
  4  7  1  0
  4  2  1  0
  5  3  1  0
  6  3  1  0
  6  9  1  0
  7  5  1  0
  8  1  2  0
  9 10  1  0
 11  9  1  0
 12  9  1  0
 13 12  1  0
 14 13  1  0
 15 17  1  0
 15 14  1  0
 16 27  2  0
 17 22  1  0
 18 26  1  0
 18 28  1  0
 19 25  1  0
 19 21  1  0
 20 26  1  0
 21 20  1  0
 22 21  2  0
 23 24  1  0
 23 17  2  0
 24 19  2  0
 25 18  1  0
 26 16  1  0
 28 30  2  0
 29 28  1  0
 31 29  1  0
 32 41  2  0
 32 37  1  0
 33 29  1  0
 34 33  1  0
 35 36  1  0
 35 34  1  0
 36 32  1  0
 37 33  1  0
 37 38  2  0
 39 38  1  0
 40 39  2  0
 41 40  1  0
 42 16  1  0
 42 43  1  0
 42 52  1  0
 43 46  1  0
 44 48  1  0
 44 43  1  0
 45 44  2  0
 48 47  1  0
 50 48  1  0
 50 51  1  0
 50 49  1  0
 52 55  1  1
 52 53  1  0
 54 52  1  0
 57 58  1  0
 58 56  1  0
 58 60  1  0
 59 57  2  0
 63 61  1  6
 63 57  1  0
 63 68  1  0
 63 62  1  0
 64 66  2  0
 64 68  1  0
 65 67  1  0
 66 69  1  0
 68 65  2  0
 69 78  1  0
 69 67  2  0
 70 78  1  0
 71 76  1  0
 72 73  1  0
 72 71  1  0
 74 73  1  0
 74 83  1  0
 74 75  1  0
 76 70  1  0
 76 75  1  0
 77 70  2  0
 78 79  1  0
 80 81  2  0
 81100  1  0
 82 81  1  0
 82 85  1  0
 83 84  1  0
 83 80  1  0
 84 82  2  0
 85 86  1  0
 86 87  2  0
 88 91  1  0
 88 87  1  0
 89 88  2  0
 90 89  1  0
 90 85  2  0
 91 92  1  0
 92 97  2  0
 92 93  1  0
 93 94  2  0
 94 95  1  0
 95 99  1  0
 96 95  2  0
 97 96  1  0
 98 97  1  0
100101  1  0
101104  1  0
101103  1  0
102100  2  0
105 80  1  0
105106  1  0
107105  1  0
M  ISO  4  14 101  15 101  70 100  78 100
M  END
>  <TORSDO>  (30) 
F 24

>  <SCORE>  (30) 
-11.732

>  <name>  (30) 
29

>  <ligand_id>  (30) 
29

>  <original_smiles>  (30) 
[H]c1c([H])c([H])c2c(c1[H])C([H])([H])C([H])([H])C([H])([H])C2([H])N([H])C(=O)C1([H])N(C(=O)C([H])(N([H])C(=O)C([H])(N([H])C([H])([H])[H])C([H])([H])[H])C(C([H])([H])[H])(C([H])([H])[H])C([H])([H])[H])C([H])([H])c2c([H])c(OC([H])([H])C([H])([H])C([H])([H])[N+]([H])([H])C3([H])C([H])([H])C([H])([H])N(C(=O)C([H])([H])N([H])C(=O)C(c4c([H])c([H])c(N([H])C(=O)N5C([H])([H])C([H])([H])C([H])([H])C([H])(n6nc(-c7c([H])c([H])c(Oc8c([H])c([H])c(F)c([H])c8F)c([H])c7[H])c(C(=O)N([H])[H])c6N([H])[H])C5([H])[H])c([H])c4[H])(C([H])([H])[H])C([H])([H])[H])C([H])([H])C3([H])[H])c([H])c([H])c2C1([H])[H]

>  <smiles>  (30) 
[H]c1c([H])c([H])c2c(c1[H])C([H])([H])C([H])([H])C([H])([H])C2([H])N([H])C(=O)C1([H])N(C(=O)C([H])(N([H])C(=O)C([H])(N([H])C([H])([H])[H])C([H])([H])[H])C(C([H])([H])[H])(C([H])([H])[H])C([H])([H])[H])C([H])([H])c2c([H])c(OC([H])([H])C([H])([H])C([H])([H])[N+]([H])([H])C3([H])C([H])([H])C([H])([H])N(C(=O)C([H])([H])N([H])C(=O)C(c4c([H])c([H])c(N([H])C(=O)N5C([H])([H])C([H])([H])C([H])([H])C([H])(n6nc(-c7c([H])c([H])c(Oc8c([H])c([H])c(F)c([H])c8F)c([H])c7[H])c(C(=O)N([H])[H])c6N([H])[H])C5([H])[H])c([H])c4[H])(C([H])([H])[H])C([H])([H])[H])C([H])([H])C3([H])[H])c([H])c([H])c2C1([H])[H]

$$$$
30:0:0
     RDKit          3D

 90 98  0  0  1  0  0  0  0  0999 V2000
  -30.2750  -20.0150   20.2240 C   0  0  0  0  0  3  0  0  0  0  0  0
  -30.5710  -18.5780   20.2840 C   0  0  0  0  0  3  0  0  0  0  0  0
  -27.9700  -19.5290   20.2620 C   0  0  0  0  0  3  0  0  0  0  0  0
  -28.9440  -20.5740   20.2040 C   0  0  0  0  0  0  0  0  0  0  0  0
  -29.5610  -17.5490   20.3430 C   0  0  0  0  0  0  0  0  0  0  0  0
  -28.2540  -18.1190   20.3340 C   0  0  0  0  0  0  0  0  0  0  0  0
  -27.2090  -17.2630   20.3940 F   0  0  0  0  0  0  0  0  0  0  0  0
  -30.4920  -14.9410   20.1740 C   0  0  0  0  0  0  0  0  0  0  0  0
  -30.3640  -12.6120   19.1930 C   0  0  0  0  0  2  0  0  0  0  0  0
  -29.3880  -12.6180   17.9920 C   0  0  0  0  0  2  0  0  0  0  0  0
  -27.9320  -12.4180   18.4580 C   0  0  0  0  0  2  0  0  0  0  0  0
  -27.5700  -13.3150   19.6720 C   0  0  0  0  0  3  0  0  0  0  0  0
  -28.6590  -13.2600   20.7660 C   0  0  0  0  0  2  0  0  0  0  0  0
  -29.9270  -13.6720   20.1410 N   0  0  0  0  0  0  0  0  0  0  0  0
  -31.6690  -15.0730   19.8200 O   0  0  0  0  0  0  0  0  0  0  0  0
  -29.6370  -16.0270   20.4440 N   0  0  0  0  0  0  0  0  0  0  0  0
  -28.7310  -15.6640   20.7020 H   0  0  0  0  0  0  0  0  0  0  0  0
  -25.2030  -13.8930   20.4700 C   0  0  0  0  0  0  0  0  0  0  0  0
  -24.1460  -13.1190   20.8560 C   0  0  0  0  0  0  0  0  0  0  0  0
  -24.6050  -11.7680   20.7950 C   0  0  0  0  0  0  0  0  0  0  0  0
  -26.2410  -13.0170   20.1970 N   0  0  0  0  0  0  0  0  0  0  0  0
  -25.8880  -11.7310   20.4550 N   0  0  0  0  0  0  0  0  0  0  0  0
  -23.8760  -10.5080   20.9870 C   0  0  0  0  0  0  0  0  0  0  0  0
  -24.3120   -9.5360   21.9130 C   0  0  0  0  0  3  0  0  0  0  0  0
  -23.5810   -8.3410   22.0940 C   0  0  0  0  0  3  0  0  0  0  0  0
  -22.4020   -8.1100   21.3460 C   0  0  0  0  0  0  0  0  0  0  0  0
  -21.9860   -9.0720   20.4080 C   0  0  0  0  0  3  0  0  0  0  0  0
  -22.7160  -10.2580   20.2270 C   0  0  0  0  0  3  0  0  0  0  0  0
  -21.6440   -6.9690   21.4340 O   0  0  0  0  0  0  0  0  0  0  0  0
  -21.5770   -6.2370   22.5940 C   0  0  0  0  0  0  0  0  0  0  0  0
  -21.1160   -6.8010   23.8040 C   0  0  0  0  0  3  0  0  0  0  0  0
  -20.9980   -5.9960   24.9550 C   0  0  0  0  0  3  0  0  0  0  0  0
  -21.3280   -4.6290   24.8960 C   0  0  0  0  0  0  0  0  0  0  0  0
  -21.7820   -4.0650   23.6910 C   0  0  0  0  0  3  0  0  0  0  0  0
  -21.9030   -4.8670   22.5420 C   0  0  0  0  0  0  0  0  0  0  0  0
  -22.3200   -4.3150   21.3770 F   0  0  0  0  0  0  0  0  0  0  0  0
  -21.2070   -3.8540   25.9990 F   0  0  0  0  0  0  0  0  0  0  0  0
  -22.7590  -13.6000   21.1710 C   0  0  0  0  0  0  0  0  0  0  0  0
  -22.0500  -12.8970   22.0470 N   0  0  0  0  0  0  0  0  0  0  0  0
  -22.3140  -14.6360   20.6780 O   0  0  0  0  0  0  0  0  0  0  0  0
  -22.4230  -12.0590   22.4690 H   0  0  0  0  0  0  0  0  0  0  0  0
  -21.1220  -13.2020   22.3020 H   0  0  0  0  0  0  0  0  0  0  0  0
  -25.3530  -15.2660   20.3130 N   0  0  0  0  0  0  0  0  0  0  0  0
  -24.5870  -15.9030   20.4960 H   0  0  0  0  0  0  0  0  0  0  0  0
  -26.2140  -15.7570   20.1010 H   0  0  0  0  0  0  0  0  0  0  0  0
  -28.4640  -21.9780   20.1040 N   0  0  0  0  0  0  0  0  0  0  0  0
  -27.4500  -22.0160   20.0170 H   0  0  0  0  0  0  0  0  0  0  0  0
  -29.0270  -23.4180   20.2280 C   0  0  0  0  0  3  0  0  0  0  0  0
  -28.0040  -24.7310   19.9850 C   0  0  0  0  0  3  0  0  0  0  0  0
  -28.2780  -26.2440   20.1780 O   0  0  0  0  0  0  0  0  0  0  0  0
  -24.6370  -31.8590   23.2350 C   0  0  0  0  0  0  0  0  0  0  0  0
  -27.2080  -27.2060   20.1310 C   0  0  0  0  0  0  0  0  0  0  0  0
  -23.4270  -30.4820   21.5860 C   0  0  0  0  0  3  0  0  0  0  0  0
  -24.8690  -28.9290   20.1360 C   0  0  0  0  0  0  0  0  0  0  0  0
  -25.9790  -30.7590   21.4070 C   0  0  0  0  0  2  0  0  0  0  0  0
  -26.0510  -29.3770   20.7400 C   0  0  0  0  0  0  0  0  0  0  0  0
  -27.2220  -28.5310   20.7200 C   0  0  0  0  0  3  0  0  0  0  0  0
  -25.9950  -26.8540   19.4940 C   0  0  0  0  0  3  0  0  0  0  0  0
  -24.8530  -27.6810   19.4990 C   0  0  0  0  0  3  0  0  0  0  0  0
  -23.6400  -29.8220   20.1980 C   0  0  0  0  0  2  0  0  0  0  0  0
  -24.7020  -31.0540   22.1310 N   0  0  0  0  0  0  0  0  0  0  0  0
  -23.5540  -32.1370   23.7720 O   0  0  0  0  0  0  0  0  0  0  0  0
  -22.7560  -29.4630   22.5400 C   0  0  0  0  0  0  0  0  0  0  0  0
  -21.4270  -29.2920   22.4160 N   0  0  0  0  0  0  0  0  0  0  0  0
  -23.4320  -28.8280   23.3540 O   0  0  0  0  0  0  0  0  0  0  0  0
  -20.9390  -29.8560   21.7350 H   0  0  0  0  0  0  0  0  0  0  0  0
  -18.0480  -28.0910   22.9240 C   0  0  0  0  0  0  0  0  0  0  0  0
  -20.6080  -28.3480   23.1810 C   0  0  0  0  0  3  0  0  0  0  0  0
  -20.7060  -26.9210   22.5900 C   0  0  0  0  0  2  0  0  0  0  0  0
  -19.5980  -26.6110   21.5780 C   0  0  0  0  0  2  0  0  0  0  0  0
  -18.2190  -26.7490   22.2320 C   0  0  0  0  0  2  0  0  0  0  0  0
  -19.1690  -28.8480   23.3560 C   0  0  0  0  0  0  0  0  0  0  0  0
  -18.9540  -30.1030   23.9660 C   0  0  0  0  0  3  0  0  0  0  0  0
  -17.6490  -30.6010   24.1460 C   0  0  0  0  0  3  0  0  0  0  0  0
  -16.5430  -29.8410   23.7290 C   0  0  0  0  0  3  0  0  0  0  0  0
  -16.7430  -28.5880   23.1250 C   0  0  0  0  0  3  0  0  0  0  0  0
  -25.9190  -32.4870   23.8610 C   0  0  0  0  0  3  0  0  0  0  0  0
  -26.4350  -31.7040   25.1320 C   0  0  1  0  0  0  0  0  0  0  0  0
  -25.3420  -31.4590   26.1980 C   0  0  0  0  0  1  0  0  0  0  0  0
  -27.0160  -30.3280   24.7310 C   0  0  0  0  0  1  0  0  0  0  0  0
  -27.5870  -32.4910   25.7990 C   0  0  0  0  0  1  0  0  0  0  0  0
  -25.6090  -33.8820   24.2110 N   0  0  0  0  0  0  0  0  0  0  0  0
  -25.9100  -34.9440   23.4520 C   0  0  0  0  0  0  0  0  0  0  0  0
  -26.5440  -34.8530   22.3970 O   0  0  0  0  0  0  0  0  0  0  0  0
  -25.0410  -34.0260   25.0330 H   0  0  0  0  0  0  0  0  0  0  0  0
  -24.1480  -36.7230   23.1920 C   0  0  0  0  0  1  0  0  0  0  0  0
  -25.4330  -36.3280   23.9380 C   0  0  0  0  0  3  0  0  0  0  0  0
  -27.5950  -37.2370   24.6680 C   0  0  0  0  0  1  0  0  0  0  0  0
  -26.4480  -37.3920   23.7760 N   0  0  0  0  0  0  0  0  0  0  0  0
  -26.0400  -38.3080   23.9400 H   0  0  0  0  0  0  0  0  0  0  0  0
  1  2  1  0
  2  5  2  0
  3  6  2  0
  4  1  2  0
  4  3  1  0
  5 16  1  0
  6  5  1  0
  6  7  1  0
  8 16  1  0
  9 14  1  0
 10 11  1  0
 10  9  1  0
 12 11  1  0
 12 21  1  0
 12 13  1  0
 14  8  1  0
 14 13  1  0
 15  8  2  0
 16 17  1  0
 18 19  2  0
 19 38  1  0
 20 19  1  0
 20 23  1  0
 21 22  1  0
 21 18  1  0
 22 20  2  0
 23 24  1  0
 24 25  2  0
 26 29  1  0
 26 25  1  0
 27 26  2  0
 28 27  1  0
 28 23  2  0
 29 30  1  0
 30 31  1  0
 31 32  2  0
 33 32  1  0
 33 37  1  0
 34 33  2  0
 35 30  2  0
 35 34  1  0
 36 35  1  0
 38 39  1  0
 39 42  1  0
 39 41  1  0
 40 38  2  0
 43 18  1  0
 43 44  1  0
 45 43  1  0
 46  4  1  0
 46 48  1  0
 47 46  1  0
 49 50  1  0
 49 48  2  0
 51 62  2  0
 52 50  1  0
 52 57  1  0
 53 61  1  0
 53 63  1  0
 54 60  1  0
 54 56  1  0
 55 61  1  0
 56 55  1  0
 57 56  2  0
 58 59  1  0
 58 52  2  0
 59 54  2  0
 60 53  1  0
 61 51  1  0
 63 65  2  0
 64 63  1  0
 66 64  1  0
 67 76  2  0
 67 72  1  0
 68 64  1  0
 68 72  1  0
 69 68  1  0
 70 71  1  0
 70 69  1  0
 71 67  1  0
 72 73  2  0
 73 74  1  0
 75 74  2  0
 76 75  1  0
 77 51  1  0
 77 82  1  0
 77 78  1  0
 78 81  1  1
 78 79  1  0
 80 78  1  0
 82 85  1  0
 83 87  1  0
 83 82  1  0
 84 83  2  0
 87 86  1  0
 89 87  1  0
 89 90  1  0
 89 88  1  0
M  ISO  4   8 100  16 100  49 101  50 101
M  END
>  <TORSDO>  (31) 
F 19

>  <SCORE>  (31) 
-14.363

>  <name>  (31) 
30

>  <ligand_id>  (31) 
30

>  <original_smiles>  (31) 
[H]c1c([H])c([H])c2c(c1[H])C([H])([H])C([H])([H])C([H])([H])C2([H])N([H])C(=O)C1([H])N(C(=O)C([H])(N([H])C(=O)C([H])(N([H])C([H])([H])[H])C([H])([H])[H])C(C([H])([H])[H])(C([H])([H])[H])C([H])([H])[H])C([H])([H])c2c([H])c(OC([H])([H])C([H])([H])N([H])c3c([H])c([H])c(N([H])C(=O)N4C([H])([H])C([H])([H])C([H])([H])C([H])(n5nc(-c6c([H])c([H])c(Oc7c([H])c([H])c(F)c([H])c7F)c([H])c6[H])c(C(=O)N([H])[H])c5N([H])[H])C4([H])[H])c(F)c3[H])c([H])c([H])c2C1([H])[H]

>  <smiles>  (31) 
[H]c1c([H])c([H])c2c(c1[H])C([H])([H])C([H])([H])C([H])([H])C2([H])N([H])C(=O)C1([H])N(C(=O)C([H])(N([H])C(=O)C([H])(N([H])C([H])([H])[H])C([H])([H])[H])C(C([H])([H])[H])(C([H])([H])[H])C([H])([H])[H])C([H])([H])c2c([H])c(OC([H])([H])C([H])([H])N([H])c3c([H])c([H])c(N([H])C(=O)N4C([H])([H])C([H])([H])C([H])([H])C([H])(n5nc(-c6c([H])c([H])c(Oc7c([H])c([H])c(F)c([H])c7F)c([H])c6[H])c(C(=O)N([H])[H])c5N([H])[H])C4([H])[H])c(F)c3[H])c([H])c([H])c2C1([H])[H]

$$$$
31:0:0
     RDKit          3D

 97105  0  0  1  0  0  0  0  0999 V2000
  -29.3630  -21.5650   20.2080 C   0  0  0  0  0  0  0  0  0  0  0  0
  -29.3490  -20.3050   20.6770 N   0  0  0  0  0  0  0  0  0  0  0  0
  -30.3000  -22.0460   19.5640 O   0  0  0  0  0  0  0  0  0  0  0  0
  -28.4840  -20.0130   21.1120 H   0  0  0  0  0  0  0  0  0  0  0  0
  -31.7050  -19.6150   20.2910 C   0  0  0  0  0  3  0  0  0  0  0  0
  -32.2600  -17.2460   20.2150 C   0  0  0  0  0  3  0  0  0  0  0  0
  -29.9590  -17.9440   20.6310 C   0  0  0  0  0  3  0  0  0  0  0  0
  -32.6680  -18.5940   20.1480 C   0  0  0  0  0  0  0  0  0  0  0  0
  -30.3450  -19.3000   20.5200 C   0  0  0  0  0  0  0  0  0  0  0  0
  -30.9050  -16.9120   20.4390 C   0  0  0  0  0  0  0  0  0  0  0  0
  -31.0720  -14.5240   19.8700 C   0  0  0  0  0  0  0  0  0  0  0  0
  -30.7340  -12.2480   18.9900 C   0  0  0  0  0  2  0  0  0  0  0  0
  -29.7520  -12.2960   17.8030 C   0  0  0  0  0  2  0  0  0  0  0  0
  -28.2960  -12.1930   18.3000 C   0  0  0  0  0  2  0  0  0  0  0  0
  -27.9880  -13.1830   19.4550 C   0  0  0  0  0  3  0  0  0  0  0  0
  -29.0830  -13.1200   20.5440 C   0  0  0  0  0  2  0  0  0  0  0  0
  -30.3890  -13.3500   19.8990 N   0  0  0  0  0  0  0  0  0  0  0  0
  -32.1290  -14.6680   19.2480 O   0  0  0  0  0  0  0  0  0  0  0  0
  -30.4780  -15.5570   20.4920 N   0  0  0  0  0  0  0  0  0  0  0  0
  -29.5590  -15.3690   20.8680 H   0  0  0  0  0  0  0  0  0  0  0  0
  -25.6710  -13.8690   20.3400 C   0  0  0  0  0  0  0  0  0  0  0  0
  -24.5960  -13.1320   20.7590 C   0  0  0  0  0  0  0  0  0  0  0  0
  -24.9910  -11.7630   20.6560 C   0  0  0  0  0  0  0  0  0  0  0  0
  -26.6580  -12.9510   20.0140 N   0  0  0  0  0  0  0  0  0  0  0  0
  -26.2560  -11.6770   20.2600 N   0  0  0  0  0  0  0  0  0  0  0  0
  -24.2230  -10.5270   20.8570 C   0  0  0  0  0  0  0  0  0  0  0  0
  -24.6170   -9.5600   21.8090 C   0  0  0  0  0  3  0  0  0  0  0  0
  -23.8510   -8.3880   21.9970 C   0  0  0  0  0  3  0  0  0  0  0  0
  -22.6770   -8.1780   21.2350 C   0  0  0  0  0  0  0  0  0  0  0  0
  -22.3030   -9.1330   20.2730 C   0  0  0  0  0  3  0  0  0  0  0  0
  -23.0690  -10.2960   20.0820 C   0  0  0  0  0  3  0  0  0  0  0  0
  -21.8850   -7.0600   21.3320 O   0  0  0  0  0  0  0  0  0  0  0  0
  -21.7140   -6.4000   22.5220 C   0  0  0  0  0  0  0  0  0  0  0  0
  -21.1940   -7.0460   23.6660 C   0  0  0  0  0  3  0  0  0  0  0  0
  -20.9710   -6.3130   24.8480 C   0  0  0  0  0  3  0  0  0  0  0  0
  -21.2560   -4.9350   24.8880 C   0  0  0  0  0  0  0  0  0  0  0  0
  -21.7660   -4.2880   23.7480 C   0  0  0  0  0  3  0  0  0  0  0  0
  -21.9930   -5.0190   22.5680 C   0  0  0  0  0  0  0  0  0  0  0  0
  -22.4650   -4.3860   21.4680 F   0  0  0  0  0  0  0  0  0  0  0  0
  -21.0340   -4.2280   26.0190 F   0  0  0  0  0  0  0  0  0  0  0  0
  -23.2440  -13.6600   21.1430 C   0  0  0  0  0  0  0  0  0  0  0  0
  -22.5530  -12.9770   22.0500 N   0  0  0  0  0  0  0  0  0  0  0  0
  -22.8110  -14.7110   20.6740 O   0  0  0  0  0  0  0  0  0  0  0  0
  -22.9170  -12.1260   22.4510 H   0  0  0  0  0  0  0  0  0  0  0  0
  -21.6480  -13.3110   22.3500 H   0  0  0  0  0  0  0  0  0  0  0  0
  -25.8890  -15.2350   20.1920 N   0  0  0  0  0  0  0  0  0  0  0  0
  -25.1570  -15.9190   20.3510 H   0  0  0  0  0  0  0  0  0  0  0  0
  -26.7430  -15.6410   19.8300 H   0  0  0  0  0  0  0  0  0  0  0  0
  -34.1300  -18.9350   19.9010 C   0  0  1  0  0  0  0  0  0  0  0  0
  -34.4220  -20.1720   20.3070 F   0  0  0  0  0  0  0  0  0  0  0  0
  -34.9230  -18.0870   20.5560 F   0  0  0  0  0  0  0  0  0  0  0  0
  -34.3930  -18.8440   18.5990 F   0  0  0  0  0  0  0  0  0  0  0  0
  -28.1080  -22.4000   20.4930 C   0  0  0  0  0  2  0  0  0  0  0  0
  -28.1710  -23.8800   20.0420 C   0  0  0  0  0  2  0  0  0  0  0  0
  -29.0650  -24.7950   20.9100 C   0  0  0  0  0  2  0  0  0  0  0  0
  -28.4090  -26.1340   21.2840 C   0  0  0  0  0  2  0  0  0  0  0  0
  -28.2700  -26.9740   20.1390 O   0  0  0  0  0  0  0  0  0  0  0  0
  -24.5550  -32.0790   23.3940 C   0  0  0  0  0  0  0  0  0  0  0  0
  -27.1190  -27.7170   20.1750 C   0  0  0  0  0  0  0  0  0  0  0  0
  -23.3040  -30.7020   21.7620 C   0  0  0  0  0  3  0  0  0  0  0  0
  -24.7200  -29.1900   20.2750 C   0  0  0  0  0  0  0  0  0  0  0  0
  -25.8200  -31.0790   21.4950 C   0  0  0  0  0  2  0  0  0  0  0  0
  -25.8910  -29.7200   20.8350 C   0  0  0  0  0  0  0  0  0  0  0  0
  -27.0980  -28.9910   20.7830 C   0  0  0  0  0  3  0  0  0  0  0  0
  -25.9390  -27.1910   19.6160 C   0  0  0  0  0  3  0  0  0  0  0  0
  -24.7360  -27.9220   19.6670 C   0  0  0  0  0  3  0  0  0  0  0  0
  -23.4760  -30.0430   20.3680 C   0  0  0  0  0  2  0  0  0  0  0  0
  -24.5800  -31.3010   22.2750 N   0  0  0  0  0  0  0  0  0  0  0  0
  -23.4890  -32.3380   23.9690 O   0  0  0  0  0  0  0  0  0  0  0  0
  -22.6830  -29.6650   22.7240 C   0  0  0  0  0  0  0  0  0  0  0  0
  -21.3720  -29.4130   22.5680 N   0  0  0  0  0  0  0  0  0  0  0  0
  -23.3770  -29.0880   23.5660 O   0  0  0  0  0  0  0  0  0  0  0  0
  -20.8750  -29.9300   21.8570 H   0  0  0  0  0  0  0  0  0  0  0  0
  -18.0690  -27.9930   22.9330 C   0  0  0  0  0  0  0  0  0  0  0  0
  -20.5820  -28.4500   23.3350 C   0  0  0  0  0  3  0  0  0  0  0  0
  -20.8210  -27.0080   22.8290 C   0  0  0  0  0  2  0  0  0  0  0  0
  -19.8050  -26.5650   21.7710 C   0  0  0  0  0  2  0  0  0  0  0  0
  -18.3810  -26.6340   22.3310 C   0  0  0  0  0  2  0  0  0  0  0  0
  -19.1040  -28.8520   23.3890 C   0  0  0  0  0  0  0  0  0  0  0  0
  -18.7610  -30.1200   23.9060 C   0  0  0  0  0  3  0  0  0  0  0  0
  -17.4160  -30.5300   23.9770 C   0  0  0  0  0  3  0  0  0  0  0  0
  -16.3960  -29.6670   23.5410 C   0  0  0  0  0  3  0  0  0  0  0  0
  -16.7230  -28.4020   23.0220 C   0  0  0  0  0  3  0  0  0  0  0  0
  -25.8580  -32.6990   23.9880 C   0  0  0  0  0  3  0  0  0  0  0  0
  -25.5750  -34.1070   24.2980 N   0  0  0  0  0  0  0  0  0  0  0  0
  -25.9130  -35.1410   23.5170 C   0  0  0  0  0  0  0  0  0  0  0  0
  -26.5700  -35.0110   22.4800 O   0  0  0  0  0  0  0  0  0  0  0  0
  -24.9940  -34.2830   25.1050 H   0  0  0  0  0  0  0  0  0  0  0  0
  -24.2020  -36.9450   23.1490 C   0  0  0  0  0  1  0  0  0  0  0  0
  -25.4490  -36.5420   23.9540 C   0  0  0  0  0  3  0  0  0  0  0  0
  -27.6060  -37.4120   24.7380 C   0  0  0  0  0  1  0  0  0  0  0  0
  -26.4920  -37.5810   23.8090 N   0  0  0  0  0  0  0  0  0  0  0  0
  -26.0990  -38.5070   23.9490 H   0  0  0  0  0  0  0  0  0  0  0  0
  -26.3840  -31.9390   25.2680 C   0  0  1  0  0  0  0  0  0  0  0  0
  -25.2990  -31.7020   26.3420 C   0  0  0  0  0  1  0  0  0  0  0  0
  -26.9690  -30.5600   24.8800 C   0  0  0  0  0  1  0  0  0  0  0  0
  -27.5370  -32.7390   25.9180 C   0  0  0  0  0  1  0  0  0  0  0  0
  1 53  1  0
  1  2  1  0
  2  4  1  0
  3  1  2  0
  5  9  1  0
  6 10  2  0
  8  6  1  0
  8  5  2  0
  9  7  2  0
  9  2  1  0
 10 19  1  0
 10  7  1  0
 11 17  1  0
 11 19  1  0
 12 17  1  0
 13 14  1  0
 13 12  1  0
 15 14  1  0
 15 24  1  0
 15 16  1  0
 17 16  1  0
 18 11  2  0
 19 20  1  0
 21 22  2  0
 22 41  1  0
 23 22  1  0
 23 26  1  0
 24 25  1  0
 24 21  1  0
 25 23  2  0
 26 27  1  0
 27 28  2  0
 29 32  1  0
 29 28  1  0
 30 29  2  0
 31 30  1  0
 31 26  2  0
 32 33  1  0
 33 38  2  0
 33 34  1  0
 34 35  2  0
 35 36  1  0
 36 40  1  0
 37 36  2  0
 38 37  1  0
 39 38  1  0
 41 42  1  0
 42 45  1  0
 42 44  1  0
 43 41  2  0
 46 21  1  0
 46 47  1  0
 48 46  1  0
 49  8  1  0
 49 50  1  1
 49 51  1  0
 52 49  1  0
 54 53  1  0
 54 55  1  0
 55 56  1  0
 57 59  1  0
 57 56  1  0
 58 69  2  0
 59 64  1  0
 60 68  1  0
 60 70  1  0
 61 67  1  0
 61 63  1  0
 62 68  1  0
 63 62  1  0
 64 63  2  0
 65 66  1  0
 65 59  2  0
 66 61  2  0
 67 60  1  0
 68 58  1  0
 70 72  2  0
 71 70  1  0
 73 71  1  0
 74 83  2  0
 74 79  1  0
 75 71  1  0
 75 79  1  0
 76 75  1  0
 77 78  1  0
 77 76  1  0
 78 74  1  0
 79 80  2  0
 80 81  1  0
 82 81  2  0
 83 82  1  0
 84 58  1  0
 84 85  1  0
 84 94  1  0
 85 88  1  0
 86 90  1  0
 86 85  1  0
 87 86  2  0
 90 89  1  0
 92 93  1  0
 92 90  1  0
 92 91  1  0
 94 97  1  1
 94 95  1  0
 96 94  1  0
M  ISO  4  11 100  19 100  56 101  57 101
M  END
>  <TORSDO>  (32) 
F 22

>  <SCORE>  (32) 
-12.799

>  <name>  (32) 
31

>  <ligand_id>  (32) 
31

>  <original_smiles>  (32) 
[H]c1c([H])c([H])c2c(c1[H])C([H])([H])C([H])([H])C([H])([H])C2([H])N([H])C(=O)C1([H])N(C(=O)C([H])(N([H])C(=O)C([H])(N([H])C([H])([H])[H])C([H])([H])[H])C(C([H])([H])[H])(C([H])([H])[H])C([H])([H])[H])C([H])([H])c2c([H])c(OC([H])([H])C([H])([H])C([H])([H])C([H])([H])C(=O)N([H])c3c([H])c(N([H])C(=O)N4C([H])([H])C([H])([H])C([H])([H])C([H])(n5nc(-c6c([H])c([H])c(Oc7c([H])c([H])c(F)c([H])c7F)c([H])c6[H])c(C(=O)N([H])[H])c5N([H])[H])C4([H])[H])c([H])c(C(F)(F)F)c3[H])c([H])c([H])c2C1([H])[H]

>  <smiles>  (32) 
[H]c1c([H])c([H])c2c(c1[H])C([H])([H])C([H])([H])C([H])([H])C2([H])N([H])C(=O)C1([H])N(C(=O)C([H])(N([H])C(=O)C([H])(N([H])C([H])([H])[H])C([H])([H])[H])C(C([H])([H])[H])(C([H])([H])[H])C([H])([H])[H])C([H])([H])c2c([H])c(OC([H])([H])C([H])([H])C([H])([H])C([H])([H])C(=O)N([H])c3c([H])c(N([H])C(=O)N4C([H])([H])C([H])([H])C([H])([H])C([H])(n5nc(-c6c([H])c([H])c(Oc7c([H])c([H])c(F)c([H])c7F)c([H])c6[H])c(C(=O)N([H])[H])c5N([H])[H])C4([H])[H])c([H])c(C(F)(F)F)c3[H])c([H])c([H])c2C1([H])[H]

$$$$
32:0:0
     RDKit          3D

 97105  0  0  1  0  0  0  0  0999 V2000
  -31.6620  -19.6640   20.0860 C   0  0  0  0  0  3  0  0  0  0  0  0
  -31.6390  -18.2370   20.2240 C   0  0  0  0  0  3  0  0  0  0  0  0
  -29.2760  -19.7160   20.0230 C   0  0  0  0  0  3  0  0  0  0  0  0
  -30.4780  -20.4450   19.9630 C   0  0  0  0  0  0  0  0  0  0  0  0
  -30.4260  -17.4900   20.2370 C   0  0  0  0  0  0  0  0  0  0  0  0
  -29.2450  -18.3010   20.1230 C   0  0  0  0  0  0  0  0  0  0  0  0
  -31.0870  -14.9860   19.7740 C   0  0  0  0  0  0  0  0  0  0  0  0
  -30.7950  -12.7750   18.6660 C   0  0  0  0  0  2  0  0  0  0  0  0
  -29.7120  -12.9070   17.5710 C   0  0  0  0  0  2  0  0  0  0  0  0
  -28.3030  -12.6900   18.1610 C   0  0  0  0  0  2  0  0  0  0  0  0
  -28.0650  -13.5010   19.4640 C   0  0  0  0  0  3  0  0  0  0  0  0
  -29.2560  -13.3460   20.4390 C   0  0  0  0  0  2  0  0  0  0  0  0
  -30.4810  -13.7530   19.7280 N   0  0  0  0  0  0  0  0  0  0  0  0
  -32.1840  -15.1710   19.2420 O   0  0  0  0  0  0  0  0  0  0  0  0
  -30.3500  -16.0130   20.3060 N   0  0  0  0  0  0  0  0  0  0  0  0
  -29.5160  -15.6770   20.7750 H   0  0  0  0  0  0  0  0  0  0  0  0
  -25.7560  -13.9840   20.4950 C   0  0  0  0  0  0  0  0  0  0  0  0
  -24.7520  -13.1760   20.9350 C   0  0  0  0  0  0  0  0  0  0  0  0
  -25.2190  -11.8430   20.7380 C   0  0  0  0  0  0  0  0  0  0  0  0
  -26.7870  -13.1540   20.0880 N   0  0  0  0  0  0  0  0  0  0  0  0
  -26.4680  -11.8490   20.2830 N   0  0  0  0  0  0  0  0  0  0  0  0
  -24.5210  -10.5670   20.9040 C   0  0  0  0  0  0  0  0  0  0  0  0
  -24.9190   -9.6310   21.8840 C   0  0  0  0  0  3  0  0  0  0  0  0
  -24.2170   -8.4180   22.0360 C   0  0  0  0  0  3  0  0  0  0  0  0
  -23.1020   -8.1350   21.2110 C   0  0  0  0  0  0  0  0  0  0  0  0
  -22.7240   -9.0610   20.2230 C   0  0  0  0  0  3  0  0  0  0  0  0
  -23.4280  -10.2660   20.0680 C   0  0  0  0  0  3  0  0  0  0  0  0
  -22.3760   -6.9710   21.2720 O   0  0  0  0  0  0  0  0  0  0  0  0
  -22.0940   -6.3620   22.4680 C   0  0  0  0  0  0  0  0  0  0  0  0
  -21.3300   -7.0030   23.4680 C   0  0  0  0  0  3  0  0  0  0  0  0
  -21.0060   -6.3150   24.6540 C   0  0  0  0  0  3  0  0  0  0  0  0
  -21.4350   -4.9860   24.8380 C   0  0  0  0  0  0  0  0  0  0  0  0
  -22.1900   -4.3460   23.8410 C   0  0  0  0  0  3  0  0  0  0  0  0
  -22.5170   -5.0310   22.6580 C   0  0  0  0  0  0  0  0  0  0  0  0
  -23.2280   -4.4030   21.6910 F   0  0  0  0  0  0  0  0  0  0  0  0
  -21.1150   -4.3220   25.9730 F   0  0  0  0  0  0  0  0  0  0  0  0
  -23.4040  -13.6210   21.4230 C   0  0  0  0  0  0  0  0  0  0  0  0
  -22.7870  -12.8460   22.3070 N   0  0  0  0  0  0  0  0  0  0  0  0
  -22.9140  -14.6920   21.0660 O   0  0  0  0  0  0  0  0  0  0  0  0
  -23.2010  -11.9800   22.6190 H   0  0  0  0  0  0  0  0  0  0  0  0
  -21.8890  -13.1220   22.6790 H   0  0  0  0  0  0  0  0  0  0  0  0
  -25.8520  -15.3550   20.3950 N   0  0  0  0  0  0  0  0  0  0  0  0
  -25.0880  -15.8880   20.7940 H   0  0  0  0  0  0  0  0  0  0  0  0
  -26.7470  -15.7390   20.6920 H   0  0  0  0  0  0  0  0  0  0  0  0
  -29.4860  -22.8040   19.6660 C   0  0  0  0  0  0  0  0  0  0  0  0
  -30.5120  -21.9060   19.8300 N   0  0  0  0  0  0  0  0  0  0  0  0
  -28.3280  -22.4230   19.4820 O   0  0  0  0  0  0  0  0  0  0  0  0
  -31.4350  -22.3210   19.8540 H   0  0  0  0  0  0  0  0  0  0  0  0
  -29.7570  -24.3590   19.6890 C   0  0  0  0  0  3  0  0  0  0  0  0
  -28.4880  -25.3180   19.6050 C   0  0  0  0  0  3  0  0  0  0  0  0
  -28.6140  -26.7440   19.9750 O   0  0  0  0  0  0  0  0  0  0  0  0
  -24.6630  -31.7950   23.2750 C   0  0  0  0  0  0  0  0  0  0  0  0
  -27.4560  -27.5400   19.9610 C   0  0  0  0  0  0  0  0  0  0  0  0
  -23.5280  -30.5040   21.5000 C   0  0  0  0  0  3  0  0  0  0  0  0
  -25.0460  -29.0860   20.0100 C   0  0  0  0  0  0  0  0  0  0  0  0
  -26.0630  -30.8830   21.4120 C   0  0  0  0  0  2  0  0  0  0  0  0
  -26.1890  -29.5580   20.6690 C   0  0  0  0  0  0  0  0  0  0  0  0
  -27.3940  -28.7980   20.6350 C   0  0  0  0  0  3  0  0  0  0  0  0
  -26.2850  -27.1160   19.2880 C   0  0  0  0  0  3  0  0  0  0  0  0
  -25.0950  -27.8690   19.3140 C   0  0  0  0  0  3  0  0  0  0  0  0
  -23.7910  -29.9310   20.0820 C   0  0  0  0  0  2  0  0  0  0  0  0
  -24.7680  -31.0730   22.1210 N   0  0  0  0  0  0  0  0  0  0  0  0
  -23.5610  -32.0160   23.7970 O   0  0  0  0  0  0  0  0  0  0  0  0
  -22.8560  -29.4120   22.3630 C   0  0  0  0  0  0  0  0  0  0  0  0
  -21.5230  -29.2910   22.2540 N   0  0  0  0  0  0  0  0  0  0  0  0
  -23.5310  -28.6790   23.0900 O   0  0  0  0  0  0  0  0  0  0  0  0
  -21.0380  -29.9320   21.6410 H   0  0  0  0  0  0  0  0  0  0  0  0
  -18.1180  -28.1680   22.7230 C   0  0  0  0  0  0  0  0  0  0  0  0
  -20.6900  -28.3030   22.9400 C   0  0  0  0  0  3  0  0  0  0  0  0
  -20.7210  -26.9430   22.2050 C   0  0  0  0  0  2  0  0  0  0  0  0
  -19.5790  -26.7760   21.1970 C   0  0  0  0  0  2  0  0  0  0  0  0
  -18.2230  -26.8970   21.8960 C   0  0  0  0  0  2  0  0  0  0  0  0
  -19.2760  -28.8350   23.2000 C   0  0  0  0  0  0  0  0  0  0  0  0
  -19.1240  -30.0310   23.9350 C   0  0  0  0  0  3  0  0  0  0  0  0
  -17.8450  -30.5560   24.1970 C   0  0  0  0  0  3  0  0  0  0  0  0
  -16.6990  -29.8830   23.7350 C   0  0  0  0  0  3  0  0  0  0  0  0
  -16.8380  -28.6900   23.0040 C   0  0  0  0  0  3  0  0  0  0  0  0
  -25.9190  -32.3960   23.9780 C   0  0  0  0  0  3  0  0  0  0  0  0
  -25.6250  -33.8030   24.2830 N   0  0  0  0  0  0  0  0  0  0  0  0
  -26.0240  -34.8430   23.5400 C   0  0  0  0  0  0  0  0  0  0  0  0
  -26.7490  -34.7170   22.5480 O   0  0  0  0  0  0  0  0  0  0  0  0
  -24.9880  -33.9740   25.0470 H   0  0  0  0  0  0  0  0  0  0  0  0
  -24.3630  -36.6750   23.0810 C   0  0  0  0  0  1  0  0  0  0  0  0
  -25.5460  -36.2440   23.9630 C   0  0  0  0  0  3  0  0  0  0  0  0
  -27.6360  -37.1000   24.9270 C   0  0  0  0  0  1  0  0  0  0  0  0
  -26.6080  -37.2730   23.9040 N   0  0  0  0  0  0  0  0  0  0  0  0
  -26.2140  -38.2030   24.0060 H   0  0  0  0  0  0  0  0  0  0  0  0
  -26.3280  -31.6160   25.2880 C   0  0  1  0  0  0  0  0  0  0  0  0
  -25.1700  -31.4510   26.3000 C   0  0  0  0  0  1  0  0  0  0  0  0
  -26.8560  -30.2040   24.9420 C   0  0  0  0  0  1  0  0  0  0  0  0
  -27.4820  -32.3590   26.0010 C   0  0  0  0  0  1  0  0  0  0  0  0
  -27.6480  -16.1680   19.9980 O   0  0  0  0  0  0  0  0  0  0  0  0
  -26.6410  -18.3750   20.7640 O   0  0  0  0  0  0  0  0  0  0  0  0
  -27.5920  -17.6340   19.9170 S   0  0  1  0  0  0  0  0  0  0  0  0
  -26.1830  -19.0140   17.9470 C   0  0  0  0  0  1  0  0  0  0  0  0
  -28.3670  -18.0740   17.3050 C   0  0  0  0  0  1  0  0  0  0  0  0
  -27.2440  -18.0430   18.2610 N   0  0  0  0  0  0  0  0  0  0  0  0
  1  2  1  0
  2  5  2  0
  3  6  2  0
  4  3  1  0
  4  1  2  0
  5 15  1  0
  6  5  1  0
  7 15  1  0
  8 13  1  0
  9 10  1  0
  9  8  1  0
 11 10  1  0
 11 20  1  0
 11 12  1  0
 13  7  1  0
 13 12  1  0
 14  7  2  0
 15 16  1  0
 17 18  2  0
 18 37  1  0
 19 22  1  0
 19 18  1  0
 20 21  1  0
 20 17  1  0
 21 19  2  0
 22 23  1  0
 23 24  2  0
 25 28  1  0
 25 24  1  0
 26 25  2  0
 27 26  1  0
 27 22  2  0
 28 29  1  0
 29 34  2  0
 29 30  1  0
 30 31  2  0
 31 32  1  0
 32 36  1  0
 33 32  2  0
 34 33  1  0
 35 34  1  0
 37 38  1  0
 38 40  1  0
 38 41  1  0
 39 37  2  0
 42 17  1  0
 42 44  1  0
 42 43  1  0
 45 49  1  0
 45 46  1  0
 46 48  1  0
 46  4  1  0
 47 45  2  0
 50 49  2  0
 50 51  1  0
 52 63  2  0
 53 51  1  0
 53 58  1  0
 54 62  1  0
 54 64  1  0
 55 61  1  0
 55 57  1  0
 56 62  1  0
 57 56  1  0
 58 57  2  0
 59 60  1  0
 59 53  2  0
 60 55  2  0
 61 54  1  0
 62 52  1  0
 64 66  2  0
 65 64  1  0
 67 65  1  0
 68 77  2  0
 68 73  1  0
 69 65  1  0
 69 73  1  0
 70 69  1  0
 71 72  1  0
 71 70  1  0
 72 68  1  0
 73 74  2  0
 74 75  1  0
 76 75  2  0
 77 76  1  0
 78 52  1  0
 78 79  1  0
 78 88  1  0
 79 82  1  0
 80 84  1  0
 80 79  1  0
 81 80  2  0
 84 83  1  0
 86 84  1  0
 86 87  1  0
 86 85  1  0
 88 91  1  1
 88 89  1  0
 90 88  1  0
 94 92  2  0
 94  6  1  0
 94 93  2  0
 95 97  1  0
 96 97  1  0
 94 97  1  6
M  ISO  4   7 100  15 100  50 101  51 101
M  END
>  <TORSDO>  (33) 
F 21

>  <SCORE>  (33) 
-11.122

>  <name>  (33) 
32

>  <ligand_id>  (33) 
32

>  <original_smiles>  (33) 
[H]c1c([H])c([H])c2c(c1[H])C([H])([H])C([H])([H])C([H])([H])C2([H])N([H])C(=O)C1([H])N(C(=O)C([H])(N([H])C(=O)C([H])(N([H])C([H])([H])[H])C([H])([H])[H])C(C([H])([H])[H])(C([H])([H])[H])C([H])([H])[H])C([H])([H])c2c([H])c(OC([H])([H])C([H])([H])C(=O)N([H])c3c([H])c([H])c(N([H])C(=O)N4C([H])([H])C([H])([H])C([H])([H])C([H])(n5nc(-c6c([H])c([H])c(Oc7c([H])c([H])c(F)c([H])c7F)c([H])c6[H])c(C(=O)N([H])[H])c5N([H])[H])C4([H])[H])c(S(=O)(=O)N(C([H])([H])[H])C([H])([H])[H])c3[H])c([H])c([H])c2C1([H])[H]

>  <smiles>  (33) 
[H]c1c([H])c([H])c2c(c1[H])C([H])([H])C([H])([H])C([H])([H])C2([H])N([H])C(=O)C1([H])N(C(=O)C([H])(N([H])C(=O)C([H])(N([H])C([H])([H])[H])C([H])([H])[H])C(C([H])([H])[H])(C([H])([H])[H])C([H])([H])[H])C([H])([H])c2c([H])c(OC([H])([H])C([H])([H])C(=O)N([H])c3c([H])c([H])c(N([H])C(=O)N4C([H])([H])C([H])([H])C([H])([H])C([H])(n5nc(-c6c([H])c([H])c(Oc7c([H])c([H])c(F)c([H])c7F)c([H])c6[H])c(C(=O)N([H])[H])c5N([H])[H])C4([H])[H])c(S(=O)(=O)N(C([H])([H])[H])C([H])([H])[H])c3[H])c([H])c([H])c2C1([H])[H]

$$$$
33:0:0
     RDKit          3D

 91 99  0  0  1  0  0  0  0  0999 V2000
  -28.9200  -23.4070   20.2880 C   0  0  0  0  0  0  0  0  0  0  0  0
  -28.4800  -22.0730   20.1000 N   0  0  0  0  0  0  0  0  0  0  0  0
  -30.0660  -23.6340   20.6870 O   0  0  0  0  0  0  0  0  0  0  0  0
  -27.5130  -22.1050   19.8010 H   0  0  0  0  0  0  0  0  0  0  0  0
  -30.2820  -20.0580   20.4200 C   0  0  0  0  0  3  0  0  0  0  0  0
  -30.5710  -18.6180   20.4870 C   0  0  0  0  0  3  0  0  0  0  0  0
  -27.9980  -19.5700   20.1140 C   0  0  0  0  0  3  0  0  0  0  0  0
  -28.9640  -20.6200   20.2310 C   0  0  0  0  0  0  0  0  0  0  0  0
  -29.5680  -17.5840   20.3820 C   0  0  0  0  0  0  0  0  0  0  0  0
  -28.2750  -18.1570   20.1900 C   0  0  0  0  0  0  0  0  0  0  0  0
  -27.2350  -17.2980   20.0710 F   0  0  0  0  0  0  0  0  0  0  0  0
  -30.5100  -14.9630   20.3310 C   0  0  0  0  0  0  0  0  0  0  0  0
  -30.4250  -12.6170   19.3750 C   0  0  0  0  0  2  0  0  0  0  0  0
  -29.4820  -12.5960   18.1490 C   0  0  0  0  0  2  0  0  0  0  0  0
  -28.0160  -12.3860   18.5800 C   0  0  0  0  0  2  0  0  0  0  0  0
  -27.6140  -13.2920   19.7720 C   0  0  0  0  0  3  0  0  0  0  0  0
  -28.6750  -13.2690   20.8940 C   0  0  0  0  0  2  0  0  0  0  0  0
  -29.9520  -13.6870   20.2940 N   0  0  0  0  0  0  0  0  0  0  0  0
  -31.7030  -15.0880   20.0360 O   0  0  0  0  0  0  0  0  0  0  0  0
  -29.6350  -16.0570   20.5100 N   0  0  0  0  0  0  0  0  0  0  0  0
  -28.7070  -15.6950   20.6650 H   0  0  0  0  0  0  0  0  0  0  0  0
  -25.2220  -13.8590   20.5000 C   0  0  0  0  0  0  0  0  0  0  0  0
  -24.1620  -13.0780   20.8700 C   0  0  0  0  0  0  0  0  0  0  0  0
  -24.6370  -11.7310   20.8440 C   0  0  0  0  0  0  0  0  0  0  0  0
  -26.2750  -12.9890   20.2680 N   0  0  0  0  0  0  0  0  0  0  0  0
  -25.9300  -11.7020   20.5400 N   0  0  0  0  0  0  0  0  0  0  0  0
  -23.9190  -10.4650   21.0370 C   0  0  0  0  0  0  0  0  0  0  0  0
  -24.3550   -9.5000   21.9720 C   0  0  0  0  0  3  0  0  0  0  0  0
  -23.6330   -8.3010   22.1520 C   0  0  0  0  0  3  0  0  0  0  0  0
  -22.4600   -8.0580   21.3990 C   0  0  0  0  0  0  0  0  0  0  0  0
  -22.0410   -9.0120   20.4550 C   0  0  0  0  0  3  0  0  0  0  0  0
  -22.7640  -10.2020   20.2720 C   0  0  0  0  0  3  0  0  0  0  0  0
  -21.7110   -6.9100   21.4890 O   0  0  0  0  0  0  0  0  0  0  0  0
  -21.6710   -6.1640   22.6410 C   0  0  0  0  0  0  0  0  0  0  0  0
  -21.2450   -6.7130   23.8690 C   0  0  0  0  0  3  0  0  0  0  0  0
  -21.1540   -5.8950   25.0120 C   0  0  0  0  0  3  0  0  0  0  0  0
  -21.4780   -4.5270   24.9270 C   0  0  0  0  0  0  0  0  0  0  0  0
  -21.8960   -3.9770   23.7040 C   0  0  0  0  0  3  0  0  0  0  0  0
  -21.9900   -4.7940   22.5620 C   0  0  0  0  0  0  0  0  0  0  0  0
  -22.3740   -4.2540   21.3800 F   0  0  0  0  0  0  0  0  0  0  0  0
  -21.3820   -3.7390   26.0230 F   0  0  0  0  0  0  0  0  0  0  0  0
  -22.7610  -13.5480   21.1340 C   0  0  0  0  0  0  0  0  0  0  0  0
  -22.0370  -12.8550   22.0060 N   0  0  0  0  0  0  0  0  0  0  0  0
  -22.3180  -14.5670   20.6060 O   0  0  0  0  0  0  0  0  0  0  0  0
  -22.4090  -12.0330   22.4580 H   0  0  0  0  0  0  0  0  0  0  0  0
  -21.0980  -13.1540   22.2280 H   0  0  0  0  0  0  0  0  0  0  0  0
  -25.3610  -15.2300   20.3230 N   0  0  0  0  0  0  0  0  0  0  0  0
  -24.5760  -15.8570   20.4490 H   0  0  0  0  0  0  0  0  0  0  0  0
  -26.2010  -15.7250   20.0400 H   0  0  0  0  0  0  0  0  0  0  0  0
  -27.9180  -24.6900   19.9720 C   0  0  0  0  0  2  0  0  0  0  0  0
  -28.2470  -26.1880   20.2400 O   0  0  0  0  0  0  0  0  0  0  0  0
  -24.6450  -31.8880   23.2390 C   0  0  0  0  0  0  0  0  0  0  0  0
  -27.1970  -27.1790   20.1790 C   0  0  0  0  0  0  0  0  0  0  0  0
  -23.4310  -30.4950   21.6090 C   0  0  0  0  0  3  0  0  0  0  0  0
  -24.8660  -28.9240   20.1720 C   0  0  0  0  0  0  0  0  0  0  0  0
  -25.9850  -30.7580   21.4260 C   0  0  0  0  0  2  0  0  0  0  0  0
  -26.0520  -29.3670   20.7720 C   0  0  0  0  0  0  0  0  0  0  0  0
  -27.2170  -28.5100   20.7610 C   0  0  0  0  0  3  0  0  0  0  0  0
  -25.9820  -26.8410   19.5390 C   0  0  0  0  0  3  0  0  0  0  0  0
  -24.8440  -27.6730   19.5410 C   0  0  0  0  0  3  0  0  0  0  0  0
  -23.6400  -29.8210   20.2290 C   0  0  0  0  0  2  0  0  0  0  0  0
  -24.7070  -31.0690   22.1470 N   0  0  0  0  0  0  0  0  0  0  0  0
  -23.5630  -32.1750   23.7740 O   0  0  0  0  0  0  0  0  0  0  0  0
  -22.7580  -29.4880   22.5750 C   0  0  0  0  0  0  0  0  0  0  0  0
  -21.4290  -29.3160   22.4540 N   0  0  0  0  0  0  0  0  0  0  0  0
  -23.4330  -28.8630   23.3970 O   0  0  0  0  0  0  0  0  0  0  0  0
  -20.9400  -29.8710   21.7670 H   0  0  0  0  0  0  0  0  0  0  0  0
  -18.0510  -28.1080   22.9660 C   0  0  0  0  0  0  0  0  0  0  0  0
  -20.6090  -28.3810   23.2310 C   0  0  0  0  0  3  0  0  0  0  0  0
  -20.7160  -26.9450   22.6660 C   0  0  0  0  0  2  0  0  0  0  0  0
  -19.6140  -26.6120   21.6540 C   0  0  0  0  0  2  0  0  0  0  0  0
  -18.2330  -26.7560   22.2980 C   0  0  0  0  0  2  0  0  0  0  0  0
  -19.1680  -28.8790   23.3910 C   0  0  0  0  0  0  0  0  0  0  0  0
  -18.9420  -30.1420   23.9770 C   0  0  0  0  0  3  0  0  0  0  0  0
  -17.6350  -30.6370   24.1430 C   0  0  0  0  0  3  0  0  0  0  0  0
  -16.5340  -29.8650   23.7330 C   0  0  0  0  0  3  0  0  0  0  0  0
  -16.7440  -28.6030   23.1500 C   0  0  0  0  0  3  0  0  0  0  0  0
  -25.9280  -32.5210   23.8570 C   0  0  0  0  0  3  0  0  0  0  0  0
  -25.6200  -33.9190   24.1960 N   0  0  0  0  0  0  0  0  0  0  0  0
  -25.9220  -34.9760   23.4320 C   0  0  0  0  0  0  0  0  0  0  0  0
  -26.5590  -34.8760   22.3780 O   0  0  0  0  0  0  0  0  0  0  0  0
  -25.0490  -34.0690   25.0160 H   0  0  0  0  0  0  0  0  0  0  0  0
  -24.1640  -36.7560   23.1570 C   0  0  0  0  0  1  0  0  0  0  0  0
  -25.4470  -36.3620   23.9080 C   0  0  0  0  0  3  0  0  0  0  0  0
  -27.6110  -37.2720   24.6310 C   0  0  0  0  0  1  0  0  0  0  0  0
  -26.4650  -37.4240   23.7400 N   0  0  0  0  0  0  0  0  0  0  0  0
  -26.0570  -38.3420   23.8980 H   0  0  0  0  0  0  0  0  0  0  0  0
  -26.4490  -31.7490   25.1330 C   0  0  1  0  0  0  0  0  0  0  0  0
  -25.3590  -31.5150   26.2060 C   0  0  0  0  0  1  0  0  0  0  0  0
  -27.0240  -30.3670   24.7420 C   0  0  0  0  0  1  0  0  0  0  0  0
  -27.6050  -32.5390   25.7870 C   0  0  0  0  0  1  0  0  0  0  0  0
  1  3  2  0
  2  8  1  0
  2  1  1  0
  4  2  1  0
  5  6  1  0
  7 10  2  0
  7  8  1  0
  8  5  2  0
  9  6  2  0
  9 20  1  0
 10  9  1  0
 11 10  1  0
 12 20  1  0
 13 18  1  0
 14 15  1  0
 14 13  1  0
 16 15  1  0
 16 25  1  0
 16 17  1  0
 18 12  1  0
 18 17  1  0
 19 12  2  0
 20 21  1  0
 22 23  2  0
 23 42  1  0
 24 23  1  0
 24 27  1  0
 25 22  1  0
 25 26  1  0
 26 24  2  0
 27 28  1  0
 28 29  2  0
 30 33  1  0
 30 29  1  0
 31 30  2  0
 32 31  1  0
 32 27  2  0
 33 34  1  0
 34 35  1  0
 35 36  2  0
 37 36  1  0
 37 41  1  0
 38 37  2  0
 39 34  2  0
 39 38  1  0
 40 39  1  0
 42 43  1  0
 43 46  1  0
 43 45  1  0
 44 42  2  0
 47 48  1  0
 47 22  1  0
 49 47  1  0
 50 51  1  0
 50  1  1  0
 52 63  2  0
 53 51  1  0
 53 58  1  0
 54 62  1  0
 54 64  1  0
 55 61  1  0
 55 57  1  0
 56 62  1  0
 57 56  1  0
 58 57  2  0
 59 60  1  0
 59 53  2  0
 60 55  2  0
 61 54  1  0
 62 52  1  0
 64 66  2  0
 65 64  1  0
 67 65  1  0
 68 77  2  0
 68 73  1  0
 69 65  1  0
 69 73  1  0
 70 69  1  0
 71 72  1  0
 71 70  1  0
 72 68  1  0
 73 74  2  0
 74 75  1  0
 76 75  2  0
 77 76  1  0
 78 52  1  0
 78 79  1  0
 78 88  1  0
 79 82  1  0
 80 84  1  0
 80 79  1  0
 81 80  2  0
 84 83  1  0
 86 87  1  0
 86 84  1  0
 86 85  1  0
 88 91  1  1
 88 89  1  0
 90 88  1  0
M  ISO  4  12 100  20 100  50 101  51 101
M  END
>  <TORSDO>  (34) 
F 18

>  <SCORE>  (34) 
-14.879

>  <name>  (34) 
33

>  <ligand_id>  (34) 
33

>  <original_smiles>  (34) 
[H]c1c([H])c([H])c2c(c1[H])C([H])([H])C([H])([H])C([H])([H])C2([H])N([H])C(=O)C1([H])N(C(=O)C([H])(N([H])C(=O)C([H])(N([H])C([H])([H])[H])C([H])([H])[H])C(C([H])([H])[H])(C([H])([H])[H])C([H])([H])[H])C([H])([H])c2c([H])c(OC([H])([H])C(=O)N([H])c3c([H])c([H])c(N([H])C(=O)N4C([H])([H])C([H])([H])C([H])([H])C([H])(n5nc(-c6c([H])c([H])c(Oc7c([H])c([H])c(F)c([H])c7F)c([H])c6[H])c(C(=O)N([H])[H])c5N([H])[H])C4([H])[H])c(F)c3[H])c([H])c([H])c2C1([H])[H]

>  <smiles>  (34) 
[H]c1c([H])c([H])c2c(c1[H])C([H])([H])C([H])([H])C([H])([H])C2([H])N([H])C(=O)C1([H])N(C(=O)C([H])(N([H])C(=O)C([H])(N([H])C([H])([H])[H])C([H])([H])[H])C(C([H])([H])[H])(C([H])([H])[H])C([H])([H])[H])C([H])([H])c2c([H])c(OC([H])([H])C(=O)N([H])c3c([H])c([H])c(N([H])C(=O)N4C([H])([H])C([H])([H])C([H])([H])C([H])(n5nc(-c6c([H])c([H])c(Oc7c([H])c([H])c(F)c([H])c7F)c([H])c6[H])c(C(=O)N([H])[H])c5N([H])[H])C4([H])[H])c(F)c3[H])c([H])c([H])c2C1([H])[H]

$$$$
34:0:0
     RDKit          3D

 95103  0  0  1  0  0  0  0  0999 V2000
  -30.5140  -18.7400   21.1970 C   0  0  0  0  0  3  0  0  0  0  0  0
  -28.7620  -19.9720   19.4340 C   0  0  0  0  0  3  0  0  0  0  0  0
  -29.8140  -17.8120   20.3670 C   0  0  0  0  0  0  0  0  0  0  0  0
  -29.4540  -20.9000   20.2930 C   0  0  0  0  0  0  0  0  0  0  0  0
  -30.3460  -20.1800   21.1730 C   0  0  0  0  0  0  0  0  0  0  0  0
  -28.9120  -18.5140   19.4830 C   0  0  0  0  0  0  0  0  0  0  0  0
  -27.8810  -17.5710   18.4650 Cl  0  0  0  0  0  0  0  0  0  0  0  0
  -30.7360  -15.2350   20.7590 C   0  0  0  0  0  0  0  0  0  0  0  0
  -30.8500  -12.7530   20.2590 C   0  0  0  0  0  2  0  0  0  0  0  0
  -30.0720  -12.4650   18.9530 C   0  0  0  0  0  2  0  0  0  0  0  0
  -28.5680  -12.2650   19.2340 C   0  0  0  0  0  2  0  0  0  0  0  0
  -27.9960  -13.3470   20.1870 C   0  0  0  0  0  3  0  0  0  0  0  0
  -28.9050  -13.5740   21.4140 C   0  0  0  0  0  2  0  0  0  0  0  0
  -30.2320  -13.9450   20.9010 N   0  0  0  0  0  0  0  0  0  0  0  0
  -31.9510  -15.3630   20.5710 O   0  0  0  0  0  0  0  0  0  0  0  0
  -29.8180  -16.3080   20.6700 N   0  0  0  0  0  0  0  0  0  0  0  0
  -28.8890  -15.9690   20.8680 H   0  0  0  0  0  0  0  0  0  0  0  0
  -25.5670  -13.9680   20.7070 C   0  0  0  0  0  0  0  0  0  0  0  0
  -24.4650  -13.2110   20.9990 C   0  0  0  0  0  0  0  0  0  0  0  0
  -24.9130  -11.8550   21.0290 C   0  0  0  0  0  0  0  0  0  0  0  0
  -26.6140  -13.0730   20.5690 N   0  0  0  0  0  0  0  0  0  0  0  0
  -26.2240  -11.7970   20.8290 N   0  0  0  0  0  0  0  0  0  0  0  0
  -24.1560  -10.6050   21.1750 C   0  0  0  0  0  0  0  0  0  0  0  0
  -24.4820   -9.6570   22.1710 C   0  0  0  0  0  3  0  0  0  0  0  0
  -23.7280   -8.4710   22.3050 C   0  0  0  0  0  3  0  0  0  0  0  0
  -22.6330   -8.2250   21.4420 C   0  0  0  0  0  0  0  0  0  0  0  0
  -22.3270   -9.1620   20.4390 C   0  0  0  0  0  3  0  0  0  0  0  0
  -23.0820  -10.3390   20.3030 C   0  0  0  0  0  3  0  0  0  0  0  0
  -21.8580   -7.0910   21.4820 O   0  0  0  0  0  0  0  0  0  0  0  0
  -21.7120   -6.3590   22.6320 C   0  0  0  0  0  0  0  0  0  0  0  0
  -21.1370   -6.9110   23.7990 C   0  0  0  0  0  3  0  0  0  0  0  0
  -20.9430   -6.1030   24.9370 C   0  0  0  0  0  3  0  0  0  0  0  0
  -21.3120   -4.7450   24.9100 C   0  0  0  0  0  0  0  0  0  0  0  0
  -21.8800   -4.1920   23.7470 C   0  0  0  0  0  3  0  0  0  0  0  0
  -22.0760   -4.9970   22.6120 C   0  0  0  0  0  0  0  0  0  0  0  0
  -22.6040   -4.4540   21.4880 F   0  0  0  0  0  0  0  0  0  0  0  0
  -21.1180   -3.9670   26.0000 F   0  0  0  0  0  0  0  0  0  0  0  0
  -23.0560  -13.7090   21.1400 C   0  0  0  0  0  0  0  0  0  0  0  0
  -22.2500  -13.0460   21.9630 N   0  0  0  0  0  0  0  0  0  0  0  0
  -22.6750  -14.7210   20.5550 O   0  0  0  0  0  0  0  0  0  0  0  0
  -22.5700  -12.2280   22.4610 H   0  0  0  0  0  0  0  0  0  0  0  0
  -21.3010  -13.3640   22.1000 H   0  0  0  0  0  0  0  0  0  0  0  0
  -25.7600  -15.3340   20.5190 N   0  0  0  0  0  0  0  0  0  0  0  0
  -24.9830  -15.9860   20.5380 H   0  0  0  0  0  0  0  0  0  0  0  0
  -26.6110  -15.7490   20.1670 H   0  0  0  0  0  0  0  0  0  0  0  0
  -30.4580  -21.9780   23.1950 O   0  0  0  0  0  0  0  0  0  0  0  0
  -32.2210  -20.1620   23.1040 O   0  0  0  0  0  0  0  0  0  0  0  0
  -31.3250  -21.0940   22.3980 S   0  0  1  0  0  0  0  0  0  0  0  0
  -33.3580  -21.4680   20.5920 C   0  0  0  0  0  1  0  0  0  0  0  0
  -31.7750  -23.3500   20.8760 C   0  0  0  0  0  1  0  0  0  0  0  0
  -32.3480  -22.1170   21.4430 N   0  0  0  0  0  0  0  0  0  0  0  0
  -29.3280  -22.3580   20.4260 O   0  0  0  0  0  0  0  0  0  0  0  0
  -28.8530  -23.4940   19.5140 C   0  0  0  0  0  2  0  0  0  0  0  0
  -28.2940  -24.9400   20.1810 C   0  0  0  0  0  2  0  0  0  0  0  0
  -28.4020  -26.4070   19.6780 O   0  0  0  0  0  0  0  0  0  0  0  0
  -24.5900  -31.6880   23.1510 C   0  0  0  0  0  0  0  0  0  0  0  0
  -27.2900  -27.3150   19.7600 C   0  0  0  0  0  0  0  0  0  0  0  0
  -23.4030  -30.3350   21.4670 C   0  0  0  0  0  3  0  0  0  0  0  0
  -24.8760  -28.9200   19.9100 C   0  0  0  0  0  0  0  0  0  0  0  0
  -25.9340  -30.7410   21.2410 C   0  0  0  0  0  2  0  0  0  0  0  0
  -26.0530  -29.3970   20.5040 C   0  0  0  0  0  0  0  0  0  0  0  0
  -27.2610  -28.6120   20.4100 C   0  0  0  0  0  3  0  0  0  0  0  0
  -26.0830  -26.9350   19.1370 C   0  0  0  0  0  3  0  0  0  0  0  0
  -24.9010  -27.7020   19.2130 C   0  0  0  0  0  3  0  0  0  0  0  0
  -23.6090  -29.7510   20.0440 C   0  0  0  0  0  2  0  0  0  0  0  0
  -24.6630  -30.9420   22.0070 N   0  0  0  0  0  0  0  0  0  0  0  0
  -23.5090  -31.8840   23.7290 O   0  0  0  0  0  0  0  0  0  0  0  0
  -22.8070  -29.2400   22.3850 C   0  0  0  0  0  0  0  0  0  0  0  0
  -21.5060  -28.9380   22.2140 N   0  0  0  0  0  0  0  0  0  0  0  0
  -23.5160  -28.6660   23.2140 O   0  0  0  0  0  0  0  0  0  0  0  0
  -20.9870  -29.4560   21.5190 H   0  0  0  0  0  0  0  0  0  0  0  0
  -18.2660  -27.3530   22.5490 C   0  0  0  0  0  0  0  0  0  0  0  0
  -20.7640  -27.9050   22.9390 C   0  0  0  0  0  3  0  0  0  0  0  0
  -21.0570  -26.5000   22.3630 C   0  0  0  0  0  2  0  0  0  0  0  0
  -20.0480  -26.0640   21.2950 C   0  0  0  0  0  2  0  0  0  0  0  0
  -18.6300  -26.0420   21.8730 C   0  0  0  0  0  2  0  0  0  0  0  0
  -19.2680  -28.2340   23.0360 C   0  0  0  0  0  0  0  0  0  0  0  0
  -18.8780  -29.4540   23.6270 C   0  0  0  0  0  3  0  0  0  0  0  0
  -17.5160  -29.7990   23.7340 C   0  0  0  0  0  3  0  0  0  0  0  0
  -16.5300  -28.9160   23.2630 C   0  0  0  0  0  3  0  0  0  0  0  0
  -16.9040  -27.6950   22.6770 C   0  0  0  0  0  3  0  0  0  0  0  0
  -25.8580  -32.3450   23.7770 C   0  0  0  0  0  3  0  0  0  0  0  0
  -25.5100  -33.7290   24.1350 N   0  0  0  0  0  0  0  0  0  0  0  0
  -25.8130  -34.8080   23.4020 C   0  0  0  0  0  0  0  0  0  0  0  0
  -26.4810  -34.7440   22.3660 O   0  0  0  0  0  0  0  0  0  0  0  0
  -24.9150  -33.8500   24.9420 H   0  0  0  0  0  0  0  0  0  0  0  0
  -24.0270  -36.5580   23.1130 C   0  0  0  0  0  1  0  0  0  0  0  0
  -25.2950  -36.1750   23.8930 C   0  0  0  0  0  3  0  0  0  0  0  0
  -27.4120  -37.1190   24.7050 C   0  0  0  0  0  1  0  0  0  0  0  0
  -26.2930  -37.2610   23.7770 N   0  0  0  0  0  0  0  0  0  0  0  0
  -25.8590  -38.1660   23.9380 H   0  0  0  0  0  0  0  0  0  0  0  0
  -26.3990  -31.5690   25.0400 C   0  0  1  0  0  0  0  0  0  0  0  0
  -25.3200  -31.2960   26.1140 C   0  0  0  0  0  1  0  0  0  0  0  0
  -27.0080  -30.2080   24.6340 C   0  0  0  0  0  1  0  0  0  0  0  0
  -27.5380  -32.3810   25.7030 C   0  0  0  0  0  1  0  0  0  0  0  0
  2  6  2  0
  2  4  1  0
  3 16  1  0
  3  1  2  0
  4 52  1  0
  4  5  2  0
  5  1  1  0
  5 48  1  0
  6  3  1  0
  7  6  1  0
  8 14  1  0
  9 14  1  0
 10 11  1  0
 10  9  1  0
 12 11  1  0
 12 21  1  0
 12 13  1  0
 14 13  1  0
 15  8  2  0
 16  8  1  0
 16 17  1  0
 18 19  2  0
 19 20  1  0
 19 38  1  0
 20 23  1  0
 21 18  1  0
 21 22  1  0
 22 20  2  0
 23 24  1  0
 24 25  2  0
 26 29  1  0
 26 25  1  0
 27 26  2  0
 28 27  1  0
 28 23  2  0
 29 30  1  0
 30 31  1  0
 31 32  2  0
 33 32  1  0
 33 37  1  0
 34 33  2  0
 35 30  2  0
 35 34  1  0
 36 35  1  0
 38 39  1  0
 39 42  1  0
 39 41  1  0
 40 38  2  0
 43 44  1  0
 43 18  1  0
 45 43  1  0
 48 47  2  0
 48 46  2  0
 49 51  1  0
 50 51  1  0
 48 51  1  6
 53 54  1  0
 53 52  1  0
 55 57  1  0
 55 54  1  0
 56 67  2  0
 57 62  1  0
 58 66  1  0
 58 68  1  0
 59 65  1  0
 59 61  1  0
 60 66  1  0
 61 60  1  0
 62 61  2  0
 63 64  1  0
 63 57  2  0
 64 59  2  0
 65 58  1  0
 66 56  1  0
 68 70  2  0
 69 68  1  0
 71 69  1  0
 72 81  2  0
 72 77  1  0
 73 69  1  0
 73 77  1  0
 74 73  1  0
 75 76  1  0
 75 74  1  0
 76 72  1  0
 77 78  2  0
 78 79  1  0
 80 79  2  0
 81 80  1  0
 82 56  1  0
 82 83  1  0
 82 92  1  0
 83 86  1  0
 84 88  1  0
 84 83  1  0
 85 84  2  0
 88 87  1  0
 90 88  1  0
 90 91  1  0
 90 89  1  0
 92 95  1  1
 92 93  1  0
 94 92  1  0
M  ISO  4   8 100  16 100  54 101  55 101
M  END
>  <TORSDO>  (35) 
F 21

>  <SCORE>  (35) 
-12.855

>  <name>  (35) 
34

>  <ligand_id>  (35) 
34

>  <original_smiles>  (35) 
[H]c1c([H])c([H])c2c(c1[H])C([H])([H])C([H])([H])C([H])([H])C2([H])N([H])C(=O)C1([H])N(C(=O)C([H])(N([H])C(=O)C([H])(N([H])C([H])([H])[H])C([H])([H])[H])C(C([H])([H])[H])(C([H])([H])[H])C([H])([H])[H])C([H])([H])c2c([H])c(OC([H])([H])C([H])([H])Oc3c([H])c(Cl)c(N([H])C(=O)N4C([H])([H])C([H])([H])C([H])([H])C([H])(n5nc(-c6c([H])c([H])c(Oc7c([H])c([H])c(F)c([H])c7F)c([H])c6[H])c(C(=O)N([H])[H])c5N([H])[H])C4([H])[H])c([H])c3S(=O)(=O)N(C([H])([H])[H])C([H])([H])[H])c([H])c([H])c2C1([H])[H]

>  <smiles>  (35) 
[H]c1c([H])c([H])c2c(c1[H])C([H])([H])C([H])([H])C([H])([H])C2([H])N([H])C(=O)C1([H])N(C(=O)C([H])(N([H])C(=O)C([H])(N([H])C([H])([H])[H])C([H])([H])[H])C(C([H])([H])[H])(C([H])([H])[H])C([H])([H])[H])C([H])([H])c2c([H])c(OC([H])([H])C([H])([H])Oc3c([H])c(Cl)c(N([H])C(=O)N4C([H])([H])C([H])([H])C([H])([H])C([H])(n5nc(-c6c([H])c([H])c(Oc7c([H])c([H])c(F)c([H])c7F)c([H])c6[H])c(C(=O)N([H])[H])c5N([H])[H])C4([H])[H])c([H])c3S(=O)(=O)N(C([H])([H])[H])C([H])([H])[H])c([H])c([H])c2C1([H])[H]

$$$$
35:0:0
     RDKit          3D

 92100  0  0  1  0  0  0  0  0999 V2000
  -30.0930  -21.6440   19.8970 C   0  0  0  0  0  2  0  0  0  0  0  0
  -28.7710  -19.4130   20.5200 C   0  0  0  0  0  3  0  0  0  0  0  0
  -28.7470  -17.9920   20.6850 C   0  0  0  0  0  3  0  0  0  0  0  0
  -31.0920  -17.8640   20.1880 C   0  0  0  0  0  3  0  0  0  0  0  0
  -29.9650  -20.0980   20.1810 C   0  0  0  0  0  0  0  0  0  0  0  0
  -29.8980  -17.1700   20.5150 C   0  0  0  0  0  0  0  0  0  0  0  0
  -31.1180  -19.2800   20.0270 C   0  0  0  0  0  0  0  0  0  0  0  0
  -32.2960  -19.8620   19.6960 F   0  0  0  0  0  0  0  0  0  0  0  0
  -30.5860  -14.6620   20.3240 C   0  0  0  0  0  0  0  0  0  0  0  0
  -30.3620  -12.4310   19.2500 C   0  0  0  0  0  2  0  0  0  0  0  0
  -29.4080  -12.5780   18.0450 C   0  0  0  0  0  2  0  0  0  0  0  0
  -27.9400  -12.4120   18.4850 C   0  0  0  0  0  2  0  0  0  0  0  0
  -27.5940  -13.2600   19.7380 C   0  0  0  0  0  3  0  0  0  0  0  0
  -28.6620  -13.0970   20.8420 C   0  0  0  0  0  2  0  0  0  0  0  0
  -29.9680  -13.4400   20.2530 N   0  0  0  0  0  0  0  0  0  0  0  0
  -31.7480  -14.8110   19.9310 O   0  0  0  0  0  0  0  0  0  0  0  0
  -29.7820  -15.7150   20.6820 N   0  0  0  0  0  0  0  0  0  0  0  0
  -28.8750  -15.4090   20.9980 H   0  0  0  0  0  0  0  0  0  0  0  0
  -25.2070  -13.8530   20.4820 C   0  0  0  0  0  0  0  0  0  0  0  0
  -24.1460  -13.0790   20.8630 C   0  0  0  0  0  0  0  0  0  0  0  0
  -24.6100  -11.7280   20.8260 C   0  0  0  0  0  0  0  0  0  0  0  0
  -26.2500  -12.9750   20.2340 N   0  0  0  0  0  0  0  0  0  0  0  0
  -25.8980  -11.6910   20.5020 N   0  0  0  0  0  0  0  0  0  0  0  0
  -23.8880  -10.4630   21.0240 C   0  0  0  0  0  0  0  0  0  0  0  0
  -24.3300   -9.4960   21.9530 C   0  0  0  0  0  3  0  0  0  0  0  0
  -23.6090   -8.2980   22.1370 C   0  0  0  0  0  3  0  0  0  0  0  0
  -22.4320   -8.0550   21.3890 C   0  0  0  0  0  0  0  0  0  0  0  0
  -22.0100   -9.0100   20.4490 C   0  0  0  0  0  3  0  0  0  0  0  0
  -22.7310  -10.2020   20.2630 C   0  0  0  0  0  3  0  0  0  0  0  0
  -21.6820   -6.9080   21.4840 O   0  0  0  0  0  0  0  0  0  0  0  0
  -21.6410   -6.1680   22.6380 C   0  0  0  0  0  0  0  0  0  0  0  0
  -21.2130   -6.7220   23.8640 C   0  0  0  0  0  3  0  0  0  0  0  0
  -21.1180   -5.9070   25.0110 C   0  0  0  0  0  3  0  0  0  0  0  0
  -21.4410   -4.5390   24.9320 C   0  0  0  0  0  0  0  0  0  0  0  0
  -21.8610   -3.9850   23.7110 C   0  0  0  0  0  3  0  0  0  0  0  0
  -21.9590   -4.7950   22.5670 C   0  0  0  0  0  0  0  0  0  0  0  0
  -22.3450   -4.2520   21.3870 F   0  0  0  0  0  0  0  0  0  0  0  0
  -21.3430   -3.7540   26.0300 F   0  0  0  0  0  0  0  0  0  0  0  0
  -22.7510  -13.5540   21.1490 C   0  0  0  0  0  0  0  0  0  0  0  0
  -22.0300  -12.8550   22.0200 N   0  0  0  0  0  0  0  0  0  0  0  0
  -22.3070  -14.5800   20.6360 O   0  0  0  0  0  0  0  0  0  0  0  0
  -22.4000  -12.0260   22.4610 H   0  0  0  0  0  0  0  0  0  0  0  0
  -21.0930  -13.1560   22.2510 H   0  0  0  0  0  0  0  0  0  0  0  0
  -25.3650  -15.2240   20.3030 N   0  0  0  0  0  0  0  0  0  0  0  0
  -24.5860  -15.8650   20.4010 H   0  0  0  0  0  0  0  0  0  0  0  0
  -26.1890  -15.6620   19.9120 H   0  0  0  0  0  0  0  0  0  0  0  0
  -29.2420  -24.0320   20.1650 C   0  0  0  0  0  0  0  0  0  0  0  0
  -29.0660  -22.6720   20.2810 N   0  0  0  0  0  0  0  0  0  0  0  0
  -30.3360  -24.4960   19.8360 O   0  0  0  0  0  0  0  0  0  0  0  0
  -28.1540  -22.3390   20.5650 H   0  0  0  0  0  0  0  0  0  0  0  0
  -28.0440  -25.0250   20.4090 C   0  0  0  0  0  2  0  0  0  0  0  0
  -28.3200  -26.4710   20.1830 O   0  0  0  0  0  0  0  0  0  0  0  0
  -24.6270  -31.8890   23.2370 C   0  0  0  0  0  0  0  0  0  0  0  0
  -27.2090  -27.3320   20.1550 C   0  0  0  0  0  0  0  0  0  0  0  0
  -23.4130  -30.5000   21.5980 C   0  0  0  0  0  3  0  0  0  0  0  0
  -24.8520  -28.9530   20.1610 C   0  0  0  0  0  0  0  0  0  0  0  0
  -25.9520  -30.8080   21.4090 C   0  0  0  0  0  2  0  0  0  0  0  0
  -26.0240  -29.4310   20.7610 C   0  0  0  0  0  0  0  0  0  0  0  0
  -27.2060  -28.6300   20.7540 C   0  0  0  0  0  3  0  0  0  0  0  0
  -26.0190  -26.9210   19.5130 C   0  0  0  0  0  3  0  0  0  0  0  0
  -24.8510  -27.7040   19.5280 C   0  0  0  0  0  3  0  0  0  0  0  0
  -23.6210  -29.8320   20.2130 C   0  0  0  0  0  2  0  0  0  0  0  0
  -24.6830  -31.0830   22.1370 N   0  0  0  0  0  0  0  0  0  0  0  0
  -23.5460  -32.1690   23.7750 O   0  0  0  0  0  0  0  0  0  0  0  0
  -22.7520  -29.4800   22.5550 C   0  0  0  0  0  0  0  0  0  0  0  0
  -21.4240  -29.3070   22.4320 N   0  0  0  0  0  0  0  0  0  0  0  0
  -23.4300  -28.8480   23.3690 O   0  0  0  0  0  0  0  0  0  0  0  0
  -20.9350  -29.8680   21.7480 H   0  0  0  0  0  0  0  0  0  0  0  0
  -18.0440  -28.1240   22.9410 C   0  0  0  0  0  0  0  0  0  0  0  0
  -20.6050  -28.3710   23.2050 C   0  0  0  0  0  3  0  0  0  0  0  0
  -20.6990  -26.9410   22.6270 C   0  0  0  0  0  2  0  0  0  0  0  0
  -19.5930  -26.6240   21.6160 C   0  0  0  0  0  2  0  0  0  0  0  0
  -18.2130  -26.7740   22.2650 C   0  0  0  0  0  2  0  0  0  0  0  0
  -19.1670  -28.8810   23.3690 C   0  0  0  0  0  0  0  0  0  0  0  0
  -18.9550  -30.1440   23.9640 C   0  0  0  0  0  3  0  0  0  0  0  0
  -17.6520  -30.6490   24.1350 C   0  0  0  0  0  3  0  0  0  0  0  0
  -16.5440  -29.8900   23.7200 C   0  0  0  0  0  3  0  0  0  0  0  0
  -16.7410  -28.6290   23.1290 C   0  0  0  0  0  3  0  0  0  0  0  0
  -25.9150  -32.5150   23.8550 C   0  0  0  0  0  3  0  0  0  0  0  0
  -26.4350  -31.7360   25.1250 C   0  0  1  0  0  0  0  0  0  0  0  0
  -25.3470  -31.4960   26.1970 C   0  0  0  0  0  1  0  0  0  0  0  0
  -27.0120  -30.3580   24.7240 C   0  0  0  0  0  1  0  0  0  0  0  0
  -27.5920  -32.5220   25.7850 C   0  0  0  0  0  1  0  0  0  0  0  0
  -25.6090  -33.9120   24.1950 N   0  0  0  0  0  0  0  0  0  0  0  0
  -25.9300  -34.9670   23.4340 C   0  0  0  0  0  0  0  0  0  0  0  0
  -26.5850  -34.8670   22.3930 O   0  0  0  0  0  0  0  0  0  0  0  0
  -25.0290  -34.0640   25.0070 H   0  0  0  0  0  0  0  0  0  0  0  0
  -24.1970  -36.7600   23.1090 C   0  0  0  0  0  1  0  0  0  0  0  0
  -25.4500  -36.3550   23.9020 C   0  0  0  0  0  3  0  0  0  0  0  0
  -27.5960  -37.2380   24.7040 C   0  0  0  0  0  1  0  0  0  0  0  0
  -26.4800  -37.4070   23.7760 N   0  0  0  0  0  0  0  0  0  0  0  0
  -26.0760  -38.3270   23.9320 H   0  0  0  0  0  0  0  0  0  0  0  0
  1  5  1  0
  1 48  1  0
  2  3  1  0
  4  6  1  0
  5  2  2  0
  6 17  1  0
  6  3  2  0
  7  5  1  0
  7  4  2  0
  8  7  1  0
  9 17  1  0
 10 15  1  0
 11 12  1  0
 11 10  1  0
 13 12  1  0
 13 22  1  0
 13 14  1  0
 15  9  1  0
 15 14  1  0
 16  9  2  0
 17 18  1  0
 19 20  2  0
 20 39  1  0
 21 20  1  0
 21 24  1  0
 22 19  1  0
 22 23  1  0
 23 21  2  0
 24 25  1  0
 25 26  2  0
 27 30  1  0
 27 26  1  0
 28 27  2  0
 29 28  1  0
 29 24  2  0
 30 31  1  0
 31 32  1  0
 32 33  2  0
 34 33  1  0
 34 38  1  0
 35 34  2  0
 36 31  2  0
 36 35  1  0
 37 36  1  0
 39 40  1  0
 40 43  1  0
 40 42  1  0
 41 39  2  0
 44 45  1  0
 44 19  1  0
 46 44  1  0
 47 48  1  0
 47 51  1  0
 48 50  1  0
 49 47  2  0
 52 51  1  0
 53 64  2  0
 54 52  1  0
 54 59  1  0
 55 63  1  0
 55 65  1  0
 56 62  1  0
 56 58  1  0
 57 63  1  0
 58 57  1  0
 59 58  2  0
 60 61  1  0
 60 54  2  0
 61 56  2  0
 62 55  1  0
 63 53  1  0
 65 67  2  0
 66 65  1  0
 68 66  1  0
 69 78  2  0
 69 74  1  0
 70 66  1  0
 70 74  1  0
 71 70  1  0
 72 73  1  0
 72 71  1  0
 73 69  1  0
 74 75  2  0
 75 76  1  0
 77 76  2  0
 78 77  1  0
 79 53  1  0
 79 84  1  0
 79 80  1  0
 80 83  1  1
 80 81  1  0
 82 80  1  0
 84 87  1  0
 85 89  1  0
 85 84  1  0
 86 85  2  0
 89 88  1  0
 91 89  1  0
 91 92  1  0
 91 90  1  0
M  ISO  4   9 100  17 100  51 101  52 101
M  END
>  <TORSDO>  (36) 
F 19

>  <SCORE>  (36) 
-14.298

>  <name>  (36) 
35

>  <ligand_id>  (36) 
35

>  <original_smiles>  (36) 
[H]c1c([H])c([H])c2c(c1[H])C([H])([H])C([H])([H])C([H])([H])C2([H])N([H])C(=O)C1([H])N(C(=O)C([H])(N([H])C(=O)C([H])(N([H])C([H])([H])[H])C([H])([H])[H])C(C([H])([H])[H])(C([H])([H])[H])C([H])([H])[H])C([H])([H])c2c([H])c(OC([H])([H])C(=O)N([H])C([H])([H])c3c([H])c([H])c(N([H])C(=O)N4C([H])([H])C([H])([H])C([H])([H])C([H])(n5nc(-c6c([H])c([H])c(Oc7c([H])c([H])c(F)c([H])c7F)c([H])c6[H])c(C(=O)N([H])[H])c5N([H])[H])C4([H])[H])c([H])c3F)c([H])c([H])c2C1([H])[H]

>  <smiles>  (36) 
[H]c1c([H])c([H])c2c(c1[H])C([H])([H])C([H])([H])C([H])([H])C2([H])N([H])C(=O)C1([H])N(C(=O)C([H])(N([H])C(=O)C([H])(N([H])C([H])([H])[H])C([H])([H])[H])C(C([H])([H])[H])(C([H])([H])[H])C([H])([H])[H])C([H])([H])c2c([H])c(OC([H])([H])C(=O)N([H])C([H])([H])c3c([H])c([H])c(N([H])C(=O)N4C([H])([H])C([H])([H])C([H])([H])C([H])(n5nc(-c6c([H])c([H])c(Oc7c([H])c([H])c(F)c([H])c7F)c([H])c6[H])c(C(=O)N([H])[H])c5N([H])[H])C4([H])[H])c([H])c3F)c([H])c([H])c2C1([H])[H]

$$$$
36:0:0
     RDKit          3D

 92100  0  0  1  0  0  0  0  0999 V2000
  -28.9590  -19.0450   19.2870 C   0  0  0  0  0  3  0  0  0  0  0  0
  -29.0430  -17.6040   19.5100 C   0  0  0  0  0  3  0  0  0  0  0  0
  -29.5580  -19.9550   20.0940 C   0  0  0  0  0  0  0  0  0  0  0  0
  -29.8110  -17.0870   20.4960 C   0  0  0  0  0  0  0  0  0  0  0  0
  -30.3740  -19.4150   21.2190 C   0  0  0  0  0  0  0  0  0  0  0  0
  -31.3070  -17.5160   22.4440 C   0  0  0  0  0  1  0  0  0  0  0  0
  -30.4820  -18.0310   21.3400 N   0  0  0  0  0  0  0  0  0  0  0  0
  -30.9540  -20.1730   22.0060 O   0  0  0  0  0  0  0  0  0  0  0  0
  -30.5640  -14.6400   20.3840 C   0  0  0  0  0  0  0  0  0  0  0  0
  -30.3610  -12.4110   19.3010 C   0  0  0  0  0  2  0  0  0  0  0  0
  -29.4040  -12.5560   18.0970 C   0  0  0  0  0  2  0  0  0  0  0  0
  -27.9340  -12.3940   18.5360 C   0  0  0  0  0  2  0  0  0  0  0  0
  -27.5890  -13.2440   19.7870 C   0  0  0  0  0  3  0  0  0  0  0  0
  -28.6560  -13.0630   20.8910 C   0  0  0  0  0  2  0  0  0  0  0  0
  -29.9620  -13.4110   20.3100 N   0  0  0  0  0  0  0  0  0  0  0  0
  -31.7130  -14.8250   19.9720 O   0  0  0  0  0  0  0  0  0  0  0  0
  -29.7310  -15.6690   20.7450 N   0  0  0  0  0  0  0  0  0  0  0  0
  -28.8190  -15.3480   21.0280 H   0  0  0  0  0  0  0  0  0  0  0  0
  -25.2010  -13.8510   20.5190 C   0  0  0  0  0  0  0  0  0  0  0  0
  -24.1340  -13.0800   20.8960 C   0  0  0  0  0  0  0  0  0  0  0  0
  -24.5930  -11.7280   20.8620 C   0  0  0  0  0  0  0  0  0  0  0  0
  -26.2410  -12.9680   20.2780 N   0  0  0  0  0  0  0  0  0  0  0  0
  -25.8820  -11.6860   20.5440 N   0  0  0  0  0  0  0  0  0  0  0  0
  -23.8660  -10.4680   21.0570 C   0  0  0  0  0  0  0  0  0  0  0  0
  -24.3110   -9.4930   21.9780 C   0  0  0  0  0  3  0  0  0  0  0  0
  -23.5840   -8.2970   22.1610 C   0  0  0  0  0  3  0  0  0  0  0  0
  -22.3990   -8.0670   21.4240 C   0  0  0  0  0  0  0  0  0  0  0  0
  -21.9730   -9.0290   20.4910 C   0  0  0  0  0  3  0  0  0  0  0  0
  -22.7010  -10.2170   20.3050 C   0  0  0  0  0  3  0  0  0  0  0  0
  -21.6430   -6.9240   21.5160 O   0  0  0  0  0  0  0  0  0  0  0  0
  -21.6200   -6.1660   22.6600 C   0  0  0  0  0  0  0  0  0  0  0  0
  -21.2320   -6.7090   23.9040 C   0  0  0  0  0  3  0  0  0  0  0  0
  -21.1550   -5.8790   25.0410 C   0  0  0  0  0  3  0  0  0  0  0  0
  -21.4560   -4.5080   24.9350 C   0  0  0  0  0  0  0  0  0  0  0  0
  -21.8390   -3.9660   23.6960 C   0  0  0  0  0  3  0  0  0  0  0  0
  -21.9170   -4.7920   22.5610 C   0  0  0  0  0  0  0  0  0  0  0  0
  -22.2660   -4.2600   21.3640 F   0  0  0  0  0  0  0  0  0  0  0  0
  -21.3750   -3.7100   26.0240 F   0  0  0  0  0  0  0  0  0  0  0  0
  -22.7390  -13.5600   21.1770 C   0  0  0  0  0  0  0  0  0  0  0  0
  -22.0160  -12.8650   22.0480 N   0  0  0  0  0  0  0  0  0  0  0  0
  -22.3000  -14.5860   20.6610 O   0  0  0  0  0  0  0  0  0  0  0  0
  -22.3840  -12.0350   22.4880 H   0  0  0  0  0  0  0  0  0  0  0  0
  -21.0800  -13.1690   22.2790 H   0  0  0  0  0  0  0  0  0  0  0  0
  -25.3650  -15.2220   20.3410 N   0  0  0  0  0  0  0  0  0  0  0  0
  -24.5950  -15.8710   20.4540 H   0  0  0  0  0  0  0  0  0  0  0  0
  -26.2030  -15.6640   19.9890 H   0  0  0  0  0  0  0  0  0  0  0  0
  -30.1530  -21.7400   18.4980 C   0  0  0  0  0  1  0  0  0  0  0  0
  -29.5580  -21.3560   19.7810 N   0  0  0  0  0  0  0  0  0  0  0  0
  -28.9810  -22.4970   20.5800 C   0  0  0  0  0  2  0  0  0  0  0  0
  -28.9140  -23.9560   19.9120 C   0  0  0  0  0  3  0  0  0  0  0  0
  -28.2120  -25.1340   20.7150 C   0  0  0  0  0  3  0  0  0  0  0  0
  -28.3600  -26.5180   20.2140 O   0  0  0  0  0  0  0  0  0  0  0  0
  -24.6000  -31.8760   23.2410 C   0  0  0  0  0  0  0  0  0  0  0  0
  -27.2290  -27.3380   20.2050 C   0  0  0  0  0  0  0  0  0  0  0  0
  -23.3980  -30.4730   21.5990 C   0  0  0  0  0  3  0  0  0  0  0  0
  -24.8540  -28.9200   20.1820 C   0  0  0  0  0  0  0  0  0  0  0  0
  -25.9340  -30.8050   21.4150 C   0  0  0  0  0  2  0  0  0  0  0  0
  -26.0190  -29.4240   20.7760 C   0  0  0  0  0  0  0  0  0  0  0  0
  -27.2110  -28.6440   20.7750 C   0  0  0  0  0  3  0  0  0  0  0  0
  -26.0460  -26.8770   19.5890 C   0  0  0  0  0  3  0  0  0  0  0  0
  -24.8690  -27.6510   19.5790 C   0  0  0  0  0  3  0  0  0  0  0  0
  -23.6150  -29.7920   20.2230 C   0  0  0  0  0  2  0  0  0  0  0  0
  -24.6630  -31.0690   22.1420 N   0  0  0  0  0  0  0  0  0  0  0  0
  -23.5160  -32.1530   23.7750 O   0  0  0  0  0  0  0  0  0  0  0  0
  -22.7370  -29.4580   22.5620 C   0  0  0  0  0  0  0  0  0  0  0  0
  -21.4110  -29.2800   22.4340 N   0  0  0  0  0  0  0  0  0  0  0  0
  -23.4150  -28.8330   23.3810 O   0  0  0  0  0  0  0  0  0  0  0  0
  -20.9230  -29.8370   21.7470 H   0  0  0  0  0  0  0  0  0  0  0  0
  -18.0330  -28.0870   22.9280 C   0  0  0  0  0  0  0  0  0  0  0  0
  -20.5900  -28.3440   23.2050 C   0  0  0  0  0  3  0  0  0  0  0  0
  -20.6920  -26.9120   22.6310 C   0  0  0  0  0  2  0  0  0  0  0  0
  -19.5920  -26.5890   21.6140 C   0  0  0  0  0  2  0  0  0  0  0  0
  -18.2100  -26.7370   22.2560 C   0  0  0  0  0  2  0  0  0  0  0  0
  -19.1520  -28.8490   23.3600 C   0  0  0  0  0  0  0  0  0  0  0  0
  -18.9320  -30.1140   23.9490 C   0  0  0  0  0  3  0  0  0  0  0  0
  -17.6280  -30.6170   24.1110 C   0  0  0  0  0  3  0  0  0  0  0  0
  -16.5240  -29.8520   23.6960 C   0  0  0  0  0  3  0  0  0  0  0  0
  -16.7280  -28.5900   23.1100 C   0  0  0  0  0  3  0  0  0  0  0  0
  -25.8820  -32.5100   23.8640 C   0  0  0  0  0  3  0  0  0  0  0  0
  -26.3970  -31.7380   25.1410 C   0  0  1  0  0  0  0  0  0  0  0  0
  -25.3040  -31.5030   26.2100 C   0  0  0  0  0  1  0  0  0  0  0  0
  -26.9780  -30.3600   24.7490 C   0  0  0  0  0  1  0  0  0  0  0  0
  -27.5480  -32.5310   25.8040 C   0  0  0  0  0  1  0  0  0  0  0  0
  -25.5720  -33.9080   24.1950 N   0  0  0  0  0  0  0  0  0  0  0  0
  -25.9050  -34.9610   23.4360 C   0  0  0  0  0  0  0  0  0  0  0  0
  -26.5760  -34.8570   22.4060 O   0  0  0  0  0  0  0  0  0  0  0  0
  -24.9780  -34.0620   24.9970 H   0  0  0  0  0  0  0  0  0  0  0  0
  -24.1790  -36.7550   23.0770 C   0  0  0  0  0  1  0  0  0  0  0  0
  -25.4170  -36.3490   23.8920 C   0  0  0  0  0  3  0  0  0  0  0  0
  -27.5500  -37.2330   24.7300 C   0  0  0  0  0  1  0  0  0  0  0  0
  -26.4510  -37.4010   23.7820 N   0  0  0  0  0  0  0  0  0  0  0  0
  -26.0450  -38.3220   23.9280 H   0  0  0  0  0  0  0  0  0  0  0  0
  1  2  1  0
  1  3  2  0
  2  4  2  0
  3  5  1  0
  4 17  1  0
  4  7  1  0
  5  7  1  0
  5  8  2  0
  7  6  1  0
  9 17  1  0
 10 15  1  0
 11 12  1  0
 11 10  1  0
 13 12  1  0
 13 22  1  0
 13 14  1  0
 15  9  1  0
 15 14  1  0
 16  9  2  0
 17 18  1  0
 19 20  2  0
 20 39  1  0
 21 20  1  0
 21 24  1  0
 22 19  1  0
 22 23  1  0
 23 21  2  0
 24 25  1  0
 25 26  2  0
 27 30  1  0
 27 26  1  0
 28 27  2  0
 29 28  1  0
 29 24  2  0
 30 31  1  0
 31 32  1  0
 32 33  2  0
 34 33  1  0
 34 38  1  0
 35 34  2  0
 36 31  2  0
 36 35  1  0
 37 36  1  0
 39 40  1  0
 40 43  1  0
 40 42  1  0
 41 39  2  0
 44 45  1  0
 44 19  1  0
 46 44  1  0
 47 48  1  0
 48  3  1  0
 48 49  1  0
 50 49  1  0
 50 51  2  0
 52 51  1  0
 53 64  2  0
 54 52  1  0
 54 59  1  0
 55 63  1  0
 55 65  1  0
 56 62  1  0
 56 58  1  0
 57 63  1  0
 58 57  1  0
 59 58  2  0
 60 54  2  0
 61 60  1  0
 61 56  2  0
 62 55  1  0
 63 53  1  0
 65 67  2  0
 66 65  1  0
 68 66  1  0
 69 78  2  0
 69 74  1  0
 70 66  1  0
 70 74  1  0
 71 70  1  0
 72 73  1  0
 72 71  1  0
 73 69  1  0
 74 75  2  0
 75 76  1  0
 77 76  2  0
 78 77  1  0
 79 53  1  0
 79 84  1  0
 79 80  1  0
 80 83  1  1
 80 81  1  0
 82 80  1  0
 84 87  1  0
 85 89  1  0
 85 84  1  0
 86 85  2  0
 89 88  1  0
 91 89  1  0
 91 92  1  0
 91 90  1  0
M  ISO  4   9 100  17 100  51 101  52 101
M  END
>  <TORSDO>  (37) 
F 20

>  <SCORE>  (37) 
-13.788

>  <name>  (37) 
36

>  <ligand_id>  (37) 
36

>  <original_smiles>  (37) 
[H]c1c([H])c([H])c2c(c1[H])C([H])([H])C([H])([H])C([H])([H])C2([H])N([H])C(=O)C1([H])N(C(=O)C([H])(N([H])C(=O)C([H])(N([H])C([H])([H])[H])C([H])([H])[H])C(C([H])([H])[H])(C([H])([H])[H])C([H])([H])[H])C([H])([H])c2c([H])c(OC([H])([H])C([H])([H])C([H])([H])N(c3c([H])c([H])c(N([H])C(=O)N4C([H])([H])C([H])([H])C([H])([H])C([H])(n5nc(-c6c([H])c([H])c(Oc7c([H])c([H])c(F)c([H])c7F)c([H])c6[H])c(C(=O)N([H])[H])c5N([H])[H])C4([H])[H])n(C([H])([H])[H])c3=O)C([H])([H])[H])c([H])c([H])c2C1([H])[H]

>  <smiles>  (37) 
[H]c1c([H])c([H])c2c(c1[H])C([H])([H])C([H])([H])C([H])([H])C2([H])N([H])C(=O)C1([H])N(C(=O)C([H])(N([H])C(=O)C([H])(N([H])C([H])([H])[H])C([H])([H])[H])C(C([H])([H])[H])(C([H])([H])[H])C([H])([H])[H])C([H])([H])c2c([H])c(OC([H])([H])C([H])([H])C([H])([H])N(c3c([H])c([H])c(N([H])C(=O)N4C([H])([H])C([H])([H])C([H])([H])C([H])(n5nc(-c6c([H])c([H])c(Oc7c([H])c([H])c(F)c([H])c7F)c([H])c6[H])c(C(=O)N([H])[H])c5N([H])[H])C4([H])[H])n(C([H])([H])[H])c3=O)C([H])([H])[H])c([H])c([H])c2C1([H])[H]

$$$$
37:0:0
     RDKit          3D

 91 99  0  0  1  0  0  0  0  0999 V2000
  -28.9840  -23.4060   20.2160 C   0  0  0  0  0  0  0  0  0  0  0  0
  -28.5330  -22.0740   20.0580 N   0  0  0  0  0  0  0  0  0  0  0  0
  -30.1440  -23.6320   20.5700 O   0  0  0  0  0  0  0  0  0  0  0  0
  -27.5480  -22.0810   19.8230 H   0  0  0  0  0  0  0  0  0  0  0  0
  -30.6150  -18.6040   20.2960 C   0  0  0  0  0  3  0  0  0  0  0  0
  -30.3410  -20.0470   20.2500 C   0  0  0  0  0  3  0  0  0  0  0  0
  -28.2990  -18.1820   20.2110 C   0  0  0  0  0  3  0  0  0  0  0  0
  -29.5970  -17.5800   20.2820 C   0  0  0  0  0  0  0  0  0  0  0  0
  -29.0190  -20.6250   20.1720 C   0  0  0  0  0  0  0  0  0  0  0  0
  -28.0240  -19.5980   20.1470 C   0  0  0  0  0  0  0  0  0  0  0  0
  -26.7300  -19.9890   20.0570 F   0  0  0  0  0  0  0  0  0  0  0  0
  -30.5510  -14.9620   20.1150 C   0  0  0  0  0  0  0  0  0  0  0  0
  -30.4380  -12.6340   19.1180 C   0  0  0  0  0  2  0  0  0  0  0  0
  -29.4590  -12.6410   17.9190 C   0  0  0  0  0  2  0  0  0  0  0  0
  -28.0060  -12.4260   18.3900 C   0  0  0  0  0  2  0  0  0  0  0  0
  -27.6440  -13.3100   19.6110 C   0  0  0  0  0  3  0  0  0  0  0  0
  -28.7370  -13.2580   20.7010 C   0  0  0  0  0  2  0  0  0  0  0  0
  -29.9960  -13.6850   20.0730 N   0  0  0  0  0  0  0  0  0  0  0  0
  -31.7310  -15.0980   19.7720 O   0  0  0  0  0  0  0  0  0  0  0  0
  -29.6790  -16.0480   20.3690 N   0  0  0  0  0  0  0  0  0  0  0  0
  -28.7830  -15.6540   20.6080 H   0  0  0  0  0  0  0  0  0  0  0  0
  -25.2800  -13.8790   20.4200 C   0  0  0  0  0  0  0  0  0  0  0  0
  -24.2290  -13.0980   20.8130 C   0  0  0  0  0  0  0  0  0  0  0  0
  -24.6940  -11.7480   20.7490 C   0  0  0  0  0  0  0  0  0  0  0  0
  -26.3180  -13.0050   20.1380 N   0  0  0  0  0  0  0  0  0  0  0  0
  -25.9750  -11.7180   20.4010 N   0  0  0  0  0  0  0  0  0  0  0  0
  -23.9740  -10.4820   20.9410 C   0  0  0  0  0  0  0  0  0  0  0  0
  -24.4040   -9.5240   21.8840 C   0  0  0  0  0  3  0  0  0  0  0  0
  -23.6830   -8.3230   22.0640 C   0  0  0  0  0  3  0  0  0  0  0  0
  -22.5180   -8.0720   21.3000 C   0  0  0  0  0  0  0  0  0  0  0  0
  -22.1080   -9.0210   20.3460 C   0  0  0  0  0  3  0  0  0  0  0  0
  -22.8300  -10.2120   20.1650 C   0  0  0  0  0  3  0  0  0  0  0  0
  -21.7710   -6.9240   21.3890 O   0  0  0  0  0  0  0  0  0  0  0  0
  -21.6710   -6.2170   22.5600 C   0  0  0  0  0  0  0  0  0  0  0  0
  -21.1670   -6.8020   23.7430 C   0  0  0  0  0  3  0  0  0  0  0  0
  -21.0170   -6.0230   24.9060 C   0  0  0  0  0  3  0  0  0  0  0  0
  -21.3610   -4.6570   24.8890 C   0  0  0  0  0  0  0  0  0  0  0  0
  -21.8590   -4.0710   23.7110 C   0  0  0  0  0  3  0  0  0  0  0  0
  -22.0100   -4.8490   22.5500 C   0  0  0  0  0  0  0  0  0  0  0  0
  -22.4700   -4.2740   21.4130 F   0  0  0  0  0  0  0  0  0  0  0  0
  -21.2100   -3.9060   26.0050 F   0  0  0  0  0  0  0  0  0  0  0  0
  -22.8380  -13.5690   21.1280 C   0  0  0  0  0  0  0  0  0  0  0  0
  -22.1370  -12.8660   22.0090 N   0  0  0  0  0  0  0  0  0  0  0  0
  -22.3840  -14.5970   20.6260 O   0  0  0  0  0  0  0  0  0  0  0  0
  -22.5180  -12.0350   22.4370 H   0  0  0  0  0  0  0  0  0  0  0  0
  -21.2060  -13.1640   22.2620 H   0  0  0  0  0  0  0  0  0  0  0  0
  -25.4330  -15.2520   20.2490 N   0  0  0  0  0  0  0  0  0  0  0  0
  -24.6480  -15.8850   20.3550 H   0  0  0  0  0  0  0  0  0  0  0  0
  -26.2200  -15.6750   19.7760 H   0  0  0  0  0  0  0  0  0  0  0  0
  -27.9800  -24.6920   19.9200 C   0  0  0  0  0  2  0  0  0  0  0  0
  -28.3120  -26.1880   20.1970 O   0  0  0  0  0  0  0  0  0  0  0  0
  -24.6660  -31.8440   23.2340 C   0  0  0  0  0  0  0  0  0  0  0  0
  -27.2610  -27.1790   20.1420 C   0  0  0  0  0  0  0  0  0  0  0  0
  -23.4720  -30.4670   21.5760 C   0  0  0  0  0  3  0  0  0  0  0  0
  -24.9260  -28.9180   20.1340 C   0  0  0  0  0  0  0  0  0  0  0  0
  -26.0270  -30.7400   21.4210 C   0  0  0  0  0  2  0  0  0  0  0  0
  -26.1060  -29.3580   20.7490 C   0  0  0  0  0  0  0  0  0  0  0  0
  -27.2740  -28.5040   20.7380 C   0  0  0  0  0  3  0  0  0  0  0  0
  -26.0520  -26.8450   19.4880 C   0  0  0  0  0  3  0  0  0  0  0  0
  -24.9120  -27.6740   19.4900 C   0  0  0  0  0  3  0  0  0  0  0  0
  -23.6970  -29.8110   20.1890 C   0  0  0  0  0  2  0  0  0  0  0  0
  -24.7420  -31.0380   22.1320 N   0  0  0  0  0  0  0  0  0  0  0  0
  -23.5780  -32.1210   23.7620 O   0  0  0  0  0  0  0  0  0  0  0  0
  -22.7940  -29.4450   22.5230 C   0  0  0  0  0  0  0  0  0  0  0  0
  -21.4650  -29.2810   22.3990 N   0  0  0  0  0  0  0  0  0  0  0  0
  -23.4660  -28.8030   23.3340 O   0  0  0  0  0  0  0  0  0  0  0  0
  -20.9790  -29.8510   21.7200 H   0  0  0  0  0  0  0  0  0  0  0  0
  -18.0770  -28.1010   22.9080 C   0  0  0  0  0  0  0  0  0  0  0  0
  -20.6410  -28.3360   23.1580 C   0  0  0  0  0  3  0  0  0  0  0  0
  -20.7240  -26.9140   22.5550 C   0  0  0  0  0  2  0  0  0  0  0  0
  -19.6100  -26.6210   21.5450 C   0  0  0  0  0  2  0  0  0  0  0  0
  -18.2360  -26.7640   22.2040 C   0  0  0  0  0  2  0  0  0  0  0  0
  -19.2060  -28.8470   23.3430 C   0  0  0  0  0  0  0  0  0  0  0  0
  -19.0010  -30.0970   23.9630 C   0  0  0  0  0  3  0  0  0  0  0  0
  -17.7010  -30.6040   24.1540 C   0  0  0  0  0  3  0  0  0  0  0  0
  -16.5880  -29.8560   23.7330 C   0  0  0  0  0  3  0  0  0  0  0  0
  -16.7770  -28.6060   23.1170 C   0  0  0  0  0  3  0  0  0  0  0  0
  -25.9420  -32.4740   23.8720 C   0  0  0  0  0  3  0  0  0  0  0  0
  -25.6290  -33.8700   24.2110 N   0  0  0  0  0  0  0  0  0  0  0  0
  -25.9410  -34.9310   23.4540 C   0  0  0  0  0  0  0  0  0  0  0  0
  -26.5900  -34.8350   22.4080 O   0  0  0  0  0  0  0  0  0  0  0  0
  -25.0490  -34.0180   25.0240 H   0  0  0  0  0  0  0  0  0  0  0  0
  -24.1860  -36.7120   23.1640 C   0  0  0  0  0  1  0  0  0  0  0  0
  -25.4600  -36.3150   23.9290 C   0  0  0  0  0  3  0  0  0  0  0  0
  -27.6110  -37.2250   24.6860 C   0  0  0  0  0  1  0  0  0  0  0  0
  -26.4790  -37.3770   23.7770 N   0  0  0  0  0  0  0  0  0  0  0  0
  -26.0690  -38.2950   23.9310 H   0  0  0  0  0  0  0  0  0  0  0  0
  -26.4440  -31.6960   25.1500 C   0  0  1  0  0  0  0  0  0  0  0  0
  -25.3410  -31.4590   26.2070 C   0  0  0  0  0  1  0  0  0  0  0  0
  -27.0260  -30.3170   24.7630 C   0  0  0  0  0  1  0  0  0  0  0  0
  -27.5910  -32.4850   25.8250 C   0  0  0  0  0  1  0  0  0  0  0  0
  1  3  2  0
  2  9  1  0
  2  1  1  0
  4  2  1  0
  6  5  2  0
  7  8  2  0
  8  5  1  0
  8 20  1  0
  9  6  1  0
 10  9  2  0
 10  7  1  0
 11 10  1  0
 12 20  1  0
 13 18  1  0
 14 15  1  0
 14 13  1  0
 16 15  1  0
 16 25  1  0
 16 17  1  0
 18 12  1  0
 18 17  1  0
 19 12  2  0
 20 21  1  0
 22 23  2  0
 23 42  1  0
 24 23  1  0
 24 27  1  0
 25 26  1  0
 25 22  1  0
 26 24  2  0
 27 28  1  0
 28 29  2  0
 30 33  1  0
 30 29  1  0
 31 30  2  0
 32 31  1  0
 32 27  2  0
 33 34  1  0
 34 35  1  0
 35 36  2  0
 37 36  1  0
 37 41  1  0
 38 37  2  0
 39 34  2  0
 39 38  1  0
 40 39  1  0
 42 43  1  0
 43 46  1  0
 43 45  1  0
 44 42  2  0
 47 48  1  0
 47 22  1  0
 49 47  1  0
 50 51  1  0
 50  1  1  0
 52 63  2  0
 53 51  1  0
 53 58  1  0
 54 62  1  0
 54 64  1  0
 55 61  1  0
 55 57  1  0
 56 62  1  0
 57 56  1  0
 58 57  2  0
 59 60  1  0
 59 53  2  0
 60 55  2  0
 61 54  1  0
 62 52  1  0
 64 66  2  0
 65 64  1  0
 67 65  1  0
 68 77  2  0
 68 73  1  0
 69 65  1  0
 69 73  1  0
 70 69  1  0
 71 72  1  0
 71 70  1  0
 72 68  1  0
 73 74  2  0
 74 75  1  0
 76 75  2  0
 77 76  1  0
 78 52  1  0
 78 79  1  0
 78 88  1  0
 79 82  1  0
 80 84  1  0
 80 79  1  0
 81 80  2  0
 84 83  1  0
 86 84  1  0
 86 87  1  0
 86 85  1  0
 88 91  1  1
 88 89  1  0
 90 88  1  0
M  ISO  4  12 100  20 100  50 101  51 101
M  END
>  <TORSDO>  (38) 
F 18

>  <SCORE>  (38) 
-14.264

>  <name>  (38) 
37

>  <ligand_id>  (38) 
37

>  <original_smiles>  (38) 
[H]c1c([H])c([H])c2c(c1[H])C([H])([H])C([H])([H])C([H])([H])C2([H])N([H])C(=O)C1([H])N(C(=O)C([H])(N([H])C(=O)C([H])(N([H])C([H])([H])[H])C([H])([H])[H])C(C([H])([H])[H])(C([H])([H])[H])C([H])([H])[H])C([H])([H])c2c([H])c(OC([H])([H])C(=O)N([H])c3c([H])c([H])c(N([H])C(=O)N4C([H])([H])C([H])([H])C([H])([H])C([H])(n5nc(-c6c([H])c([H])c(Oc7c([H])c([H])c(F)c([H])c7F)c([H])c6[H])c(C(=O)N([H])[H])c5N([H])[H])C4([H])[H])c([H])c3F)c([H])c([H])c2C1([H])[H]

>  <smiles>  (38) 
[H]c1c([H])c([H])c2c(c1[H])C([H])([H])C([H])([H])C([H])([H])C2([H])N([H])C(=O)C1([H])N(C(=O)C([H])(N([H])C(=O)C([H])(N([H])C([H])([H])[H])C([H])([H])[H])C(C([H])([H])[H])(C([H])([H])[H])C([H])([H])[H])C([H])([H])c2c([H])c(OC([H])([H])C(=O)N([H])c3c([H])c([H])c(N([H])C(=O)N4C([H])([H])C([H])([H])C([H])([H])C([H])(n5nc(-c6c([H])c([H])c(Oc7c([H])c([H])c(F)c([H])c7F)c([H])c6[H])c(C(=O)N([H])[H])c5N([H])[H])C4([H])[H])c([H])c3F)c([H])c([H])c2C1([H])[H]

$$$$
38:0:0
     RDKit          3D

 91 99  0  0  1  0  0  0  0  0999 V2000
  -28.9840  -23.4060   20.2160 C   0  0  0  0  0  0  0  0  0  0  0  0
  -28.5330  -22.0740   20.0580 N   0  0  0  0  0  0  0  0  0  0  0  0
  -30.1440  -23.6320   20.5700 O   0  0  0  0  0  0  0  0  0  0  0  0
  -27.5480  -22.0810   19.8230 H   0  0  0  0  0  0  0  0  0  0  0  0
  -30.6150  -18.6040   20.2960 C   0  0  0  0  0  3  0  0  0  0  0  0
  -30.3410  -20.0470   20.2500 C   0  0  0  0  0  3  0  0  0  0  0  0
  -28.2990  -18.1820   20.2110 C   0  0  0  0  0  3  0  0  0  0  0  0
  -29.5970  -17.5800   20.2820 C   0  0  0  0  0  0  0  0  0  0  0  0
  -29.0190  -20.6250   20.1720 C   0  0  0  0  0  0  0  0  0  0  0  0
  -28.0240  -19.5980   20.1470 C   0  0  0  0  0  0  0  0  0  0  0  0
  -26.7300  -19.9890   20.0570 F   0  0  0  0  0  0  0  0  0  0  0  0
  -30.5510  -14.9620   20.1150 C   0  0  0  0  0  0  0  0  0  0  0  0
  -30.4380  -12.6340   19.1180 C   0  0  0  0  0  2  0  0  0  0  0  0
  -29.4590  -12.6410   17.9190 C   0  0  0  0  0  2  0  0  0  0  0  0
  -28.0060  -12.4260   18.3900 C   0  0  0  0  0  2  0  0  0  0  0  0
  -27.6440  -13.3100   19.6110 C   0  0  0  0  0  3  0  0  0  0  0  0
  -28.7370  -13.2580   20.7010 C   0  0  0  0  0  2  0  0  0  0  0  0
  -29.9960  -13.6850   20.0730 N   0  0  0  0  0  0  0  0  0  0  0  0
  -31.7310  -15.0980   19.7720 O   0  0  0  0  0  0  0  0  0  0  0  0
  -29.6790  -16.0480   20.3690 N   0  0  0  0  0  0  0  0  0  0  0  0
  -28.7830  -15.6540   20.6080 H   0  0  0  0  0  0  0  0  0  0  0  0
  -25.2800  -13.8790   20.4200 C   0  0  0  0  0  0  0  0  0  0  0  0
  -24.2290  -13.0980   20.8130 C   0  0  0  0  0  0  0  0  0  0  0  0
  -24.6940  -11.7480   20.7490 C   0  0  0  0  0  0  0  0  0  0  0  0
  -26.3180  -13.0050   20.1380 N   0  0  0  0  0  0  0  0  0  0  0  0
  -25.9750  -11.7180   20.4010 N   0  0  0  0  0  0  0  0  0  0  0  0
  -23.9740  -10.4820   20.9410 C   0  0  0  0  0  0  0  0  0  0  0  0
  -24.4040   -9.5240   21.8840 C   0  0  0  0  0  3  0  0  0  0  0  0
  -23.6830   -8.3230   22.0640 C   0  0  0  0  0  3  0  0  0  0  0  0
  -22.5180   -8.0720   21.3000 C   0  0  0  0  0  0  0  0  0  0  0  0
  -22.1080   -9.0210   20.3460 C   0  0  0  0  0  3  0  0  0  0  0  0
  -22.8300  -10.2120   20.1650 C   0  0  0  0  0  3  0  0  0  0  0  0
  -21.7710   -6.9240   21.3890 O   0  0  0  0  0  0  0  0  0  0  0  0
  -21.6710   -6.2170   22.5600 C   0  0  0  0  0  0  0  0  0  0  0  0
  -21.1670   -6.8020   23.7430 C   0  0  0  0  0  3  0  0  0  0  0  0
  -21.0170   -6.0230   24.9060 C   0  0  0  0  0  3  0  0  0  0  0  0
  -21.3610   -4.6570   24.8890 C   0  0  0  0  0  0  0  0  0  0  0  0
  -21.8590   -4.0710   23.7110 C   0  0  0  0  0  3  0  0  0  0  0  0
  -22.0100   -4.8490   22.5500 C   0  0  0  0  0  0  0  0  0  0  0  0
  -22.4700   -4.2740   21.4130 F   0  0  0  0  0  0  0  0  0  0  0  0
  -21.2100   -3.9060   26.0050 F   0  0  0  0  0  0  0  0  0  0  0  0
  -22.8380  -13.5690   21.1280 C   0  0  0  0  0  0  0  0  0  0  0  0
  -22.1370  -12.8660   22.0090 N   0  0  0  0  0  0  0  0  0  0  0  0
  -22.3840  -14.5970   20.6260 O   0  0  0  0  0  0  0  0  0  0  0  0
  -22.5180  -12.0350   22.4370 H   0  0  0  0  0  0  0  0  0  0  0  0
  -21.2060  -13.1640   22.2620 H   0  0  0  0  0  0  0  0  0  0  0  0
  -25.4330  -15.2520   20.2490 N   0  0  0  0  0  0  0  0  0  0  0  0
  -24.6480  -15.8850   20.3550 H   0  0  0  0  0  0  0  0  0  0  0  0
  -26.2200  -15.6750   19.7760 H   0  0  0  0  0  0  0  0  0  0  0  0
  -27.9800  -24.6920   19.9200 C   0  0  0  0  0  2  0  0  0  0  0  0
  -28.3120  -26.1880   20.1970 O   0  0  0  0  0  0  0  0  0  0  0  0
  -24.6660  -31.8440   23.2340 C   0  0  0  0  0  0  0  0  0  0  0  0
  -27.2610  -27.1790   20.1420 C   0  0  0  0  0  0  0  0  0  0  0  0
  -23.4720  -30.4670   21.5760 C   0  0  0  0  0  3  0  0  0  0  0  0
  -24.9260  -28.9180   20.1340 C   0  0  0  0  0  0  0  0  0  0  0  0
  -26.0270  -30.7400   21.4210 C   0  0  0  0  0  2  0  0  0  0  0  0
  -26.1060  -29.3580   20.7490 C   0  0  0  0  0  0  0  0  0  0  0  0
  -27.2740  -28.5040   20.7380 C   0  0  0  0  0  3  0  0  0  0  0  0
  -26.0520  -26.8450   19.4880 C   0  0  0  0  0  3  0  0  0  0  0  0
  -24.9120  -27.6740   19.4900 C   0  0  0  0  0  3  0  0  0  0  0  0
  -23.6970  -29.8110   20.1890 C   0  0  0  0  0  2  0  0  0  0  0  0
  -24.7420  -31.0380   22.1320 N   0  0  0  0  0  0  0  0  0  0  0  0
  -23.5780  -32.1210   23.7620 O   0  0  0  0  0  0  0  0  0  0  0  0
  -22.7940  -29.4450   22.5230 C   0  0  0  0  0  0  0  0  0  0  0  0
  -21.4650  -29.2810   22.3990 N   0  0  0  0  0  0  0  0  0  0  0  0
  -23.4660  -28.8030   23.3340 O   0  0  0  0  0  0  0  0  0  0  0  0
  -20.9790  -29.8510   21.7200 H   0  0  0  0  0  0  0  0  0  0  0  0
  -18.0770  -28.1010   22.9080 C   0  0  0  0  0  0  0  0  0  0  0  0
  -20.6410  -28.3360   23.1580 C   0  0  0  0  0  3  0  0  0  0  0  0
  -20.7240  -26.9140   22.5550 C   0  0  0  0  0  2  0  0  0  0  0  0
  -19.6100  -26.6210   21.5450 C   0  0  0  0  0  2  0  0  0  0  0  0
  -18.2360  -26.7640   22.2040 C   0  0  0  0  0  2  0  0  0  0  0  0
  -19.2060  -28.8470   23.3430 C   0  0  0  0  0  0  0  0  0  0  0  0
  -19.0010  -30.0970   23.9630 C   0  0  0  0  0  3  0  0  0  0  0  0
  -17.7010  -30.6040   24.1540 C   0  0  0  0  0  3  0  0  0  0  0  0
  -16.5880  -29.8560   23.7330 C   0  0  0  0  0  3  0  0  0  0  0  0
  -16.7770  -28.6060   23.1170 C   0  0  0  0  0  3  0  0  0  0  0  0
  -25.9420  -32.4740   23.8720 C   0  0  0  0  0  3  0  0  0  0  0  0
  -25.6290  -33.8700   24.2110 N   0  0  0  0  0  0  0  0  0  0  0  0
  -25.9410  -34.9310   23.4540 C   0  0  0  0  0  0  0  0  0  0  0  0
  -26.5900  -34.8350   22.4080 O   0  0  0  0  0  0  0  0  0  0  0  0
  -25.0490  -34.0180   25.0240 H   0  0  0  0  0  0  0  0  0  0  0  0
  -24.1860  -36.7120   23.1640 C   0  0  0  0  0  1  0  0  0  0  0  0
  -25.4600  -36.3150   23.9290 C   0  0  0  0  0  3  0  0  0  0  0  0
  -27.6110  -37.2250   24.6860 C   0  0  0  0  0  1  0  0  0  0  0  0
  -26.4790  -37.3770   23.7770 N   0  0  0  0  0  0  0  0  0  0  0  0
  -26.0690  -38.2950   23.9310 H   0  0  0  0  0  0  0  0  0  0  0  0
  -26.4440  -31.6960   25.1500 C   0  0  1  0  0  0  0  0  0  0  0  0
  -25.3410  -31.4590   26.2070 C   0  0  0  0  0  1  0  0  0  0  0  0
  -27.0260  -30.3170   24.7630 C   0  0  0  0  0  1  0  0  0  0  0  0
  -27.5910  -32.4850   25.8250 C   0  0  0  0  0  1  0  0  0  0  0  0
  1  3  2  0
  2  9  1  0
  2  1  1  0
  4  2  1  0
  6  5  2  0
  7  8  2  0
  8  5  1  0
  8 20  1  0
  9  6  1  0
 10  9  2  0
 10  7  1  0
 11 10  1  0
 12 20  1  0
 13 18  1  0
 14 15  1  0
 14 13  1  0
 16 15  1  0
 16 25  1  0
 16 17  1  0
 18 12  1  0
 18 17  1  0
 19 12  2  0
 20 21  1  0
 22 23  2  0
 23 42  1  0
 24 23  1  0
 24 27  1  0
 25 26  1  0
 25 22  1  0
 26 24  2  0
 27 28  1  0
 28 29  2  0
 30 33  1  0
 30 29  1  0
 31 30  2  0
 32 31  1  0
 32 27  2  0
 33 34  1  0
 34 35  1  0
 35 36  2  0
 37 36  1  0
 37 41  1  0
 38 37  2  0
 39 34  2  0
 39 38  1  0
 40 39  1  0
 42 43  1  0
 43 46  1  0
 43 45  1  0
 44 42  2  0
 47 48  1  0
 47 22  1  0
 49 47  1  0
 50 51  1  0
 50  1  1  0
 52 63  2  0
 53 51  1  0
 53 58  1  0
 54 62  1  0
 54 64  1  0
 55 61  1  0
 55 57  1  0
 56 62  1  0
 57 56  1  0
 58 57  2  0
 59 60  1  0
 59 53  2  0
 60 55  2  0
 61 54  1  0
 62 52  1  0
 64 66  2  0
 65 64  1  0
 67 65  1  0
 68 77  2  0
 68 73  1  0
 69 65  1  0
 69 73  1  0
 70 69  1  0
 71 72  1  0
 71 70  1  0
 72 68  1  0
 73 74  2  0
 74 75  1  0
 76 75  2  0
 77 76  1  0
 78 52  1  0
 78 79  1  0
 78 88  1  0
 79 82  1  0
 80 84  1  0
 80 79  1  0
 81 80  2  0
 84 83  1  0
 86 84  1  0
 86 87  1  0
 86 85  1  0
 88 91  1  1
 88 89  1  0
 90 88  1  0
M  ISO  4  12 100  20 100  50 101  51 101
M  END
>  <TORSDO>  (39) 
F 18

>  <SCORE>  (39) 
-14.264

>  <name>  (39) 
38

>  <ligand_id>  (39) 
38

>  <original_smiles>  (39) 
[H]c1c([H])c([H])c2c(c1[H])C([H])([H])C([H])([H])C([H])([H])C2([H])N([H])C(=O)C1([H])N(C(=O)C([H])(N([H])C(=O)C([H])(N([H])C([H])([H])[H])C([H])([H])[H])C(C([H])([H])[H])(C([H])([H])[H])C([H])([H])[H])C([H])([H])c2c([H])c(OC([H])([H])C(=O)N([H])c3c([H])c([H])c(N([H])C(=O)N4C([H])([H])C([H])([H])C([H])([H])C([H])(n5nc(-c6c([H])c([H])c(Oc7c([H])c([H])c(F)c([H])c7F)c([H])c6[H])c(C(=O)N([H])[H])c5N([H])[H])C4([H])[H])c([H])c3F)c([H])c([H])c2C1([H])[H]

>  <smiles>  (39) 
[H]c1c([H])c([H])c2c(c1[H])C([H])([H])C([H])([H])C([H])([H])C2([H])N([H])C(=O)C1([H])N(C(=O)C([H])(N([H])C(=O)C([H])(N([H])C([H])([H])[H])C([H])([H])[H])C(C([H])([H])[H])(C([H])([H])[H])C([H])([H])[H])C([H])([H])c2c([H])c(OC([H])([H])C(=O)N([H])c3c([H])c([H])c(N([H])C(=O)N4C([H])([H])C([H])([H])C([H])([H])C([H])(n5nc(-c6c([H])c([H])c(Oc7c([H])c([H])c(F)c([H])c7F)c([H])c6[H])c(C(=O)N([H])[H])c5N([H])[H])C4([H])[H])c([H])c3F)c([H])c([H])c2C1([H])[H]

$$$$
39:0:0
     RDKit          3D

 96104  0  0  1  0  0  0  0  0999 V2000
  -31.5760  -18.8290   17.9670 C   0  0  0  0  0  2  0  0  0  0  0  0
  -32.8630  -18.0730   17.5950 C   0  0  0  0  0  2  0  0  0  0  0  0
  -32.6220  -16.7230   16.8860 C   0  0  0  0  0  2  0  0  0  0  0  0
  -33.8310  -15.7720   17.0040 C   0  0  0  0  0  2  0  0  0  0  0  0
  -33.6820  -14.0320   18.7900 C   0  0  0  0  0  0  0  0  0  0  0  0
  -33.9600  -15.2750   18.3780 N   0  0  0  0  0  0  0  0  0  0  0  0
  -33.4590  -13.1160   17.9930 O   0  0  0  0  0  0  0  0  0  0  0  0
  -34.1600  -15.9690   19.0880 H   0  0  0  0  0  0  0  0  0  0  0  0
  -31.1030  -13.9070   20.4170 C   0  0  0  0  0  0  0  0  0  0  0  0
  -30.2520  -12.1280   19.0630 C   0  0  0  0  0  2  0  0  0  0  0  0
  -29.3470  -12.6320   17.9400 C   0  0  0  0  0  2  0  0  0  0  0  0
  -27.8830  -12.5490   18.4020 C   0  0  0  0  0  2  0  0  0  0  0  0
  -27.6420  -13.3020   19.7380 C   0  0  0  0  0  3  0  0  0  0  0  0
  -28.7400  -12.9790   20.7960 C   0  0  0  0  0  2  0  0  0  0  0  0
  -30.1030  -13.0160   20.2140 N   0  0  0  0  0  0  0  0  0  0  0  0
  -31.1730  -15.0150   19.9100 O   0  0  0  0  0  0  0  0  0  0  0  0
  -33.8760  -12.0000   21.9520 C   0  0  0  0  0  2  0  0  0  0  0  0
  -34.5620  -12.6710   20.7680 C   0  0  0  0  0  2  0  0  0  0  0  0
  -32.3770  -12.1880   21.7140 C   0  0  0  0  0  2  0  0  0  0  0  0
  -33.5980  -13.7800   20.3220 C   0  0  0  0  0  3  0  0  0  0  0  0
  -32.2670  -13.3190   20.7890 N   0  0  0  0  0  0  0  0  0  0  0  0
  -25.2300  -13.9260   20.4330 C   0  0  0  0  0  0  0  0  0  0  0  0
  -24.1550  -13.1690   20.8080 C   0  0  0  0  0  0  0  0  0  0  0  0
  -24.6070  -11.8110   20.8020 C   0  0  0  0  0  0  0  0  0  0  0  0
  -26.2790  -13.0410   20.2290 N   0  0  0  0  0  0  0  0  0  0  0  0
  -25.8990  -11.7620   20.5010 N   0  0  0  0  0  0  0  0  0  0  0  0
  -23.8670  -10.5560   21.0060 C   0  0  0  0  0  0  0  0  0  0  0  0
  -24.3040   -9.5800   21.9310 C   0  0  0  0  0  3  0  0  0  0  0  0
  -23.5660   -8.3940   22.1270 C   0  0  0  0  0  3  0  0  0  0  0  0
  -22.3700   -8.1740   21.4020 C   0  0  0  0  0  0  0  0  0  0  0  0
  -21.9510   -9.1350   20.4650 C   0  0  0  0  0  3  0  0  0  0  0  0
  -22.6920  -10.3130   20.2650 C   0  0  0  0  0  3  0  0  0  0  0  0
  -21.5970   -7.0430   21.5110 O   0  0  0  0  0  0  0  0  0  0  0  0
  -21.5860   -6.2890   22.6560 C   0  0  0  0  0  0  0  0  0  0  0  0
  -21.2490   -6.8390   23.9130 C   0  0  0  0  0  3  0  0  0  0  0  0
  -21.1800   -6.0080   25.0500 C   0  0  0  0  0  3  0  0  0  0  0  0
  -21.4400   -4.6300   24.9320 C   0  0  0  0  0  0  0  0  0  0  0  0
  -21.7700   -4.0790   23.6800 C   0  0  0  0  0  3  0  0  0  0  0  0
  -21.8390   -4.9060   22.5450 C   0  0  0  0  0  0  0  0  0  0  0  0
  -22.1350   -4.3670   21.3390 F   0  0  0  0  0  0  0  0  0  0  0  0
  -21.3680   -3.8280   26.0210 F   0  0  0  0  0  0  0  0  0  0  0  0
  -22.7560  -13.6590   21.0680 C   0  0  0  0  0  0  0  0  0  0  0  0
  -22.0170  -12.9900   21.9440 N   0  0  0  0  0  0  0  0  0  0  0  0
  -22.3220  -14.6760   20.5230 O   0  0  0  0  0  0  0  0  0  0  0  0
  -22.3710  -12.1700   22.4140 H   0  0  0  0  0  0  0  0  0  0  0  0
  -21.0810  -13.3100   22.1520 H   0  0  0  0  0  0  0  0  0  0  0  0
  -25.3990  -15.2960   20.2330 N   0  0  0  0  0  0  0  0  0  0  0  0
  -24.6460  -15.9660   20.3360 H   0  0  0  0  0  0  0  0  0  0  0  0
  -26.2670  -15.7240   19.9360 H   0  0  0  0  0  0  0  0  0  0  0  0
  -31.8790  -20.1770   18.6370 C   0  0  0  0  0  2  0  0  0  0  0  0
  -30.6180  -20.9000   19.1320 C   0  0  0  0  0  2  0  0  0  0  0  0
  -30.8980  -22.3780   19.4520 C   0  0  0  0  0  2  0  0  0  0  0  0
  -29.7340  -23.0840   20.1680 C   0  0  0  0  0  2  0  0  0  0  0  0
  -29.7880  -24.6250   20.0540 C   0  0  0  0  0  2  0  0  0  0  0  0
  -28.3910  -25.2390   20.1820 C   0  0  0  0  0  2  0  0  0  0  0  0
  -28.4670  -26.6660   20.2240 O   0  0  0  0  0  0  0  0  0  0  0  0
  -24.6260  -31.8460   23.2400 C   0  0  0  0  0  0  0  0  0  0  0  0
  -27.2740  -27.3640   20.2350 C   0  0  0  0  0  0  0  0  0  0  0  0
  -23.4310  -30.4300   21.6020 C   0  0  0  0  0  3  0  0  0  0  0  0
  -24.8870  -28.8730   20.2220 C   0  0  0  0  0  0  0  0  0  0  0  0
  -25.9560  -30.7840   21.4220 C   0  0  0  0  0  2  0  0  0  0  0  0
  -26.0430  -29.4010   20.8090 C   0  0  0  0  0  0  0  0  0  0  0  0
  -27.2380  -28.6480   20.8210 C   0  0  0  0  0  3  0  0  0  0  0  0
  -26.0890  -26.8480   19.6560 C   0  0  0  0  0  3  0  0  0  0  0  0
  -24.8980  -27.5900   19.6580 C   0  0  0  0  0  3  0  0  0  0  0  0
  -23.6540  -29.7380   20.2310 C   0  0  0  0  0  2  0  0  0  0  0  0
  -24.6900  -31.0330   22.1500 N   0  0  0  0  0  0  0  0  0  0  0  0
  -23.5400  -32.1230   23.7690 O   0  0  0  0  0  0  0  0  0  0  0  0
  -22.7650  -29.4210   22.5650 C   0  0  0  0  0  0  0  0  0  0  0  0
  -21.4410  -29.2440   22.4330 N   0  0  0  0  0  0  0  0  0  0  0  0
  -23.4380  -28.7980   23.3920 O   0  0  0  0  0  0  0  0  0  0  0  0
  -20.9530  -29.7930   21.7400 H   0  0  0  0  0  0  0  0  0  0  0  0
  -18.0600  -28.0740   22.9240 C   0  0  0  0  0  0  0  0  0  0  0  0
  -20.6170  -28.3170   23.2080 C   0  0  0  0  0  3  0  0  0  0  0  0
  -20.7180  -26.8830   22.6420 C   0  0  0  0  0  2  0  0  0  0  0  0
  -19.6200  -26.5610   21.6230 C   0  0  0  0  0  2  0  0  0  0  0  0
  -18.2350  -26.7200   22.2570 C   0  0  0  0  0  2  0  0  0  0  0  0
  -19.1810  -28.8300   23.3550 C   0  0  0  0  0  0  0  0  0  0  0  0
  -18.9710  -30.1010   23.9350 C   0  0  0  0  0  3  0  0  0  0  0  0
  -17.6680  -30.6150   24.0880 C   0  0  0  0  0  3  0  0  0  0  0  0
  -16.5600  -29.8570   23.6720 C   0  0  0  0  0  3  0  0  0  0  0  0
  -16.7570  -28.5890   23.0970 C   0  0  0  0  0  3  0  0  0  0  0  0
  -25.9090  -32.4820   23.8650 C   0  0  0  0  0  3  0  0  0  0  0  0
  -26.4250  -31.7090   25.1400 C   0  0  1  0  0  0  0  0  0  0  0  0
  -25.3270  -31.4760   26.2020 C   0  0  0  0  0  1  0  0  0  0  0  0
  -27.0100  -30.3340   24.7470 C   0  0  0  0  0  1  0  0  0  0  0  0
  -27.5740  -32.5030   25.8050 C   0  0  0  0  0  1  0  0  0  0  0  0
  -25.5970  -33.8780   24.1940 N   0  0  0  0  0  0  0  0  0  0  0  0
  -25.9260  -34.9290   23.4340 C   0  0  0  0  0  0  0  0  0  0  0  0
  -26.5930  -34.8290   22.4010 O   0  0  0  0  0  0  0  0  0  0  0  0
  -25.0210  -34.0360   25.0100 H   0  0  0  0  0  0  0  0  0  0  0  0
  -24.1850  -36.7060   23.0790 C   0  0  0  0  0  1  0  0  0  0  0  0
  -25.4320  -36.3160   23.8890 C   0  0  0  0  0  3  0  0  0  0  0  0
  -27.5660  -37.2030   24.7060 C   0  0  0  0  0  1  0  0  0  0  0  0
  -26.4570  -37.3750   23.7720 N   0  0  0  0  0  0  0  0  0  0  0  0
  -26.0470  -38.2910   23.9320 H   0  0  0  0  0  0  0  0  0  0  0  0
  1 50  1  0
  2  1  1  0
  3  4  1  0
  3  2  1  0
  4  6  1  0
  6  5  1  0
  6  8  1  0
  7  5  2  0
  9 21  1  0
 10 15  1  0
 11 12  1  0
 11 10  1  0
 13 12  1  0
 13 25  1  0
 13 14  1  0
 15  9  1  0
 15 14  1  0
 16  9  2  0
 18 17  1  0
 19 17  1  0
 20  5  1  0
 20 18  1  0
 20 21  1  0
 21 19  1  0
 22 23  2  0
 23 42  1  0
 24 23  1  0
 24 27  1  0
 25 22  1  0
 25 26  1  0
 26 24  2  0
 27 28  1  0
 28 29  2  0
 30 33  1  0
 30 29  1  0
 31 30  2  0
 32 31  1  0
 32 27  2  0
 33 34  1  0
 34 35  1  0
 35 36  2  0
 37 36  1  0
 37 41  1  0
 38 37  2  0
 39 34  2  0
 39 38  1  0
 40 39  1  0
 42 43  1  0
 43 46  1  0
 43 45  1  0
 44 42  2  0
 47 48  1  0
 47 22  1  0
 49 47  1  0
 50 51  1  0
 51 52  1  0
 52 53  1  0
 54 53  1  0
 54 55  1  0
 55 56  1  0
 56 58  1  0
 57 68  2  0
 58 63  1  0
 59 67  1  0
 59 69  1  0
 60 66  1  0
 60 62  1  0
 61 67  1  0
 62 63  2  0
 62 61  1  0
 64 65  1  0
 64 58  2  0
 65 60  2  0
 66 59  1  0
 67 57  1  0
 69 71  2  0
 70 69  1  0
 72 70  1  0
 73 82  2  0
 73 78  1  0
 74 70  1  0
 74 78  1  0
 75 74  1  0
 76 77  1  0
 76 75  1  0
 77 73  1  0
 78 79  2  0
 79 80  1  0
 81 80  2  0
 82 81  1  0
 83 57  1  0
 83 88  1  0
 83 84  1  0
 84 87  1  1
 84 85  1  0
 86 84  1  0
 88 91  1  0
 89 93  1  0
 89 88  1  0
 90 89  2  0
 93 92  1  0
 95 93  1  0
 95 96  1  0
 95 94  1  0
M  ISO  4   9 100  21 100  55 101  56 101
M  END
>  <TORSDO>  (40) 
F 26

>  <SCORE>  (40) 
-12.026

>  <name>  (40) 
39

>  <ligand_id>  (40) 
39

>  <original_smiles>  (40) 
[H]c1c([H])c([H])c2c(c1[H])C([H])([H])C([H])([H])C([H])([H])C2([H])N([H])C(=O)C1([H])N(C(=O)C([H])(N([H])C(=O)C([H])(N([H])C([H])([H])[H])C([H])([H])[H])C(C([H])([H])[H])(C([H])([H])[H])C([H])([H])[H])C([H])([H])c2c([H])c(OC([H])([H])C([H])([H])C([H])([H])C([H])([H])C([H])([H])C([H])([H])C([H])([H])C([H])([H])C([H])([H])C([H])([H])N([H])C(=O)C3([H])N(C(=O)N4C([H])([H])C([H])([H])C([H])([H])C([H])(n5nc(-c6c([H])c([H])c(Oc7c([H])c([H])c(F)c([H])c7F)c([H])c6[H])c(C(=O)N([H])[H])c5N([H])[H])C4([H])[H])C([H])([H])C([H])([H])C3([H])[H])c([H])c([H])c2C1([H])[H]

>  <smiles>  (40) 
[H]c1c([H])c([H])c2c(c1[H])C([H])([H])C([H])([H])C([H])([H])C2([H])N([H])C(=O)C1([H])N(C(=O)C([H])(N([H])C(=O)C([H])(N([H])C([H])([H])[H])C([H])([H])[H])C(C([H])([H])[H])(C([H])([H])[H])C([H])([H])[H])C([H])([H])c2c([H])c(OC([H])([H])C([H])([H])C([H])([H])C([H])([H])C([H])([H])C([H])([H])C([H])([H])C([H])([H])C([H])([H])C([H])([H])N([H])C(=O)C3([H])N(C(=O)N4C([H])([H])C([H])([H])C([H])([H])C([H])(n5nc(-c6c([H])c([H])c(Oc7c([H])c([H])c(F)c([H])c7F)c([H])c6[H])c(C(=O)N([H])[H])c5N([H])[H])C4([H])[H])C([H])([H])C([H])([H])C3([H])[H])c([H])c([H])c2C1([H])[H]

$$$$
40:0:0
     RDKit          3D

 94102  0  0  1  0  0  0  0  0999 V2000
  -29.5620  -19.1570   19.8190 C   0  0  0  0  0  3  0  0  0  0  0  0
  -31.3110  -19.2830   21.9180 C   0  0  0  0  0  3  0  0  0  0  0  0
  -30.2830  -17.8790   20.1800 C   0  0  0  0  0  0  0  0  0  0  0  0
  -29.7020  -20.5140   20.4650 C   0  0  0  0  0  0  0  0  0  0  0  0
  -31.1430  -18.0260   21.2910 C   0  0  0  0  0  0  0  0  0  0  0  0
  -30.6140  -20.4570   21.5530 C   0  0  0  0  0  0  0  0  0  0  0  0
  -30.7750  -21.5100   22.3820 F   0  0  0  0  0  0  0  0  0  0  0  0
  -30.8290  -15.1920   19.7140 C   0  0  0  0  0  0  0  0  0  0  0  0
  -30.5820  -12.8240   18.7850 C   0  0  0  0  0  2  0  0  0  0  0  0
  -29.5530  -12.7640   17.6340 C   0  0  0  0  0  2  0  0  0  0  0  0
  -28.1200  -12.6030   18.1800 C   0  0  0  0  0  2  0  0  0  0  0  0
  -27.8290  -13.5500   19.3750 C   0  0  0  0  0  3  0  0  0  0  0  0
  -28.9730  -13.5590   20.4080 C   0  0  0  0  0  2  0  0  0  0  0  0
  -30.1850  -13.9500   19.6790 N   0  0  0  0  0  0  0  0  0  0  0  0
  -32.0370  -15.1850   19.4460 O   0  0  0  0  0  0  0  0  0  0  0  0
  -30.0750  -16.4170   19.6940 N   0  0  0  0  0  0  0  0  0  0  0  0
  -29.1110  -16.2370   19.4590 H   0  0  0  0  0  0  0  0  0  0  0  0
  -25.5690  -14.2230   20.3620 C   0  0  0  0  0  0  0  0  0  0  0  0
  -24.4940  -13.4920   20.7840 C   0  0  0  0  0  0  0  0  0  0  0  0
  -24.8660  -12.1200   20.6430 C   0  0  0  0  0  0  0  0  0  0  0  0
  -26.5290  -13.2990   19.9830 N   0  0  0  0  0  0  0  0  0  0  0  0
  -26.1210  -12.0240   20.2170 N   0  0  0  0  0  0  0  0  0  0  0  0
  -24.0780  -10.8950   20.8300 C   0  0  0  0  0  0  0  0  0  0  0  0
  -24.5240   -9.8480   21.6650 C   0  0  0  0  0  3  0  0  0  0  0  0
  -23.7360   -8.6910   21.8450 C   0  0  0  0  0  3  0  0  0  0  0  0
  -22.4870   -8.5720   21.1890 C   0  0  0  0  0  0  0  0  0  0  0  0
  -22.0600   -9.6070   20.3390 C   0  0  0  0  0  3  0  0  0  0  0  0
  -22.8470  -10.7560   20.1570 C   0  0  0  0  0  3  0  0  0  0  0  0
  -21.6680   -7.4730   21.2810 O   0  0  0  0  0  0  0  0  0  0  0  0
  -21.6740   -6.6640   22.3900 C   0  0  0  0  0  0  0  0  0  0  0  0
  -21.4200   -7.1710   23.6840 C   0  0  0  0  0  3  0  0  0  0  0  0
  -21.3650   -6.2940   24.7860 C   0  0  0  0  0  3  0  0  0  0  0  0
  -21.5550   -4.9120   24.5960 C   0  0  0  0  0  0  0  0  0  0  0  0
  -21.8020   -4.4040   23.3090 C   0  0  0  0  0  3  0  0  0  0  0  0
  -21.8580   -5.2780   22.2090 C   0  0  0  0  0  0  0  0  0  0  0  0
  -22.0750   -4.7800   20.9680 F   0  0  0  0  0  0  0  0  0  0  0  0
  -21.4950   -4.0690   25.6540 F   0  0  0  0  0  0  0  0  0  0  0  0
  -23.1570  -14.0370   21.1990 C   0  0  0  0  0  0  0  0  0  0  0  0
  -22.4690  -13.3470   22.1000 N   0  0  0  0  0  0  0  0  0  0  0  0
  -22.7410  -15.1090   20.7620 O   0  0  0  0  0  0  0  0  0  0  0  0
  -22.8200  -12.4770   22.4710 H   0  0  0  0  0  0  0  0  0  0  0  0
  -21.5760  -13.6920   22.4210 H   0  0  0  0  0  0  0  0  0  0  0  0
  -25.8040  -15.5900   20.2410 N   0  0  0  0  0  0  0  0  0  0  0  0
  -25.0920  -16.2780   20.4600 H   0  0  0  0  0  0  0  0  0  0  0  0
  -26.6410  -16.0020   19.8510 H   0  0  0  0  0  0  0  0  0  0  0  0
  -28.9310  -21.7950   20.2000 N   0  0  0  0  0  4  0  0  0  0  0  0
  -28.0340  -21.5990   19.7620 H   0  0  0  0  0  0  0  0  0  0  0  0
  -30.4310  -23.8070   20.9870 C   0  0  0  0  0  1  0  0  0  0  0  0
  -29.2520  -23.3630   20.1250 C   0  0  0  0  0  0  0  0  0  0  0  0
  -28.1040  -24.6340   20.2090 C   0  0  0  0  0  2  0  0  0  0  0  0
  -28.3610  -26.1950   20.1650 O   0  0  0  0  0  0  0  0  0  0  0  0
  -24.6630  -31.8830   23.1730 C   0  0  0  0  0  0  0  0  0  0  0  0
  -27.2970  -27.1840   20.1190 C   0  0  0  0  0  0  0  0  0  0  0  0
  -23.4830  -30.4710   21.5360 C   0  0  0  0  0  3  0  0  0  0  0  0
  -24.9500  -28.9240   20.0980 C   0  0  0  0  0  0  0  0  0  0  0  0
  -26.0340  -30.7700   21.3640 C   0  0  0  0  0  2  0  0  0  0  0  0
  -26.1280  -29.3790   20.7040 C   0  0  0  0  0  0  0  0  0  0  0  0
  -27.3020  -28.5270   20.6910 C   0  0  0  0  0  3  0  0  0  0  0  0
  -26.0880  -26.8430   19.4730 C   0  0  0  0  0  3  0  0  0  0  0  0
  -24.9450  -27.6730   19.4620 C   0  0  0  0  0  3  0  0  0  0  0  0
  -23.7110  -29.8070   20.1520 C   0  0  0  0  0  2  0  0  0  0  0  0
  -24.7470  -31.0640   22.0800 N   0  0  0  0  0  0  0  0  0  0  0  0
  -23.5730  -32.1460   23.7060 O   0  0  0  0  0  0  0  0  0  0  0  0
  -22.8250  -29.4500   22.4990 C   0  0  0  0  0  0  0  0  0  0  0  0
  -21.5050  -29.2310   22.3570 N   0  0  0  0  0  0  0  0  0  0  0  0
  -23.5060  -28.8560   23.3390 O   0  0  0  0  0  0  0  0  0  0  0  0
  -21.0110  -29.7650   21.6560 H   0  0  0  0  0  0  0  0  0  0  0  0
  -18.1740  -27.8670   22.7860 C   0  0  0  0  0  0  0  0  0  0  0  0
  -20.7060  -28.2720   23.1270 C   0  0  0  0  0  3  0  0  0  0  0  0
  -20.9000  -26.8320   22.5970 C   0  0  0  0  0  2  0  0  0  0  0  0
  -19.8520  -26.4240   21.5570 C   0  0  0  0  0  2  0  0  0  0  0  0
  -18.4440  -26.5120   22.1520 C   0  0  0  0  0  2  0  0  0  0  0  0
  -19.2360  -28.6990   23.2290 C   0  0  0  0  0  0  0  0  0  0  0  0
  -18.9290  -29.9620   23.7810 C   0  0  0  0  0  3  0  0  0  0  0  0
  -17.5950  -30.3930   23.8970 C   0  0  0  0  0  3  0  0  0  0  0  0
  -16.5470  -29.5580   23.4680 C   0  0  0  0  0  3  0  0  0  0  0  0
  -16.8370  -28.2980   22.9170 C   0  0  0  0  0  3  0  0  0  0  0  0
  -25.9300  -32.5430   23.7960 C   0  0  0  0  0  3  0  0  0  0  0  0
  -25.5910  -33.9350   24.1330 N   0  0  0  0  0  0  0  0  0  0  0  0
  -25.9270  -35.0030   23.4000 C   0  0  0  0  0  0  0  0  0  0  0  0
  -26.6200  -34.9220   22.3810 O   0  0  0  0  0  0  0  0  0  0  0  0
  -24.9750  -34.0690   24.9220 H   0  0  0  0  0  0  0  0  0  0  0  0
  -24.1860  -36.7870   23.0390 C   0  0  0  0  0  1  0  0  0  0  0  0
  -25.4160  -36.3820   23.8680 C   0  0  0  0  0  3  0  0  0  0  0  0
  -27.5280  -37.2780   24.7450 C   0  0  0  0  0  1  0  0  0  0  0  0
  -26.4390  -37.4480   23.7870 N   0  0  0  0  0  0  0  0  0  0  0  0
  -26.0190  -38.3600   23.9430 H   0  0  0  0  0  0  0  0  0  0  0  0
  -26.4570  -31.7830   25.0770 C   0  0  1  0  0  0  0  0  0  0  0  0
  -25.3670  -31.5290   26.1450 C   0  0  0  0  0  1  0  0  0  0  0  0
  -27.0640  -30.4140   24.6970 C   0  0  0  0  0  1  0  0  0  0  0  0
  -27.5950  -32.5990   25.7360 C   0  0  0  0  0  1  0  0  0  0  0  0
  -31.7390  -16.8980   21.8120 O   0  0  0  0  0  0  0  0  0  0  0  0
  -30.2640  -16.7860   23.7780 C   0  0  0  0  0  1  0  0  0  0  0  0
  -31.7010  -16.7440   23.2330 C   0  0  0  0  0  2  0  0  0  0  0  0
  1  3  2  0
  1  4  1  0
  3  5  1  0
  4  6  2  0
  5 92  1  0
  5  2  2  0
  6  2  1  0
  6  7  1  0
  9 14  1  0
 10 11  1  0
 10  9  1  0
 12 11  1  0
 12 21  1  0
 12 13  1  0
 14  8  1  0
 14 13  1  0
 15  8  2  0
 16  8  1  0
 16  3  1  0
 17 16  1  0
 18 19  2  0
 19 38  1  0
 20 19  1  0
 20 23  1  0
 21 22  1  0
 21 18  1  0
 22 20  2  0
 23 24  1  0
 24 25  2  0
 26 29  1  0
 26 25  1  0
 27 26  2  0
 28 27  1  0
 28 23  2  0
 29 30  1  0
 30 31  1  0
 31 32  2  0
 33 32  1  0
 33 37  1  0
 34 33  2  0
 35 30  2  0
 35 34  1  0
 36 35  1  0
 38 39  1  0
 39 42  1  0
 39 41  1  0
 40 38  2  0
 43 18  1  0
 43 44  1  0
 45 43  1  0
 46  4  1  0
 47 46  1  0
 49 46  2  0
 49 50  1  0
 49 48  1  0
 51 50  1  0
 52 63  2  0
 53 51  1  0
 53 58  1  0
 54 62  1  0
 54 64  1  0
 55 61  1  0
 55 57  1  0
 56 62  1  0
 57 56  1  0
 58 57  2  0
 59 53  2  0
 60 59  1  0
 60 55  2  0
 61 54  1  0
 62 52  1  0
 64 66  2  0
 65 64  1  0
 67 65  1  0
 68 77  2  0
 68 73  1  0
 69 65  1  0
 69 73  1  0
 70 69  1  0
 71 72  1  0
 71 70  1  0
 72 68  1  0
 73 74  2  0
 74 75  1  0
 76 75  2  0
 77 76  1  0
 78 52  1  0
 78 79  1  0
 78 88  1  0
 79 82  1  0
 80 84  1  0
 80 79  1  0
 81 80  2  0
 84 83  1  0
 86 84  1  0
 86 87  1  0
 86 85  1  0
 88 91  1  1
 88 89  1  0
 90 88  1  0
 92 94  1  0
 94 93  1  0
M  ISO  4   8 100  16 100  50 101  51 101
M  END
>  <TORSDO>  (41) 
F 21

>  <SCORE>  (41) 
-9.506

>  <name>  (41) 
40

>  <ligand_id>  (41) 
40

>  <original_smiles>  (41) 
[H]c1c([H])c([H])c2c(c1[H])C([H])([H])C([H])([H])C([H])([H])C2([H])N([H])C(=O)C1([H])N(C(=O)C([H])(N([H])C(=O)C([H])(N([H])C([H])([H])[H])C([H])([H])[H])C(C([H])([H])[H])(C([H])([H])[H])C([H])([H])[H])C([H])([H])c2c([H])c(OC([H])([H])C([H])(N([H])c3c([H])c(N([H])C(=O)N4C([H])([H])C([H])([H])C([H])([H])C([H])(n5nc(-c6c([H])c([H])c(Oc7c([H])c([H])c(F)c([H])c7F)c([H])c6[H])c(C(=O)N([H])[H])c5N([H])[H])C4([H])[H])c(OC([H])([H])C([H])([H])[H])c([H])c3F)C([H])([H])[H])c([H])c([H])c2C1([H])[H]

>  <smiles>  (41) 
[H]c1c([H])c([H])c2c(c1[H])C([H])([H])C([H])([H])C([H])([H])C2([H])N([H])C(=O)C1([H])N(C(=O)C([H])(N([H])C(=O)C([H])(N([H])C([H])([H])[H])C([H])([H])[H])C(C([H])([H])[H])(C([H])([H])[H])C([H])([H])[H])C([H])([H])c2c([H])c(OC([H])([H])C([H])(N([H])c3c([H])c(N([H])C(=O)N4C([H])([H])C([H])([H])C([H])([H])C([H])(n5nc(-c6c([H])c([H])c(Oc7c([H])c([H])c(F)c([H])c7F)c([H])c6[H])c(C(=O)N([H])[H])c5N([H])[H])C4([H])[H])c(OC([H])([H])C([H])([H])[H])c([H])c3F)C([H])([H])[H])c([H])c([H])c2C1([H])[H]

$$$$
41:0:0
     RDKit          3D

 91 99  0  0  1  0  0  0  0  0999 V2000
  -28.9840  -23.4060   20.2160 C   0  0  0  0  0  0  0  0  0  0  0  0
  -28.5330  -22.0740   20.0580 N   0  0  0  0  0  0  0  0  0  0  0  0
  -30.1440  -23.6320   20.5700 O   0  0  0  0  0  0  0  0  0  0  0  0
  -27.5480  -22.0810   19.8230 H   0  0  0  0  0  0  0  0  0  0  0  0
  -30.6150  -18.6040   20.2960 C   0  0  0  0  0  3  0  0  0  0  0  0
  -30.3410  -20.0470   20.2500 C   0  0  0  0  0  3  0  0  0  0  0  0
  -28.2990  -18.1820   20.2110 C   0  0  0  0  0  3  0  0  0  0  0  0
  -29.5970  -17.5800   20.2820 C   0  0  0  0  0  0  0  0  0  0  0  0
  -29.0190  -20.6250   20.1720 C   0  0  0  0  0  0  0  0  0  0  0  0
  -28.0240  -19.5980   20.1470 C   0  0  0  0  0  0  0  0  0  0  0  0
  -26.7300  -19.9890   20.0570 F   0  0  0  0  0  0  0  0  0  0  0  0
  -30.5510  -14.9620   20.1150 C   0  0  0  0  0  0  0  0  0  0  0  0
  -30.4380  -12.6340   19.1180 C   0  0  0  0  0  2  0  0  0  0  0  0
  -29.4590  -12.6410   17.9190 C   0  0  0  0  0  2  0  0  0  0  0  0
  -28.0060  -12.4260   18.3900 C   0  0  0  0  0  2  0  0  0  0  0  0
  -27.6440  -13.3100   19.6110 C   0  0  0  0  0  3  0  0  0  0  0  0
  -28.7370  -13.2580   20.7010 C   0  0  0  0  0  2  0  0  0  0  0  0
  -29.9960  -13.6850   20.0730 N   0  0  0  0  0  0  0  0  0  0  0  0
  -31.7310  -15.0980   19.7720 O   0  0  0  0  0  0  0  0  0  0  0  0
  -29.6790  -16.0480   20.3690 N   0  0  0  0  0  0  0  0  0  0  0  0
  -28.7830  -15.6540   20.6080 H   0  0  0  0  0  0  0  0  0  0  0  0
  -25.2800  -13.8790   20.4200 C   0  0  0  0  0  0  0  0  0  0  0  0
  -24.2290  -13.0980   20.8130 C   0  0  0  0  0  0  0  0  0  0  0  0
  -24.6940  -11.7480   20.7490 C   0  0  0  0  0  0  0  0  0  0  0  0
  -26.3180  -13.0050   20.1380 N   0  0  0  0  0  0  0  0  0  0  0  0
  -25.9750  -11.7180   20.4010 N   0  0  0  0  0  0  0  0  0  0  0  0
  -23.9740  -10.4820   20.9410 C   0  0  0  0  0  0  0  0  0  0  0  0
  -24.4040   -9.5240   21.8840 C   0  0  0  0  0  3  0  0  0  0  0  0
  -23.6830   -8.3230   22.0640 C   0  0  0  0  0  3  0  0  0  0  0  0
  -22.5180   -8.0720   21.3000 C   0  0  0  0  0  0  0  0  0  0  0  0
  -22.1080   -9.0210   20.3460 C   0  0  0  0  0  3  0  0  0  0  0  0
  -22.8300  -10.2120   20.1650 C   0  0  0  0  0  3  0  0  0  0  0  0
  -21.7710   -6.9240   21.3890 O   0  0  0  0  0  0  0  0  0  0  0  0
  -21.6710   -6.2170   22.5600 C   0  0  0  0  0  0  0  0  0  0  0  0
  -21.1670   -6.8020   23.7430 C   0  0  0  0  0  3  0  0  0  0  0  0
  -21.0170   -6.0230   24.9060 C   0  0  0  0  0  3  0  0  0  0  0  0
  -21.3610   -4.6570   24.8890 C   0  0  0  0  0  0  0  0  0  0  0  0
  -21.8590   -4.0710   23.7110 C   0  0  0  0  0  3  0  0  0  0  0  0
  -22.0100   -4.8490   22.5500 C   0  0  0  0  0  0  0  0  0  0  0  0
  -22.4700   -4.2740   21.4130 F   0  0  0  0  0  0  0  0  0  0  0  0
  -21.2100   -3.9060   26.0050 F   0  0  0  0  0  0  0  0  0  0  0  0
  -22.8380  -13.5690   21.1280 C   0  0  0  0  0  0  0  0  0  0  0  0
  -22.1370  -12.8660   22.0090 N   0  0  0  0  0  0  0  0  0  0  0  0
  -22.3840  -14.5970   20.6260 O   0  0  0  0  0  0  0  0  0  0  0  0
  -22.5180  -12.0350   22.4370 H   0  0  0  0  0  0  0  0  0  0  0  0
  -21.2060  -13.1640   22.2620 H   0  0  0  0  0  0  0  0  0  0  0  0
  -25.4330  -15.2520   20.2490 N   0  0  0  0  0  0  0  0  0  0  0  0
  -24.6480  -15.8850   20.3550 H   0  0  0  0  0  0  0  0  0  0  0  0
  -26.2200  -15.6750   19.7760 H   0  0  0  0  0  0  0  0  0  0  0  0
  -27.9800  -24.6920   19.9200 C   0  0  0  0  0  2  0  0  0  0  0  0
  -28.3120  -26.1880   20.1970 O   0  0  0  0  0  0  0  0  0  0  0  0
  -24.6660  -31.8440   23.2340 C   0  0  0  0  0  0  0  0  0  0  0  0
  -27.2610  -27.1790   20.1420 C   0  0  0  0  0  0  0  0  0  0  0  0
  -23.4720  -30.4670   21.5760 C   0  0  0  0  0  3  0  0  0  0  0  0
  -24.9260  -28.9180   20.1340 C   0  0  0  0  0  0  0  0  0  0  0  0
  -26.0270  -30.7400   21.4210 C   0  0  0  0  0  2  0  0  0  0  0  0
  -26.1060  -29.3580   20.7490 C   0  0  0  0  0  0  0  0  0  0  0  0
  -27.2740  -28.5040   20.7380 C   0  0  0  0  0  3  0  0  0  0  0  0
  -26.0520  -26.8450   19.4880 C   0  0  0  0  0  3  0  0  0  0  0  0
  -24.9120  -27.6740   19.4900 C   0  0  0  0  0  3  0  0  0  0  0  0
  -23.6970  -29.8110   20.1890 C   0  0  0  0  0  2  0  0  0  0  0  0
  -24.7420  -31.0380   22.1320 N   0  0  0  0  0  0  0  0  0  0  0  0
  -23.5780  -32.1210   23.7620 O   0  0  0  0  0  0  0  0  0  0  0  0
  -22.7940  -29.4450   22.5230 C   0  0  0  0  0  0  0  0  0  0  0  0
  -21.4650  -29.2810   22.3990 N   0  0  0  0  0  0  0  0  0  0  0  0
  -23.4660  -28.8030   23.3340 O   0  0  0  0  0  0  0  0  0  0  0  0
  -20.9790  -29.8510   21.7200 H   0  0  0  0  0  0  0  0  0  0  0  0
  -18.0770  -28.1010   22.9080 C   0  0  0  0  0  0  0  0  0  0  0  0
  -20.6410  -28.3360   23.1580 C   0  0  0  0  0  3  0  0  0  0  0  0
  -20.7240  -26.9140   22.5550 C   0  0  0  0  0  2  0  0  0  0  0  0
  -19.6100  -26.6210   21.5450 C   0  0  0  0  0  2  0  0  0  0  0  0
  -18.2360  -26.7640   22.2040 C   0  0  0  0  0  2  0  0  0  0  0  0
  -19.2060  -28.8470   23.3430 C   0  0  0  0  0  0  0  0  0  0  0  0
  -19.0010  -30.0970   23.9630 C   0  0  0  0  0  3  0  0  0  0  0  0
  -17.7010  -30.6040   24.1540 C   0  0  0  0  0  3  0  0  0  0  0  0
  -16.5880  -29.8560   23.7330 C   0  0  0  0  0  3  0  0  0  0  0  0
  -16.7770  -28.6060   23.1170 C   0  0  0  0  0  3  0  0  0  0  0  0
  -25.9420  -32.4740   23.8720 C   0  0  0  0  0  3  0  0  0  0  0  0
  -25.6290  -33.8700   24.2110 N   0  0  0  0  0  0  0  0  0  0  0  0
  -25.9410  -34.9310   23.4540 C   0  0  0  0  0  0  0  0  0  0  0  0
  -26.5900  -34.8350   22.4080 O   0  0  0  0  0  0  0  0  0  0  0  0
  -25.0490  -34.0180   25.0240 H   0  0  0  0  0  0  0  0  0  0  0  0
  -24.1860  -36.7120   23.1640 C   0  0  0  0  0  1  0  0  0  0  0  0
  -25.4600  -36.3150   23.9290 C   0  0  0  0  0  3  0  0  0  0  0  0
  -27.6110  -37.2250   24.6860 C   0  0  0  0  0  1  0  0  0  0  0  0
  -26.4790  -37.3770   23.7770 N   0  0  0  0  0  0  0  0  0  0  0  0
  -26.0690  -38.2950   23.9310 H   0  0  0  0  0  0  0  0  0  0  0  0
  -26.4440  -31.6960   25.1500 C   0  0  1  0  0  0  0  0  0  0  0  0
  -25.3410  -31.4590   26.2070 C   0  0  0  0  0  1  0  0  0  0  0  0
  -27.0260  -30.3170   24.7630 C   0  0  0  0  0  1  0  0  0  0  0  0
  -27.5910  -32.4850   25.8250 C   0  0  0  0  0  1  0  0  0  0  0  0
  1  3  2  0
  2  9  1  0
  2  1  1  0
  4  2  1  0
  6  5  2  0
  7  8  2  0
  8  5  1  0
  8 20  1  0
  9  6  1  0
 10  9  2  0
 10  7  1  0
 11 10  1  0
 12 20  1  0
 13 18  1  0
 14 15  1  0
 14 13  1  0
 16 15  1  0
 16 25  1  0
 16 17  1  0
 18 12  1  0
 18 17  1  0
 19 12  2  0
 20 21  1  0
 22 23  2  0
 23 42  1  0
 24 23  1  0
 24 27  1  0
 25 26  1  0
 25 22  1  0
 26 24  2  0
 27 28  1  0
 28 29  2  0
 30 33  1  0
 30 29  1  0
 31 30  2  0
 32 31  1  0
 32 27  2  0
 33 34  1  0
 34 35  1  0
 35 36  2  0
 37 36  1  0
 37 41  1  0
 38 37  2  0
 39 34  2  0
 39 38  1  0
 40 39  1  0
 42 43  1  0
 43 46  1  0
 43 45  1  0
 44 42  2  0
 47 48  1  0
 47 22  1  0
 49 47  1  0
 50 51  1  0
 50  1  1  0
 52 63  2  0
 53 51  1  0
 53 58  1  0
 54 62  1  0
 54 64  1  0
 55 61  1  0
 55 57  1  0
 56 62  1  0
 57 56  1  0
 58 57  2  0
 59 60  1  0
 59 53  2  0
 60 55  2  0
 61 54  1  0
 62 52  1  0
 64 66  2  0
 65 64  1  0
 67 65  1  0
 68 77  2  0
 68 73  1  0
 69 65  1  0
 69 73  1  0
 70 69  1  0
 71 72  1  0
 71 70  1  0
 72 68  1  0
 73 74  2  0
 74 75  1  0
 76 75  2  0
 77 76  1  0
 78 52  1  0
 78 79  1  0
 78 88  1  0
 79 82  1  0
 80 84  1  0
 80 79  1  0
 81 80  2  0
 84 83  1  0
 86 84  1  0
 86 87  1  0
 86 85  1  0
 88 91  1  1
 88 89  1  0
 90 88  1  0
M  ISO  4  12 100  20 100  50 101  51 101
M  END
>  <TORSDO>  (42) 
F 18

>  <SCORE>  (42) 
-14.264

>  <name>  (42) 
41

>  <ligand_id>  (42) 
41

>  <original_smiles>  (42) 
[H]c1c([H])c([H])c2c(c1[H])C([H])([H])C([H])([H])C([H])([H])C2([H])N([H])C(=O)C1([H])N(C(=O)C([H])(N([H])C(=O)C([H])(N([H])C([H])([H])[H])C([H])([H])[H])C(C([H])([H])[H])(C([H])([H])[H])C([H])([H])[H])C([H])([H])c2c([H])c(OC([H])([H])C(=O)N([H])c3c([H])c([H])c(N([H])C(=O)N4C([H])([H])C([H])([H])C([H])([H])C([H])(n5nc(-c6c([H])c([H])c(Oc7c([H])c([H])c(F)c([H])c7F)c([H])c6[H])c(C(=O)N([H])[H])c5N([H])[H])C4([H])[H])c([H])c3F)c([H])c([H])c2C1([H])[H]

>  <smiles>  (42) 
[H]c1c([H])c([H])c2c(c1[H])C([H])([H])C([H])([H])C([H])([H])C2([H])N([H])C(=O)C1([H])N(C(=O)C([H])(N([H])C(=O)C([H])(N([H])C([H])([H])[H])C([H])([H])[H])C(C([H])([H])[H])(C([H])([H])[H])C([H])([H])[H])C([H])([H])c2c([H])c(OC([H])([H])C(=O)N([H])c3c([H])c([H])c(N([H])C(=O)N4C([H])([H])C([H])([H])C([H])([H])C([H])(n5nc(-c6c([H])c([H])c(Oc7c([H])c([H])c(F)c([H])c7F)c([H])c6[H])c(C(=O)N([H])[H])c5N([H])[H])C4([H])[H])c([H])c3F)c([H])c([H])c2C1([H])[H]

$$$$
42:0:0
     RDKit          3D

 91 99  0  0  1  0  0  0  0  0999 V2000
  -31.3880  -18.1920   20.6430 C   0  0  0  0  0  3  0  0  0  0  0  0
  -30.8810  -20.6280   20.5840 C   0  0  0  0  0  3  0  0  0  0  0  0
  -31.7930  -19.5490   20.6980 C   0  0  0  0  0  0  0  0  0  0  0  0
  -30.0420  -17.7990   20.4700 C   0  0  0  0  0  0  0  0  0  0  0  0
  -29.4940  -20.4390   20.4070 C   0  0  0  0  0  0  0  0  0  0  0  0
  -29.1120  -18.9790   20.3600 C   0  0  0  0  0  0  0  0  0  0  0  0
  -33.2650  -19.8550   20.8970 C   0  0  0  0  0  1  0  0  0  0  0  0
  -27.4360  -18.6160   20.1550 Cl  0  0  0  0  0  0  0  0  0  0  0  0
  -30.5060  -15.0620   20.3360 C   0  0  0  0  0  0  0  0  0  0  0  0
  -30.4060  -12.6970   19.3910 C   0  0  0  0  0  2  0  0  0  0  0  0
  -29.4720  -12.6150   18.1610 C   0  0  0  0  0  2  0  0  0  0  0  0
  -28.0160  -12.3800   18.6010 C   0  0  0  0  0  2  0  0  0  0  0  0
  -27.5970  -13.3070   19.7720 C   0  0  0  0  0  3  0  0  0  0  0  0
  -28.6550  -13.3560   20.8940 C   0  0  0  0  0  2  0  0  0  0  0  0
  -29.9100  -13.7970   20.2740 N   0  0  0  0  0  0  0  0  0  0  0  0
  -31.7150  -15.0940   20.0820 O   0  0  0  0  0  0  0  0  0  0  0  0
  -29.7290  -16.2710   20.4550 N   0  0  0  0  0  0  0  0  0  0  0  0
  -28.7430  -16.0740   20.5300 H   0  0  0  0  0  0  0  0  0  0  0  0
  -25.2150  -13.8540   20.5210 C   0  0  0  0  0  0  0  0  0  0  0  0
  -24.1600  -13.0680   20.8920 C   0  0  0  0  0  0  0  0  0  0  0  0
  -24.6390  -11.7220   20.8600 C   0  0  0  0  0  0  0  0  0  0  0  0
  -26.2660  -12.9890   20.2770 N   0  0  0  0  0  0  0  0  0  0  0  0
  -25.9320  -11.7000   20.5490 N   0  0  0  0  0  0  0  0  0  0  0  0
  -23.9260  -10.4530   21.0490 C   0  0  0  0  0  0  0  0  0  0  0  0
  -24.3670   -9.4870   21.9810 C   0  0  0  0  0  3  0  0  0  0  0  0
  -23.6510   -8.2840   22.1600 C   0  0  0  0  0  3  0  0  0  0  0  0
  -22.4790   -8.0360   21.4050 C   0  0  0  0  0  0  0  0  0  0  0  0
  -22.0580   -8.9900   20.4620 C   0  0  0  0  0  3  0  0  0  0  0  0
  -22.7750  -10.1840   20.2810 C   0  0  0  0  0  3  0  0  0  0  0  0
  -21.7340   -6.8850   21.4920 O   0  0  0  0  0  0  0  0  0  0  0  0
  -21.6900   -6.1420   22.6450 C   0  0  0  0  0  0  0  0  0  0  0  0
  -21.2460   -6.6900   23.8680 C   0  0  0  0  0  3  0  0  0  0  0  0
  -21.1510   -5.8720   25.0110 C   0  0  0  0  0  3  0  0  0  0  0  0
  -21.4890   -4.5080   24.9340 C   0  0  0  0  0  0  0  0  0  0  0  0
  -21.9270   -3.9600   23.7150 C   0  0  0  0  0  3  0  0  0  0  0  0
  -22.0240   -4.7750   22.5730 C   0  0  0  0  0  0  0  0  0  0  0  0
  -22.4260   -4.2370   21.3960 F   0  0  0  0  0  0  0  0  0  0  0  0
  -21.3910   -3.7210   26.0300 F   0  0  0  0  0  0  0  0  0  0  0  0
  -22.7580  -13.5300   21.1590 C   0  0  0  0  0  0  0  0  0  0  0  0
  -22.0390  -12.8330   22.0320 N   0  0  0  0  0  0  0  0  0  0  0  0
  -22.3080  -14.5460   20.6310 O   0  0  0  0  0  0  0  0  0  0  0  0
  -22.4160  -12.0110   22.4800 H   0  0  0  0  0  0  0  0  0  0  0  0
  -21.0970  -13.1250   22.2550 H   0  0  0  0  0  0  0  0  0  0  0  0
  -25.3600  -15.2280   20.3420 N   0  0  0  0  0  0  0  0  0  0  0  0
  -24.5820  -15.8660   20.4570 H   0  0  0  0  0  0  0  0  0  0  0  0
  -26.1900  -15.6810   19.9840 H   0  0  0  0  0  0  0  0  0  0  0  0
  -28.6480  -21.6830   20.2990 N   0  0  0  0  0  0  0  0  0  0  0  0
  -27.6550  -21.5010   20.1680 H   0  0  0  0  0  0  0  0  0  0  0  0
  -29.0250  -23.2240   20.3960 C   0  0  0  0  0  3  0  0  0  0  0  0
  -27.9570  -24.5560   20.1920 C   0  0  0  0  0  3  0  0  0  0  0  0
  -28.2320  -26.1100   20.3180 O   0  0  0  0  0  0  0  0  0  0  0  0
  -24.6340  -31.8920   23.2600 C   0  0  0  0  0  0  0  0  0  0  0  0
  -27.1890  -27.1240   20.2470 C   0  0  0  0  0  0  0  0  0  0  0  0
  -23.4340  -30.5030   21.6180 C   0  0  0  0  0  3  0  0  0  0  0  0
  -24.8770  -28.9150   20.1980 C   0  0  0  0  0  0  0  0  0  0  0  0
  -25.9930  -30.7420   21.4650 C   0  0  0  0  0  2  0  0  0  0  0  0
  -26.0600  -29.3450   20.8120 C   0  0  0  0  0  0  0  0  0  0  0  0
  -27.2170  -28.4690   20.8150 C   0  0  0  0  0  3  0  0  0  0  0  0
  -25.9780  -26.8040   19.5970 C   0  0  0  0  0  3  0  0  0  0  0  0
  -24.8530  -27.6590   19.5720 C   0  0  0  0  0  3  0  0  0  0  0  0
  -23.6570  -29.8240   20.2400 C   0  0  0  0  0  2  0  0  0  0  0  0
  -24.7080  -31.0690   22.1690 N   0  0  0  0  0  0  0  0  0  0  0  0
  -23.5470  -32.1850   23.7830 O   0  0  0  0  0  0  0  0  0  0  0  0
  -22.7420  -29.5030   22.5780 C   0  0  0  0  0  0  0  0  0  0  0  0
  -21.4130  -29.3410   22.4470 N   0  0  0  0  0  0  0  0  0  0  0  0
  -23.4050  -28.8730   23.4060 O   0  0  0  0  0  0  0  0  0  0  0  0
  -20.9330  -29.9000   21.7550 H   0  0  0  0  0  0  0  0  0  0  0  0
  -18.0210  -28.1630   22.9400 C   0  0  0  0  0  0  0  0  0  0  0  0
  -20.5820  -28.4090   23.2160 C   0  0  0  0  0  3  0  0  0  0  0  0
  -20.6760  -26.9760   22.6430 C   0  0  0  0  0  2  0  0  0  0  0  0
  -19.5760  -26.6600   21.6250 C   0  0  0  0  0  2  0  0  0  0  0  0
  -18.1920  -26.8130   22.2630 C   0  0  0  0  0  2  0  0  0  0  0  0
  -19.1430  -28.9190   23.3720 C   0  0  0  0  0  0  0  0  0  0  0  0
  -18.9280  -30.1810   23.9670 C   0  0  0  0  0  3  0  0  0  0  0  0
  -17.6250  -30.6870   24.1340 C   0  0  0  0  0  3  0  0  0  0  0  0
  -16.5180  -29.9280   23.7160 C   0  0  0  0  0  3  0  0  0  0  0  0
  -16.7170  -28.6680   23.1240 C   0  0  0  0  0  3  0  0  0  0  0  0
  -25.9120  -32.5230   23.8930 C   0  0  0  0  0  3  0  0  0  0  0  0
  -26.4110  -31.7530   25.1770 C   0  0  1  0  0  0  0  0  0  0  0  0
  -25.3070  -31.5280   26.2370 C   0  0  0  0  0  1  0  0  0  0  0  0
  -26.9880  -30.3700   24.8000 C   0  0  0  0  0  1  0  0  0  0  0  0
  -27.5600  -32.5430   25.8470 C   0  0  0  0  0  1  0  0  0  0  0  0
  -25.6040  -33.9240   24.2240 N   0  0  0  0  0  0  0  0  0  0  0  0
  -25.9180  -34.9790   23.4610 C   0  0  0  0  0  0  0  0  0  0  0  0
  -26.5630  -34.8750   22.4140 O   0  0  0  0  0  0  0  0  0  0  0  0
  -25.0280  -34.0780   25.0400 H   0  0  0  0  0  0  0  0  0  0  0  0
  -24.1670  -36.7650   23.1720 C   0  0  0  0  0  1  0  0  0  0  0  0
  -25.4440  -36.3690   23.9320 C   0  0  0  0  0  3  0  0  0  0  0  0
  -27.6040  -37.2730   24.6700 C   0  0  0  0  0  1  0  0  0  0  0  0
  -26.4650  -37.4270   23.7690 N   0  0  0  0  0  0  0  0  0  0  0  0
  -26.0590  -38.3460   23.9240 H   0  0  0  0  0  0  0  0  0  0  0  0
  1  3  1  0
  2  3  2  0
  3  7  1  0
  4  1  2  0
  5  2  1  0
  6  5  2  0
  6  4  1  0
  8  6  1  0
  9 17  1  0
 10 15  1  0
 11 12  1  0
 11 10  1  0
 13 12  1  0
 13 22  1  0
 13 14  1  0
 15  9  1  0
 15 14  1  0
 16  9  2  0
 17  4  1  0
 17 18  1  0
 19 20  2  0
 20 39  1  0
 21 20  1  0
 21 24  1  0
 22 19  1  0
 22 23  1  0
 23 21  2  0
 24 25  1  0
 25 26  2  0
 27 30  1  0
 27 26  1  0
 28 27  2  0
 29 28  1  0
 29 24  2  0
 30 31  1  0
 31 32  1  0
 32 33  2  0
 34 33  1  0
 34 38  1  0
 35 34  2  0
 36 31  2  0
 36 35  1  0
 37 36  1  0
 39 40  1  0
 40 43  1  0
 40 42  1  0
 41 39  2  0
 44 45  1  0
 44 19  1  0
 46 44  1  0
 47 49  1  0
 47  5  1  0
 48 47  1  0
 50 51  1  0
 50 49  2  0
 52 63  2  0
 53 51  1  0
 53 58  1  0
 54 62  1  0
 54 64  1  0
 55 61  1  0
 55 57  1  0
 56 62  1  0
 57 58  2  0
 57 56  1  0
 59 53  2  0
 60 59  1  0
 60 55  2  0
 61 54  1  0
 62 52  1  0
 64 66  2  0
 65 64  1  0
 67 65  1  0
 68 77  2  0
 68 73  1  0
 69 65  1  0
 69 73  1  0
 70 69  1  0
 71 72  1  0
 71 70  1  0
 72 68  1  0
 73 74  2  0
 74 75  1  0
 76 75  2  0
 77 76  1  0
 78 52  1  0
 78 83  1  0
 78 79  1  0
 79 82  1  1
 79 80  1  0
 81 79  1  0
 83 86  1  0
 84 88  1  0
 84 83  1  0
 85 84  2  0
 88 87  1  0
 90 91  1  0
 90 88  1  0
 90 89  1  0
M  ISO  4   9 100  17 100  50 101  51 101
M  END
>  <TORSDO>  (43) 
F 19

>  <SCORE>  (43) 
-15.305

>  <name>  (43) 
42

>  <ligand_id>  (43) 
42

>  <original_smiles>  (43) 
[H]c1c([H])c([H])c2c(c1[H])C([H])([H])C([H])([H])C([H])([H])C2([H])N([H])C(=O)C1([H])N(C(=O)C([H])(N([H])C(=O)C([H])(N([H])C([H])([H])[H])C([H])([H])[H])C(C([H])([H])[H])(C([H])([H])[H])C([H])([H])[H])C([H])([H])c2c([H])c(OC([H])([H])C([H])([H])N([H])c3c([H])c(C([H])([H])[H])c([H])c(N([H])C(=O)N4C([H])([H])C([H])([H])C([H])([H])C([H])(n5nc(-c6c([H])c([H])c(Oc7c([H])c([H])c(F)c([H])c7F)c([H])c6[H])c(C(=O)N([H])[H])c5N([H])[H])C4([H])[H])c3Cl)c([H])c([H])c2C1([H])[H]

>  <smiles>  (43) 
[H]c1c([H])c([H])c2c(c1[H])C([H])([H])C([H])([H])C([H])([H])C2([H])N([H])C(=O)C1([H])N(C(=O)C([H])(N([H])C(=O)C([H])(N([H])C([H])([H])[H])C([H])([H])[H])C(C([H])([H])[H])(C([H])([H])[H])C([H])([H])[H])C([H])([H])c2c([H])c(OC([H])([H])C([H])([H])N([H])c3c([H])c(C([H])([H])[H])c([H])c(N([H])C(=O)N4C([H])([H])C([H])([H])C([H])([H])C([H])(n5nc(-c6c([H])c([H])c(Oc7c([H])c([H])c(F)c([H])c7F)c([H])c6[H])c(C(=O)N([H])[H])c5N([H])[H])C4([H])[H])c3Cl)c([H])c([H])c2C1([H])[H]

$$$$
43:0:0
     RDKit          3D

 91 99  0  0  1  0  0  0  0  0999 V2000
  -29.9950  -21.5290   20.3470 N   0  0  0  0  0  0  0  0  0  0  0  0
  -30.9320  -21.9270   20.3000 H   0  0  0  0  0  0  0  0  0  0  0  0
  -31.1130  -19.3350   20.4640 C   0  0  0  0  0  3  0  0  0  0  0  0
  -31.1210  -17.9090   20.5340 C   0  0  0  0  0  3  0  0  0  0  0  0
  -28.7100  -19.3490   20.3720 C   0  0  0  0  0  3  0  0  0  0  0  0
  -29.9160  -20.0970   20.3860 C   0  0  0  0  0  0  0  0  0  0  0  0
  -29.9120  -17.1680   20.5350 C   0  0  0  0  0  0  0  0  0  0  0  0
  -28.7140  -17.9250   20.4500 C   0  0  0  0  0  0  0  0  0  0  0  0
  -27.5320  -17.2600   20.4430 F   0  0  0  0  0  0  0  0  0  0  0  0
  -30.5860  -14.6780   20.2440 C   0  0  0  0  0  0  0  0  0  0  0  0
  -30.3220  -12.4700   19.1360 C   0  0  0  0  0  2  0  0  0  0  0  0
  -29.3330  -12.6360   17.9620 C   0  0  0  0  0  2  0  0  0  0  0  0
  -27.8760  -12.4780   18.4420 C   0  0  0  0  0  2  0  0  0  0  0  0
  -27.5700  -13.3140   19.7140 C   0  0  0  0  0  3  0  0  0  0  0  0
  -28.6690  -13.1180   20.7830 C   0  0  0  0  0  2  0  0  0  0  0  0
  -29.9600  -13.4620   20.1660 N   0  0  0  0  0  0  0  0  0  0  0  0
  -31.7320  -14.8400   19.8190 O   0  0  0  0  0  0  0  0  0  0  0  0
  -29.7960  -15.7170   20.6490 N   0  0  0  0  0  0  0  0  0  0  0  0
  -28.8780  -15.4180   20.9420 H   0  0  0  0  0  0  0  0  0  0  0  0
  -25.2070  -13.9130   20.5280 C   0  0  0  0  0  0  0  0  0  0  0  0
  -24.1470  -13.1380   20.9140 C   0  0  0  0  0  0  0  0  0  0  0  0
  -24.5980  -11.7850   20.8350 C   0  0  0  0  0  0  0  0  0  0  0  0
  -26.2370  -13.0310   20.2390 N   0  0  0  0  0  0  0  0  0  0  0  0
  -25.8760  -11.7450   20.4830 N   0  0  0  0  0  0  0  0  0  0  0  0
  -23.8670  -10.5240   21.0210 C   0  0  0  0  0  0  0  0  0  0  0  0
  -24.3030   -9.5480   21.9440 C   0  0  0  0  0  3  0  0  0  0  0  0
  -23.5740   -8.3520   22.1170 C   0  0  0  0  0  3  0  0  0  0  0  0
  -22.3960   -8.1240   21.3670 C   0  0  0  0  0  0  0  0  0  0  0  0
  -21.9800   -9.0880   20.4330 C   0  0  0  0  0  3  0  0  0  0  0  0
  -22.7090  -10.2760   20.2580 C   0  0  0  0  0  3  0  0  0  0  0  0
  -21.6380   -6.9800   21.4510 O   0  0  0  0  0  0  0  0  0  0  0  0
  -21.5630   -6.2490   22.6100 C   0  0  0  0  0  0  0  0  0  0  0  0
  -21.0800   -6.8090   23.8130 C   0  0  0  0  0  3  0  0  0  0  0  0
  -20.9540   -6.0030   24.9620 C   0  0  0  0  0  3  0  0  0  0  0  0
  -21.3000   -4.6390   24.9100 C   0  0  0  0  0  0  0  0  0  0  0  0
  -21.7770   -4.0810   23.7110 C   0  0  0  0  0  3  0  0  0  0  0  0
  -21.9050   -4.8830   22.5630 C   0  0  0  0  0  0  0  0  0  0  0  0
  -22.3440   -4.3340   21.4050 F   0  0  0  0  0  0  0  0  0  0  0  0
  -21.1720   -3.8640   26.0110 F   0  0  0  0  0  0  0  0  0  0  0  0
  -22.7630  -13.6190   21.2470 C   0  0  0  0  0  0  0  0  0  0  0  0
  -22.0610  -12.9050   22.1200 N   0  0  0  0  0  0  0  0  0  0  0  0
  -22.3160  -14.6620   20.7710 O   0  0  0  0  0  0  0  0  0  0  0  0
  -22.4360  -12.0610   22.5260 H   0  0  0  0  0  0  0  0  0  0  0  0
  -21.1350  -13.2080   22.3860 H   0  0  0  0  0  0  0  0  0  0  0  0
  -25.3720  -15.2870   20.3860 N   0  0  0  0  0  0  0  0  0  0  0  0
  -24.6190  -15.9360   20.5810 H   0  0  0  0  0  0  0  0  0  0  0  0
  -26.2380  -15.7570   20.1540 H   0  0  0  0  0  0  0  0  0  0  0  0
  -28.8750  -22.4930   20.1460 C   0  0  0  0  0  2  0  0  0  0  0  0
  -29.2490  -24.0370   20.2920 C   0  0  0  0  0  3  0  0  0  0  0  0
  -28.1090  -25.0860   19.9540 C   0  0  0  0  0  3  0  0  0  0  0  0
  -28.3260  -26.5330   20.1740 O   0  0  0  0  0  0  0  0  0  0  0  0
  -24.5850  -31.8920   23.2290 C   0  0  0  0  0  0  0  0  0  0  0  0
  -27.1980  -27.3700   20.1340 C   0  0  0  0  0  0  0  0  0  0  0  0
  -23.3760  -30.4990   21.5890 C   0  0  0  0  0  3  0  0  0  0  0  0
  -24.8230  -28.9650   20.1480 C   0  0  0  0  0  0  0  0  0  0  0  0
  -25.9130  -30.8300   21.3930 C   0  0  0  0  0  2  0  0  0  0  0  0
  -25.9940  -29.4570   20.7400 C   0  0  0  0  0  0  0  0  0  0  0  0
  -27.1840  -28.6710   20.7230 C   0  0  0  0  0  3  0  0  0  0  0  0
  -25.9990  -26.9320   19.5190 C   0  0  0  0  0  3  0  0  0  0  0  0
  -24.8280  -27.7080   19.5300 C   0  0  0  0  0  3  0  0  0  0  0  0
  -23.5840  -29.8330   20.2040 C   0  0  0  0  0  2  0  0  0  0  0  0
  -24.6430  -31.0910   22.1280 N   0  0  0  0  0  0  0  0  0  0  0  0
  -23.5030  -32.1650   23.7710 O   0  0  0  0  0  0  0  0  0  0  0  0
  -22.7220  -29.4740   22.5470 C   0  0  0  0  0  0  0  0  0  0  0  0
  -21.3970  -29.2910   22.4210 N   0  0  0  0  0  0  0  0  0  0  0  0
  -23.4060  -28.8480   23.3610 O   0  0  0  0  0  0  0  0  0  0  0  0
  -20.9060  -29.8500   21.7370 H   0  0  0  0  0  0  0  0  0  0  0  0
  -18.0230  -28.0940   22.9330 C   0  0  0  0  0  0  0  0  0  0  0  0
  -20.5820  -28.3490   23.1890 C   0  0  0  0  0  3  0  0  0  0  0  0
  -20.6790  -26.9220   22.6030 C   0  0  0  0  0  2  0  0  0  0  0  0
  -19.5700  -26.6070   21.5940 C   0  0  0  0  0  2  0  0  0  0  0  0
  -18.1930  -26.7490   22.2480 C   0  0  0  0  0  2  0  0  0  0  0  0
  -19.1450  -28.8520   23.3610 C   0  0  0  0  0  0  0  0  0  0  0  0
  -18.9300  -30.1120   23.9630 C   0  0  0  0  0  3  0  0  0  0  0  0
  -17.6280  -30.6130   24.1410 C   0  0  0  0  0  3  0  0  0  0  0  0
  -16.5210  -29.8520   23.7290 C   0  0  0  0  0  3  0  0  0  0  0  0
  -16.7180  -28.5950   23.1310 C   0  0  0  0  0  3  0  0  0  0  0  0
  -25.8700  -32.5240   23.8490 C   0  0  0  0  0  3  0  0  0  0  0  0
  -26.3900  -31.7510   25.1220 C   0  0  1  0  0  0  0  0  0  0  0  0
  -25.2990  -31.5040   26.1900 C   0  0  0  0  0  1  0  0  0  0  0  0
  -26.9790  -30.3770   24.7240 C   0  0  0  0  0  1  0  0  0  0  0  0
  -27.5390  -32.5470   25.7860 C   0  0  0  0  0  1  0  0  0  0  0  0
  -25.5600  -33.9220   24.1820 N   0  0  0  0  0  0  0  0  0  0  0  0
  -25.8630  -34.9740   23.4100 C   0  0  0  0  0  0  0  0  0  0  0  0
  -26.5040  -34.8710   22.3600 O   0  0  0  0  0  0  0  0  0  0  0  0
  -24.9890  -34.0750   25.0010 H   0  0  0  0  0  0  0  0  0  0  0  0
  -24.1050  -36.7470   23.1100 C   0  0  0  0  0  1  0  0  0  0  0  0
  -25.3790  -36.3610   23.8760 C   0  0  0  0  0  3  0  0  0  0  0  0
  -27.5310  -37.2760   24.6280 C   0  0  0  0  0  1  0  0  0  0  0  0
  -26.3970  -37.4220   23.7180 N   0  0  0  0  0  0  0  0  0  0  0  0
  -25.9860  -38.3400   23.8690 H   0  0  0  0  0  0  0  0  0  0  0  0
  1  6  1  0
  2  1  1  0
  3  4  1  0
  4  7  2  0
  5  6  1  0
  5  8  2  0
  6  3  2  0
  7 18  1  0
  8  7  1  0
  9  8  1  0
 10 18  1  0
 11 16  1  0
 12 13  1  0
 12 11  1  0
 14 13  1  0
 14 23  1  0
 14 15  1  0
 16 10  1  0
 16 15  1  0
 17 10  2  0
 18 19  1  0
 20 21  2  0
 21 40  1  0
 22 21  1  0
 22 25  1  0
 23 24  1  0
 23 20  1  0
 24 22  2  0
 25 26  1  0
 26 27  2  0
 28 31  1  0
 28 27  1  0
 29 28  2  0
 30 29  1  0
 30 25  2  0
 31 32  1  0
 32 33  1  0
 33 34  2  0
 35 34  1  0
 35 39  1  0
 36 35  2  0
 37 32  2  0
 37 36  1  0
 38 37  1  0
 40 41  1  0
 41 44  1  0
 41 43  1  0
 42 40  2  0
 45 20  1  0
 45 46  1  0
 47 45  1  0
 48 49  1  0
 48  1  1  0
 50 51  1  0
 50 49  2  0
 52 63  2  0
 53 51  1  0
 53 58  1  0
 54 62  1  0
 54 64  1  0
 55 61  1  0
 55 57  1  0
 56 62  1  0
 57 56  1  0
 58 57  2  0
 59 60  1  0
 59 53  2  0
 60 55  2  0
 61 54  1  0
 62 52  1  0
 64 66  2  0
 65 64  1  0
 67 65  1  0
 68 77  2  0
 68 73  1  0
 69 65  1  0
 69 73  1  0
 70 69  1  0
 71 72  1  0
 71 70  1  0
 72 68  1  0
 73 74  2  0
 74 75  1  0
 76 75  2  0
 77 76  1  0
 78 52  1  0
 78 83  1  0
 78 79  1  0
 79 82  1  1
 79 80  1  0
 81 79  1  0
 83 86  1  0
 84 88  1  0
 84 83  1  0
 85 84  2  0
 88 87  1  0
 90 91  1  0
 90 88  1  0
 90 89  1  0
M  ISO  4  10 100  18 100  50 101  51 101
M  END
>  <TORSDO>  (44) 
F 20

>  <SCORE>  (44) 
-14.064

>  <name>  (44) 
43

>  <ligand_id>  (44) 
43

>  <original_smiles>  (44) 
[H]c1c([H])c([H])c2c(c1[H])C([H])([H])C([H])([H])C([H])([H])C2([H])N([H])C(=O)C1([H])N(C(=O)C([H])(N([H])C(=O)C([H])(N([H])C([H])([H])[H])C([H])([H])[H])C(C([H])([H])[H])(C([H])([H])[H])C([H])([H])[H])C([H])([H])c2c([H])c(OC([H])([H])C([H])([H])C([H])([H])N([H])c3c([H])c([H])c(N([H])C(=O)N4C([H])([H])C([H])([H])C([H])([H])C([H])(n5nc(-c6c([H])c([H])c(Oc7c([H])c([H])c(F)c([H])c7F)c([H])c6[H])c(C(=O)N([H])[H])c5N([H])[H])C4([H])[H])c(F)c3[H])c([H])c([H])c2C1([H])[H]

>  <smiles>  (44) 
[H]c1c([H])c([H])c2c(c1[H])C([H])([H])C([H])([H])C([H])([H])C2([H])N([H])C(=O)C1([H])N(C(=O)C([H])(N([H])C(=O)C([H])(N([H])C([H])([H])[H])C([H])([H])[H])C(C([H])([H])[H])(C([H])([H])[H])C([H])([H])[H])C([H])([H])c2c([H])c(OC([H])([H])C([H])([H])C([H])([H])N([H])c3c([H])c([H])c(N([H])C(=O)N4C([H])([H])C([H])([H])C([H])([H])C([H])(n5nc(-c6c([H])c([H])c(Oc7c([H])c([H])c(F)c([H])c7F)c([H])c6[H])c(C(=O)N([H])[H])c5N([H])[H])C4([H])[H])c(F)c3[H])c([H])c([H])c2C1([H])[H]

$$$$
44:0:0
     RDKit          3D

 92100  0  0  1  0  0  0  0  0999 V2000
  -29.4240  -22.4610   20.4450 C   0  0  0  0  0  0  0  0  0  0  0  0
  -28.2930  -20.9740   18.8960 C   0  0  0  0  0  1  0  0  0  0  0  0
  -29.2180  -21.1280   20.0270 N   0  0  0  0  0  0  0  0  0  0  0  0
  -30.3360  -22.7420   21.2270 O   0  0  0  0  0  0  0  0  0  0  0  0
  -31.0450  -17.4650   21.7420 C   0  0  0  0  0  3  0  0  0  0  0  0
  -31.0130  -18.6920   22.4260 C   0  0  0  0  0  3  0  0  0  0  0  0
  -29.8650  -18.5530   19.9100 C   0  0  0  0  0  3  0  0  0  0  0  0
  -30.4320  -17.3340   20.4830 C   0  0  0  0  0  0  0  0  0  0  0  0
  -29.8490  -19.8630   20.5750 C   0  0  0  0  0  0  0  0  0  0  0  0
  -30.3990  -19.8430   21.8880 C   0  0  0  0  0  0  0  0  0  0  0  0
  -30.2800  -20.9010   22.7220 F   0  0  0  0  0  0  0  0  0  0  0  0
  -31.0300  -14.8200   20.0090 C   0  0  0  0  0  0  0  0  0  0  0  0
  -30.7700  -12.5210   19.0450 C   0  0  0  0  0  2  0  0  0  0  0  0
  -29.7900  -12.5610   17.8530 C   0  0  0  0  0  2  0  0  0  0  0  0
  -28.3360  -12.4280   18.3420 C   0  0  0  0  0  2  0  0  0  0  0  0
  -28.0090  -13.3820   19.5190 C   0  0  0  0  0  3  0  0  0  0  0  0
  -29.0980  -13.3060   20.6120 C   0  0  0  0  0  2  0  0  0  0  0  0
  -30.3790  -13.6110   19.9620 N   0  0  0  0  0  0  0  0  0  0  0  0
  -32.2370  -14.8890   19.7600 O   0  0  0  0  0  0  0  0  0  0  0  0
  -30.2340  -15.9550   19.9780 N   0  0  0  0  0  0  0  0  0  0  0  0
  -29.2670  -15.7300   19.7960 H   0  0  0  0  0  0  0  0  0  0  0  0
  -25.6740  -14.0760   20.3290 C   0  0  0  0  0  0  0  0  0  0  0  0
  -24.5880  -13.3430   20.7220 C   0  0  0  0  0  0  0  0  0  0  0  0
  -24.9940  -11.9730   20.6700 C   0  0  0  0  0  0  0  0  0  0  0  0
  -26.6710  -13.1530   20.0540 N   0  0  0  0  0  0  0  0  0  0  0  0
  -26.2720  -11.8850   20.3250 N   0  0  0  0  0  0  0  0  0  0  0  0
  -24.2240  -10.7400   20.8670 C   0  0  0  0  0  0  0  0  0  0  0  0
  -24.6250   -9.7620   21.8020 C   0  0  0  0  0  3  0  0  0  0  0  0
  -23.8550   -8.5940   21.9870 C   0  0  0  0  0  3  0  0  0  0  0  0
  -22.6710   -8.3960   21.2380 C   0  0  0  0  0  0  0  0  0  0  0  0
  -22.2910   -9.3630   20.2910 C   0  0  0  0  0  3  0  0  0  0  0  0
  -23.0600  -10.5230   20.1040 C   0  0  0  0  0  3  0  0  0  0  0  0
  -21.8750   -7.2800   21.3330 O   0  0  0  0  0  0  0  0  0  0  0  0
  -21.7770   -6.5650   22.4990 C   0  0  0  0  0  0  0  0  0  0  0  0
  -21.3400   -7.1590   23.7040 C   0  0  0  0  0  3  0  0  0  0  0  0
  -21.1840   -6.3720   24.8620 C   0  0  0  0  0  3  0  0  0  0  0  0
  -21.4560   -4.9920   24.8180 C   0  0  0  0  0  0  0  0  0  0  0  0
  -21.8840   -4.3970   23.6180 C   0  0  0  0  0  3  0  0  0  0  0  0
  -22.0420   -5.1820   22.4610 C   0  0  0  0  0  0  0  0  0  0  0  0
  -22.4360   -4.5990   21.3040 F   0  0  0  0  0  0  0  0  0  0  0  0
  -21.2980   -4.2330   25.9280 F   0  0  0  0  0  0  0  0  0  0  0  0
  -23.2210  -13.8750   21.0330 C   0  0  0  0  0  0  0  0  0  0  0  0
  -22.4930  -13.2120   21.9250 N   0  0  0  0  0  0  0  0  0  0  0  0
  -22.8080  -14.9150   20.5210 O   0  0  0  0  0  0  0  0  0  0  0  0
  -22.8400  -12.3720   22.3670 H   0  0  0  0  0  0  0  0  0  0  0  0
  -21.5770  -13.5550   22.1780 H   0  0  0  0  0  0  0  0  0  0  0  0
  -25.8850  -15.4430   20.1600 N   0  0  0  0  0  0  0  0  0  0  0  0
  -25.1430  -16.1170   20.3110 H   0  0  0  0  0  0  0  0  0  0  0  0
  -26.7290  -15.8670   19.7940 H   0  0  0  0  0  0  0  0  0  0  0  0
  -28.6190  -23.7460   19.8790 C   0  0  0  0  0  2  0  0  0  0  0  0
  -28.3400  -25.0490   20.8040 C   0  0  0  0  0  2  0  0  0  0  0  0
  -28.4320  -26.4570   20.2900 O   0  0  0  0  0  0  0  0  0  0  0  0
  -24.6380  -31.9010   23.2440 C   0  0  0  0  0  0  0  0  0  0  0  0
  -27.3000  -27.2980   20.2860 C   0  0  0  0  0  0  0  0  0  0  0  0
  -23.4540  -30.4820   21.6030 C   0  0  0  0  0  3  0  0  0  0  0  0
  -24.9280  -28.9100   20.2190 C   0  0  0  0  0  0  0  0  0  0  0  0
  -25.9940  -30.8060   21.4420 C   0  0  0  0  0  2  0  0  0  0  0  0
  -26.0880  -29.4130   20.8190 C   0  0  0  0  0  0  0  0  0  0  0  0
  -27.2790  -28.6200   20.8360 C   0  0  0  0  0  3  0  0  0  0  0  0
  -26.1180  -26.8440   19.6660 C   0  0  0  0  0  3  0  0  0  0  0  0
  -24.9470  -27.6320   19.6310 C   0  0  0  0  0  3  0  0  0  0  0  0
  -23.6880  -29.7830   20.2360 C   0  0  0  0  0  2  0  0  0  0  0  0
  -24.7140  -31.0820   22.1540 N   0  0  0  0  0  0  0  0  0  0  0  0
  -23.5480  -32.1800   23.7650 O   0  0  0  0  0  0  0  0  0  0  0  0
  -22.7820  -29.4770   22.5710 C   0  0  0  0  0  0  0  0  0  0  0  0
  -21.4610  -29.2820   22.4160 N   0  0  0  0  0  0  0  0  0  0  0  0
  -23.4480  -28.8770   23.4170 O   0  0  0  0  0  0  0  0  0  0  0  0
  -20.9820  -29.8200   21.7080 H   0  0  0  0  0  0  0  0  0  0  0  0
  -18.0990  -28.0080   22.8240 C   0  0  0  0  0  0  0  0  0  0  0  0
  -20.6370  -28.3470   23.1830 C   0  0  0  0  0  3  0  0  0  0  0  0
  -20.7980  -26.8990   22.6600 C   0  0  0  0  0  2  0  0  0  0  0  0
  -19.7460  -26.5140   21.6160 C   0  0  0  0  0  2  0  0  0  0  0  0
  -18.3360  -26.6430   22.1990 C   0  0  0  0  0  2  0  0  0  0  0  0
  -19.1790  -28.8140   23.2700 C   0  0  0  0  0  0  0  0  0  0  0  0
  -18.9050  -30.0860   23.8150 C   0  0  0  0  0  3  0  0  0  0  0  0
  -17.5830  -30.5580   23.9150 C   0  0  0  0  0  3  0  0  0  0  0  0
  -16.5160  -29.7510   23.4840 C   0  0  0  0  0  3  0  0  0  0  0  0
  -16.7730  -28.4770   22.9460 C   0  0  0  0  0  3  0  0  0  0  0  0
  -25.9120  -32.5440   23.8750 C   0  0  0  0  0  3  0  0  0  0  0  0
  -26.4200  -31.7800   25.1600 C   0  0  1  0  0  0  0  0  0  0  0  0
  -25.3190  -31.5410   26.2190 C   0  0  0  0  0  1  0  0  0  0  0  0
  -27.0150  -30.4030   24.7780 C   0  0  0  0  0  1  0  0  0  0  0  0
  -27.5580  -32.5850   25.8320 C   0  0  0  0  0  1  0  0  0  0  0  0
  -25.5930  -33.9410   24.2000 N   0  0  0  0  0  0  0  0  0  0  0  0
  -25.9230  -34.9940   23.4410 C   0  0  0  0  0  0  0  0  0  0  0  0
  -26.5970  -34.8920   22.4120 O   0  0  0  0  0  0  0  0  0  0  0  0
  -24.9950  -34.0930   24.9980 H   0  0  0  0  0  0  0  0  0  0  0  0
  -24.1830  -36.7760   23.0790 C   0  0  0  0  0  1  0  0  0  0  0  0
  -25.4260  -36.3820   23.8910 C   0  0  0  0  0  3  0  0  0  0  0  0
  -27.5550  -37.2880   24.7170 C   0  0  0  0  0  1  0  0  0  0  0  0
  -26.4520  -37.4420   23.7730 N   0  0  0  0  0  0  0  0  0  0  0  0
  -26.0390  -38.3590   23.9160 H   0  0  0  0  0  0  0  0  0  0  0  0
  1  4  2  0
  2  3  1  0
  3  1  1  0
  3  9  1  0
  5  6  1  0
  7  8  1  0
  7  9  2  0
  8  5  2  0
  9 10  1  0
 10  6  2  0
 10 11  1  0
 13 18  1  0
 14 15  1  0
 14 13  1  0
 16 15  1  0
 16 25  1  0
 16 17  1  0
 18 12  1  0
 18 17  1  0
 19 12  2  0
 20 12  1  0
 20  8  1  0
 21 20  1  0
 22 23  2  0
 23 42  1  0
 24 23  1  0
 24 27  1  0
 25 26  1  0
 25 22  1  0
 26 24  2  0
 27 28  1  0
 28 29  2  0
 30 33  1  0
 30 29  1  0
 31 30  2  0
 32 31  1  0
 32 27  2  0
 33 34  1  0
 34 35  1  0
 35 36  2  0
 37 36  1  0
 37 41  1  0
 38 37  2  0
 39 34  2  0
 39 38  1  0
 40 39  1  0
 42 43  1  0
 43 46  1  0
 43 45  1  0
 44 42  2  0
 47 48  1  0
 47 22  1  0
 49 47  1  0
 50  1  1  0
 50 51  1  0
 52 51  1  0
 53 64  2  0
 54 52  1  0
 54 59  1  0
 55 63  1  0
 55 65  1  0
 56 62  1  0
 56 58  1  0
 57 63  1  0
 58 59  2  0
 58 57  1  0
 60 54  2  0
 61 60  1  0
 61 56  2  0
 62 55  1  0
 63 53  1  0
 65 67  2  0
 66 65  1  0
 68 66  1  0
 69 78  2  0
 69 74  1  0
 70 66  1  0
 70 74  1  0
 71 70  1  0
 72 73  1  0
 72 71  1  0
 73 69  1  0
 74 75  2  0
 75 76  1  0
 77 76  2  0
 78 77  1  0
 79 53  1  0
 79 84  1  0
 79 80  1  0
 80 83  1  1
 80 81  1  0
 82 80  1  0
 84 87  1  0
 85 89  1  0
 85 84  1  0
 86 85  2  0
 89 88  1  0
 91 89  1  0
 91 92  1  0
 91 90  1  0
M  ISO  4  12 100  20 100  51 101  52 101
M  END
>  <TORSDO>  (45) 
F 19

>  <SCORE>  (45) 
-14.077

>  <name>  (45) 
44

>  <ligand_id>  (45) 
44

>  <original_smiles>  (45) 
[H]c1c([H])c([H])c2c(c1[H])C([H])([H])C([H])([H])C([H])([H])C2([H])N([H])C(=O)C1([H])N(C(=O)C([H])(N([H])C(=O)C([H])(N([H])C([H])([H])[H])C([H])([H])[H])C(C([H])([H])[H])(C([H])([H])[H])C([H])([H])[H])C([H])([H])c2c([H])c(OC([H])([H])C([H])([H])C(=O)N(c3c([H])c(N([H])C(=O)N4C([H])([H])C([H])([H])C([H])([H])C([H])(n5nc(-c6c([H])c([H])c(Oc7c([H])c([H])c(F)c([H])c7F)c([H])c6[H])c(C(=O)N([H])[H])c5N([H])[H])C4([H])[H])c([H])c([H])c3F)C([H])([H])[H])c([H])c([H])c2C1([H])[H]

>  <smiles>  (45) 
[H]c1c([H])c([H])c2c(c1[H])C([H])([H])C([H])([H])C([H])([H])C2([H])N([H])C(=O)C1([H])N(C(=O)C([H])(N([H])C(=O)C([H])(N([H])C([H])([H])[H])C([H])([H])[H])C(C([H])([H])[H])(C([H])([H])[H])C([H])([H])[H])C([H])([H])c2c([H])c(OC([H])([H])C([H])([H])C(=O)N(c3c([H])c(N([H])C(=O)N4C([H])([H])C([H])([H])C([H])([H])C([H])(n5nc(-c6c([H])c([H])c(Oc7c([H])c([H])c(F)c([H])c7F)c([H])c6[H])c(C(=O)N([H])[H])c5N([H])[H])C4([H])[H])c([H])c([H])c3F)C([H])([H])[H])c([H])c([H])c2C1([H])[H]

$$$$
45:0:0
     RDKit          3D

 89 97  0  0  1  0  0  0  0  0999 V2000
  -30.2130  -22.4370   22.0920 C   0  0  0  0  0  1  0  0  0  0  0  0
  -29.3420  -22.1380   20.9500 N   0  0  0  0  0  0  0  0  0  0  0  0
  -30.8090  -18.4590   20.6010 C   0  0  0  0  0  3  0  0  0  0  0  0
  -28.4740  -18.3570   20.3010 C   0  0  0  0  0  3  0  0  0  0  0  0
  -30.7020  -19.9120   20.6920 C   0  0  0  0  0  3  0  0  0  0  0  0
  -28.3760  -19.8040   20.3800 C   0  0  0  0  0  3  0  0  0  0  0  0
  -29.6820  -17.5870   20.4330 C   0  0  0  0  0  0  0  0  0  0  0  0
  -29.4790  -20.6840   20.6090 C   0  0  0  0  0  0  0  0  0  0  0  0
  -30.4760  -14.9470   20.2930 C   0  0  0  0  0  0  0  0  0  0  0  0
  -30.3490  -12.6190   19.3140 C   0  0  0  0  0  2  0  0  0  0  0  0
  -29.3980  -12.6290   18.0960 C   0  0  0  0  0  2  0  0  0  0  0  0
  -27.9290  -12.4440   18.5300 C   0  0  0  0  0  2  0  0  0  0  0  0
  -27.5460  -13.3340   19.7440 C   0  0  0  0  0  3  0  0  0  0  0  0
  -28.6190  -13.2820   20.8520 C   0  0  0  0  0  2  0  0  0  0  0  0
  -29.8970  -13.6860   20.2440 N   0  0  0  0  0  0  0  0  0  0  0  0
  -31.6750  -15.0530   20.0010 O   0  0  0  0  0  0  0  0  0  0  0  0
  -29.6230  -16.0640   20.4350 N   0  0  0  0  0  0  0  0  0  0  0  0
  -28.6720  -15.7310   20.5080 H   0  0  0  0  0  0  0  0  0  0  0  0
  -25.1650  -13.9040   20.5080 C   0  0  0  0  0  0  0  0  0  0  0  0
  -24.1060  -13.1280   20.8920 C   0  0  0  0  0  0  0  0  0  0  0  0
  -24.5740  -11.7800   20.8560 C   0  0  0  0  0  0  0  0  0  0  0  0
  -26.2090  -13.0310   20.2530 N   0  0  0  0  0  0  0  0  0  0  0  0
  -25.8610  -11.7440   20.5230 N   0  0  0  0  0  0  0  0  0  0  0  0
  -23.8520  -10.5160   21.0540 C   0  0  0  0  0  0  0  0  0  0  0  0
  -24.3030   -9.5370   21.9680 C   0  0  0  0  0  3  0  0  0  0  0  0
  -23.5730   -8.3430   22.1540 C   0  0  0  0  0  3  0  0  0  0  0  0
  -22.3780   -8.1170   21.4300 C   0  0  0  0  0  0  0  0  0  0  0  0
  -21.9510   -9.0840   20.5010 C   0  0  0  0  0  3  0  0  0  0  0  0
  -22.6810  -10.2690   20.3120 C   0  0  0  0  0  3  0  0  0  0  0  0
  -21.6220   -6.9740   21.5230 O   0  0  0  0  0  0  0  0  0  0  0  0
  -21.6150   -6.2110   22.6640 C   0  0  0  0  0  0  0  0  0  0  0  0
  -21.2590   -6.7490   23.9190 C   0  0  0  0  0  3  0  0  0  0  0  0
  -21.1940   -5.9120   25.0500 C   0  0  0  0  0  3  0  0  0  0  0  0
  -21.4770   -4.5390   24.9300 C   0  0  0  0  0  0  0  0  0  0  0  0
  -21.8310   -4.0020   23.6800 C   0  0  0  0  0  3  0  0  0  0  0  0
  -21.8970   -4.8360   22.5500 C   0  0  0  0  0  0  0  0  0  0  0  0
  -22.2150   -4.3080   21.3450 F   0  0  0  0  0  0  0  0  0  0  0  0
  -21.4120   -3.7330   26.0170 F   0  0  0  0  0  0  0  0  0  0  0  0
  -22.7090  -13.6040   21.1670 C   0  0  0  0  0  0  0  0  0  0  0  0
  -21.9850  -12.9160   22.0400 N   0  0  0  0  0  0  0  0  0  0  0  0
  -22.2690  -14.6240   20.6400 O   0  0  0  0  0  0  0  0  0  0  0  0
  -22.3510  -12.1010   22.5070 H   0  0  0  0  0  0  0  0  0  0  0  0
  -21.0470  -13.2270   22.2580 H   0  0  0  0  0  0  0  0  0  0  0  0
  -25.3080  -15.2770   20.3280 N   0  0  0  0  0  0  0  0  0  0  0  0
  -24.5160  -15.8980   20.4570 H   0  0  0  0  0  0  0  0  0  0  0  0
  -26.1100  -15.7440   19.9310 H   0  0  0  0  0  0  0  0  0  0  0  0
  -28.9750  -23.4020   20.1020 C   0  0  0  0  0  2  0  0  0  0  0  0
  -28.2530  -24.8040   20.7400 C   0  0  0  0  0  2  0  0  0  0  0  0
  -28.3440  -26.2710   20.2300 O   0  0  0  0  0  0  0  0  0  0  0  0
  -24.6350  -31.9050   23.2160 C   0  0  0  0  0  0  0  0  0  0  0  0
  -27.2400  -27.1970   20.2350 C   0  0  0  0  0  0  0  0  0  0  0  0
  -23.4320  -30.4920   21.5900 C   0  0  0  0  0  3  0  0  0  0  0  0
  -24.8870  -28.9060   20.1770 C   0  0  0  0  0  0  0  0  0  0  0  0
  -25.9810  -30.7780   21.4060 C   0  0  0  0  0  2  0  0  0  0  0  0
  -26.0620  -29.3790   20.7760 C   0  0  0  0  0  0  0  0  0  0  0  0
  -27.2380  -28.5420   20.7810 C   0  0  0  0  0  3  0  0  0  0  0  0
  -26.0350  -26.8130   19.6070 C   0  0  0  0  0  3  0  0  0  0  0  0
  -24.8850  -27.6350   19.5750 C   0  0  0  0  0  3  0  0  0  0  0  0
  -23.6530  -29.7960   20.2180 C   0  0  0  0  0  2  0  0  0  0  0  0
  -24.7030  -31.0810   22.1250 N   0  0  0  0  0  0  0  0  0  0  0  0
  -23.5500  -32.1920   23.7460 O   0  0  0  0  0  0  0  0  0  0  0  0
  -22.7600  -29.4940   22.5630 C   0  0  0  0  0  0  0  0  0  0  0  0
  -21.4310  -29.3240   22.4460 N   0  0  0  0  0  0  0  0  0  0  0  0
  -23.4350  -28.8730   23.3870 O   0  0  0  0  0  0  0  0  0  0  0  0
  -20.9390  -29.8750   21.7580 H   0  0  0  0  0  0  0  0  0  0  0  0
  -18.0560  -28.1130   22.9630 C   0  0  0  0  0  0  0  0  0  0  0  0
  -20.6150  -28.3890   23.2250 C   0  0  0  0  0  3  0  0  0  0  0  0
  -20.7190  -26.9510   22.6640 C   0  0  0  0  0  2  0  0  0  0  0  0
  -19.6180  -26.6160   21.6520 C   0  0  0  0  0  2  0  0  0  0  0  0
  -18.2370  -26.7600   22.2950 C   0  0  0  0  0  2  0  0  0  0  0  0
  -19.1730  -28.8850   23.3840 C   0  0  0  0  0  0  0  0  0  0  0  0
  -18.9480  -30.1510   23.9680 C   0  0  0  0  0  3  0  0  0  0  0  0
  -17.6410  -30.6460   24.1340 C   0  0  0  0  0  3  0  0  0  0  0  0
  -16.5390  -29.8720   23.7290 C   0  0  0  0  0  3  0  0  0  0  0  0
  -16.7480  -28.6090   23.1490 C   0  0  0  0  0  3  0  0  0  0  0  0
  -25.9150  -32.5460   23.8370 C   0  0  0  0  0  3  0  0  0  0  0  0
  -26.4390  -31.7770   25.1130 C   0  0  1  0  0  0  0  0  0  0  0  0
  -25.3520  -31.5450   26.1890 C   0  0  0  0  0  1  0  0  0  0  0  0
  -27.0200  -30.3960   24.7250 C   0  0  0  0  0  1  0  0  0  0  0  0
  -27.5870  -32.5750   25.7720 C   0  0  0  0  0  1  0  0  0  0  0  0
  -25.5950  -33.9420   24.1730 N   0  0  0  0  0  0  0  0  0  0  0  0
  -25.9150  -35.0040   23.4210 C   0  0  0  0  0  0  0  0  0  0  0  0
  -26.5790  -34.9110   22.3840 O   0  0  0  0  0  0  0  0  0  0  0  0
  -25.0020  -34.0870   24.9770 H   0  0  0  0  0  0  0  0  0  0  0  0
  -24.1720  -36.7930   23.1100 C   0  0  0  0  0  1  0  0  0  0  0  0
  -25.4280  -36.3870   23.8970 C   0  0  0  0  0  3  0  0  0  0  0  0
  -27.5760  -37.2820   24.6880 C   0  0  0  0  0  1  0  0  0  0  0  0
  -26.4510  -37.4480   23.7710 N   0  0  0  0  0  0  0  0  0  0  0  0
  -26.0390  -38.3630   23.9340 H   0  0  0  0  0  0  0  0  0  0  0  0
  2  1  1  0
  3  5  1  0
  4  6  2  0
  4  7  1  0
  6  8  1  0
  7 17  1  0
  7  3  2  0
  8  5  2  0
  8  2  1  0
  9 17  1  0
 10 15  1  0
 11 12  1  0
 11 10  1  0
 13 12  1  0
 13 22  1  0
 13 14  1  0
 15  9  1  0
 15 14  1  0
 16  9  2  0
 17 18  1  0
 19 20  2  0
 20 39  1  0
 21 20  1  0
 21 24  1  0
 22 19  1  0
 22 23  1  0
 23 21  2  0
 24 25  1  0
 25 26  2  0
 27 30  1  0
 27 26  1  0
 28 27  2  0
 29 28  1  0
 29 24  2  0
 30 31  1  0
 31 32  1  0
 32 33  2  0
 34 33  1  0
 34 38  1  0
 35 34  2  0
 36 31  2  0
 36 35  1  0
 37 36  1  0
 39 40  1  0
 40 43  1  0
 40 42  1  0
 41 39  2  0
 44 45  1  0
 44 19  1  0
 46 44  1  0
 47 48  1  0
 47  2  1  0
 49 51  1  0
 49 48  1  0
 50 61  2  0
 51 56  1  0
 52 60  1  0
 52 62  1  0
 53 59  1  0
 53 55  1  0
 54 60  1  0
 55 56  2  0
 55 54  1  0
 57 51  2  0
 58 57  1  0
 58 53  2  0
 59 52  1  0
 60 50  1  0
 62 64  2  0
 63 62  1  0
 65 63  1  0
 66 75  2  0
 66 71  1  0
 67 63  1  0
 67 71  1  0
 68 67  1  0
 69 70  1  0
 69 68  1  0
 70 66  1  0
 71 72  2  0
 72 73  1  0
 74 73  2  0
 75 74  1  0
 76 50  1  0
 76 81  1  0
 76 77  1  0
 77 80  1  1
 77 78  1  0
 79 77  1  0
 81 84  1  0
 82 86  1  0
 82 81  1  0
 83 82  2  0
 86 85  1  0
 88 86  1  0
 88 89  1  0
 88 87  1  0
M  ISO  4   9 100  17 100  48 101  49 101
M  END
>  <TORSDO>  (46) 
F 19

>  <SCORE>  (46) 
-15.308

>  <name>  (46) 
45

>  <ligand_id>  (46) 
45

>  <original_smiles>  (46) 
[H]c1c([H])c([H])c2c(c1[H])C([H])([H])C([H])([H])C([H])([H])C2([H])N([H])C(=O)C1([H])N(C(=O)C([H])(N([H])C(=O)C([H])(N([H])C([H])([H])[H])C([H])([H])[H])C(C([H])([H])[H])(C([H])([H])[H])C([H])([H])[H])C([H])([H])c2c([H])c(OC([H])([H])C([H])([H])N(c3c([H])c([H])c(N([H])C(=O)N4C([H])([H])C([H])([H])C([H])([H])C([H])(n5nc(-c6c([H])c([H])c(Oc7c([H])c([H])c(F)c([H])c7F)c([H])c6[H])c(C(=O)N([H])[H])c5N([H])[H])C4([H])[H])c([H])c3[H])C([H])([H])[H])c([H])c([H])c2C1([H])[H]

>  <smiles>  (46) 
[H]c1c([H])c([H])c2c(c1[H])C([H])([H])C([H])([H])C([H])([H])C2([H])N([H])C(=O)C1([H])N(C(=O)C([H])(N([H])C(=O)C([H])(N([H])C([H])([H])[H])C([H])([H])[H])C(C([H])([H])[H])(C([H])([H])[H])C([H])([H])[H])C([H])([H])c2c([H])c(OC([H])([H])C([H])([H])N(c3c([H])c([H])c(N([H])C(=O)N4C([H])([H])C([H])([H])C([H])([H])C([H])(n5nc(-c6c([H])c([H])c(Oc7c([H])c([H])c(F)c([H])c7F)c([H])c6[H])c(C(=O)N([H])[H])c5N([H])[H])C4([H])[H])c([H])c3[H])C([H])([H])[H])c([H])c([H])c2C1([H])[H]

$$$$
46:0:0
     RDKit          3D

 96104  0  0  1  0  0  0  0  0999 V2000
  -31.4170  -21.0200   17.6660 C   0  0  0  0  0  0  0  0  0  0  0  0
  -31.5300  -20.5440   18.9240 N   0  0  0  0  0  0  0  0  0  0  0  0
  -31.1060  -20.3250   16.6990 O   0  0  0  0  0  0  0  0  0  0  0  0
  -31.9670  -21.1580   19.6020 H   0  0  0  0  0  0  0  0  0  0  0  0
  -31.6910  -18.8200   20.6420 C   0  0  0  0  0  3  0  0  0  0  0  0
  -30.1590  -18.4580   18.7840 C   0  0  0  0  0  3  0  0  0  0  0  0
  -31.3250  -17.5730   21.1920 C   0  0  0  0  0  3  0  0  0  0  0  0
  -29.7870  -17.2170   19.3330 C   0  0  0  0  0  3  0  0  0  0  0  0
  -31.1270  -19.2720   19.4250 C   0  0  0  0  0  0  0  0  0  0  0  0
  -30.3790  -16.7650   20.5300 C   0  0  0  0  0  0  0  0  0  0  0  0
  -30.7240  -14.4030   20.5110 C   0  0  0  0  0  0  0  0  0  0  0  0
  -30.3600  -12.2820   19.3450 C   0  0  0  0  0  2  0  0  0  0  0  0
  -29.4230  -12.5080   18.1420 C   0  0  0  0  0  2  0  0  0  0  0  0
  -27.9440  -12.4080   18.5610 C   0  0  0  0  0  2  0  0  0  0  0  0
  -27.6160  -13.2260   19.8410 C   0  0  0  0  0  3  0  0  0  0  0  0
  -28.6700  -12.9880   20.9470 C   0  0  0  0  0  2  0  0  0  0  0  0
  -30.0040  -13.2610   20.3820 N   0  0  0  0  0  0  0  0  0  0  0  0
  -31.8660  -14.5350   20.0570 O   0  0  0  0  0  0  0  0  0  0  0  0
  -30.0730  -15.4650   21.0020 N   0  0  0  0  0  0  0  0  0  0  0  0
  -29.1340  -15.2950   21.3360 H   0  0  0  0  0  0  0  0  0  0  0  0
  -25.2140  -13.8570   20.5280 C   0  0  0  0  0  0  0  0  0  0  0  0
  -24.1400  -13.0890   20.8990 C   0  0  0  0  0  0  0  0  0  0  0  0
  -24.5940  -11.7330   20.8760 C   0  0  0  0  0  0  0  0  0  0  0  0
  -26.2560  -12.9650   20.3120 N   0  0  0  0  0  0  0  0  0  0  0  0
  -25.8880  -11.6860   20.5800 N   0  0  0  0  0  0  0  0  0  0  0  0
  -23.8600  -10.4750   21.0660 C   0  0  0  0  0  0  0  0  0  0  0  0
  -24.2960   -9.5020   21.9940 C   0  0  0  0  0  3  0  0  0  0  0  0
  -23.5670   -8.3040   22.1740 C   0  0  0  0  0  3  0  0  0  0  0  0
  -22.3880   -8.0740   21.4230 C   0  0  0  0  0  0  0  0  0  0  0  0
  -21.9700   -9.0360   20.4840 C   0  0  0  0  0  3  0  0  0  0  0  0
  -22.7000  -10.2230   20.3050 C   0  0  0  0  0  3  0  0  0  0  0  0
  -21.6250   -6.9330   21.5140 O   0  0  0  0  0  0  0  0  0  0  0  0
  -21.5930   -6.1750   22.6580 C   0  0  0  0  0  0  0  0  0  0  0  0
  -21.2070   -6.7210   23.9030 C   0  0  0  0  0  3  0  0  0  0  0  0
  -21.1250   -5.8920   25.0390 C   0  0  0  0  0  3  0  0  0  0  0  0
  -21.4130   -4.5190   24.9320 C   0  0  0  0  0  0  0  0  0  0  0  0
  -21.7920   -3.9730   23.6940 C   0  0  0  0  0  3  0  0  0  0  0  0
  -21.8790   -4.7980   22.5600 C   0  0  0  0  0  0  0  0  0  0  0  0
  -22.2220   -4.2630   21.3630 F   0  0  0  0  0  0  0  0  0  0  0  0
  -21.3260   -3.7210   26.0210 F   0  0  0  0  0  0  0  0  0  0  0  0
  -22.7430  -13.5680   21.1600 C   0  0  0  0  0  0  0  0  0  0  0  0
  -22.0030  -12.8780   22.0210 N   0  0  0  0  0  0  0  0  0  0  0  0
  -22.3070  -14.5890   20.6270 O   0  0  0  0  0  0  0  0  0  0  0  0
  -22.3640  -12.0550   22.4810 H   0  0  0  0  0  0  0  0  0  0  0  0
  -21.0610  -13.1770   22.2260 H   0  0  0  0  0  0  0  0  0  0  0  0
  -25.3940  -15.2250   20.3420 N   0  0  0  0  0  0  0  0  0  0  0  0
  -24.6450  -15.9000   20.4480 H   0  0  0  0  0  0  0  0  0  0  0  0
  -26.2490  -15.6410   19.9930 H   0  0  0  0  0  0  0  0  0  0  0  0
  -31.7470  -22.5030   17.4190 C   0  0  0  0  0  2  0  0  0  0  0  0
  -29.3680  -23.0580   17.0340 C   0  0  0  0  0  1  0  0  0  0  0  0
  -31.0600  -24.7740   17.0400 C   0  0  0  0  0  1  0  0  0  0  0  0
  -30.6390  -23.4940   17.6750 N   0  0  2  0  0  4  0  0  0  0  0  0
  -30.4270  -23.6550   19.1620 C   0  0  0  0  0  2  0  0  0  0  0  0
  -29.9600  -25.0390   19.7030 C   0  0  0  0  0  2  0  0  0  0  0  0
  -28.4940  -25.4580   19.5070 C   0  0  0  0  0  2  0  0  0  0  0  0
  -28.4130  -26.7460   20.1180 O   0  0  0  0  0  0  0  0  0  0  0  0
  -24.6070  -31.8740   23.2360 C   0  0  0  0  0  0  0  0  0  0  0  0
  -27.2150  -27.4260   20.1280 C   0  0  0  0  0  0  0  0  0  0  0  0
  -23.3880  -30.4770   21.6030 C   0  0  0  0  0  3  0  0  0  0  0  0
  -24.8230  -28.9310   20.1680 C   0  0  0  0  0  0  0  0  0  0  0  0
  -25.9140  -30.8260   21.3890 C   0  0  0  0  0  2  0  0  0  0  0  0
  -25.9850  -29.4510   20.7540 C   0  0  0  0  0  0  0  0  0  0  0  0
  -27.1790  -28.7010   20.7370 C   0  0  0  0  0  3  0  0  0  0  0  0
  -26.0280  -26.9090   19.5570 C   0  0  0  0  0  3  0  0  0  0  0  0
  -24.8370  -27.6570   19.5760 C   0  0  0  0  0  3  0  0  0  0  0  0
  -23.5840  -29.7970   20.2230 C   0  0  0  0  0  2  0  0  0  0  0  0
  -24.6560  -31.0730   22.1340 N   0  0  0  0  0  0  0  0  0  0  0  0
  -23.5260  -32.1430   23.7810 O   0  0  0  0  0  0  0  0  0  0  0  0
  -22.7400  -29.4530   22.5630 C   0  0  0  0  0  0  0  0  0  0  0  0
  -21.4150  -29.2680   22.4340 N   0  0  0  0  0  0  0  0  0  0  0  0
  -23.4260  -28.8250   23.3730 O   0  0  0  0  0  0  0  0  0  0  0  0
  -20.9220  -29.8240   21.7470 H   0  0  0  0  0  0  0  0  0  0  0  0
  -18.0420  -28.0720   22.9270 C   0  0  0  0  0  0  0  0  0  0  0  0
  -20.6010  -28.3330   23.2070 C   0  0  0  0  0  3  0  0  0  0  0  0
  -20.7080  -26.9000   22.6390 C   0  0  0  0  0  2  0  0  0  0  0  0
  -19.6080  -26.5700   21.6260 C   0  0  0  0  0  2  0  0  0  0  0  0
  -18.2220  -26.7200   22.2610 C   0  0  0  0  0  2  0  0  0  0  0  0
  -19.1580  -28.8370   23.3560 C   0  0  0  0  0  0  0  0  0  0  0  0
  -18.9390  -30.1050   23.9350 C   0  0  0  0  0  3  0  0  0  0  0  0
  -17.6320  -30.6060   24.0930 C   0  0  0  0  0  3  0  0  0  0  0  0
  -16.5300  -29.8380   23.6790 C   0  0  0  0  0  3  0  0  0  0  0  0
  -16.7340  -28.5730   23.1000 C   0  0  0  0  0  3  0  0  0  0  0  0
  -25.8960  -32.5050   23.8470 C   0  0  0  0  0  3  0  0  0  0  0  0
  -25.5870  -33.9010   24.1820 N   0  0  0  0  0  0  0  0  0  0  0  0
  -25.9140  -34.9540   23.4230 C   0  0  0  0  0  0  0  0  0  0  0  0
  -26.5790  -34.8510   22.3880 O   0  0  0  0  0  0  0  0  0  0  0  0
  -25.0020  -34.0560   24.9880 H   0  0  0  0  0  0  0  0  0  0  0  0
  -24.1810  -36.7430   23.0780 C   0  0  0  0  0  1  0  0  0  0  0  0
  -25.4270  -36.3400   23.8850 C   0  0  0  0  0  3  0  0  0  0  0  0
  -27.5670  -37.2170   24.7070 C   0  0  0  0  0  1  0  0  0  0  0  0
  -26.4590  -37.3950   23.7720 N   0  0  0  0  0  0  0  0  0  0  0  0
  -26.0530  -38.3140   23.9330 H   0  0  0  0  0  0  0  0  0  0  0  0
  -26.4230  -31.7290   25.1150 C   0  0  1  0  0  0  0  0  0  0  0  0
  -25.3400  -31.4870   26.1900 C   0  0  0  0  0  1  0  0  0  0  0  0
  -27.0030  -30.3560   24.7110 C   0  0  0  0  0  1  0  0  0  0  0  0
  -27.5800  -32.5220   25.7670 C   0  0  0  0  0  1  0  0  0  0  0  0
  1  2  1  0
  2  9  1  0
  2  4  1  0
  3  1  2  0
  5  7  1  0
  6  8  2  0
  6  9  1  0
  8 10  1  0
  9  5  2  0
 10 19  1  0
 10  7  2  0
 11 19  1  0
 12 17  1  0
 13 14  1  0
 13 12  1  0
 15 14  1  0
 15 24  1  0
 15 16  1  0
 17 11  1  0
 17 16  1  0
 18 11  2  0
 19 20  1  0
 21 22  2  0
 22 41  1  0
 23 22  1  0
 23 26  1  0
 24 21  1  0
 24 25  1  0
 25 23  2  0
 26 27  1  0
 27 28  2  0
 29 32  1  0
 29 28  1  0
 30 29  2  0
 31 30  1  0
 31 26  2  0
 32 33  1  0
 33 34  1  0
 34 35  2  0
 36 35  1  0
 36 40  1  0
 37 36  2  0
 38 33  2  0
 38 37  1  0
 39 38  1  0
 41 42  1  0
 42 45  1  0
 42 44  1  0
 43 41  2  0
 46 47  1  0
 46 21  1  0
 48 46  1  0
 49  1  1  0
 49 52  1  0
 52 50  1  6
 51 52  1  0
 52 53  1  0
 53 54  1  0
 55 54  1  0
 55 56  1  0
 56 58  1  0
 57 68  2  0
 58 63  1  0
 59 67  1  0
 59 69  1  0
 60 66  1  0
 60 62  1  0
 61 67  1  0
 62 61  1  0
 63 62  2  0
 64 65  1  0
 64 58  2  0
 65 60  2  0
 66 59  1  0
 67 57  1  0
 69 71  2  0
 70 69  1  0
 72 70  1  0
 73 82  2  0
 73 78  1  0
 74 70  1  0
 74 78  1  0
 75 74  1  0
 76 77  1  0
 76 75  1  0
 77 73  1  0
 78 79  2  0
 79 80  1  0
 81 80  2  0
 82 81  1  0
 83 57  1  0
 83 84  1  0
 83 93  1  0
 84 87  1  0
 85 89  1  0
 85 84  1  0
 86 85  2  0
 89 88  1  0
 91 89  1  0
 91 92  1  0
 91 90  1  0
 93 96  1  1
 93 94  1  0
 95 93  1  0
M  ISO  4  11 100  19 100  55 101  56 101
M  END
>  <TORSDO>  (47) 
F 22

>  <SCORE>  (47) 
-13.185

>  <name>  (47) 
46

>  <ligand_id>  (47) 
46

>  <original_smiles>  (47) 
[H]c1c([H])c([H])c2c(c1[H])C([H])([H])C([H])([H])C([H])([H])C2([H])N([H])C(=O)C1([H])N(C(=O)C([H])(N([H])C(=O)C([H])(N([H])C([H])([H])[H])C([H])([H])[H])C(C([H])([H])[H])(C([H])([H])[H])C([H])([H])[H])C([H])([H])c2c([H])c(OC([H])([H])C([H])([H])C([H])([H])[N+](C([H])([H])[H])(C([H])([H])[H])C([H])([H])C(=O)N([H])c3c([H])c([H])c(N([H])C(=O)N4C([H])([H])C([H])([H])C([H])([H])C([H])(n5nc(-c6c([H])c([H])c(Oc7c([H])c([H])c(F)c([H])c7F)c([H])c6[H])c(C(=O)N([H])[H])c5N([H])[H])C4([H])[H])c([H])c3[H])c([H])c([H])c2C1([H])[H]

>  <smiles>  (47) 
[H]c1c([H])c([H])c2c(c1[H])C([H])([H])C([H])([H])C([H])([H])C2([H])N([H])C(=O)C1([H])N(C(=O)C([H])(N([H])C(=O)C([H])(N([H])C([H])([H])[H])C([H])([H])[H])C(C([H])([H])[H])(C([H])([H])[H])C([H])([H])[H])C([H])([H])c2c([H])c(OC([H])([H])C([H])([H])C([H])([H])[N+](C([H])([H])[H])(C([H])([H])[H])C([H])([H])C(=O)N([H])c3c([H])c([H])c(N([H])C(=O)N4C([H])([H])C([H])([H])C([H])([H])C([H])(n5nc(-c6c([H])c([H])c(Oc7c([H])c([H])c(F)c([H])c7F)c([H])c6[H])c(C(=O)N([H])[H])c5N([H])[H])C4([H])[H])c([H])c3[H])c([H])c([H])c2C1([H])[H]

$$$$
47:0:0
     RDKit          3D

 93101  0  0  1  0  0  0  0  0999 V2000
  -28.8220  -21.2410   19.7540 C   0  0  0  0  0  2  0  0  0  0  0  0
  -29.3670  -18.6240   20.0890 C   0  0  0  0  0  3  0  0  0  0  0  0
  -30.6960  -20.2710   21.2990 C   0  0  0  0  0  3  0  0  0  0  0  0
  -31.2110  -17.8630   21.4680 C   0  0  0  0  0  3  0  0  0  0  0  0
  -29.6300  -20.0230   20.4060 C   0  0  0  0  0  0  0  0  0  0  0  0
  -30.1540  -17.5090   20.5980 C   0  0  0  0  0  0  0  0  0  0  0  0
  -31.4730  -19.2060   21.8370 C   0  0  0  0  0  0  0  0  0  0  0  0
  -30.6330  -14.9360   20.2420 C   0  0  0  0  0  0  0  0  0  0  0  0
  -30.4480  -12.6380   19.2470 C   0  0  0  0  0  2  0  0  0  0  0  0
  -29.4820  -12.6370   18.0430 C   0  0  0  0  0  2  0  0  0  0  0  0
  -28.0250  -12.4500   18.5120 C   0  0  0  0  0  2  0  0  0  0  0  0
  -27.6550  -13.3650   19.7050 C   0  0  0  0  0  3  0  0  0  0  0  0
  -28.7360  -13.3400   20.8070 C   0  0  0  0  0  2  0  0  0  0  0  0
  -30.0090  -13.7070   20.1720 N   0  0  0  0  0  0  0  0  0  0  0  0
  -31.8270  -15.0300   19.9410 O   0  0  0  0  0  0  0  0  0  0  0  0
  -29.8360  -16.0720   20.3620 N   0  0  0  0  0  0  0  0  0  0  0  0
  -28.8500  -15.8660   20.2990 H   0  0  0  0  0  0  0  0  0  0  0  0
  -25.2850  -13.9410   20.4940 C   0  0  0  0  0  0  0  0  0  0  0  0
  -24.2290  -13.1650   20.8840 C   0  0  0  0  0  0  0  0  0  0  0  0
  -24.6920  -11.8150   20.8310 C   0  0  0  0  0  0  0  0  0  0  0  0
  -26.3220  -13.0660   20.2260 N   0  0  0  0  0  0  0  0  0  0  0  0
  -25.9740  -11.7810   20.4880 N   0  0  0  0  0  0  0  0  0  0  0  0
  -23.9720  -10.5510   21.0240 C   0  0  0  0  0  0  0  0  0  0  0  0
  -24.4170   -9.5790   21.9480 C   0  0  0  0  0  3  0  0  0  0  0  0
  -23.6950   -8.3780   22.1280 C   0  0  0  0  0  3  0  0  0  0  0  0
  -22.5140   -8.1420   21.3840 C   0  0  0  0  0  0  0  0  0  0  0  0
  -22.0880   -9.1020   20.4500 C   0  0  0  0  0  3  0  0  0  0  0  0
  -22.8110  -10.2930   20.2700 C   0  0  0  0  0  3  0  0  0  0  0  0
  -21.7670   -6.9910   21.4720 O   0  0  0  0  0  0  0  0  0  0  0  0
  -21.7190   -6.2540   22.6280 C   0  0  0  0  0  0  0  0  0  0  0  0
  -21.2630   -6.8070   23.8450 C   0  0  0  0  0  3  0  0  0  0  0  0
  -21.1620   -5.9920   24.9930 C   0  0  0  0  0  3  0  0  0  0  0  0
  -21.5030   -4.6280   24.9210 C   0  0  0  0  0  0  0  0  0  0  0  0
  -21.9520   -4.0770   23.7080 C   0  0  0  0  0  3  0  0  0  0  0  0
  -22.0520   -4.8860   22.5640 C   0  0  0  0  0  0  0  0  0  0  0  0
  -22.4650   -4.3440   21.3930 F   0  0  0  0  0  0  0  0  0  0  0  0
  -21.3960   -3.8470   26.0210 F   0  0  0  0  0  0  0  0  0  0  0  0
  -22.8380  -13.6400   21.1900 C   0  0  0  0  0  0  0  0  0  0  0  0
  -22.1240  -12.9400   22.0640 N   0  0  0  0  0  0  0  0  0  0  0  0
  -22.3900  -14.6720   20.6890 O   0  0  0  0  0  0  0  0  0  0  0  0
  -22.4940  -12.1080   22.4980 H   0  0  0  0  0  0  0  0  0  0  0  0
  -21.1940  -13.2490   22.3100 H   0  0  0  0  0  0  0  0  0  0  0  0
  -25.4450  -15.3140   20.3270 N   0  0  0  0  0  0  0  0  0  0  0  0
  -24.6740  -15.9600   20.4480 H   0  0  0  0  0  0  0  0  0  0  0  0
  -26.2580  -15.7480   19.9100 H   0  0  0  0  0  0  0  0  0  0  0  0
  -32.7070  -20.6470   23.3520 C   0  0  0  0  0  1  0  0  0  0  0  0
  -32.5110  -19.3790   22.7320 O   0  0  0  0  0  0  0  0  0  0  0  0
  -28.5020  -23.8640   19.7970 C   0  0  0  0  0  0  0  0  0  0  0  0
  -28.7110  -22.6260   20.3940 N   0  0  0  0  0  0  0  0  0  0  0  0
  -28.6030  -23.9900   18.5730 O   0  0  0  0  0  0  0  0  0  0  0  0
  -28.6060  -22.6160   21.3990 H   0  0  0  0  0  0  0  0  0  0  0  0
  -28.0680  -25.1400   20.6640 C   0  0  0  0  0  2  0  0  0  0  0  0
  -28.2140  -26.5220   20.0870 O   0  0  0  0  0  0  0  0  0  0  0  0
  -24.5320  -31.9400   23.2550 C   0  0  0  0  0  0  0  0  0  0  0  0
  -27.1050  -27.3910   20.1220 C   0  0  0  0  0  0  0  0  0  0  0  0
  -23.3070  -30.5580   21.6160 C   0  0  0  0  0  3  0  0  0  0  0  0
  -24.7420  -29.0180   20.1540 C   0  0  0  0  0  0  0  0  0  0  0  0
  -25.8460  -30.8760   21.4000 C   0  0  0  0  0  2  0  0  0  0  0  0
  -25.9200  -29.5000   20.7400 C   0  0  0  0  0  0  0  0  0  0  0  0
  -27.1090  -28.7020   20.7060 C   0  0  0  0  0  3  0  0  0  0  0  0
  -25.9040  -26.9660   19.5200 C   0  0  0  0  0  3  0  0  0  0  0  0
  -24.7390  -27.7590   19.5320 C   0  0  0  0  0  3  0  0  0  0  0  0
  -23.5040  -29.8940   20.2270 C   0  0  0  0  0  2  0  0  0  0  0  0
  -24.5820  -31.1440   22.1460 N   0  0  0  0  0  0  0  0  0  0  0  0
  -23.4560  -32.2110   23.8080 O   0  0  0  0  0  0  0  0  0  0  0  0
  -22.6570  -29.5320   22.5770 C   0  0  0  0  0  0  0  0  0  0  0  0
  -21.3330  -29.3410   22.4560 N   0  0  0  0  0  0  0  0  0  0  0  0
  -23.3480  -28.9120   23.3900 O   0  0  0  0  0  0  0  0  0  0  0  0
  -20.8360  -29.8960   21.7730 H   0  0  0  0  0  0  0  0  0  0  0  0
  -17.9760  -28.0870   22.9510 C   0  0  0  0  0  0  0  0  0  0  0  0
  -20.5290  -28.3900   23.2250 C   0  0  0  0  0  3  0  0  0  0  0  0
  -20.6560  -26.9600   22.6510 C   0  0  0  0  0  2  0  0  0  0  0  0
  -19.5620  -26.6170   21.6340 C   0  0  0  0  0  2  0  0  0  0  0  0
  -18.1760  -26.7410   22.2750 C   0  0  0  0  0  2  0  0  0  0  0  0
  -19.0800  -28.8680   23.3820 C   0  0  0  0  0  0  0  0  0  0  0  0
  -18.8380  -30.1270   23.9720 C   0  0  0  0  0  3  0  0  0  0  0  0
  -17.5240  -30.6060   24.1360 C   0  0  0  0  0  3  0  0  0  0  0  0
  -16.4330  -29.8200   23.7180 C   0  0  0  0  0  3  0  0  0  0  0  0
  -16.6610  -28.5630   23.1310 C   0  0  0  0  0  3  0  0  0  0  0  0
  -25.8210  -32.5670   23.8660 C   0  0  0  0  0  3  0  0  0  0  0  0
  -26.3330  -31.8050   25.1490 C   0  0  1  0  0  0  0  0  0  0  0  0
  -25.2420  -31.5920   26.2250 C   0  0  0  0  0  1  0  0  0  0  0  0
  -26.9020  -30.4180   24.7710 C   0  0  0  0  0  1  0  0  0  0  0  0
  -27.4910  -32.5970   25.8000 C   0  0  0  0  0  1  0  0  0  0  0  0
  -25.5230  -33.9720   24.1870 N   0  0  0  0  0  0  0  0  0  0  0  0
  -25.8630  -35.0170   23.4230 C   0  0  0  0  0  0  0  0  0  0  0  0
  -26.5300  -34.9020   22.3910 O   0  0  0  0  0  0  0  0  0  0  0  0
  -24.9310  -34.1350   24.9870 H   0  0  0  0  0  0  0  0  0  0  0  0
  -24.1610  -36.8340   23.0490 C   0  0  0  0  0  1  0  0  0  0  0  0
  -25.3890  -36.4140   23.8720 C   0  0  0  0  0  3  0  0  0  0  0  0
  -27.5290  -37.2750   24.7180 C   0  0  0  0  0  1  0  0  0  0  0  0
  -26.4340  -37.4540   23.7670 N   0  0  0  0  0  0  0  0  0  0  0  0
  -26.0390  -38.3790   23.9120 H   0  0  0  0  0  0  0  0  0  0  0  0
  1 49  1  0
  1  5  1  0
  2  5  2  0
  2  6  1  0
  3  7  2  0
  4  7  1  0
  5  3  1  0
  6  4  2  0
  7 47  1  0
  8 16  1  0
  9 14  1  0
 10 11  1  0
 10  9  1  0
 12 11  1  0
 12 21  1  0
 12 13  1  0
 14  8  1  0
 14 13  1  0
 15  8  2  0
 16  6  1  0
 17 16  1  0
 18 19  2  0
 19 38  1  0
 20 19  1  0
 20 23  1  0
 21 22  1  0
 21 18  1  0
 22 20  2  0
 23 24  1  0
 24 25  2  0
 26 29  1  0
 26 25  1  0
 27 26  2  0
 28 27  1  0
 28 23  2  0
 29 30  1  0
 30 31  1  0
 31 32  2  0
 33 32  1  0
 33 37  1  0
 34 33  2  0
 35 30  2  0
 35 34  1  0
 36 35  1  0
 38 39  1  0
 39 42  1  0
 39 41  1  0
 40 38  2  0
 43 44  1  0
 43 18  1  0
 45 43  1  0
 47 46  1  0
 48 49  1  0
 48 52  1  0
 49 51  1  0
 50 48  2  0
 53 55  1  0
 53 52  1  0
 54 65  2  0
 55 60  1  0
 56 64  1  0
 56 66  1  0
 57 63  1  0
 57 59  1  0
 58 64  1  0
 59 58  1  0
 60 59  2  0
 61 62  1  0
 61 55  2  0
 62 57  2  0
 63 56  1  0
 64 54  1  0
 66 68  2  0
 67 66  1  0
 69 67  1  0
 70 79  2  0
 70 75  1  0
 71 67  1  0
 71 75  1  0
 72 71  1  0
 73 74  1  0
 73 72  1  0
 74 70  1  0
 75 76  2  0
 76 77  1  0
 78 77  2  0
 79 78  1  0
 80 54  1  0
 80 85  1  0
 80 81  1  0
 81 84  1  1
 81 82  1  0
 83 81  1  0
 85 88  1  0
 86 90  1  0
 86 85  1  0
 87 86  2  0
 90 89  1  0
 92 90  1  0
 92 93  1  0
 92 91  1  0
M  ISO  4   8 100  16 100  52 101  53 101
M  END
>  <TORSDO>  (48) 
F 20

>  <SCORE>  (48) 
-14.063

>  <name>  (48) 
47

>  <ligand_id>  (48) 
47

>  <original_smiles>  (48) 
[H]c1c([H])c([H])c2c(c1[H])C([H])([H])C([H])([H])C([H])([H])C2([H])N([H])C(=O)C1([H])N(C(=O)C([H])(N([H])C(=O)C([H])(N([H])C([H])([H])[H])C([H])([H])[H])C(C([H])([H])[H])(C([H])([H])[H])C([H])([H])[H])C([H])([H])c2c([H])c(OC([H])([H])C(=O)N([H])C([H])([H])c3c([H])c(OC([H])([H])[H])c([H])c(N([H])C(=O)N4C([H])([H])C([H])([H])C([H])([H])C([H])(n5nc(-c6c([H])c([H])c(Oc7c([H])c([H])c(F)c([H])c7F)c([H])c6[H])c(C(=O)N([H])[H])c5N([H])[H])C4([H])[H])c3[H])c([H])c([H])c2C1([H])[H]

>  <smiles>  (48) 
[H]c1c([H])c([H])c2c(c1[H])C([H])([H])C([H])([H])C([H])([H])C2([H])N([H])C(=O)C1([H])N(C(=O)C([H])(N([H])C(=O)C([H])(N([H])C([H])([H])[H])C([H])([H])[H])C(C([H])([H])[H])(C([H])([H])[H])C([H])([H])[H])C([H])([H])c2c([H])c(OC([H])([H])C(=O)N([H])C([H])([H])c3c([H])c(OC([H])([H])[H])c([H])c(N([H])C(=O)N4C([H])([H])C([H])([H])C([H])([H])C([H])(n5nc(-c6c([H])c([H])c(Oc7c([H])c([H])c(F)c([H])c7F)c([H])c6[H])c(C(=O)N([H])[H])c5N([H])[H])C4([H])[H])c3[H])c([H])c([H])c2C1([H])[H]

$$$$
48:0:0
     RDKit          3D

 89 97  0  0  1  0  0  0  0  0999 V2000
  -28.5620  -18.2560   19.5870 C   0  0  0  0  0  3  0  0  0  0  0  0
  -28.2780  -19.6680   19.5250 C   0  0  0  0  0  3  0  0  0  0  0  0
  -30.3670  -18.7570   20.9920 C   0  0  0  0  0  3  0  0  0  0  0  0
  -29.6270  -17.6950   20.3540 C   0  0  0  0  0  0  0  0  0  0  0  0
  -29.0320  -20.6550   20.2220 C   0  0  0  0  0  0  0  0  0  0  0  0
  -27.2790  -21.9590   21.1790 C   0  0  0  0  0  1  0  0  0  0  0  0
  -30.0880  -20.1370   20.9370 N   0  0  0  0  0  0  0  0  0  0  0  0
  -28.4930  -22.0350   20.3660 N   0  0  0  0  0  0  0  0  0  0  0  0
  -30.5580  -15.0920   20.4070 C   0  0  0  0  0  0  0  0  0  0  0  0
  -30.5090  -12.7240   19.5050 C   0  0  0  0  0  2  0  0  0  0  0  0
  -29.5910  -12.6700   18.2600 C   0  0  0  0  0  2  0  0  0  0  0  0
  -28.1210  -12.4570   18.6710 C   0  0  0  0  0  2  0  0  0  0  0  0
  -27.6920  -13.3970   19.8260 C   0  0  0  0  0  3  0  0  0  0  0  0
  -28.7260  -13.4020   20.9740 C   0  0  0  0  0  2  0  0  0  0  0  0
  -30.0140  -13.8110   20.3930 N   0  0  0  0  0  0  0  0  0  0  0  0
  -31.7480  -15.2260   20.0990 O   0  0  0  0  0  0  0  0  0  0  0  0
  -29.6820  -16.1840   20.6050 N   0  0  0  0  0  0  0  0  0  0  0  0
  -28.7660  -15.8140   20.8130 H   0  0  0  0  0  0  0  0  0  0  0  0
  -25.3000  -13.9910   20.5320 C   0  0  0  0  0  0  0  0  0  0  0  0
  -24.2290  -13.2200   20.8900 C   0  0  0  0  0  0  0  0  0  0  0  0
  -24.6870  -11.8670   20.8590 C   0  0  0  0  0  0  0  0  0  0  0  0
  -26.3420  -13.1080   20.3030 N   0  0  0  0  0  0  0  0  0  0  0  0
  -25.9800  -11.8250   20.5630 N   0  0  0  0  0  0  0  0  0  0  0  0
  -23.9520  -10.6080   21.0350 C   0  0  0  0  0  0  0  0  0  0  0  0
  -24.3650   -9.6340   21.9710 C   0  0  0  0  0  3  0  0  0  0  0  0
  -23.6290   -8.4410   22.1340 C   0  0  0  0  0  3  0  0  0  0  0  0
  -22.4670   -8.2110   21.3600 C   0  0  0  0  0  0  0  0  0  0  0  0
  -22.0740   -9.1730   20.4120 C   0  0  0  0  0  3  0  0  0  0  0  0
  -22.8100  -10.3580   20.2470 C   0  0  0  0  0  3  0  0  0  0  0  0
  -21.7040   -7.0710   21.4330 O   0  0  0  0  0  0  0  0  0  0  0  0
  -21.6280   -6.3290   22.5840 C   0  0  0  0  0  0  0  0  0  0  0  0
  -21.1350   -6.8740   23.7910 C   0  0  0  0  0  3  0  0  0  0  0  0
  -21.0080   -6.0570   24.9320 C   0  0  0  0  0  3  0  0  0  0  0  0
  -21.3630   -4.6960   24.8680 C   0  0  0  0  0  0  0  0  0  0  0  0
  -21.8490   -4.1510   23.6670 C   0  0  0  0  0  3  0  0  0  0  0  0
  -21.9780   -4.9650   22.5280 C   0  0  0  0  0  0  0  0  0  0  0  0
  -22.4260   -4.4300   21.3670 F   0  0  0  0  0  0  0  0  0  0  0  0
  -21.2350   -3.9090   25.9620 F   0  0  0  0  0  0  0  0  0  0  0  0
  -22.8310  -13.7020   21.1490 C   0  0  0  0  0  0  0  0  0  0  0  0
  -22.0950  -13.0120   22.0120 N   0  0  0  0  0  0  0  0  0  0  0  0
  -22.4000  -14.7270   20.6200 O   0  0  0  0  0  0  0  0  0  0  0  0
  -22.4580  -12.1820   22.4590 H   0  0  0  0  0  0  0  0  0  0  0  0
  -21.1560  -13.3150   22.2300 H   0  0  0  0  0  0  0  0  0  0  0  0
  -25.4700  -15.3610   20.3570 N   0  0  0  0  0  0  0  0  0  0  0  0
  -24.6930  -16.0080   20.4300 H   0  0  0  0  0  0  0  0  0  0  0  0
  -26.3000  -15.7880   19.9650 H   0  0  0  0  0  0  0  0  0  0  0  0
  -29.0680  -23.4830   20.2910 C   0  0  0  0  0  3  0  0  0  0  0  0
  -28.0690  -24.8120   19.9760 C   0  0  0  0  0  3  0  0  0  0  0  0
  -28.3310  -26.3340   20.1760 O   0  0  0  0  0  0  0  0  0  0  0  0
  -24.6670  -31.9030   23.3080 C   0  0  0  0  0  0  0  0  0  0  0  0
  -27.2610  -27.3020   20.1350 C   0  0  0  0  0  0  0  0  0  0  0  0
  -23.4640  -30.5460   21.6390 C   0  0  0  0  0  3  0  0  0  0  0  0
  -24.9150  -29.0220   20.1640 C   0  0  0  0  0  0  0  0  0  0  0  0
  -26.0150  -30.8390   21.4620 C   0  0  0  0  0  2  0  0  0  0  0  0
  -26.0960  -29.4660   20.7710 C   0  0  0  0  0  0  0  0  0  0  0  0
  -27.2690  -28.6220   20.7390 C   0  0  0  0  0  3  0  0  0  0  0  0
  -26.0510  -26.9590   19.4900 C   0  0  0  0  0  3  0  0  0  0  0  0
  -24.9050  -27.7810   19.5090 C   0  0  0  0  0  3  0  0  0  0  0  0
  -23.6800  -29.9060   20.2420 C   0  0  0  0  0  2  0  0  0  0  0  0
  -24.7360  -31.1160   22.1920 N   0  0  0  0  0  0  0  0  0  0  0  0
  -23.5830  -32.1650   23.8520 O   0  0  0  0  0  0  0  0  0  0  0  0
  -22.8000  -29.5090   22.5790 C   0  0  0  0  0  0  0  0  0  0  0  0
  -21.4720  -29.3270   22.4530 N   0  0  0  0  0  0  0  0  0  0  0  0
  -23.4790  -28.8700   23.3860 O   0  0  0  0  0  0  0  0  0  0  0  0
  -20.9780  -29.8970   21.7810 H   0  0  0  0  0  0  0  0  0  0  0  0
  -18.1090  -28.0660   22.9250 C   0  0  0  0  0  0  0  0  0  0  0  0
  -20.6650  -28.3600   23.2010 C   0  0  0  0  0  3  0  0  0  0  0  0
  -20.7870  -26.9430   22.5930 C   0  0  0  0  0  2  0  0  0  0  0  0
  -19.6910  -26.6330   21.5680 C   0  0  0  0  0  2  0  0  0  0  0  0
  -18.3070  -26.7370   22.2160 C   0  0  0  0  0  2  0  0  0  0  0  0
  -19.2160  -28.8360   23.3740 C   0  0  0  0  0  0  0  0  0  0  0  0
  -18.9780  -30.0790   23.9960 C   0  0  0  0  0  3  0  0  0  0  0  0
  -17.6660  -30.5570   24.1730 C   0  0  0  0  0  3  0  0  0  0  0  0
  -16.5740  -29.7860   23.7410 C   0  0  0  0  0  3  0  0  0  0  0  0
  -16.7950  -28.5420   23.1230 C   0  0  0  0  0  3  0  0  0  0  0  0
  -25.9460  -32.5310   23.9420 C   0  0  0  0  0  3  0  0  0  0  0  0
  -25.6450  -33.9360   24.2620 N   0  0  0  0  0  0  0  0  0  0  0  0
  -25.9550  -34.9800   23.4820 C   0  0  0  0  0  0  0  0  0  0  0  0
  -26.5890  -34.8620   22.4300 O   0  0  0  0  0  0  0  0  0  0  0  0
  -25.0760  -34.1010   25.0800 H   0  0  0  0  0  0  0  0  0  0  0  0
  -24.2010  -36.7610   23.1900 C   0  0  0  0  0  1  0  0  0  0  0  0
  -25.4880  -36.3760   23.9380 C   0  0  0  0  0  3  0  0  0  0  0  0
  -27.6550  -37.2940   24.6410 C   0  0  0  0  0  1  0  0  0  0  0  0
  -26.5080  -37.4310   23.7480 N   0  0  0  0  0  0  0  0  0  0  0  0
  -26.1030  -38.3520   23.8920 H   0  0  0  0  0  0  0  0  0  0  0  0
  -26.4350  -31.7660   25.2330 C   0  0  1  0  0  0  0  0  0  0  0  0
  -25.3250  -31.5510   26.2890 C   0  0  0  0  0  1  0  0  0  0  0  0
  -27.0090  -30.3790   24.8670 C   0  0  0  0  0  1  0  0  0  0  0  0
  -27.5850  -32.5560   25.9040 C   0  0  0  0  0  1  0  0  0  0  0  0
  1  4  1  0
  2  1  2  0
  2  5  1  0
  4 17  1  0
  4  3  2  0
  5  8  1  0
  5  7  2  0
  7  3  1  0
  8  6  1  0
  9 17  1  0
 10 15  1  0
 11 12  1  0
 11 10  1  0
 13 12  1  0
 13 22  1  0
 13 14  1  0
 15  9  1  0
 15 14  1  0
 16  9  2  0
 17 18  1  0
 19 20  2  0
 20 39  1  0
 21 20  1  0
 21 24  1  0
 22 19  1  0
 22 23  1  0
 23 21  2  0
 24 25  1  0
 25 26  2  0
 27 30  1  0
 27 26  1  0
 28 27  2  0
 29 28  1  0
 29 24  2  0
 30 31  1  0
 31 32  1  0
 32 33  2  0
 34 33  1  0
 34 38  1  0
 35 34  2  0
 36 31  2  0
 36 35  1  0
 37 36  1  0
 39 40  1  0
 40 43  1  0
 40 42  1  0
 41 39  2  0
 44 45  1  0
 44 19  1  0
 46 44  1  0
 47  8  1  0
 48 49  1  0
 48 47  2  0
 50 61  2  0
 51 49  1  0
 51 56  1  0
 52 60  1  0
 52 62  1  0
 53 59  1  0
 53 55  1  0
 54 60  1  0
 55 54  1  0
 56 55  2  0
 57 58  1  0
 57 51  2  0
 58 53  2  0
 59 52  1  0
 60 50  1  0
 62 64  2  0
 63 62  1  0
 65 63  1  0
 66 75  2  0
 66 71  1  0
 67 63  1  0
 67 71  1  0
 68 67  1  0
 69 70  1  0
 69 68  1  0
 70 66  1  0
 71 72  2  0
 72 73  1  0
 74 73  2  0
 75 74  1  0
 76 50  1  0
 76 77  1  0
 76 86  1  0
 77 80  1  0
 78 82  1  0
 78 77  1  0
 79 78  2  0
 82 81  1  0
 84 85  1  0
 84 82  1  0
 84 83  1  0
 86 89  1  1
 86 87  1  0
 88 86  1  0
M  ISO  4   9 100  17 100  48 101  49 101
M  END
>  <TORSDO>  (49) 
F 18

>  <SCORE>  (49) 
-14.385

>  <name>  (49) 
48

>  <ligand_id>  (49) 
48

>  <original_smiles>  (49) 
[H]c1nc(N(C([H])([H])[H])C([H])([H])C([H])([H])Oc2c([H])c([H])c3c(c2[H])C([H])([H])N(C(=O)C([H])(N([H])C(=O)C([H])(N([H])C([H])([H])[H])C([H])([H])[H])C(C([H])([H])[H])(C([H])([H])[H])C([H])([H])[H])C([H])(C(=O)N([H])C2([H])c4c([H])c([H])c([H])c([H])c4C([H])([H])C([H])([H])C2([H])[H])C3([H])[H])c([H])c([H])c1N([H])C(=O)N1C([H])([H])C([H])([H])C([H])([H])C([H])(n2nc(-c3c([H])c([H])c(Oc4c([H])c([H])c(F)c([H])c4F)c([H])c3[H])c(C(=O)N([H])[H])c2N([H])[H])C1([H])[H]

>  <smiles>  (49) 
[H]c1nc(N(C([H])([H])[H])C([H])([H])C([H])([H])Oc2c([H])c([H])c3c(c2[H])C([H])([H])N(C(=O)C([H])(N([H])C(=O)C([H])(N([H])C([H])([H])[H])C([H])([H])[H])C(C([H])([H])[H])(C([H])([H])[H])C([H])([H])[H])C([H])(C(=O)N([H])C2([H])c4c([H])c([H])c([H])c([H])c4C([H])([H])C([H])([H])C2([H])[H])C3([H])[H])c([H])c([H])c1N([H])C(=O)N1C([H])([H])C([H])([H])C([H])([H])C([H])(n2nc(-c3c([H])c([H])c(Oc4c([H])c([H])c(F)c([H])c4F)c([H])c3[H])c(C(=O)N([H])[H])c2N([H])[H])C1([H])[H]

$$$$
49:0:0
     RDKit          3D

 93101  0  0  1  0  0  0  0  0999 V2000
  -28.4350  -22.9060   20.4530 C   0  0  0  0  0  0  0  0  0  0  0  0
  -28.7540  -21.8500   19.6830 N   0  0  0  0  0  0  0  0  0  0  0  0
  -27.7630  -22.7800   21.4800 O   0  0  0  0  0  0  0  0  0  0  0  0
  -29.3440  -22.0200   18.8800 H   0  0  0  0  0  0  0  0  0  0  0  0
  -28.0440  -20.5680   19.7110 C   0  0  0  0  0  2  0  0  0  0  0  0
  -28.8920  -18.7370   21.2640 C   0  0  0  0  0  3  0  0  0  0  0  0
  -29.4650  -17.4650   21.4730 C   0  0  0  0  0  3  0  0  0  0  0  0
  -29.5090  -18.6250   18.9190 C   0  0  0  0  0  3  0  0  0  0  0  0
  -28.8750  -19.3120   19.9760 C   0  0  0  0  0  0  0  0  0  0  0  0
  -30.0320  -16.7330   20.4040 C   0  0  0  0  0  0  0  0  0  0  0  0
  -30.0720  -17.3430   19.1200 C   0  0  0  0  0  0  0  0  0  0  0  0
  -30.5690  -16.6930   18.0430 F   0  0  0  0  0  0  0  0  0  0  0  0
  -30.9650  -14.4720   19.8600 C   0  0  0  0  0  0  0  0  0  0  0  0
  -30.5620  -12.3130   18.7270 C   0  0  0  0  0  2  0  0  0  0  0  0
  -29.5320  -12.5420   17.6020 C   0  0  0  0  0  2  0  0  0  0  0  0
  -28.0910  -12.4340   18.1400 C   0  0  0  0  0  2  0  0  0  0  0  0
  -27.8730  -13.2680   19.4290 C   0  0  0  0  0  3  0  0  0  0  0  0
  -29.0010  -13.0020   20.4500 C   0  0  0  0  0  2  0  0  0  0  0  0
  -30.2920  -13.2900   19.7960 N   0  0  0  0  0  0  0  0  0  0  0  0
  -32.0020  -14.6930   19.2280 O   0  0  0  0  0  0  0  0  0  0  0  0
  -30.4170  -15.3830   20.6850 N   0  0  0  0  0  0  0  0  0  0  0  0
  -29.8730  -14.9600   21.4210 H   0  0  0  0  0  0  0  0  0  0  0  0
  -25.5690  -13.9320   20.3690 C   0  0  0  0  0  0  0  0  0  0  0  0
  -24.5060  -13.1830   20.8000 C   0  0  0  0  0  0  0  0  0  0  0  0
  -24.9050  -11.8190   20.6690 C   0  0  0  0  0  0  0  0  0  0  0  0
  -26.5530  -13.0240   20.0090 N   0  0  0  0  0  0  0  0  0  0  0  0
  -26.1590  -11.7450   20.2430 N   0  0  0  0  0  0  0  0  0  0  0  0
  -24.1480  -10.5760   20.8730 C   0  0  0  0  0  0  0  0  0  0  0  0
  -24.5550   -9.6100   21.8180 C   0  0  0  0  0  3  0  0  0  0  0  0
  -23.8000   -8.4310   22.0070 C   0  0  0  0  0  3  0  0  0  0  0  0
  -22.6250   -8.2120   21.2490 C   0  0  0  0  0  0  0  0  0  0  0  0
  -22.2370   -9.1680   20.2930 C   0  0  0  0  0  3  0  0  0  0  0  0
  -22.9930  -10.3380   20.1030 C   0  0  0  0  0  3  0  0  0  0  0  0
  -21.8440   -7.0860   21.3460 O   0  0  0  0  0  0  0  0  0  0  0  0
  -21.6860   -6.4190   22.5340 C   0  0  0  0  0  0  0  0  0  0  0  0
  -21.1630   -7.0550   23.6810 C   0  0  0  0  0  3  0  0  0  0  0  0
  -20.9530   -6.3140   24.8620 C   0  0  0  0  0  3  0  0  0  0  0  0
  -21.2550   -4.9390   24.8960 C   0  0  0  0  0  0  0  0  0  0  0  0
  -21.7710   -4.3040   23.7530 C   0  0  0  0  0  3  0  0  0  0  0  0
  -21.9830   -5.0420   22.5750 C   0  0  0  0  0  0  0  0  0  0  0  0
  -22.4610   -4.4200   21.4690 F   0  0  0  0  0  0  0  0  0  0  0  0
  -21.0460   -4.2260   26.0260 F   0  0  0  0  0  0  0  0  0  0  0  0
  -23.1590  -13.7000   21.2210 C   0  0  0  0  0  0  0  0  0  0  0  0
  -22.5010  -13.0110   22.1480 N   0  0  0  0  0  0  0  0  0  0  0  0
  -22.7050  -14.7480   20.7660 O   0  0  0  0  0  0  0  0  0  0  0  0
  -22.8830  -12.1630   22.5400 H   0  0  0  0  0  0  0  0  0  0  0  0
  -21.6020  -13.3390   22.4700 H   0  0  0  0  0  0  0  0  0  0  0  0
  -25.7730  -15.3020   20.2410 N   0  0  0  0  0  0  0  0  0  0  0  0
  -25.0490  -15.9800   20.4570 H   0  0  0  0  0  0  0  0  0  0  0  0
  -26.6180  -15.7260   19.8820 H   0  0  0  0  0  0  0  0  0  0  0  0
  -28.8690  -24.3060   19.9710 C   0  0  0  0  0  2  0  0  0  0  0  0
  -28.4140  -25.4600   20.9010 C   0  0  0  0  0  2  0  0  0  0  0  0
  -28.5410  -26.7600   20.3010 O   0  0  0  0  0  0  0  0  0  0  0  0
  -24.6000  -31.8730   23.2910 C   0  0  0  0  0  0  0  0  0  0  0  0
  -27.3710  -27.4830   20.2660 C   0  0  0  0  0  0  0  0  0  0  0  0
  -23.4440  -30.4490   21.6310 C   0  0  0  0  0  3  0  0  0  0  0  0
  -24.9490  -28.9340   20.2320 C   0  0  0  0  0  0  0  0  0  0  0  0
  -25.9630  -30.8550   21.4700 C   0  0  0  0  0  2  0  0  0  0  0  0
  -26.0860  -29.4860   20.8350 C   0  0  0  0  0  0  0  0  0  0  0  0
  -27.3050  -28.7690   20.8440 C   0  0  0  0  0  3  0  0  0  0  0  0
  -26.2200  -26.9400   19.6580 C   0  0  0  0  0  3  0  0  0  0  0  0
  -25.0100  -27.6600   19.6390 C   0  0  0  0  0  3  0  0  0  0  0  0
  -23.6870  -29.7680   20.2570 C   0  0  0  0  0  2  0  0  0  0  0  0
  -24.6860  -31.0720   22.1900 N   0  0  0  0  0  0  0  0  0  0  0  0
  -23.5060  -32.1290   23.8150 O   0  0  0  0  0  0  0  0  0  0  0  0
  -22.7940  -29.4190   22.5830 C   0  0  0  0  0  0  0  0  0  0  0  0
  -21.4760  -29.2100   22.4280 N   0  0  0  0  0  0  0  0  0  0  0  0
  -23.4730  -28.8110   23.4140 O   0  0  0  0  0  0  0  0  0  0  0  0
  -20.9930  -29.7520   21.7280 H   0  0  0  0  0  0  0  0  0  0  0  0
  -18.1140  -27.9640   22.8640 C   0  0  0  0  0  0  0  0  0  0  0  0
  -20.6600  -28.2610   23.1850 C   0  0  0  0  0  3  0  0  0  0  0  0
  -20.7970  -26.8300   22.6150 C   0  0  0  0  0  2  0  0  0  0  0  0
  -19.7220  -26.4890   21.5800 C   0  0  0  0  0  2  0  0  0  0  0  0
  -18.3260  -26.6130   22.1990 C   0  0  0  0  0  2  0  0  0  0  0  0
  -19.2120  -28.7440   23.3130 C   0  0  0  0  0  0  0  0  0  0  0  0
  -18.9640  -30.0040   23.8980 C   0  0  0  0  0  3  0  0  0  0  0  0
  -17.6500  -30.4860   24.0390 C   0  0  0  0  0  3  0  0  0  0  0  0
  -16.5650  -29.7040   23.6060 C   0  0  0  0  0  3  0  0  0  0  0  0
  -16.7980  -28.4450   23.0220 C   0  0  0  0  0  3  0  0  0  0  0  0
  -25.8660  -32.5230   23.9320 C   0  0  0  0  0  3  0  0  0  0  0  0
  -26.3410  -31.7940   25.2490 C   0  0  1  0  0  0  0  0  0  0  0  0
  -25.2130  -31.5870   26.2870 C   0  0  0  0  0  1  0  0  0  0  0  0
  -26.9390  -30.4070   24.9160 C   0  0  0  0  0  1  0  0  0  0  0  0
  -27.4660  -32.6120   25.9250 C   0  0  0  0  0  1  0  0  0  0  0  0
  -25.5500  -33.9320   24.2030 N   0  0  0  0  0  0  0  0  0  0  0  0
  -25.9070  -34.9550   23.4150 C   0  0  0  0  0  0  0  0  0  0  0  0
  -26.6090  -34.8130   22.4090 O   0  0  0  0  0  0  0  0  0  0  0  0
  -24.9360  -34.1170   24.9820 H   0  0  0  0  0  0  0  0  0  0  0  0
  -24.1950  -36.7330   22.9360 C   0  0  0  0  0  1  0  0  0  0  0  0
  -25.4070  -36.3590   23.8040 C   0  0  0  0  0  3  0  0  0  0  0  0
  -27.5130  -37.2750   24.6730 C   0  0  0  0  0  1  0  0  0  0  0  0
  -26.4450  -37.4060   23.6850 N   0  0  0  0  0  0  0  0  0  0  0  0
  -26.0360  -38.3320   23.7810 H   0  0  0  0  0  0  0  0  0  0  0  0
  1  3  2  0
  2  5  1  0
  2  1  1  0
  4  2  1  0
  5  9  1  0
  6  7  1  0
  8 11  2  0
  8  9  1  0
  9  6  2  0
 10 21  1  0
 10  7  2  0
 11 10  1  0
 12 11  1  0
 13 21  1  0
 14 19  1  0
 15 16  1  0
 15 14  1  0
 17 16  1  0
 17 26  1  0
 17 18  1  0
 19 13  1  0
 19 18  1  0
 20 13  2  0
 21 22  1  0
 23 24  2  0
 24 43  1  0
 25 24  1  0
 25 28  1  0
 26 27  1  0
 26 23  1  0
 27 25  2  0
 28 29  1  0
 29 30  2  0
 31 34  1  0
 31 30  1  0
 32 31  2  0
 33 32  1  0
 33 28  2  0
 34 35  1  0
 35 40  2  0
 35 36  1  0
 36 37  2  0
 37 38  1  0
 38 42  1  0
 39 38  2  0
 40 39  1  0
 41 40  1  0
 43 44  1  0
 44 47  1  0
 44 46  1  0
 45 43  2  0
 48 23  1  0
 48 49  1  0
 50 48  1  0
 51  1  1  0
 51 52  1  0
 53 52  1  0
 54 65  2  0
 55 53  1  0
 55 60  1  0
 56 64  1  0
 56 66  1  0
 57 63  1  0
 57 59  1  0
 58 64  1  0
 59 60  2  0
 59 58  1  0
 61 55  2  0
 62 61  1  0
 62 57  2  0
 63 56  1  0
 64 54  1  0
 66 68  2  0
 67 66  1  0
 69 67  1  0
 70 79  2  0
 70 75  1  0
 71 67  1  0
 71 75  1  0
 72 71  1  0
 73 74  1  0
 73 72  1  0
 74 70  1  0
 75 76  2  0
 76 77  1  0
 78 77  2  0
 79 78  1  0
 80 54  1  0
 80 85  1  0
 80 81  1  0
 81 84  1  1
 81 82  1  0
 83 81  1  0
 85 88  1  0
 86 90  1  0
 86 85  1  0
 87 86  2  0
 90 89  1  0
 92 93  1  0
 92 90  1  0
 92 91  1  0
M  ISO  4  13 100  21 100  52 101  53 101
M  END
>  <TORSDO>  (50) 
F 20

>  <SCORE>  (50) 
-12.741

>  <name>  (50) 
49

>  <ligand_id>  (50) 
49

>  <original_smiles>  (50) 
[H]c1c([H])c([H])c2c(c1[H])C([H])([H])C([H])([H])C([H])([H])C2([H])N([H])C(=O)C1([H])N(C(=O)C([H])(N([H])C(=O)C([H])(N([H])C([H])([H])[H])C([H])([H])[H])C(C([H])([H])[H])(C([H])([H])[H])C([H])([H])[H])C([H])([H])c2c([H])c(OC([H])([H])C([H])([H])C(=O)N([H])C([H])([H])c3c([H])c([H])c(N([H])C(=O)N4C([H])([H])C([H])([H])C([H])([H])C([H])(n5nc(-c6c([H])c([H])c(Oc7c([H])c([H])c(F)c([H])c7F)c([H])c6[H])c(C(=O)N([H])[H])c5N([H])[H])C4([H])[H])c(F)c3[H])c([H])c([H])c2C1([H])[H]

>  <smiles>  (50) 
[H]c1c([H])c([H])c2c(c1[H])C([H])([H])C([H])([H])C([H])([H])C2([H])N([H])C(=O)C1([H])N(C(=O)C([H])(N([H])C(=O)C([H])(N([H])C([H])([H])[H])C([H])([H])[H])C(C([H])([H])[H])(C([H])([H])[H])C([H])([H])[H])C([H])([H])c2c([H])c(OC([H])([H])C([H])([H])C(=O)N([H])C([H])([H])c3c([H])c([H])c(N([H])C(=O)N4C([H])([H])C([H])([H])C([H])([H])C([H])(n5nc(-c6c([H])c([H])c(Oc7c([H])c([H])c(F)c([H])c7F)c([H])c6[H])c(C(=O)N([H])[H])c5N([H])[H])C4([H])[H])c(F)c3[H])c([H])c([H])c2C1([H])[H]

$$$$
50:0:0
     RDKit          3D

 93101  0  0  1  0  0  0  0  0999 V2000
  -29.1170  -22.4310   20.0410 C   0  0  0  0  0  0  0  0  0  0  0  0
  -31.4020  -22.1280   20.8420 C   0  0  0  0  0  1  0  0  0  0  0  0
  -30.1170  -21.5410   20.4190 N   0  0  0  0  0  0  0  0  0  0  0  0
  -28.0240  -22.0350   19.6240 O   0  0  0  0  0  0  0  0  0  0  0  0
  -31.1490  -19.2840   20.9220 C   0  0  0  0  0  3  0  0  0  0  0  0
  -31.1280  -17.8620   21.0050 C   0  0  0  0  0  3  0  0  0  0  0  0
  -28.9700  -19.2890   19.9190 C   0  0  0  0  0  3  0  0  0  0  0  0
  -30.0710  -20.0560   20.3900 C   0  0  0  0  0  0  0  0  0  0  0  0
  -30.0140  -17.1130   20.5550 C   0  0  0  0  0  0  0  0  0  0  0  0
  -28.9310  -17.8570   20.0090 C   0  0  0  0  0  0  0  0  0  0  0  0
  -30.6350  -14.6260   20.1400 C   0  0  0  0  0  0  0  0  0  0  0  0
  -30.3240  -12.4640   18.9600 C   0  0  0  0  0  2  0  0  0  0  0  0
  -29.3320  -12.6840   17.7940 C   0  0  0  0  0  2  0  0  0  0  0  0
  -27.8730  -12.5440   18.2730 C   0  0  0  0  0  2  0  0  0  0  0  0
  -27.5900  -13.3480   19.5700 C   0  0  0  0  0  3  0  0  0  0  0  0
  -28.6860  -13.0870   20.6300 C   0  0  0  0  0  2  0  0  0  0  0  0
  -29.9840  -13.4270   20.0260 N   0  0  0  0  0  0  0  0  0  0  0  0
  -31.7790  -14.7780   19.6990 O   0  0  0  0  0  0  0  0  0  0  0  0
  -29.8840  -15.6600   20.6190 N   0  0  0  0  0  0  0  0  0  0  0  0
  -28.9900  -15.3620   20.9790 H   0  0  0  0  0  0  0  0  0  0  0  0
  -25.2180  -13.9720   20.3370 C   0  0  0  0  0  0  0  0  0  0  0  0
  -24.1520  -13.2080   20.7300 C   0  0  0  0  0  0  0  0  0  0  0  0
  -24.6020  -11.8530   20.6920 C   0  0  0  0  0  0  0  0  0  0  0  0
  -26.2510  -13.0820   20.0860 N   0  0  0  0  0  0  0  0  0  0  0  0
  -25.8850  -11.8030   20.3580 N   0  0  0  0  0  0  0  0  0  0  0  0
  -23.8670  -10.5990   20.9030 C   0  0  0  0  0  0  0  0  0  0  0  0
  -24.2840   -9.6530   21.8660 C   0  0  0  0  0  3  0  0  0  0  0  0
  -23.5500   -8.4610   22.0620 C   0  0  0  0  0  3  0  0  0  0  0  0
  -22.3880   -8.2090   21.2960 C   0  0  0  0  0  0  0  0  0  0  0  0
  -21.9910   -9.1440   20.3240 C   0  0  0  0  0  3  0  0  0  0  0  0
  -22.7240  -10.3260   20.1260 C   0  0  0  0  0  3  0  0  0  0  0  0
  -21.6280   -7.0690   21.4010 O   0  0  0  0  0  0  0  0  0  0  0  0
  -21.5320   -6.3750   22.5790 C   0  0  0  0  0  0  0  0  0  0  0  0
  -21.0740   -6.9850   23.7670 C   0  0  0  0  0  3  0  0  0  0  0  0
  -20.9240   -6.2170   24.9390 C   0  0  0  0  0  3  0  0  0  0  0  0
  -21.2200   -4.8400   24.9240 C   0  0  0  0  0  0  0  0  0  0  0  0
  -21.6720   -4.2310   23.7400 C   0  0  0  0  0  3  0  0  0  0  0  0
  -21.8230   -4.9960   22.5700 C   0  0  0  0  0  0  0  0  0  0  0  0
  -22.2380   -4.4000   21.4260 F   0  0  0  0  0  0  0  0  0  0  0  0
  -21.0690   -4.1010   26.0470 F   0  0  0  0  0  0  0  0  0  0  0  0
  -22.7650  -13.6990   21.0320 C   0  0  0  0  0  0  0  0  0  0  0  0
  -22.0600  -13.0250   21.9340 N   0  0  0  0  0  0  0  0  0  0  0  0
  -22.3170  -14.7170   20.5050 O   0  0  0  0  0  0  0  0  0  0  0  0
  -22.4360  -12.2020   22.3800 H   0  0  0  0  0  0  0  0  0  0  0  0
  -21.1320  -13.3360   22.1800 H   0  0  0  0  0  0  0  0  0  0  0  0
  -25.3880  -15.3400   20.1590 N   0  0  0  0  0  0  0  0  0  0  0  0
  -24.6370  -16.0020   20.3250 H   0  0  0  0  0  0  0  0  0  0  0  0
  -26.2600  -15.7930   19.9120 H   0  0  0  0  0  0  0  0  0  0  0  0
  -26.5720  -17.7080   19.7490 C   0  0  0  0  0  1  0  0  0  0  0  0
  -27.8590  -17.1320   19.5430 O   0  0  0  0  0  0  0  0  0  0  0  0
  -29.3380  -24.0060   20.1230 C   0  0  0  0  0  3  0  0  0  0  0  0
  -28.1630  -24.9810   19.6920 C   0  0  0  0  0  3  0  0  0  0  0  0
  -28.3300  -26.4410   19.8880 O   0  0  0  0  0  0  0  0  0  0  0  0
  -24.4740  -31.6530   23.0630 C   0  0  0  0  0  0  0  0  0  0  0  0
  -27.1780  -27.2450   19.8710 C   0  0  0  0  0  0  0  0  0  0  0  0
  -23.2870  -30.2500   21.4150 C   0  0  0  0  0  3  0  0  0  0  0  0
  -24.7600  -28.7750   19.9340 C   0  0  0  0  0  0  0  0  0  0  0  0
  -25.8120  -30.6480   21.2010 C   0  0  0  0  0  2  0  0  0  0  0  0
  -25.9240  -29.2900   20.5210 C   0  0  0  0  0  0  0  0  0  0  0  0
  -27.1340  -28.5370   20.4800 C   0  0  0  0  0  3  0  0  0  0  0  0
  -25.9870  -26.7850   19.2610 C   0  0  0  0  0  3  0  0  0  0  0  0
  -24.7920  -27.5270   19.2960 C   0  0  0  0  0  3  0  0  0  0  0  0
  -23.5000  -29.6120   20.0170 C   0  0  0  0  0  2  0  0  0  0  0  0
  -24.5430  -30.8680   21.9490 N   0  0  0  0  0  0  0  0  0  0  0  0
  -23.3930  -31.8880   23.6240 O   0  0  0  0  0  0  0  0  0  0  0  0
  -22.6730  -29.1930   22.3640 C   0  0  0  0  0  0  0  0  0  0  0  0
  -21.3530  -28.9690   22.2500 N   0  0  0  0  0  0  0  0  0  0  0  0
  -23.3830  -28.5780   23.1630 O   0  0  0  0  0  0  0  0  0  0  0  0
  -20.8400  -29.5180   21.5740 H   0  0  0  0  0  0  0  0  0  0  0  0
  -18.0220  -27.6660   22.7820 C   0  0  0  0  0  0  0  0  0  0  0  0
  -20.5750  -27.9930   23.0150 C   0  0  0  0  0  3  0  0  0  0  0  0
  -20.7100  -26.5770   22.4100 C   0  0  0  0  0  2  0  0  0  0  0  0
  -19.6010  -26.2420   21.4090 C   0  0  0  0  0  2  0  0  0  0  0  0
  -18.2250  -26.3340   22.0780 C   0  0  0  0  0  2  0  0  0  0  0  0
  -19.1260  -28.4510   23.2070 C   0  0  0  0  0  0  0  0  0  0  0  0
  -18.8830  -29.6950   23.8280 C   0  0  0  0  0  3  0  0  0  0  0  0
  -17.5690  -30.1560   24.0290 C   0  0  0  0  0  3  0  0  0  0  0  0
  -16.4790  -29.3660   23.6210 C   0  0  0  0  0  3  0  0  0  0  0  0
  -16.7050  -28.1250   23.0030 C   0  0  0  0  0  3  0  0  0  0  0  0
  -25.7490  -32.3130   23.6730 C   0  0  0  0  0  3  0  0  0  0  0  0
  -26.3260  -31.5250   24.9130 C   0  0  1  0  0  0  0  0  0  0  0  0
  -25.2680  -31.2070   25.9950 C   0  0  0  0  0  1  0  0  0  0  0  0
  -26.9590  -30.1860   24.4670 C   0  0  0  0  0  1  0  0  0  0  0  0
  -27.4550  -32.3460   25.5790 C   0  0  0  0  0  1  0  0  0  0  0  0
  -25.3990  -33.6890   24.0540 N   0  0  0  0  0  0  0  0  0  0  0  0
  -25.6770  -34.7760   23.3230 C   0  0  0  0  0  0  0  0  0  0  0  0
  -26.3280  -34.7300   22.2750 O   0  0  0  0  0  0  0  0  0  0  0  0
  -24.8200  -33.7950   24.8740 H   0  0  0  0  0  0  0  0  0  0  0  0
  -23.8730  -36.5100   23.0650 C   0  0  0  0  0  1  0  0  0  0  0  0
  -25.1490  -36.1300   23.8360 C   0  0  0  0  0  3  0  0  0  0  0  0
  -27.2610  -37.0760   24.6480 C   0  0  0  0  0  1  0  0  0  0  0  0
  -26.1360  -37.2260   23.7310 N   0  0  0  0  0  0  0  0  0  0  0  0
  -25.6970  -38.1240   23.9140 H   0  0  0  0  0  0  0  0  0  0  0  0
  1 51  1  0
  1  3  1  0
  3  2  1  0
  4  1  2  0
  5  6  1  0
  7 10  2  0
  7  8  1  0
  8  3  1  0
  8  5  2  0
  9 19  1  0
  9  6  2  0
 10  9  1  0
 11 19  1  0
 12 17  1  0
 13 14  1  0
 13 12  1  0
 15 14  1  0
 15 24  1  0
 15 16  1  0
 17 11  1  0
 17 16  1  0
 18 11  2  0
 19 20  1  0
 21 22  2  0
 22 41  1  0
 23 22  1  0
 23 26  1  0
 24 21  1  0
 24 25  1  0
 25 23  2  0
 26 27  1  0
 27 28  2  0
 29 32  1  0
 29 28  1  0
 30 29  2  0
 31 30  1  0
 31 26  2  0
 32 33  1  0
 33 34  1  0
 34 35  2  0
 36 35  1  0
 36 40  1  0
 37 36  2  0
 38 33  2  0
 38 37  1  0
 39 38  1  0
 41 42  1  0
 42 45  1  0
 42 44  1  0
 43 41  2  0
 46 47  1  0
 46 21  1  0
 48 46  1  0
 50 49  1  0
 50 10  1  0
 52 53  1  0
 52 51  2  0
 54 65  2  0
 55 53  1  0
 55 60  1  0
 56 64  1  0
 56 66  1  0
 57 63  1  0
 57 59  1  0
 58 64  1  0
 59 58  1  0
 60 59  2  0
 61 62  1  0
 61 55  2  0
 62 57  2  0
 63 56  1  0
 64 54  1  0
 66 68  2  0
 67 66  1  0
 69 67  1  0
 70 79  2  0
 70 75  1  0
 71 67  1  0
 71 75  1  0
 72 71  1  0
 73 74  1  0
 73 72  1  0
 74 70  1  0
 75 76  2  0
 76 77  1  0
 78 77  2  0
 79 78  1  0
 80 54  1  0
 80 85  1  0
 80 81  1  0
 81 84  1  1
 81 82  1  0
 83 81  1  0
 85 88  1  0
 86 90  1  0
 86 85  1  0
 87 86  2  0
 90 89  1  0
 92 90  1  0
 92 93  1  0
 92 91  1  0
M  ISO  4  11 100  19 100  52 101  53 101
M  END
>  <TORSDO>  (51) 
F 20

>  <SCORE>  (51) 
-13.720

>  <name>  (51) 
50

>  <ligand_id>  (51) 
50

>  <original_smiles>  (51) 
[H]c1c([H])c([H])c2c(c1[H])C([H])([H])C([H])([H])C([H])([H])C2([H])N([H])C(=O)C1([H])N(C(=O)C([H])(N([H])C(=O)C([H])(N([H])C([H])([H])[H])C([H])([H])[H])C(C([H])([H])[H])(C([H])([H])[H])C([H])([H])[H])C([H])([H])c2c([H])c(OC([H])([H])C([H])([H])C(=O)N(c3c([H])c([H])c(N([H])C(=O)N4C([H])([H])C([H])([H])C([H])([H])C([H])(n5nc(-c6c([H])c([H])c(Oc7c([H])c([H])c(F)c([H])c7F)c([H])c6[H])c(C(=O)N([H])[H])c5N([H])[H])C4([H])[H])c(OC([H])([H])[H])c3[H])C([H])([H])[H])c([H])c([H])c2C1([H])[H]

>  <smiles>  (51) 
[H]c1c([H])c([H])c2c(c1[H])C([H])([H])C([H])([H])C([H])([H])C2([H])N([H])C(=O)C1([H])N(C(=O)C([H])(N([H])C(=O)C([H])(N([H])C([H])([H])[H])C([H])([H])[H])C(C([H])([H])[H])(C([H])([H])[H])C([H])([H])[H])C([H])([H])c2c([H])c(OC([H])([H])C([H])([H])C(=O)N(c3c([H])c([H])c(N([H])C(=O)N4C([H])([H])C([H])([H])C([H])([H])C([H])(n5nc(-c6c([H])c([H])c(Oc7c([H])c([H])c(F)c([H])c7F)c([H])c6[H])c(C(=O)N([H])[H])c5N([H])[H])C4([H])[H])c(OC([H])([H])[H])c3[H])C([H])([H])[H])c([H])c([H])c2C1([H])[H]

$$$$
51:0:0
     RDKit          3D

 91 99  0  0  1  0  0  0  0  0999 V2000
  -30.3840  -18.5880   21.0080 C   0  0  0  0  0  3  0  0  0  0  0  0
  -28.2680  -19.5740   19.5360 C   0  0  0  0  0  3  0  0  0  0  0  0
  -29.5990  -17.5690   20.3580 C   0  0  0  0  0  0  0  0  0  0  0  0
  -29.0160  -20.6020   20.1920 C   0  0  0  0  0  0  0  0  0  0  0  0
  -30.1170  -20.0280   20.9280 C   0  0  0  0  0  0  0  0  0  0  0  0
  -28.5330  -18.1570   19.6050 C   0  0  0  0  0  0  0  0  0  0  0  0
  -30.9410  -20.8650   21.6040 F   0  0  0  0  0  0  0  0  0  0  0  0
  -27.4790  -17.1140   18.7200 Cl  0  0  0  0  0  0  0  0  0  0  0  0
  -30.5080  -14.9630   20.3630 C   0  0  0  0  0  0  0  0  0  0  0  0
  -30.4150  -12.6300   19.3910 C   0  0  0  0  0  2  0  0  0  0  0  0
  -29.4680  -12.6340   18.1670 C   0  0  0  0  0  2  0  0  0  0  0  0
  -28.0020  -12.4280   18.6010 C   0  0  0  0  0  2  0  0  0  0  0  0
  -27.6090  -13.3240   19.8050 C   0  0  0  0  0  3  0  0  0  0  0  0
  -28.6730  -13.2760   20.9230 C   0  0  0  0  0  2  0  0  0  0  0  0
  -29.9500  -13.6910   20.3230 N   0  0  0  0  0  0  0  0  0  0  0  0
  -31.7010  -15.0930   20.0660 O   0  0  0  0  0  0  0  0  0  0  0  0
  -29.6340  -16.0530   20.5520 N   0  0  0  0  0  0  0  0  0  0  0  0
  -28.7010  -15.6890   20.6640 H   0  0  0  0  0  0  0  0  0  0  0  0
  -25.2260  -13.9030   20.5530 C   0  0  0  0  0  0  0  0  0  0  0  0
  -24.1610  -13.1280   20.9190 C   0  0  0  0  0  0  0  0  0  0  0  0
  -24.6250  -11.7770   20.8760 C   0  0  0  0  0  0  0  0  0  0  0  0
  -26.2680  -13.0280   20.3000 N   0  0  0  0  0  0  0  0  0  0  0  0
  -25.9150  -11.7420   20.5610 N   0  0  0  0  0  0  0  0  0  0  0  0
  -23.8970  -10.5150   21.0590 C   0  0  0  0  0  0  0  0  0  0  0  0
  -24.3250   -9.5450   21.9900 C   0  0  0  0  0  3  0  0  0  0  0  0
  -23.5970   -8.3480   22.1610 C   0  0  0  0  0  3  0  0  0  0  0  0
  -22.4270   -8.1140   21.4020 C   0  0  0  0  0  0  0  0  0  0  0  0
  -22.0160   -9.0750   20.4620 C   0  0  0  0  0  3  0  0  0  0  0  0
  -22.7450  -10.2630   20.2870 C   0  0  0  0  0  3  0  0  0  0  0  0
  -21.6700   -6.9710   21.4840 O   0  0  0  0  0  0  0  0  0  0  0  0
  -21.6100   -6.2290   22.6370 C   0  0  0  0  0  0  0  0  0  0  0  0
  -21.1530   -6.7780   23.8540 C   0  0  0  0  0  3  0  0  0  0  0  0
  -21.0410   -5.9610   24.9980 C   0  0  0  0  0  3  0  0  0  0  0  0
  -21.3760   -4.5960   24.9240 C   0  0  0  0  0  0  0  0  0  0  0  0
  -21.8270   -4.0460   23.7110 C   0  0  0  0  0  3  0  0  0  0  0  0
  -21.9410   -4.8590   22.5710 C   0  0  0  0  0  0  0  0  0  0  0  0
  -22.3550   -4.3200   21.3980 F   0  0  0  0  0  0  0  0  0  0  0  0
  -21.2630   -3.8100   26.0190 F   0  0  0  0  0  0  0  0  0  0  0  0
  -22.7650  -13.6070   21.1940 C   0  0  0  0  0  0  0  0  0  0  0  0
  -22.0370  -12.9110   22.0590 N   0  0  0  0  0  0  0  0  0  0  0  0
  -22.3270  -14.6330   20.6740 O   0  0  0  0  0  0  0  0  0  0  0  0
  -22.4030  -12.0800   22.5010 H   0  0  0  0  0  0  0  0  0  0  0  0
  -21.1000  -13.2140   22.2840 H   0  0  0  0  0  0  0  0  0  0  0  0
  -25.3770  -15.2750   20.3890 N   0  0  0  0  0  0  0  0  0  0  0  0
  -24.5860  -15.8990   20.4900 H   0  0  0  0  0  0  0  0  0  0  0  0
  -26.1610  -15.7150   19.9230 H   0  0  0  0  0  0  0  0  0  0  0  0
  -28.5630  -22.0130   20.0350 N   0  0  0  0  0  0  0  0  0  0  0  0
  -27.7500  -22.0770   19.4290 H   0  0  0  0  0  0  0  0  0  0  0  0
  -29.0130  -23.4310   20.4680 C   0  0  0  0  0  3  0  0  0  0  0  0
  -28.0310  -24.7540   20.1300 C   0  0  0  0  0  3  0  0  0  0  0  0
  -28.2860  -26.2600   20.3840 O   0  0  0  0  0  0  0  0  0  0  0  0
  -24.6320  -31.9410   23.2920 C   0  0  0  0  0  0  0  0  0  0  0  0
  -27.2220  -27.2280   20.3000 C   0  0  0  0  0  0  0  0  0  0  0  0
  -23.4360  -30.5420   21.6510 C   0  0  0  0  0  3  0  0  0  0  0  0
  -24.8890  -28.9590   20.2440 C   0  0  0  0  0  0  0  0  0  0  0  0
  -25.9890  -30.8060   21.4990 C   0  0  0  0  0  2  0  0  0  0  0  0
  -26.0650  -29.4130   20.8550 C   0  0  0  0  0  0  0  0  0  0  0  0
  -27.2320  -28.5630   20.8660 C   0  0  0  0  0  3  0  0  0  0  0  0
  -26.0160  -26.8680   19.6560 C   0  0  0  0  0  3  0  0  0  0  0  0
  -24.8770  -27.6980   19.6290 C   0  0  0  0  0  3  0  0  0  0  0  0
  -23.6620  -29.8540   20.2780 C   0  0  0  0  0  2  0  0  0  0  0  0
  -24.7050  -31.1180   22.2030 N   0  0  0  0  0  0  0  0  0  0  0  0
  -23.5430  -32.2330   23.8120 O   0  0  0  0  0  0  0  0  0  0  0  0
  -22.7480  -29.5420   22.6130 C   0  0  0  0  0  0  0  0  0  0  0  0
  -21.4210  -29.3760   22.4780 N   0  0  0  0  0  0  0  0  0  0  0  0
  -23.4110  -28.9190   23.4460 O   0  0  0  0  0  0  0  0  0  0  0  0
  -20.9430  -29.9290   21.7800 H   0  0  0  0  0  0  0  0  0  0  0  0
  -18.0290  -28.2020   22.9650 C   0  0  0  0  0  0  0  0  0  0  0  0
  -20.5880  -28.4490   23.2480 C   0  0  0  0  0  3  0  0  0  0  0  0
  -20.6840  -27.0130   22.6800 C   0  0  0  0  0  2  0  0  0  0  0  0
  -19.5860  -26.6930   21.6600 C   0  0  0  0  0  2  0  0  0  0  0  0
  -18.2010  -26.8490   22.2950 C   0  0  0  0  0  2  0  0  0  0  0  0
  -19.1490  -28.9600   23.3980 C   0  0  0  0  0  0  0  0  0  0  0  0
  -18.9340  -30.2250   23.9850 C   0  0  0  0  0  3  0  0  0  0  0  0
  -17.6300  -30.7340   24.1430 C   0  0  0  0  0  3  0  0  0  0  0  0
  -16.5240  -29.9730   23.7260 C   0  0  0  0  0  3  0  0  0  0  0  0
  -16.7250  -28.7090   23.1430 C   0  0  0  0  0  3  0  0  0  0  0  0
  -25.9090  -32.5740   23.9250 C   0  0  0  0  0  3  0  0  0  0  0  0
  -26.4030  -31.8110   25.2160 C   0  0  1  0  0  0  0  0  0  0  0  0
  -25.2930  -31.5920   26.2710 C   0  0  0  0  0  1  0  0  0  0  0  0
  -26.9820  -30.4250   24.8490 C   0  0  0  0  0  1  0  0  0  0  0  0
  -27.5490  -32.6040   25.8860 C   0  0  0  0  0  1  0  0  0  0  0  0
  -25.6030  -33.9760   24.2450 N   0  0  0  0  0  0  0  0  0  0  0  0
  -25.9220  -35.0230   23.4720 C   0  0  0  0  0  0  0  0  0  0  0  0
  -26.5730  -34.9100   22.4300 O   0  0  0  0  0  0  0  0  0  0  0  0
  -25.0230  -34.1370   25.0550 H   0  0  0  0  0  0  0  0  0  0  0  0
  -24.1800  -36.8100   23.1510 C   0  0  0  0  0  1  0  0  0  0  0  0
  -25.4460  -36.4170   23.9280 C   0  0  0  0  0  3  0  0  0  0  0  0
  -27.6000  -37.3230   24.6830 C   0  0  0  0  0  1  0  0  0  0  0  0
  -26.4720  -37.4710   23.7680 N   0  0  0  0  0  0  0  0  0  0  0  0
  -26.0660  -38.3920   23.9100 H   0  0  0  0  0  0  0  0  0  0  0  0
  2  6  2  0
  2  4  1  0
  3 17  1  0
  3  1  2  0
  4  5  2  0
  5  1  1  0
  5  7  1  0
  6  3  1  0
  8  6  1  0
  9 17  1  0
 10 15  1  0
 11 12  1  0
 11 10  1  0
 13 12  1  0
 13 22  1  0
 13 14  1  0
 15  9  1  0
 15 14  1  0
 16  9  2  0
 17 18  1  0
 19 20  2  0
 20 39  1  0
 21 20  1  0
 21 24  1  0
 22 19  1  0
 22 23  1  0
 23 21  2  0
 24 25  1  0
 25 26  2  0
 27 30  1  0
 27 26  1  0
 28 27  2  0
 29 28  1  0
 29 24  2  0
 30 31  1  0
 31 32  1  0
 32 33  2  0
 34 33  1  0
 34 38  1  0
 35 34  2  0
 36 31  2  0
 36 35  1  0
 37 36  1  0
 39 40  1  0
 40 43  1  0
 40 42  1  0
 41 39  2  0
 44 45  1  0
 44 19  1  0
 46 44  1  0
 47  4  1  0
 47 49  1  0
 48 47  1  0
 50 51  1  0
 50 49  2  0
 52 63  2  0
 53 51  1  0
 53 58  1  0
 54 62  1  0
 54 64  1  0
 55 61  1  0
 55 57  1  0
 56 62  1  0
 57 58  2  0
 57 56  1  0
 59 53  2  0
 60 59  1  0
 60 55  2  0
 61 54  1  0
 62 52  1  0
 64 66  2  0
 65 64  1  0
 67 65  1  0
 68 77  2  0
 68 73  1  0
 69 65  1  0
 69 73  1  0
 70 69  1  0
 71 72  1  0
 71 70  1  0
 72 68  1  0
 73 74  2  0
 74 75  1  0
 76 75  2  0
 77 76  1  0
 78 52  1  0
 78 83  1  0
 78 79  1  0
 79 82  1  1
 79 80  1  0
 81 79  1  0
 83 86  1  0
 84 88  1  0
 84 83  1  0
 85 84  2  0
 88 87  1  0
 90 91  1  0
 90 88  1  0
 90 89  1  0
M  ISO  4   9 100  17 100  50 101  51 101
M  END
>  <TORSDO>  (52) 
F 19

>  <SCORE>  (52) 
-14.431

>  <name>  (52) 
51

>  <ligand_id>  (52) 
51

>  <original_smiles>  (52) 
[H]c1c([H])c([H])c2c(c1[H])C([H])([H])C([H])([H])C([H])([H])C2([H])N([H])C(=O)C1([H])N(C(=O)C([H])(N([H])C(=O)C([H])(N([H])C([H])([H])[H])C([H])([H])[H])C(C([H])([H])[H])(C([H])([H])[H])C([H])([H])[H])C([H])([H])c2c([H])c(OC([H])([H])C([H])([H])N([H])c3c([H])c(Cl)c(N([H])C(=O)N4C([H])([H])C([H])([H])C([H])([H])C([H])(n5nc(-c6c([H])c([H])c(Oc7c([H])c([H])c(F)c([H])c7F)c([H])c6[H])c(C(=O)N([H])[H])c5N([H])[H])C4([H])[H])c([H])c3F)c([H])c([H])c2C1([H])[H]

>  <smiles>  (52) 
[H]c1c([H])c([H])c2c(c1[H])C([H])([H])C([H])([H])C([H])([H])C2([H])N([H])C(=O)C1([H])N(C(=O)C([H])(N([H])C(=O)C([H])(N([H])C([H])([H])[H])C([H])([H])[H])C(C([H])([H])[H])(C([H])([H])[H])C([H])([H])[H])C([H])([H])c2c([H])c(OC([H])([H])C([H])([H])N([H])c3c([H])c(Cl)c(N([H])C(=O)N4C([H])([H])C([H])([H])C([H])([H])C([H])(n5nc(-c6c([H])c([H])c(Oc7c([H])c([H])c(F)c([H])c7F)c([H])c6[H])c(C(=O)N([H])[H])c5N([H])[H])C4([H])[H])c([H])c3F)c([H])c([H])c2C1([H])[H]

$$$$
52:0:0
     RDKit          3D

 88 96  0  0  1  0  0  0  0  0999 V2000
  -30.3250  -20.8630   20.1040 C   0  0  0  0  0  3  0  0  0  0  0  0
  -30.5390  -19.3760   20.1160 C   0  0  0  0  0  3  0  0  0  0  0  0
  -28.2820  -19.1120   20.1780 C   0  0  0  0  0  3  0  0  0  0  0  0
  -29.0800  -21.6520   20.1260 C   0  0  0  0  0  0  0  0  0  0  0  0
  -29.5270  -18.3210   20.1560 C   0  0  0  0  0  0  0  0  0  0  0  0
  -28.0610  -20.6000   20.1620 C   0  0  0  0  0  0  0  0  0  0  0  0
  -26.7720  -21.0180   20.1920 F   0  0  0  0  0  0  0  0  0  0  0  0
  -30.4420  -15.4510   20.0000 C   0  0  0  0  0  0  0  0  0  0  0  0
  -30.4430  -12.9950   19.1010 C   0  0  0  0  0  2  0  0  0  0  0  0
  -29.4660  -12.7690   17.9180 C   0  0  0  0  0  2  0  0  0  0  0  0
  -28.0440  -12.4710   18.4250 C   0  0  0  0  0  2  0  0  0  0  0  0
  -27.6340  -13.4190   19.5770 C   0  0  0  0  0  3  0  0  0  0  0  0
  -28.7340  -13.5720   20.6510 C   0  0  0  0  0  2  0  0  0  0  0  0
  -29.9190  -14.1180   19.9680 N   0  0  0  0  0  0  0  0  0  0  0  0
  -31.6470  -15.4880   19.7040 O   0  0  0  0  0  0  0  0  0  0  0  0
  -29.6000  -16.6750   20.1800 N   0  0  0  0  0  0  0  0  0  0  0  0
  -28.6790  -16.3170   20.3820 H   0  0  0  0  0  0  0  0  0  0  0  0
  -25.3100  -13.9520   20.4770 C   0  0  0  0  0  0  0  0  0  0  0  0
  -24.2680  -13.1640   20.8780 C   0  0  0  0  0  0  0  0  0  0  0  0
  -24.7280  -11.8150   20.7740 C   0  0  0  0  0  0  0  0  0  0  0  0
  -26.3360  -13.0850   20.1460 N   0  0  0  0  0  0  0  0  0  0  0  0
  -26.0020  -11.7900   20.3920 N   0  0  0  0  0  0  0  0  0  0  0  0
  -24.0080  -10.5480   20.9580 C   0  0  0  0  0  0  0  0  0  0  0  0
  -24.4440   -9.5760   21.8850 C   0  0  0  0  0  3  0  0  0  0  0  0
  -23.7200   -8.3770   22.0580 C   0  0  0  0  0  3  0  0  0  0  0  0
  -22.5450   -8.1410   21.3050 C   0  0  0  0  0  0  0  0  0  0  0  0
  -22.1280   -9.1020   20.3670 C   0  0  0  0  0  3  0  0  0  0  0  0
  -22.8530  -10.2920   20.1910 C   0  0  0  0  0  3  0  0  0  0  0  0
  -21.7930   -6.9940   21.3880 O   0  0  0  0  0  0  0  0  0  0  0  0
  -21.6940   -6.2810   22.5560 C   0  0  0  0  0  0  0  0  0  0  0  0
  -21.1640   -6.8500   23.7340 C   0  0  0  0  0  3  0  0  0  0  0  0
  -21.0160   -6.0610   24.8920 C   0  0  0  0  0  3  0  0  0  0  0  0
  -21.3880   -4.7050   24.8720 C   0  0  0  0  0  0  0  0  0  0  0  0
  -21.9120   -4.1340   23.6980 C   0  0  0  0  0  3  0  0  0  0  0  0
  -22.0600   -4.9210   22.5420 C   0  0  0  0  0  0  0  0  0  0  0  0
  -22.5450   -4.3600   21.4080 F   0  0  0  0  0  0  0  0  0  0  0  0
  -21.2400   -3.9440   25.9830 F   0  0  0  0  0  0  0  0  0  0  0  0
  -22.8880  -13.6350   21.2330 C   0  0  0  0  0  0  0  0  0  0  0  0
  -22.2060  -12.9180   22.1190 N   0  0  0  0  0  0  0  0  0  0  0  0
  -22.4260  -14.6730   20.7610 O   0  0  0  0  0  0  0  0  0  0  0  0
  -22.5940  -12.0780   22.5210 H   0  0  0  0  0  0  0  0  0  0  0  0
  -21.2820  -13.2140   22.4000 H   0  0  0  0  0  0  0  0  0  0  0  0
  -25.4640  -15.3290   20.3350 N   0  0  0  0  0  0  0  0  0  0  0  0
  -24.6920  -15.9680   20.4930 H   0  0  0  0  0  0  0  0  0  0  0  0
  -26.2580  -15.7720   19.8950 H   0  0  0  0  0  0  0  0  0  0  0  0
  -28.1120  -24.3520   20.1250 C   0  0  0  0  0  3  0  0  0  0  0  0
  -29.0180  -23.2560   20.1260 N   0  0  0  0  0  0  0  0  0  0  0  0
  -28.3010  -25.8930   20.1450 O   0  0  0  0  0  0  0  0  0  0  0  0
  -24.6880  -31.8120   23.2820 C   0  0  0  0  0  0  0  0  0  0  0  0
  -27.2870  -27.0070   20.1390 C   0  0  0  0  0  0  0  0  0  0  0  0
  -23.5280  -30.4920   21.5600 C   0  0  0  0  0  3  0  0  0  0  0  0
  -25.0030  -28.9290   20.1120 C   0  0  0  0  0  0  0  0  0  0  0  0
  -26.1010  -30.6790   21.4920 C   0  0  0  0  0  2  0  0  0  0  0  0
  -26.1770  -29.2910   20.7830 C   0  0  0  0  0  0  0  0  0  0  0  0
  -27.3110  -28.3530   20.7750 C   0  0  0  0  0  3  0  0  0  0  0  0
  -26.0870  -26.8160   19.4160 C   0  0  0  0  0  3  0  0  0  0  0  0
  -24.9850  -27.7140   19.4090 C   0  0  0  0  0  3  0  0  0  0  0  0
  -23.7910  -29.8600   20.1650 C   0  0  0  0  0  2  0  0  0  0  0  0
  -24.7930  -31.0200   22.1660 N   0  0  0  0  0  0  0  0  0  0  0  0
  -23.5870  -32.0900   23.7870 O   0  0  0  0  0  0  0  0  0  0  0  0
  -22.8020  -29.4650   22.4680 C   0  0  0  0  0  0  0  0  0  0  0  0
  -21.4720  -29.3240   22.3140 N   0  0  0  0  0  0  0  0  0  0  0  0
  -23.4440  -28.7940   23.2810 O   0  0  0  0  0  0  0  0  0  0  0  0
  -21.0070  -29.9160   21.6390 H   0  0  0  0  0  0  0  0  0  0  0  0
  -18.0570  -28.1750   22.7550 C   0  0  0  0  0  0  0  0  0  0  0  0
  -20.6240  -28.3630   23.0280 C   0  0  0  0  0  3  0  0  0  0  0  0
  -20.6890  -26.9660   22.3660 C   0  0  0  0  0  2  0  0  0  0  0  0
  -19.5780  -26.7340   21.3370 C   0  0  0  0  0  2  0  0  0  0  0  0
  -18.2020  -26.8680   21.9920 C   0  0  0  0  0  2  0  0  0  0  0  0
  -19.1950  -28.8850   23.2280 C   0  0  0  0  0  0  0  0  0  0  0  0
  -19.0040  -30.1070   23.9060 C   0  0  0  0  0  3  0  0  0  0  0  0
  -17.7100  -30.6230   24.1120 C   0  0  0  0  0  3  0  0  0  0  0  0
  -16.5880  -29.9100   23.6530 C   0  0  0  0  0  3  0  0  0  0  0  0
  -16.7630  -28.6880   22.9810 C   0  0  0  0  0  3  0  0  0  0  0  0
  -25.9450  -32.4230   23.9730 C   0  0  0  0  0  3  0  0  0  0  0  0
  -25.6270  -33.8110   24.3510 N   0  0  0  0  0  0  0  0  0  0  0  0
  -25.9450  -34.8970   23.6330 C   0  0  0  0  0  0  0  0  0  0  0  0
  -26.5990  -34.8340   22.5890 O   0  0  0  0  0  0  0  0  0  0  0  0
  -25.0420  -33.9340   25.1660 H   0  0  0  0  0  0  0  0  0  0  0  0
  -24.1910  -36.6910   23.4040 C   0  0  0  0  0  1  0  0  0  0  0  0
  -25.4660  -36.2680   24.1510 C   0  0  0  0  0  3  0  0  0  0  0  0
  -27.6170  -37.1580   24.9360 C   0  0  0  0  0  1  0  0  0  0  0  0
  -26.4850  -37.3350   24.0310 N   0  0  0  0  0  0  0  0  0  0  0  0
  -26.0750  -38.2470   24.2110 H   0  0  0  0  0  0  0  0  0  0  0  0
  -26.4090  -31.6090   25.2450 C   0  0  1  0  0  0  0  0  0  0  0  0
  -25.2750  -31.3460   26.2650 C   0  0  0  0  0  1  0  0  0  0  0  0
  -26.9980  -30.2390   24.8420 C   0  0  0  0  0  1  0  0  0  0  0  0
  -27.5380  -32.3750   25.9730 C   0  0  0  0  0  1  0  0  0  0  0  0
  1  2  2  0
  1  4  1  0
  2  5  1  0
  4  6  2  0
  5  3  2  0
  5 16  1  0
  6  3  1  0
  6  7  1  0
  8 16  1  0
  9 14  1  0
 10 11  1  0
 10  9  1  0
 12 11  1  0
 12 21  1  0
 12 13  1  0
 14  8  1  0
 14 13  1  0
 15  8  2  0
 16 17  1  0
 18 19  2  0
 19 38  1  0
 20 19  1  0
 20 23  1  0
 21 22  1  0
 21 18  1  0
 22 20  2  0
 23 24  1  0
 24 25  2  0
 26 29  1  0
 26 25  1  0
 27 26  2  0
 28 27  1  0
 28 23  2  0
 29 30  1  0
 30 31  1  0
 31 32  2  0
 33 32  1  0
 33 37  1  0
 34 33  2  0
 35 30  2  0
 35 34  1  0
 36 35  1  0
 38 39  1  0
 39 42  1  0
 39 41  1  0
 40 38  2  0
 43 18  1  0
 43 44  1  0
 45 43  1  0
 46 47  2  0
 46 48  1  0
 47  4  1  0
 49 60  2  0
 50 48  1  0
 50 55  1  0
 51 59  1  0
 51 61  1  0
 52 58  1  0
 52 54  1  0
 53 59  1  0
 54 53  1  0
 55 54  2  0
 56 50  2  0
 57 56  1  0
 57 52  2  0
 58 51  1  0
 59 49  1  0
 61 63  2  0
 62 61  1  0
 64 62  1  0
 65 74  2  0
 65 70  1  0
 66 62  1  0
 66 70  1  0
 67 66  1  0
 68 69  1  0
 68 67  1  0
 69 65  1  0
 70 71  2  0
 71 72  1  0
 73 72  2  0
 74 73  1  0
 75 49  1  0
 75 76  1  0
 75 85  1  0
 76 79  1  0
 77 81  1  0
 77 76  1  0
 78 77  2  0
 81 80  1  0
 83 81  1  0
 83 84  1  0
 83 82  1  0
 85 88  1  1
 85 86  1  0
 87 85  1  0
M  ISO  4   8 100  16 100  46 101  48 101
M  END
>  <TORSDO>  (53) 
F 17

>  <SCORE>  (53) 
-14.460

>  <name>  (53) 
52

>  <ligand_id>  (53) 
52

>  <original_smiles>  (53) 
[H]C(=Nc1c([H])c([H])c(N([H])C(=O)N2C([H])([H])C([H])([H])C([H])([H])C([H])(n3nc(-c4c([H])c([H])c(Oc5c([H])c([H])c(F)c([H])c5F)c([H])c4[H])c(C(=O)N([H])[H])c3N([H])[H])C2([H])[H])c([H])c1F)Oc1c([H])c([H])c2c(c1[H])C([H])([H])N(C(=O)C([H])(N([H])C(=O)C([H])(N([H])C([H])([H])[H])C([H])([H])[H])C(C([H])([H])[H])(C([H])([H])[H])C([H])([H])[H])C([H])(C(=O)N([H])C1([H])c3c([H])c([H])c([H])c([H])c3C([H])([H])C([H])([H])C1([H])[H])C2([H])[H]

>  <smiles>  (53) 
[H]C(=Nc1c([H])c([H])c(N([H])C(=O)N2C([H])([H])C([H])([H])C([H])([H])C([H])(n3nc(-c4c([H])c([H])c(Oc5c([H])c([H])c(F)c([H])c5F)c([H])c4[H])c(C(=O)N([H])[H])c3N([H])[H])C2([H])[H])c([H])c1F)Oc1c([H])c([H])c2c(c1[H])C([H])([H])N(C(=O)C([H])(N([H])C(=O)C([H])(N([H])C([H])([H])[H])C([H])([H])[H])C(C([H])([H])[H])(C([H])([H])[H])C([H])([H])[H])C([H])(C(=O)N([H])C1([H])c3c([H])c([H])c([H])c([H])c3C([H])([H])C([H])([H])C1([H])[H])C2([H])[H]

$$$$
53:0:0
     RDKit          3D

 92100  0  0  1  0  0  0  0  0999 V2000
  -28.5030  -19.8350   19.6750 C   0  0  0  0  0  3  0  0  0  0  0  0
  -30.4460  -18.5250   21.1740 C   0  0  0  0  0  3  0  0  0  0  0  0
  -29.2560  -20.7180   20.5220 C   0  0  0  0  0  0  0  0  0  0  0  0
  -29.6620  -17.6390   20.3630 C   0  0  0  0  0  0  0  0  0  0  0  0
  -30.2430  -19.9670   21.2620 C   0  0  0  0  0  0  0  0  0  0  0  0
  -28.6810  -18.3880   19.6170 C   0  0  0  0  0  0  0  0  0  0  0  0
  -31.2350  -20.8350   22.3810 Cl  0  0  0  0  0  0  0  0  0  0  0  0
  -27.5920  -17.4970   18.6120 Cl  0  0  0  0  0  0  0  0  0  0  0  0
  -30.5120  -14.9920   20.2830 C   0  0  0  0  0  0  0  0  0  0  0  0
  -30.4260  -12.6520   19.3020 C   0  0  0  0  0  2  0  0  0  0  0  0
  -29.4740  -12.6300   18.0810 C   0  0  0  0  0  2  0  0  0  0  0  0
  -28.0130  -12.4140   18.5230 C   0  0  0  0  0  2  0  0  0  0  0  0
  -27.6180  -13.3170   19.7190 C   0  0  0  0  0  3  0  0  0  0  0  0
  -28.6840  -13.2920   20.8350 C   0  0  0  0  0  2  0  0  0  0  0  0
  -29.9520  -13.7180   20.2260 N   0  0  0  0  0  0  0  0  0  0  0  0
  -31.7140  -15.1070   20.0140 O   0  0  0  0  0  0  0  0  0  0  0  0
  -29.6380  -16.1000   20.4160 N   0  0  0  0  0  0  0  0  0  0  0  0
  -28.6910  -15.7580   20.4400 H   0  0  0  0  0  0  0  0  0  0  0  0
  -25.2390  -13.8910   20.4720 C   0  0  0  0  0  0  0  0  0  0  0  0
  -24.1790  -13.1130   20.8480 C   0  0  0  0  0  0  0  0  0  0  0  0
  -24.6470  -11.7630   20.8100 C   0  0  0  0  0  0  0  0  0  0  0  0
  -26.2830  -13.0160   20.2230 N   0  0  0  0  0  0  0  0  0  0  0  0
  -25.9370  -11.7310   20.4930 N   0  0  0  0  0  0  0  0  0  0  0  0
  -23.9250  -10.4990   20.9990 C   0  0  0  0  0  0  0  0  0  0  0  0
  -24.3560   -9.5330   21.9360 C   0  0  0  0  0  3  0  0  0  0  0  0
  -23.6330   -8.3340   22.1140 C   0  0  0  0  0  3  0  0  0  0  0  0
  -22.4630   -8.0920   21.3540 C   0  0  0  0  0  0  0  0  0  0  0  0
  -22.0510   -9.0450   20.4070 C   0  0  0  0  0  3  0  0  0  0  0  0
  -22.7750  -10.2360   20.2280 C   0  0  0  0  0  3  0  0  0  0  0  0
  -21.7110   -6.9450   21.4400 O   0  0  0  0  0  0  0  0  0  0  0  0
  -21.6500   -6.2110   22.5980 C   0  0  0  0  0  0  0  0  0  0  0  0
  -21.1860   -6.7670   23.8090 C   0  0  0  0  0  3  0  0  0  0  0  0
  -21.0740   -5.9580   24.9590 C   0  0  0  0  0  3  0  0  0  0  0  0
  -21.4150   -4.5940   24.8960 C   0  0  0  0  0  0  0  0  0  0  0  0
  -21.8710   -4.0370   23.6880 C   0  0  0  0  0  3  0  0  0  0  0  0
  -21.9850   -4.8420   22.5410 C   0  0  0  0  0  0  0  0  0  0  0  0
  -22.4050   -4.2960   21.3750 F   0  0  0  0  0  0  0  0  0  0  0  0
  -21.2990   -3.8140   25.9960 F   0  0  0  0  0  0  0  0  0  0  0  0
  -22.7810  -13.5860   21.1260 C   0  0  0  0  0  0  0  0  0  0  0  0
  -22.0580  -12.8850   21.9910 N   0  0  0  0  0  0  0  0  0  0  0  0
  -22.3400  -14.6110   20.6090 O   0  0  0  0  0  0  0  0  0  0  0  0
  -22.4270  -12.0560   22.4310 H   0  0  0  0  0  0  0  0  0  0  0  0
  -21.1200  -13.1840   22.2190 H   0  0  0  0  0  0  0  0  0  0  0  0
  -25.3910  -15.2630   20.2950 N   0  0  0  0  0  0  0  0  0  0  0  0
  -24.6030  -15.8930   20.3910 H   0  0  0  0  0  0  0  0  0  0  0  0
  -26.1900  -15.7040   19.8560 H   0  0  0  0  0  0  0  0  0  0  0  0
  -28.6410  -23.3880   20.1010 C   0  0  0  0  0  0  0  0  0  0  0  0
  -28.9620  -22.2020   20.8130 N   0  0  0  0  0  0  0  0  0  0  0  0
  -28.7040  -23.3850   18.8690 O   0  0  0  0  0  0  0  0  0  0  0  0
  -29.0450  -22.4050   21.8010 H   0  0  0  0  0  0  0  0  0  0  0  0
  -28.1430  -24.7920   20.8430 C   0  0  0  0  0  2  0  0  0  0  0  0
  -28.3520  -26.2310   20.2880 O   0  0  0  0  0  0  0  0  0  0  0  0
  -24.6400  -31.8930   23.2600 C   0  0  0  0  0  0  0  0  0  0  0  0
  -27.2810  -27.1930   20.2820 C   0  0  0  0  0  0  0  0  0  0  0  0
  -23.4630  -30.4800   21.6180 C   0  0  0  0  0  3  0  0  0  0  0  0
  -24.9360  -28.9060   20.2180 C   0  0  0  0  0  0  0  0  0  0  0  0
  -26.0160  -30.7690   21.4700 C   0  0  0  0  0  2  0  0  0  0  0  0
  -26.1070  -29.3730   20.8290 C   0  0  0  0  0  0  0  0  0  0  0  0
  -27.2840  -28.5340   20.8380 C   0  0  0  0  0  3  0  0  0  0  0  0
  -26.0830  -26.8200   19.6390 C   0  0  0  0  0  3  0  0  0  0  0  0
  -24.9350  -27.6420   19.6070 C   0  0  0  0  0  3  0  0  0  0  0  0
  -23.7010  -29.7940   20.2470 C   0  0  0  0  0  2  0  0  0  0  0  0
  -24.7270  -31.0690   22.1710 N   0  0  0  0  0  0  0  0  0  0  0  0
  -23.5480  -32.1710   23.7790 O   0  0  0  0  0  0  0  0  0  0  0  0
  -22.7850  -29.4730   22.5810 C   0  0  0  0  0  0  0  0  0  0  0  0
  -21.4590  -29.2960   22.4470 N   0  0  0  0  0  0  0  0  0  0  0  0
  -23.4550  -28.8540   23.4110 O   0  0  0  0  0  0  0  0  0  0  0  0
  -20.9750  -29.8470   21.7520 H   0  0  0  0  0  0  0  0  0  0  0  0
  -18.0780  -28.0920   22.9430 C   0  0  0  0  0  0  0  0  0  0  0  0
  -20.6370  -28.3580   23.2170 C   0  0  0  0  0  3  0  0  0  0  0  0
  -20.7420  -26.9250   22.6440 C   0  0  0  0  0  2  0  0  0  0  0  0
  -19.6420  -26.6000   21.6270 C   0  0  0  0  0  2  0  0  0  0  0  0
  -18.2590  -26.7430   22.2670 C   0  0  0  0  0  2  0  0  0  0  0  0
  -19.1940  -28.8570   23.3750 C   0  0  0  0  0  0  0  0  0  0  0  0
  -18.9700  -30.1180   23.9680 C   0  0  0  0  0  3  0  0  0  0  0  0
  -17.6630  -30.6140   24.1340 C   0  0  0  0  0  3  0  0  0  0  0  0
  -16.5620  -29.8460   23.7170 C   0  0  0  0  0  3  0  0  0  0  0  0
  -16.7710  -28.5870   23.1280 C   0  0  0  0  0  3  0  0  0  0  0  0
  -25.9100  -32.5410   23.8950 C   0  0  0  0  0  3  0  0  0  0  0  0
  -25.5880  -33.9430   24.2060 N   0  0  0  0  0  0  0  0  0  0  0  0
  -25.9230  -34.9920   23.4420 C   0  0  0  0  0  0  0  0  0  0  0  0
  -26.6010  -34.8810   22.4170 O   0  0  0  0  0  0  0  0  0  0  0  0
  -24.9860  -34.1020   25.0000 H   0  0  0  0  0  0  0  0  0  0  0  0
  -24.1970  -36.7820   23.0570 C   0  0  0  0  0  1  0  0  0  0  0  0
  -25.4310  -36.3840   23.8840 C   0  0  0  0  0  3  0  0  0  0  0  0
  -27.5540  -37.2830   24.7300 C   0  0  0  0  0  1  0  0  0  0  0  0
  -26.4630  -37.4370   23.7720 N   0  0  0  0  0  0  0  0  0  0  0  0
  -26.0530  -38.3590   23.9030 H   0  0  0  0  0  0  0  0  0  0  0  0
  -26.4060  -31.7900   25.1920 C   0  0  1  0  0  0  0  0  0  0  0  0
  -25.2960  -31.5680   26.2460 C   0  0  0  0  0  1  0  0  0  0  0  0
  -26.9970  -30.4070   24.8350 C   0  0  0  0  0  1  0  0  0  0  0  0
  -27.5450  -32.5960   25.8590 C   0  0  0  0  0  1  0  0  0  0  0  0
  1  3  1  0
  2  5  1  0
  3 48  1  0
  3  5  2  0
  4 17  1  0
  4  2  2  0
  5  7  1  0
  6  1  2  0
  6  4  1  0
  8  6  1  0
  9 17  1  0
 10 15  1  0
 11 12  1  0
 11 10  1  0
 13 12  1  0
 13 22  1  0
 13 14  1  0
 15  9  1  0
 15 14  1  0
 16  9  2  0
 17 18  1  0
 19 20  2  0
 20 39  1  0
 21 20  1  0
 21 24  1  0
 22 19  1  0
 22 23  1  0
 23 21  2  0
 24 25  1  0
 25 26  2  0
 27 30  1  0
 27 26  1  0
 28 27  2  0
 29 28  1  0
 29 24  2  0
 30 31  1  0
 31 32  1  0
 32 33  2  0
 34 33  1  0
 34 38  1  0
 35 34  2  0
 36 31  2  0
 36 35  1  0
 37 36  1  0
 39 40  1  0
 40 43  1  0
 40 42  1  0
 41 39  2  0
 44 45  1  0
 44 19  1  0
 46 44  1  0
 47 48  1  0
 47 51  1  0
 48 50  1  0
 49 47  2  0
 52 51  1  0
 53 64  2  0
 54 52  1  0
 54 59  1  0
 55 63  1  0
 55 65  1  0
 56 62  1  0
 56 58  1  0
 57 63  1  0
 58 59  2  0
 58 57  1  0
 60 54  2  0
 61 60  1  0
 61 56  2  0
 62 55  1  0
 63 53  1  0
 65 67  2  0
 66 65  1  0
 68 66  1  0
 69 78  2  0
 69 74  1  0
 70 66  1  0
 70 74  1  0
 71 70  1  0
 72 73  1  0
 72 71  1  0
 73 69  1  0
 74 75  2  0
 75 76  1  0
 77 76  2  0
 78 77  1  0
 79 53  1  0
 79 80  1  0
 79 89  1  0
 80 83  1  0
 81 85  1  0
 81 80  1  0
 82 81  2  0
 85 84  1  0
 87 85  1  0
 87 88  1  0
 87 86  1  0
 89 92  1  1
 89 90  1  0
 91 89  1  0
M  ISO  4   9 100  17 100  51 101  52 101
M  END
>  <TORSDO>  (54) 
F 18

>  <SCORE>  (54) 
-14.955

>  <name>  (54) 
53

>  <ligand_id>  (54) 
53

>  <original_smiles>  (54) 
[H]c1c([H])c([H])c2c(c1[H])C([H])([H])C([H])([H])C([H])([H])C2([H])N([H])C(=O)C1([H])N(C(=O)C([H])(N([H])C(=O)C([H])(N([H])C([H])([H])[H])C([H])([H])[H])C(C([H])([H])[H])(C([H])([H])[H])C([H])([H])[H])C([H])([H])c2c([H])c(OC([H])([H])C(=O)N([H])c3c([H])c(Cl)c(N([H])C(=O)N4C([H])([H])C([H])([H])C([H])([H])C([H])(n5nc(-c6c([H])c([H])c(Oc7c([H])c([H])c(F)c([H])c7F)c([H])c6[H])c(C(=O)N([H])[H])c5N([H])[H])C4([H])[H])c([H])c3Cl)c([H])c([H])c2C1([H])[H]

>  <smiles>  (54) 
[H]c1c([H])c([H])c2c(c1[H])C([H])([H])C([H])([H])C([H])([H])C2([H])N([H])C(=O)C1([H])N(C(=O)C([H])(N([H])C(=O)C([H])(N([H])C([H])([H])[H])C([H])([H])[H])C(C([H])([H])[H])(C([H])([H])[H])C([H])([H])[H])C([H])([H])c2c([H])c(OC([H])([H])C(=O)N([H])c3c([H])c(Cl)c(N([H])C(=O)N4C([H])([H])C([H])([H])C([H])([H])C([H])(n5nc(-c6c([H])c([H])c(Oc7c([H])c([H])c(F)c([H])c7F)c([H])c6[H])c(C(=O)N([H])[H])c5N([H])[H])C4([H])[H])c([H])c3Cl)c([H])c([H])c2C1([H])[H]

$$$$
54:0:0
     RDKit          3D

 93101  0  0  1  0  0  0  0  0999 V2000
  -28.8980  -22.4830   20.3240 C   0  0  0  0  0  0  0  0  0  0  0  0
  -29.8840  -21.5360   20.2060 N   0  0  0  0  0  0  0  0  0  0  0  0
  -27.7080  -22.1670   20.4120 O   0  0  0  0  0  0  0  0  0  0  0  0
  -30.8070  -21.9130   20.0220 H   0  0  0  0  0  0  0  0  0  0  0  0
  -28.8050  -17.9020   20.8720 C   0  0  0  0  0  3  0  0  0  0  0  0
  -28.7630  -19.3200   20.7850 C   0  0  0  0  0  3  0  0  0  0  0  0
  -31.0240  -17.8920   19.9410 C   0  0  0  0  0  3  0  0  0  0  0  0
  -29.9280  -17.1430   20.4530 C   0  0  0  0  0  0  0  0  0  0  0  0
  -29.8530  -20.0710   20.2750 C   0  0  0  0  0  0  0  0  0  0  0  0
  -31.0000  -19.3300   19.8630 C   0  0  0  0  0  0  0  0  0  0  0  0
  -30.6250  -14.6570   20.1090 C   0  0  0  0  0  0  0  0  0  0  0  0
  -30.3530  -12.4610   18.9860 C   0  0  0  0  0  2  0  0  0  0  0  0
  -29.3530  -12.6420   17.8200 C   0  0  0  0  0  2  0  0  0  0  0  0
  -27.8970  -12.4830   18.3090 C   0  0  0  0  0  2  0  0  0  0  0  0
  -27.6030  -13.2950   19.5990 C   0  0  0  0  0  3  0  0  0  0  0  0
  -28.7130  -13.0800   20.6530 C   0  0  0  0  0  2  0  0  0  0  0  0
  -30.0010  -13.4400   20.0320 N   0  0  0  0  0  0  0  0  0  0  0  0
  -31.7590  -14.8310   19.6560 O   0  0  0  0  0  0  0  0  0  0  0  0
  -29.8500  -15.6860   20.5700 N   0  0  0  0  0  0  0  0  0  0  0  0
  -28.9850  -15.3490   20.9660 H   0  0  0  0  0  0  0  0  0  0  0  0
  -25.2390  -13.8730   20.4310 C   0  0  0  0  0  0  0  0  0  0  0  0
  -24.1900  -13.0930   20.8330 C   0  0  0  0  0  0  0  0  0  0  0  0
  -24.6510  -11.7430   20.7520 C   0  0  0  0  0  0  0  0  0  0  0  0
  -26.2750  -13.0020   20.1340 N   0  0  0  0  0  0  0  0  0  0  0  0
  -25.9260  -11.7120   20.3840 N   0  0  0  0  0  0  0  0  0  0  0  0
  -23.9330  -10.4770   20.9460 C   0  0  0  0  0  0  0  0  0  0  0  0
  -24.3690   -9.5180   21.8860 C   0  0  0  0  0  3  0  0  0  0  0  0
  -23.6540   -8.3140   22.0670 C   0  0  0  0  0  3  0  0  0  0  0  0
  -22.4860   -8.0620   21.3070 C   0  0  0  0  0  0  0  0  0  0  0  0
  -22.0700   -9.0100   20.3550 C   0  0  0  0  0  3  0  0  0  0  0  0
  -22.7870  -10.2040   20.1740 C   0  0  0  0  0  3  0  0  0  0  0  0
  -21.7420   -6.9120   21.3990 O   0  0  0  0  0  0  0  0  0  0  0  0
  -21.6380   -6.2110   22.5730 C   0  0  0  0  0  0  0  0  0  0  0  0
  -21.1230   -6.7980   23.7490 C   0  0  0  0  0  3  0  0  0  0  0  0
  -20.9720   -6.0210   24.9140 C   0  0  0  0  0  3  0  0  0  0  0  0
  -21.3260   -4.6570   24.9050 C   0  0  0  0  0  0  0  0  0  0  0  0
  -21.8340   -4.0700   23.7320 C   0  0  0  0  0  3  0  0  0  0  0  0
  -21.9870   -4.8450   22.5680 C   0  0  0  0  0  0  0  0  0  0  0  0
  -22.4580   -4.2680   21.4360 F   0  0  0  0  0  0  0  0  0  0  0  0
  -21.1720   -3.9080   26.0230 F   0  0  0  0  0  0  0  0  0  0  0  0
  -22.8070  -13.5630   21.1790 C   0  0  0  0  0  0  0  0  0  0  0  0
  -22.1170  -12.8510   22.0640 N   0  0  0  0  0  0  0  0  0  0  0  0
  -22.3450  -14.5970   20.6970 O   0  0  0  0  0  0  0  0  0  0  0  0
  -22.5030  -12.0150   22.4760 H   0  0  0  0  0  0  0  0  0  0  0  0
  -21.1900  -13.1480   22.3330 H   0  0  0  0  0  0  0  0  0  0  0  0
  -25.3900  -15.2490   20.2750 N   0  0  0  0  0  0  0  0  0  0  0  0
  -24.6130  -15.8840   20.4180 H   0  0  0  0  0  0  0  0  0  0  0  0
  -26.1960  -15.6960   19.8600 H   0  0  0  0  0  0  0  0  0  0  0  0
  -33.3140  -19.4330   19.1850 C   0  0  0  0  0  1  0  0  0  0  0  0
  -32.0570  -20.0760   19.3810 O   0  0  0  0  0  0  0  0  0  0  0  0
  -29.2740  -24.0190   20.3280 C   0  0  0  0  0  3  0  0  0  0  0  0
  -28.0910  -25.0570   20.1070 C   0  0  0  0  0  3  0  0  0  0  0  0
  -28.3370  -26.5160   20.2150 O   0  0  0  0  0  0  0  0  0  0  0  0
  -24.6220  -31.9030   23.2620 C   0  0  0  0  0  0  0  0  0  0  0  0
  -27.2180  -27.3670   20.1700 C   0  0  0  0  0  0  0  0  0  0  0  0
  -23.4130  -30.5280   21.6070 C   0  0  0  0  0  3  0  0  0  0  0  0
  -24.8570  -28.9850   20.1690 C   0  0  0  0  0  0  0  0  0  0  0  0
  -25.9540  -30.8370   21.4270 C   0  0  0  0  0  2  0  0  0  0  0  0
  -26.0280  -29.4630   20.7720 C   0  0  0  0  0  0  0  0  0  0  0  0
  -27.2110  -28.6660   20.7640 C   0  0  0  0  0  3  0  0  0  0  0  0
  -26.0190  -26.9420   19.5470 C   0  0  0  0  0  3  0  0  0  0  0  0
  -24.8550  -27.7280   19.5480 C   0  0  0  0  0  3  0  0  0  0  0  0
  -23.6240  -29.8610   20.2220 C   0  0  0  0  0  2  0  0  0  0  0  0
  -24.6820  -31.1070   22.1550 N   0  0  0  0  0  0  0  0  0  0  0  0
  -23.5400  -32.1810   23.7980 O   0  0  0  0  0  0  0  0  0  0  0  0
  -22.7460  -29.5050   22.5580 C   0  0  0  0  0  0  0  0  0  0  0  0
  -21.4190  -29.3320   22.4250 N   0  0  0  0  0  0  0  0  0  0  0  0
  -23.4210  -28.8700   23.3710 O   0  0  0  0  0  0  0  0  0  0  0  0
  -20.9340  -29.8970   21.7400 H   0  0  0  0  0  0  0  0  0  0  0  0
  -18.0310  -28.1650   22.9270 C   0  0  0  0  0  0  0  0  0  0  0  0
  -20.5950  -28.3950   23.1870 C   0  0  0  0  0  3  0  0  0  0  0  0
  -20.6800  -26.9690   22.5950 C   0  0  0  0  0  2  0  0  0  0  0  0
  -19.5690  -26.6700   21.5810 C   0  0  0  0  0  2  0  0  0  0  0  0
  -18.1910  -26.8230   22.2330 C   0  0  0  0  0  2  0  0  0  0  0  0
  -19.1610  -28.9100   23.3620 C   0  0  0  0  0  0  0  0  0  0  0  0
  -18.9570  -30.1670   23.9700 C   0  0  0  0  0  3  0  0  0  0  0  0
  -17.6600  -30.6820   24.1480 C   0  0  0  0  0  3  0  0  0  0  0  0
  -16.5460  -29.9350   23.7290 C   0  0  0  0  0  3  0  0  0  0  0  0
  -16.7330  -28.6780   23.1260 C   0  0  0  0  0  3  0  0  0  0  0  0
  -25.9080  -32.5240   23.8930 C   0  0  0  0  0  3  0  0  0  0  0  0
  -26.4150  -31.7380   25.1640 C   0  0  1  0  0  0  0  0  0  0  0  0
  -25.3180  -31.5020   26.2290 C   0  0  0  0  0  1  0  0  0  0  0  0
  -26.9890  -30.3600   24.7610 C   0  0  0  0  0  1  0  0  0  0  0  0
  -27.5750  -32.5140   25.8310 C   0  0  0  0  0  1  0  0  0  0  0  0
  -25.6070  -33.9200   24.2340 N   0  0  0  0  0  0  0  0  0  0  0  0
  -25.9200  -34.9740   23.4660 C   0  0  0  0  0  0  0  0  0  0  0  0
  -26.5610  -34.8710   22.4180 O   0  0  0  0  0  0  0  0  0  0  0  0
  -25.0400  -34.0760   25.0550 H   0  0  0  0  0  0  0  0  0  0  0  0
  -24.1710  -36.7540   23.1700 C   0  0  0  0  0  1  0  0  0  0  0  0
  -25.4450  -36.3620   23.9360 C   0  0  0  0  0  3  0  0  0  0  0  0
  -27.6040  -37.2620   24.6830 C   0  0  0  0  0  1  0  0  0  0  0  0
  -26.4680  -37.4180   23.7770 N   0  0  0  0  0  0  0  0  0  0  0  0
  -26.0640  -38.3380   23.9310 H   0  0  0  0  0  0  0  0  0  0  0  0
  1 51  1  0
  1  3  2  0
  2  9  1  0
  2  1  1  0
  4  2  1  0
  6  5  1  0
  7  8  1  0
  8 19  1  0
  8  5  2  0
  9  6  2  0
 10  7  2  0
 10  9  1  0
 11 19  1  0
 12 17  1  0
 13 14  1  0
 13 12  1  0
 15 14  1  0
 15 24  1  0
 15 16  1  0
 17 11  1  0
 17 16  1  0
 18 11  2  0
 19 20  1  0
 21 22  2  0
 22 41  1  0
 23 22  1  0
 23 26  1  0
 24 25  1  0
 24 21  1  0
 25 23  2  0
 26 27  1  0
 27 28  2  0
 29 32  1  0
 29 28  1  0
 30 29  2  0
 31 30  1  0
 31 26  2  0
 32 33  1  0
 33 34  1  0
 34 35  2  0
 36 35  1  0
 36 40  1  0
 37 36  2  0
 38 33  2  0
 38 37  1  0
 39 38  1  0
 41 42  1  0
 42 45  1  0
 42 44  1  0
 43 41  2  0
 46 47  1  0
 46 21  1  0
 48 46  1  0
 49 50  1  0
 50 10  1  0
 52 53  1  0
 52 51  2  0
 54 65  2  0
 55 53  1  0
 55 60  1  0
 56 64  1  0
 56 66  1  0
 57 63  1  0
 57 59  1  0
 58 64  1  0
 59 58  1  0
 60 59  2  0
 61 62  1  0
 61 55  2  0
 62 57  2  0
 63 56  1  0
 64 54  1  0
 66 68  2  0
 67 66  1  0
 69 67  1  0
 70 79  2  0
 70 75  1  0
 71 67  1  0
 71 75  1  0
 72 71  1  0
 73 74  1  0
 73 72  1  0
 74 70  1  0
 75 76  2  0
 76 77  1  0
 78 77  2  0
 79 78  1  0
 80 54  1  0
 80 85  1  0
 80 81  1  0
 81 84  1  1
 81 82  1  0
 83 81  1  0
 85 88  1  0
 86 90  1  0
 86 85  1  0
 87 86  2  0
 90 89  1  0
 92 93  1  0
 92 90  1  0
 92 91  1  0
M  ISO  4  11 100  19 100  52 101  53 101
M  END
>  <TORSDO>  (55) 
F 20

>  <SCORE>  (55) 
-13.664

>  <name>  (55) 
54

>  <ligand_id>  (55) 
54

>  <original_smiles>  (55) 
[H]c1c([H])c([H])c2c(c1[H])C([H])([H])C([H])([H])C([H])([H])C2([H])N([H])C(=O)C1([H])N(C(=O)C([H])(N([H])C(=O)C([H])(N([H])C([H])([H])[H])C([H])([H])[H])C(C([H])([H])[H])(C([H])([H])[H])C([H])([H])[H])C([H])([H])c2c([H])c(OC([H])([H])C([H])([H])C(=O)N([H])c3c([H])c([H])c(N([H])C(=O)N4C([H])([H])C([H])([H])C([H])([H])C([H])(n5nc(-c6c([H])c([H])c(Oc7c([H])c([H])c(F)c([H])c7F)c([H])c6[H])c(C(=O)N([H])[H])c5N([H])[H])C4([H])[H])c([H])c3OC([H])([H])[H])c([H])c([H])c2C1([H])[H]

>  <smiles>  (55) 
[H]c1c([H])c([H])c2c(c1[H])C([H])([H])C([H])([H])C([H])([H])C2([H])N([H])C(=O)C1([H])N(C(=O)C([H])(N([H])C(=O)C([H])(N([H])C([H])([H])[H])C([H])([H])[H])C(C([H])([H])[H])(C([H])([H])[H])C([H])([H])[H])C([H])([H])c2c([H])c(OC([H])([H])C([H])([H])C(=O)N([H])c3c([H])c([H])c(N([H])C(=O)N4C([H])([H])C([H])([H])C([H])([H])C([H])(n5nc(-c6c([H])c([H])c(Oc7c([H])c([H])c(F)c([H])c7F)c([H])c6[H])c(C(=O)N([H])[H])c5N([H])[H])C4([H])[H])c([H])c3OC([H])([H])[H])c([H])c([H])c2C1([H])[H]

$$$$
55:0:0
     RDKit          3D

 92100  0  0  1  0  0  0  0  0999 V2000
  -30.3590  -19.5290   19.6900 C   0  0  0  0  0  3  0  0  0  0  0  0
  -30.6620  -18.1250   19.8260 C   0  0  0  0  0  3  0  0  0  0  0  0
  -28.0500  -19.0620   20.1020 C   0  0  0  0  0  3  0  0  0  0  0  0
  -29.0350  -20.0550   19.8270 C   0  0  0  0  0  0  0  0  0  0  0  0
  -29.6460  -17.1620   20.1010 C   0  0  0  0  0  0  0  0  0  0  0  0
  -28.3320  -17.6670   20.2300 C   0  0  0  0  0  0  0  0  0  0  0  0
  -30.5940  -14.6890   19.8490 C   0  0  0  0  0  0  0  0  0  0  0  0
  -30.4210  -12.3790   18.9310 C   0  0  0  0  0  2  0  0  0  0  0  0
  -29.4050  -12.4130   17.7660 C   0  0  0  0  0  2  0  0  0  0  0  0
  -27.9600  -12.2470   18.2800 C   0  0  0  0  0  2  0  0  0  0  0  0
  -27.6480  -13.1540   19.4980 C   0  0  0  0  0  3  0  0  0  0  0  0
  -28.7730  -13.0710   20.5560 C   0  0  0  0  0  2  0  0  0  0  0  0
  -30.0380  -13.4320   19.8890 N   0  0  0  0  0  0  0  0  0  0  0  0
  -31.7280  -14.8820   19.4020 O   0  0  0  0  0  0  0  0  0  0  0  0
  -29.7290  -15.6970   20.1760 N   0  0  0  0  0  0  0  0  0  0  0  0
  -28.8890  -15.3210   20.5870 H   0  0  0  0  0  0  0  0  0  0  0  0
  -25.2980  -13.7460   20.3600 C   0  0  0  0  0  0  0  0  0  0  0  0
  -24.2580  -12.9680   20.7930 C   0  0  0  0  0  0  0  0  0  0  0  0
  -24.7200  -11.6190   20.7270 C   0  0  0  0  0  0  0  0  0  0  0  0
  -26.3310  -12.8690   20.0650 N   0  0  0  0  0  0  0  0  0  0  0  0
  -25.9920  -11.5840   20.3420 N   0  0  0  0  0  0  0  0  0  0  0  0
  -24.0080  -10.3530   20.9500 C   0  0  0  0  0  0  0  0  0  0  0  0
  -24.4540   -9.4120   21.9030 C   0  0  0  0  0  3  0  0  0  0  0  0
  -23.7420   -8.2120   22.1100 C   0  0  0  0  0  3  0  0  0  0  0  0
  -22.5690   -7.9430   21.3640 C   0  0  0  0  0  0  0  0  0  0  0  0
  -22.1430   -8.8730   20.3990 C   0  0  0  0  0  3  0  0  0  0  0  0
  -22.8560  -10.0650   20.1910 C   0  0  0  0  0  3  0  0  0  0  0  0
  -21.8260   -6.7940   21.4820 O   0  0  0  0  0  0  0  0  0  0  0  0
  -21.7410   -6.1100   22.6690 C   0  0  0  0  0  0  0  0  0  0  0  0
  -21.2460   -6.7180   23.8440 C   0  0  0  0  0  3  0  0  0  0  0  0
  -21.1100   -5.9600   25.0240 C   0  0  0  0  0  3  0  0  0  0  0  0
  -21.4590   -4.5960   25.0300 C   0  0  0  0  0  0  0  0  0  0  0  0
  -21.9460   -3.9890   23.8590 C   0  0  0  0  0  3  0  0  0  0  0  0
  -22.0840   -4.7430   22.6820 C   0  0  0  0  0  0  0  0  0  0  0  0
  -22.5350   -4.1490   21.5520 F   0  0  0  0  0  0  0  0  0  0  0  0
  -21.3200   -3.8650   26.1610 F   0  0  0  0  0  0  0  0  0  0  0  0
  -22.8790  -13.4410   21.1530 C   0  0  0  0  0  0  0  0  0  0  0  0
  -22.2090  -12.7410   22.0630 N   0  0  0  0  0  0  0  0  0  0  0  0
  -22.4060  -14.4660   20.6640 O   0  0  0  0  0  0  0  0  0  0  0  0
  -22.6060  -11.9110   22.4770 H   0  0  0  0  0  0  0  0  0  0  0  0
  -21.2880  -13.0410   22.3470 H   0  0  0  0  0  0  0  0  0  0  0  0
  -25.4470  -15.1140   20.1630 N   0  0  0  0  0  0  0  0  0  0  0  0
  -24.6670  -15.7560   20.2510 H   0  0  0  0  0  0  0  0  0  0  0  0
  -26.2620  -15.5380   19.7400 H   0  0  0  0  0  0  0  0  0  0  0  0
  -27.4050  -21.8460   20.3790 C   0  0  0  0  0  1  0  0  0  0  0  0
  -28.6430  -21.4560   19.6970 N   0  0  0  0  0  0  0  0  0  0  0  0
  -29.5170  -22.6080   19.3120 C   0  0  0  0  0  2  0  0  0  0  0  0
  -28.8320  -23.9880   18.8440 C   0  0  0  0  0  2  0  0  0  0  0  0
  -28.4890  -25.1540   19.8780 C   0  0  0  0  0  2  0  0  0  0  0  0
  -28.4660  -26.5610   19.4220 O   0  0  0  0  0  0  0  0  0  0  0  0
  -24.6790  -31.5540   23.0250 C   0  0  0  0  0  0  0  0  0  0  0  0
  -27.3050  -27.3280   19.5490 C   0  0  0  0  0  0  0  0  0  0  0  0
  -23.4670  -30.2980   21.2740 C   0  0  0  0  0  3  0  0  0  0  0  0
  -24.9130  -28.8860   19.7070 C   0  0  0  0  0  0  0  0  0  0  0  0
  -25.9940  -30.6610   21.0920 C   0  0  0  0  0  2  0  0  0  0  0  0
  -26.0820  -29.3450   20.3280 C   0  0  0  0  0  0  0  0  0  0  0  0
  -27.2800  -28.5800   20.2360 C   0  0  0  0  0  3  0  0  0  0  0  0
  -26.1100  -26.9010   18.9280 C   0  0  0  0  0  3  0  0  0  0  0  0
  -24.9280  -27.6690   19.0000 C   0  0  0  0  0  3  0  0  0  0  0  0
  -23.6710  -29.7440   19.8380 C   0  0  0  0  0  2  0  0  0  0  0  0
  -24.7310  -30.8510   21.8570 N   0  0  0  0  0  0  0  0  0  0  0  0
  -23.6000  -31.7760   23.5940 O   0  0  0  0  0  0  0  0  0  0  0  0
  -22.8180  -29.1970   22.1460 C   0  0  0  0  0  0  0  0  0  0  0  0
  -21.4850  -29.0550   22.0450 N   0  0  0  0  0  0  0  0  0  0  0  0
  -23.5100  -28.4780   22.8710 O   0  0  0  0  0  0  0  0  0  0  0  0
  -20.9880  -29.6900   21.4350 H   0  0  0  0  0  0  0  0  0  0  0  0
  -18.0980  -27.8900   22.5520 C   0  0  0  0  0  0  0  0  0  0  0  0
  -20.6720  -28.0540   22.7380 C   0  0  0  0  0  3  0  0  0  0  0  0
  -20.7100  -26.6970   21.9960 C   0  0  0  0  0  2  0  0  0  0  0  0
  -19.5580  -26.5230   21.0000 C   0  0  0  0  0  2  0  0  0  0  0  0
  -18.2080  -26.6250   21.7160 C   0  0  0  0  0  2  0  0  0  0  0  0
  -19.2560  -28.5700   23.0160 C   0  0  0  0  0  0  0  0  0  0  0  0
  -19.0990  -29.7620   23.7580 C   0  0  0  0  0  3  0  0  0  0  0  0
  -17.8190  -30.2730   24.0380 C   0  0  0  0  0  3  0  0  0  0  0  0
  -16.6760  -29.5850   23.5920 C   0  0  0  0  0  3  0  0  0  0  0  0
  -16.8170  -28.3960   22.8530 C   0  0  0  0  0  3  0  0  0  0  0  0
  -25.9650  -32.1310   23.6930 C   0  0  0  0  0  3  0  0  0  0  0  0
  -25.6600  -33.4960   24.1420 N   0  0  0  0  0  0  0  0  0  0  0  0
  -25.9870  -34.6110   23.4740 C   0  0  0  0  0  0  0  0  0  0  0  0
  -26.6490  -34.5960   22.4330 O   0  0  0  0  0  0  0  0  0  0  0  0
  -25.0670  -33.5790   24.9560 H   0  0  0  0  0  0  0  0  0  0  0  0
  -24.2540  -36.4240   23.2890 C   0  0  0  0  0  1  0  0  0  0  0  0
  -25.5020  -35.9540   24.0500 C   0  0  0  0  0  3  0  0  0  0  0  0
  -27.6410  -36.7730   24.9360 C   0  0  0  0  0  1  0  0  0  0  0  0
  -26.5320  -37.0150   24.0180 N   0  0  0  0  0  0  0  0  0  0  0  0
  -26.1250  -37.9170   24.2490 H   0  0  0  0  0  0  0  0  0  0  0  0
  -26.4900  -31.2540   24.8960 C   0  0  1  0  0  0  0  0  0  0  0  0
  -25.4040  -30.9340   25.9510 C   0  0  0  0  0  1  0  0  0  0  0  0
  -27.0610  -29.9120   24.3810 C   0  0  0  0  0  1  0  0  0  0  0  0
  -27.6520  -31.9850   25.6110 C   0  0  0  0  0  1  0  0  0  0  0  0
  -25.9960  -17.0570   20.3580 C   0  0  0  0  0  1  0  0  0  0  0  0
  -27.3660  -16.7060   20.4570 O   0  0  0  0  0  0  0  0  0  0  0  0
  1  2  2  0
  1  4  1  0
  2  5  1  0
  3  6  1  0
  4  3  2  0
  5 15  1  0
  5  6  2  0
  6 92  1  0
  7 13  1  0
  7 15  1  0
  8 13  1  0
  9 10  1  0
  9  8  1  0
 11 10  1  0
 11 20  1  0
 11 12  1  0
 13 12  1  0
 14  7  2  0
 15 16  1  0
 17 18  2  0
 18 37  1  0
 19 18  1  0
 19 22  1  0
 20 21  1  0
 20 17  1  0
 21 19  2  0
 22 23  1  0
 23 24  2  0
 25 28  1  0
 25 24  1  0
 26 25  2  0
 27 26  1  0
 27 22  2  0
 28 29  1  0
 29 34  2  0
 29 30  1  0
 30 31  2  0
 31 32  1  0
 32 36  1  0
 33 32  2  0
 34 33  1  0
 35 34  1  0
 37 38  1  0
 38 41  1  0
 38 40  1  0
 39 37  2  0
 42 43  1  0
 42 17  1  0
 44 42  1  0
 46  4  1  0
 46 45  1  0
 47 46  1  0
 48 47  1  0
 48 49  1  0
 50 52  1  0
 50 49  1  0
 51 62  2  0
 52 57  1  0
 53 61  1  0
 53 63  1  0
 54 60  1  0
 54 56  1  0
 55 61  1  0
 56 55  1  0
 57 56  2  0
 58 59  1  0
 58 52  2  0
 59 54  2  0
 60 53  1  0
 61 51  1  0
 63 65  2  0
 64 63  1  0
 66 64  1  0
 67 76  2  0
 67 72  1  0
 68 64  1  0
 68 72  1  0
 69 68  1  0
 70 71  1  0
 70 69  1  0
 71 67  1  0
 72 73  2  0
 73 74  1  0
 75 74  2  0
 76 75  1  0
 77 51  1  0
 77 78  1  0
 77 87  1  0
 78 81  1  0
 79 83  1  0
 79 78  1  0
 80 79  2  0
 83 82  1  0
 85 83  1  0
 85 86  1  0
 85 84  1  0
 87 90  1  1
 87 88  1  0
 89 87  1  0
 91 92  1  0
M  ISO  4   7 100  15 100  49 101  50 101
M  END
>  <TORSDO>  (56) 
F 21

>  <SCORE>  (56) 
-12.525

>  <name>  (56) 
55

>  <ligand_id>  (56) 
55

>  <original_smiles>  (56) 
[H]c1c([H])c([H])c2c(c1[H])C([H])([H])C([H])([H])C([H])([H])C2([H])N([H])C(=O)C1([H])N(C(=O)C([H])(N([H])C(=O)C([H])(N([H])C([H])([H])[H])C([H])([H])[H])C(C([H])([H])[H])(C([H])([H])[H])C([H])([H])[H])C([H])([H])c2c([H])c(OC([H])([H])C([H])([H])C([H])([H])N(c3c([H])c([H])c(N([H])C(=O)N4C([H])([H])C([H])([H])C([H])([H])C([H])(n5nc(-c6c([H])c([H])c(Oc7c([H])c([H])c(F)c([H])c7F)c([H])c6[H])c(C(=O)N([H])[H])c5N([H])[H])C4([H])[H])c(OC([H])([H])[H])c3[H])C([H])([H])[H])c([H])c([H])c2C1([H])[H]

>  <smiles>  (56) 
[H]c1c([H])c([H])c2c(c1[H])C([H])([H])C([H])([H])C([H])([H])C2([H])N([H])C(=O)C1([H])N(C(=O)C([H])(N([H])C(=O)C([H])(N([H])C([H])([H])[H])C([H])([H])[H])C(C([H])([H])[H])(C([H])([H])[H])C([H])([H])[H])C([H])([H])c2c([H])c(OC([H])([H])C([H])([H])C([H])([H])N(c3c([H])c([H])c(N([H])C(=O)N4C([H])([H])C([H])([H])C([H])([H])C([H])(n5nc(-c6c([H])c([H])c(Oc7c([H])c([H])c(F)c([H])c7F)c([H])c6[H])c(C(=O)N([H])[H])c5N([H])[H])C4([H])[H])c(OC([H])([H])[H])c3[H])C([H])([H])[H])c([H])c([H])c2C1([H])[H]

$$$$
56:0:0
     RDKit          3D

 93101  0  0  1  0  0  0  0  0999 V2000
  -30.8710  -17.4550   18.8850 C   0  0  0  0  0  3  0  0  0  0  0  0
  -30.4360  -19.8130   18.9140 C   0  0  0  0  0  3  0  0  0  0  0  0
  -31.0450  -18.7750   18.3090 C   0  0  0  0  0  0  0  0  0  0  0  0
  -30.1140  -17.2170   19.9830 C   0  0  0  0  0  0  0  0  0  0  0  0
  -29.4350  -18.4110   20.6220 C   0  0  0  0  0  0  0  0  0  0  0  0
  -29.6410  -19.6880   20.0700 N   0  0  0  0  0  0  0  0  0  0  0  0
  -28.7130  -18.2710   21.6140 O   0  0  0  0  0  0  0  0  0  0  0  0
  -30.6230  -14.7020   20.1840 C   0  0  0  0  0  0  0  0  0  0  0  0
  -30.3230  -12.4690   19.1310 C   0  0  0  0  0  2  0  0  0  0  0  0
  -29.3650  -12.6230   17.9290 C   0  0  0  0  0  2  0  0  0  0  0  0
  -27.9010  -12.4800   18.3880 C   0  0  0  0  0  2  0  0  0  0  0  0
  -27.5810  -13.3330   19.6440 C   0  0  0  0  0  3  0  0  0  0  0  0
  -28.6620  -13.1790   20.7380 C   0  0  0  0  0  2  0  0  0  0  0  0
  -29.9580  -13.5000   20.1290 N   0  0  0  0  0  0  0  0  0  0  0  0
  -31.7960  -14.7670   19.8040 O   0  0  0  0  0  0  0  0  0  0  0  0
  -29.8960  -15.8500   20.4520 N   0  0  0  0  0  0  0  0  0  0  0  0
  -29.0200  -15.7160   20.9350 H   0  0  0  0  0  0  0  0  0  0  0  0
  -25.2110  -13.9510   20.4140 C   0  0  0  0  0  0  0  0  0  0  0  0
  -24.1450  -13.1870   20.8040 C   0  0  0  0  0  0  0  0  0  0  0  0
  -24.5920  -11.8320   20.7650 C   0  0  0  0  0  0  0  0  0  0  0  0
  -26.2410  -13.0600   20.1580 N   0  0  0  0  0  0  0  0  0  0  0  0
  -25.8770  -11.7800   20.4310 N   0  0  0  0  0  0  0  0  0  0  0  0
  -23.8560  -10.5770   20.9680 C   0  0  0  0  0  0  0  0  0  0  0  0
  -24.2830   -9.6120   21.9060 C   0  0  0  0  0  3  0  0  0  0  0  0
  -23.5470   -8.4240   22.0970 C   0  0  0  0  0  3  0  0  0  0  0  0
  -22.3690   -8.1910   21.3490 C   0  0  0  0  0  0  0  0  0  0  0  0
  -21.9610   -9.1430   20.3990 C   0  0  0  0  0  3  0  0  0  0  0  0
  -22.6970  -10.3240   20.2060 C   0  0  0  0  0  3  0  0  0  0  0  0
  -21.6040   -7.0530   21.4480 O   0  0  0  0  0  0  0  0  0  0  0  0
  -21.5450   -6.3250   22.6090 C   0  0  0  0  0  0  0  0  0  0  0  0
  -21.1010   -6.8920   23.8230 C   0  0  0  0  0  3  0  0  0  0  0  0
  -20.9890   -6.0900   24.9770 C   0  0  0  0  0  3  0  0  0  0  0  0
  -21.3120   -4.7220   24.9160 C   0  0  0  0  0  0  0  0  0  0  0  0
  -21.7500   -4.1530   23.7070 C   0  0  0  0  0  3  0  0  0  0  0  0
  -21.8630   -4.9530   22.5560 C   0  0  0  0  0  0  0  0  0  0  0  0
  -22.2650   -4.3950   21.3890 F   0  0  0  0  0  0  0  0  0  0  0  0
  -21.1980   -3.9480   26.0220 F   0  0  0  0  0  0  0  0  0  0  0  0
  -22.7580  -13.6800   21.0990 C   0  0  0  0  0  0  0  0  0  0  0  0
  -22.0360  -12.9920   21.9760 N   0  0  0  0  0  0  0  0  0  0  0  0
  -22.3220  -14.7110   20.5880 O   0  0  0  0  0  0  0  0  0  0  0  0
  -22.4000  -12.1590   22.4160 H   0  0  0  0  0  0  0  0  0  0  0  0
  -21.1050  -13.3040   22.2150 H   0  0  0  0  0  0  0  0  0  0  0  0
  -25.3870  -15.3190   20.2330 N   0  0  0  0  0  0  0  0  0  0  0  0
  -24.6300  -15.9810   20.3630 H   0  0  0  0  0  0  0  0  0  0  0  0
  -26.2320  -15.7490   19.8790 H   0  0  0  0  0  0  0  0  0  0  0  0
  -33.3470  -18.6510   17.2780 C   0  0  0  0  0  1  0  0  0  0  0  0
  -31.2850  -18.1790   15.8620 C   0  0  0  0  0  1  0  0  0  0  0  0
  -31.8660  -18.9750   17.0430 C   0  0  0  0  0  3  0  0  0  0  0  0
  -29.0750  -20.9810   20.6810 C   0  0  0  0  0  3  0  0  0  0  0  0
  -29.1240  -22.4050   19.8980 C   0  0  0  0  0  3  0  0  0  0  0  0
  -28.5800  -23.7690   20.5750 C   0  0  0  0  0  3  0  0  0  0  0  0
  -28.5610  -25.1220   19.6990 C   0  0  0  0  0  3  0  0  0  0  0  0
  -28.4160  -26.4780   20.3120 O   0  0  0  0  0  0  0  0  0  0  0  0
  -24.5860  -31.8550   23.2440 C   0  0  0  0  0  0  0  0  0  0  0  0
  -27.2670  -27.2890   20.2230 C   0  0  0  0  0  0  0  0  0  0  0  0
  -23.4130  -30.4470   21.5890 C   0  0  0  0  0  3  0  0  0  0  0  0
  -24.8900  -28.8990   20.1830 C   0  0  0  0  0  0  0  0  0  0  0  0
  -25.9520  -30.7760   21.4380 C   0  0  0  0  0  2  0  0  0  0  0  0
  -26.0470  -29.3950   20.7940 C   0  0  0  0  0  0  0  0  0  0  0  0
  -27.2330  -28.6010   20.8020 C   0  0  0  0  0  3  0  0  0  0  0  0
  -26.0790  -26.8440   19.6000 C   0  0  0  0  0  3  0  0  0  0  0  0
  -24.9090  -27.6310   19.5800 C   0  0  0  0  0  3  0  0  0  0  0  0
  -23.6480  -29.7680   20.2130 C   0  0  0  0  0  2  0  0  0  0  0  0
  -24.6690  -31.0440   22.1470 N   0  0  0  0  0  0  0  0  0  0  0  0
  -23.4950  -32.1280   23.7630 O   0  0  0  0  0  0  0  0  0  0  0  0
  -22.7420  -29.4300   22.5420 C   0  0  0  0  0  0  0  0  0  0  0  0
  -21.4150  -29.2610   22.4110 N   0  0  0  0  0  0  0  0  0  0  0  0
  -23.4140  -28.7960   23.3600 O   0  0  0  0  0  0  0  0  0  0  0  0
  -20.9320  -29.8250   21.7250 H   0  0  0  0  0  0  0  0  0  0  0  0
  -18.0270  -28.0960   22.9100 C   0  0  0  0  0  0  0  0  0  0  0  0
  -20.5890  -28.3240   23.1740 C   0  0  0  0  0  3  0  0  0  0  0  0
  -20.6720  -26.8990   22.5800 C   0  0  0  0  0  2  0  0  0  0  0  0
  -19.5630  -26.6000   21.5660 C   0  0  0  0  0  2  0  0  0  0  0  0
  -18.1860  -26.7530   22.2180 C   0  0  0  0  0  2  0  0  0  0  0  0
  -19.1550  -28.8410   23.3450 C   0  0  0  0  0  0  0  0  0  0  0  0
  -18.9520  -30.0980   23.9530 C   0  0  0  0  0  3  0  0  0  0  0  0
  -17.6530  -30.6110   24.1310 C   0  0  0  0  0  3  0  0  0  0  0  0
  -16.5390  -29.8640   23.7120 C   0  0  0  0  0  3  0  0  0  0  0  0
  -16.7270  -28.6080   23.1070 C   0  0  0  0  0  3  0  0  0  0  0  0
  -25.8570  -32.4950   23.8840 C   0  0  0  0  0  3  0  0  0  0  0  0
  -25.5390  -33.8960   24.1970 N   0  0  0  0  0  0  0  0  0  0  0  0
  -25.8800  -34.9430   23.4350 C   0  0  0  0  0  0  0  0  0  0  0  0
  -26.5620  -34.8320   22.4120 O   0  0  0  0  0  0  0  0  0  0  0  0
  -24.9310  -34.0560   24.9880 H   0  0  0  0  0  0  0  0  0  0  0  0
  -24.1570  -36.7340   23.0420 C   0  0  0  0  0  1  0  0  0  0  0  0
  -25.3850  -36.3350   23.8760 C   0  0  0  0  0  3  0  0  0  0  0  0
  -27.5010  -37.2310   24.7380 C   0  0  0  0  0  1  0  0  0  0  0  0
  -26.4190  -37.3870   23.7710 N   0  0  0  0  0  0  0  0  0  0  0  0
  -26.0100  -38.3080   23.8990 H   0  0  0  0  0  0  0  0  0  0  0  0
  -26.3510  -31.7360   25.1770 C   0  0  1  0  0  0  0  0  0  0  0  0
  -25.2380  -31.5070   26.2260 C   0  0  0  0  0  1  0  0  0  0  0  0
  -26.9420  -30.3560   24.8090 C   0  0  0  0  0  1  0  0  0  0  0  0
  -27.4880  -32.5380   25.8530 C   0  0  0  0  0  1  0  0  0  0  0  0
  1  4  2  0
  2  6  1  0
  3  1  1  0
  3  2  2  0
  4 16  1  0
  4  5  1  0
  5  7  2  0
  6  5  1  0
  6 49  1  0
  8 16  1  0
  9 14  1  0
 10 11  1  0
 10  9  1  0
 12 11  1  0
 12 21  1  0
 12 13  1  0
 14  8  1  0
 14 13  1  0
 15  8  2  0
 16 17  1  0
 18 19  2  0
 19 38  1  0
 20 19  1  0
 20 23  1  0
 21 18  1  0
 21 22  1  0
 22 20  2  0
 23 24  1  0
 24 25  2  0
 26 29  1  0
 26 25  1  0
 27 26  2  0
 28 27  1  0
 28 23  2  0
 29 30  1  0
 30 31  1  0
 31 32  2  0
 33 32  1  0
 33 37  1  0
 34 33  2  0
 35 30  2  0
 35 34  1  0
 36 35  1  0
 38 39  1  0
 39 42  1  0
 39 41  1  0
 40 38  2  0
 43 44  1  0
 43 18  1  0
 45 43  1  0
 47 48  1  0
 48 46  1  0
 48  3  1  0
 50 51  1  0
 50 49  2  0
 52 53  1  0
 52 51  2  0
 54 65  2  0
 55 53  1  0
 55 60  1  0
 56 64  1  0
 56 66  1  0
 57 63  1  0
 57 59  1  0
 58 64  1  0
 59 60  2  0
 59 58  1  0
 61 55  2  0
 62 61  1  0
 62 57  2  0
 63 56  1  0
 64 54  1  0
 66 68  2  0
 67 66  1  0
 69 67  1  0
 70 79  2  0
 70 75  1  0
 71 67  1  0
 71 75  1  0
 72 71  1  0
 73 74  1  0
 73 72  1  0
 74 70  1  0
 75 76  2  0
 76 77  1  0
 78 77  2  0
 79 78  1  0
 80 54  1  0
 80 81  1  0
 80 90  1  0
 81 84  1  0
 82 86  1  0
 82 81  1  0
 83 82  2  0
 86 85  1  0
 88 86  1  0
 88 89  1  0
 88 87  1  0
 90 93  1  1
 90 91  1  0
 92 90  1  0
M  ISO  4   8 100  16 100  52 101  53 101
M  END
>  <TORSDO>  (57) 
F 21

>  <SCORE>  (57) 
-12.916

>  <name>  (57) 
56

>  <ligand_id>  (57) 
56

>  <original_smiles>  (57) 
[H]c1c([H])c([H])c2c(c1[H])C([H])([H])C([H])([H])C([H])([H])C2([H])N([H])C(=O)C1([H])N(C(=O)C([H])(N([H])C(=O)C([H])(N([H])C([H])([H])[H])C([H])([H])[H])C(C([H])([H])[H])(C([H])([H])[H])C([H])([H])[H])C([H])([H])c2c([H])c(OC([H])([H])C([H])([H])C([H])([H])C([H])([H])n3c([H])c(C([H])(C([H])([H])[H])C([H])([H])[H])c([H])c(N([H])C(=O)N4C([H])([H])C([H])([H])C([H])([H])C([H])(n5nc(-c6c([H])c([H])c(Oc7c([H])c([H])c(F)c([H])c7F)c([H])c6[H])c(C(=O)N([H])[H])c5N([H])[H])C4([H])[H])c3=O)c([H])c([H])c2C1([H])[H]

>  <smiles>  (57) 
[H]c1c([H])c([H])c2c(c1[H])C([H])([H])C([H])([H])C([H])([H])C2([H])N([H])C(=O)C1([H])N(C(=O)C([H])(N([H])C(=O)C([H])(N([H])C([H])([H])[H])C([H])([H])[H])C(C([H])([H])[H])(C([H])([H])[H])C([H])([H])[H])C([H])([H])c2c([H])c(OC([H])([H])C([H])([H])C([H])([H])C([H])([H])n3c([H])c(C([H])(C([H])([H])[H])C([H])([H])[H])c([H])c(N([H])C(=O)N4C([H])([H])C([H])([H])C([H])([H])C([H])(n5nc(-c6c([H])c([H])c(Oc7c([H])c([H])c(F)c([H])c7F)c([H])c6[H])c(C(=O)N([H])[H])c5N([H])[H])C4([H])[H])c3=O)c([H])c([H])c2C1([H])[H]

$$$$
57:0:0
     RDKit          3D

 92100  0  0  1  0  0  0  0  0999 V2000
  -28.8420  -22.4870   20.2950 C   0  0  0  0  0  0  0  0  0  0  0  0
  -29.8270  -21.5380   20.2380 N   0  0  0  0  0  0  0  0  0  0  0  0
  -27.6480  -22.1760   20.3090 O   0  0  0  0  0  0  0  0  0  0  0  0
  -30.7590  -21.9100   20.1150 H   0  0  0  0  0  0  0  0  0  0  0  0
  -28.7710  -17.8840   20.8620 C   0  0  0  0  0  3  0  0  0  0  0  0
  -28.7030  -19.3060   20.7850 C   0  0  0  0  0  3  0  0  0  0  0  0
  -30.9980  -17.9180   19.9510 C   0  0  0  0  0  3  0  0  0  0  0  0
  -29.9130  -17.1460   20.4490 C   0  0  0  0  0  0  0  0  0  0  0  0
  -29.7860  -20.0750   20.2900 C   0  0  0  0  0  0  0  0  0  0  0  0
  -30.9350  -19.3430   19.8820 C   0  0  0  0  0  0  0  0  0  0  0  0
  -32.0070  -20.0270   19.4140 F   0  0  0  0  0  0  0  0  0  0  0  0
  -30.6520  -14.6790   20.0620 C   0  0  0  0  0  0  0  0  0  0  0  0
  -30.3890  -12.4810   18.9320 C   0  0  0  0  0  2  0  0  0  0  0  0
  -29.3680  -12.6530   17.7830 C   0  0  0  0  0  2  0  0  0  0  0  0
  -27.9250  -12.4760   18.2950 C   0  0  0  0  0  2  0  0  0  0  0  0
  -27.6440  -13.2940   19.5840 C   0  0  0  0  0  3  0  0  0  0  0  0
  -28.7680  -13.0870   20.6250 C   0  0  0  0  0  2  0  0  0  0  0  0
  -30.0430  -13.4540   19.9870 N   0  0  0  0  0  0  0  0  0  0  0  0
  -31.7750  -14.8710   19.5830 O   0  0  0  0  0  0  0  0  0  0  0  0
  -29.8740  -15.6870   20.5620 N   0  0  0  0  0  0  0  0  0  0  0  0
  -29.0280  -15.3310   20.9780 H   0  0  0  0  0  0  0  0  0  0  0  0
  -25.2960  -13.8690   20.4620 C   0  0  0  0  0  0  0  0  0  0  0  0
  -24.2530  -13.0820   20.8710 C   0  0  0  0  0  0  0  0  0  0  0  0
  -24.7120  -11.7330   20.7690 C   0  0  0  0  0  0  0  0  0  0  0  0
  -26.3240  -12.9980   20.1360 N   0  0  0  0  0  0  0  0  0  0  0  0
  -25.9810  -11.7070   20.3800 N   0  0  0  0  0  0  0  0  0  0  0  0
  -23.9990  -10.4650   20.9620 C   0  0  0  0  0  0  0  0  0  0  0  0
  -24.4480   -9.4990   21.8890 C   0  0  0  0  0  3  0  0  0  0  0  0
  -23.7350   -8.2940   22.0690 C   0  0  0  0  0  3  0  0  0  0  0  0
  -22.5580   -8.0470   21.3220 C   0  0  0  0  0  0  0  0  0  0  0  0
  -22.1280   -9.0020   20.3850 C   0  0  0  0  0  3  0  0  0  0  0  0
  -22.8420  -10.1990   20.2020 C   0  0  0  0  0  3  0  0  0  0  0  0
  -21.8150   -6.8950   21.4130 O   0  0  0  0  0  0  0  0  0  0  0  0
  -21.7260   -6.1870   22.5850 C   0  0  0  0  0  0  0  0  0  0  0  0
  -21.2300   -6.7680   23.7720 C   0  0  0  0  0  3  0  0  0  0  0  0
  -21.0900   -5.9850   24.9350 C   0  0  0  0  0  3  0  0  0  0  0  0
  -21.4350   -4.6200   24.9110 C   0  0  0  0  0  0  0  0  0  0  0  0
  -21.9240   -4.0380   23.7290 C   0  0  0  0  0  3  0  0  0  0  0  0
  -22.0660   -4.8190   22.5690 C   0  0  0  0  0  0  0  0  0  0  0  0
  -22.5170   -4.2470   21.4250 F   0  0  0  0  0  0  0  0  0  0  0  0
  -21.2940   -3.8640   26.0250 F   0  0  0  0  0  0  0  0  0  0  0  0
  -22.8750  -13.5490   21.2420 C   0  0  0  0  0  0  0  0  0  0  0  0
  -22.2010  -12.8260   22.1300 N   0  0  0  0  0  0  0  0  0  0  0  0
  -22.4060  -14.5870   20.7810 O   0  0  0  0  0  0  0  0  0  0  0  0
  -22.5950  -11.9840   22.5260 H   0  0  0  0  0  0  0  0  0  0  0  0
  -21.2790  -13.1190   22.4200 H   0  0  0  0  0  0  0  0  0  0  0  0
  -25.4500  -15.2450   20.3170 N   0  0  0  0  0  0  0  0  0  0  0  0
  -24.6820  -15.8880   20.4840 H   0  0  0  0  0  0  0  0  0  0  0  0
  -26.2590  -15.6930   19.9090 H   0  0  0  0  0  0  0  0  0  0  0  0
  -29.2320  -24.0180   20.3340 C   0  0  0  0  0  3  0  0  0  0  0  0
  -28.0970  -25.0740   19.9900 C   0  0  0  0  0  3  0  0  0  0  0  0
  -28.3300  -26.5220   20.1980 O   0  0  0  0  0  0  0  0  0  0  0  0
  -24.6020  -31.8870   23.2610 C   0  0  0  0  0  0  0  0  0  0  0  0
  -27.2080  -27.3660   20.1540 C   0  0  0  0  0  0  0  0  0  0  0  0
  -23.3940  -30.5040   21.6120 C   0  0  0  0  0  3  0  0  0  0  0  0
  -24.8410  -28.9710   20.1680 C   0  0  0  0  0  0  0  0  0  0  0  0
  -25.9340  -30.8280   21.4240 C   0  0  0  0  0  2  0  0  0  0  0  0
  -26.0120  -29.4570   20.7650 C   0  0  0  0  0  0  0  0  0  0  0  0
  -27.2000  -28.6660   20.7480 C   0  0  0  0  0  3  0  0  0  0  0  0
  -26.0110  -26.9380   19.5330 C   0  0  0  0  0  3  0  0  0  0  0  0
  -24.8420  -27.7170   19.5440 C   0  0  0  0  0  3  0  0  0  0  0  0
  -23.6050  -29.8430   20.2260 C   0  0  0  0  0  2  0  0  0  0  0  0
  -24.6620  -31.0890   22.1550 N   0  0  0  0  0  0  0  0  0  0  0  0
  -23.5190  -32.1600   23.8000 O   0  0  0  0  0  0  0  0  0  0  0  0
  -22.7360  -29.4750   22.5640 C   0  0  0  0  0  0  0  0  0  0  0  0
  -21.4120  -29.2940   22.4350 N   0  0  0  0  0  0  0  0  0  0  0  0
  -23.4170  -28.8450   23.3770 O   0  0  0  0  0  0  0  0  0  0  0  0
  -20.9220  -29.8530   21.7520 H   0  0  0  0  0  0  0  0  0  0  0  0
  -18.0360  -28.0930   22.9300 C   0  0  0  0  0  0  0  0  0  0  0  0
  -20.5940  -28.3510   23.2010 C   0  0  0  0  0  3  0  0  0  0  0  0
  -20.6960  -26.9230   22.6150 C   0  0  0  0  0  2  0  0  0  0  0  0
  -19.5930  -26.6080   21.5990 C   0  0  0  0  0  2  0  0  0  0  0  0
  -18.2110  -26.7480   22.2450 C   0  0  0  0  0  2  0  0  0  0  0  0
  -19.1540  -28.8520   23.3650 C   0  0  0  0  0  0  0  0  0  0  0  0
  -18.9350  -30.1120   23.9640 C   0  0  0  0  0  3  0  0  0  0  0  0
  -17.6300  -30.6110   24.1350 C   0  0  0  0  0  3  0  0  0  0  0  0
  -16.5260  -29.8490   23.7160 C   0  0  0  0  0  3  0  0  0  0  0  0
  -16.7300  -28.5920   23.1190 C   0  0  0  0  0  3  0  0  0  0  0  0
  -25.8860  -32.5140   23.8840 C   0  0  0  0  0  3  0  0  0  0  0  0
  -26.4000  -31.7380   25.1580 C   0  0  1  0  0  0  0  0  0  0  0  0
  -25.3050  -31.4990   26.2240 C   0  0  0  0  0  1  0  0  0  0  0  0
  -26.9810  -30.3610   24.7630 C   0  0  0  0  0  1  0  0  0  0  0  0
  -27.5520  -32.5270   25.8240 C   0  0  0  0  0  1  0  0  0  0  0  0
  -25.5800  -33.9120   24.2180 N   0  0  0  0  0  0  0  0  0  0  0  0
  -25.8910  -34.9640   23.4490 C   0  0  0  0  0  0  0  0  0  0  0  0
  -26.5370  -34.8600   22.4030 O   0  0  0  0  0  0  0  0  0  0  0  0
  -25.0020  -34.0670   25.0310 H   0  0  0  0  0  0  0  0  0  0  0  0
  -24.1360  -36.7410   23.1460 C   0  0  0  0  0  1  0  0  0  0  0  0
  -25.4100  -36.3530   23.9140 C   0  0  0  0  0  3  0  0  0  0  0  0
  -27.5640  -37.2630   24.6620 C   0  0  0  0  0  1  0  0  0  0  0  0
  -26.4290  -37.4130   23.7550 N   0  0  0  0  0  0  0  0  0  0  0  0
  -26.0200  -38.3320   23.9070 H   0  0  0  0  0  0  0  0  0  0  0  0
  1  3  2  0
  1 50  1  0
  2  9  1  0
  2  1  1  0
  4  2  1  0
  6  5  1  0
  7  8  1  0
  8 20  1  0
  8  5  2  0
  9  6  2  0
 10  7  2  0
 10  9  1  0
 11 10  1  0
 12 20  1  0
 13 18  1  0
 14 15  1  0
 14 13  1  0
 16 15  1  0
 16 25  1  0
 16 17  1  0
 18 12  1  0
 18 17  1  0
 19 12  2  0
 20 21  1  0
 22 23  2  0
 23 42  1  0
 24 23  1  0
 24 27  1  0
 25 26  1  0
 25 22  1  0
 26 24  2  0
 27 28  1  0
 28 29  2  0
 30 33  1  0
 30 29  1  0
 31 30  2  0
 32 31  1  0
 32 27  2  0
 33 34  1  0
 34 35  1  0
 35 36  2  0
 37 36  1  0
 37 41  1  0
 38 37  2  0
 39 34  2  0
 39 38  1  0
 40 39  1  0
 42 43  1  0
 43 46  1  0
 43 45  1  0
 44 42  2  0
 47 22  1  0
 47 48  1  0
 49 47  1  0
 51 52  1  0
 51 50  2  0
 53 64  2  0
 54 52  1  0
 54 59  1  0
 55 63  1  0
 55 65  1  0
 56 62  1  0
 56 58  1  0
 57 63  1  0
 58 57  1  0
 59 58  2  0
 60 61  1  0
 60 54  2  0
 61 56  2  0
 62 55  1  0
 63 53  1  0
 65 67  2  0
 66 65  1  0
 68 66  1  0
 69 78  2  0
 69 74  1  0
 70 66  1  0
 70 74  1  0
 71 70  1  0
 72 73  1  0
 72 71  1  0
 73 69  1  0
 74 75  2  0
 75 76  1  0
 77 76  2  0
 78 77  1  0
 79 53  1  0
 79 84  1  0
 79 80  1  0
 80 83  1  1
 80 81  1  0
 82 80  1  0
 84 87  1  0
 85 89  1  0
 85 84  1  0
 86 85  2  0
 89 88  1  0
 91 92  1  0
 91 89  1  0
 91 90  1  0
M  ISO  4  12 100  20 100  51 101  52 101
M  END
>  <TORSDO>  (58) 
F 19

>  <SCORE>  (58) 
-13.959

>  <name>  (58) 
57

>  <ligand_id>  (58) 
57

>  <original_smiles>  (58) 
[H]c1c([H])c([H])c2c(c1[H])C([H])([H])C([H])([H])C([H])([H])C2([H])N([H])C(=O)C1([H])N(C(=O)C([H])(N([H])C(=O)C([H])(N([H])C([H])([H])[H])C([H])([H])[H])C(C([H])([H])[H])(C([H])([H])[H])C([H])([H])[H])C([H])([H])c2c([H])c(OC([H])([H])C([H])([H])C(=O)N([H])c3c([H])c([H])c(N([H])C(=O)N4C([H])([H])C([H])([H])C([H])([H])C([H])(n5nc(-c6c([H])c([H])c(Oc7c([H])c([H])c(F)c([H])c7F)c([H])c6[H])c(C(=O)N([H])[H])c5N([H])[H])C4([H])[H])c([H])c3F)c([H])c([H])c2C1([H])[H]

>  <smiles>  (58) 
[H]c1c([H])c([H])c2c(c1[H])C([H])([H])C([H])([H])C([H])([H])C2([H])N([H])C(=O)C1([H])N(C(=O)C([H])(N([H])C(=O)C([H])(N([H])C([H])([H])[H])C([H])([H])[H])C(C([H])([H])[H])(C([H])([H])[H])C([H])([H])[H])C([H])([H])c2c([H])c(OC([H])([H])C([H])([H])C(=O)N([H])c3c([H])c([H])c(N([H])C(=O)N4C([H])([H])C([H])([H])C([H])([H])C([H])(n5nc(-c6c([H])c([H])c(Oc7c([H])c([H])c(F)c([H])c7F)c([H])c6[H])c(C(=O)N([H])[H])c5N([H])[H])C4([H])[H])c([H])c3F)c([H])c([H])c2C1([H])[H]

$$$$
58:0:0
     RDKit          3D

 92100  0  0  1  0  0  0  0  0999 V2000
  -29.4090  -18.1300   21.3330 C   0  0  0  0  0  3  0  0  0  0  0  0
  -29.2450  -19.5320   21.0940 C   0  0  0  0  0  3  0  0  0  0  0  0
  -30.1690  -17.8100   19.0810 C   0  0  0  0  0  3  0  0  0  0  0  0
  -29.9650  -19.2040   18.8180 C   0  0  0  0  0  0  0  0  0  0  0  0
  -29.8740  -17.2250   20.3390 C   0  0  0  0  0  0  0  0  0  0  0  0
  -29.5020  -20.1110   19.8230 C   0  0  0  0  0  0  0  0  0  0  0  0
  -30.6390  -14.7450   20.0880 C   0  0  0  0  0  0  0  0  0  0  0  0
  -30.4070  -12.5170   19.0080 C   0  0  0  0  0  2  0  0  0  0  0  0
  -29.3990  -12.6340   17.8410 C   0  0  0  0  0  2  0  0  0  0  0  0
  -27.9510  -12.4580   18.3410 C   0  0  0  0  0  2  0  0  0  0  0  0
  -27.6470  -13.3210   19.5920 C   0  0  0  0  0  3  0  0  0  0  0  0
  -28.7530  -13.1540   20.6580 C   0  0  0  0  0  2  0  0  0  0  0  0
  -30.0350  -13.5140   20.0330 N   0  0  0  0  0  0  0  0  0  0  0  0
  -31.7640  -14.9200   19.6070 O   0  0  0  0  0  0  0  0  0  0  0  0
  -29.8920  -15.7770   20.5990 N   0  0  0  0  0  0  0  0  0  0  0  0
  -29.1170  -15.4560   21.1590 H   0  0  0  0  0  0  0  0  0  0  0  0
  -25.2930  -13.9260   20.4360 C   0  0  0  0  0  0  0  0  0  0  0  0
  -24.2380  -13.1520   20.8400 C   0  0  0  0  0  0  0  0  0  0  0  0
  -24.6880  -11.7990   20.7580 C   0  0  0  0  0  0  0  0  0  0  0  0
  -26.3180  -13.0430   20.1350 N   0  0  0  0  0  0  0  0  0  0  0  0
  -25.9610  -11.7590   20.3880 N   0  0  0  0  0  0  0  0  0  0  0  0
  -23.9640  -10.5370   20.9550 C   0  0  0  0  0  0  0  0  0  0  0  0
  -24.4140   -9.5610   21.8690 C   0  0  0  0  0  3  0  0  0  0  0  0
  -23.6940   -8.3610   22.0520 C   0  0  0  0  0  3  0  0  0  0  0  0
  -22.5040   -8.1310   21.3190 C   0  0  0  0  0  0  0  0  0  0  0  0
  -22.0720   -9.0960   20.3930 C   0  0  0  0  0  3  0  0  0  0  0  0
  -22.7940  -10.2860   20.2090 C   0  0  0  0  0  3  0  0  0  0  0  0
  -21.7500   -6.9860   21.4140 O   0  0  0  0  0  0  0  0  0  0  0  0
  -21.7030   -6.2490   22.5700 C   0  0  0  0  0  0  0  0  0  0  0  0
  -21.2320   -6.7950   23.7840 C   0  0  0  0  0  3  0  0  0  0  0  0
  -21.1300   -5.9800   24.9290 C   0  0  0  0  0  3  0  0  0  0  0  0
  -21.4950   -4.6230   24.8640 C   0  0  0  0  0  0  0  0  0  0  0  0
  -21.9580   -4.0760   23.6550 C   0  0  0  0  0  3  0  0  0  0  0  0
  -22.0590   -4.8870   22.5110 C   0  0  0  0  0  0  0  0  0  0  0  0
  -22.4860   -4.3500   21.3420 F   0  0  0  0  0  0  0  0  0  0  0  0
  -21.3920   -3.8390   25.9630 F   0  0  0  0  0  0  0  0  0  0  0  0
  -22.8590  -13.6330   21.1880 C   0  0  0  0  0  0  0  0  0  0  0  0
  -22.1630  -12.9210   22.0670 N   0  0  0  0  0  0  0  0  0  0  0  0
  -22.4070  -14.6750   20.7150 O   0  0  0  0  0  0  0  0  0  0  0  0
  -22.5450  -12.0870   22.4870 H   0  0  0  0  0  0  0  0  0  0  0  0
  -21.2350  -13.2230   22.3330 H   0  0  0  0  0  0  0  0  0  0  0  0
  -25.4630  -15.2980   20.2760 N   0  0  0  0  0  0  0  0  0  0  0  0
  -24.7090  -15.9600   20.4260 H   0  0  0  0  0  0  0  0  0  0  0  0
  -26.2950  -15.7260   19.8910 H   0  0  0  0  0  0  0  0  0  0  0  0
  -30.2490  -19.7000   17.4080 C   0  0  0  0  0  3  0  0  0  0  0  0
  -31.3860  -20.3920   17.3760 F   0  0  0  0  0  0  0  0  0  0  0  0
  -29.2520  -20.4500   16.9340 F   0  0  0  0  0  0  0  0  0  0  0  0
  -29.3020  -21.4720   19.4960 O   0  0  0  0  0  0  0  0  0  0  0  0
  -28.9820  -22.5340   20.4570 C   0  0  0  0  0  2  0  0  0  0  0  0
  -28.6810  -23.9520   19.7770 C   0  0  0  0  0  3  0  0  0  0  0  0
  -28.3230  -25.1980   20.7080 C   0  0  0  0  0  3  0  0  0  0  0  0
  -28.4180  -26.5810   20.1960 O   0  0  0  0  0  0  0  0  0  0  0  0
  -24.6010  -31.9060   23.2670 C   0  0  0  0  0  0  0  0  0  0  0  0
  -27.2740  -27.3850   20.2170 C   0  0  0  0  0  0  0  0  0  0  0  0
  -23.4180  -30.4920   21.6240 C   0  0  0  0  0  3  0  0  0  0  0  0
  -24.8860  -28.9450   20.2150 C   0  0  0  0  0  0  0  0  0  0  0  0
  -25.9510  -30.8420   21.4410 C   0  0  0  0  0  2  0  0  0  0  0  0
  -26.0480  -29.4630   20.8000 C   0  0  0  0  0  0  0  0  0  0  0  0
  -27.2500  -28.6970   20.7810 C   0  0  0  0  0  3  0  0  0  0  0  0
  -26.0860  -26.9040   19.6300 C   0  0  0  0  0  3  0  0  0  0  0  0
  -24.9020  -27.6690   19.6260 C   0  0  0  0  0  3  0  0  0  0  0  0
  -23.6410  -29.8100   20.2490 C   0  0  0  0  0  2  0  0  0  0  0  0
  -24.6760  -31.0970   22.1680 N   0  0  0  0  0  0  0  0  0  0  0  0
  -23.5130  -32.1710   23.7970 O   0  0  0  0  0  0  0  0  0  0  0  0
  -22.7610  -29.4730   22.5840 C   0  0  0  0  0  0  0  0  0  0  0  0
  -21.4360  -29.2920   22.4610 N   0  0  0  0  0  0  0  0  0  0  0  0
  -23.4440  -28.8460   23.3990 O   0  0  0  0  0  0  0  0  0  0  0  0
  -20.9460  -29.8460   21.7720 H   0  0  0  0  0  0  0  0  0  0  0  0
  -18.0570  -28.1110   22.9890 C   0  0  0  0  0  0  0  0  0  0  0  0
  -20.6200  -28.3520   23.2310 C   0  0  0  0  0  3  0  0  0  0  0  0
  -20.7080  -26.9260   22.6410 C   0  0  0  0  0  2  0  0  0  0  0  0
  -19.5920  -26.6190   21.6370 C   0  0  0  0  0  2  0  0  0  0  0  0
  -18.2180  -26.7670   22.2970 C   0  0  0  0  0  2  0  0  0  0  0  0
  -19.1860  -28.8610   23.4140 C   0  0  0  0  0  0  0  0  0  0  0  0
  -18.9800  -30.1190   24.0230 C   0  0  0  0  0  3  0  0  0  0  0  0
  -17.6820  -30.6270   24.2080 C   0  0  0  0  0  3  0  0  0  0  0  0
  -16.5680  -29.8730   23.7970 C   0  0  0  0  0  3  0  0  0  0  0  0
  -16.7570  -28.6160   23.1960 C   0  0  0  0  0  3  0  0  0  0  0  0
  -25.8750  -32.5510   23.8940 C   0  0  0  0  0  3  0  0  0  0  0  0
  -25.5600  -33.9570   24.1910 N   0  0  0  0  0  0  0  0  0  0  0  0
  -25.8960  -34.9930   23.4120 C   0  0  0  0  0  0  0  0  0  0  0  0
  -26.5740  -34.8680   22.3880 O   0  0  0  0  0  0  0  0  0  0  0  0
  -24.9630  -34.1260   24.9880 H   0  0  0  0  0  0  0  0  0  0  0  0
  -24.1750  -36.7770   22.9940 C   0  0  0  0  0  1  0  0  0  0  0  0
  -25.4030  -36.3900   23.8340 C   0  0  0  0  0  3  0  0  0  0  0  0
  -27.5200  -37.2890   24.6920 C   0  0  0  0  0  1  0  0  0  0  0  0
  -26.4380  -37.4410   23.7230 N   0  0  0  0  0  0  0  0  0  0  0  0
  -26.0290  -38.3620   23.8490 H   0  0  0  0  0  0  0  0  0  0  0  0
  -26.3720  -31.8100   25.1950 C   0  0  1  0  0  0  0  0  0  0  0  0
  -25.2620  -31.5950   26.2510 C   0  0  0  0  0  1  0  0  0  0  0  0
  -26.9640  -30.4280   24.8390 C   0  0  0  0  0  1  0  0  0  0  0  0
  -27.5120  -32.6210   25.8550 C   0  0  0  0  0  1  0  0  0  0  0  0
  2  1  1  0
  3  5  1  0
  4  3  2  0
  4  6  1  0
  5 15  1  0
  5  1  2  0
  6  2  2  0
  7 15  1  0
  8 13  1  0
  9 10  1  0
  9  8  1  0
 11 10  1  0
 11 20  1  0
 11 12  1  0
 13  7  1  0
 13 12  1  0
 14  7  2  0
 15 16  1  0
 17 18  2  0
 18 37  1  0
 19 18  1  0
 19 22  1  0
 20 21  1  0
 20 17  1  0
 21 19  2  0
 22 23  1  0
 23 24  2  0
 25 28  1  0
 25 24  1  0
 26 25  2  0
 27 26  1  0
 27 22  2  0
 28 29  1  0
 29 30  1  0
 30 31  2  0
 32 31  1  0
 32 36  1  0
 33 32  2  0
 34 29  2  0
 34 33  1  0
 35 34  1  0
 37 38  1  0
 38 41  1  0
 38 40  1  0
 39 37  2  0
 42 43  1  0
 42 17  1  0
 44 42  1  0
 45  4  1  0
 46 45  1  0
 47 45  1  0
 48  6  1  0
 48 49  1  0
 50 49  1  0
 50 51  2  0
 52 54  1  0
 52 51  1  0
 53 64  2  0
 54 59  1  0
 55 63  1  0
 55 65  1  0
 56 62  1  0
 56 58  1  0
 57 63  1  0
 58 57  1  0
 59 58  2  0
 60 54  2  0
 61 60  1  0
 61 56  2  0
 62 55  1  0
 63 53  1  0
 65 67  2  0
 66 65  1  0
 68 66  1  0
 69 78  2  0
 69 74  1  0
 70 66  1  0
 70 74  1  0
 71 70  1  0
 72 73  1  0
 72 71  1  0
 73 69  1  0
 74 75  2  0
 75 76  1  0
 77 76  2  0
 78 77  1  0
 79 53  1  0
 79 80  1  0
 79 89  1  0
 80 83  1  0
 81 85  1  0
 81 80  1  0
 82 81  2  0
 85 84  1  0
 87 85  1  0
 87 88  1  0
 87 86  1  0
 89 92  1  1
 89 90  1  0
 91 89  1  0
M  ISO  4   7 100  15 100  51 101  52 101
M  END
>  <TORSDO>  (59) 
F 21

>  <SCORE>  (59) 
-13.003

>  <name>  (59) 
58

>  <ligand_id>  (59) 
58

>  <original_smiles>  (59) 
[H]c1c([H])c([H])c2c(c1[H])C([H])([H])C([H])([H])C([H])([H])C2([H])N([H])C(=O)C1([H])N(C(=O)C([H])(N([H])C(=O)C([H])(N([H])C([H])([H])[H])C([H])([H])[H])C(C([H])([H])[H])(C([H])([H])[H])C([H])([H])[H])C([H])([H])c2c([H])c(OC([H])([H])C([H])([H])C([H])([H])Oc3c([H])c([H])c(N([H])C(=O)N4C([H])([H])C([H])([H])C([H])([H])C([H])(n5nc(-c6c([H])c([H])c(Oc7c([H])c([H])c(F)c([H])c7F)c([H])c6[H])c(C(=O)N([H])[H])c5N([H])[H])C4([H])[H])c([H])c3C([H])(F)F)c([H])c([H])c2C1([H])[H]

>  <smiles>  (59) 
[H]c1c([H])c([H])c2c(c1[H])C([H])([H])C([H])([H])C([H])([H])C2([H])N([H])C(=O)C1([H])N(C(=O)C([H])(N([H])C(=O)C([H])(N([H])C([H])([H])[H])C([H])([H])[H])C(C([H])([H])[H])(C([H])([H])[H])C([H])([H])[H])C([H])([H])c2c([H])c(OC([H])([H])C([H])([H])C([H])([H])Oc3c([H])c([H])c(N([H])C(=O)N4C([H])([H])C([H])([H])C([H])([H])C([H])(n5nc(-c6c([H])c([H])c(Oc7c([H])c([H])c(F)c([H])c7F)c([H])c6[H])c(C(=O)N([H])[H])c5N([H])[H])C4([H])[H])c([H])c3C([H])(F)F)c([H])c([H])c2C1([H])[H]

$$$$
59:0:0
     RDKit          3D

 91 99  0  0  1  0  0  0  0  0999 V2000
  -30.6040  -19.7700   19.4730 C   0  0  0  0  0  3  0  0  0  0  0  0
  -30.7430  -18.3430   19.6870 C   0  0  0  0  0  3  0  0  0  0  0  0
  -28.2870  -19.6610   19.8350 C   0  0  0  0  0  3  0  0  0  0  0  0
  -29.3810  -20.5450   19.5400 C   0  0  0  0  0  0  0  0  0  0  0  0
  -29.6500  -17.4790   19.9820 C   0  0  0  0  0  0  0  0  0  0  0  0
  -28.4040  -18.2080   20.0350 C   0  0  0  0  0  0  0  0  0  0  0  0
  -30.5140  -14.8690   19.8310 C   0  0  0  0  0  0  0  0  0  0  0  0
  -30.3970  -12.5140   18.9150 C   0  0  0  0  0  2  0  0  0  0  0  0
  -29.3710  -12.4670   17.7560 C   0  0  0  0  0  2  0  0  0  0  0  0
  -27.9430  -12.2450   18.2950 C   0  0  0  0  0  2  0  0  0  0  0  0
  -27.6160  -13.1650   19.4990 C   0  0  0  0  0  3  0  0  0  0  0  0
  -28.7500  -13.1600   20.5460 C   0  0  0  0  0  2  0  0  0  0  0  0
  -29.9760  -13.5860   19.8580 N   0  0  0  0  0  0  0  0  0  0  0  0
  -31.6630  -15.0080   19.3970 O   0  0  0  0  0  0  0  0  0  0  0  0
  -29.6800  -15.9610   20.1620 N   0  0  0  0  0  0  0  0  0  0  0  0
  -28.8340  -15.6330   20.6010 H   0  0  0  0  0  0  0  0  0  0  0  0
  -25.3050  -13.7260   20.4520 C   0  0  0  0  0  0  0  0  0  0  0  0
  -24.2710  -12.9390   20.8790 C   0  0  0  0  0  0  0  0  0  0  0  0
  -24.7230  -11.5900   20.7570 C   0  0  0  0  0  0  0  0  0  0  0  0
  -26.3200  -12.8540   20.0920 N   0  0  0  0  0  0  0  0  0  0  0  0
  -25.9830  -11.5620   20.3400 N   0  0  0  0  0  0  0  0  0  0  0  0
  -24.0090  -10.3220   20.9580 C   0  0  0  0  0  0  0  0  0  0  0  0
  -24.4530   -9.3620   21.8930 C   0  0  0  0  0  3  0  0  0  0  0  0
  -23.7370   -8.1610   22.0820 C   0  0  0  0  0  3  0  0  0  0  0  0
  -22.5610   -7.9110   21.3340 C   0  0  0  0  0  0  0  0  0  0  0  0
  -22.1370   -8.8590   20.3870 C   0  0  0  0  0  3  0  0  0  0  0  0
  -22.8540  -10.0520   20.1970 C   0  0  0  0  0  3  0  0  0  0  0  0
  -21.8150   -6.7610   21.4330 O   0  0  0  0  0  0  0  0  0  0  0  0
  -21.7020   -6.0750   22.6160 C   0  0  0  0  0  0  0  0  0  0  0  0
  -21.1660   -6.6760   23.7760 C   0  0  0  0  0  3  0  0  0  0  0  0
  -21.0030   -5.9150   24.9510 C   0  0  0  0  0  3  0  0  0  0  0  0
  -21.3640   -4.5540   24.9660 C   0  0  0  0  0  0  0  0  0  0  0  0
  -21.8940   -3.9530   23.8090 C   0  0  0  0  0  3  0  0  0  0  0  0
  -22.0590   -4.7120   22.6370 C   0  0  0  0  0  0  0  0  0  0  0  0
  -22.5490   -4.1230   21.5200 F   0  0  0  0  0  0  0  0  0  0  0  0
  -21.2010   -3.8200   26.0910 F   0  0  0  0  0  0  0  0  0  0  0  0
  -22.9040  -13.4080   21.2840 C   0  0  0  0  0  0  0  0  0  0  0  0
  -22.2540  -12.6930   22.1960 N   0  0  0  0  0  0  0  0  0  0  0  0
  -22.4230  -14.4450   20.8280 O   0  0  0  0  0  0  0  0  0  0  0  0
  -22.6580  -11.8540   22.5850 H   0  0  0  0  0  0  0  0  0  0  0  0
  -21.3410  -12.9890   22.5090 H   0  0  0  0  0  0  0  0  0  0  0  0
  -25.4600  -15.1020   20.3180 N   0  0  0  0  0  0  0  0  0  0  0  0
  -24.7040  -15.7480   20.5210 H   0  0  0  0  0  0  0  0  0  0  0  0
  -26.2860  -15.5620   19.9560 H   0  0  0  0  0  0  0  0  0  0  0  0
  -30.6770  -22.5530   19.0120 C   0  0  0  0  0  1  0  0  0  0  0  0
  -29.3390  -22.0300   19.3090 N   0  0  0  0  0  0  0  0  0  0  0  0
  -28.4010  -23.1900   19.7750 C   0  0  0  0  0  2  0  0  0  0  0  0
  -28.2900  -24.6660   18.9530 C   0  0  0  0  0  2  0  0  0  0  0  0
  -28.2750  -26.1160   19.5190 O   0  0  0  0  0  0  0  0  0  0  0  0
  -24.6090  -31.5190   22.8830 C   0  0  0  0  0  0  0  0  0  0  0  0
  -27.1830  -27.0560   19.4920 C   0  0  0  0  0  0  0  0  0  0  0  0
  -23.3940  -30.2160   21.1790 C   0  0  0  0  0  3  0  0  0  0  0  0
  -24.8290  -28.7600   19.6240 C   0  0  0  0  0  0  0  0  0  0  0  0
  -25.9380  -30.5280   20.9830 C   0  0  0  0  0  2  0  0  0  0  0  0
  -26.0140  -29.1830   20.2390 C   0  0  0  0  0  0  0  0  0  0  0  0
  -27.1870  -28.3460   20.1590 C   0  0  0  0  0  3  0  0  0  0  0  0
  -25.9680  -26.7340   18.8450 C   0  0  0  0  0  3  0  0  0  0  0  0
  -24.8180  -27.5500   18.9150 C   0  0  0  0  0  3  0  0  0  0  0  0
  -23.5940  -29.6350   19.7550 C   0  0  0  0  0  2  0  0  0  0  0  0
  -24.6680  -30.7740   21.7380 N   0  0  0  0  0  0  0  0  0  0  0  0
  -23.5310  -31.7550   23.4500 O   0  0  0  0  0  0  0  0  0  0  0  0
  -22.7470  -29.1390   22.0860 C   0  0  0  0  0  0  0  0  0  0  0  0
  -21.4120  -28.9940   22.0110 N   0  0  0  0  0  0  0  0  0  0  0  0
  -23.4480  -28.4400   22.8220 O   0  0  0  0  0  0  0  0  0  0  0  0
  -20.9040  -29.6150   21.3970 H   0  0  0  0  0  0  0  0  0  0  0  0
  -18.0350  -27.8410   22.6300 C   0  0  0  0  0  0  0  0  0  0  0  0
  -20.6130  -28.0060   22.7420 C   0  0  0  0  0  3  0  0  0  0  0  0
  -20.6260  -26.6370   22.0220 C   0  0  0  0  0  2  0  0  0  0  0  0
  -19.4490  -26.4480   21.0610 C   0  0  0  0  0  2  0  0  0  0  0  0
  -18.1190  -26.5630   21.8120 C   0  0  0  0  0  2  0  0  0  0  0  0
  -19.2050  -28.5270   23.0530 C   0  0  0  0  0  0  0  0  0  0  0  0
  -19.0670  -29.7260   23.7850 C   0  0  0  0  0  3  0  0  0  0  0  0
  -17.7940  -30.2410   24.0940 C   0  0  0  0  0  3  0  0  0  0  0  0
  -16.6400  -29.5500   23.6850 C   0  0  0  0  0  3  0  0  0  0  0  0
  -16.7610  -28.3520   22.9590 C   0  0  0  0  0  3  0  0  0  0  0  0
  -25.8920  -32.1300   23.5260 C   0  0  0  0  0  3  0  0  0  0  0  0
  -26.4500  -31.2760   24.7310 C   0  0  1  0  0  0  0  0  0  0  0  0
  -25.3900  -30.9560   25.8110 C   0  0  0  0  0  1  0  0  0  0  0  0
  -27.0300  -29.9340   24.2290 C   0  0  0  0  0  1  0  0  0  0  0  0
  -27.6140  -32.0320   25.4150 C   0  0  0  0  0  1  0  0  0  0  0  0
  -25.5630  -33.4920   23.9750 N   0  0  0  0  0  0  0  0  0  0  0  0
  -25.8710  -34.6130   23.3080 C   0  0  0  0  0  0  0  0  0  0  0  0
  -26.5300  -34.6080   22.2650 O   0  0  0  0  0  0  0  0  0  0  0  0
  -24.9760  -33.5670   24.7930 H   0  0  0  0  0  0  0  0  0  0  0  0
  -24.1100  -36.4030   23.1390 C   0  0  0  0  0  1  0  0  0  0  0  0
  -25.3720  -35.9510   23.8910 C   0  0  0  0  0  3  0  0  0  0  0  0
  -27.5030  -36.8050   24.7630 C   0  0  0  0  0  1  0  0  0  0  0  0
  -26.3850  -37.0270   23.8490 N   0  0  0  0  0  0  0  0  0  0  0  0
  -25.9660  -37.9250   24.0770 H   0  0  0  0  0  0  0  0  0  0  0  0
  -26.0210  -17.8490   19.8890 C   0  0  0  0  0  1  0  0  0  0  0  0
  -27.3100  -17.4040   20.2900 O   0  0  0  0  0  0  0  0  0  0  0  0
  1  4  2  0
  1  2  1  0
  2  5  2  0
  3  6  2  0
  4  3  1  0
  5  6  1  0
  5 15  1  0
  6 91  1  0
  7 13  1  0
  7 15  1  0
  8 13  1  0
  9 10  1  0
  9  8  1  0
 11 10  1  0
 11 20  1  0
 11 12  1  0
 13 12  1  0
 14  7  2  0
 15 16  1  0
 17 18  2  0
 18 37  1  0
 19 18  1  0
 19 22  1  0
 20 21  1  0
 20 17  1  0
 21 19  2  0
 22 23  1  0
 23 24  2  0
 25 28  1  0
 25 24  1  0
 26 25  2  0
 27 26  1  0
 27 22  2  0
 28 29  1  0
 29 34  2  0
 29 30  1  0
 30 31  2  0
 31 32  1  0
 32 36  1  0
 33 32  2  0
 34 33  1  0
 35 34  1  0
 37 38  1  0
 38 41  1  0
 38 40  1  0
 39 37  2  0
 42 17  1  0
 42 43  1  0
 44 42  1  0
 45 46  1  0
 46  4  1  0
 46 47  1  0
 48 49  1  0
 48 47  1  0
 50 61  2  0
 51 49  1  0
 51 56  1  0
 52 60  1  0
 52 62  1  0
 53 59  1  0
 53 55  1  0
 54 60  1  0
 55 54  1  0
 56 55  2  0
 57 58  1  0
 57 51  2  0
 58 53  2  0
 59 52  1  0
 60 50  1  0
 62 64  2  0
 63 62  1  0
 65 63  1  0
 66 75  2  0
 66 71  1  0
 67 63  1  0
 67 71  1  0
 68 67  1  0
 69 70  1  0
 69 68  1  0
 70 66  1  0
 71 72  2  0
 72 73  1  0
 74 73  2  0
 75 74  1  0
 76 50  1  0
 76 81  1  0
 76 77  1  0
 77 80  1  1
 77 78  1  0
 79 77  1  0
 81 84  1  0
 82 86  1  0
 82 81  1  0
 83 82  2  0
 86 85  1  0
 88 86  1  0
 88 89  1  0
 88 87  1  0
 90 91  1  0
M  ISO  4   7 100  15 100  48 101  49 101
M  END
>  <TORSDO>  (60) 
F 20

>  <SCORE>  (60) 
-12.864

>  <name>  (60) 
59

>  <ligand_id>  (60) 
59

>  <original_smiles>  (60) 
[H]c1c([H])c([H])c2c(c1[H])C([H])([H])C([H])([H])C([H])([H])C2([H])N([H])C(=O)C1([H])N(C(=O)C([H])(N([H])C(=O)C([H])(N([H])C([H])([H])[H])C([H])([H])[H])C(C([H])([H])[H])(C([H])([H])[H])C([H])([H])[H])C([H])([H])c2c([H])c(OC([H])([H])C([H])([H])N(c3c([H])c([H])c(N([H])C(=O)N4C([H])([H])C([H])([H])C([H])([H])C([H])(n5nc(-c6c([H])c([H])c(Oc7c([H])c([H])c(F)c([H])c7F)c([H])c6[H])c(C(=O)N([H])[H])c5N([H])[H])C4([H])[H])c(OC([H])([H])[H])c3[H])C([H])([H])[H])c([H])c([H])c2C1([H])[H]

>  <smiles>  (60) 
[H]c1c([H])c([H])c2c(c1[H])C([H])([H])C([H])([H])C([H])([H])C2([H])N([H])C(=O)C1([H])N(C(=O)C([H])(N([H])C(=O)C([H])(N([H])C([H])([H])[H])C([H])([H])[H])C(C([H])([H])[H])(C([H])([H])[H])C([H])([H])[H])C([H])([H])c2c([H])c(OC([H])([H])C([H])([H])N(c3c([H])c([H])c(N([H])C(=O)N4C([H])([H])C([H])([H])C([H])([H])C([H])(n5nc(-c6c([H])c([H])c(Oc7c([H])c([H])c(F)c([H])c7F)c([H])c6[H])c(C(=O)N([H])[H])c5N([H])[H])C4([H])[H])c(OC([H])([H])[H])c3[H])C([H])([H])[H])c([H])c([H])c2C1([H])[H]

$$$$
60:0:0
     RDKit          3D

 99107  0  0  1  0  0  0  0  0999 V2000
  -33.2540  -19.8590   22.3680 C   0  0  0  0  0  0  0  0  0  0  0  0
  -32.2390  -19.1310   22.8480 N   0  0  0  0  0  0  0  0  0  0  0  0
  -33.3480  -21.0450   22.9710 N   0  0  0  0  0  0  0  0  0  0  0  0
  -34.0230  -19.4990   21.4740 O   0  0  0  0  0  0  0  0  0  0  0  0
  -31.8050  -19.4780   23.6890 H   0  0  0  0  0  0  0  0  0  0  0  0
  -32.7020  -21.2500   23.7220 H   0  0  0  0  0  0  0  0  0  0  0  0
  -30.3150  -15.9550   22.6670 C   0  0  0  0  0  3  0  0  0  0  0  0
  -30.9060  -16.5980   20.3940 C   0  0  0  0  0  3  0  0  0  0  0  0
  -30.9700  -17.0980   23.1600 C   0  0  0  0  0  3  0  0  0  0  0  0
  -31.5640  -17.7390   20.8870 C   0  0  0  0  0  3  0  0  0  0  0  0
  -30.2960  -15.6830   21.2840 C   0  0  0  0  0  0  0  0  0  0  0  0
  -31.6160  -17.9900   22.2780 C   0  0  0  0  0  0  0  0  0  0  0  0
  -29.8470  -13.8040   19.7290 C   0  0  0  0  0  0  0  0  0  0  0  0
  -29.5410  -11.5930   18.6860 C   0  0  0  0  0  2  0  0  0  0  0  0
  -28.4510  -11.5970   17.6010 C   0  0  0  0  0  2  0  0  0  0  0  0
  -27.0660  -11.3470   18.2240 C   0  0  0  0  0  2  0  0  0  0  0  0
  -26.7870  -12.2750   19.4340 C   0  0  0  0  0  3  0  0  0  0  0  0
  -27.9720  -12.2670   20.4240 C   0  0  0  0  0  2  0  0  0  0  0  0
  -29.2070  -12.6090   19.6920 N   0  0  0  0  0  0  0  0  0  0  0  0
  -30.6610  -14.1560   18.8680 O   0  0  0  0  0  0  0  0  0  0  0  0
  -29.6300  -14.5100   20.8490 N   0  0  0  0  0  0  0  0  0  0  0  0
  -29.0390  -14.0500   21.5250 H   0  0  0  0  0  0  0  0  0  0  0  0
  -24.4930  -12.7380   20.5150 C   0  0  0  0  0  0  0  0  0  0  0  0
  -23.5290  -11.8990   21.0090 C   0  0  0  0  0  0  0  0  0  0  0  0
  -24.0420  -10.5750   20.8550 C   0  0  0  0  0  0  0  0  0  0  0  0
  -25.5320  -11.9180   20.0960 N   0  0  0  0  0  0  0  0  0  0  0  0
  -25.2700  -10.6110   20.3550 N   0  0  0  0  0  0  0  0  0  0  0  0
  -23.4120   -9.2700   21.1020 C   0  0  0  0  0  0  0  0  0  0  0  0
  -23.9410   -8.3620   22.0450 C   0  0  0  0  0  3  0  0  0  0  0  0
  -23.3060   -7.1220   22.2780 C   0  0  0  0  0  3  0  0  0  0  0  0
  -22.1330   -6.7810   21.5670 C   0  0  0  0  0  0  0  0  0  0  0  0
  -21.6240   -7.6790   20.6110 C   0  0  0  0  0  3  0  0  0  0  0  0
  -22.2590   -8.9110   20.3780 C   0  0  0  0  0  3  0  0  0  0  0  0
  -21.4650   -5.5890   21.7070 O   0  0  0  0  0  0  0  0  0  0  0  0
  -21.4030   -4.9360   22.9110 C   0  0  0  0  0  0  0  0  0  0  0  0
  -20.8660   -5.5480   24.0640 C   0  0  0  0  0  3  0  0  0  0  0  0
  -20.7590   -4.8160   25.2640 C   0  0  0  0  0  3  0  0  0  0  0  0
  -21.1780   -3.4740   25.3110 C   0  0  0  0  0  0  0  0  0  0  0  0
  -21.7080   -2.8610   24.1630 C   0  0  0  0  0  3  0  0  0  0  0  0
  -21.8170   -3.5890   22.9650 C   0  0  0  0  0  0  0  0  0  0  0  0
  -22.3090   -2.9870   21.8550 F   0  0  0  0  0  0  0  0  0  0  0  0
  -21.0670   -2.7680   26.4620 F   0  0  0  0  0  0  0  0  0  0  0  0
  -22.1690  -12.2930   21.5070 C   0  0  0  0  0  0  0  0  0  0  0  0
  -21.6230  -11.5450   22.4600 N   0  0  0  0  0  0  0  0  0  0  0  0
  -21.6020  -13.3000   21.0850 O   0  0  0  0  0  0  0  0  0  0  0  0
  -22.0980  -10.7320   22.8210 H   0  0  0  0  0  0  0  0  0  0  0  0
  -20.7170  -11.7900   22.8320 H   0  0  0  0  0  0  0  0  0  0  0  0
  -24.5660  -14.1190   20.3710 N   0  0  0  0  0  0  0  0  0  0  0  0
  -23.7980  -14.7330   20.6230 H   0  0  0  0  0  0  0  0  0  0  0  0
  -25.3480  -14.6120   19.9570 H   0  0  0  0  0  0  0  0  0  0  0  0
  -34.2040  -22.1470   22.5380 C   0  0  0  0  0  2  0  0  0  0  0  0
  -33.9000  -22.5810   21.0880 C   0  0  0  0  0  2  0  0  0  0  0  0
  -32.5260  -22.0940   20.5980 C   0  0  0  0  0  2  0  0  0  0  0  0
  -31.9650  -22.9130   19.4290 C   0  0  0  0  0  2  0  0  0  0  0  0
  -30.4350  -22.8070   19.3790 C   0  0  0  0  0  2  0  0  0  0  0  0
  -29.7240  -24.1640   19.3860 C   0  0  0  0  0  2  0  0  0  0  0  0
  -29.0840  -24.5590   18.0460 C   0  0  0  0  0  2  0  0  0  0  0  0
  -28.6800  -26.0360   18.0690 C   0  0  0  0  0  2  0  0  0  0  0  0
  -27.4480  -26.2320   17.3750 O   0  0  0  0  0  0  0  0  0  0  0  0
  -25.4700  -29.9760   23.1010 C   0  0  0  0  0  0  0  0  0  0  0  0
  -26.5680  -27.1250   17.9440 C   0  0  0  0  0  0  0  0  0  0  0  0
  -23.8060  -29.8400   21.2720 C   0  0  0  0  0  3  0  0  0  0  0  0
  -24.6660  -28.8890   19.0660 C   0  0  0  0  0  0  0  0  0  0  0  0
  -26.3070  -29.7030   20.7750 C   0  0  0  0  0  2  0  0  0  0  0  0
  -25.9580  -28.8280   19.5950 C   0  0  0  0  0  0  0  0  0  0  0  0
  -26.9140  -27.9650   19.0300 C   0  0  0  0  0  3  0  0  0  0  0  0
  -25.2630  -27.2010   17.4150 C   0  0  0  0  0  3  0  0  0  0  0  0
  -24.3090  -28.0750   17.9730 C   0  0  0  0  0  3  0  0  0  0  0  0
  -23.7160  -29.8660   19.7210 C   0  0  0  0  0  2  0  0  0  0  0  0
  -25.2190  -29.8190   21.7700 N   0  0  0  0  0  0  0  0  0  0  0  0
  -24.5510  -30.1850   23.9050 O   0  0  0  0  0  0  0  0  0  0  0  0
  -22.9570  -28.6570   21.7880 C   0  0  0  0  0  0  0  0  0  0  0  0
  -21.6260  -28.8330   21.7790 N   0  0  0  0  0  0  0  0  0  0  0  0
  -23.4890  -27.6070   22.1560 O   0  0  0  0  0  0  0  0  0  0  0  0
  -21.2690  -29.7250   21.4630 H   0  0  0  0  0  0  0  0  0  0  0  0
  -18.0750  -28.2450   22.0680 C   0  0  0  0  0  0  0  0  0  0  0  0
  -20.6260  -27.8470   22.1820 C   0  0  0  0  0  3  0  0  0  0  0  0
  -20.4100  -26.7930   21.0720 C   0  0  0  0  0  2  0  0  0  0  0  0
  -19.2620  -27.1450   20.1210 C   0  0  0  0  0  2  0  0  0  0  0  0
  -17.9480  -27.2880   20.8940 C   0  0  0  0  0  2  0  0  0  0  0  0
  -19.3350  -28.5180   22.6630 C   0  0  0  0  0  0  0  0  0  0  0  0
  -19.4030  -29.4410   23.7290 C   0  0  0  0  0  3  0  0  0  0  0  0
  -18.2440  -30.0820   24.2020 C   0  0  0  0  0  3  0  0  0  0  0  0
  -16.9970  -29.7970   23.6190 C   0  0  0  0  0  3  0  0  0  0  0  0
  -16.9140  -28.8770   22.5590 C   0  0  0  0  0  3  0  0  0  0  0  0
  -26.9230  -29.9230   23.6730 C   0  0  0  0  0  3  0  0  0  0  0  0
  -27.3310  -28.4980   24.2120 C   0  0  1  0  0  0  0  0  0  0  0  0
  -26.2930  -27.8790   25.1750 C   0  0  0  0  0  1  0  0  0  0  0  0
  -27.5300  -27.5090   23.0380 C   0  0  0  0  0  1  0  0  0  0  0  0
  -28.6860  -28.5840   24.9550 C   0  0  0  0  0  1  0  0  0  0  0  0
  -27.0160  -30.9280   24.7410 N   0  0  0  0  0  0  0  0  0  0  0  0
  -27.6560  -32.0990   24.6260 C   0  0  0  0  0  0  0  0  0  0  0  0
  -28.3000  -32.4140   23.6220 O   0  0  0  0  0  0  0  0  0  0  0  0
  -26.4730  -30.7570   25.5750 H   0  0  0  0  0  0  0  0  0  0  0  0
  -26.5360  -34.1690   25.4930 C   0  0  0  0  0  1  0  0  0  0  0  0
  -27.5670  -33.0760   25.8130 C   0  0  0  0  0  3  0  0  0  0  0  0
  -29.8170  -32.7450   26.7360 C   0  0  0  0  0  1  0  0  0  0  0  0
  -28.8640  -33.6940   26.1650 N   0  0  0  0  0  0  0  0  0  0  0  0
  -28.7340  -34.4530   26.8290 H   0  0  0  0  0  0  0  0  0  0  0  0
  1  2  1  0
  1  3  1  0
  2  5  1  0
  3  6  1  0
  4  1  2  0
  7  9  1  0
  8 10  2  0
  8 11  1  0
 10 12  1  0
 11  7  2  0
 12  2  1  0
 12  9  2  0
 13 21  1  0
 14 19  1  0
 15 16  1  0
 15 14  1  0
 17 16  1  0
 17 26  1  0
 17 18  1  0
 19 13  1  0
 19 18  1  0
 20 13  2  0
 21 11  1  0
 21 22  1  0
 23 24  2  0
 24 43  1  0
 25 24  1  0
 25 28  1  0
 26 27  1  0
 26 23  1  0
 27 25  2  0
 28 29  1  0
 29 30  2  0
 31 34  1  0
 31 30  1  0
 32 31  2  0
 33 32  1  0
 33 28  2  0
 34 35  1  0
 35 40  2  0
 35 36  1  0
 36 37  2  0
 37 38  1  0
 38 42  1  0
 39 38  2  0
 40 39  1  0
 41 40  1  0
 43 44  1  0
 44 46  1  0
 44 47  1  0
 45 43  2  0
 48 23  1  0
 48 49  1  0
 50 48  1  0
 51  3  1  0
 52 51  1  0
 53 52  1  0
 54 53  1  0
 55 56  1  0
 55 54  1  0
 57 58  1  0
 57 56  1  0
 59 61  1  0
 59 58  1  0
 60 71  2  0
 61 66  1  0
 62 70  1  0
 62 72  1  0
 63 65  1  0
 63 69  1  0
 64 70  1  0
 65 64  1  0
 66 65  2  0
 67 61  2  0
 67 68  1  0
 68 63  2  0
 69 62  1  0
 70 60  1  0
 72 74  2  0
 73 72  1  0
 75 73  1  0
 76 85  2  0
 76 81  1  0
 77 73  1  0
 77 81  1  0
 78 77  1  0
 79 80  1  0
 79 78  1  0
 80 76  1  0
 81 82  2  0
 82 83  1  0
 84 83  2  0
 85 84  1  0
 86 60  1  0
 86 87  1  0
 86 91  1  0
 87 90  1  1
 87 88  1  0
 89 87  1  0
 91 94  1  0
 92 91  1  0
 92 96  1  0
 93 92  2  0
 96 95  1  0
 96 98  1  0
 98 97  1  0
 98 99  1  0
M  ISO  4  13 100  21 100  58 101  59 101
M  END
>  <TORSDO>  (61) 
F 25

>  <SCORE>  (61) 
-2.955

>  <name>  (61) 
60

>  <ligand_id>  (61) 
60

>  <original_smiles>  (61) 
[H]c1c([H])c([H])c2c(c1[H])C([H])([H])C([H])([H])C([H])([H])C2([H])N([H])C(=O)C1([H])N(C(=O)C([H])(N([H])C(=O)C([H])(N([H])C([H])([H])[H])C([H])([H])[H])C(C([H])([H])[H])(C([H])([H])[H])C([H])([H])[H])C([H])([H])c2c([H])c(OC([H])([H])C([H])([H])C([H])([H])C([H])([H])C([H])([H])C([H])([H])C([H])([H])C([H])([H])N([H])C(=O)N([H])c3c([H])c([H])c(N([H])C(=O)N4C([H])([H])C([H])([H])C([H])([H])C([H])(n5nc(-c6c([H])c([H])c(Oc7c([H])c([H])c(F)c([H])c7F)c([H])c6[H])c(C(=O)N([H])[H])c5N([H])[H])C4([H])[H])c([H])c3[H])c([H])c([H])c2C1([H])[H]

>  <smiles>  (61) 
[H]c1c([H])c([H])c2c(c1[H])C([H])([H])C([H])([H])C([H])([H])C2([H])N([H])C(=O)C1([H])N(C(=O)C([H])(N([H])C(=O)C([H])(N([H])C([H])([H])[H])C([H])([H])[H])C(C([H])([H])[H])(C([H])([H])[H])C([H])([H])[H])C([H])([H])c2c([H])c(OC([H])([H])C([H])([H])C([H])([H])C([H])([H])C([H])([H])C([H])([H])C([H])([H])C([H])([H])N([H])C(=O)N([H])c3c([H])c([H])c(N([H])C(=O)N4C([H])([H])C([H])([H])C([H])([H])C([H])(n5nc(-c6c([H])c([H])c(Oc7c([H])c([H])c(F)c([H])c7F)c([H])c6[H])c(C(=O)N([H])[H])c5N([H])[H])C4([H])[H])c([H])c3[H])c([H])c([H])c2C1([H])[H]

$$$$
61:0:0
     RDKit          3D

 91 99  0  0  1  0  0  0  0  0999 V2000
  -28.1920  -23.1110   20.2470 C   0  0  0  0  0  0  0  0  0  0  0  0
  -30.4120  -22.4310   21.0090 C   0  0  0  0  0  1  0  0  0  0  0  0
  -29.1220  -22.0100   20.4720 N   0  0  0  0  0  0  0  0  0  0  0  0
  -26.9950  -22.8730   20.4330 O   0  0  0  0  0  0  0  0  0  0  0  0
  -28.7600  -18.8970   18.2620 C   0  0  0  0  0  3  0  0  0  0  0  0
  -28.6600  -20.1880   18.8220 C   0  0  0  0  0  3  0  0  0  0  0  0
  -29.4670  -19.2130   20.8880 C   0  0  0  0  0  3  0  0  0  0  0  0
  -29.2030  -17.7480   18.9670 C   0  0  0  0  0  0  0  0  0  0  0  0
  -29.0460  -20.4700   20.1450 C   0  0  0  0  0  0  0  0  0  0  0  0
  -29.5460  -17.7930   20.3500 C   0  0  0  0  0  0  0  0  0  0  0  0
  -29.2480  -16.4560   18.1670 C   0  0  0  0  0  1  0  0  0  0  0  0
  -30.5160  -15.1980   20.9260 C   0  0  0  0  0  0  0  0  0  0  0  0
  -30.5730  -12.7490   20.1910 C   0  0  0  0  0  2  0  0  0  0  0  0
  -29.7860  -12.5660   18.8710 C   0  0  0  0  0  2  0  0  0  0  0  0
  -28.2930  -12.3280   19.1590 C   0  0  0  0  0  2  0  0  0  0  0  0
  -27.7370  -13.3090   20.2230 C   0  0  0  0  0  3  0  0  0  0  0  0
  -28.6640  -13.4560   21.4480 C   0  0  0  0  0  2  0  0  0  0  0  0
  -29.9740  -13.8980   20.9490 N   0  0  0  0  0  0  0  0  0  0  0  0
  -31.7310  -15.2520   20.6940 O   0  0  0  0  0  0  0  0  0  0  0  0
  -29.7230  -16.4050   21.0790 N   0  0  0  0  0  0  0  0  0  0  0  0
  -28.8940  -16.1770   21.6060 H   0  0  0  0  0  0  0  0  0  0  0  0
  -25.2930  -13.8770   20.6970 C   0  0  0  0  0  0  0  0  0  0  0  0
  -24.2030  -13.1010   20.9780 C   0  0  0  0  0  0  0  0  0  0  0  0
  -24.6800  -11.7550   21.0340 C   0  0  0  0  0  0  0  0  0  0  0  0
  -26.3610  -13.0040   20.5910 N   0  0  0  0  0  0  0  0  0  0  0  0
  -25.9970  -11.7240   20.8590 N   0  0  0  0  0  0  0  0  0  0  0  0
  -23.9490  -10.4900   21.1850 C   0  0  0  0  0  0  0  0  0  0  0  0
  -24.3180   -9.5350   22.1570 C   0  0  0  0  0  3  0  0  0  0  0  0
  -23.5850   -8.3360   22.2960 C   0  0  0  0  0  3  0  0  0  0  0  0
  -22.4700   -8.0850   21.4620 C   0  0  0  0  0  0  0  0  0  0  0  0
  -22.1210   -9.0290   20.4800 C   0  0  0  0  0  3  0  0  0  0  0  0
  -22.8550  -10.2190   20.3390 C   0  0  0  0  0  3  0  0  0  0  0  0
  -21.7150   -6.9380   21.5090 O   0  0  0  0  0  0  0  0  0  0  0  0
  -21.6120   -6.1910   22.6540 C   0  0  0  0  0  0  0  0  0  0  0  0
  -21.1380   -6.7440   23.8650 C   0  0  0  0  0  3  0  0  0  0  0  0
  -20.9800   -5.9250   25.0000 C   0  0  0  0  0  3  0  0  0  0  0  0
  -21.2860   -4.5530   24.9260 C   0  0  0  0  0  0  0  0  0  0  0  0
  -21.7520   -3.9980   23.7210 C   0  0  0  0  0  3  0  0  0  0  0  0
  -21.9110   -4.8150   22.5870 C   0  0  0  0  0  0  0  0  0  0  0  0
  -22.3400   -4.2720   21.4230 F   0  0  0  0  0  0  0  0  0  0  0  0
  -21.1270   -3.7630   26.0140 F   0  0  0  0  0  0  0  0  0  0  0  0
  -22.7820  -13.5710   21.0890 C   0  0  0  0  0  0  0  0  0  0  0  0
  -21.9760  -12.8980   21.9030 N   0  0  0  0  0  0  0  0  0  0  0  0
  -22.3910  -14.5710   20.4880 O   0  0  0  0  0  0  0  0  0  0  0  0
  -22.3030  -12.0900   22.4120 H   0  0  0  0  0  0  0  0  0  0  0  0
  -21.0180  -13.1970   22.0200 H   0  0  0  0  0  0  0  0  0  0  0  0
  -25.4610  -15.2450   20.4970 N   0  0  0  0  0  0  0  0  0  0  0  0
  -24.6770  -15.8900   20.5080 H   0  0  0  0  0  0  0  0  0  0  0  0
  -26.3310  -15.6870   20.2330 H   0  0  0  0  0  0  0  0  0  0  0  0
  -28.5050  -24.6790   19.6580 C   0  0  0  0  0  2  0  0  0  0  0  0
  -28.2720  -26.1070   20.3180 O   0  0  0  0  0  0  0  0  0  0  0  0
  -24.6470  -31.9030   23.1360 C   0  0  0  0  0  0  0  0  0  0  0  0
  -27.2280  -27.1120   20.1390 C   0  0  0  0  0  0  0  0  0  0  0  0
  -23.4450  -30.4810   21.5180 C   0  0  0  0  0  3  0  0  0  0  0  0
  -24.8950  -28.8880   20.0910 C   0  0  0  0  0  0  0  0  0  0  0  0
  -25.9990  -30.7400   21.3430 C   0  0  0  0  0  2  0  0  0  0  0  0
  -26.0730  -29.3350   20.7000 C   0  0  0  0  0  0  0  0  0  0  0  0
  -27.2300  -28.4590   20.7120 C   0  0  0  0  0  3  0  0  0  0  0  0
  -26.0280  -26.7830   19.4740 C   0  0  0  0  0  3  0  0  0  0  0  0
  -24.8890  -27.6300   19.4620 C   0  0  0  0  0  3  0  0  0  0  0  0
  -23.6630  -29.7850   20.1450 C   0  0  0  0  0  2  0  0  0  0  0  0
  -24.7180  -31.0670   22.0530 N   0  0  0  0  0  0  0  0  0  0  0  0
  -23.5620  -32.1900   23.6670 O   0  0  0  0  0  0  0  0  0  0  0  0
  -22.7730  -29.4880   22.4990 C   0  0  0  0  0  0  0  0  0  0  0  0
  -21.4420  -29.3280   22.3980 N   0  0  0  0  0  0  0  0  0  0  0  0
  -23.4530  -28.8630   23.3170 O   0  0  0  0  0  0  0  0  0  0  0  0
  -20.9470  -29.8830   21.7130 H   0  0  0  0  0  0  0  0  0  0  0  0
  -18.0630  -28.1460   22.9680 C   0  0  0  0  0  0  0  0  0  0  0  0
  -20.6280  -28.3990   23.1880 C   0  0  0  0  0  3  0  0  0  0  0  0
  -20.7120  -26.9630   22.6170 C   0  0  0  0  0  2  0  0  0  0  0  0
  -19.5900  -26.6420   21.6240 C   0  0  0  0  0  2  0  0  0  0  0  0
  -18.2220  -26.7950   22.2910 C   0  0  0  0  0  2  0  0  0  0  0  0
  -19.1920  -28.9050   23.3750 C   0  0  0  0  0  0  0  0  0  0  0  0
  -18.9870  -30.1690   23.9710 C   0  0  0  0  0  3  0  0  0  0  0  0
  -17.6870  -30.6720   24.1630 C   0  0  0  0  0  3  0  0  0  0  0  0
  -16.5730  -29.9100   23.7710 C   0  0  0  0  0  3  0  0  0  0  0  0
  -16.7620  -28.6490   23.1790 C   0  0  0  0  0  3  0  0  0  0  0  0
  -25.9230  -32.5550   23.7500 C   0  0  0  0  0  3  0  0  0  0  0  0
  -25.5910  -33.9430   24.1130 N   0  0  0  0  0  0  0  0  0  0  0  0
  -25.9050  -35.0220   23.3840 C   0  0  0  0  0  0  0  0  0  0  0  0
  -26.5710  -34.9540   22.3470 O   0  0  0  0  0  0  0  0  0  0  0  0
  -24.9970  -34.0680   24.9190 H   0  0  0  0  0  0  0  0  0  0  0  0
  -24.1570  -36.8100   23.0880 C   0  0  0  0  0  1  0  0  0  0  0  0
  -25.4060  -36.3940   23.8810 C   0  0  0  0  0  3  0  0  0  0  0  0
  -27.5350  -37.2800   24.7270 C   0  0  0  0  0  1  0  0  0  0  0  0
  -26.4260  -37.4620   23.7940 N   0  0  0  0  0  0  0  0  0  0  0  0
  -26.0110  -38.3720   23.9690 H   0  0  0  0  0  0  0  0  0  0  0  0
  -26.4700  -31.7790   25.0130 C   0  0  1  0  0  0  0  0  0  0  0  0
  -25.3980  -31.5180   26.0970 C   0  0  0  0  0  1  0  0  0  0  0  0
  -27.0650  -30.4120   24.6040 C   0  0  0  0  0  1  0  0  0  0  0  0
  -27.6210  -32.5820   25.6640 C   0  0  0  0  0  1  0  0  0  0  0  0
  1  4  2  0
  1  3  1  0
  3  2  1  0
  5  6  2  0
  5  8  1  0
  6  9  1  0
  8 10  2  0
  9  3  1  0
  9  7  2  0
 10  7  1  0
 10 20  1  0
 11  8  1  0
 12 18  1  0
 12 20  1  0
 13 18  1  0
 14 15  1  0
 14 13  1  0
 16 15  1  0
 16 25  1  0
 16 17  1  0
 18 17  1  0
 19 12  2  0
 20 21  1  0
 22 23  2  0
 23 24  1  0
 23 42  1  0
 24 27  1  0
 25 22  1  0
 25 26  1  0
 26 24  2  0
 27 28  1  0
 28 29  2  0
 30 33  1  0
 30 29  1  0
 31 30  2  0
 32 31  1  0
 32 27  2  0
 33 34  1  0
 34 35  1  0
 35 36  2  0
 37 36  1  0
 37 41  1  0
 38 37  2  0
 39 34  2  0
 39 38  1  0
 40 39  1  0
 42 43  1  0
 43 46  1  0
 43 45  1  0
 44 42  2  0
 47 48  1  0
 47 22  1  0
 49 47  1  0
 50  1  1  0
 50 51  1  0
 52 63  2  0
 53 51  1  0
 53 58  1  0
 54 62  1  0
 54 64  1  0
 55 61  1  0
 55 57  1  0
 56 62  1  0
 57 58  2  0
 57 56  1  0
 59 53  2  0
 60 59  1  0
 60 55  2  0
 61 54  1  0
 62 52  1  0
 64 66  2  0
 65 64  1  0
 67 65  1  0
 68 77  2  0
 68 73  1  0
 69 65  1  0
 69 73  1  0
 70 69  1  0
 71 72  1  0
 71 70  1  0
 72 68  1  0
 73 74  2  0
 74 75  1  0
 76 75  2  0
 77 76  1  0
 78 52  1  0
 78 79  1  0
 78 88  1  0
 79 82  1  0
 80 84  1  0
 80 79  1  0
 81 80  2  0
 84 83  1  0
 86 84  1  0
 86 87  1  0
 86 85  1  0
 88 91  1  1
 88 89  1  0
 90 88  1  0
M  ISO  4  12 100  20 100  50 101  51 101
M  END
>  <TORSDO>  (62) 
F 18

>  <SCORE>  (62) 
-14.377

>  <name>  (62) 
61

>  <ligand_id>  (62) 
61

>  <original_smiles>  (62) 
[H]c1c([H])c([H])c2c(c1[H])C([H])([H])C([H])([H])C([H])([H])C2([H])N([H])C(=O)C1([H])N(C(=O)C([H])(N([H])C(=O)C([H])(N([H])C([H])([H])[H])C([H])([H])[H])C(C([H])([H])[H])(C([H])([H])[H])C([H])([H])[H])C([H])([H])c2c([H])c(OC([H])([H])C(=O)N(c3c([H])c([H])c(C([H])([H])[H])c(N([H])C(=O)N4C([H])([H])C([H])([H])C([H])([H])C([H])(n5nc(-c6c([H])c([H])c(Oc7c([H])c([H])c(F)c([H])c7F)c([H])c6[H])c(C(=O)N([H])[H])c5N([H])[H])C4([H])[H])c3[H])C([H])([H])[H])c([H])c([H])c2C1([H])[H]

>  <smiles>  (62) 
[H]c1c([H])c([H])c2c(c1[H])C([H])([H])C([H])([H])C([H])([H])C2([H])N([H])C(=O)C1([H])N(C(=O)C([H])(N([H])C(=O)C([H])(N([H])C([H])([H])[H])C([H])([H])[H])C(C([H])([H])[H])(C([H])([H])[H])C([H])([H])[H])C([H])([H])c2c([H])c(OC([H])([H])C(=O)N(c3c([H])c([H])c(C([H])([H])[H])c(N([H])C(=O)N4C([H])([H])C([H])([H])C([H])([H])C([H])(n5nc(-c6c([H])c([H])c(Oc7c([H])c([H])c(F)c([H])c7F)c([H])c6[H])c(C(=O)N([H])[H])c5N([H])[H])C4([H])[H])c3[H])C([H])([H])[H])c([H])c([H])c2C1([H])[H]

$$$$
62:0:0
     RDKit          3D

 92100  0  0  1  0  0  0  0  0999 V2000
  -30.7340  -18.5160   19.8030 C   0  0  0  0  0  3  0  0  0  0  0  0
  -30.4690  -19.9520   19.6500 C   0  0  0  0  0  3  0  0  0  0  0  0
  -28.4140  -18.1030   19.7460 C   0  0  0  0  0  3  0  0  0  0  0  0
  -29.7090  -17.5010   19.8430 C   0  0  0  0  0  0  0  0  0  0  0  0
  -29.1520  -20.5310   19.5350 C   0  0  0  0  0  0  0  0  0  0  0  0
  -28.1350  -19.5240   19.6210 C   0  0  0  0  0  0  0  0  0  0  0  0
  -30.6060  -14.8670   19.6150 C   0  0  0  0  0  0  0  0  0  0  0  0
  -30.4150  -12.5040   18.7150 C   0  0  0  0  0  2  0  0  0  0  0  0
  -29.3660  -12.4690   17.5790 C   0  0  0  0  0  2  0  0  0  0  0  0
  -27.9430  -12.2790   18.1450 C   0  0  0  0  0  2  0  0  0  0  0  0
  -27.6590  -13.2160   19.3480 C   0  0  0  0  0  3  0  0  0  0  0  0
  -28.8160  -13.2030   20.3720 C   0  0  0  0  0  2  0  0  0  0  0  0
  -30.0390  -13.5970   19.6550 N   0  0  0  0  0  0  0  0  0  0  0  0
  -31.7540  -14.9810   19.1690 O   0  0  0  0  0  0  0  0  0  0  0  0
  -29.7790  -15.9700   19.9400 N   0  0  0  0  0  0  0  0  0  0  0  0
  -28.9250  -15.5960   20.3210 H   0  0  0  0  0  0  0  0  0  0  0  0
  -25.3860  -13.8430   20.3510 C   0  0  0  0  0  0  0  0  0  0  0  0
  -24.3400  -13.0870   20.8060 C   0  0  0  0  0  0  0  0  0  0  0  0
  -24.7530  -11.7250   20.6770 C   0  0  0  0  0  0  0  0  0  0  0  0
  -26.3680  -12.9420   19.9690 N   0  0  0  0  0  0  0  0  0  0  0  0
  -26.0010  -11.6600   20.2300 N   0  0  0  0  0  0  0  0  0  0  0  0
  -24.0070  -10.4780   20.8990 C   0  0  0  0  0  0  0  0  0  0  0  0
  -24.4760   -9.4830   21.7850 C   0  0  0  0  0  3  0  0  0  0  0  0
  -23.7300   -8.3030   21.9960 C   0  0  0  0  0  3  0  0  0  0  0  0
  -22.5020   -8.1090   21.3220 C   0  0  0  0  0  0  0  0  0  0  0  0
  -22.0490   -9.0920   20.4260 C   0  0  0  0  0  3  0  0  0  0  0  0
  -22.7940  -10.2640   20.2120 C   0  0  0  0  0  3  0  0  0  0  0  0
  -21.7250   -6.9820   21.4440 O   0  0  0  0  0  0  0  0  0  0  0  0
  -21.6950   -6.2500   22.6040 C   0  0  0  0  0  0  0  0  0  0  0  0
  -21.3230   -6.8260   23.8380 C   0  0  0  0  0  3  0  0  0  0  0  0
  -21.2370   -6.0240   24.9930 C   0  0  0  0  0  3  0  0  0  0  0  0
  -21.5140   -4.6460   24.9160 C   0  0  0  0  0  0  0  0  0  0  0  0
  -21.8790   -4.0690   23.6870 C   0  0  0  0  0  3  0  0  0  0  0  0
  -21.9660   -4.8690   22.5330 C   0  0  0  0  0  0  0  0  0  0  0  0
  -22.2980   -4.3030   21.3480 F   0  0  0  0  0  0  0  0  0  0  0  0
  -21.4240   -3.8730   26.0240 F   0  0  0  0  0  0  0  0  0  0  0  0
  -22.9950  -13.5960   21.2360 C   0  0  0  0  0  0  0  0  0  0  0  0
  -22.3450  -12.9080   22.1650 N   0  0  0  0  0  0  0  0  0  0  0  0
  -22.5340  -14.6410   20.7800 O   0  0  0  0  0  0  0  0  0  0  0  0
  -22.7290  -12.0610   22.5570 H   0  0  0  0  0  0  0  0  0  0  0  0
  -21.4460  -13.2340   22.4920 H   0  0  0  0  0  0  0  0  0  0  0  0
  -25.5760  -15.2140   20.2020 N   0  0  0  0  0  0  0  0  0  0  0  0
  -24.8310  -15.8740   20.3970 H   0  0  0  0  0  0  0  0  0  0  0  0
  -26.3520  -15.6310   19.7060 H   0  0  0  0  0  0  0  0  0  0  0  0
  -29.1790  -23.3010   19.2400 C   0  0  0  0  0  0  0  0  0  0  0  0
  -28.6920  -21.9710   19.2750 N   0  0  0  0  0  0  0  0  0  0  0  0
  -30.3500  -23.5420   19.5440 O   0  0  0  0  0  0  0  0  0  0  0  0
  -27.6980  -21.9800   19.0880 H   0  0  0  0  0  0  0  0  0  0  0  0
  -28.2070  -24.5600   18.7690 C   0  0  0  0  0  2  0  0  0  0  0  0
  -28.5080  -26.0750   18.9780 O   0  0  0  0  0  0  0  0  0  0  0  0
  -24.6520  -31.1640   22.6840 C   0  0  0  0  0  0  0  0  0  0  0  0
  -27.4120  -27.0160   19.0490 C   0  0  0  0  0  0  0  0  0  0  0  0
  -23.4980  -29.9350   20.8880 C   0  0  0  0  0  3  0  0  0  0  0  0
  -25.0020  -28.6360   19.2590 C   0  0  0  0  0  0  0  0  0  0  0  0
  -26.0340  -30.3420   20.7410 C   0  0  0  0  0  2  0  0  0  0  0  0
  -26.1670  -29.0520   19.9160 C   0  0  0  0  0  0  0  0  0  0  0  0
  -27.3700  -28.2580   19.8010 C   0  0  0  0  0  3  0  0  0  0  0  0
  -26.2160  -26.7150   18.3570 C   0  0  0  0  0  3  0  0  0  0  0  0
  -25.0390  -27.4830   18.4640 C   0  0  0  0  0  3  0  0  0  0  0  0
  -23.7320  -29.4550   19.4300 C   0  0  0  0  0  2  0  0  0  0  0  0
  -24.7480  -30.4950   21.4940 N   0  0  0  0  0  0  0  0  0  0  0  0
  -23.5610  -31.3270   23.2500 O   0  0  0  0  0  0  0  0  0  0  0  0
  -22.8810  -28.7770   21.7130 C   0  0  0  0  0  0  0  0  0  0  0  0
  -21.5530  -28.5930   21.6130 N   0  0  0  0  0  0  0  0  0  0  0  0
  -23.6000  -28.0540   22.4080 O   0  0  0  0  0  0  0  0  0  0  0  0
  -21.0280  -29.2330   21.0340 H   0  0  0  0  0  0  0  0  0  0  0  0
  -18.2090  -27.2980   22.1330 C   0  0  0  0  0  0  0  0  0  0  0  0
  -20.7820  -27.5340   22.2690 C   0  0  0  0  0  3  0  0  0  0  0  0
  -20.8390  -26.2180   21.4560 C   0  0  0  0  0  2  0  0  0  0  0  0
  -19.6700  -26.0610   20.4790 C   0  0  0  0  0  2  0  0  0  0  0  0
  -18.3350  -26.0830   21.2280 C   0  0  0  0  0  2  0  0  0  0  0  0
  -19.3560  -27.9890   22.6070 C   0  0  0  0  0  0  0  0  0  0  0  0
  -19.1790  -29.1310   23.4170 C   0  0  0  0  0  3  0  0  0  0  0  0
  -17.8900  -29.5830   23.7540 C   0  0  0  0  0  3  0  0  0  0  0  0
  -16.7580  -28.8870   23.2910 C   0  0  0  0  0  3  0  0  0  0  0  0
  -16.9200  -27.7470   22.4860 C   0  0  0  0  0  3  0  0  0  0  0  0
  -25.9080  -31.7740   23.3780 C   0  0  0  0  0  3  0  0  0  0  0  0
  -26.4920  -30.8540   24.5210 C   0  0  1  0  0  0  0  0  0  0  0  0
  -25.4360  -30.4050   25.5580 C   0  0  0  0  0  1  0  0  0  0  0  0
  -27.1370  -29.5800   23.9260 C   0  0  0  0  0  1  0  0  0  0  0  0
  -27.6140  -31.6050   25.2750 C   0  0  0  0  0  1  0  0  0  0  0  0
  -25.5260  -33.0870   23.9210 N   0  0  0  0  0  0  0  0  0  0  0  0
  -25.7770  -34.2620   23.3280 C   0  0  0  0  0  0  0  0  0  0  0  0
  -26.4220  -34.3560   22.2810 O   0  0  0  0  0  0  0  0  0  0  0  0
  -24.9490  -33.0830   24.7500 H   0  0  0  0  0  0  0  0  0  0  0  0
  -23.9330  -35.9760   23.2940 C   0  0  0  0  0  1  0  0  0  0  0  0
  -25.2250  -35.5340   24.0010 C   0  0  0  0  0  3  0  0  0  0  0  0
  -27.3320  -36.4250   24.8980 C   0  0  0  0  0  1  0  0  0  0  0  0
  -26.1890  -36.6570   24.0180 N   0  0  0  0  0  0  0  0  0  0  0  0
  -25.7340  -37.5170   24.3090 H   0  0  0  0  0  0  0  0  0  0  0  0
  -25.7570  -19.0970   19.6560 C   0  0  0  0  0  1  0  0  0  0  0  0
  -26.8430  -20.0140   19.5750 O   0  0  0  0  0  0  0  0  0  0  0  0
  1  4  1  0
  2  1  2  0
  3  4  2  0
  4 15  1  0
  5  6  2  0
  5  2  1  0
  6  3  1  0
  7 13  1  0
  7 15  1  0
  8 13  1  0
  9 10  1  0
  9  8  1  0
 11 10  1  0
 11 20  1  0
 11 12  1  0
 13 12  1  0
 14  7  2  0
 15 16  1  0
 17 18  2  0
 18 37  1  0
 19 18  1  0
 19 22  1  0
 20 21  1  0
 20 17  1  0
 21 19  2  0
 22 23  1  0
 23 24  2  0
 25 28  1  0
 25 24  1  0
 26 25  2  0
 27 26  1  0
 27 22  2  0
 28 29  1  0
 29 30  1  0
 30 31  2  0
 32 31  1  0
 32 36  1  0
 33 32  2  0
 34 29  2  0
 34 33  1  0
 35 34  1  0
 37 38  1  0
 38 41  1  0
 38 40  1  0
 39 37  2  0
 42 17  1  0
 42 43  1  0
 44 42  1  0
 45 46  1  0
 45 47  2  0
 46  5  1  0
 48 46  1  0
 49 50  1  0
 49 45  1  0
 50 52  1  0
 51 62  2  0
 52 57  1  0
 53 61  1  0
 53 63  1  0
 54 60  1  0
 54 56  1  0
 55 61  1  0
 56 55  1  0
 57 56  2  0
 58 59  1  0
 58 52  2  0
 59 54  2  0
 60 53  1  0
 61 51  1  0
 63 65  2  0
 64 63  1  0
 66 64  1  0
 67 76  2  0
 67 72  1  0
 68 64  1  0
 68 72  1  0
 69 68  1  0
 70 71  1  0
 70 69  1  0
 71 67  1  0
 72 73  2  0
 73 74  1  0
 75 74  2  0
 76 75  1  0
 77 51  1  0
 77 82  1  0
 77 78  1  0
 78 81  1  1
 78 79  1  0
 80 78  1  0
 82 85  1  0
 83 82  1  0
 83 87  1  0
 84 83  2  0
 87 86  1  0
 87 89  1  0
 89 90  1  0
 89 88  1  0
 92  6  1  0
 92 91  1  0
M  ISO  4   7 100  15 100  49 101  50 101
M  END
>  <TORSDO>  (63) 
F 19

>  <SCORE>  (63) 
-10.675

>  <name>  (63) 
62

>  <ligand_id>  (63) 
62

>  <original_smiles>  (63) 
[H]c1c([H])c([H])c2c(c1[H])C([H])([H])C([H])([H])C([H])([H])C2([H])N([H])C(=O)C1([H])N(C(=O)C([H])(N([H])C(=O)C([H])(N([H])C([H])([H])[H])C([H])([H])[H])C(C([H])([H])[H])(C([H])([H])[H])C([H])([H])[H])C([H])([H])c2c([H])c(OC([H])([H])C(=O)N([H])c3c([H])c([H])c(N([H])C(=O)N4C([H])([H])C([H])([H])C([H])([H])C([H])(n5nc(-c6c([H])c([H])c(Oc7c([H])c([H])c(F)c([H])c7F)c([H])c6[H])c(C(=O)N([H])[H])c5N([H])[H])C4([H])[H])c([H])c3OC([H])([H])[H])c([H])c([H])c2C1([H])[H]

>  <smiles>  (63) 
[H]c1c([H])c([H])c2c(c1[H])C([H])([H])C([H])([H])C([H])([H])C2([H])N([H])C(=O)C1([H])N(C(=O)C([H])(N([H])C(=O)C([H])(N([H])C([H])([H])[H])C([H])([H])[H])C(C([H])([H])[H])(C([H])([H])[H])C([H])([H])[H])C([H])([H])c2c([H])c(OC([H])([H])C(=O)N([H])c3c([H])c([H])c(N([H])C(=O)N4C([H])([H])C([H])([H])C([H])([H])C([H])(n5nc(-c6c([H])c([H])c(Oc7c([H])c([H])c(F)c([H])c7F)c([H])c6[H])c(C(=O)N([H])[H])c5N([H])[H])C4([H])[H])c([H])c3OC([H])([H])[H])c([H])c([H])c2C1([H])[H]

$$$$
63:0:0
     RDKit          3D

 90 98  0  0  1  0  0  0  0  0999 V2000
  -28.9310  -23.4160   20.2220 C   0  0  0  0  0  0  0  0  0  0  0  0
  -28.4630  -22.0840   20.1210 N   0  0  0  0  0  0  0  0  0  0  0  0
  -30.1160  -23.6430   20.4820 O   0  0  0  0  0  0  0  0  0  0  0  0
  -27.4640  -22.1140   19.9670 H   0  0  0  0  0  0  0  0  0  0  0  0
  -27.9860  -19.5960   20.3820 C   0  0  0  0  0  3  0  0  0  0  0  0
  -30.2740  -20.0540   20.0680 C   0  0  0  0  0  3  0  0  0  0  0  0
  -28.2670  -18.1810   20.4180 C   0  0  0  0  0  3  0  0  0  0  0  0
  -30.5590  -18.6110   20.0910 C   0  0  0  0  0  3  0  0  0  0  0  0
  -28.9570  -20.6310   20.2070 C   0  0  0  0  0  0  0  0  0  0  0  0
  -29.5590  -17.5830   20.2670 C   0  0  0  0  0  0  0  0  0  0  0  0
  -30.5130  -14.9770   20.0040 C   0  0  0  0  0  0  0  0  0  0  0  0
  -30.3820  -12.6540   18.9940 C   0  0  0  0  0  2  0  0  0  0  0  0
  -29.3680  -12.6620   17.8240 C   0  0  0  0  0  2  0  0  0  0  0  0
  -27.9300  -12.4380   18.3350 C   0  0  0  0  0  2  0  0  0  0  0  0
  -27.6000  -13.3170   19.5690 C   0  0  0  0  0  3  0  0  0  0  0  0
  -28.7220  -13.2610   20.6290 C   0  0  0  0  0  2  0  0  0  0  0  0
  -29.9630  -13.6970   19.9700 N   0  0  0  0  0  0  0  0  0  0  0  0
  -31.6770  -15.1220   19.6110 O   0  0  0  0  0  0  0  0  0  0  0  0
  -29.6540  -16.0530   20.3280 N   0  0  0  0  0  0  0  0  0  0  0  0
  -28.7800  -15.6530   20.6320 H   0  0  0  0  0  0  0  0  0  0  0  0
  -25.2640  -13.8770   20.4600 C   0  0  0  0  0  0  0  0  0  0  0  0
  -24.2230  -13.0910   20.8730 C   0  0  0  0  0  0  0  0  0  0  0  0
  -24.6820  -11.7420   20.7720 C   0  0  0  0  0  0  0  0  0  0  0  0
  -26.2900  -13.0060   20.1330 N   0  0  0  0  0  0  0  0  0  0  0  0
  -25.9530  -11.7150   20.3840 N   0  0  0  0  0  0  0  0  0  0  0  0
  -23.9660  -10.4750   20.9660 C   0  0  0  0  0  0  0  0  0  0  0  0
  -24.4190   -9.5040   21.8880 C   0  0  0  0  0  3  0  0  0  0  0  0
  -23.7010   -8.3020   22.0710 C   0  0  0  0  0  3  0  0  0  0  0  0
  -22.5180   -8.0620   21.3330 C   0  0  0  0  0  0  0  0  0  0  0  0
  -22.0850   -9.0220   20.4000 C   0  0  0  0  0  3  0  0  0  0  0  0
  -22.8030  -10.2140   20.2150 C   0  0  0  0  0  3  0  0  0  0  0  0
  -21.7710   -6.9130   21.4260 O   0  0  0  0  0  0  0  0  0  0  0  0
  -21.6980   -6.1940   22.5920 C   0  0  0  0  0  0  0  0  0  0  0  0
  -21.2190   -6.7650   23.7910 C   0  0  0  0  0  3  0  0  0  0  0  0
  -21.0960   -5.9710   24.9500 C   0  0  0  0  0  3  0  0  0  0  0  0
  -21.4430   -4.6080   24.9090 C   0  0  0  0  0  0  0  0  0  0  0  0
  -21.9150   -4.0360   23.7150 C   0  0  0  0  0  3  0  0  0  0  0  0
  -22.0400   -4.8260   22.5590 C   0  0  0  0  0  0  0  0  0  0  0  0
  -22.4760   -4.2660   21.4050 F   0  0  0  0  0  0  0  0  0  0  0  0
  -21.3170   -3.8430   26.0190 F   0  0  0  0  0  0  0  0  0  0  0  0
  -22.8450  -13.5600   21.2390 C   0  0  0  0  0  0  0  0  0  0  0  0
  -22.1690  -12.8420   22.1280 N   0  0  0  0  0  0  0  0  0  0  0  0
  -22.3770  -14.5980   20.7720 O   0  0  0  0  0  0  0  0  0  0  0  0
  -22.5610  -12.0010   22.5270 H   0  0  0  0  0  0  0  0  0  0  0  0
  -21.2460  -13.1360   22.4160 H   0  0  0  0  0  0  0  0  0  0  0  0
  -25.4150  -15.2520   20.3080 N   0  0  0  0  0  0  0  0  0  0  0  0
  -24.6390  -15.8890   20.4550 H   0  0  0  0  0  0  0  0  0  0  0  0
  -26.1990  -15.6880   19.8400 H   0  0  0  0  0  0  0  0  0  0  0  0
  -27.9110  -24.7020   19.9780 C   0  0  0  0  0  2  0  0  0  0  0  0
  -28.2560  -26.1990   20.2280 O   0  0  0  0  0  0  0  0  0  0  0  0
  -24.6290  -31.8650   23.2570 C   0  0  0  0  0  0  0  0  0  0  0  0
  -27.2090  -27.1930   20.1680 C   0  0  0  0  0  0  0  0  0  0  0  0
  -23.4300  -30.4920   21.5980 C   0  0  0  0  0  3  0  0  0  0  0  0
  -24.8800  -28.9390   20.1560 C   0  0  0  0  0  0  0  0  0  0  0  0
  -25.9860  -30.7580   21.4420 C   0  0  0  0  0  2  0  0  0  0  0  0
  -26.0600  -29.3750   20.7720 C   0  0  0  0  0  0  0  0  0  0  0  0
  -27.2250  -28.5190   20.7620 C   0  0  0  0  0  3  0  0  0  0  0  0
  -26.0000  -26.8630   19.5110 C   0  0  0  0  0  3  0  0  0  0  0  0
  -24.8630  -27.6960   19.5110 C   0  0  0  0  0  3  0  0  0  0  0  0
  -23.6540  -29.8350   20.2110 C   0  0  0  0  0  2  0  0  0  0  0  0
  -24.7020  -31.0590   22.1540 N   0  0  0  0  0  0  0  0  0  0  0  0
  -23.5430  -32.1440   23.7860 O   0  0  0  0  0  0  0  0  0  0  0  0
  -22.7490  -29.4720   22.5450 C   0  0  0  0  0  0  0  0  0  0  0  0
  -21.4220  -29.2990   22.4060 N   0  0  0  0  0  0  0  0  0  0  0  0
  -23.4160  -28.8410   23.3690 O   0  0  0  0  0  0  0  0  0  0  0  0
  -20.9400  -29.8590   21.7180 H   0  0  0  0  0  0  0  0  0  0  0  0
  -18.0400  -28.0900   22.8780 C   0  0  0  0  0  0  0  0  0  0  0  0
  -20.5970  -28.3540   23.1640 C   0  0  0  0  0  3  0  0  0  0  0  0
  -20.7040  -26.9270   22.5780 C   0  0  0  0  0  2  0  0  0  0  0  0
  -19.6090  -26.6110   21.5540 C   0  0  0  0  0  2  0  0  0  0  0  0
  -18.2230  -26.7480   22.1900 C   0  0  0  0  0  2  0  0  0  0  0  0
  -19.1540  -28.8510   23.3210 C   0  0  0  0  0  0  0  0  0  0  0  0
  -18.9270  -30.1070   23.9260 C   0  0  0  0  0  3  0  0  0  0  0  0
  -17.6190  -30.6010   24.0910 C   0  0  0  0  0  3  0  0  0  0  0  0
  -16.5210  -29.8380   23.6630 C   0  0  0  0  0  3  0  0  0  0  0  0
  -16.7310  -28.5830   23.0620 C   0  0  0  0  0  3  0  0  0  0  0  0
  -25.9070  -32.4900   23.8940 C   0  0  0  0  0  3  0  0  0  0  0  0
  -25.6030  -33.8920   24.2220 N   0  0  0  0  0  0  0  0  0  0  0  0
  -25.9250  -34.9430   23.4550 C   0  0  0  0  0  0  0  0  0  0  0  0
  -26.5760  -34.8340   22.4130 O   0  0  0  0  0  0  0  0  0  0  0  0
  -25.0230  -34.0500   25.0320 H   0  0  0  0  0  0  0  0  0  0  0  0
  -24.1830  -36.7330   23.1470 C   0  0  0  0  0  1  0  0  0  0  0  0
  -25.4530  -36.3360   23.9180 C   0  0  0  0  0  3  0  0  0  0  0  0
  -27.6100  -37.2370   24.6730 C   0  0  0  0  0  1  0  0  0  0  0  0
  -26.4790  -37.3900   23.7600 N   0  0  0  0  0  0  0  0  0  0  0  0
  -26.0760  -38.3110   23.9070 H   0  0  0  0  0  0  0  0  0  0  0  0
  -26.3980  -31.7190   25.1810 C   0  0  1  0  0  0  0  0  0  0  0  0
  -25.2890  -31.4950   26.2350 C   0  0  0  0  0  1  0  0  0  0  0  0
  -26.9750  -30.3350   24.8060 C   0  0  0  0  0  1  0  0  0  0  0  0
  -27.5470  -32.5060   25.8560 C   0  0  0  0  0  1  0  0  0  0  0  0
  1  3  2  0
  2  9  1  0
  2  1  1  0
  4  2  1  0
  5  7  1  0
  6  8  2  0
  6  9  1  0
  8 10  1  0
  9  5  2  0
 10 19  1  0
 10  7  2  0
 11 19  1  0
 12 17  1  0
 13 14  1  0
 13 12  1  0
 15 14  1  0
 15 24  1  0
 15 16  1  0
 17 11  1  0
 17 16  1  0
 18 11  2  0
 19 20  1  0
 21 22  2  0
 22 41  1  0
 23 22  1  0
 23 26  1  0
 24 25  1  0
 24 21  1  0
 25 23  2  0
 26 27  1  0
 27 28  2  0
 29 32  1  0
 29 28  1  0
 30 29  2  0
 31 30  1  0
 31 26  2  0
 32 33  1  0
 33 34  1  0
 34 35  2  0
 36 35  1  0
 36 40  1  0
 37 36  2  0
 38 33  2  0
 38 37  1  0
 39 38  1  0
 41 42  1  0
 42 45  1  0
 42 44  1  0
 43 41  2  0
 46 47  1  0
 46 21  1  0
 48 46  1  0
 49  1  1  0
 49 50  1  0
 51 62  2  0
 52 50  1  0
 52 57  1  0
 53 61  1  0
 53 63  1  0
 54 60  1  0
 54 56  1  0
 55 61  1  0
 56 55  1  0
 57 56  2  0
 58 52  2  0
 59 58  1  0
 59 54  2  0
 60 53  1  0
 61 51  1  0
 63 65  2  0
 64 63  1  0
 66 64  1  0
 67 76  2  0
 67 72  1  0
 68 64  1  0
 68 72  1  0
 69 68  1  0
 70 71  1  0
 70 69  1  0
 71 67  1  0
 72 73  2  0
 73 74  1  0
 75 74  2  0
 76 75  1  0
 77 51  1  0
 77 78  1  0
 77 87  1  0
 78 81  1  0
 79 83  1  0
 79 78  1  0
 80 79  2  0
 83 82  1  0
 85 86  1  0
 85 83  1  0
 85 84  1  0
 87 90  1  1
 87 88  1  0
 89 87  1  0
M  ISO  4  11 100  19 100  49 101  50 101
M  END
>  <TORSDO>  (64) 
F 18

>  <SCORE>  (64) 
-14.555

>  <name>  (64) 
63

>  <ligand_id>  (64) 
63

>  <original_smiles>  (64) 
[H]c1c([H])c([H])c2c(c1[H])C([H])([H])C([H])([H])C([H])([H])C2([H])N([H])C(=O)C1([H])N(C(=O)C([H])(N([H])C(=O)C([H])(N([H])C([H])([H])[H])C([H])([H])[H])C(C([H])([H])[H])(C([H])([H])[H])C([H])([H])[H])C([H])([H])c2c([H])c(OC([H])([H])C(=O)N([H])c3c([H])c([H])c(N([H])C(=O)N4C([H])([H])C([H])([H])C([H])([H])C([H])(n5nc(-c6c([H])c([H])c(Oc7c([H])c([H])c(F)c([H])c7F)c([H])c6[H])c(C(=O)N([H])[H])c5N([H])[H])C4([H])[H])c([H])c3[H])c([H])c([H])c2C1([H])[H]

>  <smiles>  (64) 
[H]c1c([H])c([H])c2c(c1[H])C([H])([H])C([H])([H])C([H])([H])C2([H])N([H])C(=O)C1([H])N(C(=O)C([H])(N([H])C(=O)C([H])(N([H])C([H])([H])[H])C([H])([H])[H])C(C([H])([H])[H])(C([H])([H])[H])C([H])([H])[H])C([H])([H])c2c([H])c(OC([H])([H])C(=O)N([H])c3c([H])c([H])c(N([H])C(=O)N4C([H])([H])C([H])([H])C([H])([H])C([H])(n5nc(-c6c([H])c([H])c(Oc7c([H])c([H])c(F)c([H])c7F)c([H])c6[H])c(C(=O)N([H])[H])c5N([H])[H])C4([H])[H])c([H])c3[H])c([H])c([H])c2C1([H])[H]

$$$$
64:0:0
     RDKit          3D

 91 99  0  0  1  0  0  0  0  0999 V2000
  -28.8430  -22.4830   20.2780 C   0  0  0  0  0  0  0  0  0  0  0  0
  -29.8330  -21.5370   20.2590 N   0  0  0  0  0  0  0  0  0  0  0  0
  -27.6500  -22.1720   20.2290 O   0  0  0  0  0  0  0  0  0  0  0  0
  -30.7630  -21.9300   20.1990 H   0  0  0  0  0  0  0  0  0  0  0  0
  -30.9300  -19.3270   19.8830 C   0  0  0  0  0  3  0  0  0  0  0  0
  -28.7040  -19.3100   20.7930 C   0  0  0  0  0  3  0  0  0  0  0  0
  -30.9840  -17.9020   19.9490 C   0  0  0  0  0  3  0  0  0  0  0  0
  -28.7610  -17.8870   20.8690 C   0  0  0  0  0  3  0  0  0  0  0  0
  -29.7920  -20.0740   20.2980 C   0  0  0  0  0  0  0  0  0  0  0  0
  -29.8960  -17.1400   20.4510 C   0  0  0  0  0  0  0  0  0  0  0  0
  -30.6220  -14.6700   20.0660 C   0  0  0  0  0  0  0  0  0  0  0  0
  -30.3530  -12.4730   18.9360 C   0  0  0  0  0  2  0  0  0  0  0  0
  -29.3360  -12.6480   17.7860 C   0  0  0  0  0  2  0  0  0  0  0  0
  -27.8900  -12.4760   18.2960 C   0  0  0  0  0  2  0  0  0  0  0  0
  -27.6100  -13.2950   19.5840 C   0  0  0  0  0  3  0  0  0  0  0  0
  -28.7310  -13.0850   20.6270 C   0  0  0  0  0  2  0  0  0  0  0  0
  -30.0090  -13.4480   19.9910 N   0  0  0  0  0  0  0  0  0  0  0  0
  -31.7480  -14.8550   19.5910 O   0  0  0  0  0  0  0  0  0  0  0  0
  -29.8490  -15.6830   20.5630 N   0  0  0  0  0  0  0  0  0  0  0  0
  -28.9980  -15.3310   20.9750 H   0  0  0  0  0  0  0  0  0  0  0  0
  -25.2620  -13.8780   20.4570 C   0  0  0  0  0  0  0  0  0  0  0  0
  -24.2160  -13.0940   20.8650 C   0  0  0  0  0  0  0  0  0  0  0  0
  -24.6720  -11.7440   20.7660 C   0  0  0  0  0  0  0  0  0  0  0  0
  -26.2880  -13.0040   20.1350 N   0  0  0  0  0  0  0  0  0  0  0  0
  -25.9410  -11.7130   20.3800 N   0  0  0  0  0  0  0  0  0  0  0  0
  -23.9540  -10.4780   20.9600 C   0  0  0  0  0  0  0  0  0  0  0  0
  -24.4110   -9.5030   21.8740 C   0  0  0  0  0  3  0  0  0  0  0  0
  -23.6940   -8.3000   22.0550 C   0  0  0  0  0  3  0  0  0  0  0  0
  -22.5070   -8.0640   21.3220 C   0  0  0  0  0  0  0  0  0  0  0  0
  -22.0700   -9.0280   20.3970 C   0  0  0  0  0  3  0  0  0  0  0  0
  -22.7860  -10.2220   20.2140 C   0  0  0  0  0  3  0  0  0  0  0  0
  -21.7590   -6.9150   21.4150 O   0  0  0  0  0  0  0  0  0  0  0  0
  -21.6970   -6.1890   22.5770 C   0  0  0  0  0  0  0  0  0  0  0  0
  -21.2380   -6.7560   23.7870 C   0  0  0  0  0  3  0  0  0  0  0  0
  -21.1240   -5.9550   24.9410 C   0  0  0  0  0  3  0  0  0  0  0  0
  -21.4570   -4.5880   24.8860 C   0  0  0  0  0  0  0  0  0  0  0  0
  -21.9090   -4.0220   23.6820 C   0  0  0  0  0  3  0  0  0  0  0  0
  -22.0250   -4.8200   22.5300 C   0  0  0  0  0  0  0  0  0  0  0  0
  -22.4400   -4.2630   21.3660 F   0  0  0  0  0  0  0  0  0  0  0  0
  -21.3410   -3.8170   25.9930 F   0  0  0  0  0  0  0  0  0  0  0  0
  -22.8380  -13.5650   21.2330 C   0  0  0  0  0  0  0  0  0  0  0  0
  -22.1620  -12.8460   22.1230 N   0  0  0  0  0  0  0  0  0  0  0  0
  -22.3710  -14.6030   20.7680 O   0  0  0  0  0  0  0  0  0  0  0  0
  -22.5530  -12.0050   22.5220 H   0  0  0  0  0  0  0  0  0  0  0  0
  -21.2400  -13.1430   22.4110 H   0  0  0  0  0  0  0  0  0  0  0  0
  -25.4190  -15.2530   20.3120 N   0  0  0  0  0  0  0  0  0  0  0  0
  -24.6540  -15.8980   20.4770 H   0  0  0  0  0  0  0  0  0  0  0  0
  -26.2320  -15.6990   19.9070 H   0  0  0  0  0  0  0  0  0  0  0  0
  -29.2280  -24.0150   20.3500 C   0  0  0  0  0  3  0  0  0  0  0  0
  -28.1040  -25.0750   19.9880 C   0  0  0  0  0  3  0  0  0  0  0  0
  -28.3380  -26.5210   20.2070 O   0  0  0  0  0  0  0  0  0  0  0  0
  -24.6180  -31.8920   23.2640 C   0  0  0  0  0  0  0  0  0  0  0  0
  -27.2210  -27.3700   20.1600 C   0  0  0  0  0  0  0  0  0  0  0  0
  -23.4120  -30.5170   21.6090 C   0  0  0  0  0  3  0  0  0  0  0  0
  -24.8590  -28.9840   20.1680 C   0  0  0  0  0  0  0  0  0  0  0  0
  -25.9540  -30.8330   21.4320 C   0  0  0  0  0  2  0  0  0  0  0  0
  -26.0300  -29.4630   20.7700 C   0  0  0  0  0  0  0  0  0  0  0  0
  -27.2140  -28.6680   20.7570 C   0  0  0  0  0  3  0  0  0  0  0  0
  -26.0260  -26.9470   19.5320 C   0  0  0  0  0  3  0  0  0  0  0  0
  -24.8590  -27.7300   19.5390 C   0  0  0  0  0  3  0  0  0  0  0  0
  -23.6250  -29.8590   20.2210 C   0  0  0  0  0  2  0  0  0  0  0  0
  -24.6810  -31.0970   22.1590 N   0  0  0  0  0  0  0  0  0  0  0  0
  -23.5340  -32.1680   23.8010 O   0  0  0  0  0  0  0  0  0  0  0  0
  -22.7470  -29.4890   22.5550 C   0  0  0  0  0  0  0  0  0  0  0  0
  -21.4220  -29.3100   22.4180 N   0  0  0  0  0  0  0  0  0  0  0  0
  -23.4210  -28.8570   23.3730 O   0  0  0  0  0  0  0  0  0  0  0  0
  -20.9380  -29.8710   21.7310 H   0  0  0  0  0  0  0  0  0  0  0  0
  -18.0420  -28.1100   22.8840 C   0  0  0  0  0  0  0  0  0  0  0  0
  -20.5980  -28.3680   23.1760 C   0  0  0  0  0  3  0  0  0  0  0  0
  -20.7050  -26.9390   22.5930 C   0  0  0  0  0  2  0  0  0  0  0  0
  -19.6110  -26.6230   21.5680 C   0  0  0  0  0  2  0  0  0  0  0  0
  -18.2240  -26.7640   22.2030 C   0  0  0  0  0  2  0  0  0  0  0  0
  -19.1570  -28.8690   23.3280 C   0  0  0  0  0  0  0  0  0  0  0  0
  -18.9330  -30.1280   23.9250 C   0  0  0  0  0  3  0  0  0  0  0  0
  -17.6270  -30.6290   24.0830 C   0  0  0  0  0  3  0  0  0  0  0  0
  -16.5260  -29.8660   23.6560 C   0  0  0  0  0  3  0  0  0  0  0  0
  -16.7350  -28.6090   23.0620 C   0  0  0  0  0  3  0  0  0  0  0  0
  -25.9020  -32.5140   23.8960 C   0  0  0  0  0  3  0  0  0  0  0  0
  -26.4050  -31.7350   25.1730 C   0  0  1  0  0  0  0  0  0  0  0  0
  -25.3030  -31.5020   26.2320 C   0  0  0  0  0  1  0  0  0  0  0  0
  -26.9820  -30.3550   24.7800 C   0  0  0  0  0  1  0  0  0  0  0  0
  -27.5580  -32.5180   25.8440 C   0  0  0  0  0  1  0  0  0  0  0  0
  -25.6010  -33.9140   24.2280 N   0  0  0  0  0  0  0  0  0  0  0  0
  -25.9220  -34.9630   23.4620 C   0  0  0  0  0  0  0  0  0  0  0  0
  -26.5730  -34.8570   22.4190 O   0  0  0  0  0  0  0  0  0  0  0  0
  -25.0200  -34.0700   25.0380 H   0  0  0  0  0  0  0  0  0  0  0  0
  -24.1770  -36.7490   23.1480 C   0  0  0  0  0  1  0  0  0  0  0  0
  -25.4440  -36.3550   23.9240 C   0  0  0  0  0  3  0  0  0  0  0  0
  -27.5990  -37.2530   24.6840 C   0  0  0  0  0  1  0  0  0  0  0  0
  -26.4700  -37.4090   23.7710 N   0  0  0  0  0  0  0  0  0  0  0  0
  -26.0650  -38.3300   23.9220 H   0  0  0  0  0  0  0  0  0  0  0  0
  1 49  1  0
  2  1  1  0
  2  9  1  0
  3  1  2  0
  4  2  1  0
  5  7  2  0
  5  9  1  0
  6  8  1  0
  7 10  1  0
  9  6  2  0
 10 19  1  0
 10  8  2  0
 11 19  1  0
 12 17  1  0
 13 14  1  0
 13 12  1  0
 15 14  1  0
 15 24  1  0
 15 16  1  0
 17 11  1  0
 17 16  1  0
 18 11  2  0
 19 20  1  0
 21 22  2  0
 22 41  1  0
 23 22  1  0
 23 26  1  0
 24 25  1  0
 24 21  1  0
 25 23  2  0
 26 27  1  0
 27 28  2  0
 29 32  1  0
 29 28  1  0
 30 29  2  0
 31 30  1  0
 31 26  2  0
 32 33  1  0
 33 34  1  0
 34 35  2  0
 36 35  1  0
 36 40  1  0
 37 36  2  0
 38 33  2  0
 38 37  1  0
 39 38  1  0
 41 42  1  0
 42 45  1  0
 42 44  1  0
 43 41  2  0
 46 21  1  0
 46 47  1  0
 48 46  1  0
 50 51  1  0
 50 49  2  0
 52 63  2  0
 53 51  1  0
 53 58  1  0
 54 62  1  0
 54 64  1  0
 55 61  1  0
 55 57  1  0
 56 62  1  0
 57 56  1  0
 58 57  2  0
 59 60  1  0
 59 53  2  0
 60 55  2  0
 61 54  1  0
 62 52  1  0
 64 66  2  0
 65 64  1  0
 67 65  1  0
 68 77  2  0
 68 73  1  0
 69 65  1  0
 69 73  1  0
 70 69  1  0
 71 72  1  0
 71 70  1  0
 72 68  1  0
 73 74  2  0
 74 75  1  0
 76 75  2  0
 77 76  1  0
 78 52  1  0
 78 83  1  0
 78 79  1  0
 79 82  1  1
 79 80  1  0
 81 79  1  0
 83 86  1  0
 84 88  1  0
 84 83  1  0
 85 84  2  0
 88 87  1  0
 90 91  1  0
 90 88  1  0
 90 89  1  0
M  ISO  4  11 100  19 100  50 101  51 101
M  END
>  <TORSDO>  (65) 
F 19

>  <SCORE>  (65) 
-13.934

>  <name>  (65) 
64

>  <ligand_id>  (65) 
64

>  <original_smiles>  (65) 
[H]c1c([H])c([H])c2c(c1[H])C([H])([H])C([H])([H])C([H])([H])C2([H])N([H])C(=O)C1([H])N(C(=O)C([H])(N([H])C(=O)C([H])(N([H])C([H])([H])[H])C([H])([H])[H])C(C([H])([H])[H])(C([H])([H])[H])C([H])([H])[H])C([H])([H])c2c([H])c(OC([H])([H])C([H])([H])C(=O)N([H])c3c([H])c([H])c(N([H])C(=O)N4C([H])([H])C([H])([H])C([H])([H])C([H])(n5nc(-c6c([H])c([H])c(Oc7c([H])c([H])c(F)c([H])c7F)c([H])c6[H])c(C(=O)N([H])[H])c5N([H])[H])C4([H])[H])c([H])c3[H])c([H])c([H])c2C1([H])[H]

>  <smiles>  (65) 
[H]c1c([H])c([H])c2c(c1[H])C([H])([H])C([H])([H])C([H])([H])C2([H])N([H])C(=O)C1([H])N(C(=O)C([H])(N([H])C(=O)C([H])(N([H])C([H])([H])[H])C([H])([H])[H])C(C([H])([H])[H])(C([H])([H])[H])C([H])([H])[H])C([H])([H])c2c([H])c(OC([H])([H])C([H])([H])C(=O)N([H])c3c([H])c([H])c(N([H])C(=O)N4C([H])([H])C([H])([H])C([H])([H])C([H])(n5nc(-c6c([H])c([H])c(Oc7c([H])c([H])c(F)c([H])c7F)c([H])c6[H])c(C(=O)N([H])[H])c5N([H])[H])C4([H])[H])c([H])c3[H])c([H])c([H])c2C1([H])[H]

$$$$
65:0:0
     RDKit          3D

 91 99  0  0  1  0  0  0  0  0999 V2000
  -28.9330  -23.2890   20.2810 C   0  0  0  0  0  0  0  0  0  0  0  0
  -28.6670  -21.8680   20.4380 N   0  0  0  0  0  0  0  0  0  0  0  0
  -30.0910  -23.6530   20.0710 O   0  0  0  0  0  0  0  0  0  0  0  0
  -27.6740  -21.6870   20.3910 H   0  0  0  0  0  0  0  0  0  0  0  0
  -31.5600  -19.4770   21.5900 C   0  0  0  0  0  3  0  0  0  0  0  0
  -31.2130  -18.1700   21.1990 C   0  0  0  0  0  3  0  0  0  0  0  0
  -29.1560  -19.1170   20.3400 C   0  0  0  0  0  3  0  0  0  0  0  0
  -30.7400  -20.6180   21.3990 C   0  0  0  0  0  0  0  0  0  0  0  0
  -29.9770  -17.8690   20.5980 C   0  0  0  0  0  0  0  0  0  0  0  0
  -29.5090  -20.5540   20.6730 C   0  0  0  0  0  0  0  0  0  0  0  0
  -31.2340  -21.8730   22.1020 C   0  0  0  0  0  1  0  0  0  0  0  0
  -30.4590  -15.1360   20.3120 C   0  0  0  0  0  0  0  0  0  0  0  0
  -30.3770  -12.7650   19.3550 C   0  0  0  0  0  2  0  0  0  0  0  0
  -29.4320  -12.6650   18.1360 C   0  0  0  0  0  2  0  0  0  0  0  0
  -27.9830  -12.4120   18.5950 C   0  0  0  0  0  2  0  0  0  0  0  0
  -27.5650  -13.3360   19.7670 C   0  0  0  0  0  3  0  0  0  0  0  0
  -28.6350  -13.4000   20.8760 C   0  0  0  0  0  2  0  0  0  0  0  0
  -29.8740  -13.8630   20.2370 N   0  0  0  0  0  0  0  0  0  0  0  0
  -31.6740  -15.1730   20.0740 O   0  0  0  0  0  0  0  0  0  0  0  0
  -29.6720  -16.3490   20.3880 N   0  0  0  0  0  0  0  0  0  0  0  0
  -28.6850  -16.1470   20.3390 H   0  0  0  0  0  0  0  0  0  0  0  0
  -25.1960  -13.8710   20.5600 C   0  0  0  0  0  0  0  0  0  0  0  0
  -24.1460  -13.0780   20.9320 C   0  0  0  0  0  0  0  0  0  0  0  0
  -24.6260  -11.7330   20.8720 C   0  0  0  0  0  0  0  0  0  0  0  0
  -26.2430  -13.0090   20.2870 N   0  0  0  0  0  0  0  0  0  0  0  0
  -25.9120  -11.7160   20.5420 N   0  0  0  0  0  0  0  0  0  0  0  0
  -23.9130  -10.4600   21.0490 C   0  0  0  0  0  0  0  0  0  0  0  0
  -24.3510   -9.4930   21.9800 C   0  0  0  0  0  3  0  0  0  0  0  0
  -23.6370   -8.2860   22.1470 C   0  0  0  0  0  3  0  0  0  0  0  0
  -22.4710   -8.0390   21.3830 C   0  0  0  0  0  0  0  0  0  0  0  0
  -22.0530   -8.9970   20.4420 C   0  0  0  0  0  3  0  0  0  0  0  0
  -22.7680  -10.1950   20.2730 C   0  0  0  0  0  3  0  0  0  0  0  0
  -21.7280   -6.8860   21.4590 O   0  0  0  0  0  0  0  0  0  0  0  0
  -21.6610   -6.1490   22.6140 C   0  0  0  0  0  0  0  0  0  0  0  0
  -21.1570   -6.6910   23.8160 C   0  0  0  0  0  3  0  0  0  0  0  0
  -21.0400   -5.8770   24.9600 C   0  0  0  0  0  3  0  0  0  0  0  0
  -21.4190   -4.5230   24.9040 C   0  0  0  0  0  0  0  0  0  0  0  0
  -21.9150   -3.9800   23.7060 C   0  0  0  0  0  3  0  0  0  0  0  0
  -22.0330   -4.7900   22.5640 C   0  0  0  0  0  0  0  0  0  0  0  0
  -22.4930   -4.2560   21.4070 F   0  0  0  0  0  0  0  0  0  0  0  0
  -21.3000   -3.7380   26.0010 F   0  0  0  0  0  0  0  0  0  0  0  0
  -22.7480  -13.5370   21.2270 C   0  0  0  0  0  0  0  0  0  0  0  0
  -22.0400  -12.8260   22.0960 N   0  0  0  0  0  0  0  0  0  0  0  0
  -22.2930  -14.5620   20.7210 O   0  0  0  0  0  0  0  0  0  0  0  0
  -22.4210  -11.9970   22.5270 H   0  0  0  0  0  0  0  0  0  0  0  0
  -21.1020  -13.1160   22.3360 H   0  0  0  0  0  0  0  0  0  0  0  0
  -25.3380  -15.2460   20.4010 N   0  0  0  0  0  0  0  0  0  0  0  0
  -24.5580  -15.8820   20.5320 H   0  0  0  0  0  0  0  0  0  0  0  0
  -26.1580  -15.7020   20.0220 H   0  0  0  0  0  0  0  0  0  0  0  0
  -27.8140  -24.5490   20.2470 C   0  0  0  0  0  2  0  0  0  0  0  0
  -28.1720  -26.1020   20.2810 O   0  0  0  0  0  0  0  0  0  0  0  0
  -24.6290  -31.9340   23.2550 C   0  0  0  0  0  0  0  0  0  0  0  0
  -27.1510  -27.1430   20.2240 C   0  0  0  0  0  0  0  0  0  0  0  0
  -23.4190  -30.5520   21.6150 C   0  0  0  0  0  3  0  0  0  0  0  0
  -24.8530  -28.9590   20.1870 C   0  0  0  0  0  0  0  0  0  0  0  0
  -25.9800  -30.7750   21.4570 C   0  0  0  0  0  2  0  0  0  0  0  0
  -26.0400  -29.3780   20.8010 C   0  0  0  0  0  0  0  0  0  0  0  0
  -27.1900  -28.4890   20.8000 C   0  0  0  0  0  3  0  0  0  0  0  0
  -25.9370  -26.8490   19.5640 C   0  0  0  0  0  3  0  0  0  0  0  0
  -24.8180  -27.7100   19.5510 C   0  0  0  0  0  3  0  0  0  0  0  0
  -23.6380  -29.8750   20.2350 C   0  0  0  0  0  2  0  0  0  0  0  0
  -24.6970  -31.1100   22.1640 N   0  0  0  0  0  0  0  0  0  0  0  0
  -23.5450  -32.2290   23.7810 O   0  0  0  0  0  0  0  0  0  0  0  0
  -22.7250  -29.5530   22.5750 C   0  0  0  0  0  0  0  0  0  0  0  0
  -21.3960  -29.3900   22.4440 N   0  0  0  0  0  0  0  0  0  0  0  0
  -23.3880  -28.9240   23.4050 O   0  0  0  0  0  0  0  0  0  0  0  0
  -20.9170  -29.9490   21.7520 H   0  0  0  0  0  0  0  0  0  0  0  0
  -18.0080  -28.2080   22.9460 C   0  0  0  0  0  0  0  0  0  0  0  0
  -20.5680  -28.4590   23.2140 C   0  0  0  0  0  3  0  0  0  0  0  0
  -20.6610  -27.0250   22.6450 C   0  0  0  0  0  2  0  0  0  0  0  0
  -19.5610  -26.7050   21.6290 C   0  0  0  0  0  2  0  0  0  0  0  0
  -18.1790  -26.8570   22.2700 C   0  0  0  0  0  2  0  0  0  0  0  0
  -19.1290  -28.9660   23.3750 C   0  0  0  0  0  0  0  0  0  0  0  0
  -18.9140  -30.2270   23.9710 C   0  0  0  0  0  3  0  0  0  0  0  0
  -17.6110  -30.7340   24.1370 C   0  0  0  0  0  3  0  0  0  0  0  0
  -16.5040  -29.9740   23.7220 C   0  0  0  0  0  3  0  0  0  0  0  0
  -16.7030  -28.7120   23.1330 C   0  0  0  0  0  3  0  0  0  0  0  0
  -25.9110  -32.5610   23.8830 C   0  0  0  0  0  3  0  0  0  0  0  0
  -25.6080  -33.9610   24.2220 N   0  0  0  0  0  0  0  0  0  0  0  0
  -25.9080  -35.0170   23.4550 C   0  0  0  0  0  0  0  0  0  0  0  0
  -26.5360  -34.9160   22.3980 O   0  0  0  0  0  0  0  0  0  0  0  0
  -25.0450  -34.1120   25.0470 H   0  0  0  0  0  0  0  0  0  0  0  0
  -24.1550  -36.8060   23.1930 C   0  0  0  0  0  1  0  0  0  0  0  0
  -25.4410  -36.4070   23.9350 C   0  0  0  0  0  3  0  0  0  0  0  0
  -27.6070  -37.3140   24.6520 C   0  0  0  0  0  1  0  0  0  0  0  0
  -26.4600  -37.4640   23.7610 N   0  0  0  0  0  0  0  0  0  0  0  0
  -26.0560  -38.3840   23.9200 H   0  0  0  0  0  0  0  0  0  0  0  0
  -26.4180  -31.7850   25.1620 C   0  0  1  0  0  0  0  0  0  0  0  0
  -25.3190  -31.5500   26.2260 C   0  0  0  0  0  1  0  0  0  0  0  0
  -26.9950  -30.4040   24.7770 C   0  0  0  0  0  1  0  0  0  0  0  0
  -27.5690  -32.5720   25.8280 C   0  0  0  0  0  1  0  0  0  0  0  0
  1  2  1  0
  2 10  1  0
  3  1  2  0
  4  2  1  0
  6  5  2  0
  7  9  2  0
  7 10  1  0
  8  5  1  0
  8 11  1  0
  9  6  1  0
 10  8  2  0
 12 20  1  0
 13 18  1  0
 14 15  1  0
 14 13  1  0
 16 15  1  0
 16 25  1  0
 16 17  1  0
 18 12  1  0
 18 17  1  0
 19 12  2  0
 20  9  1  0
 21 20  1  0
 22 23  2  0
 23 42  1  0
 24 23  1  0
 24 27  1  0
 25 26  1  0
 25 22  1  0
 26 24  2  0
 27 28  1  0
 28 29  2  0
 30 33  1  0
 30 29  1  0
 31 30  2  0
 32 31  1  0
 32 27  2  0
 33 34  1  0
 34 35  1  0
 35 36  2  0
 37 36  1  0
 37 41  1  0
 38 37  2  0
 39 34  2  0
 39 38  1  0
 40 39  1  0
 42 43  1  0
 43 46  1  0
 43 45  1  0
 44 42  2  0
 47 48  1  0
 47 22  1  0
 49 47  1  0
 50  1  1  0
 50 51  1  0
 52 63  2  0
 53 51  1  0
 53 58  1  0
 54 62  1  0
 54 64  1  0
 55 61  1  0
 55 57  1  0
 56 62  1  0
 57 56  1  0
 58 57  2  0
 59 53  2  0
 60 59  1  0
 60 55  2  0
 61 54  1  0
 62 52  1  0
 64 66  2  0
 65 64  1  0
 67 65  1  0
 68 77  2  0
 68 73  1  0
 69 65  1  0
 69 73  1  0
 70 69  1  0
 71 72  1  0
 71 70  1  0
 72 68  1  0
 73 74  2  0
 74 75  1  0
 76 75  2  0
 77 76  1  0
 78 52  1  0
 78 79  1  0
 78 88  1  0
 79 82  1  0
 80 84  1  0
 80 79  1  0
 81 80  2  0
 84 83  1  0
 86 87  1  0
 86 84  1  0
 86 85  1  0
 88 91  1  1
 88 89  1  0
 90 88  1  0
M  ISO  4  12 100  20 100  50 101  51 101
M  END
>  <TORSDO>  (66) 
F 18

>  <SCORE>  (66) 
-14.874

>  <name>  (66) 
65

>  <ligand_id>  (66) 
65

>  <original_smiles>  (66) 
[H]c1c([H])c([H])c2c(c1[H])C([H])([H])C([H])([H])C([H])([H])C2([H])N([H])C(=O)C1([H])N(C(=O)C([H])(N([H])C(=O)C([H])(N([H])C([H])([H])[H])C([H])([H])[H])C(C([H])([H])[H])(C([H])([H])[H])C([H])([H])[H])C([H])([H])c2c([H])c(OC([H])([H])C(=O)N([H])c3c([H])c(N([H])C(=O)N4C([H])([H])C([H])([H])C([H])([H])C([H])(n5nc(-c6c([H])c([H])c(Oc7c([H])c([H])c(F)c([H])c7F)c([H])c6[H])c(C(=O)N([H])[H])c5N([H])[H])C4([H])[H])c([H])c([H])c3C([H])([H])[H])c([H])c([H])c2C1([H])[H]

>  <smiles>  (66) 
[H]c1c([H])c([H])c2c(c1[H])C([H])([H])C([H])([H])C([H])([H])C2([H])N([H])C(=O)C1([H])N(C(=O)C([H])(N([H])C(=O)C([H])(N([H])C([H])([H])[H])C([H])([H])[H])C(C([H])([H])[H])(C([H])([H])[H])C([H])([H])[H])C([H])([H])c2c([H])c(OC([H])([H])C(=O)N([H])c3c([H])c(N([H])C(=O)N4C([H])([H])C([H])([H])C([H])([H])C([H])(n5nc(-c6c([H])c([H])c(Oc7c([H])c([H])c(F)c([H])c7F)c([H])c6[H])c(C(=O)N([H])[H])c5N([H])[H])C4([H])[H])c([H])c([H])c3C([H])([H])[H])c([H])c([H])c2C1([H])[H]

$$$$
66:0:0
     RDKit          3D

 92100  0  0  1  0  0  0  0  0999 V2000
  -29.4700  -18.0740   18.4480 C   0  0  0  0  0  2  0  0  0  0  0  0
  -28.0010  -19.6990   20.2660 C   0  0  0  0  0  2  0  0  0  0  0  0
  -29.9580  -18.3300   19.7520 C   0  0  0  0  0  3  0  0  0  0  0  0
  -29.4080  -19.7570   20.2280 C   0  0  0  0  0  3  0  0  0  0  0  0
  -28.1180  -18.4110   18.1870 C   0  0  0  0  0  0  0  0  0  0  0  0
  -27.3650  -19.1110   19.1550 C   0  0  0  0  0  0  0  0  0  0  0  0
  -27.5180  -17.9740   17.0550 F   0  0  0  0  0  0  0  0  0  0  0  0
  -26.0400  -19.3240   18.9630 F   0  0  0  0  0  0  0  0  0  0  0  0
  -30.6490  -15.4750   20.1780 C   0  0  0  0  0  0  0  0  0  0  0  0
  -30.5730  -12.9960   19.3780 C   0  0  0  0  0  2  0  0  0  0  0  0
  -29.6740  -12.7930   18.1290 C   0  0  0  0  0  2  0  0  0  0  0  0
  -28.2310  -12.5020   18.5640 C   0  0  0  0  0  2  0  0  0  0  0  0
  -27.7720  -13.4660   19.6880 C   0  0  0  0  0  3  0  0  0  0  0  0
  -28.8140  -13.6570   20.8180 C   0  0  0  0  0  2  0  0  0  0  0  0
  -30.0550  -14.1650   20.1870 N   0  0  0  0  0  0  0  0  0  0  0  0
  -31.8530  -15.4170   19.8880 O   0  0  0  0  0  0  0  0  0  0  0  0
  -29.9650  -16.8040   20.3780 N   0  0  0  0  0  0  0  0  0  0  0  0
  -29.1440  -16.6520   20.9400 H   0  0  0  0  0  0  0  0  0  0  0  0
  -25.3990  -14.0190   20.4130 C   0  0  0  0  0  0  0  0  0  0  0  0
  -24.3350  -13.2370   20.7830 C   0  0  0  0  0  0  0  0  0  0  0  0
  -24.8120  -11.8920   20.7690 C   0  0  0  0  0  0  0  0  0  0  0  0
  -26.4450  -13.1450   20.1940 N   0  0  0  0  0  0  0  0  0  0  0  0
  -26.1080  -11.8620   20.4740 N   0  0  0  0  0  0  0  0  0  0  0  0
  -24.0890  -10.6260   20.9630 C   0  0  0  0  0  0  0  0  0  0  0  0
  -24.5000   -9.6780   21.9240 C   0  0  0  0  0  3  0  0  0  0  0  0
  -23.7720   -8.4830   22.1120 C   0  0  0  0  0  3  0  0  0  0  0  0
  -22.6170   -8.2250   21.3360 C   0  0  0  0  0  0  0  0  0  0  0  0
  -22.2230   -9.1640   20.3630 C   0  0  0  0  0  3  0  0  0  0  0  0
  -22.9550  -10.3490   20.1750 C   0  0  0  0  0  3  0  0  0  0  0  0
  -21.8650   -7.0810   21.4270 O   0  0  0  0  0  0  0  0  0  0  0  0
  -21.7910   -6.3580   22.5920 C   0  0  0  0  0  0  0  0  0  0  0  0
  -21.3060   -6.9260   23.7890 C   0  0  0  0  0  3  0  0  0  0  0  0
  -21.1830   -6.1300   24.9420 C   0  0  0  0  0  3  0  0  0  0  0  0
  -21.5290   -4.7680   24.9000 C   0  0  0  0  0  0  0  0  0  0  0  0
  -22.0100   -4.2000   23.7090 C   0  0  0  0  0  3  0  0  0  0  0  0
  -22.1390   -4.9930   22.5550 C   0  0  0  0  0  0  0  0  0  0  0  0
  -22.5800   -4.4330   21.4030 F   0  0  0  0  0  0  0  0  0  0  0  0
  -21.4000   -4.0050   26.0120 F   0  0  0  0  0  0  0  0  0  0  0  0
  -22.9350  -13.7140   21.0260 C   0  0  0  0  0  0  0  0  0  0  0  0
  -22.1910  -13.0280   21.8890 N   0  0  0  0  0  0  0  0  0  0  0  0
  -22.5010  -14.7260   20.4800 O   0  0  0  0  0  0  0  0  0  0  0  0
  -22.5430  -12.2070   22.3570 H   0  0  0  0  0  0  0  0  0  0  0  0
  -21.2480  -13.3340   22.0850 H   0  0  0  0  0  0  0  0  0  0  0  0
  -25.5610  -15.3860   20.2160 N   0  0  0  0  0  0  0  0  0  0  0  0
  -24.8070  -16.0490   20.3520 H   0  0  0  0  0  0  0  0  0  0  0  0
  -26.4180  -15.8180   19.9040 H   0  0  0  0  0  0  0  0  0  0  0  0
  -29.1310  -22.6740   20.4620 C   0  0  0  0  0  0  0  0  0  0  0  0
  -30.8060  -21.5670   18.9590 C   0  0  0  0  0  1  0  0  0  0  0  0
  -29.7020  -21.3650   19.9220 N   0  0  0  0  0  0  0  0  0  0  0  0
  -28.7690  -22.6140   21.6410 O   0  0  0  0  0  0  0  0  0  0  0  0
  -28.8440  -24.3120   19.7710 C   0  0  0  0  0  2  0  0  0  0  0  0
  -28.6370  -25.8430   20.4740 O   0  0  0  0  0  0  0  0  0  0  0  0
  -24.7540  -31.8700   23.2070 C   0  0  0  0  0  0  0  0  0  0  0  0
  -27.5970  -26.9450   20.3400 C   0  0  0  0  0  0  0  0  0  0  0  0
  -23.6850  -30.4210   21.5260 C   0  0  0  0  0  3  0  0  0  0  0  0
  -25.2570  -28.8210   20.1980 C   0  0  0  0  0  0  0  0  0  0  0  0
  -26.2570  -30.6600   21.5320 C   0  0  0  0  0  2  0  0  0  0  0  0
  -26.3980  -29.2410   20.8820 C   0  0  0  0  0  0  0  0  0  0  0  0
  -27.5540  -28.3180   20.9330 C   0  0  0  0  0  3  0  0  0  0  0  0
  -26.3970  -26.6900   19.6390 C   0  0  0  0  0  3  0  0  0  0  0  0
  -25.2870  -27.5740   19.5530 C   0  0  0  0  0  3  0  0  0  0  0  0
  -24.0190  -29.7150   20.1780 C   0  0  0  0  0  2  0  0  0  0  0  0
  -24.9160  -31.0160   22.1410 N   0  0  0  0  0  0  0  0  0  0  0  0
  -23.6300  -32.1430   23.6650 O   0  0  0  0  0  0  0  0  0  0  0  0
  -22.9470  -29.4370   22.4760 C   0  0  0  0  0  0  0  0  0  0  0  0
  -21.6200  -29.2750   22.3080 N   0  0  0  0  0  0  0  0  0  0  0  0
  -23.5800  -28.8230   23.3380 O   0  0  0  0  0  0  0  0  0  0  0  0
  -21.1600  -29.8200   21.5940 H   0  0  0  0  0  0  0  0  0  0  0  0
  -18.2160  -28.0590   22.7230 C   0  0  0  0  0  0  0  0  0  0  0  0
  -20.7710  -28.3360   23.0570 C   0  0  0  0  0  3  0  0  0  0  0  0
  -20.8970  -26.9080   22.4800 C   0  0  0  0  0  2  0  0  0  0  0  0
  -19.8240  -26.5830   21.4340 C   0  0  0  0  0  2  0  0  0  0  0  0
  -18.4250  -26.7160   22.0430 C   0  0  0  0  0  2  0  0  0  0  0  0
  -19.3220  -28.8280   23.1840 C   0  0  0  0  0  0  0  0  0  0  0  0
  -19.0790  -30.0770   23.7890 C   0  0  0  0  0  3  0  0  0  0  0  0
  -17.7650  -30.5660   23.9380 C   0  0  0  0  0  3  0  0  0  0  0  0
  -16.6770  -29.7990   23.4920 C   0  0  0  0  0  3  0  0  0  0  0  0
  -16.9030  -28.5460   22.8890 C   0  0  0  0  0  3  0  0  0  0  0  0
  -25.9740  -32.5550   23.8950 C   0  0  0  0  0  3  0  0  0  0  0  0
  -25.6090  -33.9530   24.1970 N   0  0  0  0  0  0  0  0  0  0  0  0
  -25.9440  -35.0170   23.4530 C   0  0  0  0  0  0  0  0  0  0  0  0
  -26.6550  -34.9290   22.4480 O   0  0  0  0  0  0  0  0  0  0  0  0
  -24.9880  -34.0930   24.9800 H   0  0  0  0  0  0  0  0  0  0  0  0
  -24.1870  -36.7760   23.0510 C   0  0  0  0  0  1  0  0  0  0  0  0
  -25.4170  -36.4000   23.8930 C   0  0  0  0  0  3  0  0  0  0  0  0
  -27.4980  -37.3510   24.7870 C   0  0  0  0  0  1  0  0  0  0  0  0
  -26.4280  -37.4780   23.8010 N   0  0  0  0  0  0  0  0  0  0  0  0
  -25.9930  -38.3860   23.9300 H   0  0  0  0  0  0  0  0  0  0  0  0
  -26.4300  -31.8250   25.2170 C   0  0  1  0  0  0  0  0  0  0  0  0
  -25.2770  -31.5830   26.2190 C   0  0  0  0  0  1  0  0  0  0  0  0
  -27.0720  -30.4540   24.9070 C   0  0  0  0  0  1  0  0  0  0  0  0
  -27.5160  -32.6620   25.9350 C   0  0  0  0  0  1  0  0  0  0  0  0
  1  3  1  0
  3  4  1  0
  3 17  1  0
  4 49  1  0
  4  2  1  0
  5  1  1  0
  5  6  2  0
  6  2  1  0
  7  5  1  0
  8  6  1  0
  9 15  1  0
  9 17  1  0
 10 15  1  0
 11 12  1  0
 11 10  1  0
 13 12  1  0
 13 22  1  0
 13 14  1  0
 15 14  1  0
 16  9  2  0
 17 18  1  0
 19 20  2  0
 20 39  1  0
 21 20  1  0
 21 24  1  0
 22 19  1  0
 22 23  1  0
 23 21  2  0
 24 25  1  0
 25 26  2  0
 27 30  1  0
 27 26  1  0
 28 27  2  0
 29 28  1  0
 29 24  2  0
 30 31  1  0
 31 32  1  0
 32 33  2  0
 34 33  1  0
 34 38  1  0
 35 34  2  0
 36 31  2  0
 36 35  1  0
 37 36  1  0
 39 40  1  0
 40 43  1  0
 40 42  1  0
 41 39  2  0
 44 45  1  0
 44 19  1  0
 46 44  1  0
 47 50  2  0
 48 49  1  0
 49 47  1  0
 51 47  1  0
 51 52  1  0
 53 64  2  0
 54 52  1  0
 54 59  1  0
 55 63  1  0
 55 65  1  0
 56 58  1  0
 57 63  1  0
 58 59  2  0
 58 57  1  0
 60 54  2  0
 61 60  1  0
 61 56  2  0
 62 56  1  0
 62 55  1  0
 63 53  1  0
 65 67  2  0
 66 65  1  0
 68 66  1  0
 69 78  2  0
 69 74  1  0
 70 66  1  0
 70 74  1  0
 71 70  1  0
 72 73  1  0
 72 71  1  0
 73 69  1  0
 74 75  2  0
 75 76  1  0
 77 76  2  0
 78 77  1  0
 79 53  1  0
 79 80  1  0
 79 89  1  0
 80 83  1  0
 81 85  1  0
 81 80  1  0
 82 81  2  0
 85 84  1  0
 87 85  1  0
 87 88  1  0
 87 86  1  0
 89 92  1  1
 89 90  1  0
 91 89  1  0
M  ISO  4   9 100  17 100  51 101  52 101
M  END
>  <TORSDO>  (67) 
F 18

>  <SCORE>  (67) 
-15.690

>  <name>  (67) 
66

>  <ligand_id>  (67) 
66

>  <original_smiles>  (67) 
[H]c1c([H])c([H])c2c(c1[H])C([H])([H])C([H])([H])C([H])([H])C2([H])N([H])C(=O)C1([H])N(C(=O)C([H])(N([H])C(=O)C([H])(N([H])C([H])([H])[H])C([H])([H])[H])C(C([H])([H])[H])(C([H])([H])[H])C([H])([H])[H])C([H])([H])c2c([H])c(OC([H])([H])C(=O)N(c3c([H])c(F)c(F)c([H])c3N([H])C(=O)N3C([H])([H])C([H])([H])C([H])([H])C([H])(n4nc(-c5c([H])c([H])c(Oc6c([H])c([H])c(F)c([H])c6F)c([H])c5[H])c(C(=O)N([H])[H])c4N([H])[H])C3([H])[H])C([H])([H])[H])c([H])c([H])c2C1([H])[H]

>  <smiles>  (67) 
[H]c1c([H])c([H])c2c(c1[H])C([H])([H])C([H])([H])C([H])([H])C2([H])N([H])C(=O)C1([H])N(C(=O)C([H])(N([H])C(=O)C([H])(N([H])C([H])([H])[H])C([H])([H])[H])C(C([H])([H])[H])(C([H])([H])[H])C([H])([H])[H])C([H])([H])c2c([H])c(OC([H])([H])C(=O)N(c3c([H])c(F)c(F)c([H])c3N([H])C(=O)N3C([H])([H])C([H])([H])C([H])([H])C([H])(n4nc(-c5c([H])c([H])c(Oc6c([H])c([H])c(F)c([H])c6F)c([H])c5[H])c(C(=O)N([H])[H])c4N([H])[H])C3([H])[H])C([H])([H])[H])c([H])c([H])c2C1([H])[H]

$$$$
67:0:0
     RDKit          3D

 91 99  0  0  1  0  0  0  0  0999 V2000
  -28.5850  -18.1650   19.5580 C   0  0  0  0  0  3  0  0  0  0  0  0
  -30.3310  -18.6520   21.0610 C   0  0  0  0  0  3  0  0  0  0  0  0
  -29.6110  -17.6080   20.3780 C   0  0  0  0  0  0  0  0  0  0  0  0
  -28.9310  -20.6250   20.1890 C   0  0  0  0  0  0  0  0  0  0  0  0
  -28.2750  -19.5710   19.4530 C   0  0  0  0  0  0  0  0  0  0  0  0
  -30.0170  -20.0790   20.9710 C   0  0  0  0  0  0  0  0  0  0  0  0
  -27.2520  -19.9030   18.6250 F   0  0  0  0  0  0  0  0  0  0  0  0
  -30.7490  -20.9340   21.7290 F   0  0  0  0  0  0  0  0  0  0  0  0
  -30.5160  -15.0050   20.4090 C   0  0  0  0  0  0  0  0  0  0  0  0
  -30.4250  -12.6540   19.4830 C   0  0  0  0  0  2  0  0  0  0  0  0
  -29.4980  -12.6300   18.2430 C   0  0  0  0  0  2  0  0  0  0  0  0
  -28.0270  -12.4330   18.6610 C   0  0  0  0  0  2  0  0  0  0  0  0
  -27.6180  -13.3630   19.8330 C   0  0  0  0  0  3  0  0  0  0  0  0
  -28.6610  -13.3440   20.9720 C   0  0  0  0  0  2  0  0  0  0  0  0
  -29.9520  -13.7350   20.3860 N   0  0  0  0  0  0  0  0  0  0  0  0
  -31.7050  -15.1280   20.0940 O   0  0  0  0  0  0  0  0  0  0  0  0
  -29.6550  -16.1000   20.6270 N   0  0  0  0  0  0  0  0  0  0  0  0
  -28.7390  -15.7340   20.8350 H   0  0  0  0  0  0  0  0  0  0  0  0
  -25.2330  -13.9680   20.5520 C   0  0  0  0  0  0  0  0  0  0  0  0
  -24.1580  -13.2030   20.9110 C   0  0  0  0  0  0  0  0  0  0  0  0
  -24.6100  -11.8480   20.8780 C   0  0  0  0  0  0  0  0  0  0  0  0
  -26.2690  -13.0800   20.3150 N   0  0  0  0  0  0  0  0  0  0  0  0
  -25.9020  -11.8000   20.5770 N   0  0  0  0  0  0  0  0  0  0  0  0
  -23.8710  -10.5910   21.0580 C   0  0  0  0  0  0  0  0  0  0  0  0
  -24.2880   -9.6140   21.9890 C   0  0  0  0  0  3  0  0  0  0  0  0
  -23.5490   -8.4220   22.1550 C   0  0  0  0  0  3  0  0  0  0  0  0
  -22.3780   -8.2000   21.3920 C   0  0  0  0  0  0  0  0  0  0  0  0
  -21.9810   -9.1650   20.4500 C   0  0  0  0  0  3  0  0  0  0  0  0
  -22.7200  -10.3490   20.2810 C   0  0  0  0  0  3  0  0  0  0  0  0
  -21.6120   -7.0620   21.4680 O   0  0  0  0  0  0  0  0  0  0  0  0
  -21.5470   -6.3150   22.6170 C   0  0  0  0  0  0  0  0  0  0  0  0
  -21.0880   -6.8600   23.8350 C   0  0  0  0  0  3  0  0  0  0  0  0
  -20.9700   -6.0390   24.9740 C   0  0  0  0  0  3  0  0  0  0  0  0
  -21.3020   -4.6730   24.8970 C   0  0  0  0  0  0  0  0  0  0  0  0
  -21.7540   -4.1270   23.6830 C   0  0  0  0  0  3  0  0  0  0  0  0
  -21.8740   -4.9450   22.5450 C   0  0  0  0  0  0  0  0  0  0  0  0
  -22.2910   -4.4100   21.3730 F   0  0  0  0  0  0  0  0  0  0  0  0
  -21.1820   -3.8820   25.9880 F   0  0  0  0  0  0  0  0  0  0  0  0
  -22.7630  -13.6920   21.1710 C   0  0  0  0  0  0  0  0  0  0  0  0
  -22.0240  -13.0060   22.0360 N   0  0  0  0  0  0  0  0  0  0  0  0
  -22.3360  -14.7190   20.6440 O   0  0  0  0  0  0  0  0  0  0  0  0
  -22.3800  -12.1750   22.4860 H   0  0  0  0  0  0  0  0  0  0  0  0
  -21.0890  -13.3180   22.2550 H   0  0  0  0  0  0  0  0  0  0  0  0
  -25.4080  -15.3390   20.3790 N   0  0  0  0  0  0  0  0  0  0  0  0
  -24.6390  -15.9930   20.4780 H   0  0  0  0  0  0  0  0  0  0  0  0
  -26.2440  -15.7670   20.0050 H   0  0  0  0  0  0  0  0  0  0  0  0
  -26.9670  -21.9900   20.5600 C   0  0  0  0  0  1  0  0  0  0  0  0
  -28.3820  -22.0200   20.1820 N   0  0  0  0  0  0  0  0  0  0  0  0
  -28.9760  -23.4510   20.3300 C   0  0  0  0  0  3  0  0  0  0  0  0
  -28.0230  -24.8030   20.0000 C   0  0  0  0  0  3  0  0  0  0  0  0
  -28.3080  -26.3070   20.2320 O   0  0  0  0  0  0  0  0  0  0  0  0
  -24.6490  -31.9110   23.2770 C   0  0  0  0  0  0  0  0  0  0  0  0
  -27.2430  -27.2740   20.1720 C   0  0  0  0  0  0  0  0  0  0  0  0
  -23.4510  -30.5390   21.6160 C   0  0  0  0  0  3  0  0  0  0  0  0
  -24.9050  -28.9960   20.1670 C   0  0  0  0  0  0  0  0  0  0  0  0
  -26.0040  -30.8190   21.4560 C   0  0  0  0  0  2  0  0  0  0  0  0
  -26.0820  -29.4400   20.7840 C   0  0  0  0  0  0  0  0  0  0  0  0
  -27.2520  -28.5960   20.7700 C   0  0  0  0  0  3  0  0  0  0  0  0
  -26.0400  -26.9290   19.5150 C   0  0  0  0  0  3  0  0  0  0  0  0
  -24.8950  -27.7530   19.5180 C   0  0  0  0  0  3  0  0  0  0  0  0
  -23.6750  -29.8860   20.2260 C   0  0  0  0  0  2  0  0  0  0  0  0
  -24.7210  -31.1100   22.1720 N   0  0  0  0  0  0  0  0  0  0  0  0
  -23.5620  -32.1840   23.8100 O   0  0  0  0  0  0  0  0  0  0  0  0
  -22.7770  -29.5140   22.5610 C   0  0  0  0  0  0  0  0  0  0  0  0
  -21.4490  -29.3420   22.4280 N   0  0  0  0  0  0  0  0  0  0  0  0
  -23.4490  -28.8770   23.3760 O   0  0  0  0  0  0  0  0  0  0  0  0
  -20.9630  -29.9080   21.7470 H   0  0  0  0  0  0  0  0  0  0  0  0
  -18.0690  -28.1320   22.9070 C   0  0  0  0  0  0  0  0  0  0  0  0
  -20.6280  -28.3910   23.1830 C   0  0  0  0  0  3  0  0  0  0  0  0
  -20.7310  -26.9690   22.5840 C   0  0  0  0  0  2  0  0  0  0  0  0
  -19.6310  -26.6620   21.5640 C   0  0  0  0  0  2  0  0  0  0  0  0
  -18.2480  -26.7930   22.2090 C   0  0  0  0  0  2  0  0  0  0  0  0
  -19.1870  -28.8880   23.3510 C   0  0  0  0  0  0  0  0  0  0  0  0
  -18.9640  -30.1400   23.9640 C   0  0  0  0  0  3  0  0  0  0  0  0
  -17.6590  -30.6350   24.1390 C   0  0  0  0  0  3  0  0  0  0  0  0
  -16.5560  -29.8750   23.7120 C   0  0  0  0  0  3  0  0  0  0  0  0
  -16.7620  -28.6250   23.1010 C   0  0  0  0  0  3  0  0  0  0  0  0
  -25.9260  -32.5380   23.9150 C   0  0  0  0  0  3  0  0  0  0  0  0
  -26.4210  -31.7660   25.2000 C   0  0  1  0  0  0  0  0  0  0  0  0
  -25.3120  -31.5380   26.2530 C   0  0  0  0  0  1  0  0  0  0  0  0
  -27.0000  -30.3840   24.8220 C   0  0  0  0  0  1  0  0  0  0  0  0
  -27.5670  -32.5550   25.8760 C   0  0  0  0  0  1  0  0  0  0  0  0
  -25.6210  -33.9400   24.2430 N   0  0  0  0  0  0  0  0  0  0  0  0
  -25.9320  -34.9910   23.4730 C   0  0  0  0  0  0  0  0  0  0  0  0
  -26.5750  -34.8830   22.4250 O   0  0  0  0  0  0  0  0  0  0  0  0
  -25.0490  -34.0970   25.0600 H   0  0  0  0  0  0  0  0  0  0  0  0
  -24.1810  -36.7730   23.1770 C   0  0  0  0  0  1  0  0  0  0  0  0
  -25.4590  -36.3820   23.9370 C   0  0  0  0  0  3  0  0  0  0  0  0
  -27.6170  -37.2950   24.6720 C   0  0  0  0  0  1  0  0  0  0  0  0
  -26.4790  -37.4390   23.7680 N   0  0  0  0  0  0  0  0  0  0  0  0
  -26.0710  -38.3590   23.9150 H   0  0  0  0  0  0  0  0  0  0  0  0
  1  3  1  0
  3 17  1  0
  3  2  2  0
  4  6  2  0
  5  1  2  0
  5  4  1  0
  6  2  1  0
  6  8  1  0
  7  5  1  0
  9 17  1  0
 10 15  1  0
 11 12  1  0
 11 10  1  0
 13 12  1  0
 13 22  1  0
 13 14  1  0
 15  9  1  0
 15 14  1  0
 16  9  2  0
 17 18  1  0
 19 20  2  0
 20 39  1  0
 21 20  1  0
 21 24  1  0
 22 19  1  0
 22 23  1  0
 23 21  2  0
 24 25  1  0
 25 26  2  0
 27 30  1  0
 27 26  1  0
 28 27  2  0
 29 28  1  0
 29 24  2  0
 30 31  1  0
 31 32  1  0
 32 33  2  0
 34 33  1  0
 34 38  1  0
 35 34  2  0
 36 31  2  0
 36 35  1  0
 37 36  1  0
 39 40  1  0
 40 43  1  0
 40 42  1  0
 41 39  2  0
 44 45  1  0
 44 19  1  0
 46 44  1  0
 48  4  1  0
 48 49  1  0
 48 47  1  0
 50 51  1  0
 50 49  2  0
 52 63  2  0
 53 51  1  0
 53 58  1  0
 54 62  1  0
 54 64  1  0
 55 61  1  0
 55 57  1  0
 56 62  1  0
 57 56  1  0
 58 57  2  0
 59 60  1  0
 59 53  2  0
 60 55  2  0
 61 54  1  0
 62 52  1  0
 64 66  2  0
 65 64  1  0
 67 65  1  0
 68 77  2  0
 68 73  1  0
 69 65  1  0
 69 73  1  0
 70 69  1  0
 71 72  1  0
 71 70  1  0
 72 68  1  0
 73 74  2  0
 74 75  1  0
 76 75  2  0
 77 76  1  0
 78 52  1  0
 78 83  1  0
 78 79  1  0
 79 82  1  1
 79 80  1  0
 81 79  1  0
 83 86  1  0
 84 88  1  0
 84 83  1  0
 85 84  2  0
 88 87  1  0
 90 91  1  0
 90 88  1  0
 90 89  1  0
M  ISO  4   9 100  17 100  50 101  51 101
M  END
>  <TORSDO>  (68) 
F 19

>  <SCORE>  (68) 
-14.186

>  <name>  (68) 
67

>  <ligand_id>  (68) 
67

>  <original_smiles>  (68) 
[H]c1c([H])c([H])c2c(c1[H])C([H])([H])C([H])([H])C([H])([H])C2([H])N([H])C(=O)C1([H])N(C(=O)C([H])(N([H])C(=O)C([H])(N([H])C([H])([H])[H])C([H])([H])[H])C(C([H])([H])[H])(C([H])([H])[H])C([H])([H])[H])C([H])([H])c2c([H])c(OC([H])([H])C([H])([H])N(c3c(F)c([H])c(N([H])C(=O)N4C([H])([H])C([H])([H])C([H])([H])C([H])(n5nc(-c6c([H])c([H])c(Oc7c([H])c([H])c(F)c([H])c7F)c([H])c6[H])c(C(=O)N([H])[H])c5N([H])[H])C4([H])[H])c([H])c3F)C([H])([H])[H])c([H])c([H])c2C1([H])[H]

>  <smiles>  (68) 
[H]c1c([H])c([H])c2c(c1[H])C([H])([H])C([H])([H])C([H])([H])C2([H])N([H])C(=O)C1([H])N(C(=O)C([H])(N([H])C(=O)C([H])(N([H])C([H])([H])[H])C([H])([H])[H])C(C([H])([H])[H])(C([H])([H])[H])C([H])([H])[H])C([H])([H])c2c([H])c(OC([H])([H])C([H])([H])N(c3c(F)c([H])c(N([H])C(=O)N4C([H])([H])C([H])([H])C([H])([H])C([H])(n5nc(-c6c([H])c([H])c(Oc7c([H])c([H])c(F)c([H])c7F)c([H])c6[H])c(C(=O)N([H])[H])c5N([H])[H])C4([H])[H])c([H])c3F)C([H])([H])[H])c([H])c([H])c2C1([H])[H]

$$$$
68:0:0
     RDKit          3D

 91 99  0  0  1  0  0  0  0  0999 V2000
  -28.2050  -23.1130   20.1630 C   0  0  0  0  0  0  0  0  0  0  0  0
  -30.4020  -22.3880   20.9420 C   0  0  0  0  0  1  0  0  0  0  0  0
  -29.1320  -21.9990   20.3330 N   0  0  0  0  0  0  0  0  0  0  0  0
  -27.0050  -22.8610   20.3090 O   0  0  0  0  0  0  0  0  0  0  0  0
  -29.1930  -17.8010   18.6480 C   0  0  0  0  0  3  0  0  0  0  0  0
  -28.6550  -20.2370   18.5960 C   0  0  0  0  0  3  0  0  0  0  0  0
  -29.5200  -19.1940   20.6050 C   0  0  0  0  0  3  0  0  0  0  0  0
  -28.7360  -18.9650   17.9750 C   0  0  0  0  0  0  0  0  0  0  0  0
  -29.5900  -17.8020   20.0010 C   0  0  0  0  0  0  0  0  0  0  0  0
  -29.0650  -20.4750   19.9270 C   0  0  0  0  0  0  0  0  0  0  0  0
  -28.3250  -18.8540   16.5190 C   0  0  0  0  0  1  0  0  0  0  0  0
  -30.5540  -15.1760   20.2500 C   0  0  0  0  0  0  0  0  0  0  0  0
  -30.4930  -12.7760   19.3680 C   0  0  0  0  0  2  0  0  0  0  0  0
  -29.5720  -12.6860   18.1270 C   0  0  0  0  0  2  0  0  0  0  0  0
  -28.1130  -12.4460   18.5520 C   0  0  0  0  0  2  0  0  0  0  0  0
  -27.6850  -13.3730   19.7170 C   0  0  0  0  0  3  0  0  0  0  0  0
  -28.7330  -13.4300   20.8510 C   0  0  0  0  0  2  0  0  0  0  0  0
  -29.9970  -13.8820   20.2530 N   0  0  0  0  0  0  0  0  0  0  0  0
  -31.7290  -15.2370   19.8680 O   0  0  0  0  0  0  0  0  0  0  0  0
  -29.8230  -16.3740   20.6130 N   0  0  0  0  0  0  0  0  0  0  0  0
  -29.0700  -16.1250   21.2370 H   0  0  0  0  0  0  0  0  0  0  0  0
  -25.3000  -13.9250   20.4520 C   0  0  0  0  0  0  0  0  0  0  0  0
  -24.2420  -13.1420   20.8190 C   0  0  0  0  0  0  0  0  0  0  0  0
  -24.7170  -11.7940   20.7900 C   0  0  0  0  0  0  0  0  0  0  0  0
  -26.3510  -13.0560   20.2120 N   0  0  0  0  0  0  0  0  0  0  0  0
  -26.0100  -11.7690   20.4830 N   0  0  0  0  0  0  0  0  0  0  0  0
  -23.9990  -10.5270   20.9800 C   0  0  0  0  0  0  0  0  0  0  0  0
  -24.4300   -9.5630   21.9180 C   0  0  0  0  0  3  0  0  0  0  0  0
  -23.7090   -8.3630   22.0960 C   0  0  0  0  0  3  0  0  0  0  0  0
  -22.5410   -8.1170   21.3360 C   0  0  0  0  0  0  0  0  0  0  0  0
  -22.1280   -9.0690   20.3860 C   0  0  0  0  0  3  0  0  0  0  0  0
  -22.8510  -10.2600   20.2070 C   0  0  0  0  0  3  0  0  0  0  0  0
  -21.7930   -6.9690   21.4230 O   0  0  0  0  0  0  0  0  0  0  0  0
  -21.7390   -6.2300   22.5770 C   0  0  0  0  0  0  0  0  0  0  0  0
  -21.2950   -6.7850   23.7980 C   0  0  0  0  0  3  0  0  0  0  0  0
  -21.1880   -5.9730   24.9440 C   0  0  0  0  0  3  0  0  0  0  0  0
  -21.5150   -4.6060   24.8720 C   0  0  0  0  0  0  0  0  0  0  0  0
  -21.9510   -4.0490   23.6560 C   0  0  0  0  0  3  0  0  0  0  0  0
  -22.0590   -4.8590   22.5130 C   0  0  0  0  0  0  0  0  0  0  0  0
  -22.4600   -4.3120   21.3380 F   0  0  0  0  0  0  0  0  0  0  0  0
  -21.4060   -3.8230   25.9710 F   0  0  0  0  0  0  0  0  0  0  0  0
  -22.8400  -13.6100   21.0830 C   0  0  0  0  0  0  0  0  0  0  0  0
  -22.1130  -12.9100   21.9460 N   0  0  0  0  0  0  0  0  0  0  0  0
  -22.4000  -14.6330   20.5600 O   0  0  0  0  0  0  0  0  0  0  0  0
  -22.4810  -12.0850   22.3930 H   0  0  0  0  0  0  0  0  0  0  0  0
  -21.1720  -13.2070   22.1640 H   0  0  0  0  0  0  0  0  0  0  0  0
  -25.4540  -15.2970   20.2760 N   0  0  0  0  0  0  0  0  0  0  0  0
  -24.6820  -15.9440   20.3870 H   0  0  0  0  0  0  0  0  0  0  0  0
  -26.2970  -15.7430   19.9330 H   0  0  0  0  0  0  0  0  0  0  0  0
  -28.5240  -24.7200   19.6840 C   0  0  0  0  0  2  0  0  0  0  0  0
  -28.2350  -26.1100   20.4070 O   0  0  0  0  0  0  0  0  0  0  0  0
  -24.6110  -31.9180   23.2100 C   0  0  0  0  0  0  0  0  0  0  0  0
  -27.1990  -27.1220   20.2210 C   0  0  0  0  0  0  0  0  0  0  0  0
  -23.4190  -30.5070   21.5770 C   0  0  0  0  0  3  0  0  0  0  0  0
  -24.8750  -28.9110   20.1580 C   0  0  0  0  0  0  0  0  0  0  0  0
  -25.9760  -30.7530   21.4250 C   0  0  0  0  0  2  0  0  0  0  0  0
  -26.0490  -29.3510   20.7790 C   0  0  0  0  0  0  0  0  0  0  0  0
  -27.2020  -28.4670   20.7980 C   0  0  0  0  0  3  0  0  0  0  0  0
  -26.0030  -26.8030   19.5430 C   0  0  0  0  0  3  0  0  0  0  0  0
  -24.8690  -27.6550   19.5220 C   0  0  0  0  0  3  0  0  0  0  0  0
  -23.6460  -29.8150   20.2030 C   0  0  0  0  0  2  0  0  0  0  0  0
  -24.6890  -31.0850   22.1250 N   0  0  0  0  0  0  0  0  0  0  0  0
  -23.5230  -32.2070   23.7320 O   0  0  0  0  0  0  0  0  0  0  0  0
  -22.7330  -29.5140   22.5490 C   0  0  0  0  0  0  0  0  0  0  0  0
  -21.4020  -29.3540   22.4300 N   0  0  0  0  0  0  0  0  0  0  0  0
  -23.4020  -28.8880   23.3740 O   0  0  0  0  0  0  0  0  0  0  0  0
  -20.9180  -29.9090   21.7390 H   0  0  0  0  0  0  0  0  0  0  0  0
  -18.0150  -28.1790   22.9600 C   0  0  0  0  0  0  0  0  0  0  0  0
  -20.5780  -28.4250   23.2080 C   0  0  0  0  0  3  0  0  0  0  0  0
  -20.6650  -26.9910   22.6340 C   0  0  0  0  0  2  0  0  0  0  0  0
  -19.5540  -26.6750   21.6280 C   0  0  0  0  0  2  0  0  0  0  0  0
  -18.1780  -26.8300   22.2810 C   0  0  0  0  0  2  0  0  0  0  0  0
  -19.1420  -28.9350   23.3810 C   0  0  0  0  0  0  0  0  0  0  0  0
  -18.9330  -30.1970   23.9780 C   0  0  0  0  0  3  0  0  0  0  0  0
  -17.6320  -30.7030   24.1590 C   0  0  0  0  0  3  0  0  0  0  0  0
  -16.5210  -29.9450   23.7520 C   0  0  0  0  0  3  0  0  0  0  0  0
  -16.7130  -28.6850   23.1580 C   0  0  0  0  0  3  0  0  0  0  0  0
  -25.8850  -32.5620   23.8390 C   0  0  0  0  0  3  0  0  0  0  0  0
  -25.5680  -33.9630   24.1650 N   0  0  0  0  0  0  0  0  0  0  0  0
  -25.8990  -35.0200   23.4110 C   0  0  0  0  0  0  0  0  0  0  0  0
  -26.5680  -34.9190   22.3790 O   0  0  0  0  0  0  0  0  0  0  0  0
  -24.9720  -34.1140   24.9650 H   0  0  0  0  0  0  0  0  0  0  0  0
  -24.1710  -36.8190   23.0650 C   0  0  0  0  0  1  0  0  0  0  0  0
  -25.4140  -36.4100   23.8720 C   0  0  0  0  0  3  0  0  0  0  0  0
  -27.5480  -37.2970   24.7030 C   0  0  0  0  0  1  0  0  0  0  0  0
  -26.4460  -37.4630   23.7590 N   0  0  0  0  0  0  0  0  0  0  0  0
  -26.0400  -38.3830   23.9050 H   0  0  0  0  0  0  0  0  0  0  0  0
  -26.3920  -31.8050   25.1280 C   0  0  1  0  0  0  0  0  0  0  0  0
  -25.2920  -31.5780   26.1910 C   0  0  0  0  0  1  0  0  0  0  0  0
  -26.9780  -30.4230   24.7610 C   0  0  0  0  0  1  0  0  0  0  0  0
  -27.5380  -32.6070   25.7910 C   0  0  0  0  0  1  0  0  0  0  0  0
  1  4  2  0
  1  3  1  0
  3  2  1  0
  5  9  1  0
  6 10  2  0
  8  6  1  0
  8  5  2  0
  9  7  2  0
  9 20  1  0
 10  3  1  0
 10  7  1  0
 11  8  1  0
 12 18  1  0
 12 20  1  0
 13 18  1  0
 14 15  1  0
 14 13  1  0
 16 15  1  0
 16 25  1  0
 16 17  1  0
 18 17  1  0
 19 12  2  0
 20 21  1  0
 22 23  2  0
 23 42  1  0
 24 23  1  0
 24 27  1  0
 25 22  1  0
 25 26  1  0
 26 24  2  0
 27 28  1  0
 28 29  2  0
 30 33  1  0
 30 29  1  0
 31 30  2  0
 32 31  1  0
 32 27  2  0
 33 34  1  0
 34 35  1  0
 35 36  2  0
 37 36  1  0
 37 41  1  0
 38 37  2  0
 39 34  2  0
 39 38  1  0
 40 39  1  0
 42 43  1  0
 43 46  1  0
 43 45  1  0
 44 42  2  0
 47 48  1  0
 47 22  1  0
 49 47  1  0
 50  1  1  0
 50 51  1  0
 52 63  2  0
 53 51  1  0
 53 58  1  0
 54 62  1  0
 54 64  1  0
 55 61  1  0
 55 57  1  0
 56 62  1  0
 57 58  2  0
 57 56  1  0
 59 53  2  0
 60 59  1  0
 60 55  2  0
 61 54  1  0
 62 52  1  0
 64 66  2  0
 65 64  1  0
 67 65  1  0
 68 77  2  0
 68 73  1  0
 69 65  1  0
 69 73  1  0
 70 69  1  0
 71 72  1  0
 71 70  1  0
 72 68  1  0
 73 74  2  0
 74 75  1  0
 76 75  2  0
 77 76  1  0
 78 52  1  0
 78 79  1  0
 78 88  1  0
 79 82  1  0
 80 84  1  0
 80 79  1  0
 81 80  2  0
 84 83  1  0
 86 84  1  0
 86 87  1  0
 86 85  1  0
 88 91  1  1
 88 89  1  0
 90 88  1  0
M  ISO  4  12 100  20 100  50 101  51 101
M  END
>  <TORSDO>  (69) 
F 18

>  <SCORE>  (69) 
-15.631

>  <name>  (69) 
68

>  <ligand_id>  (69) 
68

>  <original_smiles>  (69) 
[H]c1c([H])c([H])c2c(c1[H])C([H])([H])C([H])([H])C([H])([H])C2([H])N([H])C(=O)C1([H])N(C(=O)C([H])(N([H])C(=O)C([H])(N([H])C([H])([H])[H])C([H])([H])[H])C(C([H])([H])[H])(C([H])([H])[H])C([H])([H])[H])C([H])([H])c2c([H])c(OC([H])([H])C(=O)N(c3c([H])c(N([H])C(=O)N4C([H])([H])C([H])([H])C([H])([H])C([H])(n5nc(-c6c([H])c([H])c(Oc7c([H])c([H])c(F)c([H])c7F)c([H])c6[H])c(C(=O)N([H])[H])c5N([H])[H])C4([H])[H])c([H])c(C([H])([H])[H])c3[H])C([H])([H])[H])c([H])c([H])c2C1([H])[H]

>  <smiles>  (69) 
[H]c1c([H])c([H])c2c(c1[H])C([H])([H])C([H])([H])C([H])([H])C2([H])N([H])C(=O)C1([H])N(C(=O)C([H])(N([H])C(=O)C([H])(N([H])C([H])([H])[H])C([H])([H])[H])C(C([H])([H])[H])(C([H])([H])[H])C([H])([H])[H])C([H])([H])c2c([H])c(OC([H])([H])C(=O)N(c3c([H])c(N([H])C(=O)N4C([H])([H])C([H])([H])C([H])([H])C([H])(n5nc(-c6c([H])c([H])c(Oc7c([H])c([H])c(F)c([H])c7F)c([H])c6[H])c(C(=O)N([H])[H])c5N([H])[H])C4([H])[H])c([H])c(C([H])([H])[H])c3[H])C([H])([H])[H])c([H])c([H])c2C1([H])[H]

$$$$
69:0:0
     RDKit          3D

 91 99  0  0  1  0  0  0  0  0999 V2000
  -28.8990  -23.4310   20.3970 C   0  0  0  0  0  0  0  0  0  0  0  0
  -28.5490  -22.1080   20.0260 N   0  0  0  0  0  0  0  0  0  0  0  0
  -29.9170  -23.6420   21.0610 O   0  0  0  0  0  0  0  0  0  0  0  0
  -27.7080  -22.1510   19.4660 H   0  0  0  0  0  0  0  0  0  0  0  0
  -30.0760  -20.0850   21.0000 C   0  0  0  0  0  3  0  0  0  0  0  0
  -30.3520  -18.6470   21.1050 C   0  0  0  0  0  3  0  0  0  0  0  0
  -28.3200  -19.6150   19.5050 C   0  0  0  0  0  3  0  0  0  0  0  0
  -29.0200  -20.6550   20.2000 C   0  0  0  0  0  0  0  0  0  0  0  0
  -29.6120  -17.6140   20.4180 C   0  0  0  0  0  0  0  0  0  0  0  0
  -28.5860  -18.1950   19.6030 C   0  0  0  0  0  0  0  0  0  0  0  0
  -27.5740  -17.1360   18.6880 Cl  0  0  0  0  0  0  0  0  0  0  0  0
  -30.5020  -14.9910   20.4450 C   0  0  0  0  0  0  0  0  0  0  0  0
  -30.4260  -12.6410   19.4990 C   0  0  0  0  0  2  0  0  0  0  0  0
  -29.5020  -12.6120   18.2590 C   0  0  0  0  0  2  0  0  0  0  0  0
  -28.0300  -12.4040   18.6690 C   0  0  0  0  0  2  0  0  0  0  0  0
  -27.6120  -13.3210   19.8480 C   0  0  0  0  0  3  0  0  0  0  0  0
  -28.6550  -13.3050   20.9870 C   0  0  0  0  0  2  0  0  0  0  0  0
  -29.9410  -13.7170   20.4050 N   0  0  0  0  0  0  0  0  0  0  0  0
  -31.7000  -15.1080   20.1590 O   0  0  0  0  0  0  0  0  0  0  0  0
  -29.6420  -16.0960   20.6400 N   0  0  0  0  0  0  0  0  0  0  0  0
  -28.7080  -15.7410   20.7710 H   0  0  0  0  0  0  0  0  0  0  0  0
  -25.2190  -13.9050   20.5540 C   0  0  0  0  0  0  0  0  0  0  0  0
  -24.1480  -13.1310   20.9070 C   0  0  0  0  0  0  0  0  0  0  0  0
  -24.6120  -11.7810   20.8790 C   0  0  0  0  0  0  0  0  0  0  0  0
  -26.2650  -13.0260   20.3240 N   0  0  0  0  0  0  0  0  0  0  0  0
  -25.9070  -11.7430   20.5860 N   0  0  0  0  0  0  0  0  0  0  0  0
  -23.8800  -10.5200   21.0560 C   0  0  0  0  0  0  0  0  0  0  0  0
  -24.2960   -9.5500   21.9950 C   0  0  0  0  0  3  0  0  0  0  0  0
  -23.5630   -8.3540   22.1600 C   0  0  0  0  0  3  0  0  0  0  0  0
  -22.4020   -8.1210   21.3860 C   0  0  0  0  0  0  0  0  0  0  0  0
  -22.0040   -9.0790   20.4380 C   0  0  0  0  0  3  0  0  0  0  0  0
  -22.7380  -10.2670   20.2710 C   0  0  0  0  0  3  0  0  0  0  0  0
  -21.6430   -6.9780   21.4620 O   0  0  0  0  0  0  0  0  0  0  0  0
  -21.5690   -6.2360   22.6140 C   0  0  0  0  0  0  0  0  0  0  0  0
  -21.1020   -6.7890   23.8260 C   0  0  0  0  0  3  0  0  0  0  0  0
  -20.9780   -5.9740   24.9700 C   0  0  0  0  0  3  0  0  0  0  0  0
  -21.3080   -4.6070   24.9010 C   0  0  0  0  0  0  0  0  0  0  0  0
  -21.7680   -4.0550   23.6920 C   0  0  0  0  0  3  0  0  0  0  0  0
  -21.8950   -4.8670   22.5510 C   0  0  0  0  0  0  0  0  0  0  0  0
  -22.3180   -4.3250   21.3840 F   0  0  0  0  0  0  0  0  0  0  0  0
  -21.1820   -3.8230   25.9960 F   0  0  0  0  0  0  0  0  0  0  0  0
  -22.7480  -13.6120   21.1570 C   0  0  0  0  0  0  0  0  0  0  0  0
  -22.0080  -12.9200   22.0150 N   0  0  0  0  0  0  0  0  0  0  0  0
  -22.3190  -14.6350   20.6250 O   0  0  0  0  0  0  0  0  0  0  0  0
  -22.3680  -12.0930   22.4680 H   0  0  0  0  0  0  0  0  0  0  0  0
  -21.0670  -13.2230   22.2250 H   0  0  0  0  0  0  0  0  0  0  0  0
  -25.3800  -15.2750   20.3800 N   0  0  0  0  0  0  0  0  0  0  0  0
  -24.5900  -15.9070   20.4560 H   0  0  0  0  0  0  0  0  0  0  0  0
  -26.1850  -15.7090   19.9460 H   0  0  0  0  0  0  0  0  0  0  0  0
  -27.9550  -24.7220   19.9610 C   0  0  0  0  0  2  0  0  0  0  0  0
  -28.2620  -26.2160   20.2760 O   0  0  0  0  0  0  0  0  0  0  0  0
  -24.6250  -31.8940   23.2590 C   0  0  0  0  0  0  0  0  0  0  0  0
  -27.2120  -27.2050   20.2000 C   0  0  0  0  0  0  0  0  0  0  0  0
  -23.4260  -30.5030   21.6160 C   0  0  0  0  0  3  0  0  0  0  0  0
  -24.8770  -28.9420   20.1810 C   0  0  0  0  0  0  0  0  0  0  0  0
  -25.9800  -30.7750   21.4500 C   0  0  0  0  0  2  0  0  0  0  0  0
  -26.0560  -29.3880   20.7910 C   0  0  0  0  0  0  0  0  0  0  0  0
  -27.2230  -28.5340   20.7880 C   0  0  0  0  0  3  0  0  0  0  0  0
  -26.0060  -26.8690   19.5420 C   0  0  0  0  0  3  0  0  0  0  0  0
  -24.8640  -27.6960   19.5410 C   0  0  0  0  0  3  0  0  0  0  0  0
  -23.6470  -29.8350   20.2340 C   0  0  0  0  0  2  0  0  0  0  0  0
  -24.6970  -31.0780   22.1630 N   0  0  0  0  0  0  0  0  0  0  0  0
  -23.5390  -32.1740   23.7880 O   0  0  0  0  0  0  0  0  0  0  0  0
  -22.7510  -29.4900   22.5740 C   0  0  0  0  0  0  0  0  0  0  0  0
  -21.4240  -29.3110   22.4420 N   0  0  0  0  0  0  0  0  0  0  0  0
  -23.4230  -28.8660   23.4000 O   0  0  0  0  0  0  0  0  0  0  0  0
  -20.9380  -29.8640   21.7510 H   0  0  0  0  0  0  0  0  0  0  0  0
  -18.0490  -28.0860   22.9260 C   0  0  0  0  0  0  0  0  0  0  0  0
  -20.6050  -28.3690   23.2090 C   0  0  0  0  0  3  0  0  0  0  0  0
  -20.7210  -26.9370   22.6400 C   0  0  0  0  0  2  0  0  0  0  0  0
  -19.6290  -26.6010   21.6200 C   0  0  0  0  0  2  0  0  0  0  0  0
  -18.2410  -26.7360   22.2530 C   0  0  0  0  0  2  0  0  0  0  0  0
  -19.1580  -28.8590   23.3610 C   0  0  0  0  0  0  0  0  0  0  0  0
  -18.9240  -30.1200   23.9500 C   0  0  0  0  0  3  0  0  0  0  0  0
  -17.6130  -30.6090   24.1080 C   0  0  0  0  0  3  0  0  0  0  0  0
  -16.5190  -29.8330   23.6890 C   0  0  0  0  0  3  0  0  0  0  0  0
  -16.7370  -28.5730   23.1030 C   0  0  0  0  0  3  0  0  0  0  0  0
  -25.9040  -32.5290   23.8860 C   0  0  0  0  0  3  0  0  0  0  0  0
  -25.5930  -33.9300   24.2140 N   0  0  0  0  0  0  0  0  0  0  0  0
  -25.9170  -34.9830   23.4510 C   0  0  0  0  0  0  0  0  0  0  0  0
  -26.5770  -34.8790   22.4140 O   0  0  0  0  0  0  0  0  0  0  0  0
  -25.0050  -34.0850   25.0190 H   0  0  0  0  0  0  0  0  0  0  0  0
  -24.1810  -36.7760   23.1210 C   0  0  0  0  0  1  0  0  0  0  0  0
  -25.4350  -36.3730   23.9130 C   0  0  0  0  0  3  0  0  0  0  0  0
  -27.5810  -37.2690   24.7090 C   0  0  0  0  0  1  0  0  0  0  0  0
  -26.4650  -37.4280   23.7790 N   0  0  0  0  0  0  0  0  0  0  0  0
  -26.0590  -38.3490   23.9260 H   0  0  0  0  0  0  0  0  0  0  0  0
  -26.4090  -31.7640   25.1710 C   0  0  1  0  0  0  0  0  0  0  0  0
  -25.3080  -31.5370   26.2340 C   0  0  0  0  0  1  0  0  0  0  0  0
  -26.9910  -30.3810   24.7950 C   0  0  0  0  0  1  0  0  0  0  0  0
  -27.5570  -32.5590   25.8350 C   0  0  0  0  0  1  0  0  0  0  0  0
  1  3  2  0
  2  8  1  0
  2  1  1  0
  4  2  1  0
  5  6  1  0
  7 10  2  0
  7  8  1  0
  8  5  2  0
  9 20  1  0
  9  6  2  0
 10  9  1  0
 11 10  1  0
 12 20  1  0
 13 18  1  0
 14 15  1  0
 14 13  1  0
 16 15  1  0
 16 25  1  0
 16 17  1  0
 18 12  1  0
 18 17  1  0
 19 12  2  0
 20 21  1  0
 22 23  2  0
 23 42  1  0
 24 23  1  0
 24 27  1  0
 25 22  1  0
 25 26  1  0
 26 24  2  0
 27 28  1  0
 28 29  2  0
 30 33  1  0
 30 29  1  0
 31 30  2  0
 32 31  1  0
 32 27  2  0
 33 34  1  0
 34 35  1  0
 35 36  2  0
 37 36  1  0
 37 41  1  0
 38 37  2  0
 39 34  2  0
 39 38  1  0
 40 39  1  0
 42 43  1  0
 43 46  1  0
 43 45  1  0
 44 42  2  0
 47 48  1  0
 47 22  1  0
 49 47  1  0
 50 51  1  0
 50  1  1  0
 52 63  2  0
 53 51  1  0
 53 58  1  0
 54 62  1  0
 54 64  1  0
 55 61  1  0
 55 57  1  0
 56 62  1  0
 57 56  1  0
 58 57  2  0
 59 53  2  0
 60 59  1  0
 60 55  2  0
 61 54  1  0
 62 52  1  0
 64 66  2  0
 65 64  1  0
 67 65  1  0
 68 77  2  0
 68 73  1  0
 69 65  1  0
 69 73  1  0
 70 69  1  0
 71 72  1  0
 71 70  1  0
 72 68  1  0
 73 74  2  0
 74 75  1  0
 76 75  2  0
 77 76  1  0
 78 52  1  0
 78 79  1  0
 78 88  1  0
 79 82  1  0
 80 84  1  0
 80 79  1  0
 81 80  2  0
 84 83  1  0
 86 84  1  0
 86 87  1  0
 86 85  1  0
 88 91  1  1
 88 89  1  0
 90 88  1  0
M  ISO  4  12 100  20 100  50 101  51 101
M  END
>  <TORSDO>  (70) 
F 18

>  <SCORE>  (70) 
-14.808

>  <name>  (70) 
69

>  <ligand_id>  (70) 
69

>  <original_smiles>  (70) 
[H]c1c([H])c([H])c2c(c1[H])C([H])([H])C([H])([H])C([H])([H])C2([H])N([H])C(=O)C1([H])N(C(=O)C([H])(N([H])C(=O)C([H])(N([H])C([H])([H])[H])C([H])([H])[H])C(C([H])([H])[H])(C([H])([H])[H])C([H])([H])[H])C([H])([H])c2c([H])c(OC([H])([H])C(=O)N([H])c3c([H])c([H])c(N([H])C(=O)N4C([H])([H])C([H])([H])C([H])([H])C([H])(n5nc(-c6c([H])c([H])c(Oc7c([H])c([H])c(F)c([H])c7F)c([H])c6[H])c(C(=O)N([H])[H])c5N([H])[H])C4([H])[H])c(Cl)c3[H])c([H])c([H])c2C1([H])[H]

>  <smiles>  (70) 
[H]c1c([H])c([H])c2c(c1[H])C([H])([H])C([H])([H])C([H])([H])C2([H])N([H])C(=O)C1([H])N(C(=O)C([H])(N([H])C(=O)C([H])(N([H])C([H])([H])[H])C([H])([H])[H])C(C([H])([H])[H])(C([H])([H])[H])C([H])([H])[H])C([H])([H])c2c([H])c(OC([H])([H])C(=O)N([H])c3c([H])c([H])c(N([H])C(=O)N4C([H])([H])C([H])([H])C([H])([H])C([H])(n5nc(-c6c([H])c([H])c(Oc7c([H])c([H])c(F)c([H])c7F)c([H])c6[H])c(C(=O)N([H])[H])c5N([H])[H])C4([H])[H])c(Cl)c3[H])c([H])c([H])c2C1([H])[H]

$$$$
70:0:0
     RDKit          3D

 92100  0  0  1  0  0  0  0  0999 V2000
  -28.9140  -22.3650   19.9550 C   0  0  0  0  0  0  0  0  0  0  0  0
  -29.3390  -21.2400   20.6630 N   0  0  0  0  0  0  0  0  0  0  0  0
  -28.6300  -22.2750   18.7590 O   0  0  0  0  0  0  0  0  0  0  0  0
  -29.3770  -21.3600   21.6670 H   0  0  0  0  0  0  0  0  0  0  0  0
  -30.7570  -18.6340   18.2970 C   0  0  0  0  0  3  0  0  0  0  0  0
  -30.3730  -19.8500   18.8780 C   0  0  0  0  0  3  0  0  0  0  0  0
  -29.7130  -18.6350   20.8750 C   0  0  0  0  0  3  0  0  0  0  0  0
  -30.6110  -17.4060   18.9690 C   0  0  0  0  0  0  0  0  0  0  0  0
  -29.7780  -19.9080   20.1570 C   0  0  0  0  0  0  0  0  0  0  0  0
  -30.1560  -17.3550   20.3190 C   0  0  0  0  0  0  0  0  0  0  0  0
  -30.8660  -16.1650   18.1330 C   0  0  0  0  0  1  0  0  0  0  0  0
  -30.8280  -14.9020   20.9580 C   0  0  0  0  0  0  0  0  0  0  0  0
  -30.7530  -12.5710   20.0730 C   0  0  0  0  0  2  0  0  0  0  0  0
  -29.9400  -12.5390   18.7600 C   0  0  0  0  0  2  0  0  0  0  0  0
  -28.4290  -12.4280   19.0360 C   0  0  0  0  0  2  0  0  0  0  0  0
  -27.9350  -13.3620   20.1750 C   0  0  0  0  0  3  0  0  0  0  0  0
  -28.8780  -13.3300   21.3960 C   0  0  0  0  0  2  0  0  0  0  0  0
  -30.2240  -13.6660   20.9180 N   0  0  0  0  0  0  0  0  0  0  0  0
  -32.0460  -14.9910   20.7750 O   0  0  0  0  0  0  0  0  0  0  0  0
  -30.0230  -16.0370   21.0100 N   0  0  0  0  0  0  0  0  0  0  0  0
  -29.1100  -15.8620   21.4030 H   0  0  0  0  0  0  0  0  0  0  0  0
  -25.4850  -13.9520   20.6650 C   0  0  0  0  0  0  0  0  0  0  0  0
  -24.3940  -13.1800   20.9540 C   0  0  0  0  0  0  0  0  0  0  0  0
  -24.8640  -11.8320   21.0000 C   0  0  0  0  0  0  0  0  0  0  0  0
  -26.5510  -13.0760   20.5480 N   0  0  0  0  0  0  0  0  0  0  0  0
  -26.1780  -11.7970   20.8160 N   0  0  0  0  0  0  0  0  0  0  0  0
  -24.1300  -10.5680   21.1530 C   0  0  0  0  0  0  0  0  0  0  0  0
  -24.4930   -9.6170   22.1310 C   0  0  0  0  0  3  0  0  0  0  0  0
  -23.7580   -8.4180   22.2710 C   0  0  0  0  0  3  0  0  0  0  0  0
  -22.6480   -8.1650   21.4300 C   0  0  0  0  0  0  0  0  0  0  0  0
  -22.3060   -9.1050   20.4430 C   0  0  0  0  0  3  0  0  0  0  0  0
  -23.0410  -10.2940   20.3020 C   0  0  0  0  0  3  0  0  0  0  0  0
  -21.8930   -7.0170   21.4760 O   0  0  0  0  0  0  0  0  0  0  0  0
  -21.7640   -6.2850   22.6290 C   0  0  0  0  0  0  0  0  0  0  0  0
  -21.2450   -6.8490   23.8150 C   0  0  0  0  0  3  0  0  0  0  0  0
  -21.0650   -6.0430   24.9560 C   0  0  0  0  0  3  0  0  0  0  0  0
  -21.3930   -4.6740   24.9120 C   0  0  0  0  0  0  0  0  0  0  0  0
  -21.9060   -4.1110   23.7310 C   0  0  0  0  0  3  0  0  0  0  0  0
  -22.0870   -4.9140   22.5910 C   0  0  0  0  0  0  0  0  0  0  0  0
  -22.5610   -4.3610   21.4490 F   0  0  0  0  0  0  0  0  0  0  0  0
  -21.2140   -3.8990   26.0070 F   0  0  0  0  0  0  0  0  0  0  0  0
  -22.9750  -13.6520   21.0790 C   0  0  0  0  0  0  0  0  0  0  0  0
  -22.1740  -12.9770   21.8940 N   0  0  0  0  0  0  0  0  0  0  0  0
  -22.5810  -14.6570   20.4880 O   0  0  0  0  0  0  0  0  0  0  0  0
  -22.5010  -12.1650   22.3950 H   0  0  0  0  0  0  0  0  0  0  0  0
  -21.2170  -13.2780   22.0200 H   0  0  0  0  0  0  0  0  0  0  0  0
  -25.6580  -15.3200   20.4680 N   0  0  0  0  0  0  0  0  0  0  0  0
  -24.8780  -15.9690   20.4820 H   0  0  0  0  0  0  0  0  0  0  0  0
  -26.5270  -15.7560   20.1890 H   0  0  0  0  0  0  0  0  0  0  0  0
  -28.7120  -23.8110   20.6120 C   0  0  0  0  0  3  0  0  0  0  0  0
  -28.2990  -25.0330   19.6310 C   0  0  0  0  0  3  0  0  0  0  0  0
  -28.2990  -26.4790   20.0510 O   0  0  0  0  0  0  0  0  0  0  0  0
  -24.5540  -31.8770   23.1040 C   0  0  0  0  0  0  0  0  0  0  0  0
  -27.1680  -27.3270   19.9820 C   0  0  0  0  0  0  0  0  0  0  0  0
  -23.3490  -30.4900   21.4560 C   0  0  0  0  0  3  0  0  0  0  0  0
  -24.7990  -28.9630   20.0030 C   0  0  0  0  0  0  0  0  0  0  0  0
  -25.8910  -30.8100   21.2690 C   0  0  0  0  0  2  0  0  0  0  0  0
  -25.9700  -29.4370   20.6030 C   0  0  0  0  0  0  0  0  0  0  0  0
  -27.1510  -28.6300   20.5860 C   0  0  0  0  0  3  0  0  0  0  0  0
  -25.9640  -26.9230   19.3550 C   0  0  0  0  0  3  0  0  0  0  0  0
  -24.8010  -27.7130   19.3710 C   0  0  0  0  0  3  0  0  0  0  0  0
  -23.5600  -29.8340   20.0670 C   0  0  0  0  0  2  0  0  0  0  0  0
  -24.6170  -31.0770   21.9980 N   0  0  0  0  0  0  0  0  0  0  0  0
  -23.4730  -32.1420   23.6480 O   0  0  0  0  0  0  0  0  0  0  0  0
  -22.6960  -29.4580   22.4080 C   0  0  0  0  0  0  0  0  0  0  0  0
  -21.3650  -29.2970   22.3100 N   0  0  0  0  0  0  0  0  0  0  0  0
  -23.3850  -28.8080   23.1980 O   0  0  0  0  0  0  0  0  0  0  0  0
  -20.8670  -29.8750   21.6480 H   0  0  0  0  0  0  0  0  0  0  0  0
  -17.9830  -28.1470   22.8820 C   0  0  0  0  0  0  0  0  0  0  0  0
  -20.5530  -28.3530   23.0790 C   0  0  0  0  0  3  0  0  0  0  0  0
  -20.6100  -26.9370   22.4600 C   0  0  0  0  0  2  0  0  0  0  0  0
  -19.4710  -26.6630   21.4720 C   0  0  0  0  0  2  0  0  0  0  0  0
  -18.1130  -26.8150   22.1640 C   0  0  0  0  0  2  0  0  0  0  0  0
  -19.1290  -28.8770   23.2980 C   0  0  0  0  0  0  0  0  0  0  0  0
  -18.9510  -30.1260   23.9310 C   0  0  0  0  0  3  0  0  0  0  0  0
  -17.6620  -30.6440   24.1550 C   0  0  0  0  0  3  0  0  0  0  0  0
  -16.5310  -29.9100   23.7540 C   0  0  0  0  0  3  0  0  0  0  0  0
  -16.6930  -28.6650   23.1230 C   0  0  0  0  0  3  0  0  0  0  0  0
  -25.8360  -32.5100   23.7260 C   0  0  0  0  0  3  0  0  0  0  0  0
  -26.3760  -31.7160   24.9780 C   0  0  1  0  0  0  0  0  0  0  0  0
  -25.3000  -31.4430   26.0550 C   0  0  0  0  0  1  0  0  0  0  0  0
  -26.9680  -30.3530   24.5520 C   0  0  0  0  0  1  0  0  0  0  0  0
  -27.5240  -32.5080   25.6460 C   0  0  0  0  0  1  0  0  0  0  0  0
  -25.5130  -33.8970   24.0940 N   0  0  0  0  0  0  0  0  0  0  0  0
  -25.8570  -34.9760   23.3810 C   0  0  0  0  0  0  0  0  0  0  0  0
  -26.5510  -34.9110   22.3620 O   0  0  0  0  0  0  0  0  0  0  0  0
  -24.8980  -34.0200   24.8860 H   0  0  0  0  0  0  0  0  0  0  0  0
  -24.1470  -36.7900   23.0310 C   0  0  0  0  0  1  0  0  0  0  0  0
  -25.3540  -36.3470   23.8740 C   0  0  0  0  0  3  0  0  0  0  0  0
  -27.4540  -37.1910   24.8260 C   0  0  0  0  0  1  0  0  0  0  0  0
  -26.3920  -37.4020   23.8470 N   0  0  0  0  0  0  0  0  0  0  0  0
  -25.9810  -38.3160   24.0160 H   0  0  0  0  0  0  0  0  0  0  0  0
  1 50  1  0
  1  2  1  0
  2  4  1  0
  3  1  2  0
  5  6  2  0
  5  8  1  0
  6  9  1  0
  8 10  2  0
  9  2  1  0
  9  7  2  0
 10  7  1  0
 10 20  1  0
 11  8  1  0
 12 20  1  0
 13 18  1  0
 14 15  1  0
 14 13  1  0
 16 15  1  0
 16 25  1  0
 16 17  1  0
 18 12  1  0
 18 17  1  0
 19 12  2  0
 20 21  1  0
 22 23  2  0
 23 24  1  0
 23 42  1  0
 24 27  1  0
 25 22  1  0
 25 26  1  0
 26 24  2  0
 27 28  1  0
 28 29  2  0
 30 33  1  0
 30 29  1  0
 31 30  2  0
 32 31  1  0
 32 27  2  0
 33 34  1  0
 34 35  1  0
 35 36  2  0
 37 36  1  0
 37 41  1  0
 38 37  2  0
 39 34  2  0
 39 38  1  0
 40 39  1  0
 42 43  1  0
 43 46  1  0
 43 45  1  0
 44 42  2  0
 47 48  1  0
 47 22  1  0
 49 47  1  0
 51 52  1  0
 51 50  2  0
 53 64  2  0
 54 52  1  0
 54 59  1  0
 55 63  1  0
 55 65  1  0
 56 62  1  0
 56 58  1  0
 57 63  1  0
 58 57  1  0
 59 58  2  0
 60 61  1  0
 60 54  2  0
 61 56  2  0
 62 55  1  0
 63 53  1  0
 65 67  2  0
 66 65  1  0
 68 66  1  0
 69 78  2  0
 69 74  1  0
 70 66  1  0
 70 74  1  0
 71 70  1  0
 72 73  1  0
 72 71  1  0
 73 69  1  0
 74 75  2  0
 75 76  1  0
 77 76  2  0
 78 77  1  0
 79 53  1  0
 79 84  1  0
 79 80  1  0
 80 83  1  1
 80 81  1  0
 82 80  1  0
 84 87  1  0
 85 89  1  0
 85 84  1  0
 86 85  2  0
 89 88  1  0
 91 89  1  0
 91 92  1  0
 91 90  1  0
M  ISO  4  12 100  20 100  51 101  52 101
M  END
>  <TORSDO>  (71) 
F 19

>  <SCORE>  (71) 
-13.725

>  <name>  (71) 
70

>  <ligand_id>  (71) 
70

>  <original_smiles>  (71) 
[H]c1c([H])c([H])c2c(c1[H])C([H])([H])C([H])([H])C([H])([H])C2([H])N([H])C(=O)C1([H])N(C(=O)C([H])(N([H])C(=O)C([H])(N([H])C([H])([H])[H])C([H])([H])[H])C(C([H])([H])[H])(C([H])([H])[H])C([H])([H])[H])C([H])([H])c2c([H])c(OC([H])([H])C([H])([H])C(=O)N([H])c3c([H])c([H])c(C([H])([H])[H])c(N([H])C(=O)N4C([H])([H])C([H])([H])C([H])([H])C([H])(n5nc(-c6c([H])c([H])c(Oc7c([H])c([H])c(F)c([H])c7F)c([H])c6[H])c(C(=O)N([H])[H])c5N([H])[H])C4([H])[H])c3[H])c([H])c([H])c2C1([H])[H]

>  <smiles>  (71) 
[H]c1c([H])c([H])c2c(c1[H])C([H])([H])C([H])([H])C([H])([H])C2([H])N([H])C(=O)C1([H])N(C(=O)C([H])(N([H])C(=O)C([H])(N([H])C([H])([H])[H])C([H])([H])[H])C(C([H])([H])[H])(C([H])([H])[H])C([H])([H])[H])C([H])([H])c2c([H])c(OC([H])([H])C([H])([H])C(=O)N([H])c3c([H])c([H])c(C([H])([H])[H])c(N([H])C(=O)N4C([H])([H])C([H])([H])C([H])([H])C([H])(n5nc(-c6c([H])c([H])c(Oc7c([H])c([H])c(F)c([H])c7F)c([H])c6[H])c(C(=O)N([H])[H])c5N([H])[H])C4([H])[H])c3[H])c([H])c([H])c2C1([H])[H]

$$$$
71:0:0
     RDKit          3D

 92100  0  0  1  0  0  0  0  0999 V2000
  -28.0810  -19.6740   20.3730 C   0  0  0  0  0  3  0  0  0  0  0  0
  -30.6100  -18.6380   19.9430 C   0  0  0  0  0  3  0  0  0  0  0  0
  -29.0560  -20.6880   20.1030 C   0  0  0  0  0  0  0  0  0  0  0  0
  -29.6100  -17.6370   20.2240 C   0  0  0  0  0  0  0  0  0  0  0  0
  -28.3380  -18.2530   20.4400 C   0  0  0  0  0  0  0  0  0  0  0  0
  -30.3520  -20.0830   19.8820 C   0  0  0  0  0  0  0  0  0  0  0  0
  -27.2930  -17.4330   20.7060 F   0  0  0  0  0  0  0  0  0  0  0  0
  -31.6770  -21.1000   19.4460 Cl  0  0  0  0  0  0  0  0  0  0  0  0
  -30.5260  -15.0150   19.9990 C   0  0  0  0  0  0  0  0  0  0  0  0
  -30.3820  -12.6920   18.9960 C   0  0  0  0  0  2  0  0  0  0  0  0
  -29.3670  -12.7000   17.8270 C   0  0  0  0  0  2  0  0  0  0  0  0
  -27.9310  -12.4850   18.3410 C   0  0  0  0  0  2  0  0  0  0  0  0
  -27.6040  -13.3690   19.5730 C   0  0  0  0  0  3  0  0  0  0  0  0
  -28.7260  -13.3110   20.6310 C   0  0  0  0  0  2  0  0  0  0  0  0
  -29.9680  -13.7390   19.9710 N   0  0  0  0  0  0  0  0  0  0  0  0
  -31.6930  -15.1470   19.6120 O   0  0  0  0  0  0  0  0  0  0  0  0
  -29.6790  -16.1050   20.3090 N   0  0  0  0  0  0  0  0  0  0  0  0
  -28.7920  -15.7420   20.6260 H   0  0  0  0  0  0  0  0  0  0  0  0
  -25.2670  -13.9390   20.4560 C   0  0  0  0  0  0  0  0  0  0  0  0
  -24.2200  -13.1580   20.8610 C   0  0  0  0  0  0  0  0  0  0  0  0
  -24.6770  -11.8070   20.7690 C   0  0  0  0  0  0  0  0  0  0  0  0
  -26.2940  -13.0650   20.1370 N   0  0  0  0  0  0  0  0  0  0  0  0
  -25.9500  -11.7760   20.3880 N   0  0  0  0  0  0  0  0  0  0  0  0
  -23.9560  -10.5440   20.9650 C   0  0  0  0  0  0  0  0  0  0  0  0
  -24.4050   -9.5700   21.8840 C   0  0  0  0  0  3  0  0  0  0  0  0
  -23.6820   -8.3710   22.0670 C   0  0  0  0  0  3  0  0  0  0  0  0
  -22.4950   -8.1400   21.3330 C   0  0  0  0  0  0  0  0  0  0  0  0
  -22.0640   -9.1020   20.4020 C   0  0  0  0  0  3  0  0  0  0  0  0
  -22.7900  -10.2910   20.2160 C   0  0  0  0  0  3  0  0  0  0  0  0
  -21.7420   -6.9940   21.4270 O   0  0  0  0  0  0  0  0  0  0  0  0
  -21.6740   -6.2720   22.5910 C   0  0  0  0  0  0  0  0  0  0  0  0
  -21.1750   -6.8320   23.7880 C   0  0  0  0  0  3  0  0  0  0  0  0
  -21.0580   -6.0330   24.9420 C   0  0  0  0  0  3  0  0  0  0  0  0
  -21.4290   -4.6750   24.9020 C   0  0  0  0  0  0  0  0  0  0  0  0
  -21.9220   -4.1160   23.7100 C   0  0  0  0  0  3  0  0  0  0  0  0
  -22.0410   -4.9110   22.5570 C   0  0  0  0  0  0  0  0  0  0  0  0
  -22.4950   -4.3610   21.4060 F   0  0  0  0  0  0  0  0  0  0  0  0
  -21.3100   -3.9060   26.0090 F   0  0  0  0  0  0  0  0  0  0  0  0
  -22.8440  -13.6340   21.2230 C   0  0  0  0  0  0  0  0  0  0  0  0
  -22.1640  -12.9210   22.1140 N   0  0  0  0  0  0  0  0  0  0  0  0
  -22.3820  -14.6730   20.7540 O   0  0  0  0  0  0  0  0  0  0  0  0
  -22.5490  -12.0790   22.5150 H   0  0  0  0  0  0  0  0  0  0  0  0
  -21.2430  -13.2230   22.4010 H   0  0  0  0  0  0  0  0  0  0  0  0
  -25.4190  -15.3140   20.3130 N   0  0  0  0  0  0  0  0  0  0  0  0
  -24.6680  -15.9560   20.5320 H   0  0  0  0  0  0  0  0  0  0  0  0
  -26.2740  -15.7950   20.0650 H   0  0  0  0  0  0  0  0  0  0  0  0
  -28.9700  -23.4620   20.2740 C   0  0  0  0  0  0  0  0  0  0  0  0
  -28.5850  -22.1430   19.9260 N   0  0  0  0  0  0  0  0  0  0  0  0
  -30.0140  -23.6650   20.8990 O   0  0  0  0  0  0  0  0  0  0  0  0
  -27.6770  -22.1800   19.4850 H   0  0  0  0  0  0  0  0  0  0  0  0
  -28.0310  -24.7680   19.8740 C   0  0  0  0  0  2  0  0  0  0  0  0
  -28.3090  -26.2420   20.2930 O   0  0  0  0  0  0  0  0  0  0  0  0
  -24.6500  -31.9030   23.3000 C   0  0  0  0  0  0  0  0  0  0  0  0
  -27.2560  -27.2280   20.2270 C   0  0  0  0  0  0  0  0  0  0  0  0
  -23.4600  -30.5200   21.6430 C   0  0  0  0  0  3  0  0  0  0  0  0
  -24.9190  -28.9630   20.2130 C   0  0  0  0  0  0  0  0  0  0  0  0
  -26.0160  -30.7920   21.4950 C   0  0  0  0  0  2  0  0  0  0  0  0
  -26.0960  -29.4070   20.8300 C   0  0  0  0  0  0  0  0  0  0  0  0
  -27.2650  -28.5530   20.8220 C   0  0  0  0  0  3  0  0  0  0  0  0
  -26.0510  -26.8930   19.5650 C   0  0  0  0  0  3  0  0  0  0  0  0
  -24.9090  -27.7200   19.5670 C   0  0  0  0  0  3  0  0  0  0  0  0
  -23.6880  -29.8540   20.2610 C   0  0  0  0  0  2  0  0  0  0  0  0
  -24.7290  -31.0910   22.2010 N   0  0  0  0  0  0  0  0  0  0  0  0
  -23.5610  -32.1810   23.8230 O   0  0  0  0  0  0  0  0  0  0  0  0
  -22.7780  -29.5050   22.5940 C   0  0  0  0  0  0  0  0  0  0  0  0
  -21.4530  -29.3240   22.4480 N   0  0  0  0  0  0  0  0  0  0  0  0
  -23.4430  -28.8810   23.4250 O   0  0  0  0  0  0  0  0  0  0  0  0
  -20.9720  -29.8750   21.7510 H   0  0  0  0  0  0  0  0  0  0  0  0
  -18.0710  -28.1100   22.9200 C   0  0  0  0  0  0  0  0  0  0  0  0
  -20.6280  -28.3780   23.2060 C   0  0  0  0  0  3  0  0  0  0  0  0
  -20.7370  -26.9500   22.6220 C   0  0  0  0  0  2  0  0  0  0  0  0
  -19.6430  -26.6310   21.5990 C   0  0  0  0  0  2  0  0  0  0  0  0
  -18.2560  -26.7670   22.2340 C   0  0  0  0  0  2  0  0  0  0  0  0
  -19.1850  -28.8730   23.3620 C   0  0  0  0  0  0  0  0  0  0  0  0
  -18.9570  -30.1290   23.9650 C   0  0  0  0  0  3  0  0  0  0  0  0
  -17.6480  -30.6240   24.1290 C   0  0  0  0  0  3  0  0  0  0  0  0
  -16.5500  -29.8580   23.7010 C   0  0  0  0  0  3  0  0  0  0  0  0
  -16.7620  -28.6050   23.1020 C   0  0  0  0  0  3  0  0  0  0  0  0
  -25.9240  -32.5340   23.9390 C   0  0  0  0  0  3  0  0  0  0  0  0
  -25.6190  -33.9390   24.2490 N   0  0  0  0  0  0  0  0  0  0  0  0
  -25.9430  -34.9820   23.4720 C   0  0  0  0  0  0  0  0  0  0  0  0
  -26.5960  -34.8610   22.4330 O   0  0  0  0  0  0  0  0  0  0  0  0
  -25.0400  -34.1080   25.0590 H   0  0  0  0  0  0  0  0  0  0  0  0
  -24.2030  -36.7680   23.1380 C   0  0  0  0  0  1  0  0  0  0  0  0
  -25.4690  -36.3800   23.9180 C   0  0  0  0  0  3  0  0  0  0  0  0
  -27.6190  -37.2920   24.6770 C   0  0  0  0  0  1  0  0  0  0  0  0
  -26.4970  -37.4300   23.7520 N   0  0  0  0  0  0  0  0  0  0  0  0
  -26.0930  -38.3550   23.8790 H   0  0  0  0  0  0  0  0  0  0  0  0
  -26.4060  -31.7770   25.2360 C   0  0  1  0  0  0  0  0  0  0  0  0
  -25.2880  -31.5600   26.2820 C   0  0  0  0  0  1  0  0  0  0  0  0
  -26.9930  -30.3910   24.8790 C   0  0  0  0  0  1  0  0  0  0  0  0
  -27.5450  -32.5750   25.9140 C   0  0  0  0  0  1  0  0  0  0  0  0
  1  5  1  0
  2  4  1  0
  3  1  2  0
  4 17  1  0
  4  5  2  0
  5  7  1  0
  6  2  2  0
  6  3  1  0
  8  6  1  0
  9 17  1  0
 10 15  1  0
 11 12  1  0
 11 10  1  0
 13 12  1  0
 13 22  1  0
 13 14  1  0
 15  9  1  0
 15 14  1  0
 16  9  2  0
 17 18  1  0
 19 20  2  0
 20 39  1  0
 21 20  1  0
 21 24  1  0
 22 23  1  0
 22 19  1  0
 23 21  2  0
 24 25  1  0
 25 26  2  0
 27 30  1  0
 27 26  1  0
 28 27  2  0
 29 28  1  0
 29 24  2  0
 30 31  1  0
 31 32  1  0
 32 33  2  0
 34 33  1  0
 34 38  1  0
 35 34  2  0
 36 31  2  0
 36 35  1  0
 37 36  1  0
 39 40  1  0
 40 43  1  0
 40 42  1  0
 41 39  2  0
 44 19  1  0
 44 45  1  0
 46 44  1  0
 47 49  2  0
 48  3  1  0
 48 47  1  0
 50 48  1  0
 51 47  1  0
 51 52  1  0
 53 64  2  0
 54 52  1  0
 54 59  1  0
 55 63  1  0
 55 65  1  0
 56 62  1  0
 56 58  1  0
 57 63  1  0
 58 57  1  0
 59 58  2  0
 60 61  1  0
 60 54  2  0
 61 56  2  0
 62 55  1  0
 63 53  1  0
 65 67  2  0
 66 65  1  0
 68 66  1  0
 69 78  2  0
 69 74  1  0
 70 66  1  0
 70 74  1  0
 71 70  1  0
 72 73  1  0
 72 71  1  0
 73 69  1  0
 74 75  2  0
 75 76  1  0
 77 76  2  0
 78 77  1  0
 79 53  1  0
 79 80  1  0
 79 89  1  0
 80 83  1  0
 81 85  1  0
 81 80  1  0
 82 81  2  0
 85 84  1  0
 87 88  1  0
 87 85  1  0
 87 86  1  0
 89 92  1  1
 89 90  1  0
 91 89  1  0
M  ISO  4   9 100  17 100  51 101  52 101
M  END
>  <TORSDO>  (72) 
F 18

>  <SCORE>  (72) 
-14.682

>  <name>  (72) 
71

>  <ligand_id>  (72) 
71

>  <original_smiles>  (72) 
[H]c1c([H])c([H])c2c(c1[H])C([H])([H])C([H])([H])C([H])([H])C2([H])N([H])C(=O)C1([H])N(C(=O)C([H])(N([H])C(=O)C([H])(N([H])C([H])([H])[H])C([H])([H])[H])C(C([H])([H])[H])(C([H])([H])[H])C([H])([H])[H])C([H])([H])c2c([H])c(OC([H])([H])C(=O)N([H])c3c([H])c(F)c(N([H])C(=O)N4C([H])([H])C([H])([H])C([H])([H])C([H])(n5nc(-c6c([H])c([H])c(Oc7c([H])c([H])c(F)c([H])c7F)c([H])c6[H])c(C(=O)N([H])[H])c5N([H])[H])C4([H])[H])c([H])c3Cl)c([H])c([H])c2C1([H])[H]

>  <smiles>  (72) 
[H]c1c([H])c([H])c2c(c1[H])C([H])([H])C([H])([H])C([H])([H])C2([H])N([H])C(=O)C1([H])N(C(=O)C([H])(N([H])C(=O)C([H])(N([H])C([H])([H])[H])C([H])([H])[H])C(C([H])([H])[H])(C([H])([H])[H])C([H])([H])[H])C([H])([H])c2c([H])c(OC([H])([H])C(=O)N([H])c3c([H])c(F)c(N([H])C(=O)N4C([H])([H])C([H])([H])C([H])([H])C([H])(n5nc(-c6c([H])c([H])c(Oc7c([H])c([H])c(F)c([H])c7F)c([H])c6[H])c(C(=O)N([H])[H])c5N([H])[H])C4([H])[H])c([H])c3Cl)c([H])c([H])c2C1([H])[H]

$$$$
72:0:0
     RDKit          3D

 89 97  0  0  1  0  0  0  0  0999 V2000
  -30.5460  -18.6110   20.2210 C   0  0  0  0  0  3  0  0  0  0  0  0
  -30.2410  -20.0490   20.1530 C   0  0  0  0  0  3  0  0  0  0  0  0
  -27.9440  -19.5450   20.2350 C   0  0  0  0  0  3  0  0  0  0  0  0
  -29.5460  -17.5730   20.3030 C   0  0  0  0  0  0  0  0  0  0  0  0
  -28.9050  -20.5990   20.1510 C   0  0  0  0  0  0  0  0  0  0  0  0
  -28.2360  -18.1370   20.3130 C   0  0  0  0  0  0  0  0  0  0  0  0
  -27.1940  -17.2770   20.3970 F   0  0  0  0  0  0  0  0  0  0  0  0
  -30.4790  -14.9550   20.1290 C   0  0  0  0  0  0  0  0  0  0  0  0
  -30.3510  -12.6130   19.1660 C   0  0  0  0  0  2  0  0  0  0  0  0
  -29.3720  -12.5990   17.9670 C   0  0  0  0  0  2  0  0  0  0  0  0
  -27.9180  -12.4040   18.4410 C   0  0  0  0  0  2  0  0  0  0  0  0
  -27.5580  -13.3160   19.6440 C   0  0  0  0  0  3  0  0  0  0  0  0
  -28.6500  -13.2740   20.7360 C   0  0  0  0  0  2  0  0  0  0  0  0
  -29.9140  -13.6830   20.1040 N   0  0  0  0  0  0  0  0  0  0  0  0
  -31.6550  -15.0810   19.7700 O   0  0  0  0  0  0  0  0  0  0  0  0
  -29.6270  -16.0470   20.4000 N   0  0  0  0  0  0  0  0  0  0  0  0
  -28.7250  -15.6830   20.6710 H   0  0  0  0  0  0  0  0  0  0  0  0
  -25.1940  -13.9040   20.4450 C   0  0  0  0  0  0  0  0  0  0  0  0
  -24.1370  -13.1330   20.8380 C   0  0  0  0  0  0  0  0  0  0  0  0
  -24.5940  -11.7800   20.7890 C   0  0  0  0  0  0  0  0  0  0  0  0
  -26.2300  -13.0240   20.1760 N   0  0  0  0  0  0  0  0  0  0  0  0
  -25.8770  -11.7400   20.4460 N   0  0  0  0  0  0  0  0  0  0  0  0
  -23.8650  -10.5230   20.9920 C   0  0  0  0  0  0  0  0  0  0  0  0
  -24.3170   -9.5480   21.9100 C   0  0  0  0  0  3  0  0  0  0  0  0
  -23.5870   -8.3550   22.1020 C   0  0  0  0  0  3  0  0  0  0  0  0
  -22.3920   -8.1280   21.3780 C   0  0  0  0  0  0  0  0  0  0  0  0
  -21.9590   -9.0920   20.4510 C   0  0  0  0  0  3  0  0  0  0  0  0
  -22.6900  -10.2770   20.2560 C   0  0  0  0  0  3  0  0  0  0  0  0
  -21.6330   -6.9880   21.4810 O   0  0  0  0  0  0  0  0  0  0  0  0
  -21.6050   -6.2440   22.6330 C   0  0  0  0  0  0  0  0  0  0  0  0
  -21.2010   -6.7960   23.8670 C   0  0  0  0  0  3  0  0  0  0  0  0
  -21.1210   -5.9770   25.0120 C   0  0  0  0  0  3  0  0  0  0  0  0
  -21.4330   -4.6080   24.9230 C   0  0  0  0  0  0  0  0  0  0  0  0
  -21.8300   -4.0550   23.6920 C   0  0  0  0  0  3  0  0  0  0  0  0
  -21.9130   -4.8710   22.5500 C   0  0  0  0  0  0  0  0  0  0  0  0
  -22.2750   -4.3280   21.3630 F   0  0  0  0  0  0  0  0  0  0  0  0
  -21.3480   -3.8200   26.0200 F   0  0  0  0  0  0  0  0  0  0  0  0
  -22.7500  -13.6170   21.1520 C   0  0  0  0  0  0  0  0  0  0  0  0
  -22.0480  -12.9280   22.0450 N   0  0  0  0  0  0  0  0  0  0  0  0
  -22.3010  -14.6440   20.6440 O   0  0  0  0  0  0  0  0  0  0  0  0
  -22.4240  -12.0990   22.4790 H   0  0  0  0  0  0  0  0  0  0  0  0
  -21.1200  -13.2360   22.2990 H   0  0  0  0  0  0  0  0  0  0  0  0
  -25.3460  -15.2740   20.2760 N   0  0  0  0  0  0  0  0  0  0  0  0
  -24.5840  -15.9140   20.4630 H   0  0  0  0  0  0  0  0  0  0  0  0
  -26.2120  -15.7600   20.0740 H   0  0  0  0  0  0  0  0  0  0  0  0
  -28.3840  -21.9650   20.0490 O   0  0  0  0  0  0  0  0  0  0  0  0
  -29.0000  -23.3650   20.1000 C   0  0  0  0  0  3  0  0  0  0  0  0
  -28.0120  -24.7130   19.8800 C   0  0  0  0  0  3  0  0  0  0  0  0
  -28.2930  -26.2290   20.0810 O   0  0  0  0  0  0  0  0  0  0  0  0
  -24.6330  -31.8210   23.1810 C   0  0  0  0  0  0  0  0  0  0  0  0
  -27.2260  -27.2010   20.0390 C   0  0  0  0  0  0  0  0  0  0  0  0
  -23.4360  -30.4670   21.5040 C   0  0  0  0  0  3  0  0  0  0  0  0
  -24.8900  -28.9320   20.0450 C   0  0  0  0  0  0  0  0  0  0  0  0
  -25.9900  -30.7420   21.3520 C   0  0  0  0  0  2  0  0  0  0  0  0
  -26.0680  -29.3680   20.6650 C   0  0  0  0  0  0  0  0  0  0  0  0
  -27.2360  -28.5200   20.6450 C   0  0  0  0  0  3  0  0  0  0  0  0
  -26.0190  -26.8630   19.3860 C   0  0  0  0  0  3  0  0  0  0  0  0
  -24.8780  -27.6930   19.3910 C   0  0  0  0  0  3  0  0  0  0  0  0
  -23.6610  -29.8260   20.1100 C   0  0  0  0  0  2  0  0  0  0  0  0
  -24.7060  -31.0300   22.0680 N   0  0  0  0  0  0  0  0  0  0  0  0
  -23.5450  -32.0930   23.7130 O   0  0  0  0  0  0  0  0  0  0  0  0
  -22.7570  -29.4350   22.4380 C   0  0  0  0  0  0  0  0  0  0  0  0
  -21.4250  -29.2850   22.3200 N   0  0  0  0  0  0  0  0  0  0  0  0
  -23.4290  -28.7740   23.2330 O   0  0  0  0  0  0  0  0  0  0  0  0
  -20.9390  -29.8710   21.6550 H   0  0  0  0  0  0  0  0  0  0  0  0
  -18.0300  -28.1400   22.8450 C   0  0  0  0  0  0  0  0  0  0  0  0
  -20.5990  -28.3340   23.0680 C   0  0  0  0  0  3  0  0  0  0  0  0
  -20.6560  -26.9260   22.4340 C   0  0  0  0  0  2  0  0  0  0  0  0
  -19.5270  -26.6710   21.4290 C   0  0  0  0  0  2  0  0  0  0  0  0
  -18.1620  -26.8190   22.1080 C   0  0  0  0  0  2  0  0  0  0  0  0
  -19.1730  -28.8600   23.2820 C   0  0  0  0  0  0  0  0  0  0  0  0
  -18.9940  -30.1000   23.9330 C   0  0  0  0  0  3  0  0  0  0  0  0
  -17.7040  -30.6200   24.1510 C   0  0  0  0  0  3  0  0  0  0  0  0
  -16.5750  -29.8960   23.7290 C   0  0  0  0  0  3  0  0  0  0  0  0
  -16.7390  -28.6580   23.0810 C   0  0  0  0  0  3  0  0  0  0  0  0
  -25.9100  -32.4410   23.8260 C   0  0  0  0  0  3  0  0  0  0  0  0
  -26.4050  -31.6510   25.1000 C   0  0  1  0  0  0  0  0  0  0  0  0
  -25.2980  -31.4130   26.1540 C   0  0  0  0  0  1  0  0  0  0  0  0
  -26.9800  -30.2730   24.7020 C   0  0  0  0  0  1  0  0  0  0  0  0
  -27.5560  -32.4270   25.7810 C   0  0  0  0  0  1  0  0  0  0  0  0
  -25.6030  -33.8370   24.1750 N   0  0  0  0  0  0  0  0  0  0  0  0
  -25.9270  -34.9010   23.4290 C   0  0  0  0  0  0  0  0  0  0  0  0
  -26.5820  -34.8090   22.3880 O   0  0  0  0  0  0  0  0  0  0  0  0
  -25.0210  -33.9810   24.9880 H   0  0  0  0  0  0  0  0  0  0  0  0
  -24.1860  -36.6940   23.1380 C   0  0  0  0  0  1  0  0  0  0  0  0
  -25.4500  -36.2840   23.9120 C   0  0  0  0  0  3  0  0  0  0  0  0
  -27.6020  -37.1710   24.6960 C   0  0  0  0  0  1  0  0  0  0  0  0
  -26.4770  -37.3420   23.7800 N   0  0  0  0  0  0  0  0  0  0  0  0
  -26.0720  -38.2600   23.9440 H   0  0  0  0  0  0  0  0  0  0  0  0
  1  4  1  0
  2  1  2  0
  3  6  1  0
  4  6  2  0
  4 16  1  0
  5  2  1  0
  5  3  2  0
  6  7  1  0
  8 16  1  0
  9 14  1  0
 10 11  1  0
 10  9  1  0
 12 11  1  0
 12 21  1  0
 12 13  1  0
 14  8  1  0
 14 13  1  0
 15  8  2  0
 16 17  1  0
 18 19  2  0
 19 38  1  0
 20 19  1  0
 20 23  1  0
 21 18  1  0
 21 22  1  0
 22 20  2  0
 23 24  1  0
 24 25  2  0
 26 29  1  0
 26 25  1  0
 27 26  2  0
 28 27  1  0
 28 23  2  0
 29 30  1  0
 30 31  1  0
 31 32  2  0
 33 32  1  0
 33 37  1  0
 34 33  2  0
 35 30  2  0
 35 34  1  0
 36 35  1  0
 38 39  1  0
 39 42  1  0
 39 41  1  0
 40 38  2  0
 43 18  1  0
 43 44  1  0
 45 43  1  0
 46 47  1  0
 46  5  1  0
 48 49  1  0
 48 47  2  0
 50 61  2  0
 51 49  1  0
 51 56  1  0
 52 60  1  0
 52 62  1  0
 53 59  1  0
 53 55  1  0
 54 60  1  0
 55 54  1  0
 56 55  2  0
 57 58  1  0
 57 51  2  0
 58 53  2  0
 59 52  1  0
 60 50  1  0
 62 64  2  0
 63 62  1  0
 65 63  1  0
 66 75  2  0
 66 71  1  0
 67 63  1  0
 67 71  1  0
 68 67  1  0
 69 70  1  0
 69 68  1  0
 70 66  1  0
 71 72  2  0
 72 73  1  0
 74 73  2  0
 75 74  1  0
 76 50  1  0
 76 81  1  0
 76 77  1  0
 77 80  1  1
 77 78  1  0
 79 77  1  0
 81 84  1  0
 82 86  1  0
 82 81  1  0
 83 82  2  0
 86 85  1  0
 88 86  1  0
 88 89  1  0
 88 87  1  0
M  ISO  4   8 100  16 100  48 101  49 101
M  END
>  <TORSDO>  (73) 
F 19

>  <SCORE>  (73) 
-14.356

>  <name>  (73) 
72

>  <ligand_id>  (73) 
72

>  <original_smiles>  (73) 
[H]c1c([H])c([H])c2c(c1[H])C([H])([H])C([H])([H])C([H])([H])C2([H])N([H])C(=O)C1([H])N(C(=O)C([H])(N([H])C(=O)C([H])(N([H])C([H])([H])[H])C([H])([H])[H])C(C([H])([H])[H])(C([H])([H])[H])C([H])([H])[H])C([H])([H])c2c([H])c(OC([H])([H])C([H])([H])Oc3c([H])c([H])c(N([H])C(=O)N4C([H])([H])C([H])([H])C([H])([H])C([H])(n5nc(-c6c([H])c([H])c(Oc7c([H])c([H])c(F)c([H])c7F)c([H])c6[H])c(C(=O)N([H])[H])c5N([H])[H])C4([H])[H])c(F)c3[H])c([H])c([H])c2C1([H])[H]

>  <smiles>  (73) 
[H]c1c([H])c([H])c2c(c1[H])C([H])([H])C([H])([H])C([H])([H])C2([H])N([H])C(=O)C1([H])N(C(=O)C([H])(N([H])C(=O)C([H])(N([H])C([H])([H])[H])C([H])([H])[H])C(C([H])([H])[H])(C([H])([H])[H])C([H])([H])[H])C([H])([H])c2c([H])c(OC([H])([H])C([H])([H])Oc3c([H])c([H])c(N([H])C(=O)N4C([H])([H])C([H])([H])C([H])([H])C([H])(n5nc(-c6c([H])c([H])c(Oc7c([H])c([H])c(F)c([H])c7F)c([H])c6[H])c(C(=O)N([H])[H])c5N([H])[H])C4([H])[H])c(F)c3[H])c([H])c([H])c2C1([H])[H]

$$$$
73:0:0
     RDKit          3D

 92100  0  0  1  0  0  0  0  0999 V2000
  -28.7010  -17.9090   20.6580 C   0  0  0  0  0  3  0  0  0  0  0  0
  -31.1060  -17.9040   20.5790 C   0  0  0  0  0  3  0  0  0  0  0  0
  -29.9060  -17.1510   20.6490 C   0  0  0  0  0  0  0  0  0  0  0  0
  -29.8870  -20.0850   20.5470 C   0  0  0  0  0  0  0  0  0  0  0  0
  -28.6810  -19.3360   20.6010 C   0  0  0  0  0  0  0  0  0  0  0  0
  -31.0920  -19.3290   20.5370 C   0  0  0  0  0  0  0  0  0  0  0  0
  -27.4830  -19.9690   20.6180 F   0  0  0  0  0  0  0  0  0  0  0  0
  -32.2750  -19.9940   20.4910 F   0  0  0  0  0  0  0  0  0  0  0  0
  -30.6570  -14.6690   20.3820 C   0  0  0  0  0  0  0  0  0  0  0  0
  -30.4590  -12.4400   19.3050 C   0  0  0  0  0  2  0  0  0  0  0  0
  -29.5040  -12.5870   18.0980 C   0  0  0  0  0  2  0  0  0  0  0  0
  -28.0320  -12.4290   18.5340 C   0  0  0  0  0  2  0  0  0  0  0  0
  -27.6840  -13.2820   19.7820 C   0  0  0  0  0  3  0  0  0  0  0  0
  -28.7470  -13.0970   20.8880 C   0  0  0  0  0  2  0  0  0  0  0  0
  -30.0560  -13.4430   20.3070 N   0  0  0  0  0  0  0  0  0  0  0  0
  -31.8150  -14.8480   19.9880 O   0  0  0  0  0  0  0  0  0  0  0  0
  -29.8240  -15.6930   20.7460 N   0  0  0  0  0  0  0  0  0  0  0  0
  -28.9150  -15.3470   21.0160 H   0  0  0  0  0  0  0  0  0  0  0  0
  -25.2960  -13.8930   20.5190 C   0  0  0  0  0  0  0  0  0  0  0  0
  -24.2300  -13.1260   20.8960 C   0  0  0  0  0  0  0  0  0  0  0  0
  -24.6840  -11.7720   20.8560 C   0  0  0  0  0  0  0  0  0  0  0  0
  -26.3340  -13.0070   20.2720 N   0  0  0  0  0  0  0  0  0  0  0  0
  -25.9710  -11.7270   20.5340 N   0  0  0  0  0  0  0  0  0  0  0  0
  -23.9530  -10.5120   21.0470 C   0  0  0  0  0  0  0  0  0  0  0  0
  -24.3810   -9.5440   21.9830 C   0  0  0  0  0  3  0  0  0  0  0  0
  -23.6510   -8.3510   22.1610 C   0  0  0  0  0  3  0  0  0  0  0  0
  -22.4780   -8.1150   21.4050 C   0  0  0  0  0  0  0  0  0  0  0  0
  -22.0700   -9.0720   20.4580 C   0  0  0  0  0  3  0  0  0  0  0  0
  -22.8010  -10.2580   20.2780 C   0  0  0  0  0  3  0  0  0  0  0  0
  -21.7210   -6.9730   21.4920 O   0  0  0  0  0  0  0  0  0  0  0  0
  -21.6520   -6.2430   22.6520 C   0  0  0  0  0  0  0  0  0  0  0  0
  -21.1640   -6.8010   23.8540 C   0  0  0  0  0  3  0  0  0  0  0  0
  -21.0430   -5.9940   25.0040 C   0  0  0  0  0  3  0  0  0  0  0  0
  -21.4010   -4.6340   24.9510 C   0  0  0  0  0  0  0  0  0  0  0  0
  -21.8800   -4.0760   23.7520 C   0  0  0  0  0  3  0  0  0  0  0  0
  -22.0010   -4.8800   22.6040 C   0  0  0  0  0  0  0  0  0  0  0  0
  -22.4450   -4.3340   21.4460 F   0  0  0  0  0  0  0  0  0  0  0  0
  -21.2760   -3.8560   26.0510 F   0  0  0  0  0  0  0  0  0  0  0  0
  -22.8370  -13.6100   21.1810 C   0  0  0  0  0  0  0  0  0  0  0  0
  -22.1130  -12.9200   22.0570 N   0  0  0  0  0  0  0  0  0  0  0  0
  -22.4000  -14.6350   20.6610 O   0  0  0  0  0  0  0  0  0  0  0  0
  -22.4780  -12.0930   22.5030 H   0  0  0  0  0  0  0  0  0  0  0  0
  -21.1780  -13.2280   22.2830 H   0  0  0  0  0  0  0  0  0  0  0  0
  -25.4620  -15.2640   20.3410 N   0  0  0  0  0  0  0  0  0  0  0  0
  -24.6770  -15.9000   20.4310 H   0  0  0  0  0  0  0  0  0  0  0  0
  -26.2670  -15.6880   19.9020 H   0  0  0  0  0  0  0  0  0  0  0  0
  -29.9840  -21.5200   20.5240 N   0  0  0  0  0  0  0  0  0  0  0  0
  -30.9370  -21.8690   20.4760 H   0  0  0  0  0  0  0  0  0  0  0  0
  -28.8910  -22.5030   20.2880 C   0  0  0  0  0  2  0  0  0  0  0  0
  -29.3000  -24.0370   20.3990 C   0  0  0  0  0  3  0  0  0  0  0  0
  -28.1700  -25.0870   20.0470 C   0  0  0  0  0  3  0  0  0  0  0  0
  -28.4040  -26.5360   20.2330 O   0  0  0  0  0  0  0  0  0  0  0  0
  -24.6290  -31.8670   23.2700 C   0  0  0  0  0  0  0  0  0  0  0  0
  -27.2810  -27.3760   20.1740 C   0  0  0  0  0  0  0  0  0  0  0  0
  -23.4430  -30.4920   21.5970 C   0  0  0  0  0  3  0  0  0  0  0  0
  -24.9100  -28.9720   20.1630 C   0  0  0  0  0  0  0  0  0  0  0  0
  -25.9830  -30.8240   21.4410 C   0  0  0  0  0  2  0  0  0  0  0  0
  -26.0730  -29.4590   20.7750 C   0  0  0  0  0  0  0  0  0  0  0  0
  -27.2620  -28.6730   20.7690 C   0  0  0  0  0  3  0  0  0  0  0  0
  -26.0910  -26.9400   19.5420 C   0  0  0  0  0  3  0  0  0  0  0  0
  -24.9210  -27.7180   19.5390 C   0  0  0  0  0  3  0  0  0  0  0  0
  -23.6720  -29.8410   20.2090 C   0  0  0  0  0  2  0  0  0  0  0  0
  -24.7030  -31.0770   22.1600 N   0  0  0  0  0  0  0  0  0  0  0  0
  -23.5390  -32.1350   23.7990 O   0  0  0  0  0  0  0  0  0  0  0  0
  -22.7760  -29.4570   22.5350 C   0  0  0  0  0  0  0  0  0  0  0  0
  -21.4510  -29.2830   22.3950 N   0  0  0  0  0  0  0  0  0  0  0  0
  -23.4500  -28.8150   23.3450 O   0  0  0  0  0  0  0  0  0  0  0  0
  -20.9680  -29.8550   21.7160 H   0  0  0  0  0  0  0  0  0  0  0  0
  -18.0630  -28.1100   22.8730 C   0  0  0  0  0  0  0  0  0  0  0  0
  -20.6240  -28.3350   23.1430 C   0  0  0  0  0  3  0  0  0  0  0  0
  -20.7100  -26.9170   22.5320 C   0  0  0  0  0  2  0  0  0  0  0  0
  -19.6020  -26.6310   21.5130 C   0  0  0  0  0  2  0  0  0  0  0  0
  -18.2240  -26.7760   22.1650 C   0  0  0  0  0  2  0  0  0  0  0  0
  -19.1900  -28.8490   23.3200 C   0  0  0  0  0  0  0  0  0  0  0  0
  -18.9870  -30.0990   23.9450 C   0  0  0  0  0  3  0  0  0  0  0  0
  -17.6880  -30.6080   24.1260 C   0  0  0  0  0  3  0  0  0  0  0  0
  -16.5750  -29.8660   23.6950 C   0  0  0  0  0  3  0  0  0  0  0  0
  -16.7630  -28.6180   23.0750 C   0  0  0  0  0  3  0  0  0  0  0  0
  -25.9050  -32.4920   23.9150 C   0  0  0  0  0  3  0  0  0  0  0  0
  -26.3910  -31.7200   25.2020 C   0  0  1  0  0  0  0  0  0  0  0  0
  -25.2760  -31.4900   26.2490 C   0  0  0  0  0  1  0  0  0  0  0  0
  -26.9740  -30.3380   24.8230 C   0  0  0  0  0  1  0  0  0  0  0  0
  -27.5310  -32.5100   25.8870 C   0  0  0  0  0  1  0  0  0  0  0  0
  -25.5980  -33.8920   24.2370 N   0  0  0  0  0  0  0  0  0  0  0  0
  -25.9190  -34.9390   23.4660 C   0  0  0  0  0  0  0  0  0  0  0  0
  -26.5750  -34.8280   22.4270 O   0  0  0  0  0  0  0  0  0  0  0  0
  -25.0150  -34.0530   25.0450 H   0  0  0  0  0  0  0  0  0  0  0  0
  -24.1750  -36.7210   23.1330 C   0  0  0  0  0  1  0  0  0  0  0  0
  -25.4370  -36.3310   23.9200 C   0  0  0  0  0  3  0  0  0  0  0  0
  -27.5810  -37.2420   24.6950 C   0  0  0  0  0  1  0  0  0  0  0  0
  -26.4620  -37.3870   23.7690 N   0  0  0  0  0  0  0  0  0  0  0  0
  -26.0540  -38.3070   23.9060 H   0  0  0  0  0  0  0  0  0  0  0  0
  2  3  2  0
  3  1  1  0
  3 17  1  0
  4  5  1  0
  5  7  1  0
  5  1  2  0
  6  4  2  0
  6  2  1  0
  8  6  1  0
  9 17  1  0
 10 15  1  0
 11 12  1  0
 11 10  1  0
 13 12  1  0
 13 22  1  0
 13 14  1  0
 15  9  1  0
 15 14  1  0
 16  9  2  0
 17 18  1  0
 19 20  2  0
 20 39  1  0
 21 20  1  0
 21 24  1  0
 22 19  1  0
 22 23  1  0
 23 21  2  0
 24 25  1  0
 25 26  2  0
 27 30  1  0
 27 26  1  0
 28 27  2  0
 29 28  1  0
 29 24  2  0
 30 31  1  0
 31 32  1  0
 32 33  2  0
 34 33  1  0
 34 38  1  0
 35 34  2  0
 36 31  2  0
 36 35  1  0
 37 36  1  0
 39 40  1  0
 40 43  1  0
 40 42  1  0
 41 39  2  0
 44 45  1  0
 44 19  1  0
 46 44  1  0
 47  4  1  0
 48 47  1  0
 49 50  1  0
 49 47  1  0
 51 52  1  0
 51 50  2  0
 53 64  2  0
 54 52  1  0
 54 59  1  0
 55 63  1  0
 55 65  1  0
 56 62  1  0
 56 58  1  0
 57 63  1  0
 58 57  1  0
 59 58  2  0
 60 54  2  0
 61 60  1  0
 61 56  2  0
 62 55  1  0
 63 53  1  0
 65 67  2  0
 66 65  1  0
 68 66  1  0
 69 78  2  0
 69 74  1  0
 70 66  1  0
 70 74  1  0
 71 70  1  0
 72 73  1  0
 72 71  1  0
 73 69  1  0
 74 75  2  0
 75 76  1  0
 77 76  2  0
 78 77  1  0
 79 53  1  0
 79 84  1  0
 79 80  1  0
 80 83  1  1
 80 81  1  0
 82 80  1  0
 84 87  1  0
 85 89  1  0
 85 84  1  0
 86 85  2  0
 89 88  1  0
 91 92  1  0
 91 89  1  0
 91 90  1  0
M  ISO  4   9 100  17 100  51 101  52 101
M  END
>  <TORSDO>  (74) 
F 20

>  <SCORE>  (74) 
-13.892

>  <name>  (74) 
73

>  <ligand_id>  (74) 
73

>  <original_smiles>  (74) 
[H]c1c([H])c([H])c2c(c1[H])C([H])([H])C([H])([H])C([H])([H])C2([H])N([H])C(=O)C1([H])N(C(=O)C([H])(N([H])C(=O)C([H])(N([H])C([H])([H])[H])C([H])([H])[H])C(C([H])([H])[H])(C([H])([H])[H])C([H])([H])[H])C([H])([H])c2c([H])c(OC([H])([H])C([H])([H])C([H])([H])N([H])c3c(F)c([H])c(N([H])C(=O)N4C([H])([H])C([H])([H])C([H])([H])C([H])(n5nc(-c6c([H])c([H])c(Oc7c([H])c([H])c(F)c([H])c7F)c([H])c6[H])c(C(=O)N([H])[H])c5N([H])[H])C4([H])[H])c([H])c3F)c([H])c([H])c2C1([H])[H]

>  <smiles>  (74) 
[H]c1c([H])c([H])c2c(c1[H])C([H])([H])C([H])([H])C([H])([H])C2([H])N([H])C(=O)C1([H])N(C(=O)C([H])(N([H])C(=O)C([H])(N([H])C([H])([H])[H])C([H])([H])[H])C(C([H])([H])[H])(C([H])([H])[H])C([H])([H])[H])C([H])([H])c2c([H])c(OC([H])([H])C([H])([H])C([H])([H])N([H])c3c(F)c([H])c(N([H])C(=O)N4C([H])([H])C([H])([H])C([H])([H])C([H])(n5nc(-c6c([H])c([H])c(Oc7c([H])c([H])c(F)c([H])c7F)c([H])c6[H])c(C(=O)N([H])[H])c5N([H])[H])C4([H])[H])c([H])c3F)c([H])c([H])c2C1([H])[H]

$$$$
74:0:0
     RDKit          3D

 92100  0  0  1  0  0  0  0  0999 V2000
  -30.3650  -18.6290   21.0640 C   0  0  0  0  0  3  0  0  0  0  0  0
  -28.3240  -19.6300   19.5020 C   0  0  0  0  0  3  0  0  0  0  0  0
  -29.6150  -17.6100   20.3690 C   0  0  0  0  0  0  0  0  0  0  0  0
  -29.0340  -20.6550   20.2100 C   0  0  0  0  0  0  0  0  0  0  0  0
  -30.0980  -20.0700   20.9940 C   0  0  0  0  0  0  0  0  0  0  0  0
  -28.5850  -18.2090   19.5740 C   0  0  0  0  0  0  0  0  0  0  0  0
  -30.8760  -20.8900   21.7370 F   0  0  0  0  0  0  0  0  0  0  0  0
  -27.5600  -17.1700   18.6510 Cl  0  0  0  0  0  0  0  0  0  0  0  0
  -30.5030  -14.9840   20.3620 C   0  0  0  0  0  0  0  0  0  0  0  0
  -30.4090  -12.6450   19.3920 C   0  0  0  0  0  2  0  0  0  0  0  0
  -29.4670  -12.6350   18.1650 C   0  0  0  0  0  2  0  0  0  0  0  0
  -28.0010  -12.4270   18.5940 C   0  0  0  0  0  2  0  0  0  0  0  0
  -27.6020  -13.3280   19.7920 C   0  0  0  0  0  3  0  0  0  0  0  0
  -28.6630  -13.2950   20.9140 C   0  0  0  0  0  2  0  0  0  0  0  0
  -29.9400  -13.7120   20.3160 N   0  0  0  0  0  0  0  0  0  0  0  0
  -31.6980  -15.1040   20.0690 O   0  0  0  0  0  0  0  0  0  0  0  0
  -29.6410  -16.0860   20.5630 N   0  0  0  0  0  0  0  0  0  0  0  0
  -28.7060  -15.7290   20.6820 H   0  0  0  0  0  0  0  0  0  0  0  0
  -25.2170  -13.9070   20.5260 C   0  0  0  0  0  0  0  0  0  0  0  0
  -24.1530  -13.1300   20.8940 C   0  0  0  0  0  0  0  0  0  0  0  0
  -24.6190  -11.7800   20.8590 C   0  0  0  0  0  0  0  0  0  0  0  0
  -26.2610  -13.0300   20.2840 N   0  0  0  0  0  0  0  0  0  0  0  0
  -25.9100  -11.7460   20.5510 N   0  0  0  0  0  0  0  0  0  0  0  0
  -23.8930  -10.5170   21.0450 C   0  0  0  0  0  0  0  0  0  0  0  0
  -24.3220   -9.5490   21.9800 C   0  0  0  0  0  3  0  0  0  0  0  0
  -23.5950   -8.3510   22.1540 C   0  0  0  0  0  3  0  0  0  0  0  0
  -22.4260   -8.1140   21.3930 C   0  0  0  0  0  0  0  0  0  0  0  0
  -22.0170   -9.0700   20.4470 C   0  0  0  0  0  3  0  0  0  0  0  0
  -22.7440  -10.2600   20.2710 C   0  0  0  0  0  3  0  0  0  0  0  0
  -21.6710   -6.9690   21.4760 O   0  0  0  0  0  0  0  0  0  0  0  0
  -21.6100   -6.2300   22.6300 C   0  0  0  0  0  0  0  0  0  0  0  0
  -21.1550   -6.7830   23.8460 C   0  0  0  0  0  3  0  0  0  0  0  0
  -21.0430   -5.9690   24.9920 C   0  0  0  0  0  3  0  0  0  0  0  0
  -21.3750   -4.6030   24.9200 C   0  0  0  0  0  0  0  0  0  0  0  0
  -21.8230   -4.0490   23.7090 C   0  0  0  0  0  3  0  0  0  0  0  0
  -21.9370   -4.8600   22.5650 C   0  0  0  0  0  0  0  0  0  0  0  0
  -22.3490   -4.3160   21.3950 F   0  0  0  0  0  0  0  0  0  0  0  0
  -21.2600   -3.8190   26.0180 F   0  0  0  0  0  0  0  0  0  0  0  0
  -22.7550  -13.6070   21.1610 C   0  0  0  0  0  0  0  0  0  0  0  0
  -22.0270  -12.9130   22.0290 N   0  0  0  0  0  0  0  0  0  0  0  0
  -22.3150  -14.6280   20.6340 O   0  0  0  0  0  0  0  0  0  0  0  0
  -22.3950  -12.0880   22.4780 H   0  0  0  0  0  0  0  0  0  0  0  0
  -21.0890  -13.2140   22.2500 H   0  0  0  0  0  0  0  0  0  0  0  0
  -25.3720  -15.2770   20.3510 N   0  0  0  0  0  0  0  0  0  0  0  0
  -24.5830  -15.9080   20.4350 H   0  0  0  0  0  0  0  0  0  0  0  0
  -26.1700  -15.7110   19.9020 H   0  0  0  0  0  0  0  0  0  0  0  0
  -28.9040  -23.4320   20.4520 C   0  0  0  0  0  0  0  0  0  0  0  0
  -28.5560  -22.1110   20.0690 N   0  0  0  0  0  0  0  0  0  0  0  0
  -29.9330  -23.6480   21.0950 O   0  0  0  0  0  0  0  0  0  0  0  0
  -27.7070  -22.1580   19.5230 H   0  0  0  0  0  0  0  0  0  0  0  0
  -27.9470  -24.7240   20.0480 C   0  0  0  0  0  2  0  0  0  0  0  0
  -28.2620  -26.2150   20.3670 O   0  0  0  0  0  0  0  0  0  0  0  0
  -24.6420  -31.9310   23.3010 C   0  0  0  0  0  0  0  0  0  0  0  0
  -27.2190  -27.2120   20.2820 C   0  0  0  0  0  0  0  0  0  0  0  0
  -23.4460  -30.5410   21.6560 C   0  0  0  0  0  3  0  0  0  0  0  0
  -24.8960  -28.9640   20.2380 C   0  0  0  0  0  0  0  0  0  0  0  0
  -26.0020  -30.7950   21.5060 C   0  0  0  0  0  2  0  0  0  0  0  0
  -26.0740  -29.4040   20.8550 C   0  0  0  0  0  0  0  0  0  0  0  0
  -27.2360  -28.5430   20.8620 C   0  0  0  0  0  3  0  0  0  0  0  0
  -26.0150  -26.8780   19.6190 C   0  0  0  0  0  3  0  0  0  0  0  0
  -24.8790  -27.7140   19.6050 C   0  0  0  0  0  3  0  0  0  0  0  0
  -23.6720  -29.8640   20.2790 C   0  0  0  0  0  2  0  0  0  0  0  0
  -24.7170  -31.1100   22.2090 N   0  0  0  0  0  0  0  0  0  0  0  0
  -23.5550  -32.2210   23.8220 O   0  0  0  0  0  0  0  0  0  0  0  0
  -22.7580  -29.5360   22.6140 C   0  0  0  0  0  0  0  0  0  0  0  0
  -21.4300  -29.3690   22.4790 N   0  0  0  0  0  0  0  0  0  0  0  0
  -23.4210  -28.9080   23.4430 O   0  0  0  0  0  0  0  0  0  0  0  0
  -20.9510  -29.9240   21.7840 H   0  0  0  0  0  0  0  0  0  0  0  0
  -18.0400  -28.1860   22.9630 C   0  0  0  0  0  0  0  0  0  0  0  0
  -20.5990  -28.4370   23.2450 C   0  0  0  0  0  3  0  0  0  0  0  0
  -20.6970  -27.0030   22.6750 C   0  0  0  0  0  2  0  0  0  0  0  0
  -19.6000  -26.6830   21.6540 C   0  0  0  0  0  2  0  0  0  0  0  0
  -18.2150  -26.8350   22.2900 C   0  0  0  0  0  2  0  0  0  0  0  0
  -19.1590  -28.9450   23.3980 C   0  0  0  0  0  0  0  0  0  0  0  0
  -18.9410  -30.2090   23.9880 C   0  0  0  0  0  3  0  0  0  0  0  0
  -17.6360  -30.7130   24.1480 C   0  0  0  0  0  3  0  0  0  0  0  0
  -16.5320  -29.9510   23.7290 C   0  0  0  0  0  3  0  0  0  0  0  0
  -16.7340  -28.6900   23.1420 C   0  0  0  0  0  3  0  0  0  0  0  0
  -25.9200  -32.5610   23.9330 C   0  0  0  0  0  3  0  0  0  0  0  0
  -25.6150  -33.9640   24.2570 N   0  0  0  0  0  0  0  0  0  0  0  0
  -25.9310  -35.0120   23.4840 C   0  0  0  0  0  0  0  0  0  0  0  0
  -26.5760  -34.9000   22.4390 O   0  0  0  0  0  0  0  0  0  0  0  0
  -25.0370  -34.1250   25.0680 H   0  0  0  0  0  0  0  0  0  0  0  0
  -24.1800  -36.7950   23.1780 C   0  0  0  0  0  1  0  0  0  0  0  0
  -25.4560  -36.4050   23.9420 C   0  0  0  0  0  3  0  0  0  0  0  0
  -27.6160  -37.3150   24.6770 C   0  0  0  0  0  1  0  0  0  0  0  0
  -26.4780  -37.4610   23.7730 N   0  0  0  0  0  0  0  0  0  0  0  0
  -26.0720  -38.3820   23.9200 H   0  0  0  0  0  0  0  0  0  0  0  0
  -26.4140  -31.7960   25.2240 C   0  0  1  0  0  0  0  0  0  0  0  0
  -25.3060  -31.5760   26.2800 C   0  0  0  0  0  1  0  0  0  0  0  0
  -26.9910  -30.4100   24.8540 C   0  0  0  0  0  1  0  0  0  0  0  0
  -27.5640  -32.5870   25.8930 C   0  0  0  0  0  1  0  0  0  0  0  0
  2  6  2  0
  2  4  1  0
  3 17  1  0
  3  1  2  0
  4  5  2  0
  5  1  1  0
  5  7  1  0
  6  3  1  0
  8  6  1  0
  9 17  1  0
 10 15  1  0
 11 12  1  0
 11 10  1  0
 13 12  1  0
 13 22  1  0
 13 14  1  0
 15  9  1  0
 15 14  1  0
 16  9  2  0
 17 18  1  0
 19 20  2  0
 20 39  1  0
 21 20  1  0
 21 24  1  0
 22 19  1  0
 22 23  1  0
 23 21  2  0
 24 25  1  0
 25 26  2  0
 27 30  1  0
 27 26  1  0
 28 27  2  0
 29 28  1  0
 29 24  2  0
 30 31  1  0
 31 32  1  0
 32 33  2  0
 34 33  1  0
 34 38  1  0
 35 34  2  0
 36 31  2  0
 36 35  1  0
 37 36  1  0
 39 40  1  0
 40 43  1  0
 40 42  1  0
 41 39  2  0
 44 45  1  0
 44 19  1  0
 46 44  1  0
 47 49  2  0
 48  4  1  0
 48 47  1  0
 50 48  1  0
 51 52  1  0
 51 47  1  0
 53 64  2  0
 54 52  1  0
 54 59  1  0
 55 63  1  0
 55 65  1  0
 56 62  1  0
 56 58  1  0
 57 63  1  0
 58 59  2  0
 58 57  1  0
 60 54  2  0
 61 60  1  0
 61 56  2  0
 62 55  1  0
 63 53  1  0
 65 67  2  0
 66 65  1  0
 68 66  1  0
 69 78  2  0
 69 74  1  0
 70 66  1  0
 70 74  1  0
 71 70  1  0
 72 73  1  0
 72 71  1  0
 73 69  1  0
 74 75  2  0
 75 76  1  0
 77 76  2  0
 78 77  1  0
 79 53  1  0
 79 80  1  0
 79 89  1  0
 80 83  1  0
 81 85  1  0
 81 80  1  0
 82 81  2  0
 85 84  1  0
 87 88  1  0
 87 85  1  0
 87 86  1  0
 89 92  1  1
 89 90  1  0
 91 89  1  0
M  ISO  4   9 100  17 100  51 101  52 101
M  END
>  <TORSDO>  (75) 
F 18

>  <SCORE>  (75) 
-14.892

>  <name>  (75) 
74

>  <ligand_id>  (75) 
74

>  <original_smiles>  (75) 
[H]c1c([H])c([H])c2c(c1[H])C([H])([H])C([H])([H])C([H])([H])C2([H])N([H])C(=O)C1([H])N(C(=O)C([H])(N([H])C(=O)C([H])(N([H])C([H])([H])[H])C([H])([H])[H])C(C([H])([H])[H])(C([H])([H])[H])C([H])([H])[H])C([H])([H])c2c([H])c(OC([H])([H])C(=O)N([H])c3c([H])c(Cl)c(N([H])C(=O)N4C([H])([H])C([H])([H])C([H])([H])C([H])(n5nc(-c6c([H])c([H])c(Oc7c([H])c([H])c(F)c([H])c7F)c([H])c6[H])c(C(=O)N([H])[H])c5N([H])[H])C4([H])[H])c([H])c3F)c([H])c([H])c2C1([H])[H]

>  <smiles>  (75) 
[H]c1c([H])c([H])c2c(c1[H])C([H])([H])C([H])([H])C([H])([H])C2([H])N([H])C(=O)C1([H])N(C(=O)C([H])(N([H])C(=O)C([H])(N([H])C([H])([H])[H])C([H])([H])[H])C(C([H])([H])[H])(C([H])([H])[H])C([H])([H])[H])C([H])([H])c2c([H])c(OC([H])([H])C(=O)N([H])c3c([H])c(Cl)c(N([H])C(=O)N4C([H])([H])C([H])([H])C([H])([H])C([H])(n5nc(-c6c([H])c([H])c(Oc7c([H])c([H])c(F)c([H])c7F)c([H])c6[H])c(C(=O)N([H])[H])c5N([H])[H])C4([H])[H])c([H])c3F)c([H])c([H])c2C1([H])[H]

$$$$
75:0:0
     RDKit          3D

 92101  0  0  1  0  0  0  0  0999 V2000
  -30.3890  -19.4170   19.1970 C   0  0  0  0  0  3  0  0  0  0  0  0
  -30.6160  -18.0300   19.4690 C   0  0  0  0  0  3  0  0  0  0  0  0
  -29.9960  -18.3980   21.7690 C   0  0  0  0  0  3  0  0  0  0  0  0
  -29.3140  -20.8520   22.3620 C   0  0  0  0  0  3  0  0  0  0  0  0
  -29.7640  -19.7860   21.5290 C   0  0  0  0  0  0  0  0  0  0  0  0
  -29.9450  -20.3110   20.2110 C   0  0  0  0  0  0  0  0  0  0  0  0
  -30.4050  -17.4840   20.7660 C   0  0  0  0  0  0  0  0  0  0  0  0
  -29.1560  -21.9620   21.5750 C   0  0  0  0  0  0  0  0  0  0  0  0
  -28.5740  -23.2600   22.0430 C   0  0  0  0  0  1  0  0  0  0  0  0
  -29.5680  -21.6940   20.2580 N   0  0  0  0  0  0  0  0  0  0  0  0
  -31.2350  -15.0130   20.7450 C   0  0  0  0  0  0  0  0  0  0  0  0
  -31.1360  -12.6400   19.9910 C   0  0  0  0  0  2  0  0  0  0  0  0
  -30.3200  -12.5900   18.6810 C   0  0  0  0  0  2  0  0  0  0  0  0
  -28.8070  -12.4930   18.9700 C   0  0  0  0  0  2  0  0  0  0  0  0
  -28.3330  -13.5110   20.0430 C   0  0  0  0  0  3  0  0  0  0  0  0
  -29.2730  -13.5020   21.2700 C   0  0  0  0  0  2  0  0  0  0  0  0
  -30.6400  -13.7780   20.7920 N   0  0  0  0  0  0  0  0  0  0  0  0
  -32.3940  -15.1600   20.3430 O   0  0  0  0  0  0  0  0  0  0  0  0
  -30.4410  -16.0650   21.1120 N   0  0  0  0  0  0  0  0  0  0  0  0
  -29.6320  -15.7490   21.6260 H   0  0  0  0  0  0  0  0  0  0  0  0
  -25.9100  -14.2040   20.5520 C   0  0  0  0  0  0  0  0  0  0  0  0
  -24.7920  -13.4760   20.8590 C   0  0  0  0  0  0  0  0  0  0  0  0
  -25.2060  -12.1100   20.8920 C   0  0  0  0  0  0  0  0  0  0  0  0
  -26.9400  -13.2850   20.4230 N   0  0  0  0  0  0  0  0  0  0  0  0
  -26.5150  -12.0210   20.6850 N   0  0  0  0  0  0  0  0  0  0  0  0
  -24.4220  -10.8790   21.0570 C   0  0  0  0  0  0  0  0  0  0  0  0
  -24.7730   -9.9020   22.0140 C   0  0  0  0  0  3  0  0  0  0  0  0
  -23.9930   -8.7360   22.1660 C   0  0  0  0  0  3  0  0  0  0  0  0
  -22.8470   -8.5370   21.3580 C   0  0  0  0  0  0  0  0  0  0  0  0
  -22.5150   -9.5030   20.3930 C   0  0  0  0  0  3  0  0  0  0  0  0
  -23.2950  -10.6600   20.2380 C   0  0  0  0  0  3  0  0  0  0  0  0
  -22.0470   -7.4230   21.4170 O   0  0  0  0  0  0  0  0  0  0  0  0
  -21.9470   -6.6660   22.5570 C   0  0  0  0  0  0  0  0  0  0  0  0
  -21.5240   -7.2200   23.7850 C   0  0  0  0  0  3  0  0  0  0  0  0
  -21.3680   -6.3930   24.9150 C   0  0  0  0  0  3  0  0  0  0  0  0
  -21.6280   -5.0130   24.8190 C   0  0  0  0  0  0  0  0  0  0  0  0
  -22.0460   -4.4570   23.5970 C   0  0  0  0  0  3  0  0  0  0  0  0
  -22.2020   -5.2830   22.4680 C   0  0  0  0  0  0  0  0  0  0  0  0
  -22.5850   -4.7380   21.2880 F   0  0  0  0  0  0  0  0  0  0  0  0
  -21.4710   -4.2160   25.9020 F   0  0  0  0  0  0  0  0  0  0  0  0
  -23.3960  -14.0080   21.0120 C   0  0  0  0  0  0  0  0  0  0  0  0
  -22.5810  -13.3680   21.8440 N   0  0  0  0  0  0  0  0  0  0  0  0
  -23.0310  -15.0280   20.4290 O   0  0  0  0  0  0  0  0  0  0  0  0
  -22.8820  -12.5440   22.3440 H   0  0  0  0  0  0  0  0  0  0  0  0
  -21.6420  -13.7100   21.9880 H   0  0  0  0  0  0  0  0  0  0  0  0
  -26.1330  -15.5640   20.3550 N   0  0  0  0  0  0  0  0  0  0  0  0
  -25.3810  -16.2430   20.3930 H   0  0  0  0  0  0  0  0  0  0  0  0
  -27.0230  -15.9710   20.0940 H   0  0  0  0  0  0  0  0  0  0  0  0
  -29.4310  -22.6610   19.1110 C   0  0  0  0  0  2  0  0  0  0  0  0
  -29.7290  -24.2260   19.2960 C   0  0  0  0  0  3  0  0  0  0  0  0
  -28.5410  -25.2270   18.9500 C   0  0  0  0  0  3  0  0  0  0  0  0
  -28.6710  -26.6900   19.1570 O   0  0  0  0  0  0  0  0  0  0  0  0
  -24.6370  -31.4080   22.8380 C   0  0  0  0  0  0  0  0  0  0  0  0
  -27.4880  -27.4490   19.2170 C   0  0  0  0  0  0  0  0  0  0  0  0
  -23.4870  -30.1020   21.0890 C   0  0  0  0  0  3  0  0  0  0  0  0
  -25.0010  -28.8480   19.4540 C   0  0  0  0  0  0  0  0  0  0  0  0
  -25.9860  -30.6500   20.8700 C   0  0  0  0  0  2  0  0  0  0  0  0
  -26.1500  -29.3640   20.0690 C   0  0  0  0  0  0  0  0  0  0  0  0
  -27.3940  -28.6770   19.9420 C   0  0  0  0  0  3  0  0  0  0  0  0
  -26.3090  -26.9960   18.5750 C   0  0  0  0  0  3  0  0  0  0  0  0
  -25.0830  -27.6710   18.6990 C   0  0  0  0  0  3  0  0  0  0  0  0
  -23.7000  -29.6040   19.6360 C   0  0  0  0  0  2  0  0  0  0  0  0
  -24.7230  -30.7330   21.6550 N   0  0  0  0  0  0  0  0  0  0  0  0
  -23.5550  -31.5350   23.4300 O   0  0  0  0  0  0  0  0  0  0  0  0
  -22.9460  -28.9340   21.9460 C   0  0  0  0  0  0  0  0  0  0  0  0
  -21.6400  -28.6440   21.8180 N   0  0  0  0  0  0  0  0  0  0  0  0
  -23.6990  -28.2960   22.6870 O   0  0  0  0  0  0  0  0  0  0  0  0
  -21.0850  -29.2170   21.1980 H   0  0  0  0  0  0  0  0  0  0  0  0
  -18.4130  -27.0520   22.1900 C   0  0  0  0  0  0  0  0  0  0  0  0
  -20.9290  -27.5600   22.5000 C   0  0  0  0  0  3  0  0  0  0  0  0
  -21.1840  -26.2020   21.8050 C   0  0  0  0  0  2  0  0  0  0  0  0
  -20.1210  -25.8510   20.7600 C   0  0  0  0  0  2  0  0  0  0  0  0
  -18.7320  -25.7920   21.4030 C   0  0  0  0  0  2  0  0  0  0  0  0
  -19.4440  -27.8910   22.6920 C   0  0  0  0  0  0  0  0  0  0  0  0
  -19.0920  -29.0660   23.3880 C   0  0  0  0  0  3  0  0  0  0  0  0
  -17.7420  -29.4090   23.5870 C   0  0  0  0  0  3  0  0  0  0  0  0
  -16.7250  -28.5680   23.1000 C   0  0  0  0  0  3  0  0  0  0  0  0
  -17.0610  -27.3910   22.4080 C   0  0  0  0  0  3  0  0  0  0  0  0
  -25.8870  -32.0730   23.4890 C   0  0  0  0  0  3  0  0  0  0  0  0
  -26.5160  -31.2130   24.6530 C   0  0  1  0  0  0  0  0  0  0  0  0
  -25.4890  -30.7730   25.7220 C   0  0  0  0  0  1  0  0  0  0  0  0
  -27.1860  -29.9370   24.0920 C   0  0  0  0  0  1  0  0  0  0  0  0
  -27.6280  -32.0220   25.3610 C   0  0  0  0  0  1  0  0  0  0  0  0
  -25.4750  -33.3950   23.9860 N   0  0  0  0  0  0  0  0  0  0  0  0
  -25.7140  -34.5530   23.3570 C   0  0  0  0  0  0  0  0  0  0  0  0
  -26.3700  -34.6260   22.3140 O   0  0  0  0  0  0  0  0  0  0  0  0
  -24.8800  -33.4050   24.8010 H   0  0  0  0  0  0  0  0  0  0  0  0
  -23.8430  -36.2310   23.2450 C   0  0  0  0  0  1  0  0  0  0  0  0
  -25.1320  -35.8350   23.9820 C   0  0  0  0  0  3  0  0  0  0  0  0
  -27.2100  -36.7860   24.8790 C   0  0  0  0  0  1  0  0  0  0  0  0
  -26.0770  -36.9720   23.9760 N   0  0  0  0  0  0  0  0  0  0  0  0
  -25.6050  -37.8350   24.2350 H   0  0  0  0  0  0  0  0  0  0  0  0
  1  2  2  0
  1  6  1  0
  2  7  1  0
  5  3  1  0
  5  4  1  0
  6 10  1  0
  6  5  2  0
  7 19  1  0
  7  3  2  0
  8  9  1  0
  8  4  2  0
 10  8  1  0
 11 17  1  0
 11 19  1  0
 12 17  1  0
 13 14  1  0
 13 12  1  0
 15 14  1  0
 15 24  1  0
 15 16  1  0
 17 16  1  0
 18 11  2  0
 19 20  1  0
 21 22  2  0
 22 23  1  0
 22 41  1  0
 23 26  1  0
 24 21  1  0
 24 25  1  0
 25 23  2  0
 26 27  1  0
 27 28  2  0
 29 32  1  0
 29 28  1  0
 30 29  2  0
 31 30  1  0
 31 26  2  0
 32 33  1  0
 33 34  1  0
 34 35  2  0
 36 35  1  0
 36 40  1  0
 37 36  2  0
 38 33  2  0
 38 37  1  0
 39 38  1  0
 41 42  1  0
 42 45  1  0
 42 44  1  0
 43 41  2  0
 46 47  1  0
 46 21  1  0
 48 46  1  0
 49 50  1  0
 49 10  1  0
 51 52  1  0
 51 50  2  0
 52 54  1  0
 53 64  2  0
 54 59  1  0
 55 63  1  0
 55 65  1  0
 56 62  1  0
 56 58  1  0
 57 63  1  0
 58 57  1  0
 59 58  2  0
 60 61  1  0
 60 54  2  0
 61 56  2  0
 62 55  1  0
 63 53  1  0
 65 67  2  0
 66 65  1  0
 68 66  1  0
 69 78  2  0
 69 74  1  0
 70 66  1  0
 70 74  1  0
 71 70  1  0
 72 73  1  0
 72 71  1  0
 73 69  1  0
 74 75  2  0
 75 76  1  0
 77 76  2  0
 78 77  1  0
 79 53  1  0
 79 84  1  0
 79 80  1  0
 80 83  1  1
 80 81  1  0
 82 80  1  0
 84 87  1  0
 85 89  1  0
 85 84  1  0
 86 85  2  0
 89 88  1  0
 91 89  1  0
 91 92  1  0
 91 90  1  0
M  ISO  4  11 100  19 100  51 101  52 101
M  END
>  <TORSDO>  (76) 
F 19

>  <SCORE>  (76) 
-10.890

>  <name>  (76) 
75

>  <ligand_id>  (76) 
75

>  <original_smiles>  (76) 
[H]c1c([H])c([H])c2c(c1[H])C([H])([H])C([H])([H])C([H])([H])C2([H])N([H])C(=O)C1([H])N(C(=O)C([H])(N([H])C(=O)C([H])(N([H])C([H])([H])[H])C([H])([H])[H])C(C([H])([H])[H])(C([H])([H])[H])C([H])([H])[H])C([H])([H])c2c([H])c(OC([H])([H])C([H])([H])C([H])([H])n3c(C([H])([H])[H])c([H])c4c([H])c(N([H])C(=O)N5C([H])([H])C([H])([H])C([H])([H])C([H])(n6nc(-c7c([H])c([H])c(Oc8c([H])c([H])c(F)c([H])c8F)c([H])c7[H])c(C(=O)N([H])[H])c6N([H])[H])C5([H])[H])c([H])c([H])c43)c([H])c([H])c2C1([H])[H]

>  <smiles>  (76) 
[H]c1c([H])c([H])c2c(c1[H])C([H])([H])C([H])([H])C([H])([H])C2([H])N([H])C(=O)C1([H])N(C(=O)C([H])(N([H])C(=O)C([H])(N([H])C([H])([H])[H])C([H])([H])[H])C(C([H])([H])[H])(C([H])([H])[H])C([H])([H])[H])C([H])([H])c2c([H])c(OC([H])([H])C([H])([H])C([H])([H])n3c(C([H])([H])[H])c([H])c4c([H])c(N([H])C(=O)N5C([H])([H])C([H])([H])C([H])([H])C([H])(n6nc(-c7c([H])c([H])c(Oc8c([H])c([H])c(F)c([H])c8F)c([H])c7[H])c(C(=O)N([H])[H])c6N([H])[H])C5([H])[H])c([H])c([H])c43)c([H])c([H])c2C1([H])[H]

$$$$
76:0:0
     RDKit          3D

 91 99  0  0  1  0  0  0  0  0999 V2000
  -28.8990  -23.4310   20.3970 C   0  0  0  0  0  0  0  0  0  0  0  0
  -28.5490  -22.1080   20.0260 N   0  0  0  0  0  0  0  0  0  0  0  0
  -29.9170  -23.6420   21.0610 O   0  0  0  0  0  0  0  0  0  0  0  0
  -27.7080  -22.1510   19.4660 H   0  0  0  0  0  0  0  0  0  0  0  0
  -30.0760  -20.0850   21.0000 C   0  0  0  0  0  3  0  0  0  0  0  0
  -30.3520  -18.6470   21.1050 C   0  0  0  0  0  3  0  0  0  0  0  0
  -28.3200  -19.6150   19.5050 C   0  0  0  0  0  3  0  0  0  0  0  0
  -29.0200  -20.6550   20.2000 C   0  0  0  0  0  0  0  0  0  0  0  0
  -29.6120  -17.6140   20.4180 C   0  0  0  0  0  0  0  0  0  0  0  0
  -28.5860  -18.1950   19.6030 C   0  0  0  0  0  0  0  0  0  0  0  0
  -27.5740  -17.1360   18.6880 Cl  0  0  0  0  0  0  0  0  0  0  0  0
  -30.5020  -14.9910   20.4450 C   0  0  0  0  0  0  0  0  0  0  0  0
  -30.4260  -12.6410   19.4990 C   0  0  0  0  0  2  0  0  0  0  0  0
  -29.5020  -12.6120   18.2590 C   0  0  0  0  0  2  0  0  0  0  0  0
  -28.0300  -12.4040   18.6690 C   0  0  0  0  0  2  0  0  0  0  0  0
  -27.6120  -13.3210   19.8480 C   0  0  0  0  0  3  0  0  0  0  0  0
  -28.6550  -13.3050   20.9870 C   0  0  0  0  0  2  0  0  0  0  0  0
  -29.9410  -13.7170   20.4050 N   0  0  0  0  0  0  0  0  0  0  0  0
  -31.7000  -15.1080   20.1590 O   0  0  0  0  0  0  0  0  0  0  0  0
  -29.6420  -16.0960   20.6400 N   0  0  0  0  0  0  0  0  0  0  0  0
  -28.7080  -15.7410   20.7710 H   0  0  0  0  0  0  0  0  0  0  0  0
  -25.2190  -13.9050   20.5540 C   0  0  0  0  0  0  0  0  0  0  0  0
  -24.1480  -13.1310   20.9070 C   0  0  0  0  0  0  0  0  0  0  0  0
  -24.6120  -11.7810   20.8790 C   0  0  0  0  0  0  0  0  0  0  0  0
  -26.2650  -13.0260   20.3240 N   0  0  0  0  0  0  0  0  0  0  0  0
  -25.9070  -11.7430   20.5860 N   0  0  0  0  0  0  0  0  0  0  0  0
  -23.8800  -10.5200   21.0560 C   0  0  0  0  0  0  0  0  0  0  0  0
  -24.2960   -9.5500   21.9950 C   0  0  0  0  0  3  0  0  0  0  0  0
  -23.5630   -8.3540   22.1600 C   0  0  0  0  0  3  0  0  0  0  0  0
  -22.4020   -8.1210   21.3860 C   0  0  0  0  0  0  0  0  0  0  0  0
  -22.0040   -9.0790   20.4380 C   0  0  0  0  0  3  0  0  0  0  0  0
  -22.7380  -10.2670   20.2710 C   0  0  0  0  0  3  0  0  0  0  0  0
  -21.6430   -6.9780   21.4620 O   0  0  0  0  0  0  0  0  0  0  0  0
  -21.5690   -6.2360   22.6140 C   0  0  0  0  0  0  0  0  0  0  0  0
  -21.1020   -6.7890   23.8260 C   0  0  0  0  0  3  0  0  0  0  0  0
  -20.9780   -5.9740   24.9700 C   0  0  0  0  0  3  0  0  0  0  0  0
  -21.3080   -4.6070   24.9010 C   0  0  0  0  0  0  0  0  0  0  0  0
  -21.7680   -4.0550   23.6920 C   0  0  0  0  0  3  0  0  0  0  0  0
  -21.8950   -4.8670   22.5510 C   0  0  0  0  0  0  0  0  0  0  0  0
  -22.3180   -4.3250   21.3840 F   0  0  0  0  0  0  0  0  0  0  0  0
  -21.1820   -3.8230   25.9960 F   0  0  0  0  0  0  0  0  0  0  0  0
  -22.7480  -13.6120   21.1570 C   0  0  0  0  0  0  0  0  0  0  0  0
  -22.0080  -12.9200   22.0150 N   0  0  0  0  0  0  0  0  0  0  0  0
  -22.3190  -14.6350   20.6250 O   0  0  0  0  0  0  0  0  0  0  0  0
  -22.3680  -12.0930   22.4680 H   0  0  0  0  0  0  0  0  0  0  0  0
  -21.0670  -13.2230   22.2250 H   0  0  0  0  0  0  0  0  0  0  0  0
  -25.3800  -15.2750   20.3800 N   0  0  0  0  0  0  0  0  0  0  0  0
  -24.5900  -15.9070   20.4560 H   0  0  0  0  0  0  0  0  0  0  0  0
  -26.1850  -15.7090   19.9460 H   0  0  0  0  0  0  0  0  0  0  0  0
  -27.9550  -24.7220   19.9610 C   0  0  0  0  0  2  0  0  0  0  0  0
  -28.2620  -26.2160   20.2760 O   0  0  0  0  0  0  0  0  0  0  0  0
  -24.6250  -31.8940   23.2590 C   0  0  0  0  0  0  0  0  0  0  0  0
  -27.2120  -27.2050   20.2000 C   0  0  0  0  0  0  0  0  0  0  0  0
  -23.4260  -30.5030   21.6160 C   0  0  0  0  0  3  0  0  0  0  0  0
  -24.8770  -28.9420   20.1810 C   0  0  0  0  0  0  0  0  0  0  0  0
  -25.9800  -30.7750   21.4500 C   0  0  0  0  0  2  0  0  0  0  0  0
  -26.0560  -29.3880   20.7910 C   0  0  0  0  0  0  0  0  0  0  0  0
  -27.2230  -28.5340   20.7880 C   0  0  0  0  0  3  0  0  0  0  0  0
  -26.0060  -26.8690   19.5420 C   0  0  0  0  0  3  0  0  0  0  0  0
  -24.8640  -27.6960   19.5410 C   0  0  0  0  0  3  0  0  0  0  0  0
  -23.6470  -29.8350   20.2340 C   0  0  0  0  0  2  0  0  0  0  0  0
  -24.6970  -31.0780   22.1630 N   0  0  0  0  0  0  0  0  0  0  0  0
  -23.5390  -32.1740   23.7880 O   0  0  0  0  0  0  0  0  0  0  0  0
  -22.7510  -29.4900   22.5740 C   0  0  0  0  0  0  0  0  0  0  0  0
  -21.4240  -29.3110   22.4420 N   0  0  0  0  0  0  0  0  0  0  0  0
  -23.4230  -28.8660   23.4000 O   0  0  0  0  0  0  0  0  0  0  0  0
  -20.9380  -29.8640   21.7510 H   0  0  0  0  0  0  0  0  0  0  0  0
  -18.0490  -28.0860   22.9260 C   0  0  0  0  0  0  0  0  0  0  0  0
  -20.6050  -28.3690   23.2090 C   0  0  0  0  0  3  0  0  0  0  0  0
  -20.7210  -26.9370   22.6400 C   0  0  0  0  0  2  0  0  0  0  0  0
  -19.6290  -26.6010   21.6200 C   0  0  0  0  0  2  0  0  0  0  0  0
  -18.2410  -26.7360   22.2530 C   0  0  0  0  0  2  0  0  0  0  0  0
  -19.1580  -28.8590   23.3610 C   0  0  0  0  0  0  0  0  0  0  0  0
  -18.9240  -30.1200   23.9500 C   0  0  0  0  0  3  0  0  0  0  0  0
  -17.6130  -30.6090   24.1080 C   0  0  0  0  0  3  0  0  0  0  0  0
  -16.5190  -29.8330   23.6890 C   0  0  0  0  0  3  0  0  0  0  0  0
  -16.7370  -28.5730   23.1030 C   0  0  0  0  0  3  0  0  0  0  0  0
  -25.9040  -32.5290   23.8860 C   0  0  0  0  0  3  0  0  0  0  0  0
  -25.5930  -33.9300   24.2140 N   0  0  0  0  0  0  0  0  0  0  0  0
  -25.9170  -34.9830   23.4510 C   0  0  0  0  0  0  0  0  0  0  0  0
  -26.5770  -34.8790   22.4140 O   0  0  0  0  0  0  0  0  0  0  0  0
  -25.0050  -34.0850   25.0190 H   0  0  0  0  0  0  0  0  0  0  0  0
  -24.1810  -36.7760   23.1210 C   0  0  0  0  0  1  0  0  0  0  0  0
  -25.4350  -36.3730   23.9130 C   0  0  0  0  0  3  0  0  0  0  0  0
  -27.5810  -37.2690   24.7090 C   0  0  0  0  0  1  0  0  0  0  0  0
  -26.4650  -37.4280   23.7790 N   0  0  0  0  0  0  0  0  0  0  0  0
  -26.0590  -38.3490   23.9260 H   0  0  0  0  0  0  0  0  0  0  0  0
  -26.4090  -31.7640   25.1710 C   0  0  1  0  0  0  0  0  0  0  0  0
  -25.3080  -31.5370   26.2340 C   0  0  0  0  0  1  0  0  0  0  0  0
  -26.9910  -30.3810   24.7950 C   0  0  0  0  0  1  0  0  0  0  0  0
  -27.5570  -32.5590   25.8350 C   0  0  0  0  0  1  0  0  0  0  0  0
  1  3  2  0
  2  8  1  0
  2  1  1  0
  4  2  1  0
  5  6  1  0
  7 10  2  0
  7  8  1  0
  8  5  2  0
  9 20  1  0
  9  6  2  0
 10  9  1  0
 11 10  1  0
 12 20  1  0
 13 18  1  0
 14 15  1  0
 14 13  1  0
 16 15  1  0
 16 25  1  0
 16 17  1  0
 18 12  1  0
 18 17  1  0
 19 12  2  0
 20 21  1  0
 22 23  2  0
 23 42  1  0
 24 23  1  0
 24 27  1  0
 25 22  1  0
 25 26  1  0
 26 24  2  0
 27 28  1  0
 28 29  2  0
 30 33  1  0
 30 29  1  0
 31 30  2  0
 32 31  1  0
 32 27  2  0
 33 34  1  0
 34 35  1  0
 35 36  2  0
 37 36  1  0
 37 41  1  0
 38 37  2  0
 39 34  2  0
 39 38  1  0
 40 39  1  0
 42 43  1  0
 43 46  1  0
 43 45  1  0
 44 42  2  0
 47 48  1  0
 47 22  1  0
 49 47  1  0
 50 51  1  0
 50  1  1  0
 52 63  2  0
 53 51  1  0
 53 58  1  0
 54 62  1  0
 54 64  1  0
 55 61  1  0
 55 57  1  0
 56 62  1  0
 57 56  1  0
 58 57  2  0
 59 53  2  0
 60 59  1  0
 60 55  2  0
 61 54  1  0
 62 52  1  0
 64 66  2  0
 65 64  1  0
 67 65  1  0
 68 77  2  0
 68 73  1  0
 69 65  1  0
 69 73  1  0
 70 69  1  0
 71 72  1  0
 71 70  1  0
 72 68  1  0
 73 74  2  0
 74 75  1  0
 76 75  2  0
 77 76  1  0
 78 52  1  0
 78 79  1  0
 78 88  1  0
 79 82  1  0
 80 84  1  0
 80 79  1  0
 81 80  2  0
 84 83  1  0
 86 84  1  0
 86 87  1  0
 86 85  1  0
 88 91  1  1
 88 89  1  0
 90 88  1  0
M  ISO  4  12 100  20 100  50 101  51 101
M  END
>  <TORSDO>  (77) 
F 18

>  <SCORE>  (77) 
-14.808

>  <name>  (77) 
76

>  <ligand_id>  (77) 
76

>  <original_smiles>  (77) 
[H]c1c([H])c([H])c2c(c1[H])C([H])([H])C([H])([H])C([H])([H])C2([H])N([H])C(=O)C1([H])N(C(=O)C([H])(N([H])C(=O)C([H])(N([H])C([H])([H])[H])C([H])([H])[H])C(C([H])([H])[H])(C([H])([H])[H])C([H])([H])[H])C([H])([H])c2c([H])c(OC([H])([H])C(=O)N([H])c3c([H])c([H])c(N([H])C(=O)N4C([H])([H])C([H])([H])C([H])([H])C([H])(n5nc(-c6c([H])c([H])c(Oc7c([H])c([H])c(F)c([H])c7F)c([H])c6[H])c(C(=O)N([H])[H])c5N([H])[H])C4([H])[H])c(Cl)c3[H])c([H])c([H])c2C1([H])[H]

>  <smiles>  (77) 
[H]c1c([H])c([H])c2c(c1[H])C([H])([H])C([H])([H])C([H])([H])C2([H])N([H])C(=O)C1([H])N(C(=O)C([H])(N([H])C(=O)C([H])(N([H])C([H])([H])[H])C([H])([H])[H])C(C([H])([H])[H])(C([H])([H])[H])C([H])([H])[H])C([H])([H])c2c([H])c(OC([H])([H])C(=O)N([H])c3c([H])c([H])c(N([H])C(=O)N4C([H])([H])C([H])([H])C([H])([H])C([H])(n5nc(-c6c([H])c([H])c(Oc7c([H])c([H])c(F)c([H])c7F)c([H])c6[H])c(C(=O)N([H])[H])c5N([H])[H])C4([H])[H])c(Cl)c3[H])c([H])c([H])c2C1([H])[H]

$$$$
77:0:0
     RDKit          3D

 92100  0  0  1  0  0  0  0  0999 V2000
  -29.8100  -21.8560   20.8020 C   0  0  0  0  0  0  0  0  0  0  0  0
  -29.5540  -20.5370   20.6090 N   0  0  0  0  0  0  0  0  0  0  0  0
  -30.7950  -22.2920   21.4000 O   0  0  0  0  0  0  0  0  0  0  0  0
  -28.6930  -20.3530   20.1140 H   0  0  0  0  0  0  0  0  0  0  0  0
  -32.2920  -18.2550   21.9100 C   0  0  0  0  0  3  0  0  0  0  0  0
  -31.5900  -19.4280   21.5810 C   0  0  0  0  0  3  0  0  0  0  0  0
  -31.7390  -16.9920   21.6340 C   0  0  0  0  0  3  0  0  0  0  0  0
  -29.7550  -18.0760   20.7190 C   0  0  0  0  0  3  0  0  0  0  0  0
  -30.3080  -19.3650   20.9790 C   0  0  0  0  0  0  0  0  0  0  0  0
  -30.4710  -16.8850   21.0220 C   0  0  0  0  0  0  0  0  0  0  0  0
  -30.5610  -14.5520   20.1720 C   0  0  0  0  0  0  0  0  0  0  0  0
  -30.1900  -12.4110   19.0000 C   0  0  0  0  0  2  0  0  0  0  0  0
  -29.2030  -12.6220   17.8340 C   0  0  0  0  0  2  0  0  0  0  0  0
  -27.7490  -12.4770   18.3220 C   0  0  0  0  0  2  0  0  0  0  0  0
  -27.4600  -13.3020   19.6050 C   0  0  0  0  0  3  0  0  0  0  0  0
  -28.5610  -13.0890   20.6690 C   0  0  0  0  0  2  0  0  0  0  0  0
  -29.8570  -13.3940   20.0430 N   0  0  0  0  0  0  0  0  0  0  0  0
  -31.6710  -14.7050   19.6530 O   0  0  0  0  0  0  0  0  0  0  0  0
  -29.9160  -15.5900   20.7490 N   0  0  0  0  0  0  0  0  0  0  0  0
  -28.9410  -15.4480   20.9630 H   0  0  0  0  0  0  0  0  0  0  0  0
  -25.0950  -13.8910   20.4270 C   0  0  0  0  0  0  0  0  0  0  0  0
  -24.0430  -13.1110   20.8250 C   0  0  0  0  0  0  0  0  0  0  0  0
  -24.5030  -11.7600   20.7470 C   0  0  0  0  0  0  0  0  0  0  0  0
  -26.1300  -13.0150   20.1360 N   0  0  0  0  0  0  0  0  0  0  0  0
  -25.7780  -11.7280   20.3850 N   0  0  0  0  0  0  0  0  0  0  0  0
  -23.7830  -10.4940   20.9410 C   0  0  0  0  0  0  0  0  0  0  0  0
  -24.2020   -9.5470   21.9020 C   0  0  0  0  0  3  0  0  0  0  0  0
  -23.4830   -8.3440   22.0820 C   0  0  0  0  0  3  0  0  0  0  0  0
  -22.3320   -8.0820   21.3020 C   0  0  0  0  0  0  0  0  0  0  0  0
  -21.9330   -9.0190   20.3310 C   0  0  0  0  0  3  0  0  0  0  0  0
  -22.6530  -10.2120   20.1490 C   0  0  0  0  0  3  0  0  0  0  0  0
  -21.5870   -6.9320   21.3890 O   0  0  0  0  0  0  0  0  0  0  0  0
  -21.4690   -6.2390   22.5680 C   0  0  0  0  0  0  0  0  0  0  0  0
  -20.9180   -6.8270   23.7260 C   0  0  0  0  0  3  0  0  0  0  0  0
  -20.7520   -6.0570   24.8960 C   0  0  0  0  0  3  0  0  0  0  0  0
  -21.1270   -4.7010   24.9060 C   0  0  0  0  0  0  0  0  0  0  0  0
  -21.6720   -4.1120   23.7510 C   0  0  0  0  0  3  0  0  0  0  0  0
  -21.8390   -4.8790   22.5840 C   0  0  0  0  0  0  0  0  0  0  0  0
  -22.3450   -4.3000   21.4680 F   0  0  0  0  0  0  0  0  0  0  0  0
  -20.9610   -3.9590   26.0260 F   0  0  0  0  0  0  0  0  0  0  0  0
  -22.6590  -13.5830   21.1640 C   0  0  0  0  0  0  0  0  0  0  0  0
  -21.9630  -12.8610   22.0360 N   0  0  0  0  0  0  0  0  0  0  0  0
  -22.2040  -14.6240   20.6930 O   0  0  0  0  0  0  0  0  0  0  0  0
  -22.3440  -12.0160   22.4360 H   0  0  0  0  0  0  0  0  0  0  0  0
  -21.0360  -13.1560   22.3070 H   0  0  0  0  0  0  0  0  0  0  0  0
  -25.2530  -15.2650   20.2690 N   0  0  0  0  0  0  0  0  0  0  0  0
  -24.4910  -15.9180   20.4170 H   0  0  0  0  0  0  0  0  0  0  0  0
  -26.0850  -15.7080   19.8970 H   0  0  0  0  0  0  0  0  0  0  0  0
  -28.7830  -22.8580   20.2350 C   0  0  0  0  0  2  0  0  0  0  0  0
  -29.1160  -24.3710   20.4390 C   0  0  0  0  0  2  0  0  0  0  0  0
  -28.0100  -25.2920   19.8740 C   0  0  0  0  0  2  0  0  0  0  0  0
  -28.1880  -26.7090   20.1100 O   0  0  0  0  0  0  0  0  0  0  0  0
  -24.4900  -31.9610   23.2280 C   0  0  0  0  0  0  0  0  0  0  0  0
  -27.0360  -27.4840   20.0860 C   0  0  0  0  0  0  0  0  0  0  0  0
  -23.2410  -30.5640   21.6180 C   0  0  0  0  0  3  0  0  0  0  0  0
  -24.6540  -29.0270   20.1530 C   0  0  0  0  0  0  0  0  0  0  0  0
  -25.7670  -30.9060   21.3620 C   0  0  0  0  0  2  0  0  0  0  0  0
  -25.8310  -29.5350   20.7160 C   0  0  0  0  0  0  0  0  0  0  0  0
  -27.0250  -28.7720   20.6790 C   0  0  0  0  0  3  0  0  0  0  0  0
  -25.8350  -27.0120   19.4980 C   0  0  0  0  0  3  0  0  0  0  0  0
  -24.6520  -27.7670   19.5410 C   0  0  0  0  0  3  0  0  0  0  0  0
  -23.4150  -29.8900   20.2330 C   0  0  0  0  0  2  0  0  0  0  0  0
  -24.5200  -31.1590   22.1270 N   0  0  0  0  0  0  0  0  0  0  0  0
  -23.4230  -32.2370   23.7920 O   0  0  0  0  0  0  0  0  0  0  0  0
  -22.6100  -29.5410   22.5920 C   0  0  0  0  0  0  0  0  0  0  0  0
  -21.2900  -29.3320   22.4700 N   0  0  0  0  0  0  0  0  0  0  0  0
  -23.3070  -28.9410   23.4150 O   0  0  0  0  0  0  0  0  0  0  0  0
  -20.7880  -29.8690   21.7760 H   0  0  0  0  0  0  0  0  0  0  0  0
  -17.9400  -28.0730   22.9820 C   0  0  0  0  0  0  0  0  0  0  0  0
  -20.4910  -28.3920   23.2550 C   0  0  0  0  0  3  0  0  0  0  0  0
  -20.6270  -26.9530   22.7040 C   0  0  0  0  0  2  0  0  0  0  0  0
  -19.5340  -26.5880   21.6940 C   0  0  0  0  0  2  0  0  0  0  0  0
  -18.1480  -26.7160   22.3320 C   0  0  0  0  0  2  0  0  0  0  0  0
  -19.0420  -28.8660   23.4000 C   0  0  0  0  0  0  0  0  0  0  0  0
  -18.7940  -30.1360   23.9650 C   0  0  0  0  0  3  0  0  0  0  0  0
  -17.4780  -30.6130   24.1180 C   0  0  0  0  0  3  0  0  0  0  0  0
  -16.3920  -29.8170   23.7160 C   0  0  0  0  0  3  0  0  0  0  0  0
  -16.6230  -28.5490   23.1530 C   0  0  0  0  0  3  0  0  0  0  0  0
  -25.7920  -32.5890   23.8150 C   0  0  0  0  0  3  0  0  0  0  0  0
  -26.3360  -31.8220   25.0830 C   0  0  1  0  0  0  0  0  0  0  0  0
  -25.2600  -31.5670   26.1630 C   0  0  0  0  0  1  0  0  0  0  0  0
  -26.9320  -30.4540   24.6790 C   0  0  0  0  0  1  0  0  0  0  0  0
  -27.4840  -32.6300   25.7310 C   0  0  0  0  0  1  0  0  0  0  0  0
  -25.4980  -33.9910   24.1420 N   0  0  0  0  0  0  0  0  0  0  0  0
  -25.7940  -35.0340   23.3540 C   0  0  0  0  0  0  0  0  0  0  0  0
  -26.4170  -34.9170   22.2950 O   0  0  0  0  0  0  0  0  0  0  0  0
  -24.9410  -34.1550   24.9680 H   0  0  0  0  0  0  0  0  0  0  0  0
  -24.0370  -36.8100   23.0710 C   0  0  0  0  0  1  0  0  0  0  0  0
  -25.3260  -36.4270   23.8160 C   0  0  0  0  0  3  0  0  0  0  0  0
  -27.4950  -37.3420   24.5130 C   0  0  0  0  0  1  0  0  0  0  0  0
  -26.3440  -37.4830   23.6250 N   0  0  0  0  0  0  0  0  0  0  0  0
  -25.9400  -38.4040   23.7730 H   0  0  0  0  0  0  0  0  0  0  0  0
  1  3  2  0
  2  1  1  0
  2  9  1  0
  4  2  1  0
  6  5  2  0
  7  5  1  0
  8  9  2  0
  8 10  1  0
  9  6  1  0
 10  7  2  0
 11 19  1  0
 12 17  1  0
 13 14  1  0
 13 12  1  0
 15 14  1  0
 15 24  1  0
 15 16  1  0
 17 11  1  0
 17 16  1  0
 18 11  2  0
 19 20  1  0
 19 10  1  0
 21 22  2  0
 22 41  1  0
 23 22  1  0
 23 26  1  0
 24 25  1  0
 24 21  1  0
 25 23  2  0
 26 27  1  0
 27 28  2  0
 29 32  1  0
 29 28  1  0
 30 29  2  0
 31 30  1  0
 31 26  2  0
 32 33  1  0
 33 38  2  0
 33 34  1  0
 34 35  2  0
 35 36  1  0
 36 40  1  0
 37 36  2  0
 38 37  1  0
 39 38  1  0
 41 42  1  0
 42 45  1  0
 42 44  1  0
 43 41  2  0
 46 47  1  0
 46 21  1  0
 48 46  1  0
 49 50  1  0
 49  1  1  0
 51 52  1  0
 51 50  1  0
 53 64  2  0
 54 52  1  0
 54 59  1  0
 55 63  1  0
 55 65  1  0
 56 62  1  0
 56 58  1  0
 57 63  1  0
 58 57  1  0
 59 58  2  0
 60 61  1  0
 60 54  2  0
 61 56  2  0
 62 55  1  0
 63 53  1  0
 65 67  2  0
 66 65  1  0
 68 66  1  0
 69 78  2  0
 69 74  1  0
 70 66  1  0
 70 74  1  0
 71 70  1  0
 72 73  1  0
 72 71  1  0
 73 69  1  0
 74 75  2  0
 75 76  1  0
 77 76  2  0
 78 77  1  0
 79 53  1  0
 79 84  1  0
 79 80  1  0
 80 83  1  1
 80 81  1  0
 82 80  1  0
 84 87  1  0
 85 89  1  0
 85 84  1  0
 86 85  2  0
 89 88  1  0
 91 92  1  0
 91 89  1  0
 91 90  1  0
M  ISO  4  11 100  19 100  51 101  52 101
M  END
>  <TORSDO>  (78) 
F 20

>  <SCORE>  (78) 
-12.886

>  <name>  (78) 
77

>  <ligand_id>  (78) 
77

>  <original_smiles>  (78) 
[H]c1c([H])c(N([H])C(=O)N2C([H])([H])C([H])([H])C([H])([H])C([H])(n3nc(-c4c([H])c([H])c(Oc5c([H])c([H])c(F)c([H])c5F)c([H])c4[H])c(C(=O)N([H])[H])c3N([H])[H])C2([H])[H])c([H])c(N([H])C(=O)C([H])([H])C([H])([H])C([H])([H])Oc2c([H])c([H])c3c(c2[H])C([H])([H])N(C(=O)C([H])(N([H])C(=O)C([H])(N([H])C([H])([H])[H])C([H])([H])[H])C(C([H])([H])[H])(C([H])([H])[H])C([H])([H])[H])C([H])(C(=O)N([H])C2([H])c4c([H])c([H])c([H])c([H])c4C([H])([H])C([H])([H])C2([H])[H])C3([H])[H])c1[H]

>  <smiles>  (78) 
[H]c1c([H])c(N([H])C(=O)N2C([H])([H])C([H])([H])C([H])([H])C([H])(n3nc(-c4c([H])c([H])c(Oc5c([H])c([H])c(F)c([H])c5F)c([H])c4[H])c(C(=O)N([H])[H])c3N([H])[H])C2([H])[H])c([H])c(N([H])C(=O)C([H])([H])C([H])([H])C([H])([H])Oc2c([H])c([H])c3c(c2[H])C([H])([H])N(C(=O)C([H])(N([H])C(=O)C([H])(N([H])C([H])([H])[H])C([H])([H])[H])C(C([H])([H])[H])(C([H])([H])[H])C([H])([H])[H])C([H])(C(=O)N([H])C2([H])c4c([H])c([H])c([H])c([H])c4C([H])([H])C([H])([H])C2([H])[H])C3([H])[H])c1[H]

$$$$
78:0:0
     RDKit          3D

 94101  0  0  1  0  0  0  0  0999 V2000
  -26.4020  -20.5170   20.1430 C   0  0  0  0  0  2  0  0  0  0  0  0
  -27.3240  -21.6070   20.7210 C   0  0  0  0  0  2  0  0  0  0  0  0
  -27.0180  -22.9750   20.1050 C   0  0  0  0  0  2  0  0  0  0  0  0
  -28.0760  -24.0490   20.3950 C   0  0  0  0  0  2  0  0  0  0  0  0
  -28.1910  -25.0200   19.2150 C   0  0  0  0  0  2  0  0  0  0  0  0
  -28.7670  -26.3970   19.5670 C   0  0  0  0  0  2  0  0  0  0  0  0
  -28.2820  -27.3430   18.6240 O   0  0  0  0  0  0  0  0  0  0  0  0
  -24.5640  -31.1910   23.2870 C   0  0  0  0  0  0  0  0  0  0  0  0
  -27.0620  -27.8730   18.9610 C   0  0  0  0  0  0  0  0  0  0  0  0
  -23.2330  -30.0190   21.5600 C   0  0  0  0  0  3  0  0  0  0  0  0
  -24.5680  -28.9940   19.6420 C   0  0  0  0  0  0  0  0  0  0  0  0
  -25.6470  -30.7200   21.0980 C   0  0  0  0  0  2  0  0  0  0  0  0
  -25.7480  -29.5300   20.1730 C   0  0  0  0  0  0  0  0  0  0  0  0
  -26.9970  -28.9720   19.8370 C   0  0  0  0  0  3  0  0  0  0  0  0
  -25.8710  -27.3390   18.4260 C   0  0  0  0  0  3  0  0  0  0  0  0
  -24.6220  -27.8910   18.7700 C   0  0  0  0  0  3  0  0  0  0  0  0
  -23.2740  -29.6630   20.0490 C   0  0  0  0  0  2  0  0  0  0  0  0
  -24.5070  -30.6480   22.0400 N   0  0  0  0  0  0  0  0  0  0  0  0
  -23.5640  -31.2180   24.0170 O   0  0  0  0  0  0  0  0  0  0  0  0
  -22.8400  -28.7520   22.3500 C   0  0  0  0  0  0  0  0  0  0  0  0
  -21.6390  -28.2250   22.0690 N   0  0  0  0  0  0  0  0  0  0  0  0
  -23.6130  -28.2530   23.1720 O   0  0  0  0  0  0  0  0  0  0  0  0
  -21.0620  -28.7040   21.3910 H   0  0  0  0  0  0  0  0  0  0  0  0
  -18.8970  -25.8860   21.8290 C   0  0  0  0  0  0  0  0  0  0  0  0
  -21.0710  -27.0130   22.6550 C   0  0  0  0  0  3  0  0  0  0  0  0
  -21.7990  -25.7490   22.1440 C   0  0  0  0  0  2  0  0  0  0  0  0
  -21.1300  -25.1190   20.9180 C   0  0  0  0  0  2  0  0  0  0  0  0
  -19.6840  -24.7280   21.2370 C   0  0  0  0  0  2  0  0  0  0  0  0
  -19.5500  -26.9670   22.4790 C   0  0  0  0  0  0  0  0  0  0  0  0
  -18.7720  -28.0350   22.9770 C   0  0  0  0  0  3  0  0  0  0  0  0
  -17.3720  -28.0330   22.8400 C   0  0  0  0  0  3  0  0  0  0  0  0
  -16.7300  -26.9530   22.2080 C   0  0  0  0  0  3  0  0  0  0  0  0
  -17.4920  -25.8820   21.7090 C   0  0  0  0  0  3  0  0  0  0  0  0
  -25.8770  -31.8280   23.8470 C   0  0  0  0  0  3  0  0  0  0  0  0
  -26.4560  -31.0580   25.0970 C   0  0  1  0  0  0  0  0  0  0  0  0
  -25.4200  -30.8210   26.2200 C   0  0  0  0  0  1  0  0  0  0  0  0
  -27.0170  -29.6810   24.6710 C   0  0  0  0  0  1  0  0  0  0  0  0
  -27.6360  -31.8550   25.7010 C   0  0  0  0  0  1  0  0  0  0  0  0
  -25.5790  -33.2240   24.1860 N   0  0  0  0  0  0  0  0  0  0  0  0
  -26.0170  -34.2850   23.4960 C   0  0  0  0  0  0  0  0  0  0  0  0
  -26.7860  -34.1870   22.5360 O   0  0  0  0  0  0  0  0  0  0  0  0
  -24.9150  -33.3750   24.9310 H   0  0  0  0  0  0  0  0  0  0  0  0
  -24.4600  -36.1820   22.9540 C   0  0  0  0  0  1  0  0  0  0  0  0
  -25.5230  -35.6740   23.9400 C   0  0  0  0  0  3  0  0  0  0  0  0
  -27.5270  -36.3960   25.1640 C   0  0  0  0  0  1  0  0  0  0  0  0
  -26.6100  -36.6720   24.0610 N   0  0  0  0  0  0  0  0  0  0  0  0
  -26.2290  -37.6060   24.1900 H   0  0  0  0  0  0  0  0  0  0  0  0
  -27.0900  -19.1860   19.7790 C   0  0  0  0  0  2  0  0  0  0  0  0
  -28.3750  -19.3300   18.9380 C   0  0  0  0  0  2  0  0  0  0  0  0
  -29.6410  -19.5520   19.7850 C   0  0  0  0  0  2  0  0  0  0  0  0
  -31.7810  -18.7760   18.8390 C   0  0  0  0  0  0  0  0  0  0  0  0
  -30.3980  -17.2580   20.2530 C   0  0  0  0  0  1  0  0  0  0  0  0
  -30.6590  -18.5220   19.5580 N   0  0  0  0  0  0  0  0  0  0  0  0
  -31.8820  -19.7630   18.1040 O   0  0  0  0  0  0  0  0  0  0  0  0
  -33.0220  -17.8820   19.0120 C   0  0  0  0  0  2  0  0  0  0  0  0
  -32.8820  -16.4570   18.4510 C   0  0  0  0  0  2  0  0  0  0  0  0
  -33.1400  -14.4870   19.9380 C   0  0  0  0  0  0  0  0  0  0  0  0
  -33.1380  -12.5230   21.4330 C   0  0  0  0  0  2  0  0  0  0  0  0
  -32.5320  -11.2870   20.7370 C   0  0  0  0  0  2  0  0  0  0  0  0
  -30.9990  -11.2770   20.8740 C   0  0  0  0  0  2  0  0  0  0  0  0
  -30.3550  -12.6390   20.4980 C   0  0  0  0  0  3  0  0  0  0  0  0
  -31.0780  -13.7970   21.2200 C   0  0  0  0  0  2  0  0  0  0  0  0
  -32.5110  -13.7300   20.8730 N   0  0  0  0  0  0  0  0  0  0  0  0
  -34.2940  -14.2830   19.5520 O   0  0  0  0  0  0  0  0  0  0  0  0
  -32.4130  -15.4980   19.4510 N   0  0  0  0  0  0  0  0  0  0  0  0
  -31.4810  -15.5950   19.8250 H   0  0  0  0  0  0  0  0  0  0  0  0
  -28.0410  -13.7070   20.8680 C   0  0  0  0  0  0  0  0  0  0  0  0
  -26.8030  -13.1570   21.0740 C   0  0  0  0  0  0  0  0  0  0  0  0
  -27.0000  -11.7420   21.0840 C   0  0  0  0  0  0  0  0  0  0  0  0
  -28.9200  -12.6400   20.7760 N   0  0  0  0  0  0  0  0  0  0  0  0
  -28.2870  -11.4530   20.9600 N   0  0  0  0  0  0  0  0  0  0  0  0
  -26.0310  -10.6420   21.1530 C   0  0  0  0  0  0  0  0  0  0  0  0
  -25.9650   -9.7950   22.2840 C   0  0  0  0  0  3  0  0  0  0  0  0
  -25.0200   -8.7480   22.3380 C   0  0  0  0  0  3  0  0  0  0  0  0
  -24.1180   -8.5500   21.2650 C   0  0  0  0  0  0  0  0  0  0  0  0
  -24.1990   -9.3840   20.1370 C   0  0  0  0  0  3  0  0  0  0  0  0
  -25.1470  -10.4180   20.0790 C   0  0  0  0  0  3  0  0  0  0  0  0
  -23.1860   -7.5410   21.2210 O   0  0  0  0  0  0  0  0  0  0  0  0
  -22.4970   -7.1450   22.3390 C   0  0  0  0  0  0  0  0  0  0  0  0
  -21.6460   -8.0260   23.0410 C   0  0  0  0  0  3  0  0  0  0  0  0
  -20.9080   -7.5560   24.1460 C   0  0  0  0  0  3  0  0  0  0  0  0
  -21.0090   -6.2110   24.5420 C   0  0  0  0  0  0  0  0  0  0  0  0
  -21.8480   -5.3310   23.8380 C   0  0  0  0  0  3  0  0  0  0  0  0
  -22.5880   -5.7970   22.7370 C   0  0  0  0  0  0  0  0  0  0  0  0
  -23.3840   -4.9410   22.0510 F   0  0  0  0  0  0  0  0  0  0  0  0
  -20.2940   -5.7590   25.5990 F   0  0  0  0  0  0  0  0  0  0  0  0
  -25.4970  -13.8940   21.1590 C   0  0  0  0  0  0  0  0  0  0  0  0
  -24.5460  -13.3740   21.9310 N   0  0  0  0  0  0  0  0  0  0  0  0
  -25.3260  -14.9630   20.5790 O   0  0  0  0  0  0  0  0  0  0  0  0
  -24.6830  -12.5010   22.4170 H   0  0  0  0  0  0  0  0  0  0  0  0
  -23.6730  -13.8670   22.0410 H   0  0  0  0  0  0  0  0  0  0  0  0
  -28.4880  -15.0170   20.7400 N   0  0  0  0  0  0  0  0  0  0  0  0
  -27.8540  -15.8050   20.8010 H   0  0  0  0  0  0  0  0  0  0  0  0
  -29.4490  -15.2920   20.5790 H   0  0  0  0  0  0  0  0  0  0  0  0
  1  2  1  0
  3  4  1  0
  3  2  1  0
  5  6  1  0
  5  4  1  0
  7  9  1  0
  7  6  1  0
  8 19  2  0
  9 14  1  0
 10 18  1  0
 10 20  1  0
 11 17  1  0
 11 13  1  0
 12 18  1  0
 13 12  1  0
 14 13  2  0
 15 16  1  0
 15  9  2  0
 16 11  2  0
 17 10  1  0
 18  8  1  0
 20 22  2  0
 21 20  1  0
 23 21  1  0
 24 29  1  0
 25 21  1  0
 26 25  1  0
 27 28  1  0
 27 26  1  0
 28 24  1  0
 29 25  1  0
 29 30  2  0
 31 30  1  0
 32 31  2  0
 33 24  2  0
 33 32  1  0
 34  8  1  0
 34 39  1  0
 34 35  1  0
 35 38  1  1
 35 36  1  0
 37 35  1  0
 39 42  1  0
 40 44  1  0
 40 39  1  0
 41 40  2  0
 44 43  1  0
 44 46  1  0
 46 47  1  0
 46 45  1  0
 48  1  1  0
 49 48  1  0
 49 50  1  0
 51 55  1  0
 51 53  1  0
 53 50  1  0
 53 52  1  0
 54 51  2  0
 56 55  1  0
 56 65  1  0
 57 63  1  0
 59 60  1  0
 59 58  1  0
 61 70  1  0
 61 60  1  0
 61 62  1  0
 63 62  1  0
 63 58  1  0
 64 57  2  0
 65 66  1  0
 65 57  1  0
 67 68  2  0
 68 69  1  0
 68 87  1  0
 69 72  1  0
 70 67  1  0
 70 71  1  0
 71 69  2  0
 72 73  1  0
 73 74  2  0
 75 74  1  0
 76 75  2  0
 77 76  1  0
 77 72  2  0
 78 75  1  0
 78 79  1  0
 79 84  2  0
 79 80  1  0
 80 81  2  0
 81 82  1  0
 82 86  1  0
 83 82  2  0
 84 83  1  0
 85 84  1  0
 87 88  1  0
 88 91  1  0
 88 90  1  0
 89 87  2  0
 92 93  1  0
 92 67  1  0
 94 92  1  0
M  ISO  4   6 101   7 101  57 100  65 100
M  END
>  <TORSDO>  (79) 
F 27

>  <SCORE>  (79) 
-6.542

>  <name>  (79) 
78

>  <ligand_id>  (79) 
78

>  <original_smiles>  (79) 
[H]c1c([H])c([H])c2c(c1[H])C([H])([H])C([H])([H])C([H])([H])C2([H])N([H])C(=O)C1([H])N(C(=O)C([H])(N([H])C(=O)C([H])(N([H])C([H])([H])[H])C([H])([H])[H])C(C([H])([H])[H])(C([H])([H])[H])C([H])([H])[H])C([H])([H])c2c([H])c(OC([H])([H])C([H])([H])C([H])([H])C([H])([H])C([H])([H])C([H])([H])C([H])([H])C([H])([H])C([H])([H])N(C(=O)C([H])([H])C([H])([H])N([H])C(=O)N3C([H])([H])C([H])([H])C([H])([H])C([H])(n4nc(-c5c([H])c([H])c(Oc6c([H])c([H])c(F)c([H])c6F)c([H])c5[H])c(C(=O)N([H])[H])c4N([H])[H])C3([H])[H])C([H])([H])[H])c([H])c([H])c2C1([H])[H]

>  <smiles>  (79) 
[H]c1c([H])c([H])c2c(c1[H])C([H])([H])C([H])([H])C([H])([H])C2([H])N([H])C(=O)C1([H])N(C(=O)C([H])(N([H])C(=O)C([H])(N([H])C([H])([H])[H])C([H])([H])[H])C(C([H])([H])[H])(C([H])([H])[H])C([H])([H])[H])C([H])([H])c2c([H])c(OC([H])([H])C([H])([H])C([H])([H])C([H])([H])C([H])([H])C([H])([H])C([H])([H])C([H])([H])C([H])([H])N(C(=O)C([H])([H])C([H])([H])N([H])C(=O)N3C([H])([H])C([H])([H])C([H])([H])C([H])(n4nc(-c5c([H])c([H])c(Oc6c([H])c([H])c(F)c([H])c6F)c([H])c5[H])c(C(=O)N([H])[H])c4N([H])[H])C3([H])[H])C([H])([H])[H])c([H])c([H])c2C1([H])[H]

$$$$
79:0:0
     RDKit          3D

 88 96  0  0  1  0  0  0  0  0999 V2000
  -28.2700  -18.1960   20.5690 C   0  0  0  0  0  3  0  0  0  0  0  0
  -30.5440  -18.6580   20.1620 C   0  0  0  0  0  3  0  0  0  0  0  0
  -27.9690  -19.6050   20.5110 C   0  0  0  0  0  3  0  0  0  0  0  0
  -30.2360  -20.0970   20.1140 C   0  0  0  0  0  3  0  0  0  0  0  0
  -29.5660  -17.6210   20.3920 C   0  0  0  0  0  0  0  0  0  0  0  0
  -28.9130  -20.6520   20.2830 C   0  0  0  0  0  0  0  0  0  0  0  0
  -30.5640  -15.0240   20.2100 C   0  0  0  0  0  0  0  0  0  0  0  0
  -30.4770  -12.6790   19.2500 C   0  0  0  0  0  2  0  0  0  0  0  0
  -29.4990  -12.6500   18.0480 C   0  0  0  0  0  2  0  0  0  0  0  0
  -28.0470  -12.4370   18.5210 C   0  0  0  0  0  2  0  0  0  0  0  0
  -27.6750  -13.3480   19.7200 C   0  0  0  0  0  3  0  0  0  0  0  0
  -28.7640  -13.3150   20.8150 C   0  0  0  0  0  2  0  0  0  0  0  0
  -30.0230  -13.7410   20.1870 N   0  0  0  0  0  0  0  0  0  0  0  0
  -31.7370  -15.1720   19.8490 O   0  0  0  0  0  0  0  0  0  0  0  0
  -29.6830  -16.0950   20.4860 N   0  0  0  0  0  0  0  0  0  0  0  0
  -28.8050  -15.6890   20.7700 H   0  0  0  0  0  0  0  0  0  0  0  0
  -25.3170  -13.9250   20.5440 C   0  0  0  0  0  0  0  0  0  0  0  0
  -24.2620  -13.1460   20.9340 C   0  0  0  0  0  0  0  0  0  0  0  0
  -24.7190  -11.7940   20.8530 C   0  0  0  0  0  0  0  0  0  0  0  0
  -26.3480  -13.0470   20.2490 N   0  0  0  0  0  0  0  0  0  0  0  0
  -25.9980  -11.7600   20.4990 N   0  0  0  0  0  0  0  0  0  0  0  0
  -23.9930  -10.5300   21.0340 C   0  0  0  0  0  0  0  0  0  0  0  0
  -24.4280   -9.5560   21.9590 C   0  0  0  0  0  3  0  0  0  0  0  0
  -23.7020   -8.3560   22.1280 C   0  0  0  0  0  3  0  0  0  0  0  0
  -22.5270   -8.1240   21.3750 C   0  0  0  0  0  0  0  0  0  0  0  0
  -22.1100   -9.0890   20.4410 C   0  0  0  0  0  3  0  0  0  0  0  0
  -22.8370  -10.2790   20.2680 C   0  0  0  0  0  3  0  0  0  0  0  0
  -21.7730   -6.9790   21.4560 O   0  0  0  0  0  0  0  0  0  0  0  0
  -21.6880   -6.2530   22.6170 C   0  0  0  0  0  0  0  0  0  0  0  0
  -21.1540   -6.8030   23.8030 C   0  0  0  0  0  3  0  0  0  0  0  0
  -21.0220   -6.0010   24.9530 C   0  0  0  0  0  3  0  0  0  0  0  0
  -21.4140   -4.6490   24.9190 C   0  0  0  0  0  0  0  0  0  0  0  0
  -21.9400   -4.0980   23.7370 C   0  0  0  0  0  3  0  0  0  0  0  0
  -22.0740   -4.8980   22.5890 C   0  0  0  0  0  0  0  0  0  0  0  0
  -22.5620   -4.3560   21.4470 F   0  0  0  0  0  0  0  0  0  0  0  0
  -21.2790   -3.8750   26.0220 F   0  0  0  0  0  0  0  0  0  0  0  0
  -22.8760  -13.6220   21.2610 C   0  0  0  0  0  0  0  0  0  0  0  0
  -22.1760  -12.9110   22.1370 N   0  0  0  0  0  0  0  0  0  0  0  0
  -22.4260  -14.6590   20.7750 O   0  0  0  0  0  0  0  0  0  0  0  0
  -22.5530  -12.0730   22.5520 H   0  0  0  0  0  0  0  0  0  0  0  0
  -21.2460  -13.2120   22.3990 H   0  0  0  0  0  0  0  0  0  0  0  0
  -25.4790  -15.2980   20.3870 N   0  0  0  0  0  0  0  0  0  0  0  0
  -24.6990  -15.9360   20.5080 H   0  0  0  0  0  0  0  0  0  0  0  0
  -26.2670  -15.7220   19.9170 H   0  0  0  0  0  0  0  0  0  0  0  0
  -28.3850  -22.0170   20.2260 O   0  0  0  0  0  0  0  0  0  0  0  0
  -29.0060  -23.4170   20.2140 C   0  0  0  0  0  3  0  0  0  0  0  0
  -28.0130  -24.7620   20.0050 C   0  0  0  0  0  3  0  0  0  0  0  0
  -28.2930  -26.2800   20.1940 O   0  0  0  0  0  0  0  0  0  0  0  0
  -24.6160  -31.8830   23.2510 C   0  0  0  0  0  0  0  0  0  0  0  0
  -27.2250  -27.2480   20.1450 C   0  0  0  0  0  0  0  0  0  0  0  0
  -23.4230  -30.5100   21.5880 C   0  0  0  0  0  3  0  0  0  0  0  0
  -24.8820  -28.9690   20.1390 C   0  0  0  0  0  0  0  0  0  0  0  0
  -25.9760  -30.7940   21.4300 C   0  0  0  0  0  2  0  0  0  0  0  0
  -26.0590  -29.4160   20.7540 C   0  0  0  0  0  0  0  0  0  0  0  0
  -27.2310  -28.5720   20.7390 C   0  0  0  0  0  3  0  0  0  0  0  0
  -26.0180  -26.9000   19.4960 C   0  0  0  0  0  3  0  0  0  0  0  0
  -24.8750  -27.7250   19.4950 C   0  0  0  0  0  3  0  0  0  0  0  0
  -23.6490  -29.8570   20.1990 C   0  0  0  0  0  2  0  0  0  0  0  0
  -24.6910  -31.0830   22.1440 N   0  0  0  0  0  0  0  0  0  0  0  0
  -23.5270  -32.1530   23.7830 O   0  0  0  0  0  0  0  0  0  0  0  0
  -22.7510  -29.4810   22.5320 C   0  0  0  0  0  0  0  0  0  0  0  0
  -21.4240  -29.3020   22.3970 N   0  0  0  0  0  0  0  0  0  0  0  0
  -23.4240  -28.8480   23.3490 O   0  0  0  0  0  0  0  0  0  0  0  0
  -20.9370  -29.8650   21.7140 H   0  0  0  0  0  0  0  0  0  0  0  0
  -18.0440  -28.1000   22.8940 C   0  0  0  0  0  0  0  0  0  0  0  0
  -20.6060  -28.3490   23.1520 C   0  0  0  0  0  3  0  0  0  0  0  0
  -20.6990  -26.9300   22.5440 C   0  0  0  0  0  2  0  0  0  0  0  0
  -19.5900  -26.6350   21.5290 C   0  0  0  0  0  2  0  0  0  0  0  0
  -18.2130  -26.7680   22.1850 C   0  0  0  0  0  2  0  0  0  0  0  0
  -19.1680  -28.8500   23.3340 C   0  0  0  0  0  0  0  0  0  0  0  0
  -18.9540  -30.0990   23.9590 C   0  0  0  0  0  3  0  0  0  0  0  0
  -17.6520  -30.5970   24.1490 C   0  0  0  0  0  3  0  0  0  0  0  0
  -16.5430  -29.8440   23.7240 C   0  0  0  0  0  3  0  0  0  0  0  0
  -16.7410  -28.5970   23.1030 C   0  0  0  0  0  3  0  0  0  0  0  0
  -25.8900  -32.5140   23.8890 C   0  0  0  0  0  3  0  0  0  0  0  0
  -26.3890  -31.7410   25.1720 C   0  0  1  0  0  0  0  0  0  0  0  0
  -25.2800  -31.5020   26.2240 C   0  0  0  0  0  1  0  0  0  0  0  0
  -26.9790  -30.3650   24.7900 C   0  0  0  0  0  1  0  0  0  0  0  0
  -27.5300  -32.5350   25.8510 C   0  0  0  0  0  1  0  0  0  0  0  0
  -25.5790  -33.9130   24.2220 N   0  0  0  0  0  0  0  0  0  0  0  0
  -25.8850  -34.9680   23.4560 C   0  0  0  0  0  0  0  0  0  0  0  0
  -26.5270  -34.8660   22.4060 O   0  0  0  0  0  0  0  0  0  0  0  0
  -25.0080  -34.0650   25.0400 H   0  0  0  0  0  0  0  0  0  0  0  0
  -24.1320  -36.7490   23.1580 C   0  0  0  0  0  1  0  0  0  0  0  0
  -25.4060  -36.3550   23.9250 C   0  0  0  0  0  3  0  0  0  0  0  0
  -27.5520  -37.2720   24.6870 C   0  0  0  0  0  1  0  0  0  0  0  0
  -26.4250  -37.4160   23.7700 N   0  0  0  0  0  0  0  0  0  0  0  0
  -26.0150  -38.3350   23.9150 H   0  0  0  0  0  0  0  0  0  0  0  0
  2  5  1  0
  3  1  1  0
  4  2  2  0
  4  6  1  0
  5 15  1  0
  5  1  2  0
  6  3  2  0
  7 15  1  0
  8 13  1  0
  9 10  1  0
  9  8  1  0
 11 10  1  0
 11 20  1  0
 11 12  1  0
 13  7  1  0
 13 12  1  0
 14  7  2  0
 15 16  1  0
 17 18  2  0
 18 37  1  0
 19 18  1  0
 19 22  1  0
 20 21  1  0
 20 17  1  0
 21 19  2  0
 22 23  1  0
 23 24  2  0
 25 28  1  0
 25 24  1  0
 26 25  2  0
 27 26  1  0
 27 22  2  0
 28 29  1  0
 29 30  1  0
 30 31  2  0
 32 31  1  0
 32 36  1  0
 33 32  2  0
 34 29  2  0
 34 33  1  0
 35 34  1  0
 37 38  1  0
 38 41  1  0
 38 40  1  0
 39 37  2  0
 42 43  1  0
 42 17  1  0
 44 42  1  0
 45  6  1  0
 46 45  1  0
 47 48  1  0
 47 46  2  0
 49 60  2  0
 50 48  1  0
 50 55  1  0
 51 59  1  0
 51 61  1  0
 52 58  1  0
 52 54  1  0
 53 59  1  0
 54 53  1  0
 55 54  2  0
 56 50  2  0
 57 56  1  0
 57 52  2  0
 58 51  1  0
 59 49  1  0
 61 63  2  0
 62 61  1  0
 64 62  1  0
 65 74  2  0
 65 70  1  0
 66 62  1  0
 66 70  1  0
 67 66  1  0
 68 69  1  0
 68 67  1  0
 69 65  1  0
 70 71  2  0
 71 72  1  0
 73 72  2  0
 74 73  1  0
 75 49  1  0
 75 80  1  0
 75 76  1  0
 76 79  1  1
 76 77  1  0
 78 76  1  0
 80 83  1  0
 81 85  1  0
 81 80  1  0
 82 81  2  0
 85 84  1  0
 87 88  1  0
 87 85  1  0
 87 86  1  0
M  ISO  4   7 100  15 100  47 101  48 101
M  END
>  <TORSDO>  (80) 
F 19

>  <SCORE>  (80) 
-14.020

>  <name>  (80) 
79

>  <ligand_id>  (80) 
79

>  <original_smiles>  (80) 
[H]c1c([H])c([H])c2c(c1[H])C([H])([H])C([H])([H])C([H])([H])C2([H])N([H])C(=O)C1([H])N(C(=O)C([H])(N([H])C(=O)C([H])(N([H])C([H])([H])[H])C([H])([H])[H])C(C([H])([H])[H])(C([H])([H])[H])C([H])([H])[H])C([H])([H])c2c([H])c(OC([H])([H])C([H])([H])Oc3c([H])c([H])c(N([H])C(=O)N4C([H])([H])C([H])([H])C([H])([H])C([H])(n5nc(-c6c([H])c([H])c(Oc7c([H])c([H])c(F)c([H])c7F)c([H])c6[H])c(C(=O)N([H])[H])c5N([H])[H])C4([H])[H])c([H])c3[H])c([H])c([H])c2C1([H])[H]

>  <smiles>  (80) 
[H]c1c([H])c([H])c2c(c1[H])C([H])([H])C([H])([H])C([H])([H])C2([H])N([H])C(=O)C1([H])N(C(=O)C([H])(N([H])C(=O)C([H])(N([H])C([H])([H])[H])C([H])([H])[H])C(C([H])([H])[H])(C([H])([H])[H])C([H])([H])[H])C([H])([H])c2c([H])c(OC([H])([H])C([H])([H])Oc3c([H])c([H])c(N([H])C(=O)N4C([H])([H])C([H])([H])C([H])([H])C([H])(n5nc(-c6c([H])c([H])c(Oc7c([H])c([H])c(F)c([H])c7F)c([H])c6[H])c(C(=O)N([H])[H])c5N([H])[H])C4([H])[H])c([H])c3[H])c([H])c([H])c2C1([H])[H]

$$$$
80:0:0
     RDKit          3D

 90 98  0  0  1  0  0  0  0  0999 V2000
  -30.6670  -18.5450   20.1450 C   0  0  0  0  0  3  0  0  0  0  0  0
  -30.3880  -19.9800   20.0240 C   0  0  0  0  0  3  0  0  0  0  0  0
  -28.3550  -18.1020   19.9960 C   0  0  0  0  0  3  0  0  0  0  0  0
  -29.6530  -17.5180   20.1360 C   0  0  0  0  0  0  0  0  0  0  0  0
  -29.0690  -20.5430   19.8690 C   0  0  0  0  0  0  0  0  0  0  0  0
  -28.0780  -19.5110   19.8640 C   0  0  0  0  0  0  0  0  0  0  0  0
  -26.7820  -19.8890   19.7210 F   0  0  0  0  0  0  0  0  0  0  0  0
  -30.6000  -14.9100   19.9920 C   0  0  0  0  0  0  0  0  0  0  0  0
  -30.4570  -12.5590   19.0690 C   0  0  0  0  0  2  0  0  0  0  0  0
  -29.4590  -12.5370   17.8860 C   0  0  0  0  0  2  0  0  0  0  0  0
  -28.0110  -12.3540   18.3850 C   0  0  0  0  0  2  0  0  0  0  0  0
  -27.6760  -13.2810   19.5810 C   0  0  0  0  0  3  0  0  0  0  0  0
  -28.7830  -13.2460   20.6570 C   0  0  0  0  0  2  0  0  0  0  0  0
  -30.0390  -13.6380   20.0020 N   0  0  0  0  0  0  0  0  0  0  0  0
  -31.7670  -15.0390   19.6040 O   0  0  0  0  0  0  0  0  0  0  0  0
  -29.7420  -15.9970   20.2670 N   0  0  0  0  0  0  0  0  0  0  0  0
  -28.8660  -15.6090   20.5800 H   0  0  0  0  0  0  0  0  0  0  0  0
  -25.3470  -13.9060   20.4510 C   0  0  0  0  0  0  0  0  0  0  0  0
  -24.2850  -13.1490   20.8630 C   0  0  0  0  0  0  0  0  0  0  0  0
  -24.7130  -11.7890   20.7760 C   0  0  0  0  0  0  0  0  0  0  0  0
  -26.3550  -13.0090   20.1370 N   0  0  0  0  0  0  0  0  0  0  0  0
  -25.9840  -11.7280   20.3970 N   0  0  0  0  0  0  0  0  0  0  0  0
  -23.9650  -10.5400   20.9760 C   0  0  0  0  0  0  0  0  0  0  0  0
  -24.4120   -9.5480   21.8770 C   0  0  0  0  0  3  0  0  0  0  0  0
  -23.6650   -8.3650   22.0660 C   0  0  0  0  0  3  0  0  0  0  0  0
  -22.4590   -8.1650   21.3550 C   0  0  0  0  0  0  0  0  0  0  0  0
  -22.0310   -9.1460   20.4420 C   0  0  0  0  0  3  0  0  0  0  0  0
  -22.7780  -10.3200   20.2510 C   0  0  0  0  0  3  0  0  0  0  0  0
  -21.6820   -7.0370   21.4550 O   0  0  0  0  0  0  0  0  0  0  0  0
  -21.6470   -6.2870   22.6030 C   0  0  0  0  0  0  0  0  0  0  0  0
  -21.2260   -6.8300   23.8360 C   0  0  0  0  0  3  0  0  0  0  0  0
  -21.1400   -6.0060   24.9760 C   0  0  0  0  0  3  0  0  0  0  0  0
  -21.4640   -4.6400   24.8850 C   0  0  0  0  0  0  0  0  0  0  0  0
  -21.8790   -4.0960   23.6560 C   0  0  0  0  0  3  0  0  0  0  0  0
  -21.9670   -4.9160   22.5180 C   0  0  0  0  0  0  0  0  0  0  0  0
  -22.3460   -4.3820   21.3320 F   0  0  0  0  0  0  0  0  0  0  0  0
  -21.3740   -3.8460   25.9770 F   0  0  0  0  0  0  0  0  0  0  0  0
  -22.9160  -13.6530   21.2170 C   0  0  0  0  0  0  0  0  0  0  0  0
  -22.2200  -12.9600   22.1100 N   0  0  0  0  0  0  0  0  0  0  0  0
  -22.4750  -14.6960   20.7360 O   0  0  0  0  0  0  0  0  0  0  0  0
  -22.5910  -12.1160   22.5210 H   0  0  0  0  0  0  0  0  0  0  0  0
  -21.3020  -13.2780   22.3890 H   0  0  0  0  0  0  0  0  0  0  0  0
  -25.5320  -15.2760   20.2890 N   0  0  0  0  0  0  0  0  0  0  0  0
  -24.7680  -15.9290   20.4230 H   0  0  0  0  0  0  0  0  0  0  0  0
  -26.3210  -15.6850   19.8060 H   0  0  0  0  0  0  0  0  0  0  0  0
  -28.6020  -21.9430   19.6860 N   0  0  0  0  0  0  0  0  0  0  0  0
  -27.5940  -21.9430   19.5380 H   0  0  0  0  0  0  0  0  0  0  0  0
  -29.1420  -23.3880   19.8360 C   0  0  0  0  0  3  0  0  0  0  0  0
  -28.1160  -24.6930   19.5690 C   0  0  0  0  0  3  0  0  0  0  0  0
  -28.3550  -26.2030   19.8170 O   0  0  0  0  0  0  0  0  0  0  0  0
  -24.5400  -31.6160   23.0230 C   0  0  0  0  0  0  0  0  0  0  0  0
  -27.2640  -27.1430   19.7910 C   0  0  0  0  0  0  0  0  0  0  0  0
  -23.3870  -30.2730   21.3070 C   0  0  0  0  0  3  0  0  0  0  0  0
  -24.8860  -28.8110   19.8230 C   0  0  0  0  0  0  0  0  0  0  0  0
  -25.9330  -30.6170   21.1770 C   0  0  0  0  0  2  0  0  0  0  0  0
  -26.0480  -29.2620   20.4600 C   0  0  0  0  0  0  0  0  0  0  0  0
  -27.2390  -28.4460   20.4260 C   0  0  0  0  0  3  0  0  0  0  0  0
  -26.0700  -26.7880   19.1230 C   0  0  0  0  0  3  0  0  0  0  0  0
  -24.9070  -27.5870   19.1400 C   0  0  0  0  0  3  0  0  0  0  0  0
  -23.6340  -29.6700   19.9000 C   0  0  0  0  0  2  0  0  0  0  0  0
  -24.6390  -30.8540   21.8920 N   0  0  0  0  0  0  0  0  0  0  0  0
  -23.4430  -31.8480   23.5540 O   0  0  0  0  0  0  0  0  0  0  0  0
  -22.7270  -29.2030   22.2130 C   0  0  0  0  0  0  0  0  0  0  0  0
  -21.3980  -29.0350   22.0940 N   0  0  0  0  0  0  0  0  0  0  0  0
  -23.4130  -28.5300   22.9860 O   0  0  0  0  0  0  0  0  0  0  0  0
  -20.9010  -29.6310   21.4480 H   0  0  0  0  0  0  0  0  0  0  0  0
  -18.0180  -27.8460   22.6260 C   0  0  0  0  0  0  0  0  0  0  0  0
  -20.5900  -28.0490   22.8170 C   0  0  0  0  0  3  0  0  0  0  0  0
  -20.6450  -26.6680   22.1230 C   0  0  0  0  0  2  0  0  0  0  0  0
  -19.5010  -26.4450   21.1290 C   0  0  0  0  0  2  0  0  0  0  0  0
  -18.1460  -26.5550   21.8350 C   0  0  0  0  0  2  0  0  0  0  0  0
  -19.1650  -28.5550   23.0730 C   0  0  0  0  0  0  0  0  0  0  0  0
  -18.9880  -29.7660   23.7780 C   0  0  0  0  0  3  0  0  0  0  0  0
  -17.6980  -30.2680   24.0360 C   0  0  0  0  0  3  0  0  0  0  0  0
  -16.5680  -29.5550   23.6020 C   0  0  0  0  0  3  0  0  0  0  0  0
  -16.7280  -28.3450   22.9040 C   0  0  0  0  0  3  0  0  0  0  0  0
  -25.7970  -32.2510   23.6910 C   0  0  0  0  0  3  0  0  0  0  0  0
  -26.2880  -31.4590   24.9660 C   0  0  1  0  0  0  0  0  0  0  0  0
  -25.1710  -31.1910   26.0010 C   0  0  0  0  0  1  0  0  0  0  0  0
  -26.8930  -30.0930   24.5640 C   0  0  0  0  0  1  0  0  0  0  0  0
  -27.4150  -32.2490   25.6710 C   0  0  0  0  0  1  0  0  0  0  0  0
  -25.4610  -33.6380   24.0480 N   0  0  0  0  0  0  0  0  0  0  0  0
  -25.7690  -34.7130   23.3100 C   0  0  0  0  0  0  0  0  0  0  0  0
  -26.4330  -34.6420   22.2730 O   0  0  0  0  0  0  0  0  0  0  0  0
  -24.8710  -33.7660   24.8570 H   0  0  0  0  0  0  0  0  0  0  0  0
  -23.9950  -36.4750   23.0240 C   0  0  0  0  0  1  0  0  0  0  0  0
  -25.2630  -36.0850   23.8000 C   0  0  0  0  0  3  0  0  0  0  0  0
  -27.3900  -37.0130   24.6060 C   0  0  0  0  0  1  0  0  0  0  0  0
  -26.2700  -37.1620   23.6800 N   0  0  0  0  0  0  0  0  0  0  0  0
  -25.8460  -38.0720   23.8390 H   0  0  0  0  0  0  0  0  0  0  0  0
  2  1  2  0
  3  4  2  0
  4  1  1  0
  4 16  1  0
  5  2  1  0
  6  5  2  0
  6  3  1  0
  7  6  1  0
  8 14  1  0
  8 16  1  0
  9 14  1  0
 10 11  1  0
 10  9  1  0
 12 11  1  0
 12 21  1  0
 12 13  1  0
 14 13  1  0
 15  8  2  0
 16 17  1  0
 18 19  2  0
 19 38  1  0
 20 19  1  0
 20 23  1  0
 21 22  1  0
 21 18  1  0
 22 20  2  0
 23 24  1  0
 24 25  2  0
 26 29  1  0
 26 25  1  0
 27 26  2  0
 28 27  1  0
 28 23  2  0
 29 30  1  0
 30 31  1  0
 31 32  2  0
 33 32  1  0
 33 37  1  0
 34 33  2  0
 35 30  2  0
 35 34  1  0
 36 35  1  0
 38 39  1  0
 39 42  1  0
 39 41  1  0
 40 38  2  0
 43 44  1  0
 43 18  1  0
 45 43  1  0
 46 48  1  0
 46  5  1  0
 47 46  1  0
 49 50  1  0
 49 48  2  0
 51 62  2  0
 52 50  1  0
 52 57  1  0
 53 61  1  0
 53 63  1  0
 54 60  1  0
 54 56  1  0
 55 61  1  0
 56 55  1  0
 57 56  2  0
 58 59  1  0
 58 52  2  0
 59 54  2  0
 60 53  1  0
 61 51  1  0
 63 65  2  0
 64 63  1  0
 66 64  1  0
 67 76  2  0
 67 72  1  0
 68 64  1  0
 68 72  1  0
 69 68  1  0
 70 71  1  0
 70 69  1  0
 71 67  1  0
 72 73  2  0
 73 74  1  0
 75 74  2  0
 76 75  1  0
 77 51  1  0
 77 82  1  0
 77 78  1  0
 78 81  1  1
 78 79  1  0
 80 78  1  0
 82 85  1  0
 83 87  1  0
 83 82  1  0
 84 83  2  0
 87 86  1  0
 89 87  1  0
 89 90  1  0
 89 88  1  0
M  ISO  4   8 100  16 100  49 101  50 101
M  END
>  <TORSDO>  (81) 
F 19

>  <SCORE>  (81) 
-13.608

>  <name>  (81) 
80

>  <ligand_id>  (81) 
80

>  <original_smiles>  (81) 
[H]c1c([H])c([H])c2c(c1[H])C([H])([H])C([H])([H])C([H])([H])C2([H])N([H])C(=O)C1([H])N(C(=O)C([H])(N([H])C(=O)C([H])(N([H])C([H])([H])[H])C([H])([H])[H])C(C([H])([H])[H])(C([H])([H])[H])C([H])([H])[H])C([H])([H])c2c([H])c(OC([H])([H])C([H])([H])N([H])c3c([H])c([H])c(N([H])C(=O)N4C([H])([H])C([H])([H])C([H])([H])C([H])(n5nc(-c6c([H])c([H])c(Oc7c([H])c([H])c(F)c([H])c7F)c([H])c6[H])c(C(=O)N([H])[H])c5N([H])[H])C4([H])[H])c([H])c3F)c([H])c([H])c2C1([H])[H]

>  <smiles>  (81) 
[H]c1c([H])c([H])c2c(c1[H])C([H])([H])C([H])([H])C([H])([H])C2([H])N([H])C(=O)C1([H])N(C(=O)C([H])(N([H])C(=O)C([H])(N([H])C([H])([H])[H])C([H])([H])[H])C(C([H])([H])[H])(C([H])([H])[H])C([H])([H])[H])C([H])([H])c2c([H])c(OC([H])([H])C([H])([H])N([H])c3c([H])c([H])c(N([H])C(=O)N4C([H])([H])C([H])([H])C([H])([H])C([H])(n5nc(-c6c([H])c([H])c(Oc7c([H])c([H])c(F)c([H])c7F)c([H])c6[H])c(C(=O)N([H])[H])c5N([H])[H])C4([H])[H])c([H])c3F)c([H])c([H])c2C1([H])[H]

$$$$
81:0:0
     RDKit          3D

 91 99  0  0  1  0  0  0  0  0999 V2000
  -28.8640  -23.4360   20.4200 C   0  0  0  0  0  0  0  0  0  0  0  0
  -28.5660  -22.1230   19.9750 N   0  0  0  0  0  0  0  0  0  0  0  0
  -29.8230  -23.6340   21.1690 O   0  0  0  0  0  0  0  0  0  0  0  0
  -27.7870  -22.1740   19.3320 H   0  0  0  0  0  0  0  0  0  0  0  0
  -29.9680  -20.0950   21.0900 C   0  0  0  0  0  3  0  0  0  0  0  0
  -30.2410  -18.6590   21.2010 C   0  0  0  0  0  3  0  0  0  0  0  0
  -28.4700  -19.6430   19.3310 C   0  0  0  0  0  3  0  0  0  0  0  0
  -28.7380  -18.2200   19.4300 C   0  0  0  0  0  0  0  0  0  0  0  0
  -29.0390  -20.6720   20.1540 C   0  0  0  0  0  0  0  0  0  0  0  0
  -29.6360  -17.6320   20.3850 C   0  0  0  0  0  0  0  0  0  0  0  0
  -27.9880  -17.3060   18.4760 C   0  0  0  0  0  1  0  0  0  0  0  0
  -30.5120  -15.0110   20.4260 C   0  0  0  0  0  0  0  0  0  0  0  0
  -30.4420  -12.6530   19.5020 C   0  0  0  0  0  2  0  0  0  0  0  0
  -29.5160  -12.6120   18.2620 C   0  0  0  0  0  2  0  0  0  0  0  0
  -28.0470  -12.4000   18.6790 C   0  0  0  0  0  2  0  0  0  0  0  0
  -27.6280  -13.3220   19.8530 C   0  0  0  0  0  3  0  0  0  0  0  0
  -28.6730  -13.3200   20.9900 C   0  0  0  0  0  2  0  0  0  0  0  0
  -29.9550  -13.7350   20.4020 N   0  0  0  0  0  0  0  0  0  0  0  0
  -31.7030  -15.1280   20.1210 O   0  0  0  0  0  0  0  0  0  0  0  0
  -29.6580  -16.1200   20.6440 N   0  0  0  0  0  0  0  0  0  0  0  0
  -28.7370  -15.7720   20.8630 H   0  0  0  0  0  0  0  0  0  0  0  0
  -25.2330  -13.8960   20.5660 C   0  0  0  0  0  0  0  0  0  0  0  0
  -24.1680  -13.1180   20.9240 C   0  0  0  0  0  0  0  0  0  0  0  0
  -24.6370  -11.7690   20.8970 C   0  0  0  0  0  0  0  0  0  0  0  0
  -26.2830  -13.0210   20.3370 N   0  0  0  0  0  0  0  0  0  0  0  0
  -25.9320  -11.7360   20.6010 N   0  0  0  0  0  0  0  0  0  0  0  0
  -23.9120  -10.5040   21.0800 C   0  0  0  0  0  0  0  0  0  0  0  0
  -24.3390   -9.5370   22.0160 C   0  0  0  0  0  3  0  0  0  0  0  0
  -23.6130   -8.3380   22.1880 C   0  0  0  0  0  3  0  0  0  0  0  0
  -22.4460   -8.1000   21.4240 C   0  0  0  0  0  0  0  0  0  0  0  0
  -22.0390   -9.0560   20.4770 C   0  0  0  0  0  3  0  0  0  0  0  0
  -22.7650  -10.2460   20.3030 C   0  0  0  0  0  3  0  0  0  0  0  0
  -21.6920   -6.9540   21.5040 O   0  0  0  0  0  0  0  0  0  0  0  0
  -21.6370   -6.2070   22.6540 C   0  0  0  0  0  0  0  0  0  0  0  0
  -21.1860   -6.7540   23.8750 C   0  0  0  0  0  3  0  0  0  0  0  0
  -21.0800   -5.9340   25.0170 C   0  0  0  0  0  3  0  0  0  0  0  0
  -21.4140   -4.5690   24.9370 C   0  0  0  0  0  0  0  0  0  0  0  0
  -21.8580   -4.0220   23.7200 C   0  0  0  0  0  3  0  0  0  0  0  0
  -21.9660   -4.8390   22.5810 C   0  0  0  0  0  0  0  0  0  0  0  0
  -22.3740   -4.3030   21.4060 F   0  0  0  0  0  0  0  0  0  0  0  0
  -21.3050   -3.7790   26.0310 F   0  0  0  0  0  0  0  0  0  0  0  0
  -22.7670  -13.5910   21.1790 C   0  0  0  0  0  0  0  0  0  0  0  0
  -22.0340  -12.8980   22.0440 N   0  0  0  0  0  0  0  0  0  0  0  0
  -22.3300  -14.6110   20.6490 O   0  0  0  0  0  0  0  0  0  0  0  0
  -22.3990  -12.0730   22.4940 H   0  0  0  0  0  0  0  0  0  0  0  0
  -21.0920  -13.1980   22.2570 H   0  0  0  0  0  0  0  0  0  0  0  0
  -25.3910  -15.2670   20.3940 N   0  0  0  0  0  0  0  0  0  0  0  0
  -24.6150  -15.9110   20.5050 H   0  0  0  0  0  0  0  0  0  0  0  0
  -26.2350  -15.7180   20.0710 H   0  0  0  0  0  0  0  0  0  0  0  0
  -27.9360  -24.7350   19.9640 C   0  0  0  0  0  2  0  0  0  0  0  0
  -28.2350  -26.2250   20.3050 O   0  0  0  0  0  0  0  0  0  0  0  0
  -24.6230  -31.9270   23.2730 C   0  0  0  0  0  0  0  0  0  0  0  0
  -27.1900  -27.2200   20.2250 C   0  0  0  0  0  0  0  0  0  0  0  0
  -23.4170  -30.5340   21.6370 C   0  0  0  0  0  3  0  0  0  0  0  0
  -24.8610  -28.9650   20.2030 C   0  0  0  0  0  0  0  0  0  0  0  0
  -25.9710  -30.7980   21.4670 C   0  0  0  0  0  2  0  0  0  0  0  0
  -26.0420  -29.4070   20.8110 C   0  0  0  0  0  0  0  0  0  0  0  0
  -27.2060  -28.5490   20.8100 C   0  0  0  0  0  3  0  0  0  0  0  0
  -25.9830  -26.8860   19.5660 C   0  0  0  0  0  3  0  0  0  0  0  0
  -24.8440  -27.7170   19.5660 C   0  0  0  0  0  3  0  0  0  0  0  0
  -23.6330  -29.8600   20.2570 C   0  0  0  0  0  2  0  0  0  0  0  0
  -24.6910  -31.1070   22.1800 N   0  0  0  0  0  0  0  0  0  0  0  0
  -23.5390  -32.2120   23.8050 O   0  0  0  0  0  0  0  0  0  0  0  0
  -22.7410  -29.5250   22.6000 C   0  0  0  0  0  0  0  0  0  0  0  0
  -21.4140  -29.3490   22.4720 N   0  0  0  0  0  0  0  0  0  0  0  0
  -23.4130  -28.9030   23.4270 O   0  0  0  0  0  0  0  0  0  0  0  0
  -20.9270  -29.9030   21.7790 H   0  0  0  0  0  0  0  0  0  0  0  0
  -18.0360  -28.1340   22.9650 C   0  0  0  0  0  0  0  0  0  0  0  0
  -20.5930  -28.4120   23.2430 C   0  0  0  0  0  3  0  0  0  0  0  0
  -20.7060  -26.9760   22.6790 C   0  0  0  0  0  2  0  0  0  0  0  0
  -19.6110  -26.6410   21.6610 C   0  0  0  0  0  2  0  0  0  0  0  0
  -18.2240  -26.7820   22.2970 C   0  0  0  0  0  2  0  0  0  0  0  0
  -19.1480  -28.9060   23.3950 C   0  0  0  0  0  0  0  0  0  0  0  0
  -18.9180  -30.1690   23.9810 C   0  0  0  0  0  3  0  0  0  0  0  0
  -17.6080  -30.6610   24.1400 C   0  0  0  0  0  3  0  0  0  0  0  0
  -16.5120  -29.8870   23.7250 C   0  0  0  0  0  3  0  0  0  0  0  0
  -16.7260  -28.6240   23.1440 C   0  0  0  0  0  3  0  0  0  0  0  0
  -25.9040  -32.5610   23.8960 C   0  0  0  0  0  3  0  0  0  0  0  0
  -25.6010  -33.9650   24.2100 N   0  0  0  0  0  0  0  0  0  0  0  0
  -25.9210  -35.0090   23.4320 C   0  0  0  0  0  0  0  0  0  0  0  0
  -26.5700  -34.8890   22.3900 O   0  0  0  0  0  0  0  0  0  0  0  0
  -25.0230  -34.1320   25.0200 H   0  0  0  0  0  0  0  0  0  0  0  0
  -24.1810  -36.7980   23.1060 C   0  0  0  0  0  1  0  0  0  0  0  0
  -25.4500  -36.4060   23.8830 C   0  0  0  0  0  3  0  0  0  0  0  0
  -27.6080  -37.3090   24.6280 C   0  0  0  0  0  1  0  0  0  0  0  0
  -26.4770  -37.4580   23.7160 N   0  0  0  0  0  0  0  0  0  0  0  0
  -26.0740  -38.3800   23.8570 H   0  0  0  0  0  0  0  0  0  0  0  0
  -26.4040  -31.8050   25.1890 C   0  0  1  0  0  0  0  0  0  0  0  0
  -25.3010  -31.5930   26.2520 C   0  0  0  0  0  1  0  0  0  0  0  0
  -26.9790  -30.4150   24.8270 C   0  0  0  0  0  1  0  0  0  0  0  0
  -27.5560  -32.6000   25.8470 C   0  0  0  0  0  1  0  0  0  0  0  0
  1  3  2  0
  2  9  1  0
  2  1  1  0
  4  2  1  0
  5  6  1  0
  7  8  2  0
  7  9  1  0
  8 10  1  0
  9  5  2  0
 10 20  1  0
 10  6  2  0
 11  8  1  0
 12 20  1  0
 13 18  1  0
 14 15  1  0
 14 13  1  0
 16 15  1  0
 16 25  1  0
 16 17  1  0
 18 12  1  0
 18 17  1  0
 19 12  2  0
 20 21  1  0
 22 23  2  0
 23 42  1  0
 24 23  1  0
 24 27  1  0
 25 22  1  0
 25 26  1  0
 26 24  2  0
 27 28  1  0
 28 29  2  0
 30 33  1  0
 30 29  1  0
 31 30  2  0
 32 31  1  0
 32 27  2  0
 33 34  1  0
 34 35  1  0
 35 36  2  0
 37 36  1  0
 37 41  1  0
 38 37  2  0
 39 34  2  0
 39 38  1  0
 40 39  1  0
 42 43  1  0
 43 46  1  0
 43 45  1  0
 44 42  2  0
 47 48  1  0
 47 22  1  0
 49 47  1  0
 50 51  1  0
 50  1  1  0
 52 63  2  0
 53 51  1  0
 53 58  1  0
 54 62  1  0
 54 64  1  0
 55 61  1  0
 55 57  1  0
 56 62  1  0
 57 56  1  0
 58 57  2  0
 59 60  1  0
 59 53  2  0
 60 55  2  0
 61 54  1  0
 62 52  1  0
 64 66  2  0
 65 64  1  0
 67 65  1  0
 68 77  2  0
 68 73  1  0
 69 65  1  0
 69 73  1  0
 70 69  1  0
 71 72  1  0
 71 70  1  0
 72 68  1  0
 73 74  2  0
 74 75  1  0
 76 75  2  0
 77 76  1  0
 78 52  1  0
 78 79  1  0
 78 88  1  0
 79 82  1  0
 80 84  1  0
 80 79  1  0
 81 80  2  0
 84 83  1  0
 86 87  1  0
 86 84  1  0
 86 85  1  0
 88 91  1  1
 88 89  1  0
 90 88  1  0
M  ISO  4  12 100  20 100  50 101  51 101
M  END
>  <TORSDO>  (82) 
F 18

>  <SCORE>  (82) 
-14.712

>  <name>  (82) 
81

>  <ligand_id>  (82) 
81

>  <original_smiles>  (82) 
[H]c1c([H])c([H])c2c(c1[H])C([H])([H])C([H])([H])C([H])([H])C2([H])N([H])C(=O)C1([H])N(C(=O)C([H])(N([H])C(=O)C([H])(N([H])C([H])([H])[H])C([H])([H])[H])C(C([H])([H])[H])(C([H])([H])[H])C([H])([H])[H])C([H])([H])c2c([H])c(OC([H])([H])C(=O)N([H])c3c([H])c([H])c(N([H])C(=O)N4C([H])([H])C([H])([H])C([H])([H])C([H])(n5nc(-c6c([H])c([H])c(Oc7c([H])c([H])c(F)c([H])c7F)c([H])c6[H])c(C(=O)N([H])[H])c5N([H])[H])C4([H])[H])c(C([H])([H])[H])c3[H])c([H])c([H])c2C1([H])[H]

>  <smiles>  (82) 
[H]c1c([H])c([H])c2c(c1[H])C([H])([H])C([H])([H])C([H])([H])C2([H])N([H])C(=O)C1([H])N(C(=O)C([H])(N([H])C(=O)C([H])(N([H])C([H])([H])[H])C([H])([H])[H])C(C([H])([H])[H])(C([H])([H])[H])C([H])([H])[H])C([H])([H])c2c([H])c(OC([H])([H])C(=O)N([H])c3c([H])c([H])c(N([H])C(=O)N4C([H])([H])C([H])([H])C([H])([H])C([H])(n5nc(-c6c([H])c([H])c(Oc7c([H])c([H])c(F)c([H])c7F)c([H])c6[H])c(C(=O)N([H])[H])c5N([H])[H])C4([H])[H])c(C([H])([H])[H])c3[H])c([H])c([H])c2C1([H])[H]

$$$$
82:0:0
     RDKit          3D

 89 97  0  0  1  0  0  0  0  0999 V2000
  -29.5440  -21.4810   19.8000 O   0  0  0  0  0  0  0  0  0  0  0  0
  -30.2950  -17.8220   19.2330 C   0  0  0  0  0  3  0  0  0  0  0  0
  -29.6100  -18.0620   21.5290 C   0  0  0  0  0  3  0  0  0  0  0  0
  -30.1380  -19.2310   19.0550 C   0  0  0  0  0  3  0  0  0  0  0  0
  -29.4900  -19.4810   21.3580 C   0  0  0  0  0  3  0  0  0  0  0  0
  -30.0110  -17.1830   20.4750 C   0  0  0  0  0  0  0  0  0  0  0  0
  -29.7280  -20.1090   20.1010 C   0  0  0  0  0  0  0  0  0  0  0  0
  -30.6810  -14.6900   20.0640 C   0  0  0  0  0  0  0  0  0  0  0  0
  -30.4070  -12.4780   18.9480 C   0  0  0  0  0  2  0  0  0  0  0  0
  -29.4060  -12.6530   17.7840 C   0  0  0  0  0  2  0  0  0  0  0  0
  -27.9570  -12.4770   18.2740 C   0  0  0  0  0  2  0  0  0  0  0  0
  -27.6670  -13.2830   19.5690 C   0  0  0  0  0  3  0  0  0  0  0  0
  -28.7820  -13.0970   20.6240 C   0  0  0  0  0  2  0  0  0  0  0  0
  -30.0640  -13.4630   19.9990 N   0  0  0  0  0  0  0  0  0  0  0  0
  -31.7780  -14.8690   19.5220 O   0  0  0  0  0  0  0  0  0  0  0  0
  -30.0080  -15.7210   20.6770 N   0  0  0  0  0  0  0  0  0  0  0  0
  -29.2980  -15.3940   21.3180 H   0  0  0  0  0  0  0  0  0  0  0  0
  -25.3150  -13.8610   20.4180 C   0  0  0  0  0  0  0  0  0  0  0  0
  -24.2640  -13.0810   20.8230 C   0  0  0  0  0  0  0  0  0  0  0  0
  -24.7220  -11.7300   20.7360 C   0  0  0  0  0  0  0  0  0  0  0  0
  -26.3440  -12.9850   20.1100 N   0  0  0  0  0  0  0  0  0  0  0  0
  -25.9970  -11.6970   20.3590 N   0  0  0  0  0  0  0  0  0  0  0  0
  -24.0000  -10.4630   20.9290 C   0  0  0  0  0  0  0  0  0  0  0  0
  -24.4340   -9.5050   21.8700 C   0  0  0  0  0  3  0  0  0  0  0  0
  -23.7110   -8.3070   22.0570 C   0  0  0  0  0  3  0  0  0  0  0  0
  -22.5420   -8.0580   21.3020 C   0  0  0  0  0  0  0  0  0  0  0  0
  -22.1280   -9.0050   20.3490 C   0  0  0  0  0  3  0  0  0  0  0  0
  -22.8510  -10.1940   20.1600 C   0  0  0  0  0  3  0  0  0  0  0  0
  -21.7930   -6.9100   21.3950 O   0  0  0  0  0  0  0  0  0  0  0  0
  -21.6850   -6.2140   22.5740 C   0  0  0  0  0  0  0  0  0  0  0  0
  -21.1710   -6.8070   23.7460 C   0  0  0  0  0  3  0  0  0  0  0  0
  -21.0150   -6.0350   24.9150 C   0  0  0  0  0  3  0  0  0  0  0  0
  -21.3580   -4.6720   24.9110 C   0  0  0  0  0  0  0  0  0  0  0  0
  -21.8680   -4.0770   23.7420 C   0  0  0  0  0  3  0  0  0  0  0  0
  -22.0250   -4.8450   22.5760 C   0  0  0  0  0  0  0  0  0  0  0  0
  -22.4920   -4.2620   21.4470 F   0  0  0  0  0  0  0  0  0  0  0  0
  -21.2020   -3.9290   26.0300 F   0  0  0  0  0  0  0  0  0  0  0  0
  -22.8840  -13.5550   21.1750 C   0  0  0  0  0  0  0  0  0  0  0  0
  -22.1950  -12.8410   22.0630 N   0  0  0  0  0  0  0  0  0  0  0  0
  -22.4230  -14.5940   20.7030 O   0  0  0  0  0  0  0  0  0  0  0  0
  -22.5800  -12.0020   22.4720 H   0  0  0  0  0  0  0  0  0  0  0  0
  -21.2690  -13.1360   22.3320 H   0  0  0  0  0  0  0  0  0  0  0  0
  -25.4750  -15.2350   20.2710 N   0  0  0  0  0  0  0  0  0  0  0  0
  -24.7240  -15.8930   20.4490 H   0  0  0  0  0  0  0  0  0  0  0  0
  -26.3150  -15.6820   19.9300 H   0  0  0  0  0  0  0  0  0  0  0  0
  -29.5360  -22.5380   20.8210 C   0  0  0  0  0  2  0  0  0  0  0  0
  -29.6060  -24.0830   20.3680 C   0  0  0  0  0  3  0  0  0  0  0  0
  -28.3060  -24.9980   20.2520 C   0  0  0  0  0  3  0  0  0  0  0  0
  -28.4640  -26.4780   20.2340 O   0  0  0  0  0  0  0  0  0  0  0  0
  -24.6350  -31.8460   23.2070 C   0  0  0  0  0  0  0  0  0  0  0  0
  -27.3140  -27.2920   20.1940 C   0  0  0  0  0  0  0  0  0  0  0  0
  -23.4500  -30.4330   21.5650 C   0  0  0  0  0  3  0  0  0  0  0  0
  -24.9230  -28.8770   20.1610 C   0  0  0  0  0  0  0  0  0  0  0  0
  -25.9890  -30.7640   21.3990 C   0  0  0  0  0  2  0  0  0  0  0  0
  -26.0830  -29.3840   20.7600 C   0  0  0  0  0  0  0  0  0  0  0  0
  -27.2790  -28.6040   20.7640 C   0  0  0  0  0  3  0  0  0  0  0  0
  -26.1260  -26.8340   19.5790 C   0  0  0  0  0  3  0  0  0  0  0  0
  -24.9470  -27.6060   19.5630 C   0  0  0  0  0  3  0  0  0  0  0  0
  -23.6760  -29.7400   20.1940 C   0  0  0  0  0  2  0  0  0  0  0  0
  -24.7100  -31.0330   22.1130 N   0  0  0  0  0  0  0  0  0  0  0  0
  -23.5480  -32.1220   23.7320 O   0  0  0  0  0  0  0  0  0  0  0  0
  -22.7860  -29.4210   22.5280 C   0  0  0  0  0  0  0  0  0  0  0  0
  -21.4620  -29.2400   22.3930 N   0  0  0  0  0  0  0  0  0  0  0  0
  -23.4610  -28.7970   23.3520 O   0  0  0  0  0  0  0  0  0  0  0  0
  -20.9810  -29.7870   21.6940 H   0  0  0  0  0  0  0  0  0  0  0  0
  -18.0800  -28.0600   22.8960 C   0  0  0  0  0  0  0  0  0  0  0  0
  -20.6400  -28.3050   23.1600 C   0  0  0  0  0  3  0  0  0  0  0  0
  -20.7370  -26.8770   22.5740 C   0  0  0  0  0  2  0  0  0  0  0  0
  -19.6290  -26.5640   21.5650 C   0  0  0  0  0  2  0  0  0  0  0  0
  -18.2490  -26.7140   22.2100 C   0  0  0  0  0  2  0  0  0  0  0  0
  -19.2040  -28.8150   23.3260 C   0  0  0  0  0  0  0  0  0  0  0  0
  -18.9940  -30.0760   23.9240 C   0  0  0  0  0  3  0  0  0  0  0  0
  -17.6920  -30.5810   24.1000 C   0  0  0  0  0  3  0  0  0  0  0  0
  -16.5830  -29.8240   23.6860 C   0  0  0  0  0  3  0  0  0  0  0  0
  -16.7780  -28.5660   23.0900 C   0  0  0  0  0  3  0  0  0  0  0  0
  -25.9120  -32.4860   23.8370 C   0  0  0  0  0  3  0  0  0  0  0  0
  -26.4240  -31.7160   25.1150 C   0  0  1  0  0  0  0  0  0  0  0  0
  -25.3250  -31.4660   26.1740 C   0  0  0  0  0  1  0  0  0  0  0  0
  -27.0240  -30.3450   24.7260 C   0  0  0  0  0  1  0  0  0  0  0  0
  -27.5650  -32.5170   25.7860 C   0  0  0  0  0  1  0  0  0  0  0  0
  -25.5930  -33.8820   24.1710 N   0  0  0  0  0  0  0  0  0  0  0  0
  -25.9220  -34.9400   23.4160 C   0  0  0  0  0  0  0  0  0  0  0  0
  -26.5960  -34.8420   22.3870 O   0  0  0  0  0  0  0  0  0  0  0  0
  -25.0020  -34.0290   24.9740 H   0  0  0  0  0  0  0  0  0  0  0  0
  -24.1860  -36.7230   23.0530 C   0  0  0  0  0  1  0  0  0  0  0  0
  -25.4230  -36.3230   23.8750 C   0  0  0  0  0  3  0  0  0  0  0  0
  -27.5440  -37.2150   24.7320 C   0  0  0  0  0  1  0  0  0  0  0  0
  -26.4500  -37.3830   23.7760 N   0  0  0  0  0  0  0  0  0  0  0  0
  -26.0400  -38.3000   23.9230 H   0  0  0  0  0  0  0  0  0  0  0  0
  1  7  1  0
  1 46  1  0
  2  6  1  0
  4  2  2  0
  4  7  1  0
  5  3  1  0
  6 16  1  0
  6  3  2  0
  7  5  2  0
  8 16  1  0
  9 14  1  0
 10 11  1  0
 10  9  1  0
 12 11  1  0
 12 21  1  0
 12 13  1  0
 14  8  1  0
 14 13  1  0
 15  8  2  0
 16 17  1  0
 18 19  2  0
 19 38  1  0
 20 19  1  0
 20 23  1  0
 21 22  1  0
 21 18  1  0
 22 20  2  0
 23 24  1  0
 24 25  2  0
 26 29  1  0
 26 25  1  0
 27 26  2  0
 28 27  1  0
 28 23  2  0
 29 30  1  0
 30 35  2  0
 30 31  1  0
 31 32  2  0
 33 32  1  0
 33 37  1  0
 34 33  2  0
 35 34  1  0
 36 35  1  0
 38 39  1  0
 39 42  1  0
 39 41  1  0
 40 38  2  0
 43 18  1  0
 43 44  1  0
 45 43  1  0
 47 46  1  0
 48 47  2  0
 49 48  1  0
 50 61  2  0
 51 49  1  0
 51 56  1  0
 52 60  1  0
 52 62  1  0
 53 59  1  0
 53 55  1  0
 54 60  1  0
 55 56  2  0
 55 54  1  0
 57 51  2  0
 58 57  1  0
 58 53  2  0
 59 52  1  0
 60 50  1  0
 62 64  2  0
 63 62  1  0
 65 63  1  0
 66 75  2  0
 66 71  1  0
 67 63  1  0
 67 71  1  0
 68 67  1  0
 69 70  1  0
 69 68  1  0
 70 66  1  0
 71 72  2  0
 72 73  1  0
 74 73  2  0
 75 74  1  0
 76 50  1  0
 76 81  1  0
 76 77  1  0
 77 80  1  1
 77 78  1  0
 79 77  1  0
 81 84  1  0
 82 86  1  0
 82 81  1  0
 83 82  2  0
 86 85  1  0
 88 86  1  0
 88 89  1  0
 88 87  1  0
M  ISO  4   8 100  16 100  48 101  49 101
M  END
>  <TORSDO>  (83) 
F 20

>  <SCORE>  (83) 
-13.067

>  <name>  (83) 
82

>  <ligand_id>  (83) 
82

>  <original_smiles>  (83) 
[H]c1c([H])c([H])c2c(c1[H])C([H])([H])C([H])([H])C([H])([H])C2([H])N([H])C(=O)C1([H])N(C(=O)C([H])(N([H])C(=O)C([H])(N([H])C([H])([H])[H])C([H])([H])[H])C(C([H])([H])[H])(C([H])([H])[H])C([H])([H])[H])C([H])([H])c2c([H])c(OC([H])([H])C([H])([H])C([H])([H])Oc3c([H])c([H])c(N([H])C(=O)N4C([H])([H])C([H])([H])C([H])([H])C([H])(n5nc(-c6c([H])c([H])c(Oc7c([H])c([H])c(F)c([H])c7F)c([H])c6[H])c(C(=O)N([H])[H])c5N([H])[H])C4([H])[H])c([H])c3[H])c([H])c([H])c2C1([H])[H]

>  <smiles>  (83) 
[H]c1c([H])c([H])c2c(c1[H])C([H])([H])C([H])([H])C([H])([H])C2([H])N([H])C(=O)C1([H])N(C(=O)C([H])(N([H])C(=O)C([H])(N([H])C([H])([H])[H])C([H])([H])[H])C(C([H])([H])[H])(C([H])([H])[H])C([H])([H])[H])C([H])([H])c2c([H])c(OC([H])([H])C([H])([H])C([H])([H])Oc3c([H])c([H])c(N([H])C(=O)N4C([H])([H])C([H])([H])C([H])([H])C([H])(n5nc(-c6c([H])c([H])c(Oc7c([H])c([H])c(F)c([H])c7F)c([H])c6[H])c(C(=O)N([H])[H])c5N([H])[H])C4([H])[H])c([H])c3[H])c([H])c([H])c2C1([H])[H]

$$$$
83:0:0
     RDKit          3D

 93101  0  0  1  0  0  0  0  0999 V2000
  -31.3110  -20.5340   20.5310 N   0  0  0  0  0  0  0  0  0  0  0  0
  -31.9380  -21.1870   20.9950 H   0  0  0  0  0  0  0  0  0  0  0  0
  -31.3910  -19.3730   22.6460 C   0  0  0  0  0  3  0  0  0  0  0  0
  -31.1580  -18.2330   23.4390 C   0  0  0  0  0  3  0  0  0  0  0  0
  -30.4650  -18.2180   20.7040 C   0  0  0  0  0  3  0  0  0  0  0  0
  -31.0430  -19.3770   21.2790 C   0  0  0  0  0  0  0  0  0  0  0  0
  -30.2630  -17.0610   21.4990 C   0  0  0  0  0  0  0  0  0  0  0  0
  -30.5920  -17.0810   22.8670 C   0  0  0  0  0  0  0  0  0  0  0  0
  -30.3750  -15.9830   23.6340 F   0  0  0  0  0  0  0  0  0  0  0  0
  -30.3120  -15.0470   20.1170 C   0  0  0  0  0  0  0  0  0  0  0  0
  -30.0810  -12.9320   18.8640 C   0  0  0  0  0  2  0  0  0  0  0  0
  -29.0260  -13.0830   17.7490 C   0  0  0  0  0  2  0  0  0  0  0  0
  -27.6110  -12.8040   18.2910 C   0  0  0  0  0  2  0  0  0  0  0  0
  -27.3090  -13.5800   19.6010 C   0  0  0  0  0  3  0  0  0  0  0  0
  -28.4630  -13.4020   20.6130 C   0  0  0  0  0  2  0  0  0  0  0  0
  -29.7120  -13.8370   19.9620 N   0  0  0  0  0  0  0  0  0  0  0  0
  -31.3070  -15.3970   19.4740 O   0  0  0  0  0  0  0  0  0  0  0  0
  -29.6920  -15.8790   20.9660 N   0  0  0  0  0  0  0  0  0  0  0  0
  -28.9280  -15.4720   21.4820 H   0  0  0  0  0  0  0  0  0  0  0  0
  -24.9420  -13.9720   20.5390 C   0  0  0  0  0  0  0  0  0  0  0  0
  -23.9660  -13.1050   20.9490 C   0  0  0  0  0  0  0  0  0  0  0  0
  -24.5160  -11.7940   20.7990 C   0  0  0  0  0  0  0  0  0  0  0  0
  -26.0230  -13.1840   20.1720 N   0  0  0  0  0  0  0  0  0  0  0  0
  -25.7730  -11.8670   20.3830 N   0  0  0  0  0  0  0  0  0  0  0  0
  -23.8990  -10.4740   20.9730 C   0  0  0  0  0  0  0  0  0  0  0  0
  -24.3680   -9.5610   21.9430 C   0  0  0  0  0  3  0  0  0  0  0  0
  -23.7480   -8.3030   22.1040 C   0  0  0  0  0  3  0  0  0  0  0  0
  -22.6440   -7.9490   21.2920 C   0  0  0  0  0  0  0  0  0  0  0  0
  -22.1940   -8.8520   20.3120 C   0  0  0  0  0  3  0  0  0  0  0  0
  -22.8170  -10.1010   20.1500 C   0  0  0  0  0  3  0  0  0  0  0  0
  -21.9930   -6.7410   21.3610 O   0  0  0  0  0  0  0  0  0  0  0  0
  -21.8390   -6.0720   22.5490 C   0  0  0  0  0  0  0  0  0  0  0  0
  -21.1410   -6.6410   23.6380 C   0  0  0  0  0  3  0  0  0  0  0  0
  -20.9440   -5.8920   24.8150 C   0  0  0  0  0  3  0  0  0  0  0  0
  -21.4350   -4.5760   24.9040 C   0  0  0  0  0  0  0  0  0  0  0  0
  -22.1250   -4.0060   23.8190 C   0  0  0  0  0  3  0  0  0  0  0  0
  -22.3230   -4.7520   22.6440 C   0  0  0  0  0  0  0  0  0  0  0  0
  -22.9700   -4.1910   21.5940 F   0  0  0  0  0  0  0  0  0  0  0  0
  -21.2410   -3.8530   26.0320 F   0  0  0  0  0  0  0  0  0  0  0  0
  -22.5690  -13.4610   21.3660 C   0  0  0  0  0  0  0  0  0  0  0  0
  -21.9750  -12.6730   22.2570 N   0  0  0  0  0  0  0  0  0  0  0  0
  -22.0120  -14.4710   20.9380 O   0  0  0  0  0  0  0  0  0  0  0  0
  -22.4390  -11.8540   22.6210 H   0  0  0  0  0  0  0  0  0  0  0  0
  -21.0430  -12.8940   22.5790 H   0  0  0  0  0  0  0  0  0  0  0  0
  -24.9980  -15.3590   20.4310 N   0  0  0  0  0  0  0  0  0  0  0  0
  -24.2040  -15.9520   20.6420 H   0  0  0  0  0  0  0  0  0  0  0  0
  -25.7930  -15.8730   20.0680 H   0  0  0  0  0  0  0  0  0  0  0  0
  -30.1820  -21.1890   19.8760 C   0  0  0  0  0  2  0  0  0  0  0  0
  -30.4270  -22.7100   19.7640 C   0  0  0  0  0  2  0  0  0  0  0  0
  -29.2260  -23.4980   19.2080 C   0  0  0  0  0  2  0  0  0  0  0  0
  -29.3880  -25.0310   19.3280 C   0  0  0  0  0  2  0  0  0  0  0  0
  -28.1130  -25.7910   18.9200 C   0  0  0  0  0  2  0  0  0  0  0  0
  -28.1780  -27.1790   19.2660 O   0  0  0  0  0  0  0  0  0  0  0  0
  -24.4570  -31.8340   23.1620 C   0  0  0  0  0  0  0  0  0  0  0  0
  -26.9760  -27.8430   19.4210 C   0  0  0  0  0  0  0  0  0  0  0  0
  -23.1610  -30.5490   21.4940 C   0  0  0  0  0  3  0  0  0  0  0  0
  -24.5350  -29.2310   19.8010 C   0  0  0  0  0  0  0  0  0  0  0  0
  -25.6450  -31.0390   21.1200 C   0  0  0  0  0  2  0  0  0  0  0  0
  -25.7220  -29.7440   20.3370 C   0  0  0  0  0  0  0  0  0  0  0  0
  -26.9440  -29.0580   20.1440 C   0  0  0  0  0  3  0  0  0  0  0  0
  -25.7630  -27.3490   18.8810 C   0  0  0  0  0  3  0  0  0  0  0  0
  -24.5500  -28.0320   19.0710 C   0  0  0  0  0  3  0  0  0  0  0  0
  -23.2700  -30.0220   20.0390 C   0  0  0  0  0  2  0  0  0  0  0  0
  -24.4440  -31.1500   21.9830 N   0  0  0  0  0  0  0  0  0  0  0  0
  -23.4180  -32.0030   23.8160 O   0  0  0  0  0  0  0  0  0  0  0  0
  -22.6370  -29.4070   22.3940 C   0  0  0  0  0  0  0  0  0  0  0  0
  -21.3380  -29.0910   22.2620 N   0  0  0  0  0  0  0  0  0  0  0  0
  -23.3930  -28.8120   23.1670 O   0  0  0  0  0  0  0  0  0  0  0  0
  -20.7840  -29.6310   21.6140 H   0  0  0  0  0  0  0  0  0  0  0  0
  -18.1390  -27.4510   22.6310 C   0  0  0  0  0  0  0  0  0  0  0  0
  -20.6350  -28.0260   22.9790 C   0  0  0  0  0  3  0  0  0  0  0  0
  -20.9360  -26.6430   22.3580 C   0  0  0  0  0  2  0  0  0  0  0  0
  -19.9080  -26.2180   21.3040 C   0  0  0  0  0  2  0  0  0  0  0  0
  -18.5060  -26.1600   21.9160 C   0  0  0  0  0  2  0  0  0  0  0  0
  -19.1400  -28.3340   23.1150 C   0  0  0  0  0  0  0  0  0  0  0  0
  -18.7470  -29.5370   23.7420 C   0  0  0  0  0  3  0  0  0  0  0  0
  -17.3850  -29.8610   23.8870 C   0  0  0  0  0  3  0  0  0  0  0  0
  -16.3980  -28.9740   23.4200 C   0  0  0  0  0  3  0  0  0  0  0  0
  -16.7770  -27.7710   22.7980 C   0  0  0  0  0  3  0  0  0  0  0  0
  -25.7700  -32.4570   23.7320 C   0  0  0  0  0  3  0  0  0  0  0  0
  -25.4610  -33.8320   24.1470 N   0  0  0  0  0  0  0  0  0  0  0  0
  -25.7620  -34.9260   23.4360 C   0  0  0  0  0  0  0  0  0  0  0  0
  -26.4020  -34.8860   22.3820 O   0  0  0  0  0  0  0  0  0  0  0  0
  -24.8890  -33.9370   24.9720 H   0  0  0  0  0  0  0  0  0  0  0  0
  -24.0340  -36.7370   23.2010 C   0  0  0  0  0  1  0  0  0  0  0  0
  -25.2770  -36.2830   23.9820 C   0  0  0  0  0  3  0  0  0  0  0  0
  -27.4070  -37.1200   24.8720 C   0  0  0  0  0  1  0  0  0  0  0  0
  -26.3110  -37.3400   23.9320 N   0  0  0  0  0  0  0  0  0  0  0  0
  -25.9040  -38.2520   24.1270 H   0  0  0  0  0  0  0  0  0  0  0  0
  -26.3790  -31.6330   24.9330 C   0  0  1  0  0  0  0  0  0  0  0  0
  -25.3520  -31.2950   26.0380 C   0  0  0  0  0  1  0  0  0  0  0  0
  -26.9860  -30.3040   24.4280 C   0  0  0  0  0  1  0  0  0  0  0  0
  -27.5340  -32.4300   25.5820 C   0  0  0  0  0  1  0  0  0  0  0  0
  1  2  1  0
  1  6  1  0
  3  4  1  0
  5  6  1  0
  5  7  2  0
  6  3  2  0
  7  8  1  0
  8  4  2  0
  8  9  1  0
 10 18  1  0
 11 16  1  0
 12 13  1  0
 12 11  1  0
 14 13  1  0
 14 23  1  0
 14 15  1  0
 16 10  1  0
 16 15  1  0
 17 10  2  0
 18 19  1  0
 18  7  1  0
 20 21  2  0
 21 40  1  0
 22 21  1  0
 22 25  1  0
 23 24  1  0
 23 20  1  0
 24 22  2  0
 25 26  1  0
 26 27  2  0
 28 31  1  0
 28 27  1  0
 29 28  2  0
 30 29  1  0
 30 25  2  0
 31 32  1  0
 32 37  2  0
 32 33  1  0
 33 34  2  0
 34 35  1  0
 35 39  1  0
 36 35  2  0
 37 36  1  0
 38 37  1  0
 40 41  1  0
 41 44  1  0
 41 43  1  0
 42 40  2  0
 45 20  1  0
 45 46  1  0
 47 45  1  0
 48  1  1  0
 49 48  1  0
 50 51  1  0
 50 49  1  0
 52 53  1  0
 52 51  1  0
 53 55  1  0
 54 65  2  0
 55 60  1  0
 56 64  1  0
 56 66  1  0
 57 63  1  0
 57 59  1  0
 58 64  1  0
 59 58  1  0
 60 59  2  0
 61 62  1  0
 61 55  2  0
 62 57  2  0
 63 56  1  0
 64 54  1  0
 66 68  2  0
 67 66  1  0
 69 67  1  0
 70 79  2  0
 70 75  1  0
 71 67  1  0
 71 75  1  0
 72 71  1  0
 73 74  1  0
 73 72  1  0
 74 70  1  0
 75 76  2  0
 76 77  1  0
 78 77  2  0
 79 78  1  0
 80 54  1  0
 80 81  1  0
 80 90  1  0
 81 84  1  0
 82 86  1  0
 82 81  1  0
 83 82  2  0
 86 85  1  0
 88 86  1  0
 88 89  1  0
 88 87  1  0
 90 93  1  1
 90 91  1  0
 92 90  1  0
M  ISO  4  10 100  18 100  52 101  53 101
M  END
>  <TORSDO>  (84) 
F 22

>  <SCORE>  (84) 
-10.232

>  <name>  (84) 
83

>  <ligand_id>  (84) 
83

>  <original_smiles>  (84) 
[H]c1c([H])c([H])c2c(c1[H])C([H])([H])C([H])([H])C([H])([H])C2([H])N([H])C(=O)C1([H])N(C(=O)C([H])(N([H])C(=O)C([H])(N([H])C([H])([H])[H])C([H])([H])[H])C(C([H])([H])[H])(C([H])([H])[H])C([H])([H])[H])C([H])([H])c2c([H])c(OC([H])([H])C([H])([H])C([H])([H])C([H])([H])C([H])([H])N([H])c3c([H])c([H])c(F)c(N([H])C(=O)N4C([H])([H])C([H])([H])C([H])([H])C([H])(n5nc(-c6c([H])c([H])c(Oc7c([H])c([H])c(F)c([H])c7F)c([H])c6[H])c(C(=O)N([H])[H])c5N([H])[H])C4([H])[H])c3[H])c([H])c([H])c2C1([H])[H]

>  <smiles>  (84) 
[H]c1c([H])c([H])c2c(c1[H])C([H])([H])C([H])([H])C([H])([H])C2([H])N([H])C(=O)C1([H])N(C(=O)C([H])(N([H])C(=O)C([H])(N([H])C([H])([H])[H])C([H])([H])[H])C(C([H])([H])[H])(C([H])([H])[H])C([H])([H])[H])C([H])([H])c2c([H])c(OC([H])([H])C([H])([H])C([H])([H])C([H])([H])C([H])([H])N([H])c3c([H])c([H])c(F)c(N([H])C(=O)N4C([H])([H])C([H])([H])C([H])([H])C([H])(n5nc(-c6c([H])c([H])c(Oc7c([H])c([H])c(F)c([H])c7F)c([H])c6[H])c(C(=O)N([H])[H])c5N([H])[H])C4([H])[H])c3[H])c([H])c([H])c2C1([H])[H]

$$$$
84:0:0
     RDKit          3D

 99108  0  0  1  0  0  0  0  0999 V2000
  -30.5270  -15.1100   20.3850 C   0  0  0  0  0  0  0  0  0  0  0  0
  -30.4270  -12.7030   19.5040 C   0  0  0  0  0  2  0  0  0  0  0  0
  -29.5200  -12.5510   18.2620 C   0  0  0  0  0  2  0  0  0  0  0  0
  -28.0600  -12.3100   18.6860 C   0  0  0  0  0  2  0  0  0  0  0  0
  -27.6130  -13.2670   19.8210 C   0  0  0  0  0  3  0  0  0  0  0  0
  -28.6530  -13.3980   20.9530 C   0  0  0  0  0  2  0  0  0  0  0  0
  -29.9020  -13.8470   20.3240 N   0  0  0  0  0  0  0  0  0  0  0  0
  -31.7500  -15.0720   20.2020 O   0  0  0  0  0  0  0  0  0  0  0  0
  -29.0660  -17.1730   19.5010 C   0  0  0  0  0  2  0  0  0  0  0  0
  -30.4560  -17.5830   21.3260 C   0  0  0  0  0  2  0  0  0  0  0  0
  -28.3180  -18.6140   19.8160 C   0  0  0  0  0  2  0  0  0  0  0  0
  -30.3640  -19.2090   20.9280 C   0  0  0  0  0  3  0  0  0  0  0  0
  -29.8620  -16.4090   20.5410 N   0  0  0  0  0  0  0  0  0  0  0  0
  -29.0280  -19.8050   20.4820 N   0  0  1  0  0  4  0  0  0  0  0  0
  -28.5740  -19.9050   21.3800 H   0  0  0  0  0  0  0  0  0  0  0  0
  -25.2400  -13.8250   20.5730 C   0  0  0  0  0  0  0  0  0  0  0  0
  -24.1740  -13.0450   20.9230 C   0  0  0  0  0  0  0  0  0  0  0  0
  -24.6380  -11.6940   20.8760 C   0  0  0  0  0  0  0  0  0  0  0  0
  -26.2820  -12.9500   20.3220 N   0  0  0  0  0  0  0  0  0  0  0  0
  -25.9310  -11.6620   20.5730 N   0  0  0  0  0  0  0  0  0  0  0  0
  -23.9070  -10.4300   21.0410 C   0  0  0  0  0  0  0  0  0  0  0  0
  -24.3620   -9.4210   21.9190 C   0  0  0  0  0  3  0  0  0  0  0  0
  -23.6300   -8.2240   22.0760 C   0  0  0  0  0  3  0  0  0  0  0  0
  -22.4280   -8.0280   21.3540 C   0  0  0  0  0  0  0  0  0  0  0  0
  -21.9920   -9.0250   20.4650 C   0  0  0  0  0  3  0  0  0  0  0  0
  -22.7250  -10.2130   20.3060 C   0  0  0  0  0  3  0  0  0  0  0  0
  -21.6640   -6.8880   21.4240 O   0  0  0  0  0  0  0  0  0  0  0  0
  -21.6850   -6.0740   22.5280 C   0  0  0  0  0  0  0  0  0  0  0  0
  -21.4020   -6.5650   23.8210 C   0  0  0  0  0  3  0  0  0  0  0  0
  -21.3660   -5.6800   24.9180 C   0  0  0  0  0  3  0  0  0  0  0  0
  -21.6050   -4.3060   24.7220 C   0  0  0  0  0  0  0  0  0  0  0  0
  -21.8820   -3.8160   23.4340 C   0  0  0  0  0  3  0  0  0  0  0  0
  -21.9190   -4.6970   22.3400 C   0  0  0  0  0  0  0  0  0  0  0  0
  -22.1650   -4.2150   21.0980 F   0  0  0  0  0  0  0  0  0  0  0  0
  -21.5630   -3.4540   25.7740 F   0  0  0  0  0  0  0  0  0  0  0  0
  -22.7760  -13.5200   21.1890 C   0  0  0  0  0  0  0  0  0  0  0  0
  -22.0410  -12.8180   22.0450 N   0  0  0  0  0  0  0  0  0  0  0  0
  -22.3430  -14.5500   20.6740 O   0  0  0  0  0  0  0  0  0  0  0  0
  -22.4030  -11.9840   22.4820 H   0  0  0  0  0  0  0  0  0  0  0  0
  -21.1030  -13.1200   22.2660 H   0  0  0  0  0  0  0  0  0  0  0  0
  -25.4090  -15.1980   20.4190 N   0  0  0  0  0  0  0  0  0  0  0  0
  -24.6490  -15.8570   20.5390 H   0  0  0  0  0  0  0  0  0  0  0  0
  -26.2710  -15.6330   20.1210 H   0  0  0  0  0  0  0  0  0  0  0  0
  -30.8030  -19.9660   22.1950 C   0  0  0  0  0  0  0  0  0  0  0  0
  -32.0550  -19.7500   22.6360 N   0  0  0  0  0  0  0  0  0  0  0  0
  -30.0000  -20.7160   22.7610 O   0  0  0  0  0  0  0  0  0  0  0  0
  -32.6890  -19.2870   21.9980 H   0  0  0  0  0  0  0  0  0  0  0  0
  -32.3540  -20.3170   26.3530 C   0  0  0  0  0  3  0  0  0  0  0  0
  -31.7760  -20.1660   25.0800 C   0  0  0  0  0  3  0  0  0  0  0  0
  -34.5700  -20.0920   25.3710 C   0  0  0  0  0  3  0  0  0  0  0  0
  -33.7530  -20.2850   26.5040 C   0  0  0  0  0  0  0  0  0  0  0  0
  -32.5900  -19.9840   23.9340 C   0  0  0  0  0  0  0  0  0  0  0  0
  -33.9950  -19.9380   24.0940 C   0  0  0  0  0  0  0  0  0  0  0  0
  -34.3700  -20.4450   27.8790 C   0  0  0  0  0  1  0  0  0  0  0  0
  -35.0250  -19.6720   22.7300 Cl  0  0  0  0  0  0  0  0  0  0  0  0
  -28.8210  -21.3080   19.8360 C   0  0  0  0  0  2  0  0  0  0  0  0
  -28.7490  -22.9070   20.5580 C   0  0  0  0  0  3  0  0  0  0  0  0
  -28.0790  -24.3980   19.9090 C   0  0  0  0  0  3  0  0  0  0  0  0
  -28.2350  -25.9600   20.2810 O   0  0  0  0  0  0  0  0  0  0  0  0
  -24.6550  -31.8320   23.1770 C   0  0  0  0  0  0  0  0  0  0  0  0
  -27.2160  -27.0150   20.1680 C   0  0  0  0  0  0  0  0  0  0  0  0
  -23.4650  -30.4470   21.5250 C   0  0  0  0  0  3  0  0  0  0  0  0
  -24.9160  -28.8510   20.1080 C   0  0  0  0  0  0  0  0  0  0  0  0
  -26.0270  -30.6660   21.3950 C   0  0  0  0  0  2  0  0  0  0  0  0
  -26.0960  -29.2650   20.7380 C   0  0  0  0  0  0  0  0  0  0  0  0
  -27.2400  -28.3640   20.7500 C   0  0  0  0  0  3  0  0  0  0  0  0
  -26.0150  -26.7400   19.4760 C   0  0  0  0  0  3  0  0  0  0  0  0
  -24.8960  -27.6070   19.4590 C   0  0  0  0  0  3  0  0  0  0  0  0
  -23.6970  -29.7660   20.1480 C   0  0  0  0  0  2  0  0  0  0  0  0
  -24.7360  -31.0070   22.0860 N   0  0  0  0  0  0  0  0  0  0  0  0
  -23.5640  -32.1240   23.6930 O   0  0  0  0  0  0  0  0  0  0  0  0
  -22.7620  -29.4500   22.4820 C   0  0  0  0  0  0  0  0  0  0  0  0
  -21.4300  -29.3050   22.3560 N   0  0  0  0  0  0  0  0  0  0  0  0
  -23.4210  -28.8070   23.3030 O   0  0  0  0  0  0  0  0  0  0  0  0
  -20.9530  -29.8730   21.6700 H   0  0  0  0  0  0  0  0  0  0  0  0
  -18.0310  -28.1400   22.8460 C   0  0  0  0  0  0  0  0  0  0  0  0
  -20.5930  -28.3740   23.1200 C   0  0  0  0  0  3  0  0  0  0  0  0
  -20.6790  -26.9430   22.5400 C   0  0  0  0  0  2  0  0  0  0  0  0
  -19.5760  -26.6380   21.5200 C   0  0  0  0  0  2  0  0  0  0  0  0
  -18.1950  -26.7940   22.1610 C   0  0  0  0  0  2  0  0  0  0  0  0
  -19.1570  -28.8890   23.2820 C   0  0  0  0  0  0  0  0  0  0  0  0
  -18.9480  -30.1480   23.8850 C   0  0  0  0  0  3  0  0  0  0  0  0
  -17.6480  -30.6590   24.0550 C   0  0  0  0  0  3  0  0  0  0  0  0
  -16.5370  -29.9080   23.6350 C   0  0  0  0  0  3  0  0  0  0  0  0
  -16.7290  -28.6500   23.0360 C   0  0  0  0  0  3  0  0  0  0  0  0
  -25.9280  -32.4620   23.8200 C   0  0  0  0  0  3  0  0  0  0  0  0
  -26.4560  -31.6540   25.0700 C   0  0  1  0  0  0  0  0  0  0  0  0
  -25.3720  -31.3750   26.1380 C   0  0  0  0  0  1  0  0  0  0  0  0
  -27.0460  -30.2910   24.6390 C   0  0  0  0  0  1  0  0  0  0  0  0
  -27.6080  -32.4320   25.7490 C   0  0  0  0  0  1  0  0  0  0  0  0
  -25.5990  -33.8430   24.2120 N   0  0  0  0  0  0  0  0  0  0  0  0
  -25.9100  -34.9370   23.5030 C   0  0  0  0  0  0  0  0  0  0  0  0
  -26.5680  -34.8890   22.4600 O   0  0  0  0  0  0  0  0  0  0  0  0
  -25.0120  -33.9520   25.0260 H   0  0  0  0  0  0  0  0  0  0  0  0
  -24.1500  -36.7220   23.2650 C   0  0  0  0  0  1  0  0  0  0  0  0
  -25.4130  -36.2980   24.0310 C   0  0  0  0  0  3  0  0  0  0  0  0
  -27.5570  -37.1760   24.8460 C   0  0  0  0  0  1  0  0  0  0  0  0
  -26.4270  -37.3710   23.9420 N   0  0  0  0  0  0  0  0  0  0  0  0
  -26.0110  -38.2770   24.1420 H   0  0  0  0  0  0  0  0  0  0  0  0
  1 13  1  0
  2  7  1  0
  3  4  1  0
  3  2  1  0
  5  4  1  0
  5 19  1  0
  5  6  1  0
  7  1  1  0
  7  6  1  0
  8  1  2  0
  9 11  1  0
  9 13  1  0
 11 14  1  0
 12 10  1  0
 12 44  1  0
 13 10  1  0
 14 12  1  0
 14 15  1  1
 16 17  2  0
 17 36  1  0
 18 17  1  0
 18 21  1  0
 19 16  1  0
 19 20  1  0
 20 18  2  0
 21 22  1  0
 22 23  2  0
 24 27  1  0
 24 23  1  0
 25 24  2  0
 26 25  1  0
 26 21  2  0
 27 28  1  0
 28 29  1  0
 29 30  2  0
 31 30  1  0
 31 35  1  0
 32 31  2  0
 33 28  2  0
 33 32  1  0
 34 33  1  0
 36 37  1  0
 37 40  1  0
 37 39  1  0
 38 36  2  0
 41 42  1  0
 41 16  1  0
 43 41  1  0
 44 45  1  0
 44 46  2  0
 45 52  1  0
 47 45  1  0
 48 51  1  0
 49 48  2  0
 50 51  2  0
 51 54  1  0
 52 53  2  0
 52 49  1  0
 53 50  1  0
 55 53  1  0
 56 14  1  0
 56 57  1  0
 58 59  1  0
 58 57  2  0
 60 71  2  0
 61 59  1  0
 61 66  1  0
 62 70  1  0
 62 72  1  0
 63 69  1  0
 63 65  1  0
 64 70  1  0
 65 66  2  0
 65 64  1  0
 67 61  2  0
 68 67  1  0
 68 63  2  0
 69 62  1  0
 70 60  1  0
 72 74  2  0
 73 72  1  0
 75 73  1  0
 76 85  2  0
 76 81  1  0
 77 73  1  0
 77 81  1  0
 78 77  1  0
 79 80  1  0
 79 78  1  0
 80 76  1  0
 81 82  2  0
 82 83  1  0
 84 83  2  0
 85 84  1  0
 86 60  1  0
 86 91  1  0
 86 87  1  0
 87 90  1  1
 87 88  1  0
 89 87  1  0
 91 94  1  0
 92 96  1  0
 92 91  1  0
 93 92  2  0
 96 95  1  0
 98 96  1  0
 98 99  1  0
 98 97  1  0
M  ISO  4   1 100  13 100  58 101  59 101
M  END
>  <TORSDO>  (85) 
F 20

>  <SCORE>  (85) 
22.448

>  <name>  (85) 
84

>  <ligand_id>  (85) 
84

>  <original_smiles>  (85) 
[H]c1c([H])c([H])c2c(c1[H])C([H])([H])C([H])([H])C([H])([H])C2([H])N([H])C(=O)C1([H])N(C(=O)C([H])(N([H])C(=O)C([H])(N([H])C([H])([H])[H])C([H])([H])[H])C(C([H])([H])[H])(C([H])([H])[H])C([H])([H])[H])C([H])([H])c2c([H])c(OC([H])([H])C([H])([H])C([H])([H])[N+]3([H])C([H])([H])C([H])([H])N(C(=O)N4C([H])([H])C([H])([H])C([H])([H])C([H])(n5nc(-c6c([H])c([H])c(Oc7c([H])c([H])c(F)c([H])c7F)c([H])c6[H])c(C(=O)N([H])[H])c5N([H])[H])C4([H])[H])C([H])([H])C3([H])C(=O)N([H])c3c([H])c([H])c(C([H])([H])[H])c([H])c3Cl)c([H])c([H])c2C1([H])[H]

>  <smiles>  (85) 
[H]c1c([H])c([H])c2c(c1[H])C([H])([H])C([H])([H])C([H])([H])C2([H])N([H])C(=O)C1([H])N(C(=O)C([H])(N([H])C(=O)C([H])(N([H])C([H])([H])[H])C([H])([H])[H])C(C([H])([H])[H])(C([H])([H])[H])C([H])([H])[H])C([H])([H])c2c([H])c(OC([H])([H])C([H])([H])C([H])([H])[N+]3([H])C([H])([H])C([H])([H])N(C(=O)N4C([H])([H])C([H])([H])C([H])([H])C([H])(n5nc(-c6c([H])c([H])c(Oc7c([H])c([H])c(F)c([H])c7F)c([H])c6[H])c(C(=O)N([H])[H])c5N([H])[H])C4([H])[H])C([H])([H])C3([H])C(=O)N([H])c3c([H])c([H])c(C([H])([H])[H])c([H])c3Cl)c([H])c([H])c2C1([H])[H]

$$$$
85:0:0
     RDKit          3D

 91 99  0  0  1  0  0  0  0  0999 V2000
  -29.1430  -23.4200   20.0260 C   0  0  0  0  0  0  0  0  0  0  0  0
  -28.7080  -22.0890   19.8110 N   0  0  0  0  0  0  0  0  0  0  0  0
  -30.2410  -23.6400   20.5460 O   0  0  0  0  0  0  0  0  0  0  0  0
  -27.7670  -22.1200   19.4410 H   0  0  0  0  0  0  0  0  0  0  0  0
  -30.7810  -18.6320   20.1680 C   0  0  0  0  0  3  0  0  0  0  0  0
  -30.4890  -20.0690   20.0940 C   0  0  0  0  0  3  0  0  0  0  0  0
  -28.4720  -18.1800   20.1090 C   0  0  0  0  0  3  0  0  0  0  0  0
  -28.1720  -19.5930   20.0280 C   0  0  0  0  0  0  0  0  0  0  0  0
  -29.7750  -17.5980   20.1750 C   0  0  0  0  0  0  0  0  0  0  0  0
  -29.1610  -20.6350   20.0120 C   0  0  0  0  0  0  0  0  0  0  0  0
  -26.7020  -19.9760   19.9490 C   0  0  0  0  0  1  0  0  0  0  0  0
  -30.7210  -14.9910   19.8970 C   0  0  0  0  0  0  0  0  0  0  0  0
  -30.5690  -12.6710   18.8890 C   0  0  0  0  0  2  0  0  0  0  0  0
  -29.5390  -12.6790   17.7340 C   0  0  0  0  0  2  0  0  0  0  0  0
  -28.1090  -12.4580   18.2650 C   0  0  0  0  0  2  0  0  0  0  0  0
  -27.7960  -13.3410   19.5000 C   0  0  0  0  0  3  0  0  0  0  0  0
  -28.9310  -13.2850   20.5450 C   0  0  0  0  0  2  0  0  0  0  0  0
  -30.1670  -13.7150   19.8700 N   0  0  0  0  0  0  0  0  0  0  0  0
  -31.8820  -15.1340   19.4940 O   0  0  0  0  0  0  0  0  0  0  0  0
  -29.8690  -16.0690   20.2260 N   0  0  0  0  0  0  0  0  0  0  0  0
  -29.0000  -15.6690   20.5460 H   0  0  0  0  0  0  0  0  0  0  0  0
  -25.4830  -13.9090   20.4480 C   0  0  0  0  0  0  0  0  0  0  0  0
  -24.4410  -13.1260   20.8620 C   0  0  0  0  0  0  0  0  0  0  0  0
  -24.8840  -11.7740   20.7250 C   0  0  0  0  0  0  0  0  0  0  0  0
  -26.4930  -13.0340   20.0830 N   0  0  0  0  0  0  0  0  0  0  0  0
  -26.1460  -11.7410   20.3130 N   0  0  0  0  0  0  0  0  0  0  0  0
  -24.1580  -10.5090   20.9060 C   0  0  0  0  0  0  0  0  0  0  0  0
  -24.5550   -9.5610   21.8740 C   0  0  0  0  0  3  0  0  0  0  0  0
  -23.8270   -8.3620   22.0420 C   0  0  0  0  0  3  0  0  0  0  0  0
  -22.6910   -8.1030   21.2400 C   0  0  0  0  0  0  0  0  0  0  0  0
  -22.3140   -9.0400   20.2610 C   0  0  0  0  0  3  0  0  0  0  0  0
  -23.0420  -10.2290   20.0920 C   0  0  0  0  0  3  0  0  0  0  0  0
  -21.9420   -6.9530   21.3140 O   0  0  0  0  0  0  0  0  0  0  0  0
  -21.7050   -6.3250   22.5100 C   0  0  0  0  0  0  0  0  0  0  0  0
  -21.0450   -6.9740   23.5760 C   0  0  0  0  0  3  0  0  0  0  0  0
  -20.7600   -6.2690   24.7630 C   0  0  0  0  0  3  0  0  0  0  0  0
  -21.1240   -4.9140   24.8820 C   0  0  0  0  0  0  0  0  0  0  0  0
  -21.7760   -4.2640   23.8200 C   0  0  0  0  0  3  0  0  0  0  0  0
  -22.0620   -4.9660   22.6360 C   0  0  0  0  0  0  0  0  0  0  0  0
  -22.6710   -4.3290   21.6070 F   0  0  0  0  0  0  0  0  0  0  0  0
  -20.8440   -4.2340   26.0180 F   0  0  0  0  0  0  0  0  0  0  0  0
  -23.0730  -13.6000   21.2610 C   0  0  0  0  0  0  0  0  0  0  0  0
  -22.4120  -12.8800   22.1600 N   0  0  0  0  0  0  0  0  0  0  0  0
  -22.6020  -14.6430   20.8100 O   0  0  0  0  0  0  0  0  0  0  0  0
  -22.8070  -12.0350   22.5460 H   0  0  0  0  0  0  0  0  0  0  0  0
  -21.4990  -13.1800   22.4710 H   0  0  0  0  0  0  0  0  0  0  0  0
  -25.6490  -15.2850   20.3250 N   0  0  0  0  0  0  0  0  0  0  0  0
  -24.8910  -15.9320   20.5150 H   0  0  0  0  0  0  0  0  0  0  0  0
  -26.4340  -15.7250   19.8640 H   0  0  0  0  0  0  0  0  0  0  0  0
  -28.2030  -24.7110   19.5760 C   0  0  0  0  0  2  0  0  0  0  0  0
  -28.4740  -26.2070   19.9230 O   0  0  0  0  0  0  0  0  0  0  0  0
  -24.5850  -31.6280   23.0850 C   0  0  0  0  0  0  0  0  0  0  0  0
  -27.3870  -27.1590   19.8860 C   0  0  0  0  0  0  0  0  0  0  0  0
  -23.4600  -30.2560   21.3750 C   0  0  0  0  0  3  0  0  0  0  0  0
  -24.9870  -28.8070   19.9040 C   0  0  0  0  0  0  0  0  0  0  0  0
  -26.0040  -30.6310   21.2540 C   0  0  0  0  0  2  0  0  0  0  0  0
  -26.1410  -29.2730   20.5440 C   0  0  0  0  0  0  0  0  0  0  0  0
  -27.3420  -28.4670   20.5200 C   0  0  0  0  0  3  0  0  0  0  0  0
  -26.1980  -26.7990   19.2100 C   0  0  0  0  0  3  0  0  0  0  0  0
  -25.0270  -27.5840   19.2220 C   0  0  0  0  0  3  0  0  0  0  0  0
  -23.7230  -29.6500   19.9720 C   0  0  0  0  0  2  0  0  0  0  0  0
  -24.7010  -30.8600   21.9600 N   0  0  0  0  0  0  0  0  0  0  0  0
  -23.4830  -31.8470   23.6110 O   0  0  0  0  0  0  0  0  0  0  0  0
  -22.8140  -29.1810   22.2860 C   0  0  0  0  0  0  0  0  0  0  0  0
  -21.4930  -28.9710   22.1450 N   0  0  0  0  0  0  0  0  0  0  0  0
  -23.5030  -28.5420   23.0840 O   0  0  0  0  0  0  0  0  0  0  0  0
  -20.9910  -29.5420   21.4790 H   0  0  0  0  0  0  0  0  0  0  0  0
  -18.1410  -27.6830   22.6330 C   0  0  0  0  0  0  0  0  0  0  0  0
  -20.7010  -27.9730   22.8710 C   0  0  0  0  0  3  0  0  0  0  0  0
  -20.8140  -26.5810   22.2060 C   0  0  0  0  0  2  0  0  0  0  0  0
  -19.6990  -26.3040   21.1930 C   0  0  0  0  0  2  0  0  0  0  0  0
  -18.3280  -26.3820   21.8700 C   0  0  0  0  0  2  0  0  0  0  0  0
  -19.2550  -28.4370   23.0900 C   0  0  0  0  0  0  0  0  0  0  0  0
  -19.0250  -29.6540   23.7670 C   0  0  0  0  0  3  0  0  0  0  0  0
  -17.7140  -30.1170   23.9910 C   0  0  0  0  0  3  0  0  0  0  0  0
  -16.6160  -29.3600   23.5470 C   0  0  0  0  0  3  0  0  0  0  0  0
  -16.8310  -28.1440   22.8740 C   0  0  0  0  0  3  0  0  0  0  0  0
  -25.8300  -32.2890   23.7520 C   0  0  0  0  0  3  0  0  0  0  0  0
  -25.4770  -33.6780   24.0830 N   0  0  0  0  0  0  0  0  0  0  0  0
  -25.7750  -34.7430   23.3270 C   0  0  0  0  0  0  0  0  0  0  0  0
  -26.4440  -34.6610   22.2930 O   0  0  0  0  0  0  0  0  0  0  0  0
  -24.8810  -33.8130   24.8870 H   0  0  0  0  0  0  0  0  0  0  0  0
  -23.9780  -36.4770   23.0060 C   0  0  0  0  0  1  0  0  0  0  0  0
  -25.2500  -36.1170   23.7900 C   0  0  0  0  0  3  0  0  0  0  0  0
  -27.3620  -37.0910   24.5790 C   0  0  0  0  0  1  0  0  0  0  0  0
  -26.2440  -37.2040   23.6470 N   0  0  0  0  0  0  0  0  0  0  0  0
  -25.8060  -38.1120   23.7850 H   0  0  0  0  0  0  0  0  0  0  0  0
  -26.3190  -31.5230   25.0440 C   0  0  1  0  0  0  0  0  0  0  0  0
  -25.1960  -31.2590   26.0750 C   0  0  0  0  0  1  0  0  0  0  0  0
  -26.9440  -30.1590   24.6730 C   0  0  0  0  0  1  0  0  0  0  0  0
  -27.4290  -32.3400   25.7470 C   0  0  0  0  0  1  0  0  0  0  0  0
  1  3  2  0
  2 10  1  0
  2  1  1  0
  4  2  1  0
  5  9  1  0
  6  5  2  0
  7  9  2  0
  8  7  1  0
  9 20  1  0
 10  8  2  0
 10  6  1  0
 11  8  1  0
 12 20  1  0
 13 18  1  0
 14 15  1  0
 14 13  1  0
 16 15  1  0
 16 25  1  0
 16 17  1  0
 18 12  1  0
 18 17  1  0
 19 12  2  0
 20 21  1  0
 22 23  2  0
 23 42  1  0
 24 23  1  0
 24 27  1  0
 25 26  1  0
 25 22  1  0
 26 24  2  0
 27 28  1  0
 28 29  2  0
 30 33  1  0
 30 29  1  0
 31 30  2  0
 32 31  1  0
 32 27  2  0
 33 34  1  0
 34 39  2  0
 34 35  1  0
 35 36  2  0
 36 37  1  0
 37 41  1  0
 38 37  2  0
 39 38  1  0
 40 39  1  0
 42 43  1  0
 43 46  1  0
 43 45  1  0
 44 42  2  0
 47 22  1  0
 47 48  1  0
 49 47  1  0
 50 51  1  0
 50  1  1  0
 52 63  2  0
 53 51  1  0
 53 58  1  0
 54 62  1  0
 54 64  1  0
 55 61  1  0
 55 57  1  0
 56 62  1  0
 57 56  1  0
 58 57  2  0
 59 60  1  0
 59 53  2  0
 60 55  2  0
 61 54  1  0
 62 52  1  0
 64 66  2  0
 65 64  1  0
 67 65  1  0
 68 77  2  0
 68 73  1  0
 69 65  1  0
 69 73  1  0
 70 69  1  0
 71 72  1  0
 71 70  1  0
 72 68  1  0
 73 74  2  0
 74 75  1  0
 76 75  2  0
 77 76  1  0
 78 52  1  0
 78 79  1  0
 78 88  1  0
 79 82  1  0
 80 84  1  0
 80 79  1  0
 81 80  2  0
 84 83  1  0
 86 87  1  0
 86 84  1  0
 86 85  1  0
 88 91  1  1
 88 89  1  0
 90 88  1  0
M  ISO  4  12 100  20 100  50 101  51 101
M  END
>  <TORSDO>  (86) 
F 18

>  <SCORE>  (86) 
-12.932

>  <name>  (86) 
85

>  <ligand_id>  (86) 
85

>  <original_smiles>  (86) 
[H]c1c([H])c([H])c2c(c1[H])C([H])([H])C([H])([H])C([H])([H])C2([H])N([H])C(=O)C1([H])N(C(=O)C([H])(N([H])C(=O)C([H])(N([H])C([H])([H])[H])C([H])([H])[H])C(C([H])([H])[H])(C([H])([H])[H])C([H])([H])[H])C([H])([H])c2c([H])c(OC([H])([H])C(=O)N([H])c3c([H])c([H])c(N([H])C(=O)N4C([H])([H])C([H])([H])C([H])([H])C([H])(n5nc(-c6c([H])c([H])c(Oc7c([H])c([H])c(F)c([H])c7F)c([H])c6[H])c(C(=O)N([H])[H])c5N([H])[H])C4([H])[H])c([H])c3C([H])([H])[H])c([H])c([H])c2C1([H])[H]

>  <smiles>  (86) 
[H]c1c([H])c([H])c2c(c1[H])C([H])([H])C([H])([H])C([H])([H])C2([H])N([H])C(=O)C1([H])N(C(=O)C([H])(N([H])C(=O)C([H])(N([H])C([H])([H])[H])C([H])([H])[H])C(C([H])([H])[H])(C([H])([H])[H])C([H])([H])[H])C([H])([H])c2c([H])c(OC([H])([H])C(=O)N([H])c3c([H])c([H])c(N([H])C(=O)N4C([H])([H])C([H])([H])C([H])([H])C([H])(n5nc(-c6c([H])c([H])c(Oc7c([H])c([H])c(F)c([H])c7F)c([H])c6[H])c(C(=O)N([H])[H])c5N([H])[H])C4([H])[H])c([H])c3C([H])([H])[H])c([H])c([H])c2C1([H])[H]

$$$$
86:0:0
     RDKit          3D

 91 99  0  0  1  0  0  0  0  0999 V2000
  -28.9840  -23.4060   20.2160 C   0  0  0  0  0  0  0  0  0  0  0  0
  -28.5330  -22.0740   20.0580 N   0  0  0  0  0  0  0  0  0  0  0  0
  -30.1440  -23.6320   20.5700 O   0  0  0  0  0  0  0  0  0  0  0  0
  -27.5480  -22.0810   19.8230 H   0  0  0  0  0  0  0  0  0  0  0  0
  -30.6150  -18.6040   20.2960 C   0  0  0  0  0  3  0  0  0  0  0  0
  -30.3410  -20.0470   20.2500 C   0  0  0  0  0  3  0  0  0  0  0  0
  -28.2990  -18.1820   20.2110 C   0  0  0  0  0  3  0  0  0  0  0  0
  -29.5970  -17.5800   20.2820 C   0  0  0  0  0  0  0  0  0  0  0  0
  -29.0190  -20.6250   20.1720 C   0  0  0  0  0  0  0  0  0  0  0  0
  -28.0240  -19.5980   20.1470 C   0  0  0  0  0  0  0  0  0  0  0  0
  -26.7300  -19.9890   20.0570 F   0  0  0  0  0  0  0  0  0  0  0  0
  -30.5510  -14.9620   20.1150 C   0  0  0  0  0  0  0  0  0  0  0  0
  -30.4380  -12.6340   19.1180 C   0  0  0  0  0  2  0  0  0  0  0  0
  -29.4590  -12.6410   17.9190 C   0  0  0  0  0  2  0  0  0  0  0  0
  -28.0060  -12.4260   18.3900 C   0  0  0  0  0  2  0  0  0  0  0  0
  -27.6440  -13.3100   19.6110 C   0  0  0  0  0  3  0  0  0  0  0  0
  -28.7370  -13.2580   20.7010 C   0  0  0  0  0  2  0  0  0  0  0  0
  -29.9960  -13.6850   20.0730 N   0  0  0  0  0  0  0  0  0  0  0  0
  -31.7310  -15.0980   19.7720 O   0  0  0  0  0  0  0  0  0  0  0  0
  -29.6790  -16.0480   20.3690 N   0  0  0  0  0  0  0  0  0  0  0  0
  -28.7830  -15.6540   20.6080 H   0  0  0  0  0  0  0  0  0  0  0  0
  -25.2800  -13.8790   20.4200 C   0  0  0  0  0  0  0  0  0  0  0  0
  -24.2290  -13.0980   20.8130 C   0  0  0  0  0  0  0  0  0  0  0  0
  -24.6940  -11.7480   20.7490 C   0  0  0  0  0  0  0  0  0  0  0  0
  -26.3180  -13.0050   20.1380 N   0  0  0  0  0  0  0  0  0  0  0  0
  -25.9750  -11.7180   20.4010 N   0  0  0  0  0  0  0  0  0  0  0  0
  -23.9740  -10.4820   20.9410 C   0  0  0  0  0  0  0  0  0  0  0  0
  -24.4040   -9.5240   21.8840 C   0  0  0  0  0  3  0  0  0  0  0  0
  -23.6830   -8.3230   22.0640 C   0  0  0  0  0  3  0  0  0  0  0  0
  -22.5180   -8.0720   21.3000 C   0  0  0  0  0  0  0  0  0  0  0  0
  -22.1080   -9.0210   20.3460 C   0  0  0  0  0  3  0  0  0  0  0  0
  -22.8300  -10.2120   20.1650 C   0  0  0  0  0  3  0  0  0  0  0  0
  -21.7710   -6.9240   21.3890 O   0  0  0  0  0  0  0  0  0  0  0  0
  -21.6710   -6.2170   22.5600 C   0  0  0  0  0  0  0  0  0  0  0  0
  -21.1670   -6.8020   23.7430 C   0  0  0  0  0  3  0  0  0  0  0  0
  -21.0170   -6.0230   24.9060 C   0  0  0  0  0  3  0  0  0  0  0  0
  -21.3610   -4.6570   24.8890 C   0  0  0  0  0  0  0  0  0  0  0  0
  -21.8590   -4.0710   23.7110 C   0  0  0  0  0  3  0  0  0  0  0  0
  -22.0100   -4.8490   22.5500 C   0  0  0  0  0  0  0  0  0  0  0  0
  -22.4700   -4.2740   21.4130 F   0  0  0  0  0  0  0  0  0  0  0  0
  -21.2100   -3.9060   26.0050 F   0  0  0  0  0  0  0  0  0  0  0  0
  -22.8380  -13.5690   21.1280 C   0  0  0  0  0  0  0  0  0  0  0  0
  -22.1370  -12.8660   22.0090 N   0  0  0  0  0  0  0  0  0  0  0  0
  -22.3840  -14.5970   20.6260 O   0  0  0  0  0  0  0  0  0  0  0  0
  -22.5180  -12.0350   22.4370 H   0  0  0  0  0  0  0  0  0  0  0  0
  -21.2060  -13.1640   22.2620 H   0  0  0  0  0  0  0  0  0  0  0  0
  -25.4330  -15.2520   20.2490 N   0  0  0  0  0  0  0  0  0  0  0  0
  -24.6480  -15.8850   20.3550 H   0  0  0  0  0  0  0  0  0  0  0  0
  -26.2200  -15.6750   19.7760 H   0  0  0  0  0  0  0  0  0  0  0  0
  -27.9800  -24.6920   19.9200 C   0  0  0  0  0  2  0  0  0  0  0  0
  -28.3120  -26.1880   20.1970 O   0  0  0  0  0  0  0  0  0  0  0  0
  -24.6660  -31.8440   23.2340 C   0  0  0  0  0  0  0  0  0  0  0  0
  -27.2610  -27.1790   20.1420 C   0  0  0  0  0  0  0  0  0  0  0  0
  -23.4720  -30.4670   21.5760 C   0  0  0  0  0  3  0  0  0  0  0  0
  -24.9260  -28.9180   20.1340 C   0  0  0  0  0  0  0  0  0  0  0  0
  -26.0270  -30.7400   21.4210 C   0  0  0  0  0  2  0  0  0  0  0  0
  -26.1060  -29.3580   20.7490 C   0  0  0  0  0  0  0  0  0  0  0  0
  -27.2740  -28.5040   20.7380 C   0  0  0  0  0  3  0  0  0  0  0  0
  -26.0520  -26.8450   19.4880 C   0  0  0  0  0  3  0  0  0  0  0  0
  -24.9120  -27.6740   19.4900 C   0  0  0  0  0  3  0  0  0  0  0  0
  -23.6970  -29.8110   20.1890 C   0  0  0  0  0  2  0  0  0  0  0  0
  -24.7420  -31.0380   22.1320 N   0  0  0  0  0  0  0  0  0  0  0  0
  -23.5780  -32.1210   23.7620 O   0  0  0  0  0  0  0  0  0  0  0  0
  -22.7940  -29.4450   22.5230 C   0  0  0  0  0  0  0  0  0  0  0  0
  -21.4650  -29.2810   22.3990 N   0  0  0  0  0  0  0  0  0  0  0  0
  -23.4660  -28.8030   23.3340 O   0  0  0  0  0  0  0  0  0  0  0  0
  -20.9790  -29.8510   21.7200 H   0  0  0  0  0  0  0  0  0  0  0  0
  -18.0770  -28.1010   22.9080 C   0  0  0  0  0  0  0  0  0  0  0  0
  -20.6410  -28.3360   23.1580 C   0  0  0  0  0  3  0  0  0  0  0  0
  -20.7240  -26.9140   22.5550 C   0  0  0  0  0  2  0  0  0  0  0  0
  -19.6100  -26.6210   21.5450 C   0  0  0  0  0  2  0  0  0  0  0  0
  -18.2360  -26.7640   22.2040 C   0  0  0  0  0  2  0  0  0  0  0  0
  -19.2060  -28.8470   23.3430 C   0  0  0  0  0  0  0  0  0  0  0  0
  -19.0010  -30.0970   23.9630 C   0  0  0  0  0  3  0  0  0  0  0  0
  -17.7010  -30.6040   24.1540 C   0  0  0  0  0  3  0  0  0  0  0  0
  -16.5880  -29.8560   23.7330 C   0  0  0  0  0  3  0  0  0  0  0  0
  -16.7770  -28.6060   23.1170 C   0  0  0  0  0  3  0  0  0  0  0  0
  -25.9420  -32.4740   23.8720 C   0  0  0  0  0  3  0  0  0  0  0  0
  -25.6290  -33.8700   24.2110 N   0  0  0  0  0  0  0  0  0  0  0  0
  -25.9410  -34.9310   23.4540 C   0  0  0  0  0  0  0  0  0  0  0  0
  -26.5900  -34.8350   22.4080 O   0  0  0  0  0  0  0  0  0  0  0  0
  -25.0490  -34.0180   25.0240 H   0  0  0  0  0  0  0  0  0  0  0  0
  -24.1860  -36.7120   23.1640 C   0  0  0  0  0  1  0  0  0  0  0  0
  -25.4600  -36.3150   23.9290 C   0  0  0  0  0  3  0  0  0  0  0  0
  -27.6110  -37.2250   24.6860 C   0  0  0  0  0  1  0  0  0  0  0  0
  -26.4790  -37.3770   23.7770 N   0  0  0  0  0  0  0  0  0  0  0  0
  -26.0690  -38.2950   23.9310 H   0  0  0  0  0  0  0  0  0  0  0  0
  -26.4440  -31.6960   25.1500 C   0  0  1  0  0  0  0  0  0  0  0  0
  -25.3410  -31.4590   26.2070 C   0  0  0  0  0  1  0  0  0  0  0  0
  -27.0260  -30.3170   24.7630 C   0  0  0  0  0  1  0  0  0  0  0  0
  -27.5910  -32.4850   25.8250 C   0  0  0  0  0  1  0  0  0  0  0  0
  1  3  2  0
  2  9  1  0
  2  1  1  0
  4  2  1  0
  6  5  2  0
  7  8  2  0
  8  5  1  0
  8 20  1  0
  9  6  1  0
 10  9  2  0
 10  7  1  0
 11 10  1  0
 12 20  1  0
 13 18  1  0
 14 15  1  0
 14 13  1  0
 16 15  1  0
 16 25  1  0
 16 17  1  0
 18 12  1  0
 18 17  1  0
 19 12  2  0
 20 21  1  0
 22 23  2  0
 23 42  1  0
 24 23  1  0
 24 27  1  0
 25 26  1  0
 25 22  1  0
 26 24  2  0
 27 28  1  0
 28 29  2  0
 30 33  1  0
 30 29  1  0
 31 30  2  0
 32 31  1  0
 32 27  2  0
 33 34  1  0
 34 35  1  0
 35 36  2  0
 37 36  1  0
 37 41  1  0
 38 37  2  0
 39 34  2  0
 39 38  1  0
 40 39  1  0
 42 43  1  0
 43 46  1  0
 43 45  1  0
 44 42  2  0
 47 48  1  0
 47 22  1  0
 49 47  1  0
 50 51  1  0
 50  1  1  0
 52 63  2  0
 53 51  1  0
 53 58  1  0
 54 62  1  0
 54 64  1  0
 55 61  1  0
 55 57  1  0
 56 62  1  0
 57 56  1  0
 58 57  2  0
 59 60  1  0
 59 53  2  0
 60 55  2  0
 61 54  1  0
 62 52  1  0
 64 66  2  0
 65 64  1  0
 67 65  1  0
 68 77  2  0
 68 73  1  0
 69 65  1  0
 69 73  1  0
 70 69  1  0
 71 72  1  0
 71 70  1  0
 72 68  1  0
 73 74  2  0
 74 75  1  0
 76 75  2  0
 77 76  1  0
 78 52  1  0
 78 79  1  0
 78 88  1  0
 79 82  1  0
 80 84  1  0
 80 79  1  0
 81 80  2  0
 84 83  1  0
 86 84  1  0
 86 87  1  0
 86 85  1  0
 88 91  1  1
 88 89  1  0
 90 88  1  0
M  ISO  4  12 100  20 100  50 101  51 101
M  END
>  <TORSDO>  (87) 
F 18

>  <SCORE>  (87) 
-14.264

>  <name>  (87) 
86

>  <ligand_id>  (87) 
86

>  <original_smiles>  (87) 
[H]c1c([H])c([H])c2c(c1[H])C([H])([H])C([H])([H])C([H])([H])C2([H])N([H])C(=O)C1([H])N(C(=O)C([H])(N([H])C(=O)C([H])(N([H])C([H])([H])[H])C([H])([H])[H])C(C([H])([H])[H])(C([H])([H])[H])C([H])([H])[H])C([H])([H])c2c([H])c(OC([H])([H])C(=O)N([H])c3c([H])c([H])c(N([H])C(=O)N4C([H])([H])C([H])([H])C([H])([H])C([H])(n5nc(-c6c([H])c([H])c(Oc7c([H])c([H])c(F)c([H])c7F)c([H])c6[H])c(C(=O)N([H])[H])c5N([H])[H])C4([H])[H])c([H])c3F)c([H])c([H])c2C1([H])[H]

>  <smiles>  (87) 
[H]c1c([H])c([H])c2c(c1[H])C([H])([H])C([H])([H])C([H])([H])C2([H])N([H])C(=O)C1([H])N(C(=O)C([H])(N([H])C(=O)C([H])(N([H])C([H])([H])[H])C([H])([H])[H])C(C([H])([H])[H])(C([H])([H])[H])C([H])([H])[H])C([H])([H])c2c([H])c(OC([H])([H])C(=O)N([H])c3c([H])c([H])c(N([H])C(=O)N4C([H])([H])C([H])([H])C([H])([H])C([H])(n5nc(-c6c([H])c([H])c(Oc7c([H])c([H])c(F)c([H])c7F)c([H])c6[H])c(C(=O)N([H])[H])c5N([H])[H])C4([H])[H])c([H])c3F)c([H])c([H])c2C1([H])[H]

$$$$
87:0:0
     RDKit          3D

 90 98  0  0  1  0  0  0  0  0999 V2000
  -30.7010  -19.8590   19.6520 C   0  0  0  0  0  3  0  0  0  0  0  0
  -30.8080  -18.4180   19.7880 C   0  0  0  0  0  3  0  0  0  0  0  0
  -28.4390  -19.8110   20.2760 C   0  0  0  0  0  3  0  0  0  0  0  0
  -29.5200  -20.6730   19.8840 C   0  0  0  0  0  0  0  0  0  0  0  0
  -29.7200  -17.5760   20.1580 C   0  0  0  0  0  0  0  0  0  0  0  0
  -28.5320  -18.3590   20.3930 C   0  0  0  0  0  0  0  0  0  0  0  0
  -27.4120  -17.6810   20.7400 F   0  0  0  0  0  0  0  0  0  0  0  0
  -30.5190  -14.9440   19.9530 C   0  0  0  0  0  0  0  0  0  0  0  0
  -30.3550  -12.6220   18.9590 C   0  0  0  0  0  2  0  0  0  0  0  0
  -29.3370  -12.6350   17.7950 C   0  0  0  0  0  2  0  0  0  0  0  0
  -27.9040  -12.4190   18.3170 C   0  0  0  0  0  2  0  0  0  0  0  0
  -27.5860  -13.3070   19.5480 C   0  0  0  0  0  3  0  0  0  0  0  0
  -28.7120  -13.2590   20.6040 C   0  0  0  0  0  2  0  0  0  0  0  0
  -29.9510  -13.6750   19.9320 N   0  0  0  0  0  0  0  0  0  0  0  0
  -31.6810  -15.0640   19.5500 O   0  0  0  0  0  0  0  0  0  0  0  0
  -29.6990  -16.0500   20.2770 N   0  0  0  0  0  0  0  0  0  0  0  0
  -28.8170  -15.7250   20.6420 H   0  0  0  0  0  0  0  0  0  0  0  0
  -25.2560  -13.8770   20.4490 C   0  0  0  0  0  0  0  0  0  0  0  0
  -24.2120  -13.0970   20.8620 C   0  0  0  0  0  0  0  0  0  0  0  0
  -24.6670  -11.7450   20.7670 C   0  0  0  0  0  0  0  0  0  0  0  0
  -26.2780  -13.0030   20.1200 N   0  0  0  0  0  0  0  0  0  0  0  0
  -25.9360  -11.7130   20.3740 N   0  0  0  0  0  0  0  0  0  0  0  0
  -23.9470  -10.4810   20.9670 C   0  0  0  0  0  0  0  0  0  0  0  0
  -24.4000   -9.5090   21.8840 C   0  0  0  0  0  3  0  0  0  0  0  0
  -23.6780   -8.3110   22.0740 C   0  0  0  0  0  3  0  0  0  0  0  0
  -22.4870   -8.0770   21.3450 C   0  0  0  0  0  0  0  0  0  0  0  0
  -22.0530   -9.0380   20.4150 C   0  0  0  0  0  3  0  0  0  0  0  0
  -22.7760  -10.2270   20.2240 C   0  0  0  0  0  3  0  0  0  0  0  0
  -21.7340   -6.9320   21.4440 O   0  0  0  0  0  0  0  0  0  0  0  0
  -21.6830   -6.2030   22.6050 C   0  0  0  0  0  0  0  0  0  0  0  0
  -21.2310   -6.7660   23.8180 C   0  0  0  0  0  3  0  0  0  0  0  0
  -21.1260   -5.9630   24.9720 C   0  0  0  0  0  3  0  0  0  0  0  0
  -21.4660   -4.5990   24.9120 C   0  0  0  0  0  0  0  0  0  0  0  0
  -21.9100   -4.0350   23.7030 C   0  0  0  0  0  3  0  0  0  0  0  0
  -22.0150   -4.8350   22.5520 C   0  0  0  0  0  0  0  0  0  0  0  0
  -22.4250   -4.2820   21.3850 F   0  0  0  0  0  0  0  0  0  0  0  0
  -21.3580   -3.8250   26.0170 F   0  0  0  0  0  0  0  0  0  0  0  0
  -22.8370  -13.5730   21.2330 C   0  0  0  0  0  0  0  0  0  0  0  0
  -22.1590  -12.8520   22.1210 N   0  0  0  0  0  0  0  0  0  0  0  0
  -22.3770  -14.6170   20.7750 O   0  0  0  0  0  0  0  0  0  0  0  0
  -22.5480  -12.0060   22.5100 H   0  0  0  0  0  0  0  0  0  0  0  0
  -21.2410  -13.1530   22.4150 H   0  0  0  0  0  0  0  0  0  0  0  0
  -25.4150  -15.2530   20.3040 N   0  0  0  0  0  0  0  0  0  0  0  0
  -24.6700  -15.9060   20.5160 H   0  0  0  0  0  0  0  0  0  0  0  0
  -26.2560  -15.7130   19.9810 H   0  0  0  0  0  0  0  0  0  0  0  0
  -30.8240  -22.6670   19.3290 C   0  0  0  0  0  1  0  0  0  0  0  0
  -29.4960  -22.1660   19.6910 N   0  0  0  0  0  0  0  0  0  0  0  0
  -28.5840  -23.3240   20.2180 C   0  0  0  0  0  2  0  0  0  0  0  0
  -28.3960  -24.8050   19.4140 C   0  0  0  0  0  2  0  0  0  0  0  0
  -28.3370  -26.2440   19.9960 O   0  0  0  0  0  0  0  0  0  0  0  0
  -24.6440  -31.7830   23.0820 C   0  0  0  0  0  0  0  0  0  0  0  0
  -27.2430  -27.1750   19.9240 C   0  0  0  0  0  0  0  0  0  0  0  0
  -23.4390  -30.4130   21.4230 C   0  0  0  0  0  3  0  0  0  0  0  0
  -24.8880  -28.8830   19.9540 C   0  0  0  0  0  0  0  0  0  0  0  0
  -25.9870  -30.7110   21.2390 C   0  0  0  0  0  2  0  0  0  0  0  0
  -26.0670  -29.3350   20.5580 C   0  0  0  0  0  0  0  0  0  0  0  0
  -27.2390  -28.4950   20.5320 C   0  0  0  0  0  3  0  0  0  0  0  0
  -26.0310  -26.8160   19.2920 C   0  0  0  0  0  3  0  0  0  0  0  0
  -24.8810  -27.6350   19.3130 C   0  0  0  0  0  3  0  0  0  0  0  0
  -23.6540  -29.7670   20.0280 C   0  0  0  0  0  2  0  0  0  0  0  0
  -24.7100  -30.9890   21.9700 N   0  0  0  0  0  0  0  0  0  0  0  0
  -23.5600  -32.0450   23.6270 O   0  0  0  0  0  0  0  0  0  0  0  0
  -22.7810  -29.3790   22.3700 C   0  0  0  0  0  0  0  0  0  0  0  0
  -21.4530  -29.2040   22.2560 N   0  0  0  0  0  0  0  0  0  0  0  0
  -23.4670  -28.7420   23.1730 O   0  0  0  0  0  0  0  0  0  0  0  0
  -20.9570  -29.7770   21.5890 H   0  0  0  0  0  0  0  0  0  0  0  0
  -18.0820  -27.9800   22.7690 C   0  0  0  0  0  0  0  0  0  0  0  0
  -20.6430  -28.2460   23.0150 C   0  0  0  0  0  3  0  0  0  0  0  0
  -20.7420  -26.8260   22.4080 C   0  0  0  0  0  2  0  0  0  0  0  0
  -19.6300  -26.5220   21.3990 C   0  0  0  0  0  2  0  0  0  0  0  0
  -18.2550  -26.6460   22.0620 C   0  0  0  0  0  2  0  0  0  0  0  0
  -19.2030  -28.7370   23.2020 C   0  0  0  0  0  0  0  0  0  0  0  0
  -18.9870  -29.9830   23.8290 C   0  0  0  0  0  3  0  0  0  0  0  0
  -17.6820  -30.4730   24.0250 C   0  0  0  0  0  3  0  0  0  0  0  0
  -16.5760  -29.7130   23.6080 C   0  0  0  0  0  3  0  0  0  0  0  0
  -16.7760  -28.4700   22.9840 C   0  0  0  0  0  3  0  0  0  0  0  0
  -25.9230  -32.4170   23.7090 C   0  0  0  0  0  3  0  0  0  0  0  0
  -26.4550  -31.6220   24.9650 C   0  0  1  0  0  0  0  0  0  0  0  0
  -25.3720  -31.3550   26.0380 C   0  0  0  0  0  1  0  0  0  0  0  0
  -27.0480  -30.2580   24.5430 C   0  0  0  0  0  1  0  0  0  0  0  0
  -27.6030  -32.4120   25.6350 C   0  0  0  0  0  1  0  0  0  0  0  0
  -25.6010  -33.8040   24.0790 N   0  0  0  0  0  0  0  0  0  0  0  0
  -25.9210  -34.8840   23.3530 C   0  0  0  0  0  0  0  0  0  0  0  0
  -26.5850  -34.8160   22.3140 O   0  0  0  0  0  0  0  0  0  0  0  0
  -25.0110  -33.9290   24.8880 H   0  0  0  0  0  0  0  0  0  0  0  0
  -24.1810  -36.6790   23.0600 C   0  0  0  0  0  1  0  0  0  0  0  0
  -25.4270  -36.2560   23.8560 C   0  0  0  0  0  3  0  0  0  0  0  0
  -27.5570  -37.1310   24.7080 C   0  0  0  0  0  1  0  0  0  0  0  0
  -26.4520  -37.3190   23.7720 N   0  0  0  0  0  0  0  0  0  0  0  0
  -26.0400  -38.2320   23.9440 H   0  0  0  0  0  0  0  0  0  0  0  0
  1  2  2  0
  1  4  1  0
  2  5  1  0
  3  6  1  0
  4  3  2  0
  5 16  1  0
  5  6  2  0
  6  7  1  0
  8 16  1  0
  9 14  1  0
 10 11  1  0
 10  9  1  0
 12 11  1  0
 12 21  1  0
 12 13  1  0
 14  8  1  0
 14 13  1  0
 15  8  2  0
 16 17  1  0
 18 19  2  0
 19 38  1  0
 20 19  1  0
 20 23  1  0
 21 22  1  0
 21 18  1  0
 22 20  2  0
 23 24  1  0
 24 25  2  0
 26 29  1  0
 26 25  1  0
 27 26  2  0
 28 27  1  0
 28 23  2  0
 29 30  1  0
 30 31  1  0
 31 32  2  0
 33 32  1  0
 33 37  1  0
 34 33  2  0
 35 30  2  0
 35 34  1  0
 36 35  1  0
 38 39  1  0
 39 42  1  0
 39 41  1  0
 40 38  2  0
 43 18  1  0
 43 44  1  0
 45 43  1  0
 46 47  1  0
 47  4  1  0
 47 48  1  0
 49 50  1  0
 49 48  1  0
 51 62  2  0
 52 50  1  0
 52 57  1  0
 53 61  1  0
 53 63  1  0
 54 60  1  0
 54 56  1  0
 55 61  1  0
 56 55  1  0
 57 56  2  0
 58 59  1  0
 58 52  2  0
 59 54  2  0
 60 53  1  0
 61 51  1  0
 63 65  2  0
 64 63  1  0
 66 64  1  0
 67 76  2  0
 67 72  1  0
 68 64  1  0
 68 72  1  0
 69 68  1  0
 70 71  1  0
 70 69  1  0
 71 67  1  0
 72 73  2  0
 73 74  1  0
 75 74  2  0
 76 75  1  0
 77 51  1  0
 77 82  1  0
 77 78  1  0
 78 81  1  1
 78 79  1  0
 80 78  1  0
 82 85  1  0
 83 87  1  0
 83 82  1  0
 84 83  2  0
 87 86  1  0
 89 87  1  0
 89 90  1  0
 89 88  1  0
M  ISO  4   8 100  16 100  49 101  50 101
M  END
>  <TORSDO>  (88) 
F 19

>  <SCORE>  (88) 
-14.999

>  <name>  (88) 
87

>  <ligand_id>  (88) 
87

>  <original_smiles>  (88) 
[H]c1c([H])c([H])c2c(c1[H])C([H])([H])C([H])([H])C([H])([H])C2([H])N([H])C(=O)C1([H])N(C(=O)C([H])(N([H])C(=O)C([H])(N([H])C([H])([H])[H])C([H])([H])[H])C(C([H])([H])[H])(C([H])([H])[H])C([H])([H])[H])C([H])([H])c2c([H])c(OC([H])([H])C([H])([H])N(c3c([H])c([H])c(N([H])C(=O)N4C([H])([H])C([H])([H])C([H])([H])C([H])(n5nc(-c6c([H])c([H])c(Oc7c([H])c([H])c(F)c([H])c7F)c([H])c6[H])c(C(=O)N([H])[H])c5N([H])[H])C4([H])[H])c(F)c3[H])C([H])([H])[H])c([H])c([H])c2C1([H])[H]

>  <smiles>  (88) 
[H]c1c([H])c([H])c2c(c1[H])C([H])([H])C([H])([H])C([H])([H])C2([H])N([H])C(=O)C1([H])N(C(=O)C([H])(N([H])C(=O)C([H])(N([H])C([H])([H])[H])C([H])([H])[H])C(C([H])([H])[H])(C([H])([H])[H])C([H])([H])[H])C([H])([H])c2c([H])c(OC([H])([H])C([H])([H])N(c3c([H])c([H])c(N([H])C(=O)N4C([H])([H])C([H])([H])C([H])([H])C([H])(n5nc(-c6c([H])c([H])c(Oc7c([H])c([H])c(F)c([H])c7F)c([H])c6[H])c(C(=O)N([H])[H])c5N([H])[H])C4([H])[H])c(F)c3[H])C([H])([H])[H])c([H])c([H])c2C1([H])[H]

$$$$
88:0:0
     RDKit          3D

 98106  0  0  1  0  0  0  0  0999 V2000
  -34.3560  -19.1560   21.8550 C   0  0  0  0  0  2  0  0  0  0  0  0
  -33.0900  -19.9260   22.2500 C   0  0  0  0  0  2  0  0  0  0  0  0
  -32.6450  -20.9150   21.1650 C   0  0  0  0  0  2  0  0  0  0  0  0
  -31.4130  -21.7200   21.6000 C   0  0  0  0  0  2  0  0  0  0  0  0
  -30.8920  -22.6450   20.4930 C   0  0  0  0  0  2  0  0  0  0  0  0
  -29.8220  -23.6180   21.0120 C   0  0  0  0  0  2  0  0  0  0  0  0
  -29.4590  -24.7050   19.9910 C   0  0  0  0  0  2  0  0  0  0  0  0
  -28.4450  -25.7110   20.5460 C   0  0  0  0  0  2  0  0  0  0  0  0
  -28.3600  -26.8020   19.6420 O   0  0  0  0  0  0  0  0  0  0  0  0
  -24.9130  -31.6680   23.5160 C   0  0  0  0  0  0  0  0  0  0  0  0
  -27.2350  -27.5590   19.8190 C   0  0  0  0  0  0  0  0  0  0  0  0
  -23.5790  -30.5200   21.7760 C   0  0  0  0  0  3  0  0  0  0  0  0
  -24.9050  -29.1090   20.1210 C   0  0  0  0  0  0  0  0  0  0  0  0
  -26.1040  -30.8110   21.5060 C   0  0  0  0  0  2  0  0  0  0  0  0
  -26.1060  -29.5230   20.7130 C   0  0  0  0  0  0  0  0  0  0  0  0
  -27.2760  -28.7530   20.5630 C   0  0  0  0  0  3  0  0  0  0  0  0
  -26.0260  -27.1410   19.2280 C   0  0  0  0  0  3  0  0  0  0  0  0
  -24.8570  -27.9140   19.3770 C   0  0  0  0  0  3  0  0  0  0  0  0
  -23.7020  -30.0020   20.3200 C   0  0  0  0  0  2  0  0  0  0  0  0
  -24.8860  -31.0070   22.3260 N   0  0  0  0  0  0  0  0  0  0  0  0
  -23.8680  -31.9160   24.1340 O   0  0  0  0  0  0  0  0  0  0  0  0
  -22.9240  -29.4180   22.6380 C   0  0  0  0  0  0  0  0  0  0  0  0
  -21.6100  -29.2170   22.4530 N   0  0  0  0  0  0  0  0  0  0  0  0
  -23.5970  -28.7490   23.4290 O   0  0  0  0  0  0  0  0  0  0  0  0
  -21.1280  -29.8130   21.7950 H   0  0  0  0  0  0  0  0  0  0  0  0
  -18.2810  -27.8260   22.6340 C   0  0  0  0  0  0  0  0  0  0  0  0
  -20.7910  -28.2090   23.1240 C   0  0  0  0  0  3  0  0  0  0  0  0
  -21.0190  -26.8070   22.5120 C   0  0  0  0  0  2  0  0  0  0  0  0
  -20.0220  -26.4640   21.4010 C   0  0  0  0  0  2  0  0  0  0  0  0
  -18.5870  -26.5120   21.9350 C   0  0  0  0  0  2  0  0  0  0  0  0
  -19.3180  -28.6300   23.1780 C   0  0  0  0  0  0  0  0  0  0  0  0
  -18.9830  -29.8600   23.7850 C   0  0  0  0  0  3  0  0  0  0  0  0
  -17.6440  -30.2880   23.8590 C   0  0  0  0  0  3  0  0  0  0  0  0
  -16.6200  -29.4800   23.3330 C   0  0  0  0  0  3  0  0  0  0  0  0
  -16.9400  -28.2510   22.7270 C   0  0  0  0  0  3  0  0  0  0  0  0
  -26.2510  -32.1680   24.1460 C   0  0  0  0  0  3  0  0  0  0  0  0
  -26.7160  -31.3080   25.3850 C   0  0  1  0  0  0  0  0  0  0  0  0
  -25.6140  -31.1100   26.4520 C   0  0  0  0  0  1  0  0  0  0  0  0
  -27.1960  -29.9110   24.9290 C   0  0  0  0  0  1  0  0  0  0  0  0
  -27.9230  -31.9920   26.0710 C   0  0  0  0  0  1  0  0  0  0  0  0
  -26.0620  -33.5720   24.5270 N   0  0  0  0  0  0  0  0  0  0  0  0
  -26.4810  -34.6200   23.8050 C   0  0  0  0  0  0  0  0  0  0  0  0
  -27.1400  -34.4980   22.7690 O   0  0  0  0  0  0  0  0  0  0  0  0
  -25.4790  -33.7470   25.3340 H   0  0  0  0  0  0  0  0  0  0  0  0
  -24.9280  -36.5740   23.5010 C   0  0  0  0  0  1  0  0  0  0  0  0
  -26.1110  -36.0260   24.3140 C   0  0  0  0  0  3  0  0  0  0  0  0
  -28.2950  -36.6860   25.2220 C   0  0  0  0  0  1  0  0  0  0  0  0
  -27.2360  -36.9850   24.2620 N   0  0  0  0  0  0  0  0  0  0  0  0
  -26.9090  -37.9320   24.4360 H   0  0  0  0  0  0  0  0  0  0  0  0
  -34.5480  -17.8740   22.6790 C   0  0  0  0  0  2  0  0  0  0  0  0
  -35.7770  -17.0510   22.2490 C   0  0  0  0  0  2  0  0  0  0  0  0
  -35.8160  -16.7720   20.8140 N   0  0  0  0  0  0  0  0  0  0  0  0
  -36.7280  -16.9780   20.4120 H   0  0  0  0  0  0  0  0  0  0  0  0
  -36.1070  -14.3650   20.4710 C   0  0  0  0  0  3  0  0  0  0  0  0
  -35.5680  -13.1230   20.0850 C   0  0  0  0  0  3  0  0  0  0  0  0
  -33.9770  -15.4450   19.9560 C   0  0  0  0  0  3  0  0  0  0  0  0
  -35.3100  -15.5300   20.4130 C   0  0  0  0  0  0  0  0  0  0  0  0
  -33.4430  -14.2000   19.5470 C   0  0  0  0  0  0  0  0  0  0  0  0
  -34.2380  -13.0410   19.6310 C   0  0  0  0  0  0  0  0  0  0  0  0
  -33.7190  -11.8480   19.2550 F   0  0  0  0  0  0  0  0  0  0  0  0
  -31.8210  -13.3080   17.9730 C   0  0  0  0  0  0  0  0  0  0  0  0
  -30.7880  -11.1530   17.3730 C   0  0  0  0  0  2  0  0  0  0  0  0
  -29.4830  -11.2530   16.5680 C   0  0  0  0  0  2  0  0  0  0  0  0
  -28.2770  -11.4130   17.5100 C   0  0  0  0  0  2  0  0  0  0  0  0
  -28.4850  -12.5480   18.5430 C   0  0  0  0  0  3  0  0  0  0  0  0
  -29.8490  -12.4060   19.2520 C   0  0  0  0  0  2  0  0  0  0  0  0
  -30.9110  -12.3390   18.2300 N   0  0  0  0  0  0  0  0  0  0  0  0
  -32.4300  -13.4130   16.9030 O   0  0  0  0  0  0  0  0  0  0  0  0
  -32.1270  -14.0380   19.0520 N   0  0  0  0  0  0  0  0  0  0  0  0
  -31.4600  -13.8860   19.7940 H   0  0  0  0  0  0  0  0  0  0  0  0
  -26.9250  -13.6670   20.2630 C   0  0  0  0  0  0  0  0  0  0  0  0
  -25.8310  -13.2020   20.9410 C   0  0  0  0  0  0  0  0  0  0  0  0
  -25.6730  -11.8380   20.5470 C   0  0  0  0  0  0  0  0  0  0  0  0
  -27.3850  -12.6000   19.5060 N   0  0  0  0  0  0  0  0  0  0  0  0
  -26.6500  -11.4780   19.7250 N   0  0  0  0  0  0  0  0  0  0  0  0
  -24.6150  -10.8680   20.8590 C   0  0  0  0  0  0  0  0  0  0  0  0
  -24.8960   -9.6610   21.5350 C   0  0  0  0  0  3  0  0  0  0  0  0
  -23.8590   -8.7530   21.8400 C   0  0  0  0  0  3  0  0  0  0  0  0
  -22.5250   -9.0480   21.4720 C   0  0  0  0  0  0  0  0  0  0  0  0
  -22.2540  -10.2410   20.7780 C   0  0  0  0  0  3  0  0  0  0  0  0
  -23.2880  -11.1420   20.4720 C   0  0  0  0  0  3  0  0  0  0  0  0
  -21.4590   -8.2140   21.7020 O   0  0  0  0  0  0  0  0  0  0  0  0
  -21.3710   -7.4560   22.8420 C   0  0  0  0  0  0  0  0  0  0  0  0
  -21.4470   -8.0330   24.1280 C   0  0  0  0  0  3  0  0  0  0  0  0
  -21.2830   -7.2250   25.2710 C   0  0  0  0  0  3  0  0  0  0  0  0
  -21.0330   -5.8470   25.1320 C   0  0  0  0  0  0  0  0  0  0  0  0
  -20.9520   -5.2720   23.8510 C   0  0  0  0  0  3  0  0  0  0  0  0
  -21.1170   -6.0760   22.7090 C   0  0  0  0  0  0  0  0  0  0  0  0
  -21.0160   -5.5210   21.4770 F   0  0  0  0  0  0  0  0  0  0  0  0
  -20.8680   -5.0730   26.2300 F   0  0  0  0  0  0  0  0  0  0  0  0
  -24.9240  -14.0010   21.8330 C   0  0  0  0  0  0  0  0  0  0  0  0
  -24.3660  -13.3720   22.8610 N   0  0  0  0  0  0  0  0  0  0  0  0
  -24.7440  -15.2030   21.6490 O   0  0  0  0  0  0  0  0  0  0  0  0
  -24.5300  -12.3890   23.0240 H   0  0  0  0  0  0  0  0  0  0  0  0
  -23.7650  -13.8790   23.4950 H   0  0  0  0  0  0  0  0  0  0  0  0
  -27.5560  -14.9060   20.2110 N   0  0  0  0  0  0  0  0  0  0  0  0
  -27.2100  -15.7140   20.7170 H   0  0  0  0  0  0  0  0  0  0  0  0
  -28.3560  -15.1160   19.6270 H   0  0  0  0  0  0  0  0  0  0  0  0
  1  2  1  0
  1 50  1  0
  3  4  1  0
  3  2  1  0
  5  6  1  0
  5  4  1  0
  7  8  1  0
  7  6  1  0
  9 11  1  0
  9  8  1  0
 10 21  2  0
 11 16  1  0
 12 20  1  0
 12 22  1  0
 13 19  1  0
 13 15  1  0
 14 20  1  0
 15 14  1  0
 16 15  2  0
 17 18  1  0
 17 11  2  0
 18 13  2  0
 19 12  1  0
 20 10  1  0
 22 24  2  0
 23 22  1  0
 25 23  1  0
 26 35  2  0
 26 31  1  0
 27 23  1  0
 27 31  1  0
 28 27  1  0
 29 30  1  0
 29 28  1  0
 30 26  1  0
 31 32  2  0
 32 33  1  0
 34 33  2  0
 35 34  1  0
 36 10  1  0
 36 41  1  0
 36 37  1  0
 37 40  1  1
 37 38  1  0
 39 37  1  0
 41 44  1  0
 42 46  1  0
 42 41  1  0
 43 42  2  0
 46 45  1  0
 48 46  1  0
 48 49  1  0
 48 47  1  0
 51 50  1  0
 52 51  1  0
 53 52  1  0
 55 54  2  0
 56 57  2  0
 57 54  1  0
 57 52  1  0
 58 59  2  0
 58 56  1  0
 59 55  1  0
 60 59  1  0
 61 67  1  0
 61 69  1  0
 62 67  1  0
 63 62  1  0
 63 64  1  0
 65 64  1  0
 65 66  1  0
 65 74  1  0
 67 66  1  0
 68 61  2  0
 69 58  1  0
 69 70  1  0
 71 72  2  0
 72 91  1  0
 73 76  1  0
 73 72  1  0
 74 75  1  0
 74 71  1  0
 75 73  2  0
 76 77  1  0
 77 78  2  0
 79 82  1  0
 79 78  1  0
 80 79  2  0
 81 80  1  0
 81 76  2  0
 82 83  1  0
 83 84  1  0
 84 85  2  0
 86 85  1  0
 86 90  1  0
 87 86  2  0
 88 83  2  0
 88 87  1  0
 89 88  1  0
 91 92  1  0
 92 94  1  0
 92 95  1  0
 93 91  2  0
 96 71  1  0
 96 97  1  0
 98 96  1  0
M  ISO  4   8 101   9 101  61 100  69 100
M  END
>  <TORSDO>  (89) 
F 27

>  <SCORE>  (89) 
5.492

>  <name>  (89) 
88

>  <ligand_id>  (89) 
88

>  <original_smiles>  (89) 
[H]c1c([H])c([H])c2c(c1[H])C([H])([H])C([H])([H])C([H])([H])C2([H])N([H])C(=O)C1([H])N(C(=O)C([H])(N([H])C(=O)C([H])(N([H])C([H])([H])[H])C([H])([H])[H])C(C([H])([H])[H])(C([H])([H])[H])C([H])([H])[H])C([H])([H])c2c([H])c(OC([H])([H])C([H])([H])C([H])([H])C([H])([H])C([H])([H])C([H])([H])C([H])([H])C([H])([H])C([H])([H])C([H])([H])N([H])c3c([H])c([H])c(F)c(N([H])C(=O)N4C([H])([H])C([H])([H])C([H])([H])C([H])(n5nc(-c6c([H])c([H])c(Oc7c([H])c([H])c(F)c([H])c7F)c([H])c6[H])c(C(=O)N([H])[H])c5N([H])[H])C4([H])[H])c3[H])c([H])c([H])c2C1([H])[H]

>  <smiles>  (89) 
[H]c1c([H])c([H])c2c(c1[H])C([H])([H])C([H])([H])C([H])([H])C2([H])N([H])C(=O)C1([H])N(C(=O)C([H])(N([H])C(=O)C([H])(N([H])C([H])([H])[H])C([H])([H])[H])C(C([H])([H])[H])(C([H])([H])[H])C([H])([H])[H])C([H])([H])c2c([H])c(OC([H])([H])C([H])([H])C([H])([H])C([H])([H])C([H])([H])C([H])([H])C([H])([H])C([H])([H])C([H])([H])C([H])([H])N([H])c3c([H])c([H])c(F)c(N([H])C(=O)N4C([H])([H])C([H])([H])C([H])([H])C([H])(n5nc(-c6c([H])c([H])c(Oc7c([H])c([H])c(F)c([H])c7F)c([H])c6[H])c(C(=O)N([H])[H])c5N([H])[H])C4([H])[H])c3[H])c([H])c([H])c2C1([H])[H]

$$$$
89:0:0
     RDKit          3D

 95103  0  0  1  0  0  0  0  0999 V2000
  -32.3540  -20.8510   21.1380 C   0  0  0  0  0  3  0  0  0  0  0  0
  -32.4600  -22.1890   20.7260 C   0  0  0  0  0  3  0  0  0  0  0  0
  -29.9400  -20.9560   20.8610 C   0  0  0  0  0  3  0  0  0  0  0  0
  -31.1040  -20.2100   21.1780 C   0  0  0  0  0  0  0  0  0  0  0  0
  -31.3090  -22.9380   20.3860 C   0  0  0  0  0  0  0  0  0  0  0  0
  -30.0280  -22.3300   20.5120 C   0  0  0  0  0  0  0  0  0  0  0  0
  -30.3860  -17.7990   21.2580 C   0  0  0  0  0  0  0  0  0  0  0  0
  -31.1100  -18.8630   21.6400 N   0  0  0  0  0  0  0  0  0  0  0  0
  -29.4840  -17.8310   20.4180 O   0  0  0  0  0  0  0  0  0  0  0  0
  -31.8600  -18.6330   22.2780 H   0  0  0  0  0  0  0  0  0  0  0  0
  -30.7630  -16.4930   21.9770 C   0  0  0  0  0  2  0  0  0  0  0  0
  -30.6750  -14.4420   20.5540 C   0  0  0  0  0  0  0  0  0  0  0  0
  -30.3350  -12.3570   19.2680 C   0  0  0  0  0  2  0  0  0  0  0  0
  -29.3800  -12.5980   18.0840 C   0  0  0  0  0  2  0  0  0  0  0  0
  -27.9110  -12.4550   18.5250 C   0  0  0  0  0  2  0  0  0  0  0  0
  -27.5920  -13.2540   19.8160 C   0  0  0  0  0  3  0  0  0  0  0  0
  -28.6510  -12.9770   20.9050 C   0  0  0  0  0  2  0  0  0  0  0  0
  -29.9750  -13.2960   20.3410 N   0  0  0  0  0  0  0  0  0  0  0  0
  -31.7360  -14.7040   19.9800 O   0  0  0  0  0  0  0  0  0  0  0  0
  -30.1350  -15.2820   21.4460 N   0  0  0  0  0  0  0  0  0  0  0  0
  -29.2330  -15.0320   21.8190 H   0  0  0  0  0  0  0  0  0  0  0  0
  -25.1950  -13.8520   20.5350 C   0  0  0  0  0  0  0  0  0  0  0  0
  -24.1310  -13.0750   20.9050 C   0  0  0  0  0  0  0  0  0  0  0  0
  -24.5970  -11.7250   20.8700 C   0  0  0  0  0  0  0  0  0  0  0  0
  -26.2420  -12.9760   20.2980 N   0  0  0  0  0  0  0  0  0  0  0  0
  -25.8850  -11.6910   20.5550 N   0  0  0  0  0  0  0  0  0  0  0  0
  -23.8790  -10.4590   21.0610 C   0  0  0  0  0  0  0  0  0  0  0  0
  -24.3240   -9.4890   21.9860 C   0  0  0  0  0  3  0  0  0  0  0  0
  -23.6060   -8.2870   22.1650 C   0  0  0  0  0  3  0  0  0  0  0  0
  -22.4280   -8.0470   21.4170 C   0  0  0  0  0  0  0  0  0  0  0  0
  -22.0010   -9.0070   20.4820 C   0  0  0  0  0  3  0  0  0  0  0  0
  -22.7200  -10.1990   20.3020 C   0  0  0  0  0  3  0  0  0  0  0  0
  -21.6800   -6.8970   21.5040 O   0  0  0  0  0  0  0  0  0  0  0  0
  -21.6510   -6.1430   22.6490 C   0  0  0  0  0  0  0  0  0  0  0  0
  -21.2400   -6.6850   23.8880 C   0  0  0  0  0  3  0  0  0  0  0  0
  -21.1590   -5.8570   25.0260 C   0  0  0  0  0  3  0  0  0  0  0  0
  -21.4770   -4.4890   24.9270 C   0  0  0  0  0  0  0  0  0  0  0  0
  -21.8810   -3.9480   23.6940 C   0  0  0  0  0  3  0  0  0  0  0  0
  -21.9640   -4.7710   22.5590 C   0  0  0  0  0  0  0  0  0  0  0  0
  -22.3340   -4.2400   21.3670 F   0  0  0  0  0  0  0  0  0  0  0  0
  -21.3920   -3.6920   26.0170 F   0  0  0  0  0  0  0  0  0  0  0  0
  -22.7330  -13.5450   21.1860 C   0  0  0  0  0  0  0  0  0  0  0  0
  -22.0120  -12.8410   22.0510 N   0  0  0  0  0  0  0  0  0  0  0  0
  -22.2890  -14.5730   20.6740 O   0  0  0  0  0  0  0  0  0  0  0  0
  -22.3840  -12.0090   22.4850 H   0  0  0  0  0  0  0  0  0  0  0  0
  -21.0740  -13.1370   22.2820 H   0  0  0  0  0  0  0  0  0  0  0  0
  -25.3580  -15.2240   20.3630 N   0  0  0  0  0  0  0  0  0  0  0  0
  -24.5980  -15.8860   20.4810 H   0  0  0  0  0  0  0  0  0  0  0  0
  -26.2200  -15.6630   20.0600 H   0  0  0  0  0  0  0  0  0  0  0  0
  -32.6630  -24.8260   19.7350 C   0  0  0  0  0  1  0  0  0  0  0  0
  -31.3840  -24.2320   19.9160 O   0  0  0  0  0  0  0  0  0  0  0  0
  -28.8460  -23.0130   20.2820 O   0  0  0  0  0  0  0  0  0  0  0  0
  -28.6920  -24.3460   20.8100 C   0  0  0  0  0  2  0  0  0  0  0  0
  -28.5240  -25.3990   19.6880 C   0  0  0  0  0  2  0  0  0  0  0  0
  -28.4170  -26.7510   20.1860 O   0  0  0  0  0  0  0  0  0  0  0  0
  -24.5900  -31.9080   23.2750 C   0  0  0  0  0  0  0  0  0  0  0  0
  -27.2180  -27.4460   20.1770 C   0  0  0  0  0  0  0  0  0  0  0  0
  -23.3810  -30.5160   21.6300 C   0  0  0  0  0  3  0  0  0  0  0  0
  -24.8270  -28.9850   20.1960 C   0  0  0  0  0  0  0  0  0  0  0  0
  -25.9110  -30.8610   21.4340 C   0  0  0  0  0  2  0  0  0  0  0  0
  -25.9880  -29.4920   20.7870 C   0  0  0  0  0  0  0  0  0  0  0  0
  -27.1820  -28.7310   20.7750 C   0  0  0  0  0  3  0  0  0  0  0  0
  -26.0230  -26.9550   19.5920 C   0  0  0  0  0  3  0  0  0  0  0  0
  -24.8410  -27.7150   19.5980 C   0  0  0  0  0  3  0  0  0  0  0  0
  -23.5860  -29.8480   20.2450 C   0  0  0  0  0  2  0  0  0  0  0  0
  -24.6450  -31.1100   22.1700 N   0  0  0  0  0  0  0  0  0  0  0  0
  -23.5090  -32.1820   23.8140 O   0  0  0  0  0  0  0  0  0  0  0  0
  -22.7320  -29.4870   22.5870 C   0  0  0  0  0  0  0  0  0  0  0  0
  -21.4070  -29.3000   22.4570 N   0  0  0  0  0  0  0  0  0  0  0  0
  -23.4170  -28.8610   23.3990 O   0  0  0  0  0  0  0  0  0  0  0  0
  -20.9140  -29.8600   21.7750 H   0  0  0  0  0  0  0  0  0  0  0  0
  -18.0350  -28.1040   22.9510 C   0  0  0  0  0  0  0  0  0  0  0  0
  -20.5920  -28.3610   23.2270 C   0  0  0  0  0  3  0  0  0  0  0  0
  -20.6950  -26.9300   22.6480 C   0  0  0  0  0  2  0  0  0  0  0  0
  -19.5950  -26.6110   21.6310 C   0  0  0  0  0  2  0  0  0  0  0  0
  -18.2130  -26.7570   22.2730 C   0  0  0  0  0  2  0  0  0  0  0  0
  -19.1530  -28.8640   23.3850 C   0  0  0  0  0  0  0  0  0  0  0  0
  -18.9330  -30.1280   23.9760 C   0  0  0  0  0  3  0  0  0  0  0  0
  -17.6280  -30.6310   24.1370 C   0  0  0  0  0  3  0  0  0  0  0  0
  -16.5250  -29.8650   23.7250 C   0  0  0  0  0  3  0  0  0  0  0  0
  -16.7290  -28.6040   23.1370 C   0  0  0  0  0  3  0  0  0  0  0  0
  -25.8780  -32.5360   23.8930 C   0  0  0  0  0  3  0  0  0  0  0  0
  -25.5740  -33.9380   24.2130 N   0  0  0  0  0  0  0  0  0  0  0  0
  -25.9110  -34.9830   23.4440 C   0  0  0  0  0  0  0  0  0  0  0  0
  -26.5810  -34.8680   22.4150 O   0  0  0  0  0  0  0  0  0  0  0  0
  -24.9780  -34.0990   25.0110 H   0  0  0  0  0  0  0  0  0  0  0  0
  -24.1920  -36.7830   23.0720 C   0  0  0  0  0  1  0  0  0  0  0  0
  -25.4290  -36.3770   23.8890 C   0  0  0  0  0  3  0  0  0  0  0  0
  -27.5670  -37.2590   24.7160 C   0  0  0  0  0  1  0  0  0  0  0  0
  -26.4660  -37.4250   23.7700 N   0  0  0  0  0  0  0  0  0  0  0  0
  -26.0630  -38.3480   23.9120 H   0  0  0  0  0  0  0  0  0  0  0  0
  -26.3920  -31.7690   25.1730 C   0  0  1  0  0  0  0  0  0  0  0  0
  -25.3000  -31.5350   26.2430 C   0  0  0  0  0  1  0  0  0  0  0  0
  -26.9660  -30.3870   24.7860 C   0  0  0  0  0  1  0  0  0  0  0  0
  -27.5500  -32.5560   25.8300 C   0  0  0  0  0  1  0  0  0  0  0  0
  1  4  1  0
  2  1  2  0
  3  4  2  0
  4  8  1  0
  5  6  2  0
  5  2  1  0
  6  3  1  0
  7  8  1  0
  7 11  1  0
  8 10  1  0
  9  7  2  0
 12 20  1  0
 13 18  1  0
 14 15  1  0
 14 13  1  0
 16 15  1  0
 16 25  1  0
 16 17  1  0
 18 12  1  0
 18 17  1  0
 19 12  2  0
 20 21  1  0
 20 11  1  0
 22 23  2  0
 23 42  1  0
 24 23  1  0
 24 27  1  0
 25 22  1  0
 25 26  1  0
 26 24  2  0
 27 28  1  0
 28 29  2  0
 30 33  1  0
 30 29  1  0
 31 30  2  0
 32 31  1  0
 32 27  2  0
 33 34  1  0
 34 35  1  0
 35 36  2  0
 37 36  1  0
 37 41  1  0
 38 37  2  0
 39 34  2  0
 39 38  1  0
 40 39  1  0
 42 43  1  0
 43 46  1  0
 43 45  1  0
 44 42  2  0
 47 48  1  0
 47 22  1  0
 49 47  1  0
 50 51  1  0
 51  5  1  0
 52  6  1  0
 52 53  1  0
 54 55  1  0
 54 53  1  0
 56 67  2  0
 57 55  1  0
 57 62  1  0
 58 66  1  0
 58 68  1  0
 59 65  1  0
 59 61  1  0
 60 66  1  0
 61 60  1  0
 62 61  2  0
 63 64  1  0
 63 57  2  0
 64 59  2  0
 65 58  1  0
 66 56  1  0
 68 70  2  0
 69 68  1  0
 71 69  1  0
 72 81  2  0
 72 77  1  0
 73 69  1  0
 73 77  1  0
 74 73  1  0
 75 76  1  0
 75 74  1  0
 76 72  1  0
 77 78  2  0
 78 79  1  0
 80 79  2  0
 81 80  1  0
 82 56  1  0
 82 83  1  0
 82 92  1  0
 83 86  1  0
 84 88  1  0
 84 83  1  0
 85 84  2  0
 88 87  1  0
 90 88  1  0
 90 91  1  0
 90 89  1  0
 92 95  1  1
 92 93  1  0
 94 92  1  0
M  ISO  4  12 100  20 100  54 101  55 101
M  END
>  <TORSDO>  (90) 
F 22

>  <SCORE>  (90) 
-13.391

>  <name>  (90) 
89

>  <ligand_id>  (90) 
89

>  <original_smiles>  (90) 
[H]c1c([H])c([H])c2c(c1[H])C([H])([H])C([H])([H])C([H])([H])C2([H])N([H])C(=O)C1([H])N(C(=O)C([H])(N([H])C(=O)C([H])(N([H])C([H])([H])[H])C([H])([H])[H])C(C([H])([H])[H])(C([H])([H])[H])C([H])([H])[H])C([H])([H])c2c([H])c(OC([H])([H])C([H])([H])Oc3c([H])c(N([H])C(=O)C([H])([H])N([H])C(=O)N4C([H])([H])C([H])([H])C([H])([H])C([H])(n5nc(-c6c([H])c([H])c(Oc7c([H])c([H])c(F)c([H])c7F)c([H])c6[H])c(C(=O)N([H])[H])c5N([H])[H])C4([H])[H])c([H])c([H])c3OC([H])([H])[H])c([H])c([H])c2C1([H])[H]

>  <smiles>  (90) 
[H]c1c([H])c([H])c2c(c1[H])C([H])([H])C([H])([H])C([H])([H])C2([H])N([H])C(=O)C1([H])N(C(=O)C([H])(N([H])C(=O)C([H])(N([H])C([H])([H])[H])C([H])([H])[H])C(C([H])([H])[H])(C([H])([H])[H])C([H])([H])[H])C([H])([H])c2c([H])c(OC([H])([H])C([H])([H])Oc3c([H])c(N([H])C(=O)C([H])([H])N([H])C(=O)N4C([H])([H])C([H])([H])C([H])([H])C([H])(n5nc(-c6c([H])c([H])c(Oc7c([H])c([H])c(F)c([H])c7F)c([H])c6[H])c(C(=O)N([H])[H])c5N([H])[H])C4([H])[H])c([H])c([H])c3OC([H])([H])[H])c([H])c([H])c2C1([H])[H]

$$$$
90:0:0
     RDKit          3D

 93102  0  0  1  0  0  0  0  0999 V2000
  -30.2940  -23.4790   24.0280 C   0  0  0  0  0  0  0  0  0  0  0  0
  -30.1250  -24.7850   23.7630 N   0  0  0  0  0  0  0  0  0  0  0  0
  -30.0330  -23.0230   25.1410 O   0  0  0  0  0  0  0  0  0  0  0  0
  -29.7890  -25.3700   24.5170 H   0  0  0  0  0  0  0  0  0  0  0  0
  -30.2540  -25.4220   22.4540 C   0  0  0  0  0  2  0  0  0  0  0  0
  -31.5490  -23.6260   20.3970 C   0  0  0  0  0  2  0  0  0  0  0  0
  -31.3180  -22.0290   19.5890 C   0  0  0  0  0  2  0  0  0  0  0  0
  -28.6550  -23.3250   21.0430 C   0  0  1  0  0  0  0  0  0  0  0  0
  -30.1510  -24.3670   21.3810 C   0  0  0  0  0  3  0  0  0  0  0  0
  -30.1830  -20.6980   19.8060 C   0  0  0  0  0  2  0  0  0  0  0  0
  -28.8300  -21.7680   20.1500 C   0  0  2  0  0  0  0  0  0  0  0  0
  -27.3220  -20.9400   20.0270 Cl  0  0  0  0  0  0  0  0  0  0  0  0
  -30.9130  -16.8010   19.9160 C   0  0  0  0  0  0  0  0  0  0  0  0
  -31.1730  -13.8830   19.3430 C   0  0  0  0  0  2  0  0  0  0  0  0
  -30.4320  -12.9170   18.3040 C   0  0  0  0  0  2  0  0  0  0  0  0
  -29.0910  -12.3930   18.8190 C   0  0  0  0  0  2  0  0  0  0  0  0
  -28.4460  -13.5240   19.6290 C   0  0  0  0  0  3  0  0  0  0  0  0
  -29.3930  -14.3310   20.6200 C   0  0  0  0  0  2  0  0  0  0  0  0
  -30.4250  -15.2320   19.8810 N   0  0  0  0  0  0  0  0  0  0  0  0
  -32.1430  -16.4410   19.8820 O   0  0  0  0  0  0  0  0  0  0  0  0
  -30.2740  -18.5560   19.8620 N   0  0  0  0  0  2  0  0  0  0  0  0
  -29.2970  -18.3130   19.9650 H   0  0  0  0  0  0  0  0  0  0  0  0
  -26.1180  -14.1040   20.3780 C   0  0  0  0  0  0  0  0  0  0  0  0
  -25.0110  -13.3910   20.7240 C   0  0  0  0  0  0  0  0  0  0  0  0
  -25.3920  -12.0140   20.6890 C   0  0  0  0  0  0  0  0  0  0  0  0
  -27.1230  -13.1870   20.1590 N   0  0  0  0  0  0  0  0  0  0  0  0
  -26.6940  -11.9080   20.3910 N   0  0  0  0  0  0  0  0  0  0  0  0
  -24.5600  -10.8070   20.8690 C   0  0  0  0  0  0  0  0  0  0  0  0
  -24.8600   -9.8310   21.8450 C   0  0  0  0  0  3  0  0  0  0  0  0
  -24.0220   -8.7070   22.0210 C   0  0  0  0  0  3  0  0  0  0  0  0
  -22.8650   -8.5470   21.2220 C   0  0  0  0  0  0  0  0  0  0  0  0
  -22.5800   -9.5090   20.2370 C   0  0  0  0  0  3  0  0  0  0  0  0
  -23.4180  -10.6250   20.0600 C   0  0  0  0  0  3  0  0  0  0  0  0
  -22.0120   -7.4710   21.3010 O   0  0  0  0  0  0  0  0  0  0  0  0
  -21.8110   -6.7940   22.4780 C   0  0  0  0  0  0  0  0  0  0  0  0
  -21.3450   -7.4440   23.6420 C   0  0  0  0  0  3  0  0  0  0  0  0
  -21.0860   -6.6980   24.8100 C   0  0  0  0  0  3  0  0  0  0  0  0
  -21.2830   -5.3040   24.8150 C   0  0  0  0  0  0  0  0  0  0  0  0
  -21.7400   -4.6530   23.6560 C   0  0  0  0  0  3  0  0  0  0  0  0
  -22.0000   -5.3960   22.4900 C   0  0  0  0  0  0  0  0  0  0  0  0
  -22.4210   -4.7600   21.3700 F   0  0  0  0  0  0  0  0  0  0  0  0
  -21.0290   -4.5870   25.9350 F   0  0  0  0  0  0  0  0  0  0  0  0
  -23.6480  -13.9680   20.9670 C   0  0  0  0  0  0  0  0  0  0  0  0
  -22.8700  -13.3550   21.8500 N   0  0  0  0  0  0  0  0  0  0  0  0
  -23.2880  -15.0060   20.4110 O   0  0  0  0  0  0  0  0  0  0  0  0
  -23.1770  -12.5180   22.3220 H   0  0  0  0  0  0  0  0  0  0  0  0
  -21.9540  -13.7270   22.0580 H   0  0  0  0  0  0  0  0  0  0  0  0
  -26.3570  -15.4630   20.1910 N   0  0  0  0  0  0  0  0  0  0  0  0
  -25.6230  -16.1580   20.2770 H   0  0  0  0  0  0  0  0  0  0  0  0
  -27.2340  -15.8460   19.8660 H   0  0  0  0  0  0  0  0  0  0  0  0
  -30.8770  -22.5600   22.9350 C   0  0  0  0  0  2  0  0  0  0  0  0
  -29.8690  -22.1260   21.7510 C   0  0  0  0  0  3  0  0  0  0  0  0
  -28.3690  -24.1110   19.8360 O   0  0  0  0  0  0  0  0  0  0  0  0
  -24.8200  -31.4560   22.9050 C   0  0  0  0  0  0  0  0  0  0  0  0
  -27.6160  -25.7940   19.9410 C   0  0  0  0  0  0  0  0  0  0  0  0
  -23.7870  -30.0570   21.1810 C   0  0  0  0  0  3  0  0  0  0  0  0
  -25.3610  -28.3170   19.8460 C   0  0  0  0  0  0  0  0  0  0  0  0
  -26.3910  -30.0070   21.3000 C   0  0  0  0  0  2  0  0  0  0  0  0
  -26.5220  -28.5020   20.6040 C   0  0  0  0  0  0  0  0  0  0  0  0
  -27.5820  -27.3030   20.6120 C   0  0  0  0  0  3  0  0  0  0  0  0
  -26.4250  -26.0690   19.1230 C   0  0  0  0  0  3  0  0  0  0  0  0
  -25.4050  -27.1280   19.0840 C   0  0  0  0  0  3  0  0  0  0  0  0
  -24.1600  -29.3370   19.8360 C   0  0  0  0  0  2  0  0  0  0  0  0
  -25.0320  -30.5600   21.8500 N   0  0  0  0  0  0  0  0  0  0  0  0
  -23.6810  -31.7540   23.3160 O   0  0  0  0  0  0  0  0  0  0  0  0
  -22.9580  -29.1130   22.1030 C   0  0  0  0  0  0  0  0  0  0  0  0
  -21.6140  -29.0610   21.9760 N   0  0  0  0  0  0  0  0  0  0  0  0
  -23.5550  -28.4140   22.9240 O   0  0  0  0  0  0  0  0  0  0  0  0
  -21.1710  -29.6730   21.3030 H   0  0  0  0  0  0  0  0  0  0  0  0
  -18.1530  -28.0310   22.5450 C   0  0  0  0  0  0  0  0  0  0  0  0
  -20.7400  -28.1080   22.6820 C   0  0  0  0  0  3  0  0  0  0  0  0
  -20.7040  -26.7470   21.9470 C   0  0  0  0  0  2  0  0  0  0  0  0
  -19.5380  -26.6260   20.9610 C   0  0  0  0  0  2  0  0  0  0  0  0
  -18.2020  -26.7740   21.6930 C   0  0  0  0  0  2  0  0  0  0  0  0
  -19.3430  -28.6680   22.9950 C   0  0  0  0  0  0  0  0  0  0  0  0
  -19.2340  -29.8460   23.7670 C   0  0  0  0  0  3  0  0  0  0  0  0
  -17.9740  -30.3870   24.0820 C   0  0  0  0  0  3  0  0  0  0  0  0
  -16.8010  -29.7500   23.6400 C   0  0  0  0  0  3  0  0  0  0  0  0
  -16.8920  -28.5710   22.8790 C   0  0  0  0  0  3  0  0  0  0  0  0
  -25.9880  -32.1630   23.6670 C   0  0  0  0  0  3  0  0  0  0  0  0
  -26.4200  -31.3880   24.9760 C   0  0  1  0  0  0  0  0  0  0  0  0
  -25.2500  -31.1010   25.9490 C   0  0  0  0  0  1  0  0  0  0  0  0
  -27.0730  -30.0340   24.6400 C   0  0  0  0  0  1  0  0  0  0  0  0
  -27.4920  -32.2040   25.7370 C   0  0  0  0  0  1  0  0  0  0  0  0
  -25.5740  -33.5410   24.0450 N   0  0  0  0  0  0  0  0  0  0  0  0
  -25.9340  -34.6730   23.4210 C   0  0  0  0  0  0  0  0  0  0  0  0
  -26.6820  -34.6710   22.4420 O   0  0  0  0  0  0  0  0  0  0  0  0
  -24.9080  -33.6120   24.8010 H   0  0  0  0  0  0  0  0  0  0  0  0
  -24.1780  -36.4660   23.1170 C   0  0  0  0  0  1  0  0  0  0  0  0
  -25.3850  -36.0190   23.9580 C   0  0  0  0  0  3  0  0  0  0  0  0
  -27.4410  -36.9080   24.9770 C   0  0  0  0  0  1  0  0  0  0  0  0
  -26.3910  -37.1070   23.9800 N   0  0  0  0  0  0  0  0  0  0  0  0
  -25.9480  -38.0040   24.1610 H   0  0  0  0  0  0  0  0  0  0  0  0
  1  3  2  0
  2  1  1  0
  2  4  1  0
  5  2  1  0
  7 10  1  0
  7  6  1  0
  8 53  1  6
  8  9  1  0
  8 52  1  0
  9  6  1  0
  9  5  1  0
 10 11  1  0
 11 12  1  6
 11  8  1  0
 11 52  1  0
 14 19  1  0
 15 16  1  0
 15 14  1  0
 17 16  1  0
 17 26  1  0
 17 18  1  0
 19 13  1  0
 19 18  1  0
 20 13  2  0
 21 13  1  0
 21 22  1  0
 23 24  2  0
 24 43  1  0
 25 24  1  0
 25 28  1  0
 26 23  1  0
 26 27  1  0
 27 25  2  0
 28 29  1  0
 29 30  2  0
 31 34  1  0
 31 30  1  0
 32 31  2  0
 33 32  1  0
 33 28  2  0
 34 35  1  0
 35 40  2  0
 35 36  1  0
 36 37  2  0
 37 38  1  0
 38 42  1  0
 39 38  2  0
 40 39  1  0
 41 40  1  0
 43 44  1  0
 44 47  1  0
 44 46  1  0
 45 43  2  0
 48 49  1  0
 48 23  1  0
 50 48  1  0
 51  1  1  0
 52 51  1  0
 53 55  1  0
 54 65  2  0
 55 60  1  0
 56 64  1  0
 56 66  1  0
 57 59  1  0
 58 64  1  0
 59 60  2  0
 59 58  1  0
 61 55  2  0
 62 61  1  0
 62 57  2  0
 63 57  1  0
 63 56  1  0
 64 54  1  0
 66 68  2  0
 67 66  1  0
 69 67  1  0
 70 79  2  0
 70 75  1  0
 71 67  1  0
 71 75  1  0
 72 71  1  0
 73 74  1  0
 73 72  1  0
 74 70  1  0
 75 76  2  0
 76 77  1  0
 78 77  2  0
 79 78  1  0
 80 54  1  0
 80 85  1  0
 80 81  1  0
 81 84  1  1
 81 82  1  0
 83 81  1  0
 85 88  1  0
 86 90  1  0
 86 85  1  0
 87 86  2  0
 90 89  1  0
 90 92  1  0
 92 93  1  0
 92 91  1  0
M  ISO  4  13 100  21 100  52 101  53 101
M  END
>  <TORSDO>  (91) 
F 20

>  <SCORE>  (91) 
-11.991

>  <name>  (91) 
90

>  <ligand_id>  (91) 
90

>  <original_smiles>  (91) 
[H]c1c([H])c([H])c2c(c1[H])C([H])([H])C([H])([H])C([H])([H])C2([H])N([H])C(=O)C1([H])N(C(=O)C([H])(N([H])C(=O)C([H])(N([H])C([H])([H])[H])C([H])([H])[H])C(C([H])([H])[H])(C([H])([H])[H])C([H])([H])[H])C([H])([H])c2c([H])c(OC([H])([H])C([H])([H])C(=O)N([H])C([H])([H])c3c([H])c([H])c(N([H])C(=O)N4C([H])([H])C([H])([H])C([H])([H])C([H])(n5nc(-c6c([H])c([H])c(Oc7c([H])c([H])c(F)c([H])c7F)c([H])c6[H])c(C(=O)N([H])[H])c5N([H])[H])C4([H])[H])c(Cl)c3[H])c([H])c([H])c2C1([H])[H]

>  <smiles>  (91) 
[H]c1c([H])c([H])c2c(c1[H])C([H])([H])C([H])([H])C([H])([H])C2([H])N([H])C(=O)C1([H])N(C(=O)C([H])(N([H])C(=O)C([H])(N([H])C([H])([H])[H])C([H])([H])[H])C(C([H])([H])[H])(C([H])([H])[H])C([H])([H])[H])C([H])([H])c2c([H])c(OC([H])([H])C([H])([H])C(=O)N([H])C([H])([H])c3c([H])c([H])c(N([H])C(=O)N4C([H])([H])C([H])([H])C([H])([H])C([H])(n5nc(-c6c([H])c([H])c(Oc7c([H])c([H])c(F)c([H])c7F)c([H])c6[H])c(C(=O)N([H])[H])c5N([H])[H])C4([H])[H])c(Cl)c3[H])c([H])c([H])c2C1([H])[H]

$$$$
