0:0:0
     RDKit          3D

 95103  0  0  1  0  0  0  0  0999 V2000
  -29.6750  -20.8930   20.7680 N   0  0  0  0  0  0  0  0  0  0  0  0
  -29.9740  -18.3610   17.9540 C   0  0  0  0  0  0  0  0  0  0  0  0
  -29.7500  -19.6000   20.0860 C   0  0  0  0  0  0  0  0  0  0  0  0
  -30.0570  -17.0360   20.0350 C   0  0  0  0  0  0  0  0  0  0  0  0
  -30.0700  -17.1230   18.6250 C   0  0  0  0  0  0  0  0  0  0  0  0
  -29.8470  -19.5790   18.6660 C   0  0  0  0  0  0  0  0  0  0  0  0
  -29.8760  -18.2950   20.7460 C   0  0  0  0  0  0  0  0  0  0  0  0
  -30.0200  -18.3770   16.4320 C   0  0  0  0  0  1  0  0  0  0  0  0
  -30.1410  -15.9890   17.8850 F   0  0  0  0  0  0  0  0  0  0  0  0
  -29.8860  -21.0570   17.7530 Cl  0  0  0  0  0  0  0  0  0  0  0  0
  -29.7900  -18.2100   22.4700 Cl  0  0  0  0  0  0  0  0  0  0  0  0
  -30.1090  -15.7370   20.6300 O   0  0  0  0  0  0  0  0  0  0  0  0
  -30.9180  -14.6370   20.1370 C   0  0  0  0  0  0  0  0  0  0  0  0
  -30.5820  -12.4260   18.9850 C   0  0  0  0  0  2  0  0  0  0  0  0
  -29.5820  -12.6440   17.8260 C   0  0  0  0  0  2  0  0  0  0  0  0
  -28.1320  -12.4830   18.3210 C   0  0  0  0  0  2  0  0  0  0  0  0
  -27.8510  -13.2790   19.6250 C   0  0  0  0  0  3  0  0  0  0  0  0
  -28.9570  -13.0730   20.6800 C   0  0  0  0  0  2  0  0  0  0  0  0
  -30.2440  -13.3880   20.0550 N   0  0  0  0  0  0  0  0  0  0  0  0
  -32.0470  -14.8020   19.6720 O   0  0  0  0  0  0  0  0  0  0  0  0
  -25.5070  -13.8570   20.4900 C   0  0  0  0  0  0  0  0  0  0  0  0
  -24.4540  -13.0760   20.8830 C   0  0  0  0  0  0  0  0  0  0  0  0
  -24.9030  -11.7240   20.7770 C   0  0  0  0  0  0  0  0  0  0  0  0
  -26.5290  -12.9810   20.1660 N   0  0  0  0  0  0  0  0  0  0  0  0
  -26.1760  -11.6900   20.4010 N   0  0  0  0  0  0  0  0  0  0  0  0
  -24.1750  -10.4600   20.9560 C   0  0  0  0  0  0  0  0  0  0  0  0
  -24.5640   -9.5120   21.9270 C   0  0  0  0  0  3  0  0  0  0  0  0
  -23.8360   -8.3140   22.0910 C   0  0  0  0  0  3  0  0  0  0  0  0
  -22.7040   -8.0550   21.2800 C   0  0  0  0  0  0  0  0  0  0  0  0
  -22.3360   -8.9900   20.2980 C   0  0  0  0  0  3  0  0  0  0  0  0
  -23.0650  -10.1800   20.1340 C   0  0  0  0  0  3  0  0  0  0  0  0
  -21.9530   -6.9060   21.3510 O   0  0  0  0  0  0  0  0  0  0  0  0
  -21.7480   -6.2510   22.5390 C   0  0  0  0  0  0  0  0  0  0  0  0
  -21.0880   -6.8650   23.6250 C   0  0  0  0  0  3  0  0  0  0  0  0
  -20.8380   -6.1340   24.8030 C   0  0  0  0  0  3  0  0  0  0  0  0
  -21.2370   -4.7870   24.8930 C   0  0  0  0  0  0  0  0  0  0  0  0
  -21.8880   -4.1710   23.8100 C   0  0  0  0  0  3  0  0  0  0  0  0
  -22.1400   -4.9000   22.6350 C   0  0  0  0  0  0  0  0  0  0  0  0
  -22.7490   -4.2960   21.5870 F   0  0  0  0  0  0  0  0  0  0  0  0
  -20.9890   -4.0800   26.0210 F   0  0  0  0  0  0  0  0  0  0  0  0
  -23.0770  -13.5520   21.2460 C   0  0  0  0  0  0  0  0  0  0  0  0
  -22.3860  -12.8260   22.1180 N   0  0  0  0  0  0  0  0  0  0  0  0
  -22.6240  -14.6020   20.7900 O   0  0  0  0  0  0  0  0  0  0  0  0
  -22.7660  -11.9760   22.5050 H   0  0  0  0  0  0  0  0  0  0  0  0
  -21.4630  -13.1250   22.4020 H   0  0  0  0  0  0  0  0  0  0  0  0
  -25.6790  -15.2320   20.3600 N   0  0  0  0  0  0  0  0  0  0  0  0
  -24.9330  -15.8950   20.5420 H   0  0  0  0  0  0  0  0  0  0  0  0
  -26.5270  -15.6700   20.0210 H   0  0  0  0  0  0  0  0  0  0  0  0
  -30.9450  -21.2420   21.4050 C   0  0  0  0  0  2  0  0  0  0  0  0
  -32.3620  -21.0940   23.5010 C   0  0  0  0  0  1  0  0  0  0  0  0
  -30.9430  -21.0200   22.9250 C   0  0  0  0  0  2  0  0  0  0  0  0
  -28.7060  -22.0290   20.4300 C   0  0  0  0  0  2  0  0  0  0  0  0
  -29.1550  -23.5940   20.5500 C   0  0  0  0  0  3  0  0  0  0  0  0
  -28.1100  -24.7640   20.1550 C   0  0  0  0  0  3  0  0  0  0  0  0
  -28.3570  -26.2340   20.3870 O   0  0  0  0  0  0  0  0  0  0  0  0
  -24.5600  -31.7440   23.2420 C   0  0  0  0  0  0  0  0  0  0  0  0
  -27.2620  -27.1280   20.2910 C   0  0  0  0  0  0  0  0  0  0  0  0
  -23.4100  -30.3340   21.5760 C   0  0  0  0  0  3  0  0  0  0  0  0
  -24.9060  -28.7770   20.2010 C   0  0  0  0  0  0  0  0  0  0  0  0
  -25.9580  -30.6410   21.4720 C   0  0  0  0  0  2  0  0  0  0  0  0
  -26.0610  -29.2560   20.8330 C   0  0  0  0  0  0  0  0  0  0  0  0
  -27.2420  -28.4440   20.8680 C   0  0  0  0  0  3  0  0  0  0  0  0
  -26.0820  -26.7230   19.6250 C   0  0  0  0  0  3  0  0  0  0  0  0
  -24.9230  -27.5190   19.5850 C   0  0  0  0  0  3  0  0  0  0  0  0
  -23.6700  -29.6540   20.2070 C   0  0  0  0  0  2  0  0  0  0  0  0
  -24.6610  -30.9250   22.1530 N   0  0  0  0  0  0  0  0  0  0  0  0
  -23.4600  -32.0260   23.7390 O   0  0  0  0  0  0  0  0  0  0  0  0
  -22.7190  -29.3210   22.5220 C   0  0  0  0  0  0  0  0  0  0  0  0
  -21.3970  -29.1400   22.3570 N   0  0  0  0  0  0  0  0  0  0  0  0
  -23.3710  -28.7020   23.3660 O   0  0  0  0  0  0  0  0  0  0  0  0
  -20.9290  -29.6920   21.6510 H   0  0  0  0  0  0  0  0  0  0  0  0
  -17.9990  -27.9840   22.8170 C   0  0  0  0  0  0  0  0  0  0  0  0
  -20.5580  -28.2040   23.1080 C   0  0  0  0  0  3  0  0  0  0  0  0
  -20.6420  -26.7760   22.5170 C   0  0  0  0  0  2  0  0  0  0  0  0
  -19.5440  -26.4840   21.4900 C   0  0  0  0  0  2  0  0  0  0  0  0
  -18.1600  -26.6410   22.1250 C   0  0  0  0  0  2  0  0  0  0  0  0
  -19.1250  -28.7250   23.2660 C   0  0  0  0  0  0  0  0  0  0  0  0
  -18.9210  -29.9830   23.8730 C   0  0  0  0  0  3  0  0  0  0  0  0
  -17.6220  -30.5010   24.0360 C   0  0  0  0  0  3  0  0  0  0  0  0
  -16.5100  -29.7570   23.6050 C   0  0  0  0  0  3  0  0  0  0  0  0
  -16.6980  -28.5000   23.0020 C   0  0  0  0  0  3  0  0  0  0  0  0
  -25.8200  -32.3870   23.8970 C   0  0  0  0  0  3  0  0  0  0  0  0
  -25.4960  -33.7860   24.2100 N   0  0  0  0  0  0  0  0  0  0  0  0
  -25.8070  -34.8320   23.4330 C   0  0  0  0  0  0  0  0  0  0  0  0
  -26.4660  -34.7200   22.3950 O   0  0  0  0  0  0  0  0  0  0  0  0
  -24.9050  -33.9440   25.0140 H   0  0  0  0  0  0  0  0  0  0  0  0
  -24.0370  -36.5890   23.0950 C   0  0  0  0  0  1  0  0  0  0  0  0
  -25.3100  -36.2220   23.8750 C   0  0  0  0  0  3  0  0  0  0  0  0
  -27.4410  -37.1740   24.6360 C   0  0  0  0  0  1  0  0  0  0  0  0
  -26.3200  -37.2890   23.7080 N   0  0  0  0  0  0  0  0  0  0  0  0
  -25.9010  -38.2060   23.8340 H   0  0  0  0  0  0  0  0  0  0  0  0
  -26.3000  -31.6260   25.1960 C   0  0  1  0  0  0  0  0  0  0  0  0
  -25.1710  -31.3710   26.2240 C   0  0  0  0  0  1  0  0  0  0  0  0
  -26.9170  -30.2560   24.8320 C   0  0  0  0  0  1  0  0  0  0  0  0
  -27.4200  -32.4370   25.8930 C   0  0  0  0  0  1  0  0  0  0  0  0
  1 49  1  0
  2  5  2  0
  2  6  1  0
  3  7  1  0
  3  1  1  0
  4 12  1  0
  4  7  2  0
  5  4  1  0
  6  3  2  0
  7 11  1  0
  8  2  1  0
  9  5  1  0
 10  6  1  0
 13 12  1  0
 14 19  1  0
 15 16  1  0
 15 14  1  0
 17 16  1  0
 17 24  1  0
 17 18  1  0
 19 13  1  0
 19 18  1  0
 20 13  2  0
 21 22  2  0
 22 41  1  0
 23 22  1  0
 23 26  1  0
 24 25  1  0
 24 21  1  0
 25 23  2  0
 26 27  1  0
 27 28  2  0
 29 32  1  0
 29 28  1  0
 30 29  2  0
 31 30  1  0
 31 26  2  0
 32 33  1  0
 33 38  2  0
 33 34  1  0
 34 35  2  0
 35 36  1  0
 36 40  1  0
 37 36  2  0
 38 37  1  0
 39 38  1  0
 41 42  1  0
 42 45  1  0
 42 44  1  0
 43 41  2  0
 46 21  1  0
 46 47  1  0
 48 46  1  0
 49 51  1  0
 51 50  1  0
 52 53  1  0
 52  1  1  0
 54 55  1  0
 54 53  2  0
 56 67  2  0
 57 55  1  0
 57 62  1  0
 58 66  1  0
 58 68  1  0
 59 65  1  0
 59 61  1  0
 60 66  1  0
 61 62  2  0
 61 60  1  0
 63 57  2  0
 64 63  1  0
 64 59  2  0
 65 58  1  0
 66 56  1  0
 68 70  2  0
 69 68  1  0
 71 69  1  0
 72 81  2  0
 72 77  1  0
 73 69  1  0
 73 77  1  0
 74 73  1  0
 75 76  1  0
 75 74  1  0
 76 72  1  0
 77 78  2  0
 78 79  1  0
 80 79  2  0
 81 80  1  0
 82 56  1  0
 82 83  1  0
 82 92  1  0
 83 86  1  0
 84 88  1  0
 84 83  1  0
 85 84  2  0
 88 87  1  0
 90 91  1  0
 90 88  1  0
 90 89  1  0
 92 95  1  1
 92 93  1  0
 94 92  1  0
M  ISO  4  12 100  13 100  54 101  55 101
M  END
>  <TORSDO>  (1) 
F 23

>  <SCORE>  (1) 
-11.605

>  <name>  (1) 
0

>  <ligand_id>  (1) 
0

>  <original_smiles>  (1) 
[H]c1c([H])c([H])c2c(c1[H])C([H])([H])C([H])([H])C([H])([H])C2([H])N([H])C(=O)C1([H])N(C(=O)C([H])(N([H])C(=O)C([H])(N([H])C([H])([H])[H])C([H])([H])[H])C(C([H])([H])[H])(C([H])([H])[H])C([H])([H])[H])C([H])([H])c2c([H])c(OC([H])([H])C([H])([H])C([H])([H])N(c3c(Cl)c(OC(=O)N4C([H])([H])C([H])([H])C([H])([H])C([H])(n5nc(-c6c([H])c([H])c(Oc7c([H])c([H])c(F)c([H])c7F)c([H])c6[H])c(C(=O)N([H])[H])c5N([H])[H])C4([H])[H])c(F)c(C([H])([H])[H])c3Cl)C([H])([H])C([H])([H])C([H])([H])[H])c([H])c([H])c2C1([H])[H]

>  <smiles>  (1) 
[H]c1c([H])c([H])c2c(c1[H])C([H])([H])C([H])([H])C([H])([H])C2([H])N([H])C(=O)C1([H])N(C(=O)C([H])(N([H])C(=O)C([H])(N([H])C([H])([H])[H])C([H])([H])[H])C(C([H])([H])[H])(C([H])([H])[H])C([H])([H])[H])C([H])([H])c2c([H])c(OC([H])([H])C([H])([H])C([H])([H])N(c3c(Cl)c(OC(=O)N4C([H])([H])C([H])([H])C([H])([H])C([H])(n5nc(-c6c([H])c([H])c(Oc7c([H])c([H])c(F)c([H])c7F)c([H])c6[H])c(C(=O)N([H])[H])c5N([H])[H])C4([H])[H])c(F)c(C([H])([H])[H])c3Cl)C([H])([H])C([H])([H])C([H])([H])[H])c([H])c([H])c2C1([H])[H]

$$$$
1:0:0
     RDKit          3D

 98106  0  0  1  0  0  0  0  0999 V2000
  -31.3650  -25.5800   18.7820 C   0  0  0  0  0  3  0  0  0  0  0  0
  -31.2760  -25.4160   17.4260 C   0  0  0  0  0  0  0  0  0  0  0  0
  -30.5690  -24.1980   17.2540 C   0  0  0  0  0  0  0  0  0  0  0  0
  -30.2040  -23.6680   18.4600 C   0  0  0  0  0  0  0  0  0  0  0  0
  -31.8060  -26.3380   16.3590 C   0  0  0  0  0  1  0  0  0  0  0  0
  -30.7130  -24.5370   19.4260 N   0  0  0  0  0  0  0  0  0  0  0  0
  -30.1810  -23.5090   15.7180 Cl  0  0  0  0  0  0  0  0  0  0  0  0
  -29.3940  -22.4360   18.7740 C   0  0  0  0  0  2  0  0  0  0  0  0
  -30.0800  -21.4320   19.6160 N   0  0  0  0  0  4  0  0  0  0  0  0
  -29.4350  -20.6700   19.7460 H   0  0  0  0  0  0  0  0  0  0  0  0
  -30.2560  -21.8340   20.5210 H   0  0  0  0  0  0  0  0  0  0  0  0
  -31.3410  -20.8830   19.0760 C   0  0  0  0  0  2  0  0  0  0  0  0
  -31.7710  -19.6040   19.8240 C   0  0  0  0  0  2  0  0  0  0  0  0
  -30.7340  -18.4780   19.6780 C   0  0  0  0  0  2  0  0  0  0  0  0
  -31.2150  -17.0840   20.1590 C   0  0  0  0  0  2  0  0  0  0  0  0
  -29.0980  -16.2210   21.2100 C   0  0  0  0  0  1  0  0  0  0  0  0
  -29.5380  -16.0280   18.6630 C   0  0  0  0  0  1  0  0  0  0  0  0
  -30.1360  -15.9430   20.0970 C   0  0  1  0  0  0  0  0  0  0  0  0
  -30.8140  -14.5370   20.2890 C   0  0  0  0  0  0  0  0  0  0  0  0
  -30.4850  -12.2970   19.3730 C   0  0  0  0  0  2  0  0  0  0  0  0
  -29.5720  -12.4160   18.1380 C   0  0  0  0  0  2  0  0  0  0  0  0
  -28.0780  -12.3620   18.5410 C   0  0  0  0  0  2  0  0  0  0  0  0
  -27.7170  -13.2320   19.7800 C   0  0  0  0  0  3  0  0  0  0  0  0
  -28.7810  -13.0940   20.8900 C   0  0  0  0  0  2  0  0  0  0  0  0
  -30.1070  -13.3670   20.3070 N   0  0  0  0  0  0  0  0  0  0  0  0
  -32.0300  -14.5210   20.1210 O   0  0  0  0  0  0  0  0  0  0  0  0
  -25.3200  -13.8710   20.4660 C   0  0  0  0  0  0  0  0  0  0  0  0
  -24.2460  -13.1050   20.8370 C   0  0  0  0  0  0  0  0  0  0  0  0
  -24.7050  -11.7540   20.8250 C   0  0  0  0  0  0  0  0  0  0  0  0
  -26.3650  -12.9780   20.2600 N   0  0  0  0  0  0  0  0  0  0  0  0
  -25.9970  -11.7050   20.5350 N   0  0  0  0  0  0  0  0  0  0  0  0
  -23.9800  -10.4950   21.0180 C   0  0  0  0  0  0  0  0  0  0  0  0
  -24.4090   -9.5390   21.9630 C   0  0  0  0  0  3  0  0  0  0  0  0
  -23.6870   -8.3390   22.1410 C   0  0  0  0  0  3  0  0  0  0  0  0
  -22.5230   -8.0920   21.3750 C   0  0  0  0  0  0  0  0  0  0  0  0
  -22.1150   -9.0390   20.4190 C   0  0  0  0  0  3  0  0  0  0  0  0
  -22.8370  -10.2300   20.2380 C   0  0  0  0  0  3  0  0  0  0  0  0
  -21.7720   -6.9480   21.4650 O   0  0  0  0  0  0  0  0  0  0  0  0
  -21.7140   -6.2130   22.6230 C   0  0  0  0  0  0  0  0  0  0  0  0
  -21.2710   -6.7740   23.8400 C   0  0  0  0  0  3  0  0  0  0  0  0
  -21.1660   -5.9650   24.9890 C   0  0  0  0  0  3  0  0  0  0  0  0
  -21.4930   -4.5970   24.9210 C   0  0  0  0  0  0  0  0  0  0  0  0
  -21.9280   -4.0370   23.7060 C   0  0  0  0  0  3  0  0  0  0  0  0
  -22.0360   -4.8440   22.5590 C   0  0  0  0  0  0  0  0  0  0  0  0
  -22.4400   -4.2940   21.3890 F   0  0  0  0  0  0  0  0  0  0  0  0
  -21.3790   -3.8180   26.0230 F   0  0  0  0  0  0  0  0  0  0  0  0
  -22.8460  -13.5880   21.0840 C   0  0  0  0  0  0  0  0  0  0  0  0
  -22.1030  -12.9030   21.9500 N   0  0  0  0  0  0  0  0  0  0  0  0
  -22.4170  -14.6070   20.5450 O   0  0  0  0  0  0  0  0  0  0  0  0
  -22.4560  -12.0800   22.4140 H   0  0  0  0  0  0  0  0  0  0  0  0
  -21.1620  -13.2140   22.1500 H   0  0  0  0  0  0  0  0  0  0  0  0
  -25.4820  -15.2380   20.2640 N   0  0  0  0  0  0  0  0  0  0  0  0
  -24.7110  -15.8910   20.3520 H   0  0  0  0  0  0  0  0  0  0  0  0
  -26.3360  -15.6760   19.9410 H   0  0  0  0  0  0  0  0  0  0  0  0
  -30.6400  -24.4020   20.8800 C   0  0  0  0  0  2  0  0  0  0  0  0
  -29.9950  -25.6000   21.5950 C   0  0  0  0  0  2  0  0  0  0  0  0
  -28.5300  -25.8760   21.2190 C   0  0  0  0  0  2  0  0  0  0  0  0
  -28.4410  -26.7570   20.1030 O   0  0  0  0  0  0  0  0  0  0  0  0
  -24.6240  -31.8810   23.2190 C   0  0  0  0  0  0  0  0  0  0  0  0
  -27.2780  -27.4820   20.1080 C   0  0  0  0  0  0  0  0  0  0  0  0
  -23.4160  -30.4770   21.5790 C   0  0  0  0  0  3  0  0  0  0  0  0
  -24.8710  -28.9470   20.1450 C   0  0  0  0  0  0  0  0  0  0  0  0
  -25.9360  -30.8520   21.3690 C   0  0  0  0  0  2  0  0  0  0  0  0
  -26.0270  -29.4840   20.7270 C   0  0  0  0  0  0  0  0  0  0  0  0
  -27.2360  -28.7570   20.7080 C   0  0  0  0  0  3  0  0  0  0  0  0
  -26.1110  -26.9450   19.5300 C   0  0  0  0  0  3  0  0  0  0  0  0
  -24.9070  -27.6750   19.5460 C   0  0  0  0  0  3  0  0  0  0  0  0
  -23.6210  -29.7970   20.1980 C   0  0  0  0  0  2  0  0  0  0  0  0
  -24.6780  -31.0840   22.1150 N   0  0  0  0  0  0  0  0  0  0  0  0
  -23.5450  -32.1500   23.7630 O   0  0  0  0  0  0  0  0  0  0  0  0
  -22.7720  -29.4550   22.5390 C   0  0  0  0  0  0  0  0  0  0  0  0
  -21.4490  -29.2690   22.4090 N   0  0  0  0  0  0  0  0  0  0  0  0
  -23.4600  -28.8300   23.3510 O   0  0  0  0  0  0  0  0  0  0  0  0
  -20.9580  -29.8220   21.7220 H   0  0  0  0  0  0  0  0  0  0  0  0
  -18.0760  -28.0730   22.9040 C   0  0  0  0  0  0  0  0  0  0  0  0
  -20.6350  -28.3300   23.1780 C   0  0  0  0  0  3  0  0  0  0  0  0
  -20.7370  -26.8990   22.5950 C   0  0  0  0  0  2  0  0  0  0  0  0
  -19.6350  -26.5800   21.5810 C   0  0  0  0  0  2  0  0  0  0  0  0
  -18.2540  -26.7250   22.2270 C   0  0  0  0  0  2  0  0  0  0  0  0
  -19.1950  -28.8340   23.3370 C   0  0  0  0  0  0  0  0  0  0  0  0
  -18.9770  -30.0970   23.9290 C   0  0  0  0  0  3  0  0  0  0  0  0
  -17.6720  -30.5980   24.0950 C   0  0  0  0  0  3  0  0  0  0  0  0
  -16.5680  -29.8330   23.6810 C   0  0  0  0  0  3  0  0  0  0  0  0
  -16.7720  -28.5730   23.0910 C   0  0  0  0  0  3  0  0  0  0  0  0
  -25.9110  -32.5120   23.8380 C   0  0  0  0  0  3  0  0  0  0  0  0
  -26.4310  -31.7430   25.1120 C   0  0  1  0  0  0  0  0  0  0  0  0
  -25.3440  -31.5040   26.1860 C   0  0  0  0  0  1  0  0  0  0  0  0
  -27.0130  -30.3650   24.7160 C   0  0  0  0  0  1  0  0  0  0  0  0
  -27.5840  -32.5370   25.7710 C   0  0  0  0  0  1  0  0  0  0  0  0
  -25.6050  -33.9100   24.1640 N   0  0  0  0  0  0  0  0  0  0  0  0
  -25.9470  -34.9600   23.4050 C   0  0  0  0  0  0  0  0  0  0  0  0
  -26.6260  -34.8520   22.3790 O   0  0  0  0  0  0  0  0  0  0  0  0
  -25.0060  -34.0680   24.9610 H   0  0  0  0  0  0  0  0  0  0  0  0
  -24.2350  -36.7610   23.0220 C   0  0  0  0  0  1  0  0  0  0  0  0
  -25.4600  -36.3500   23.8550 C   0  0  0  0  0  3  0  0  0  0  0  0
  -27.5830  -37.2240   24.7230 C   0  0  0  0  0  1  0  0  0  0  0  0
  -26.4990  -37.3970   23.7610 N   0  0  0  0  0  0  0  0  0  0  0  0
  -26.0950  -38.3190   23.9030 H   0  0  0  0  0  0  0  0  0  0  0  0
  1  6  1  0
  2  1  2  0
  3  2  1  0
  3  4  2  0
  4  8  1  0
  4  6  1  0
  5  2  1  0
  6 55  1  0
  7  3  1  0
  8  9  1  0
  9 10  1  0
  9 11  1  0
 12  9  1  0
 12 13  1  0
 14 13  1  0
 14 15  1  0
 18 17  1  6
 18 15  1  0
 18 19  1  0
 18 16  1  0
 19 25  1  0
 20 25  1  0
 21 22  1  0
 21 20  1  0
 23 22  1  0
 23 30  1  0
 23 24  1  0
 25 24  1  0
 26 19  2  0
 27 28  2  0
 28 47  1  0
 29 28  1  0
 29 32  1  0
 30 27  1  0
 30 31  1  0
 31 29  2  0
 32 33  1  0
 33 34  2  0
 35 38  1  0
 35 34  1  0
 36 35  2  0
 37 36  1  0
 37 32  2  0
 38 39  1  0
 39 40  1  0
 40 41  2  0
 42 41  1  0
 42 46  1  0
 43 42  2  0
 44 39  2  0
 44 43  1  0
 45 44  1  0
 47 48  1  0
 48 51  1  0
 48 50  1  0
 49 47  2  0
 52 53  1  0
 52 27  1  0
 54 52  1  0
 55 56  1  0
 57 56  1  0
 58 60  1  0
 58 57  1  0
 59 70  2  0
 60 65  1  0
 61 69  1  0
 61 71  1  0
 62 68  1  0
 62 64  1  0
 63 69  1  0
 64 63  1  0
 65 64  2  0
 66 67  1  0
 66 60  2  0
 67 62  2  0
 68 61  1  0
 69 59  1  0
 71 73  2  0
 72 71  1  0
 74 72  1  0
 75 84  2  0
 75 80  1  0
 76 72  1  0
 76 80  1  0
 77 76  1  0
 78 79  1  0
 78 77  1  0
 79 75  1  0
 80 81  2  0
 81 82  1  0
 83 82  2  0
 84 83  1  0
 85 59  1  0
 85 90  1  0
 85 86  1  0
 86 89  1  1
 86 87  1  0
 88 86  1  0
 90 93  1  0
 91 95  1  0
 91 90  1  0
 92 91  2  0
 95 94  1  0
 97 95  1  0
 97 98  1  0
 97 96  1  0
M  ISO  4  18 100  19 100  57 101  58 101
M  END
>  <TORSDO>  (2) 
F 26

>  <SCORE>  (2) 
-11.578

>  <name>  (2) 
1

>  <ligand_id>  (2) 
1

>  <original_smiles>  (2) 
[H]c1c([H])c([H])c2c(c1[H])C([H])([H])C([H])([H])C([H])([H])C2([H])N([H])C(=O)C1([H])N(C(=O)C([H])(N([H])C(=O)C([H])(N([H])C([H])([H])[H])C([H])([H])[H])C(C([H])([H])[H])(C([H])([H])[H])C([H])([H])[H])C([H])([H])c2c([H])c(OC([H])([H])C([H])([H])C([H])([H])n3c([H])c(C([H])([H])[H])c(Cl)c3C([H])([H])[N+]([H])([H])C([H])([H])C([H])([H])C([H])([H])C([H])([H])C(C(=O)N3C([H])([H])C([H])([H])C([H])([H])C([H])(n4nc(-c5c([H])c([H])c(Oc6c([H])c([H])c(F)c([H])c6F)c([H])c5[H])c(C(=O)N([H])[H])c4N([H])[H])C3([H])[H])(C([H])([H])[H])C([H])([H])[H])c([H])c([H])c2C1([H])[H]

>  <smiles>  (2) 
[H]c1c([H])c([H])c2c(c1[H])C([H])([H])C([H])([H])C([H])([H])C2([H])N([H])C(=O)C1([H])N(C(=O)C([H])(N([H])C(=O)C([H])(N([H])C([H])([H])[H])C([H])([H])[H])C(C([H])([H])[H])(C([H])([H])[H])C([H])([H])[H])C([H])([H])c2c([H])c(OC([H])([H])C([H])([H])C([H])([H])n3c([H])c(C([H])([H])[H])c(Cl)c3C([H])([H])[N+]([H])([H])C([H])([H])C([H])([H])C([H])([H])C([H])([H])C(C(=O)N3C([H])([H])C([H])([H])C([H])([H])C([H])(n4nc(-c5c([H])c([H])c(Oc6c([H])c([H])c(F)c([H])c6F)c([H])c5[H])c(C(=O)N([H])[H])c4N([H])[H])C3([H])[H])(C([H])([H])[H])C([H])([H])[H])c([H])c([H])c2C1([H])[H]

$$$$
2:0:0
     RDKit          3D

 94102  0  0  1  0  0  0  0  0999 V2000
  -26.3760  -21.2220   18.6660 C   0  0  0  0  0  3  0  0  0  0  0  0
  -27.0170  -22.4130   18.2660 C   0  0  0  0  0  0  0  0  0  0  0  0
  -28.3040  -22.3580   17.6850 C   0  0  0  0  0  0  0  0  0  0  0  0
  -28.4890  -20.0380   18.4780 C   0  0  0  0  0  0  0  0  0  0  0  0
  -27.1100  -20.0280   18.7550 C   0  0  0  0  0  0  0  0  0  0  0  0
  -29.0370  -21.1440   17.7930 C   0  0  0  0  0  0  0  0  0  0  0  0
  -28.9210  -23.5900   17.0380 C   0  0  0  0  0  1  0  0  0  0  0  0
  -26.3080  -18.6420   19.3870 Cl  0  0  0  0  0  0  0  0  0  0  0  0
  -30.6440  -21.0160   17.1720 Cl  0  0  0  0  0  0  0  0  0  0  0  0
  -26.3430  -23.7270   18.6260 C   0  0  0  0  0  2  0  0  0  0  0  0
  -26.7770  -24.1940   20.0460 C   0  0  0  0  0  2  0  0  0  0  0  0
  -28.1050  -25.0230   20.2510 C   0  0  0  0  0  2  0  0  0  0  0  0
  -28.2390  -26.4890   20.2060 O   0  0  0  0  0  0  0  0  0  0  0  0
  -24.6100  -31.9140   23.3010 C   0  0  0  0  0  0  0  0  0  0  0  0
  -27.1470  -27.3290   20.2360 C   0  0  0  0  0  0  0  0  0  0  0  0
  -23.4000  -30.5300   21.6570 C   0  0  0  0  0  3  0  0  0  0  0  0
  -24.8260  -28.9860   20.2280 C   0  0  0  0  0  0  0  0  0  0  0  0
  -25.9570  -30.8000   21.5060 C   0  0  0  0  0  2  0  0  0  0  0  0
  -26.0050  -29.4430   20.8380 C   0  0  0  0  0  0  0  0  0  0  0  0
  -27.1660  -28.6160   20.8560 C   0  0  0  0  0  3  0  0  0  0  0  0
  -25.9620  -26.9740   19.5670 C   0  0  0  0  0  3  0  0  0  0  0  0
  -24.8070  -27.7440   19.5900 C   0  0  0  0  0  3  0  0  0  0  0  0
  -23.6140  -29.8810   20.2700 C   0  0  0  0  0  2  0  0  0  0  0  0
  -24.6730  -31.0900   22.2150 N   0  0  0  0  0  0  0  0  0  0  0  0
  -23.5260  -32.2220   23.8100 O   0  0  0  0  0  0  0  0  0  0  0  0
  -22.7350  -29.5030   22.6040 C   0  0  0  0  0  0  0  0  0  0  0  0
  -21.4110  -29.3360   22.4700 N   0  0  0  0  0  0  0  0  0  0  0  0
  -23.3970  -28.8760   23.4410 O   0  0  0  0  0  0  0  0  0  0  0  0
  -20.9400  -29.9040   21.7830 H   0  0  0  0  0  0  0  0  0  0  0  0
  -18.0150  -28.2080   22.9650 C   0  0  0  0  0  0  0  0  0  0  0  0
  -20.5750  -28.4170   23.2340 C   0  0  0  0  0  3  0  0  0  0  0  0
  -20.6520  -26.9840   22.6550 C   0  0  0  0  0  2  0  0  0  0  0  0
  -19.5460  -26.6850   21.6360 C   0  0  0  0  0  2  0  0  0  0  0  0
  -18.1660  -26.8570   22.2830 C   0  0  0  0  0  2  0  0  0  0  0  0
  -19.1480  -28.9460   23.3940 C   0  0  0  0  0  0  0  0  0  0  0  0
  -18.9550  -30.2120   23.9860 C   0  0  0  0  0  3  0  0  0  0  0  0
  -17.6620  -30.7430   24.1500 C   0  0  0  0  0  3  0  0  0  0  0  0
  -16.5420  -29.9990   23.7360 C   0  0  0  0  0  3  0  0  0  0  0  0
  -16.7170  -28.7340   23.1470 C   0  0  0  0  0  3  0  0  0  0  0  0
  -25.8940  -32.5350   23.9260 C   0  0  0  0  0  3  0  0  0  0  0  0
  -25.6000  -33.9500   24.2200 N   0  0  0  0  0  0  0  0  0  0  0  0
  -25.9530  -34.9830   23.4480 C   0  0  0  0  0  0  0  0  0  0  0  0
  -26.6270  -34.8480   22.4230 O   0  0  0  0  0  0  0  0  0  0  0  0
  -25.0040  -34.1300   25.0110 H   0  0  0  0  0  0  0  0  0  0  0  0
  -24.2440  -36.7880   23.0500 C   0  0  0  0  0  1  0  0  0  0  0  0
  -25.4700  -36.3840   23.8820 C   0  0  0  0  0  3  0  0  0  0  0  0
  -27.5980  -37.2560   24.7270 C   0  0  0  0  0  1  0  0  0  0  0  0
  -26.5120  -37.4200   23.7700 N   0  0  0  0  0  0  0  0  0  0  0  0
  -26.1150  -38.3460   23.8950 H   0  0  0  0  0  0  0  0  0  0  0  0
  -26.3860  -31.7830   25.2200 C   0  0  1  0  0  0  0  0  0  0  0  0
  -25.2720  -31.5650   26.2690 C   0  0  0  0  0  1  0  0  0  0  0  0
  -26.9610  -30.3930   24.8530 C   0  0  0  0  0  1  0  0  0  0  0  0
  -27.5330  -32.5760   25.8890 C   0  0  0  0  0  1  0  0  0  0  0  0
  -29.4090  -19.0580   19.2130 C   0  0  0  0  0  2  0  0  0  0  0  0
  -29.3920  -17.5780   18.8560 C   0  0  0  0  0  2  0  0  0  0  0  0
  -29.9690  -16.7190   19.9860 C   0  0  0  0  0  2  0  0  0  0  0  0
  -30.8290  -14.4650   20.2680 C   0  0  0  0  0  0  0  0  0  0  0  0
  -30.4800  -12.3020   19.2780 C   0  0  0  0  0  2  0  0  0  0  0  0
  -29.5470  -12.5440   18.0640 C   0  0  0  0  0  2  0  0  0  0  0  0
  -28.0630  -12.4500   18.4840 C   0  0  0  0  0  2  0  0  0  0  0  0
  -27.7290  -13.2810   19.7570 C   0  0  0  0  0  3  0  0  0  0  0  0
  -28.8020  -13.1130   20.8630 C   0  0  0  0  0  2  0  0  0  0  0  0
  -30.1360  -13.3090   20.2780 N   0  0  0  0  0  0  0  0  0  0  0  0
  -32.0480  -14.5510   20.1860 O   0  0  0  0  0  0  0  0  0  0  0  0
  -30.1810  -15.3740   19.5420 N   0  0  0  0  0  0  0  0  0  0  0  0
  -30.4510  -15.3490   18.5650 H   0  0  0  0  0  0  0  0  0  0  0  0
  -25.3220  -13.8800   20.4570 C   0  0  0  0  0  0  0  0  0  0  0  0
  -24.2480  -13.1030   20.8210 C   0  0  0  0  0  0  0  0  0  0  0  0
  -24.7150  -11.7550   20.8080 C   0  0  0  0  0  0  0  0  0  0  0  0
  -26.3730  -12.9990   20.2440 N   0  0  0  0  0  0  0  0  0  0  0  0
  -26.0120  -11.7150   20.5140 N   0  0  0  0  0  0  0  0  0  0  0  0
  -23.9830  -10.4930   20.9990 C   0  0  0  0  0  0  0  0  0  0  0  0
  -24.4000   -9.5370   21.9500 C   0  0  0  0  0  3  0  0  0  0  0  0
  -23.6690   -8.3430   22.1320 C   0  0  0  0  0  3  0  0  0  0  0  0
  -22.5040   -8.0990   21.3640 C   0  0  0  0  0  0  0  0  0  0  0  0
  -22.1070   -9.0460   20.4030 C   0  0  0  0  0  3  0  0  0  0  0  0
  -22.8400  -10.2310   20.2200 C   0  0  0  0  0  3  0  0  0  0  0  0
  -21.7490   -6.9530   21.4510 O   0  0  0  0  0  0  0  0  0  0  0  0
  -21.6780   -6.2250   22.6120 C   0  0  0  0  0  0  0  0  0  0  0  0
  -21.2260   -6.7940   23.8220 C   0  0  0  0  0  3  0  0  0  0  0  0
  -21.1040   -5.9920   24.9740 C   0  0  0  0  0  3  0  0  0  0  0  0
  -21.4230   -4.6210   24.9160 C   0  0  0  0  0  0  0  0  0  0  0  0
  -21.8680   -4.0530   23.7100 C   0  0  0  0  0  3  0  0  0  0  0  0
  -21.9930   -4.8520   22.5610 C   0  0  0  0  0  0  0  0  0  0  0  0
  -22.4020   -4.2940   21.3950 F   0  0  0  0  0  0  0  0  0  0  0  0
  -21.2980   -3.8470   26.0200 F   0  0  0  0  0  0  0  0  0  0  0  0
  -22.8480  -13.5890   21.0700 C   0  0  0  0  0  0  0  0  0  0  0  0
  -22.1090  -12.8970   21.9340 N   0  0  0  0  0  0  0  0  0  0  0  0
  -22.4130  -14.6060   20.5380 O   0  0  0  0  0  0  0  0  0  0  0  0
  -22.4760  -12.0760   22.3890 H   0  0  0  0  0  0  0  0  0  0  0  0
  -21.1700  -13.1990   22.1440 H   0  0  0  0  0  0  0  0  0  0  0  0
  -25.4800  -15.2450   20.2740 N   0  0  0  0  0  0  0  0  0  0  0  0
  -24.7030  -15.8920   20.3590 H   0  0  0  0  0  0  0  0  0  0  0  0
  -26.3350  -15.6930   19.9660 H   0  0  0  0  0  0  0  0  0  0  0  0
  1  5  1  0
  2 10  1  0
  2  1  2  0
  3  6  2  0
  3  2  1  0
  4  5  2  0
  4 54  1  0
  5  8  1  0
  6  4  1  0
  7  3  1  0
  9  6  1  0
 10 11  1  0
 11 12  1  0
 13 15  1  0
 13 12  1  0
 14 25  2  0
 15 20  1  0
 16 24  1  0
 16 26  1  0
 17 23  1  0
 17 19  1  0
 18 24  1  0
 19 20  2  0
 19 18  1  0
 21 22  1  0
 21 15  2  0
 22 17  2  0
 23 16  1  0
 24 14  1  0
 26 28  2  0
 27 26  1  0
 29 27  1  0
 30 39  2  0
 30 35  1  0
 31 27  1  0
 31 35  1  0
 32 31  1  0
 33 34  1  0
 33 32  1  0
 34 30  1  0
 35 36  2  0
 36 37  1  0
 38 37  2  0
 39 38  1  0
 40 14  1  0
 40 41  1  0
 40 50  1  0
 41 44  1  0
 42 46  1  0
 42 41  1  0
 43 42  2  0
 46 45  1  0
 48 46  1  0
 48 49  1  0
 48 47  1  0
 50 53  1  1
 50 51  1  0
 52 50  1  0
 55 54  1  0
 55 56  1  0
 57 63  1  0
 58 63  1  0
 59 60  1  0
 59 58  1  0
 61 60  1  0
 61 70  1  0
 61 62  1  0
 63 62  1  0
 64 57  2  0
 65 56  1  0
 65 57  1  0
 66 65  1  0
 67 68  2  0
 68 87  1  0
 69 68  1  0
 69 72  1  0
 70 67  1  0
 70 71  1  0
 71 69  2  0
 72 73  1  0
 73 74  2  0
 75 78  1  0
 75 74  1  0
 76 75  2  0
 77 76  1  0
 77 72  2  0
 78 79  1  0
 79 80  1  0
 80 81  2  0
 82 81  1  0
 82 86  1  0
 83 82  2  0
 84 79  2  0
 84 83  1  0
 85 84  1  0
 87 88  1  0
 88 91  1  0
 88 90  1  0
 89 87  2  0
 92 93  1  0
 92 67  1  0
 94 92  1  0
M  ISO  4  12 101  13 101  57 100  65 100
M  END
>  <TORSDO>  (3) 
F 22

>  <SCORE>  (3) 
-12.962

>  <name>  (3) 
2

>  <ligand_id>  (3) 
2

>  <original_smiles>  (3) 
[H]c1c([H])c([H])c2c(c1[H])C([H])([H])C([H])([H])C([H])([H])C2([H])N([H])C(=O)C1([H])N(C(=O)C([H])(N([H])C(=O)C([H])(N([H])C([H])([H])[H])C([H])([H])[H])C(C([H])([H])[H])(C([H])([H])[H])C([H])([H])[H])C([H])([H])c2c([H])c(OC([H])([H])C([H])([H])C([H])([H])c3c([H])c(Cl)c(C([H])([H])C([H])([H])C([H])([H])N([H])C(=O)N4C([H])([H])C([H])([H])C([H])([H])C([H])(n5nc(-c6c([H])c([H])c(Oc7c([H])c([H])c(F)c([H])c7F)c([H])c6[H])c(C(=O)N([H])[H])c5N([H])[H])C4([H])[H])c(Cl)c3C([H])([H])[H])c([H])c([H])c2C1([H])[H]

>  <smiles>  (3) 
[H]c1c([H])c([H])c2c(c1[H])C([H])([H])C([H])([H])C([H])([H])C2([H])N([H])C(=O)C1([H])N(C(=O)C([H])(N([H])C(=O)C([H])(N([H])C([H])([H])[H])C([H])([H])[H])C(C([H])([H])[H])(C([H])([H])[H])C([H])([H])[H])C([H])([H])c2c([H])c(OC([H])([H])C([H])([H])C([H])([H])c3c([H])c(Cl)c(C([H])([H])C([H])([H])C([H])([H])N([H])C(=O)N4C([H])([H])C([H])([H])C([H])([H])C([H])(n5nc(-c6c([H])c([H])c(Oc7c([H])c([H])c(F)c([H])c7F)c([H])c6[H])c(C(=O)N([H])[H])c5N([H])[H])C4([H])[H])c(Cl)c3C([H])([H])[H])c([H])c([H])c2C1([H])[H]

$$$$
3:0:0
     RDKit          3D

 90 98  0  0  1  0  0  0  0  0999 V2000
  -29.3460  -21.1670   21.3460 C   0  0  0  0  0  3  0  0  0  0  0  0
  -29.6040  -19.7410   21.2790 C   0  0  0  0  0  3  0  0  0  0  0  0
  -29.1270  -22.0170   20.2060 C   0  0  0  0  0  0  0  0  0  0  0  0
  -29.6590  -19.0050   20.0580 C   0  0  0  0  0  0  0  0  0  0  0  0
  -29.0900  -21.2620   18.9900 C   0  0  0  0  0  0  0  0  0  0  0  0
  -29.3390  -19.8290   18.9180 C   0  0  0  0  0  0  0  0  0  0  0  0
  -28.8270  -22.1360   17.5210 Cl  0  0  0  0  0  0  0  0  0  0  0  0
  -29.3280  -19.0900   17.3530 Cl  0  0  0  0  0  0  0  0  0  0  0  0
  -29.2060  -23.6580   20.2880 C   0  0  0  0  0  3  0  0  0  0  0  0
  -28.0430  -24.7920   19.9730 C   0  0  0  0  0  3  0  0  0  0  0  0
  -28.2760  -26.2970   20.1770 O   0  0  0  0  0  0  0  0  0  0  0  0
  -24.6430  -31.8930   23.2410 C   0  0  0  0  0  0  0  0  0  0  0  0
  -27.1970  -27.2380   20.1420 C   0  0  0  0  0  0  0  0  0  0  0  0
  -23.4270  -30.5110   21.6040 C   0  0  0  0  0  3  0  0  0  0  0  0
  -24.8600  -28.9470   20.1630 C   0  0  0  0  0  0  0  0  0  0  0  0
  -25.9790  -30.7810   21.4180 C   0  0  0  0  0  2  0  0  0  0  0  0
  -26.0450  -29.3980   20.7590 C   0  0  0  0  0  0  0  0  0  0  0  0
  -27.2140  -28.5570   20.7340 C   0  0  0  0  0  3  0  0  0  0  0  0
  -25.9840  -26.8710   19.5210 C   0  0  0  0  0  3  0  0  0  0  0  0
  -24.8390  -27.6930   19.5330 C   0  0  0  0  0  3  0  0  0  0  0  0
  -23.6390  -29.8480   20.2180 C   0  0  0  0  0  2  0  0  0  0  0  0
  -24.7020  -31.0830   22.1420 N   0  0  0  0  0  0  0  0  0  0  0  0
  -23.5630  -32.1760   23.7850 O   0  0  0  0  0  0  0  0  0  0  0  0
  -22.7590  -29.4960   22.5670 C   0  0  0  0  0  0  0  0  0  0  0  0
  -21.4300  -29.3240   22.4560 N   0  0  0  0  0  0  0  0  0  0  0  0
  -23.4390  -28.8650   23.3790 O   0  0  0  0  0  0  0  0  0  0  0  0
  -20.9350  -29.9010   21.7910 H   0  0  0  0  0  0  0  0  0  0  0  0
  -18.0580  -28.0950   22.9740 C   0  0  0  0  0  0  0  0  0  0  0  0
  -20.6150  -28.3760   23.2220 C   0  0  0  0  0  3  0  0  0  0  0  0
  -20.7250  -26.9490   22.6360 C   0  0  0  0  0  2  0  0  0  0  0  0
  -19.6090  -26.6250   21.6350 C   0  0  0  0  0  2  0  0  0  0  0  0
  -18.2430  -26.7380   22.3190 C   0  0  0  0  0  2  0  0  0  0  0  0
  -19.1730  -28.8700   23.3900 C   0  0  0  0  0  0  0  0  0  0  0  0
  -18.9460  -30.1320   23.9790 C   0  0  0  0  0  3  0  0  0  0  0  0
  -17.6380  -30.6240   24.1480 C   0  0  0  0  0  3  0  0  0  0  0  0
  -16.5380  -29.8490   23.7410 C   0  0  0  0  0  3  0  0  0  0  0  0
  -16.7490  -28.5830   23.1650 C   0  0  0  0  0  3  0  0  0  0  0  0
  -25.9290  -32.5260   23.8580 C   0  0  0  0  0  3  0  0  0  0  0  0
  -26.4540  -31.7480   25.1260 C   0  0  1  0  0  0  0  0  0  0  0  0
  -25.3690  -31.5010   26.2010 C   0  0  0  0  0  1  0  0  0  0  0  0
  -27.0350  -30.3720   24.7280 C   0  0  0  0  0  1  0  0  0  0  0  0
  -27.6100  -32.5370   25.7810 C   0  0  0  0  0  1  0  0  0  0  0  0
  -25.6200  -33.9220   24.2020 N   0  0  0  0  0  0  0  0  0  0  0  0
  -25.9300  -34.9820   23.4420 C   0  0  0  0  0  0  0  0  0  0  0  0
  -26.5730  -34.8860   22.3930 O   0  0  0  0  0  0  0  0  0  0  0  0
  -25.0410  -34.0690   25.0160 H   0  0  0  0  0  0  0  0  0  0  0  0
  -24.1840  -36.7710   23.1480 C   0  0  0  0  0  1  0  0  0  0  0  0
  -25.4520  -36.3680   23.9180 C   0  0  0  0  0  3  0  0  0  0  0  0
  -27.6070  -37.2650   24.6860 C   0  0  0  0  0  1  0  0  0  0  0  0
  -26.4770  -37.4260   23.7730 N   0  0  0  0  0  0  0  0  0  0  0  0
  -26.0710  -38.3440   23.9280 H   0  0  0  0  0  0  0  0  0  0  0  0
  -30.3480  -17.5270   19.9390 C   0  0  0  0  0  2  0  0  0  0  0  0
  -30.5730  -14.9110   20.2610 C   0  0  0  0  0  0  0  0  0  0  0  0
  -30.3940  -12.5990   19.3060 C   0  0  0  0  0  2  0  0  0  0  0  0
  -29.4490  -12.6060   18.0850 C   0  0  0  0  0  2  0  0  0  0  0  0
  -27.9940  -12.3780   18.5400 C   0  0  0  0  0  2  0  0  0  0  0  0
  -27.5970  -13.3150   19.7120 C   0  0  0  0  0  3  0  0  0  0  0  0
  -28.6590  -13.3020   20.8310 C   0  0  0  0  0  2  0  0  0  0  0  0
  -29.9380  -13.6800   20.2170 N   0  0  0  0  0  0  0  0  0  0  0  0
  -31.7780  -14.9510   20.0030 O   0  0  0  0  0  0  0  0  0  0  0  0
  -29.8320  -16.1120   20.3360 N   0  0  0  0  0  0  0  0  0  0  0  0
  -28.8430  -16.0130   20.4830 H   0  0  0  0  0  0  0  0  0  0  0  0
  -25.2330  -13.9000   20.5090 C   0  0  0  0  0  0  0  0  0  0  0  0
  -24.1720  -13.1260   20.8930 C   0  0  0  0  0  0  0  0  0  0  0  0
  -24.6290  -11.7740   20.8400 C   0  0  0  0  0  0  0  0  0  0  0  0
  -26.2660  -13.0210   20.2310 N   0  0  0  0  0  0  0  0  0  0  0  0
  -25.9170  -11.7380   20.5060 N   0  0  0  0  0  0  0  0  0  0  0  0
  -23.9040  -10.5100   21.0240 C   0  0  0  0  0  0  0  0  0  0  0  0
  -24.3290   -9.5450   21.9630 C   0  0  0  0  0  3  0  0  0  0  0  0
  -23.6020   -8.3490   22.1360 C   0  0  0  0  0  3  0  0  0  0  0  0
  -22.4350   -8.1100   21.3720 C   0  0  0  0  0  0  0  0  0  0  0  0
  -22.0280   -9.0650   20.4260 C   0  0  0  0  0  3  0  0  0  0  0  0
  -22.7550  -10.2530   20.2490 C   0  0  0  0  0  3  0  0  0  0  0  0
  -21.6790   -6.9670   21.4550 O   0  0  0  0  0  0  0  0  0  0  0  0
  -21.5970   -6.2410   22.6160 C   0  0  0  0  0  0  0  0  0  0  0  0
  -21.1090   -6.8040   23.8170 C   0  0  0  0  0  3  0  0  0  0  0  0
  -20.9800   -6.0030   24.9680 C   0  0  0  0  0  3  0  0  0  0  0  0
  -21.3240   -4.6390   24.9190 C   0  0  0  0  0  0  0  0  0  0  0  0
  -21.8030   -4.0750   23.7240 C   0  0  0  0  0  3  0  0  0  0  0  0
  -21.9350   -4.8720   22.5740 C   0  0  0  0  0  0  0  0  0  0  0  0
  -22.3780   -4.3210   21.4200 F   0  0  0  0  0  0  0  0  0  0  0  0
  -21.1900   -3.8650   26.0230 F   0  0  0  0  0  0  0  0  0  0  0  0
  -22.7800  -13.6060   21.1920 C   0  0  0  0  0  0  0  0  0  0  0  0
  -22.0630  -12.8950   22.0530 N   0  0  0  0  0  0  0  0  0  0  0  0
  -22.3380  -14.6350   20.6860 O   0  0  0  0  0  0  0  0  0  0  0  0
  -22.4340  -12.0540   22.4690 H   0  0  0  0  0  0  0  0  0  0  0  0
  -21.1300  -13.1940   22.3040 H   0  0  0  0  0  0  0  0  0  0  0  0
  -25.3970  -15.2730   20.3440 N   0  0  0  0  0  0  0  0  0  0  0  0
  -24.6180  -15.9160   20.4620 H   0  0  0  0  0  0  0  0  0  0  0  0
  -26.2090  -15.7120   19.9300 H   0  0  0  0  0  0  0  0  0  0  0  0
  2  1  1  0
  3  9  1  0
  3  1  2  0
  4  2  2  0
  5  3  1  0
  6  5  2  0
  6  4  1  0
  7  5  1  0
  8  6  1  0
 10 11  1  0
 10  9  2  0
 12 23  2  0
 13 11  1  0
 13 18  1  0
 14 22  1  0
 14 24  1  0
 15 21  1  0
 15 17  1  0
 16 22  1  0
 17 16  1  0
 18 17  2  0
 19 20  1  0
 19 13  2  0
 20 15  2  0
 21 14  1  0
 22 12  1  0
 24 26  2  0
 25 24  1  0
 27 25  1  0
 28 37  2  0
 28 33  1  0
 29 25  1  0
 29 33  1  0
 30 29  1  0
 31 32  1  0
 31 30  1  0
 32 28  1  0
 33 34  2  0
 34 35  1  0
 36 35  2  0
 37 36  1  0
 38 12  1  0
 38 43  1  0
 38 39  1  0
 39 42  1  1
 39 40  1  0
 41 39  1  0
 43 46  1  0
 44 48  1  0
 44 43  1  0
 45 44  2  0
 48 47  1  0
 50 48  1  0
 50 51  1  0
 50 49  1  0
 52  4  1  0
 52 61  1  0
 53 61  1  0
 54 59  1  0
 55 56  1  0
 55 54  1  0
 57 56  1  0
 57 66  1  0
 57 58  1  0
 59 53  1  0
 59 58  1  0
 60 53  2  0
 61 62  1  0
 63 64  2  0
 64 83  1  0
 65 64  1  0
 65 68  1  0
 66 67  1  0
 66 63  1  0
 67 65  2  0
 68 69  1  0
 69 70  2  0
 71 74  1  0
 71 70  1  0
 72 71  2  0
 73 72  1  0
 73 68  2  0
 74 75  1  0
 75 76  1  0
 76 77  2  0
 78 77  1  0
 78 82  1  0
 79 78  2  0
 80 75  2  0
 80 79  1  0
 81 80  1  0
 83 84  1  0
 84 87  1  0
 84 86  1  0
 85 83  2  0
 88 89  1  0
 88 63  1  0
 90 88  1  0
M  ISO  4  10 101  11 101  53 100  61 100
M  END
>  <TORSDO>  (4) 
F 19

>  <SCORE>  (4) 
-14.082

>  <name>  (4) 
3

>  <ligand_id>  (4) 
3

>  <original_smiles>  (4) 
[H]c1c([H])c([H])c2c(c1[H])C([H])([H])C([H])([H])C([H])([H])C2([H])N([H])C(=O)C1([H])N(C(=O)C([H])(N([H])C(=O)C([H])(N([H])C([H])([H])[H])C([H])([H])[H])C(C([H])([H])[H])(C([H])([H])[H])C([H])([H])[H])C([H])([H])c2c([H])c(OC([H])([H])C([H])([H])c3c([H])c([H])c(C([H])([H])N([H])C(=O)N4C([H])([H])C([H])([H])C([H])([H])C([H])(n5nc(-c6c([H])c([H])c(Oc7c([H])c([H])c(F)c([H])c7F)c([H])c6[H])c(C(=O)N([H])[H])c5N([H])[H])C4([H])[H])c(Cl)c3Cl)c([H])c([H])c2C1([H])[H]

>  <smiles>  (4) 
[H]c1c([H])c([H])c2c(c1[H])C([H])([H])C([H])([H])C([H])([H])C2([H])N([H])C(=O)C1([H])N(C(=O)C([H])(N([H])C(=O)C([H])(N([H])C([H])([H])[H])C([H])([H])[H])C(C([H])([H])[H])(C([H])([H])[H])C([H])([H])[H])C([H])([H])c2c([H])c(OC([H])([H])C([H])([H])c3c([H])c([H])c(C([H])([H])N([H])C(=O)N4C([H])([H])C([H])([H])C([H])([H])C([H])(n5nc(-c6c([H])c([H])c(Oc7c([H])c([H])c(F)c([H])c7F)c([H])c6[H])c(C(=O)N([H])[H])c5N([H])[H])C4([H])[H])c(Cl)c3Cl)c([H])c([H])c2C1([H])[H]

$$$$
4:0:0
     RDKit          3D

 91 99  0  0  1  0  0  0  0  0999 V2000
  -31.0440  -18.7360   18.2700 C   0  0  0  0  0  3  0  0  0  0  0  0
  -29.6620  -18.4690   20.6600 C   0  0  0  0  0  3  0  0  0  0  0  0
  -30.7340  -19.8980   19.0040 C   0  0  0  0  0  0  0  0  0  0  0  0
  -30.6960  -17.4420   18.7090 C   0  0  0  0  0  0  0  0  0  0  0  0
  -29.9520  -19.8150   20.1840 C   0  0  0  0  0  0  0  0  0  0  0  0
  -30.0840  -17.2550   19.9820 C   0  0  0  0  0  0  0  0  0  0  0  0
  -31.3090  -21.2110   18.4880 C   0  0  0  0  0  1  0  0  0  0  0  0
  -30.9770  -16.3070   17.7310 C   0  0  0  0  0  1  0  0  0  0  0  0
  -30.6080  -14.7530   20.4850 C   0  0  0  0  0  0  0  0  0  0  0  0
  -30.4290  -12.4520   19.5680 C   0  0  0  0  0  2  0  0  0  0  0  0
  -29.5520  -12.5200   18.2980 C   0  0  0  0  0  2  0  0  0  0  0  0
  -28.0580  -12.3910   18.6620 C   0  0  0  0  0  2  0  0  0  0  0  0
  -27.6360  -13.2910   19.8560 C   0  0  0  0  0  3  0  0  0  0  0  0
  -28.6510  -13.2220   21.0190 C   0  0  0  0  0  2  0  0  0  0  0  0
  -29.9730  -13.5330   20.4680 N   0  0  0  0  0  0  0  0  0  0  0  0
  -31.8220  -14.8160   20.2880 O   0  0  0  0  0  0  0  0  0  0  0  0
  -29.8200  -15.8930   20.5150 N   0  0  0  0  0  0  0  0  0  0  0  0
  -28.8740  -15.7330   20.8290 H   0  0  0  0  0  0  0  0  0  0  0  0
  -25.2200  -13.8830   20.4970 C   0  0  0  0  0  0  0  0  0  0  0  0
  -24.1460  -13.1100   20.8420 C   0  0  0  0  0  0  0  0  0  0  0  0
  -24.6140  -11.7620   20.8510 C   0  0  0  0  0  0  0  0  0  0  0  0
  -26.2750  -13.0060   20.3020 N   0  0  0  0  0  0  0  0  0  0  0  0
  -25.9130  -11.7250   20.5830 N   0  0  0  0  0  0  0  0  0  0  0  0
  -23.8830  -10.5010   21.0360 C   0  0  0  0  0  0  0  0  0  0  0  0
  -24.2920   -9.5400   21.9880 C   0  0  0  0  0  3  0  0  0  0  0  0
  -23.5570   -8.3450   22.1590 C   0  0  0  0  0  3  0  0  0  0  0  0
  -22.4000   -8.1060   21.3800 C   0  0  0  0  0  0  0  0  0  0  0  0
  -22.0110   -9.0540   20.4160 C   0  0  0  0  0  3  0  0  0  0  0  0
  -22.7480  -10.2390   20.2420 C   0  0  0  0  0  3  0  0  0  0  0  0
  -21.6410   -6.9640   21.4580 O   0  0  0  0  0  0  0  0  0  0  0  0
  -21.5730   -6.2250   22.6130 C   0  0  0  0  0  0  0  0  0  0  0  0
  -21.1400   -6.7870   23.8350 C   0  0  0  0  0  3  0  0  0  0  0  0
  -21.0200   -5.9730   24.9790 C   0  0  0  0  0  3  0  0  0  0  0  0
  -21.3200   -4.6010   24.9020 C   0  0  0  0  0  0  0  0  0  0  0  0
  -21.7490   -4.0400   23.6860 C   0  0  0  0  0  3  0  0  0  0  0  0
  -21.8730   -4.8500   22.5450 C   0  0  0  0  0  0  0  0  0  0  0  0
  -22.2660   -4.3000   21.3700 F   0  0  0  0  0  0  0  0  0  0  0  0
  -21.1950   -3.8180   26.0000 F   0  0  0  0  0  0  0  0  0  0  0  0
  -22.7390  -13.5910   21.0510 C   0  0  0  0  0  0  0  0  0  0  0  0
  -21.9680  -12.9190   21.9000 N   0  0  0  0  0  0  0  0  0  0  0  0
  -22.3250  -14.6070   20.4930 O   0  0  0  0  0  0  0  0  0  0  0  0
  -22.3070  -12.1040   22.3890 H   0  0  0  0  0  0  0  0  0  0  0  0
  -21.0250  -13.2410   22.0680 H   0  0  0  0  0  0  0  0  0  0  0  0
  -25.3750  -15.2520   20.3090 N   0  0  0  0  0  0  0  0  0  0  0  0
  -24.5810  -15.8780   20.3660 H   0  0  0  0  0  0  0  0  0  0  0  0
  -26.2200  -15.7140   19.9910 H   0  0  0  0  0  0  0  0  0  0  0  0
  -29.5810  -21.1470   20.9740 C   0  0  0  0  0  2  0  0  0  0  0  0
  -28.8580  -22.3930   20.2470 C   0  0  0  0  0  2  0  0  0  0  0  0
  -29.1090  -23.9130   20.7120 C   0  0  0  0  0  3  0  0  0  0  0  0
  -28.2740  -25.0300   19.9070 C   0  0  0  0  0  3  0  0  0  0  0  0
  -28.3600  -26.4770   20.2610 O   0  0  0  0  0  0  0  0  0  0  0  0
  -24.6310  -31.8980   23.2430 C   0  0  0  0  0  0  0  0  0  0  0  0
  -27.2370  -27.3300   20.1660 C   0  0  0  0  0  0  0  0  0  0  0  0
  -23.4210  -30.4960   21.6090 C   0  0  0  0  0  3  0  0  0  0  0  0
  -24.8680  -28.9550   20.1640 C   0  0  0  0  0  0  0  0  0  0  0  0
  -25.9560  -30.8170   21.4080 C   0  0  0  0  0  2  0  0  0  0  0  0
  -26.0350  -29.4340   20.7680 C   0  0  0  0  0  0  0  0  0  0  0  0
  -27.2150  -28.6290   20.7700 C   0  0  0  0  0  3  0  0  0  0  0  0
  -26.0580  -26.9350   19.4890 C   0  0  0  0  0  3  0  0  0  0  0  0
  -24.8830  -27.7140   19.5110 C   0  0  0  0  0  3  0  0  0  0  0  0
  -23.6270  -29.8230   20.2250 C   0  0  0  0  0  2  0  0  0  0  0  0
  -24.6890  -31.0880   22.1450 N   0  0  0  0  0  0  0  0  0  0  0  0
  -23.5500  -32.1730   23.7830 O   0  0  0  0  0  0  0  0  0  0  0  0
  -22.7670  -29.4760   22.5710 C   0  0  0  0  0  0  0  0  0  0  0  0
  -21.4420  -29.2930   22.4460 N   0  0  0  0  0  0  0  0  0  0  0  0
  -23.4500  -28.8560   23.3890 O   0  0  0  0  0  0  0  0  0  0  0  0
  -20.9540  -29.8450   21.7560 H   0  0  0  0  0  0  0  0  0  0  0  0
  -18.0740  -28.0640   22.9420 C   0  0  0  0  0  0  0  0  0  0  0  0
  -20.6290  -28.3540   23.2210 C   0  0  0  0  0  3  0  0  0  0  0  0
  -20.7470  -26.9180   22.6580 C   0  0  0  0  0  2  0  0  0  0  0  0
  -19.6540  -26.5750   21.6410 C   0  0  0  0  0  2  0  0  0  0  0  0
  -18.2680  -26.7110   22.2790 C   0  0  0  0  0  2  0  0  0  0  0  0
  -19.1820  -28.8410   23.3710 C   0  0  0  0  0  0  0  0  0  0  0  0
  -18.9480  -30.1050   23.9560 C   0  0  0  0  0  3  0  0  0  0  0  0
  -17.6370  -30.5940   24.1110 C   0  0  0  0  0  3  0  0  0  0  0  0
  -16.5440  -29.8150   23.6950 C   0  0  0  0  0  3  0  0  0  0  0  0
  -16.7620  -28.5510   23.1190 C   0  0  0  0  0  3  0  0  0  0  0  0
  -25.9150  -32.5320   23.8590 C   0  0  0  0  0  3  0  0  0  0  0  0
  -26.4390  -31.7590   25.1310 C   0  0  1  0  0  0  0  0  0  0  0  0
  -25.3520  -31.5190   26.2060 C   0  0  0  0  0  1  0  0  0  0  0  0
  -27.0180  -30.3830   24.7290 C   0  0  0  0  0  1  0  0  0  0  0  0
  -27.5980  -32.5490   25.7830 C   0  0  0  0  0  1  0  0  0  0  0  0
  -25.6070  -33.9290   24.1940 N   0  0  0  0  0  0  0  0  0  0  0  0
  -25.9350  -34.9830   23.4330 C   0  0  0  0  0  0  0  0  0  0  0  0
  -26.5990  -34.8800   22.3990 O   0  0  0  0  0  0  0  0  0  0  0  0
  -25.0130  -34.0830   24.9960 H   0  0  0  0  0  0  0  0  0  0  0  0
  -24.2050  -36.7730   23.0850 C   0  0  0  0  0  1  0  0  0  0  0  0
  -25.4490  -36.3710   23.8920 C   0  0  0  0  0  3  0  0  0  0  0  0
  -27.5900  -37.2520   24.7100 C   0  0  0  0  0  1  0  0  0  0  0  0
  -26.4830  -37.4250   23.7730 N   0  0  0  0  0  0  0  0  0  0  0  0
  -26.0800  -38.3440   23.9270 H   0  0  0  0  0  0  0  0  0  0  0  0
  1  4  2  0
  1  3  1  0
  3  5  2  0
  4  6  1  0
  5  2  1  0
  5 47  1  0
  6 17  1  0
  6  2  2  0
  7  3  1  0
  8  4  1  0
  9 17  1  0
 10 15  1  0
 11 12  1  0
 11 10  1  0
 13 12  1  0
 13 22  1  0
 13 14  1  0
 15  9  1  0
 15 14  1  0
 16  9  2  0
 17 18  1  0
 19 20  2  0
 20 21  1  0
 20 39  1  0
 21 24  1  0
 22 19  1  0
 22 23  1  0
 23 21  2  0
 24 25  1  0
 25 26  2  0
 27 30  1  0
 27 26  1  0
 28 27  2  0
 29 28  1  0
 29 24  2  0
 30 31  1  0
 31 32  1  0
 32 33  2  0
 34 33  1  0
 34 38  1  0
 35 34  2  0
 36 31  2  0
 36 35  1  0
 37 36  1  0
 39 40  1  0
 40 43  1  0
 40 42  1  0
 41 39  2  0
 44 45  1  0
 44 19  1  0
 46 44  1  0
 48 49  1  0
 48 47  1  0
 50 51  1  0
 50 49  2  0
 52 63  2  0
 53 51  1  0
 53 58  1  0
 54 62  1  0
 54 64  1  0
 55 61  1  0
 55 57  1  0
 56 62  1  0
 57 58  2  0
 57 56  1  0
 59 60  1  0
 59 53  2  0
 60 55  2  0
 61 54  1  0
 62 52  1  0
 64 66  2  0
 65 64  1  0
 67 65  1  0
 68 77  2  0
 68 73  1  0
 69 65  1  0
 69 73  1  0
 70 69  1  0
 71 72  1  0
 71 70  1  0
 72 68  1  0
 73 74  2  0
 74 75  1  0
 76 75  2  0
 77 76  1  0
 78 52  1  0
 78 83  1  0
 78 79  1  0
 79 82  1  1
 79 80  1  0
 81 79  1  0
 83 86  1  0
 84 88  1  0
 84 83  1  0
 85 84  2  0
 88 87  1  0
 90 88  1  0
 90 91  1  0
 90 89  1  0
M  ISO  4   9 100  17 100  50 101  51 101
M  END
>  <TORSDO>  (5) 
F 20

>  <SCORE>  (5) 
-13.422

>  <name>  (5) 
4

>  <ligand_id>  (5) 
4

>  <original_smiles>  (5) 
[H]c1c([H])c([H])c2c(c1[H])C([H])([H])C([H])([H])C([H])([H])C2([H])N([H])C(=O)C1([H])N(C(=O)C([H])(N([H])C(=O)C([H])(N([H])C([H])([H])[H])C([H])([H])[H])C(C([H])([H])[H])(C([H])([H])[H])C([H])([H])[H])C([H])([H])c2c([H])c(OC([H])([H])C([H])([H])C([H])([H])C([H])([H])c3c([H])c(N([H])C(=O)N4C([H])([H])C([H])([H])C([H])([H])C([H])(n5nc(-c6c([H])c([H])c(Oc7c([H])c([H])c(F)c([H])c7F)c([H])c6[H])c(C(=O)N([H])[H])c5N([H])[H])C4([H])[H])c(C([H])([H])[H])c([H])c3C([H])([H])[H])c([H])c([H])c2C1([H])[H]

>  <smiles>  (5) 
[H]c1c([H])c([H])c2c(c1[H])C([H])([H])C([H])([H])C([H])([H])C2([H])N([H])C(=O)C1([H])N(C(=O)C([H])(N([H])C(=O)C([H])(N([H])C([H])([H])[H])C([H])([H])[H])C(C([H])([H])[H])(C([H])([H])[H])C([H])([H])[H])C([H])([H])c2c([H])c(OC([H])([H])C([H])([H])C([H])([H])C([H])([H])c3c([H])c(N([H])C(=O)N4C([H])([H])C([H])([H])C([H])([H])C([H])(n5nc(-c6c([H])c([H])c(Oc7c([H])c([H])c(F)c([H])c7F)c([H])c6[H])c(C(=O)N([H])[H])c5N([H])[H])C4([H])[H])c(C([H])([H])[H])c([H])c3C([H])([H])[H])c([H])c([H])c2C1([H])[H]

$$$$
5:0:0
     RDKit          3D

 93101  0  0  1  0  0  0  0  0999 V2000
  -29.4430  -21.7570   23.7920 C   0  0  0  0  0  3  0  0  0  0  0  0
  -30.0970  -21.5300   21.4510 C   0  0  0  0  0  0  0  0  0  0  0  0
  -29.4420  -22.8470   21.2500 C   0  0  0  0  0  0  0  0  0  0  0  0
  -30.1960  -21.1110   22.8050 C   0  0  0  0  0  0  0  0  0  0  0  0
  -28.4900  -23.1860   22.2600 C   0  0  0  0  0  0  0  0  0  0  0  0
  -28.5380  -22.7010   23.5140 N   0  0  0  0  0  0  0  0  0  0  0  0
  -31.2570  -19.8390   23.3190 Cl  0  0  0  0  0  0  0  0  0  0  0  0
  -25.9400  -23.2930   22.1470 C   0  0  0  0  0  1  0  0  0  0  0  0
  -27.2650  -24.0750   22.0340 C   0  0  0  0  0  2  0  0  0  0  0  0
  -30.6870  -20.4690   20.4170 C   0  0  0  0  0  2  0  0  0  0  0  0
  -30.1810  -18.9030   20.5060 C   0  0  0  0  0  3  0  0  0  0  0  0
  -31.1900  -17.6300   20.3440 C   0  0  0  0  0  3  0  0  0  0  0  0
  -31.3870  -14.9970   20.2930 C   0  0  0  0  0  0  0  0  0  0  0  0
  -31.0600  -12.7220   19.3020 C   0  0  0  0  0  2  0  0  0  0  0  0
  -30.1520  -12.8360   18.0560 C   0  0  0  0  0  2  0  0  0  0  0  0
  -28.6670  -12.7610   18.4580 C   0  0  0  0  0  2  0  0  0  0  0  0
  -28.3280  -13.6890   19.6550 C   0  0  0  0  0  3  0  0  0  0  0  0
  -29.3540  -13.5420   20.7990 C   0  0  0  0  0  2  0  0  0  0  0  0
  -30.6830  -13.8130   20.2330 N   0  0  0  0  0  0  0  0  0  0  0  0
  -32.5710  -15.0180   19.9440 O   0  0  0  0  0  0  0  0  0  0  0  0
  -30.7030  -16.1850   20.5400 N   0  0  0  0  0  0  0  0  0  0  0  0
  -29.7390  -16.0740   20.8190 H   0  0  0  0  0  0  0  0  0  0  0  0
  -25.9870  -14.4510   20.3680 C   0  0  0  0  0  0  0  0  0  0  0  0
  -24.8590  -13.7550   20.7100 C   0  0  0  0  0  0  0  0  0  0  0  0
  -25.2150  -12.3730   20.6550 C   0  0  0  0  0  0  0  0  0  0  0  0
  -26.9600  -13.4970   20.1220 N   0  0  0  0  0  0  0  0  0  0  0  0
  -26.5030  -12.2400   20.3600 N   0  0  0  0  0  0  0  0  0  0  0  0
  -24.3910  -11.1680   20.8100 C   0  0  0  0  0  0  0  0  0  0  0  0
  -24.7390  -10.1440   21.7200 C   0  0  0  0  0  3  0  0  0  0  0  0
  -23.9170   -9.0050   21.8640 C   0  0  0  0  0  3  0  0  0  0  0  0
  -22.7340   -8.8820   21.0970 C   0  0  0  0  0  0  0  0  0  0  0  0
  -22.4060   -9.8910   20.1750 C   0  0  0  0  0  3  0  0  0  0  0  0
  -23.2270  -11.0220   20.0300 C   0  0  0  0  0  3  0  0  0  0  0  0
  -21.8880   -7.8000   21.1520 O   0  0  0  0  0  0  0  0  0  0  0  0
  -21.7540   -7.0490   22.2920 C   0  0  0  0  0  0  0  0  0  0  0  0
  -21.3630   -7.6220   23.5210 C   0  0  0  0  0  3  0  0  0  0  0  0
  -21.1710   -6.8020   24.6510 C   0  0  0  0  0  3  0  0  0  0  0  0
  -21.3610   -5.4110   24.5520 C   0  0  0  0  0  0  0  0  0  0  0  0
  -21.7450   -4.8360   23.3270 C   0  0  0  0  0  3  0  0  0  0  0  0
  -21.9390   -5.6540   22.1990 C   0  0  0  0  0  0  0  0  0  0  0  0
  -22.2900   -5.0940   21.0160 F   0  0  0  0  0  0  0  0  0  0  0  0
  -21.1680   -4.6210   25.6340 F   0  0  0  0  0  0  0  0  0  0  0  0
  -23.5000  -14.3330   20.9760 C   0  0  0  0  0  0  0  0  0  0  0  0
  -22.7170  -13.6860   21.8310 N   0  0  0  0  0  0  0  0  0  0  0  0
  -23.1440  -15.3930   20.4620 O   0  0  0  0  0  0  0  0  0  0  0  0
  -23.0200  -12.8290   22.2690 H   0  0  0  0  0  0  0  0  0  0  0  0
  -21.8020  -14.0550   22.0540 H   0  0  0  0  0  0  0  0  0  0  0  0
  -26.2600  -15.8080   20.2240 N   0  0  0  0  0  0  0  0  0  0  0  0
  -25.5460  -16.5200   20.3400 H   0  0  0  0  0  0  0  0  0  0  0  0
  -27.1400  -16.1860   19.8960 H   0  0  0  0  0  0  0  0  0  0  0  0
  -29.7350  -24.0000   20.1730 C   0  0  0  0  0  3  0  0  0  0  0  0
  -29.5690  -25.5650   20.6650 C   0  0  0  0  0  3  0  0  0  0  0  0
  -29.3870  -26.7740   19.8020 O   0  0  0  0  0  0  0  0  0  0  0  0
  -24.7640  -31.4090   22.9770 C   0  0  0  0  0  0  0  0  0  0  0  0
  -28.1620  -27.4680   19.8200 C   0  0  0  0  0  0  0  0  0  0  0  0
  -23.8560  -29.9420   21.2120 C   0  0  0  0  0  3  0  0  0  0  0  0
  -25.5830  -28.7150   19.7740 C   0  0  0  0  0  0  0  0  0  0  0  0
  -26.3230  -30.6510   21.1630 C   0  0  0  0  0  2  0  0  0  0  0  0
  -26.6400  -29.3410   20.4460 C   0  0  0  0  0  0  0  0  0  0  0  0
  -27.9360  -28.7330   20.4550 C   0  0  0  0  0  3  0  0  0  0  0  0
  -27.0780  -26.8910   19.1320 C   0  0  0  0  0  3  0  0  0  0  0  0
  -25.8030  -27.4970   19.1080 C   0  0  0  0  0  3  0  0  0  0  0  0
  -24.2200  -29.3850   19.8110 C   0  0  0  0  0  2  0  0  0  0  0  0
  -24.9940  -30.6870   21.8420 N   0  0  0  0  0  0  0  0  0  0  0  0
  -23.6310  -31.4850   23.4790 O   0  0  0  0  0  0  0  0  0  0  0  0
  -23.3220  -28.7830   22.0890 C   0  0  0  0  0  0  0  0  0  0  0  0
  -22.0390  -28.4290   21.9080 N   0  0  0  0  0  0  0  0  0  0  0  0
  -24.0640  -28.2050   22.8870 O   0  0  0  0  0  0  0  0  0  0  0  0
  -21.4960  -28.9540   21.2380 H   0  0  0  0  0  0  0  0  0  0  0  0
  -18.8450  -26.7560   22.2420 C   0  0  0  0  0  0  0  0  0  0  0  0
  -21.3410  -27.3360   22.5910 C   0  0  0  0  0  3  0  0  0  0  0  0
  -21.6470  -25.9790   21.9170 C   0  0  0  0  0  2  0  0  0  0  0  0
  -20.6110  -25.5860   20.8580 C   0  0  0  0  0  2  0  0  0  0  0  0
  -19.2120  -25.4960   21.4760 C   0  0  0  0  0  2  0  0  0  0  0  0
  -19.8440  -27.6280   22.7510 C   0  0  0  0  0  0  0  0  0  0  0  0
  -19.4490  -28.8010   23.4280 C   0  0  0  0  0  3  0  0  0  0  0  0
  -18.0870  -29.1080   23.5990 C   0  0  0  0  0  3  0  0  0  0  0  0
  -17.1010  -28.2340   23.1090 C   0  0  0  0  0  3  0  0  0  0  0  0
  -17.4820  -27.0600   22.4360 C   0  0  0  0  0  3  0  0  0  0  0  0
  -25.9080  -32.1910   23.6940 C   0  0  0  0  0  3  0  0  0  0  0  0
  -25.3810  -33.5150   24.0610 N   0  0  0  0  0  0  0  0  0  0  0  0
  -25.6060  -34.6420   23.3720 C   0  0  0  0  0  0  0  0  0  0  0  0
  -26.3440  -34.6830   22.3820 O   0  0  0  0  0  0  0  0  0  0  0  0
  -24.7160  -33.5410   24.8190 H   0  0  0  0  0  0  0  0  0  0  0  0
  -23.6580  -36.1850   22.9890 C   0  0  0  0  0  1  0  0  0  0  0  0
  -24.9020  -35.9240   23.8530 C   0  0  0  0  0  3  0  0  0  0  0  0
  -26.8450  -37.0590   24.8340 C   0  0  0  0  0  1  0  0  0  0  0  0
  -25.7780  -37.1170   23.8370 N   0  0  0  0  0  0  0  0  0  0  0  0
  -25.2400  -37.9640   24.0000 H   0  0  0  0  0  0  0  0  0  0  0  0
  -26.4650  -31.4450   24.9690 C   0  0  1  0  0  0  0  0  0  0  0  0
  -25.3640  -31.0150   25.9670 C   0  0  0  0  0  1  0  0  0  0  0  0
  -27.2490  -30.1770   24.5610 C   0  0  0  0  0  1  0  0  0  0  0  0
  -27.4680  -32.3600   25.7090 C   0  0  0  0  0  1  0  0  0  0  0  0
  2  4  1  0
  3  2  2  0
  3  5  1  0
  4  7  1  0
  4  1  2  0
  5  6  2  0
  6  1  1  0
  9  8  1  0
  9  5  1  0
 10 11  1  0
 10  2  1  0
 12 11  2  0
 12 21  1  0
 13 21  1  0
 14 19  1  0
 15 16  1  0
 15 14  1  0
 17 16  1  0
 17 26  1  0
 17 18  1  0
 19 13  1  0
 19 18  1  0
 20 13  2  0
 21 22  1  0
 23 24  2  0
 24 43  1  0
 25 24  1  0
 25 28  1  0
 26 27  1  0
 26 23  1  0
 27 25  2  0
 28 29  1  0
 29 30  2  0
 31 34  1  0
 31 30  1  0
 32 31  2  0
 33 32  1  0
 33 28  2  0
 34 35  1  0
 35 36  1  0
 36 37  2  0
 38 37  1  0
 38 42  1  0
 39 38  2  0
 40 35  2  0
 40 39  1  0
 41 40  1  0
 43 44  1  0
 44 47  1  0
 44 46  1  0
 45 43  2  0
 48 49  1  0
 48 23  1  0
 50 48  1  0
 51 52  2  0
 51  3  1  0
 53 55  1  0
 53 52  1  0
 54 65  2  0
 55 60  1  0
 56 64  1  0
 56 66  1  0
 57 63  1  0
 57 59  1  0
 58 64  1  0
 59 60  2  0
 59 58  1  0
 61 55  2  0
 62 61  1  0
 62 57  2  0
 63 56  1  0
 64 54  1  0
 66 68  2  0
 67 66  1  0
 69 67  1  0
 70 79  2  0
 70 75  1  0
 71 67  1  0
 71 75  1  0
 72 71  1  0
 73 74  1  0
 73 72  1  0
 74 70  1  0
 75 76  2  0
 76 77  1  0
 78 77  2  0
 79 78  1  0
 80 54  1  0
 80 81  1  0
 80 90  1  0
 81 84  1  0
 82 86  1  0
 82 81  1  0
 83 82  2  0
 86 85  1  0
 88 86  1  0
 88 89  1  0
 88 87  1  0
 90 93  1  1
 90 91  1  0
 92 90  1  0
M  ISO  4  13 100  21 100  52 101  53 101
M  END
>  <TORSDO>  (6) 
F 22

>  <SCORE>  (6) 
-8.705

>  <name>  (6) 
5

>  <ligand_id>  (6) 
5

>  <original_smiles>  (6) 
[H]c1nc(C([H])([H])C([H])([H])[H])c(C([H])([H])C([H])([H])Oc2c([H])c([H])c3c(c2[H])C([H])([H])N(C(=O)C([H])(N([H])C(=O)C([H])(N([H])C([H])([H])[H])C([H])([H])[H])C(C([H])([H])[H])(C([H])([H])[H])C([H])([H])[H])C([H])(C(=O)N([H])C2([H])c4c([H])c([H])c([H])c([H])c4C([H])([H])C([H])([H])C2([H])[H])C3([H])[H])c(C([H])([H])C([H])([H])C([H])([H])N([H])C(=O)N2C([H])([H])C([H])([H])C([H])([H])C([H])(n3nc(-c4c([H])c([H])c(Oc5c([H])c([H])c(F)c([H])c5F)c([H])c4[H])c(C(=O)N([H])[H])c3N([H])[H])C2([H])[H])c1Cl

>  <smiles>  (6) 
[H]c1nc(C([H])([H])C([H])([H])[H])c(C([H])([H])C([H])([H])Oc2c([H])c([H])c3c(c2[H])C([H])([H])N(C(=O)C([H])(N([H])C(=O)C([H])(N([H])C([H])([H])[H])C([H])([H])[H])C(C([H])([H])[H])(C([H])([H])[H])C([H])([H])[H])C([H])(C(=O)N([H])C2([H])c4c([H])c([H])c([H])c([H])c4C([H])([H])C([H])([H])C2([H])[H])C3([H])[H])c(C([H])([H])C([H])([H])C([H])([H])N([H])C(=O)N2C([H])([H])C([H])([H])C([H])([H])C([H])(n3nc(-c4c([H])c([H])c(Oc5c([H])c([H])c(F)c([H])c5F)c([H])c4[H])c(C(=O)N([H])[H])c3N([H])[H])C2([H])[H])c1Cl

$$$$
6:0:0
     RDKit          3D

 96104  0  0  1  0  0  0  0  0999 V2000
  -29.7180  -17.3730   17.5950 C   0  0  0  0  0  1  0  0  0  0  0  0
  -29.2330  -18.7080   18.1880 C   0  0  0  0  0  3  0  0  0  0  0  0
  -30.8780  -18.5870   20.2550 C   0  0  0  0  0  0  0  0  0  0  0  0
  -30.7440  -19.1830   21.5460 C   0  0  0  0  0  0  0  0  0  0  0  0
  -29.7250  -18.9570   19.5960 C   0  0  0  0  0  0  0  0  0  0  0  0
  -27.6470  -20.2690   20.3650 C   0  0  0  0  0  1  0  0  0  0  0  0
  -29.6090  -19.8430   21.6830 N   0  0  0  0  0  0  0  0  0  0  0  0
  -28.9730  -19.6890   20.5060 N   0  0  0  0  0  0  0  0  0  0  0  0
  -32.6300  -20.3720   22.7160 C   0  0  0  0  0  1  0  0  0  0  0  0
  -31.7090  -19.1460   22.7000 C   0  0  0  0  0  2  0  0  0  0  0  0
  -32.0480  -17.7370   19.8030 C   0  0  0  0  0  2  0  0  0  0  0  0
  -32.5130  -15.2610   19.8020 C   0  0  0  0  0  0  0  0  0  0  0  0
  -32.2490  -12.8510   19.3380 C   0  0  0  0  0  2  0  0  0  0  0  0
  -31.3210  -12.6740   18.1190 C   0  0  0  0  0  2  0  0  0  0  0  0
  -29.8370  -12.6760   18.5440 C   0  0  0  0  0  2  0  0  0  0  0  0
  -29.4860  -13.8610   19.4820 C   0  0  0  0  0  3  0  0  0  0  0  0
  -30.5180  -13.9630   20.6270 C   0  0  0  0  0  2  0  0  0  0  0  0
  -31.8590  -14.0890   20.0250 N   0  0  0  0  0  0  0  0  0  0  0  0
  -33.6010  -15.3390   19.2270 O   0  0  0  0  0  0  0  0  0  0  0  0
  -31.8130  -16.3440   20.1650 N   0  0  0  0  0  0  0  0  0  0  0  0
  -30.9420  -16.1460   20.6310 H   0  0  0  0  0  0  0  0  0  0  0  0
  -27.2170  -14.7610   20.3050 C   0  0  0  0  0  0  0  0  0  0  0  0
  -26.0610  -14.1250   20.6710 C   0  0  0  0  0  0  0  0  0  0  0  0
  -26.3250  -12.7270   20.5520 C   0  0  0  0  0  0  0  0  0  0  0  0
  -28.1200  -13.7560   19.9920 N   0  0  0  0  0  0  0  0  0  0  0  0
  -27.5850  -12.5240   20.1930 N   0  0  0  0  0  0  0  0  0  0  0  0
  -25.4340  -11.5680   20.7040 C   0  0  0  0  0  0  0  0  0  0  0  0
  -25.7210  -10.5310   21.6190 C   0  0  0  0  0  3  0  0  0  0  0  0
  -24.8410   -9.4360   21.7580 C   0  0  0  0  0  3  0  0  0  0  0  0
  -23.6600   -9.3710   20.9800 C   0  0  0  0  0  0  0  0  0  0  0  0
  -23.3920  -10.3950   20.0540 C   0  0  0  0  0  3  0  0  0  0  0  0
  -24.2710  -11.4820   19.9140 C   0  0  0  0  0  3  0  0  0  0  0  0
  -22.7610   -8.3340   21.0290 O   0  0  0  0  0  0  0  0  0  0  0  0
  -22.4750   -7.6830   22.2020 C   0  0  0  0  0  0  0  0  0  0  0  0
  -21.9830   -8.3700   23.3340 C   0  0  0  0  0  3  0  0  0  0  0  0
  -21.6370   -7.6530   24.4980 C   0  0  0  0  0  3  0  0  0  0  0  0
  -21.7740   -6.2510   24.5290 C   0  0  0  0  0  0  0  0  0  0  0  0
  -22.2580   -5.5660   23.4010 C   0  0  0  0  0  3  0  0  0  0  0  0
  -22.6050   -6.2800   22.2400 C   0  0  0  0  0  0  0  0  0  0  0  0
  -23.0530   -5.6120   21.1500 F   0  0  0  0  0  0  0  0  0  0  0  0
  -21.4340   -5.5620   25.6420 F   0  0  0  0  0  0  0  0  0  0  0  0
  -24.7530  -14.7750   21.0240 C   0  0  0  0  0  0  0  0  0  0  0  0
  -23.9780  -14.1570   21.9080 N   0  0  0  0  0  0  0  0  0  0  0  0
  -24.4330  -15.8650   20.5510 O   0  0  0  0  0  0  0  0  0  0  0  0
  -24.2480  -13.2730   22.3130 H   0  0  0  0  0  0  0  0  0  0  0  0
  -23.1010  -14.5770   22.1830 H   0  0  0  0  0  0  0  0  0  0  0  0
  -27.5700  -16.1030   20.1980 N   0  0  0  0  0  0  0  0  0  0  0  0
  -26.9270  -16.8550   20.4150 H   0  0  0  0  0  0  0  0  0  0  0  0
  -28.4960  -16.4350   19.9560 H   0  0  0  0  0  0  0  0  0  0  0  0
  -29.5190  -19.8950   17.2360 C   0  0  0  0  0  2  0  0  0  0  0  0
  -28.8900  -21.2330   17.6860 C   0  0  0  0  0  2  0  0  0  0  0  0
  -29.2970  -22.4380   16.8180 C   0  0  0  0  0  2  0  0  0  0  0  0
  -28.5950  -23.7500   17.2320 C   0  0  0  0  0  2  0  0  0  0  0  0
  -29.2050  -24.9920   16.5550 C   0  0  0  0  0  2  0  0  0  0  0  0
  -28.3940  -26.2860   16.7520 C   0  0  0  0  0  2  0  0  0  0  0  0
  -28.2450  -26.6020   18.1380 O   0  0  0  0  0  0  0  0  0  0  0  0
  -25.0560  -30.7550   22.9660 C   0  0  0  0  0  0  0  0  0  0  0  0
  -27.1180  -27.3100   18.4830 C   0  0  0  0  0  0  0  0  0  0  0  0
  -23.6070  -29.8960   21.1530 C   0  0  0  0  0  3  0  0  0  0  0  0
  -24.8150  -28.7800   19.2050 C   0  0  0  0  0  0  0  0  0  0  0  0
  -26.1140  -30.2350   20.7720 C   0  0  0  0  0  2  0  0  0  0  0  0
  -26.0550  -29.0940   19.7770 C   0  0  0  0  0  0  0  0  0  0  0  0
  -27.2070  -28.3550   19.4280 C   0  0  0  0  0  3  0  0  0  0  0  0
  -25.8570  -26.9870   17.9340 C   0  0  0  0  0  3  0  0  0  0  0  0
  -24.7080  -27.7200   18.2880 C   0  0  0  0  0  3  0  0  0  0  0  0
  -23.6320  -29.6220   19.6260 C   0  0  0  0  0  2  0  0  0  0  0  0
  -24.9510  -30.2920   21.6880 N   0  0  0  0  0  0  0  0  0  0  0  0
  -24.0550  -30.8920   23.6820 O   0  0  0  0  0  0  0  0  0  0  0  0
  -23.0050  -28.6630   21.8650 C   0  0  0  0  0  0  0  0  0  0  0  0
  -21.6740  -28.5110   21.7730 N   0  0  0  0  0  0  0  0  0  0  0  0
  -23.7300  -27.8590   22.4570 O   0  0  0  0  0  0  0  0  0  0  0  0
  -21.1500  -29.2170   21.2760 H   0  0  0  0  0  0  0  0  0  0  0  0
  -18.3420  -27.1420   22.0320 C   0  0  0  0  0  0  0  0  0  0  0  0
  -20.8950  -27.4070   22.3310 C   0  0  0  0  0  3  0  0  0  0  0  0
  -21.0260  -26.1360   21.4600 C   0  0  0  0  0  2  0  0  0  0  0  0
  -19.9180  -26.0080   20.4100 C   0  0  0  0  0  2  0  0  0  0  0  0
  -18.5430  -25.9740   21.0820 C   0  0  0  0  0  2  0  0  0  0  0  0
  -19.4470  -27.8250   22.6070 C   0  0  0  0  0  0  0  0  0  0  0  0
  -19.2060  -28.9270   23.4550 C   0  0  0  0  0  3  0  0  0  0  0  0
  -17.8920  -29.3460   23.7360 C   0  0  0  0  0  3  0  0  0  0  0  0
  -16.8010  -28.6570   23.1780 C   0  0  0  0  0  3  0  0  0  0  0  0
  -17.0270  -27.5560   22.3330 C   0  0  0  0  0  3  0  0  0  0  0  0
  -26.4350  -31.1540   23.5800 C   0  0  0  0  0  3  0  0  0  0  0  0
  -27.0220  -30.0630   24.5560 C   0  0  1  0  0  0  0  0  0  0  0  0
  -26.0270  -29.6090   25.6500 C   0  0  0  0  0  1  0  0  0  0  0  0
  -27.4620  -28.8070   23.7680 C   0  0  0  0  0  1  0  0  0  0  0  0
  -28.2860  -30.6110   25.2570 C   0  0  0  0  0  1  0  0  0  0  0  0
  -26.2520  -32.4330   24.2800 N   0  0  0  0  0  0  0  0  0  0  0  0
  -26.6440  -33.6220   23.8030 C   0  0  0  0  0  0  0  0  0  0  0  0
  -27.2700  -33.7470   22.7460 O   0  0  0  0  0  0  0  0  0  0  0  0
  -25.6970  -32.4130   25.1230 H   0  0  0  0  0  0  0  0  0  0  0  0
  -25.0730  -35.5760   23.9970 C   0  0  0  0  0  1  0  0  0  0  0  0
  -26.2830  -34.8710   24.6290 C   0  0  0  0  0  3  0  0  0  0  0  0
  -28.4950  -35.3250   25.5950 C   0  0  0  0  0  1  0  0  0  0  0  0
  -27.4020  -35.8290   24.7670 N   0  0  0  0  0  0  0  0  0  0  0  0
  -27.0780  -36.7040   25.1690 H   0  0  0  0  0  0  0  0  0  0  0  0
  2  1  1  0
  2  5  1  0
  3  4  1  0
  4  7  2  0
  4 10  1  0
  5  3  2  0
  5  8  1  0
  6  8  1  0
  8  7  1  0
 10  9  1  0
 11 20  1  0
 11  3  1  0
 12 18  1  0
 12 20  1  0
 13 18  1  0
 14 15  1  0
 14 13  1  0
 16 15  1  0
 16 25  1  0
 16 17  1  0
 18 17  1  0
 19 12  2  0
 20 21  1  0
 22 23  2  0
 23 42  1  0
 24 23  1  0
 24 27  1  0
 25 26  1  0
 25 22  1  0
 26 24  2  0
 27 28  1  0
 28 29  2  0
 30 33  1  0
 30 29  1  0
 31 30  2  0
 32 31  1  0
 32 27  2  0
 33 34  1  0
 34 39  2  0
 34 35  1  0
 35 36  2  0
 36 37  1  0
 37 41  1  0
 38 37  2  0
 39 38  1  0
 40 39  1  0
 42 43  1  0
 43 46  1  0
 43 45  1  0
 44 42  2  0
 47 22  1  0
 47 48  1  0
 49 47  1  0
 50 51  1  0
 50  2  1  0
 52 53  1  0
 52 51  1  0
 54 55  1  0
 54 53  1  0
 55 56  1  0
 56 58  1  0
 57 68  2  0
 58 63  1  0
 59 67  1  0
 59 69  1  0
 60 66  1  0
 60 62  1  0
 61 67  1  0
 62 61  1  0
 63 62  2  0
 64 65  1  0
 64 58  2  0
 65 60  2  0
 66 59  1  0
 67 57  1  0
 69 71  2  0
 70 69  1  0
 72 70  1  0
 73 82  2  0
 73 78  1  0
 74 70  1  0
 74 78  1  0
 75 74  1  0
 76 77  1  0
 76 75  1  0
 77 73  1  0
 78 79  2  0
 79 80  1  0
 81 80  2  0
 82 81  1  0
 83 57  1  0
 83 88  1  0
 83 84  1  0
 84 87  1  1
 84 85  1  0
 86 84  1  0
 88 91  1  0
 89 88  1  0
 89 93  1  0
 90 89  2  0
 93 92  1  0
 93 95  1  0
 95 96  1  0
 95 94  1  0
M  ISO  4  12 100  20 100  55 101  56 101
M  END
>  <TORSDO>  (7) 
F 25

>  <SCORE>  (7) 
-7.152

>  <name>  (7) 
6

>  <ligand_id>  (7) 
6

>  <original_smiles>  (7) 
[H]c1c([H])c([H])c2c(c1[H])C([H])([H])C([H])([H])C([H])([H])C2([H])N([H])C(=O)C1([H])N(C(=O)C([H])(N([H])C(=O)C([H])(N([H])C([H])([H])[H])C([H])([H])[H])C(C([H])([H])[H])(C([H])([H])[H])C([H])([H])[H])C([H])([H])c2c([H])c(OC([H])([H])C([H])([H])C([H])([H])C([H])([H])C([H])([H])C([H])([H])C([H])(c3c(C([H])([H])N([H])C(=O)N4C([H])([H])C([H])([H])C([H])([H])C([H])(n5nc(-c6c([H])c([H])c(Oc7c([H])c([H])c(F)c([H])c7F)c([H])c6[H])c(C(=O)N([H])[H])c5N([H])[H])C4([H])[H])c(C([H])([H])C([H])([H])[H])nn3C([H])([H])[H])C([H])([H])[H])c([H])c([H])c2C1([H])[H]

>  <smiles>  (7) 
[H]c1c([H])c([H])c2c(c1[H])C([H])([H])C([H])([H])C([H])([H])C2([H])N([H])C(=O)C1([H])N(C(=O)C([H])(N([H])C(=O)C([H])(N([H])C([H])([H])[H])C([H])([H])[H])C(C([H])([H])[H])(C([H])([H])[H])C([H])([H])[H])C([H])([H])c2c([H])c(OC([H])([H])C([H])([H])C([H])([H])C([H])([H])C([H])([H])C([H])([H])C([H])(c3c(C([H])([H])N([H])C(=O)N4C([H])([H])C([H])([H])C([H])([H])C([H])(n5nc(-c6c([H])c([H])c(Oc7c([H])c([H])c(F)c([H])c7F)c([H])c6[H])c(C(=O)N([H])[H])c5N([H])[H])C4([H])[H])c(C([H])([H])C([H])([H])[H])nn3C([H])([H])[H])C([H])([H])[H])c([H])c([H])c2C1([H])[H]

$$$$
7:0:0
     RDKit          3D

 96104  0  0  1  0  0  0  0  0999 V2000
  -31.1270  -18.8890   16.1140 C   0  0  0  0  0  3  0  0  0  0  0  0
  -31.6790  -18.4200   17.3180 C   0  0  0  0  0  3  0  0  0  0  0  0
  -30.5730  -20.1840   16.0420 C   0  0  0  0  0  0  0  0  0  0  0  0
  -31.6690  -19.2320   18.4700 C   0  0  0  0  0  0  0  0  0  0  0  0
  -30.5630  -21.0120   17.1940 C   0  0  0  0  0  0  0  0  0  0  0  0
  -31.1030  -20.5270   18.4150 C   0  0  0  0  0  0  0  0  0  0  0  0
  -29.9990  -20.6620   14.7180 C   0  0  0  0  0  1  0  0  0  0  0  0
  -31.0640  -21.5020   19.8510 Cl  0  0  0  0  0  0  0  0  0  0  0  0
  -32.2570  -18.6840   19.7590 C   0  0  0  0  0  2  0  0  0  0  0  0
  -31.1740  -18.1260   20.6980 C   0  0  0  0  0  2  0  0  0  0  0  0
  -31.7900  -17.3610   21.8840 C   0  0  0  0  0  2  0  0  0  0  0  0
  -30.8290  -16.4050   22.6280 C   0  0  0  0  0  2  0  0  0  0  0  0
  -30.4630  -14.7890   20.6890 C   0  0  0  0  0  0  0  0  0  0  0  0
  -30.1280  -12.7640   19.3200 C   0  0  0  0  0  2  0  0  0  0  0  0
  -29.1690  -12.9890   18.1410 C   0  0  0  0  0  2  0  0  0  0  0  0
  -27.7130  -12.7660   18.5840 C   0  0  0  0  0  2  0  0  0  0  0  0
  -27.3570  -13.5510   19.8710 C   0  0  0  0  0  3  0  0  0  0  0  0
  -28.4220  -13.3270   20.9660 C   0  0  0  0  0  2  0  0  0  0  0  0
  -29.7460  -13.6710   20.4130 N   0  0  0  0  0  0  0  0  0  0  0  0
  -31.4300  -15.1460   20.0110 O   0  0  0  0  0  0  0  0  0  0  0  0
  -30.1110  -15.4060   21.8250 N   0  0  0  0  0  0  0  0  0  0  0  0
  -29.3050  -14.9960   22.2760 H   0  0  0  0  0  0  0  0  0  0  0  0
  -24.9310  -14.0370   20.5950 C   0  0  0  0  0  0  0  0  0  0  0  0
  -23.9000  -13.2100   20.9540 C   0  0  0  0  0  0  0  0  0  0  0  0
  -24.4240  -11.8830   20.9000 C   0  0  0  0  0  0  0  0  0  0  0  0
  -26.0160  -13.2110   20.3490 N   0  0  0  0  0  0  0  0  0  0  0  0
  -25.7120  -11.9080   20.5880 N   0  0  0  0  0  0  0  0  0  0  0  0
  -23.7600  -10.5840   21.0710 C   0  0  0  0  0  0  0  0  0  0  0  0
  -24.2430   -9.6230   21.9880 C   0  0  0  0  0  3  0  0  0  0  0  0
  -23.5760   -8.3900   22.1480 C   0  0  0  0  0  3  0  0  0  0  0  0
  -22.4140   -8.1060   21.3910 C   0  0  0  0  0  0  0  0  0  0  0  0
  -21.9520   -9.0570   20.4650 C   0  0  0  0  0  3  0  0  0  0  0  0
  -22.6180  -10.2820   20.3020 C   0  0  0  0  0  3  0  0  0  0  0  0
  -21.7150   -6.9250   21.4620 O   0  0  0  0  0  0  0  0  0  0  0  0
  -21.7120   -6.1580   22.6010 C   0  0  0  0  0  0  0  0  0  0  0  0
  -21.2690   -6.6670   23.8400 C   0  0  0  0  0  3  0  0  0  0  0  0
  -21.2140   -5.8240   24.9680 C   0  0  0  0  0  3  0  0  0  0  0  0
  -21.5940   -4.4740   24.8580 C   0  0  0  0  0  0  0  0  0  0  0  0
  -22.0290   -3.9630   23.6230 C   0  0  0  0  0  3  0  0  0  0  0  0
  -22.0840   -4.8040   22.4960 C   0  0  0  0  0  0  0  0  0  0  0  0
  -22.4850   -4.3010   21.3030 F   0  0  0  0  0  0  0  0  0  0  0  0
  -21.5340   -3.6620   25.9390 F   0  0  0  0  0  0  0  0  0  0  0  0
  -22.4820  -13.6150   21.2400 C   0  0  0  0  0  0  0  0  0  0  0  0
  -21.7970  -12.8760   22.1070 N   0  0  0  0  0  0  0  0  0  0  0  0
  -21.9900  -14.6220   20.7340 O   0  0  0  0  0  0  0  0  0  0  0  0
  -22.2090  -12.0630   22.5400 H   0  0  0  0  0  0  0  0  0  0  0  0
  -20.8490  -13.1290   22.3430 H   0  0  0  0  0  0  0  0  0  0  0  0
  -25.0330  -15.4160   20.4380 N   0  0  0  0  0  0  0  0  0  0  0  0
  -24.2430  -16.0410   20.5650 H   0  0  0  0  0  0  0  0  0  0  0  0
  -25.8710  -15.8950   20.1340 H   0  0  0  0  0  0  0  0  0  0  0  0
  -29.9700  -22.4170   17.1300 C   0  0  0  0  0  2  0  0  0  0  0  0
  -28.4470  -22.4410   17.3720 C   0  0  0  0  0  2  0  0  0  0  0  0
  -28.0190  -23.2400   18.6150 C   0  0  0  0  0  2  0  0  0  0  0  0
  -28.4410  -24.7200   18.6030 C   0  0  0  0  0  2  0  0  0  0  0  0
  -28.1520  -25.4060   19.9410 C   0  0  0  0  0  2  0  0  0  0  0  0
  -28.2360  -26.8210   19.8060 O   0  0  0  0  0  0  0  0  0  0  0  0
  -24.5130  -31.8240   23.1680 C   0  0  0  0  0  0  0  0  0  0  0  0
  -27.0510  -27.5170   19.8430 C   0  0  0  0  0  0  0  0  0  0  0  0
  -23.2550  -30.4950   21.4980 C   0  0  0  0  0  3  0  0  0  0  0  0
  -24.6600  -29.0080   19.9780 C   0  0  0  0  0  0  0  0  0  0  0  0
  -25.7740  -30.8510   21.2520 C   0  0  0  0  0  2  0  0  0  0  0  0
  -25.8330  -29.5080   20.5600 C   0  0  0  0  0  0  0  0  0  0  0  0
  -27.0310  -28.7680   20.4880 C   0  0  0  0  0  3  0  0  0  0  0  0
  -25.8650  -27.0270   19.2520 C   0  0  0  0  0  3  0  0  0  0  0  0
  -24.6690  -27.7650   19.3220 C   0  0  0  0  0  3  0  0  0  0  0  0
  -23.4230  -29.8660   20.0900 C   0  0  0  0  0  2  0  0  0  0  0  0
  -24.5340  -31.0700   22.0320 N   0  0  0  0  0  0  0  0  0  0  0  0
  -23.4470  -32.0810   23.7470 O   0  0  0  0  0  0  0  0  0  0  0  0
  -22.6220  -29.4430   22.4360 C   0  0  0  0  0  0  0  0  0  0  0  0
  -21.2930  -29.2770   22.3370 N   0  0  0  0  0  0  0  0  0  0  0  0
  -23.3230  -28.7800   23.2050 O   0  0  0  0  0  0  0  0  0  0  0  0
  -20.7910  -29.8610   21.6820 H   0  0  0  0  0  0  0  0  0  0  0  0
  -17.9270  -28.0800   22.8620 C   0  0  0  0  0  0  0  0  0  0  0  0
  -20.4910  -28.3130   23.0880 C   0  0  0  0  0  3  0  0  0  0  0  0
  -20.5740  -26.9050   22.4550 C   0  0  0  0  0  2  0  0  0  0  0  0
  -19.4490  -26.6270   21.4540 C   0  0  0  0  0  2  0  0  0  0  0  0
  -18.0810  -26.7580   22.1310 C   0  0  0  0  0  2  0  0  0  0  0  0
  -19.0590  -28.8180   23.2970 C   0  0  0  0  0  0  0  0  0  0  0  0
  -18.8620  -30.0620   23.9380 C   0  0  0  0  0  3  0  0  0  0  0  0
  -17.5640  -30.5660   24.1460 C   0  0  0  0  0  3  0  0  0  0  0  0
  -16.4470  -29.8240   23.7270 C   0  0  0  0  0  3  0  0  0  0  0  0
  -16.6290  -28.5830   23.0910 C   0  0  0  0  0  3  0  0  0  0  0  0
  -25.8210  -32.4200   23.7790 C   0  0  0  0  0  3  0  0  0  0  0  0
  -26.3540  -31.6060   25.0200 C   0  0  1  0  0  0  0  0  0  0  0  0
  -25.2790  -31.3550   26.1050 C   0  0  0  0  0  1  0  0  0  0  0  0
  -26.9060  -30.2330   24.5710 C   0  0  0  0  0  1  0  0  0  0  0  0
  -27.5280  -32.3640   25.6790 C   0  0  0  0  0  1  0  0  0  0  0  0
  -25.5440  -33.8120   24.1550 N   0  0  0  0  0  0  0  0  0  0  0  0
  -25.8790  -34.8800   23.4190 C   0  0  0  0  0  0  0  0  0  0  0  0
  -26.5310  -34.7950   22.3740 O   0  0  0  0  0  0  0  0  0  0  0  0
  -24.9730  -33.9550   24.9750 H   0  0  0  0  0  0  0  0  0  0  0  0
  -24.1780  -36.7070   23.1300 C   0  0  0  0  0  1  0  0  0  0  0  0
  -25.4170  -36.2610   23.9220 C   0  0  0  0  0  3  0  0  0  0  0  0
  -27.5710  -37.0830   24.7610 C   0  0  0  0  0  1  0  0  0  0  0  0
  -26.4670  -37.2990   23.8310 N   0  0  0  0  0  0  0  0  0  0  0  0
  -26.0800  -38.2230   24.0050 H   0  0  0  0  0  0  0  0  0  0  0  0
  1  2  1  0
  2  4  2  0
  3  1  2  0
  3  5  1  0
  4  9  1  0
  5  6  2  0
  6  4  1  0
  6  8  1  0
  7  3  1  0
  9 10  1  0
 10 11  1  0
 11 12  1  0
 13 21  1  0
 14 19  1  0
 15 16  1  0
 15 14  1  0
 17 16  1  0
 17 26  1  0
 17 18  1  0
 19 13  1  0
 19 18  1  0
 20 13  2  0
 21 22  1  0
 21 12  1  0
 23 24  2  0
 24 43  1  0
 25 24  1  0
 25 28  1  0
 26 27  1  0
 26 23  1  0
 27 25  2  0
 28 29  1  0
 29 30  2  0
 31 34  1  0
 31 30  1  0
 32 31  2  0
 33 32  1  0
 33 28  2  0
 34 35  1  0
 35 36  1  0
 36 37  2  0
 38 37  1  0
 38 42  1  0
 39 38  2  0
 40 35  2  0
 40 39  1  0
 41 40  1  0
 43 44  1  0
 44 47  1  0
 44 46  1  0
 45 43  2  0
 48 49  1  0
 48 23  1  0
 50 48  1  0
 51  5  1  0
 51 52  1  0
 52 53  1  0
 54 53  1  0
 54 55  1  0
 56 58  1  0
 56 55  1  0
 57 68  2  0
 58 63  1  0
 59 67  1  0
 59 69  1  0
 60 66  1  0
 60 62  1  0
 61 67  1  0
 62 61  1  0
 63 62  2  0
 64 65  1  0
 64 58  2  0
 65 60  2  0
 66 59  1  0
 67 57  1  0
 69 71  2  0
 70 69  1  0
 72 70  1  0
 73 82  2  0
 73 78  1  0
 74 70  1  0
 74 78  1  0
 75 74  1  0
 76 77  1  0
 76 75  1  0
 77 73  1  0
 78 79  2  0
 79 80  1  0
 81 80  2  0
 82 81  1  0
 83 57  1  0
 83 88  1  0
 83 84  1  0
 84 87  1  1
 84 85  1  0
 86 84  1  0
 88 91  1  0
 89 93  1  0
 89 88  1  0
 90 89  2  0
 93 92  1  0
 95 93  1  0
 95 96  1  0
 95 94  1  0
M  ISO  4  13 100  21 100  55 101  56 101
M  END
>  <TORSDO>  (8) 
F 25

>  <SCORE>  (8) 
-11.139

>  <name>  (8) 
7

>  <ligand_id>  (8) 
7

>  <original_smiles>  (8) 
[H]c1c([H])c([H])c2c(c1[H])C([H])([H])C([H])([H])C([H])([H])C2([H])N([H])C(=O)C1([H])N(C(=O)C([H])(N([H])C(=O)C([H])(N([H])C([H])([H])[H])C([H])([H])[H])C(C([H])([H])[H])(C([H])([H])[H])C([H])([H])[H])C([H])([H])c2c([H])c(OC([H])([H])C([H])([H])C([H])([H])C([H])([H])C([H])([H])c3c(Cl)c(C([H])([H])C([H])([H])C([H])([H])C([H])([H])N([H])C(=O)N4C([H])([H])C([H])([H])C([H])([H])C([H])(n5nc(-c6c([H])c([H])c(Oc7c([H])c([H])c(F)c([H])c7F)c([H])c6[H])c(C(=O)N([H])[H])c5N([H])[H])C4([H])[H])c([H])c([H])c3C([H])([H])[H])c([H])c([H])c2C1([H])[H]

>  <smiles>  (8) 
[H]c1c([H])c([H])c2c(c1[H])C([H])([H])C([H])([H])C([H])([H])C2([H])N([H])C(=O)C1([H])N(C(=O)C([H])(N([H])C(=O)C([H])(N([H])C([H])([H])[H])C([H])([H])[H])C(C([H])([H])[H])(C([H])([H])[H])C([H])([H])[H])C([H])([H])c2c([H])c(OC([H])([H])C([H])([H])C([H])([H])C([H])([H])C([H])([H])c3c(Cl)c(C([H])([H])C([H])([H])C([H])([H])C([H])([H])N([H])C(=O)N4C([H])([H])C([H])([H])C([H])([H])C([H])(n5nc(-c6c([H])c([H])c(Oc7c([H])c([H])c(F)c([H])c7F)c([H])c6[H])c(C(=O)N([H])[H])c5N([H])[H])C4([H])[H])c([H])c([H])c3C([H])([H])[H])c([H])c([H])c2C1([H])[H]

$$$$
8:0:0
     RDKit          3D

 95104  0  0  1  0  0  0  0  0999 V2000
  -29.8200  -22.1250   19.1500 C   0  0  0  0  0  2  0  0  0  0  0  0
  -30.4330  -22.2440   21.6220 C   0  0  0  0  0  2  0  0  0  0  0  0
  -29.9390  -23.6770   19.0730 C   0  0  0  0  0  2  0  0  0  0  0  0
  -29.4050  -23.4010   21.5400 C   0  0  0  0  0  2  0  0  0  0  0  0
  -30.6980  -21.5210   20.2740 C   0  0  0  0  0  3  0  0  0  0  0  0
  -29.6490  -24.4430   20.4070 C   0  0  1  0  0  0  0  0  0  0  0  0
  -30.8530  -25.3240   20.8020 C   0  0  0  0  0  1  0  0  0  0  0  0
  -29.4150  -19.2870   20.3160 C   0  0  0  0  0  3  0  0  0  0  0  0
  -31.7420  -17.7600   20.5890 C   0  0  0  0  0  3  0  0  0  0  0  0
  -30.6540  -19.9680   20.3550 C   0  0  0  0  0  0  0  0  0  0  0  0
  -29.3280  -17.8780   20.4370 C   0  0  0  0  0  0  0  0  0  0  0  0
  -31.8290  -19.1740   20.4820 C   0  0  0  0  0  0  0  0  0  0  0  0
  -30.4960  -17.0810   20.5740 C   0  0  0  0  0  0  0  0  0  0  0  0
  -27.9550  -17.2340   20.4080 C   0  0  0  0  0  1  0  0  0  0  0  0
  -33.2090  -19.8100   20.5010 C   0  0  0  0  0  1  0  0  0  0  0  0
  -31.0530  -14.6300   20.1070 C   0  0  0  0  0  0  0  0  0  0  0  0
  -30.7380  -12.4570   18.9710 C   0  0  0  0  0  2  0  0  0  0  0  0
  -29.7430  -12.6450   17.8060 C   0  0  0  0  0  2  0  0  0  0  0  0
  -28.2910  -12.4790   18.2980 C   0  0  0  0  0  2  0  0  0  0  0  0
  -27.9930  -13.3090   19.5740 C   0  0  0  0  0  3  0  0  0  0  0  0
  -29.0990  -13.1080   20.6360 C   0  0  0  0  0  2  0  0  0  0  0  0
  -30.3940  -13.4370   20.0160 N   0  0  0  0  0  0  0  0  0  0  0  0
  -32.1690  -14.7930   19.6120 O   0  0  0  0  0  0  0  0  0  0  0  0
  -30.3440  -15.6450   20.6600 N   0  0  0  0  0  0  0  0  0  0  0  0
  -29.4810  -15.3390   21.0790 H   0  0  0  0  0  0  0  0  0  0  0  0
  -25.6360  -13.8780   20.4370 C   0  0  0  0  0  0  0  0  0  0  0  0
  -24.5860  -13.0900   20.8240 C   0  0  0  0  0  0  0  0  0  0  0  0
  -25.0360  -11.7410   20.6860 C   0  0  0  0  0  0  0  0  0  0  0  0
  -26.6650  -13.0100   20.1060 N   0  0  0  0  0  0  0  0  0  0  0  0
  -26.3080  -11.7150   20.3110 N   0  0  0  0  0  0  0  0  0  0  0  0
  -24.3070  -10.4750   20.8340 C   0  0  0  0  0  0  0  0  0  0  0  0
  -24.6750   -9.5210   21.8080 C   0  0  0  0  0  3  0  0  0  0  0  0
  -23.9490   -8.3190   21.9420 C   0  0  0  0  0  3  0  0  0  0  0  0
  -22.8400   -8.0620   21.1010 C   0  0  0  0  0  0  0  0  0  0  0  0
  -22.4930   -9.0040   20.1170 C   0  0  0  0  0  3  0  0  0  0  0  0
  -23.2200  -10.1980   19.9800 C   0  0  0  0  0  3  0  0  0  0  0  0
  -22.0910   -6.9120   21.1430 O   0  0  0  0  0  0  0  0  0  0  0  0
  -21.8430   -6.2570   22.3230 C   0  0  0  0  0  0  0  0  0  0  0  0
  -21.1440   -6.8710   23.3840 C   0  0  0  0  0  3  0  0  0  0  0  0
  -20.8520   -6.1390   24.5530 C   0  0  0  0  0  3  0  0  0  0  0  0
  -21.2490   -4.7920   24.6580 C   0  0  0  0  0  0  0  0  0  0  0  0
  -21.9410   -4.1780   23.6010 C   0  0  0  0  0  3  0  0  0  0  0  0
  -22.2360   -4.9070   22.4350 C   0  0  0  0  0  0  0  0  0  0  0  0
  -22.8840   -4.3030   21.4100 F   0  0  0  0  0  0  0  0  0  0  0  0
  -20.9620   -4.0860   25.7770 F   0  0  0  0  0  0  0  0  0  0  0  0
  -23.2100  -13.5580   21.1990 C   0  0  0  0  0  0  0  0  0  0  0  0
  -22.5330  -12.8280   22.0780 N   0  0  0  0  0  0  0  0  0  0  0  0
  -22.7440  -14.6040   20.7480 O   0  0  0  0  0  0  0  0  0  0  0  0
  -22.9230  -11.9810   22.4630 H   0  0  0  0  0  0  0  0  0  0  0  0
  -21.6120  -13.1220   22.3720 H   0  0  0  0  0  0  0  0  0  0  0  0
  -25.7860  -15.2540   20.3130 N   0  0  0  0  0  0  0  0  0  0  0  0
  -25.0040  -15.8840   20.4490 H   0  0  0  0  0  0  0  0  0  0  0  0
  -26.5780  -15.6940   19.8610 H   0  0  0  0  0  0  0  0  0  0  0  0
  -28.3740  -25.3510   20.2970 C   0  0  0  0  0  2  0  0  0  0  0  0
  -28.5380  -26.6780   19.7410 O   0  0  0  0  0  0  0  0  0  0  0  0
  -24.6620  -31.7230   22.9980 C   0  0  0  0  0  0  0  0  0  0  0  0
  -27.3780  -27.4360   19.7430 C   0  0  0  0  0  0  0  0  0  0  0  0
  -23.4780  -30.3670   21.3050 C   0  0  0  0  0  3  0  0  0  0  0  0
  -24.9570  -28.9160   19.8130 C   0  0  0  0  0  0  0  0  0  0  0  0
  -25.9990  -30.7760   21.1170 C   0  0  0  0  0  2  0  0  0  0  0  0
  -26.1110  -29.4340   20.4180 C   0  0  0  0  0  0  0  0  0  0  0  0
  -27.3260  -28.7040   20.3760 C   0  0  0  0  0  3  0  0  0  0  0  0
  -26.2070  -26.9470   19.1210 C   0  0  0  0  0  3  0  0  0  0  0  0
  -25.0010  -27.6730   19.1590 C   0  0  0  0  0  3  0  0  0  0  0  0
  -23.6970  -29.7470   19.8980 C   0  0  0  0  0  2  0  0  0  0  0  0
  -24.7310  -30.9690   21.8640 N   0  0  0  0  0  0  0  0  0  0  0  0
  -23.5780  -31.9550   23.5500 O   0  0  0  0  0  0  0  0  0  0  0  0
  -22.8460  -29.2970   22.2240 C   0  0  0  0  0  0  0  0  0  0  0  0
  -21.5140  -29.1400   22.1360 N   0  0  0  0  0  0  0  0  0  0  0  0
  -23.5490  -28.6150   22.9740 O   0  0  0  0  0  0  0  0  0  0  0  0
  -21.0090  -29.7450   21.5050 H   0  0  0  0  0  0  0  0  0  0  0  0
  -18.1370  -28.0090   22.7450 C   0  0  0  0  0  0  0  0  0  0  0  0
  -20.7130  -28.1650   22.8750 C   0  0  0  0  0  3  0  0  0  0  0  0
  -20.7290  -26.7840   22.1790 C   0  0  0  0  0  2  0  0  0  0  0  0
  -19.5580  -26.5830   21.2120 C   0  0  0  0  0  2  0  0  0  0  0  0
  -18.2240  -26.7160   21.9510 C   0  0  0  0  0  2  0  0  0  0  0  0
  -19.3060  -28.6970   23.1640 C   0  0  0  0  0  0  0  0  0  0  0  0
  -19.1700  -29.9130   23.8690 C   0  0  0  0  0  3  0  0  0  0  0  0
  -17.8960  -30.4410   24.1550 C   0  0  0  0  0  3  0  0  0  0  0  0
  -16.7420  -29.7470   23.7520 C   0  0  0  0  0  3  0  0  0  0  0  0
  -16.8640  -28.5320   23.0540 C   0  0  0  0  0  3  0  0  0  0  0  0
  -25.9380  -32.3510   23.6400 C   0  0  0  0  0  3  0  0  0  0  0  0
  -25.5950  -33.7130   24.0710 N   0  0  0  0  0  0  0  0  0  0  0  0
  -25.8860  -34.8250   23.3820 C   0  0  0  0  0  0  0  0  0  0  0  0
  -26.5440  -34.8120   22.3370 O   0  0  0  0  0  0  0  0  0  0  0  0
  -25.0100  -33.7930   24.8880 H   0  0  0  0  0  0  0  0  0  0  0  0
  -24.1170  -36.5970   23.1520 C   0  0  0  0  0  1  0  0  0  0  0  0
  -25.3630  -36.1620   23.9390 C   0  0  0  0  0  3  0  0  0  0  0  0
  -27.4610  -37.0430   24.8620 C   0  0  0  0  0  1  0  0  0  0  0  0
  -26.3710  -37.2450   23.9110 N   0  0  0  0  0  0  0  0  0  0  0  0
  -25.9380  -38.1430   24.1110 H   0  0  0  0  0  0  0  0  0  0  0  0
  -26.5050  -31.5100   24.8480 C   0  0  1  0  0  0  0  0  0  0  0  0
  -25.4410  -31.1530   25.9110 C   0  0  0  0  0  1  0  0  0  0  0  0
  -27.1310  -30.1870   24.3450 C   0  0  0  0  0  1  0  0  0  0  0  0
  -27.6360  -32.2980   25.5520 C   0  0  0  0  0  1  0  0  0  0  0  0
  1  5  1  0
  3  1  1  0
  3  6  1  0
  4  2  1  0
  5 10  1  0
  5  2  1  0
  6  7  1  1
  6  4  1  0
  8 10  2  0
  8 11  1  0
 10 12  1  0
 11 13  2  0
 12 15  1  0
 12  9  2  0
 13  9  1  0
 13 24  1  0
 14 11  1  0
 16 24  1  0
 17 22  1  0
 18 19  1  0
 18 17  1  0
 20 19  1  0
 20 29  1  0
 20 21  1  0
 22 16  1  0
 22 21  1  0
 23 16  2  0
 24 25  1  0
 26 27  2  0
 27 46  1  0
 28 27  1  0
 28 31  1  0
 29 30  1  0
 29 26  1  0
 30 28  2  0
 31 32  1  0
 32 33  2  0
 34 37  1  0
 34 33  1  0
 35 34  2  0
 36 35  1  0
 36 31  2  0
 37 38  1  0
 38 43  2  0
 38 39  1  0
 39 40  2  0
 40 41  1  0
 41 45  1  0
 42 41  2  0
 43 42  1  0
 44 43  1  0
 46 47  1  0
 47 50  1  0
 47 49  1  0
 48 46  2  0
 51 26  1  0
 51 52  1  0
 53 51  1  0
 54  6  1  0
 55 57  1  0
 55 54  1  0
 56 67  2  0
 57 62  1  0
 58 66  1  0
 58 68  1  0
 59 65  1  0
 59 61  1  0
 60 66  1  0
 61 60  1  0
 62 61  2  0
 63 64  1  0
 63 57  2  0
 64 59  2  0
 65 58  1  0
 66 56  1  0
 68 70  2  0
 69 68  1  0
 71 69  1  0
 72 81  2  0
 72 77  1  0
 73 69  1  0
 73 77  1  0
 74 73  1  0
 75 76  1  0
 75 74  1  0
 76 72  1  0
 77 78  2  0
 78 79  1  0
 80 79  2  0
 81 80  1  0
 82 56  1  0
 82 83  1  0
 82 92  1  0
 83 86  1  0
 84 88  1  0
 84 83  1  0
 85 84  2  0
 88 87  1  0
 90 88  1  0
 90 91  1  0
 90 89  1  0
 92 95  1  1
 92 93  1  0
 94 92  1  0
M  ISO  4  16 100  24 100  54 101  55 101
M  END
>  <TORSDO>  (9) 
F 18

>  <SCORE>  (9) 
-14.015

>  <name>  (9) 
8

>  <ligand_id>  (9) 
8

>  <original_smiles>  (9) 
[H]c1c([H])c([H])c2c(c1[H])C([H])([H])C([H])([H])C([H])([H])C2([H])N([H])C(=O)C1([H])N(C(=O)C([H])(N([H])C(=O)C([H])(N([H])C([H])([H])[H])C([H])([H])[H])C(C([H])([H])[H])(C([H])([H])[H])C([H])([H])[H])C([H])([H])c2c([H])c(OC([H])([H])C3(C([H])([H])[H])C([H])([H])C([H])([H])C([H])(c4c([H])c(C([H])([H])[H])c(N([H])C(=O)N5C([H])([H])C([H])([H])C([H])([H])C([H])(n6nc(-c7c([H])c([H])c(Oc8c([H])c([H])c(F)c([H])c8F)c([H])c7[H])c(C(=O)N([H])[H])c6N([H])[H])C5([H])[H])c([H])c4C([H])([H])[H])C([H])([H])C3([H])[H])c([H])c([H])c2C1([H])[H]

>  <smiles>  (9) 
[H]c1c([H])c([H])c2c(c1[H])C([H])([H])C([H])([H])C([H])([H])C2([H])N([H])C(=O)C1([H])N(C(=O)C([H])(N([H])C(=O)C([H])(N([H])C([H])([H])[H])C([H])([H])[H])C(C([H])([H])[H])(C([H])([H])[H])C([H])([H])[H])C([H])([H])c2c([H])c(OC([H])([H])C3(C([H])([H])[H])C([H])([H])C([H])([H])C([H])(c4c([H])c(C([H])([H])[H])c(N([H])C(=O)N5C([H])([H])C([H])([H])C([H])([H])C([H])(n6nc(-c7c([H])c([H])c(Oc8c([H])c([H])c(F)c([H])c8F)c([H])c7[H])c(C(=O)N([H])[H])c6N([H])[H])C5([H])[H])c([H])c4C([H])([H])[H])C([H])([H])C3([H])[H])c([H])c([H])c2C1([H])[H]

$$$$
9:0:0
     RDKit          3D

 99107  0  0  1  0  0  0  0  0999 V2000
  -29.2820  -24.2020   17.9730 C   0  0  0  0  0  3  0  0  0  0  0  0
  -31.5930  -23.5940   18.4250 C   0  0  0  0  0  3  0  0  0  0  0  0
  -30.5990  -24.5840   18.2960 C   0  0  0  0  0  0  0  0  0  0  0  0
  -29.9520  -21.8440   17.9230 C   0  0  0  0  0  0  0  0  0  0  0  0
  -28.9550  -22.8440   17.7870 C   0  0  0  0  0  0  0  0  0  0  0  0
  -31.2770  -22.2340   18.2420 C   0  0  0  0  0  0  0  0  0  0  0  0
  -27.3160  -22.4390   17.4140 Cl  0  0  0  0  0  0  0  0  0  0  0  0
  -32.5340  -21.0620   18.4410 Cl  0  0  0  0  0  0  0  0  0  0  0  0
  -30.9420  -26.0490   18.5140 C   0  0  0  0  0  2  0  0  0  0  0  0
  -30.8400  -26.4730   19.9940 C   0  0  0  0  0  2  0  0  0  0  0  0
  -29.6850  -27.4420   20.2890 C   0  0  0  0  0  2  0  0  0  0  0  0
  -28.4400  -26.7990   20.0390 O   0  0  0  0  0  0  0  0  0  0  0  0
  -24.6000  -31.9310   23.2300 C   0  0  0  0  0  0  0  0  0  0  0  0
  -27.2880  -27.5510   20.1270 C   0  0  0  0  0  0  0  0  0  0  0  0
  -23.3890  -30.5140   21.5990 C   0  0  0  0  0  3  0  0  0  0  0  0
  -24.8510  -28.9840   20.1700 C   0  0  0  0  0  0  0  0  0  0  0  0
  -25.9030  -30.9100   21.3750 C   0  0  0  0  0  2  0  0  0  0  0  0
  -26.0020  -29.5410   20.7410 C   0  0  0  0  0  0  0  0  0  0  0  0
  -27.2210  -28.8330   20.7220 C   0  0  0  0  0  3  0  0  0  0  0  0
  -26.1160  -26.9930   19.5770 C   0  0  0  0  0  3  0  0  0  0  0  0
  -24.8990  -27.7030   19.5910 C   0  0  0  0  0  3  0  0  0  0  0  0
  -23.5950  -29.8250   20.2220 C   0  0  0  0  0  2  0  0  0  0  0  0
  -24.6490  -31.1320   22.1280 N   0  0  0  0  0  0  0  0  0  0  0  0
  -23.5230  -32.1960   23.7810 O   0  0  0  0  0  0  0  0  0  0  0  0
  -22.7570  -29.4910   22.5700 C   0  0  0  0  0  0  0  0  0  0  0  0
  -21.4350  -29.2950   22.4500 N   0  0  0  0  0  0  0  0  0  0  0  0
  -23.4530  -28.8750   23.3820 O   0  0  0  0  0  0  0  0  0  0  0  0
  -20.9340  -29.8440   21.7650 H   0  0  0  0  0  0  0  0  0  0  0  0
  -18.0770  -28.0720   22.9660 C   0  0  0  0  0  0  0  0  0  0  0  0
  -20.6320  -28.3520   23.2280 C   0  0  0  0  0  3  0  0  0  0  0  0
  -20.7460  -26.9200   22.6550 C   0  0  0  0  0  2  0  0  0  0  0  0
  -19.6430  -26.5840   21.6460 C   0  0  0  0  0  2  0  0  0  0  0  0
  -18.2630  -26.7210   22.2950 C   0  0  0  0  0  2  0  0  0  0  0  0
  -19.1900  -28.8440   23.3900 C   0  0  0  0  0  0  0  0  0  0  0  0
  -18.9650  -30.1080   23.9760 C   0  0  0  0  0  3  0  0  0  0  0  0
  -17.6580  -30.6020   24.1430 C   0  0  0  0  0  3  0  0  0  0  0  0
  -16.5580  -29.8270   23.7360 C   0  0  0  0  0  3  0  0  0  0  0  0
  -16.7680  -28.5650   23.1540 C   0  0  0  0  0  3  0  0  0  0  0  0
  -25.8890  -32.5730   23.8360 C   0  0  0  0  0  3  0  0  0  0  0  0
  -26.4280  -31.8040   25.1040 C   0  0  1  0  0  0  0  0  0  0  0  0
  -25.3510  -31.5590   26.1850 C   0  0  0  0  0  1  0  0  0  0  0  0
  -27.0140  -30.4310   24.7000 C   0  0  0  0  0  1  0  0  0  0  0  0
  -27.5820  -32.6050   25.7540 C   0  0  0  0  0  1  0  0  0  0  0  0
  -25.5750  -33.9680   24.1680 N   0  0  0  0  0  0  0  0  0  0  0  0
  -25.9030  -35.0230   23.4080 C   0  0  0  0  0  0  0  0  0  0  0  0
  -26.5730  -34.9230   22.3760 O   0  0  0  0  0  0  0  0  0  0  0  0
  -24.9820  -34.1200   24.9710 H   0  0  0  0  0  0  0  0  0  0  0  0
  -24.1700  -36.8080   23.0410 C   0  0  0  0  0  1  0  0  0  0  0  0
  -25.4050  -36.4070   23.8650 C   0  0  0  0  0  3  0  0  0  0  0  0
  -27.5330  -37.2920   24.7160 C   0  0  0  0  0  1  0  0  0  0  0  0
  -26.4350  -37.4650   23.7670 N   0  0  0  0  0  0  0  0  0  0  0  0
  -26.0250  -38.3820   23.9240 H   0  0  0  0  0  0  0  0  0  0  0  0
  -29.6060  -20.3680   17.7330 C   0  0  0  0  0  2  0  0  0  0  0  0
  -29.2500  -19.7220   19.0180 N   0  0  0  0  0  4  0  0  0  0  0  0
  -28.4380  -20.1720   19.4140 H   0  0  0  0  0  0  0  0  0  0  0  0
  -30.0200  -19.8810   19.6470 H   0  0  0  0  0  0  0  0  0  0  0  0
  -27.6370  -17.9200   18.3780 C   0  0  0  0  0  1  0  0  0  0  0  0
  -29.0250  -18.2590   18.9500 C   0  0  0  0  0  3  0  0  0  0  0  0
  -29.2130  -17.6090   20.3370 C   0  0  0  0  0  2  0  0  0  0  0  0
  -30.6850  -17.5730   20.8050 C   0  0  0  0  0  2  0  0  0  0  0  0
  -30.9760  -16.5480   21.9210 C   0  0  0  0  0  2  0  0  0  0  0  0
  -31.0330  -14.3880   20.6660 C   0  0  0  0  0  0  0  0  0  0  0  0
  -30.6570  -12.3510   19.3290 C   0  0  0  0  0  2  0  0  0  0  0  0
  -29.7370  -12.6450   18.1290 C   0  0  0  0  0  2  0  0  0  0  0  0
  -28.2540  -12.5310   18.5320 C   0  0  0  0  0  2  0  0  0  0  0  0
  -27.9260  -13.3250   19.8230 C   0  0  0  0  0  3  0  0  0  0  0  0
  -28.9480  -12.9960   20.9340 C   0  0  0  0  0  2  0  0  0  0  0  0
  -30.3020  -13.2730   20.4170 N   0  0  0  0  0  0  0  0  0  0  0  0
  -32.0860  -14.6630   20.0800 O   0  0  0  0  0  0  0  0  0  0  0  0
  -30.5070  -15.2080   21.5830 N   0  0  0  0  0  0  0  0  0  0  0  0
  -29.6620  -14.8870   22.0340 H   0  0  0  0  0  0  0  0  0  0  0  0
  -25.5130  -13.9780   20.4490 C   0  0  0  0  0  0  0  0  0  0  0  0
  -24.4250  -13.2260   20.8030 C   0  0  0  0  0  0  0  0  0  0  0  0
  -24.8700  -11.8690   20.8090 C   0  0  0  0  0  0  0  0  0  0  0  0
  -26.5540  -13.0810   20.2650 N   0  0  0  0  0  0  0  0  0  0  0  0
  -26.1670  -11.8090   20.5350 N   0  0  0  0  0  0  0  0  0  0  0  0
  -24.1260  -10.6180   21.0030 C   0  0  0  0  0  0  0  0  0  0  0  0
  -24.5250   -9.6620   21.9620 C   0  0  0  0  0  3  0  0  0  0  0  0
  -23.7830   -8.4750   22.1420 C   0  0  0  0  0  3  0  0  0  0  0  0
  -22.6270   -8.2360   21.3610 C   0  0  0  0  0  0  0  0  0  0  0  0
  -22.2470   -9.1800   20.3920 C   0  0  0  0  0  3  0  0  0  0  0  0
  -22.9890  -10.3590   20.2100 C   0  0  0  0  0  3  0  0  0  0  0  0
  -21.8580   -7.1000   21.4490 O   0  0  0  0  0  0  0  0  0  0  0  0
  -21.7710   -6.3790   22.6130 C   0  0  0  0  0  0  0  0  0  0  0  0
  -21.3130   -6.9580   23.8160 C   0  0  0  0  0  3  0  0  0  0  0  0
  -21.1720   -6.1630   24.9710 C   0  0  0  0  0  3  0  0  0  0  0  0
  -21.4780   -4.7900   24.9240 C   0  0  0  0  0  0  0  0  0  0  0  0
  -21.9290   -4.2110   23.7250 C   0  0  0  0  0  3  0  0  0  0  0  0
  -22.0720   -5.0020   22.5720 C   0  0  0  0  0  0  0  0  0  0  0  0
  -22.4860   -4.4340   21.4140 F   0  0  0  0  0  0  0  0  0  0  0  0
  -21.3350   -4.0250   26.0310 F   0  0  0  0  0  0  0  0  0  0  0  0
  -23.0270  -13.7230   21.0330 C   0  0  0  0  0  0  0  0  0  0  0  0
  -22.2700  -13.0490   21.8910 N   0  0  0  0  0  0  0  0  0  0  0  0
  -22.6130  -14.7440   20.4850 O   0  0  0  0  0  0  0  0  0  0  0  0
  -22.6160  -12.2230   22.3570 H   0  0  0  0  0  0  0  0  0  0  0  0
  -21.3300  -13.3650   22.0880 H   0  0  0  0  0  0  0  0  0  0  0  0
  -25.6990  -15.3440   20.2530 N   0  0  0  0  0  0  0  0  0  0  0  0
  -24.9380  -16.0100   20.3370 H   0  0  0  0  0  0  0  0  0  0  0  0
  -26.5670  -15.7660   19.9550 H   0  0  0  0  0  0  0  0  0  0  0  0
  1  3  1  0
  3  2  2  0
  3  9  1  0
  4  6  2  0
  5  4  1  0
  5  1  2  0
  6  2  1  0
  6  8  1  0
  7  5  1  0
  9 10  1  0
 10 11  1  0
 12 14  1  0
 12 11  1  0
 13 24  2  0
 14 19  1  0
 15 23  1  0
 15 25  1  0
 16 22  1  0
 16 18  1  0
 17 23  1  0
 18 17  1  0
 19 18  2  0
 20 21  1  0
 20 14  2  0
 21 16  2  0
 22 15  1  0
 23 13  1  0
 25 27  2  0
 26 25  1  0
 28 26  1  0
 29 38  2  0
 29 34  1  0
 30 26  1  0
 30 34  1  0
 31 30  1  0
 32 33  1  0
 32 31  1  0
 33 29  1  0
 34 35  2  0
 35 36  1  0
 37 36  2  0
 38 37  1  0
 39 13  1  0
 39 44  1  0
 39 40  1  0
 40 43  1  1
 40 41  1  0
 42 40  1  0
 44 47  1  0
 45 49  1  0
 45 44  1  0
 46 45  2  0
 49 48  1  0
 51 49  1  0
 51 52  1  0
 51 50  1  0
 53  4  1  0
 53 54  1  0
 54 55  1  0
 54 56  1  0
 58 57  1  0
 58 54  1  0
 58 59  1  0
 59 60  1  0
 60 61  1  0
 62 70  1  0
 63 68  1  0
 64 65  1  0
 64 63  1  0
 66 65  1  0
 66 75  1  0
 66 67  1  0
 68 62  1  0
 68 67  1  0
 69 62  2  0
 70 61  1  0
 70 71  1  0
 72 73  2  0
 73 74  1  0
 73 92  1  0
 74 77  1  0
 75 72  1  0
 75 76  1  0
 76 74  2  0
 77 78  1  0
 78 79  2  0
 80 83  1  0
 80 79  1  0
 81 80  2  0
 82 81  1  0
 82 77  2  0
 83 84  1  0
 84 85  1  0
 85 86  2  0
 87 86  1  0
 87 91  1  0
 88 87  2  0
 89 84  2  0
 89 88  1  0
 90 89  1  0
 92 93  1  0
 93 96  1  0
 93 95  1  0
 94 92  2  0
 97 98  1  0
 97 72  1  0
 99 97  1  0
M  ISO  4  11 101  12 101  62 100  70 100
M  END
>  <TORSDO>  (10) 
F 25

>  <SCORE>  (10) 
-12.016

>  <name>  (10) 
9

>  <ligand_id>  (10) 
9

>  <original_smiles>  (10) 
[H]c1c([H])c([H])c2c(c1[H])C([H])([H])C([H])([H])C([H])([H])C2([H])N([H])C(=O)C1([H])N(C(=O)C([H])(N([H])C(=O)C([H])(N([H])C([H])([H])[H])C([H])([H])[H])C(C([H])([H])[H])(C([H])([H])[H])C([H])([H])[H])C([H])([H])c2c([H])c(OC([H])([H])C([H])([H])C([H])([H])c3c([H])c(Cl)c(C([H])([H])[N+]([H])([H])C([H])(C([H])([H])[H])C([H])([H])C([H])([H])C([H])([H])N([H])C(=O)N4C([H])([H])C([H])([H])C([H])([H])C([H])(n5nc(-c6c([H])c([H])c(Oc7c([H])c([H])c(F)c([H])c7F)c([H])c6[H])c(C(=O)N([H])[H])c5N([H])[H])C4([H])[H])c(Cl)c3[H])c([H])c([H])c2C1([H])[H]

>  <smiles>  (10) 
[H]c1c([H])c([H])c2c(c1[H])C([H])([H])C([H])([H])C([H])([H])C2([H])N([H])C(=O)C1([H])N(C(=O)C([H])(N([H])C(=O)C([H])(N([H])C([H])([H])[H])C([H])([H])[H])C(C([H])([H])[H])(C([H])([H])[H])C([H])([H])[H])C([H])([H])c2c([H])c(OC([H])([H])C([H])([H])C([H])([H])c3c([H])c(Cl)c(C([H])([H])[N+]([H])([H])C([H])(C([H])([H])[H])C([H])([H])C([H])([H])C([H])([H])N([H])C(=O)N4C([H])([H])C([H])([H])C([H])([H])C([H])(n5nc(-c6c([H])c([H])c(Oc7c([H])c([H])c(F)c([H])c7F)c([H])c6[H])c(C(=O)N([H])[H])c5N([H])[H])C4([H])[H])c(Cl)c3[H])c([H])c([H])c2C1([H])[H]

$$$$
10:0:0
     RDKit          3D

 90 98  0  0  1  0  0  0  0  0999 V2000
  -28.5880  -19.0310   20.2010 C   0  0  0  0  0  3  0  0  0  0  0  0
  -29.9770  -18.8370   20.5060 C   0  0  0  0  0  0  0  0  0  0  0  0
  -28.3160  -20.3850   20.2160 C   0  0  0  0  0  0  0  0  0  0  0  0
  -30.4120  -20.1610   20.6450 C   0  0  0  0  0  0  0  0  0  0  0  0
  -29.4230  -21.1700   20.5070 N   0  0  0  0  0  0  0  0  0  0  0  0
  -26.7640  -21.0940   20.0000 Cl  0  0  0  0  0  0  0  0  0  0  0  0
  -32.0290  -20.6030   21.0350 Cl  0  0  0  0  0  0  0  0  0  0  0  0
  -30.8210  -17.4930   20.6710 C   0  0  0  0  0  2  0  0  0  0  0  0
  -30.9500  -14.9240   20.4100 C   0  0  0  0  0  0  0  0  0  0  0  0
  -30.6790  -12.7080   19.2940 C   0  0  0  0  0  2  0  0  0  0  0  0
  -29.7620  -12.8790   18.0650 C   0  0  0  0  0  2  0  0  0  0  0  0
  -28.2840  -12.7250   18.4720 C   0  0  0  0  0  2  0  0  0  0  0  0
  -27.9220  -13.5570   19.7340 C   0  0  0  0  0  3  0  0  0  0  0  0
  -28.9670  -13.3920   20.8570 C   0  0  0  0  0  2  0  0  0  0  0  0
  -30.2760  -13.7310   20.2860 N   0  0  0  0  0  0  0  0  0  0  0  0
  -32.1410  -14.9880   20.0950 O   0  0  0  0  0  0  0  0  0  0  0  0
  -30.2440  -16.0830   20.6810 N   0  0  0  0  0  0  0  0  0  0  0  0
  -29.2590  -15.9850   20.8730 H   0  0  0  0  0  0  0  0  0  0  0  0
  -25.5280  -14.1580   20.4260 C   0  0  0  0  0  0  0  0  0  0  0  0
  -24.4540  -13.3900   20.7810 C   0  0  0  0  0  0  0  0  0  0  0  0
  -24.9110  -12.0380   20.7580 C   0  0  0  0  0  0  0  0  0  0  0  0
  -26.5710  -13.2740   20.2050 N   0  0  0  0  0  0  0  0  0  0  0  0
  -26.2040  -11.9920   20.4670 N   0  0  0  0  0  0  0  0  0  0  0  0
  -24.1730  -10.7800   20.9390 C   0  0  0  0  0  0  0  0  0  0  0  0
  -24.5620   -9.8290   21.9070 C   0  0  0  0  0  3  0  0  0  0  0  0
  -23.8250   -8.6370   22.0730 C   0  0  0  0  0  3  0  0  0  0  0  0
  -22.6870   -8.3870   21.2700 C   0  0  0  0  0  0  0  0  0  0  0  0
  -22.3180   -9.3280   20.2940 C   0  0  0  0  0  3  0  0  0  0  0  0
  -23.0540  -10.5120   20.1270 C   0  0  0  0  0  3  0  0  0  0  0  0
  -21.9240   -7.2460   21.3450 O   0  0  0  0  0  0  0  0  0  0  0  0
  -21.8100   -6.5310   22.5110 C   0  0  0  0  0  0  0  0  0  0  0  0
  -21.2720   -7.1010   23.6860 C   0  0  0  0  0  3  0  0  0  0  0  0
  -21.1100   -6.3100   24.8410 C   0  0  0  0  0  3  0  0  0  0  0  0
  -21.4760   -4.9510   24.8220 C   0  0  0  0  0  0  0  0  0  0  0  0
  -22.0050   -4.3810   23.6500 C   0  0  0  0  0  3  0  0  0  0  0  0
  -22.1700   -5.1680   22.4980 C   0  0  0  0  0  0  0  0  0  0  0  0
  -22.6620   -4.6090   21.3660 F   0  0  0  0  0  0  0  0  0  0  0  0
  -21.3120   -4.1890   25.9280 F   0  0  0  0  0  0  0  0  0  0  0  0
  -23.0560  -13.8770   21.0300 C   0  0  0  0  0  0  0  0  0  0  0  0
  -22.3060  -13.1830   21.8780 N   0  0  0  0  0  0  0  0  0  0  0  0
  -22.6390  -14.9120   20.5090 O   0  0  0  0  0  0  0  0  0  0  0  0
  -22.6560  -12.3500   22.3270 H   0  0  0  0  0  0  0  0  0  0  0  0
  -21.3660  -13.4910   22.0870 H   0  0  0  0  0  0  0  0  0  0  0  0
  -25.7020  -15.5270   20.2430 N   0  0  0  0  0  0  0  0  0  0  0  0
  -24.9290  -16.1790   20.3200 H   0  0  0  0  0  0  0  0  0  0  0  0
  -26.5460  -15.9520   19.8790 H   0  0  0  0  0  0  0  0  0  0  0  0
  -29.4880  -22.6670   20.8390 C   0  0  0  0  0  3  0  0  0  0  0  0
  -28.8670  -23.8610   19.9350 C   0  0  0  0  0  3  0  0  0  0  0  0
  -28.6020  -25.2810   20.6760 C   0  0  0  0  0  2  0  0  0  0  0  0
  -28.6320  -26.6270   20.0220 O   0  0  0  0  0  0  0  0  0  0  0  0
  -24.6600  -31.8240   23.1910 C   0  0  0  0  0  0  0  0  0  0  0  0
  -27.4880  -27.4440   20.0510 C   0  0  0  0  0  0  0  0  0  0  0  0
  -23.5440  -30.4420   21.4790 C   0  0  0  0  0  3  0  0  0  0  0  0
  -25.0760  -28.9860   20.0340 C   0  0  0  0  0  0  0  0  0  0  0  0
  -26.0740  -30.8490   21.3610 C   0  0  0  0  0  2  0  0  0  0  0  0
  -26.2160  -29.4940   20.6710 C   0  0  0  0  0  0  0  0  0  0  0  0
  -27.4300  -28.7400   20.6610 C   0  0  0  0  0  3  0  0  0  0  0  0
  -26.3270  -26.9850   19.4020 C   0  0  0  0  0  3  0  0  0  0  0  0
  -25.1360  -27.7390   19.3880 C   0  0  0  0  0  3  0  0  0  0  0  0
  -23.8110  -29.8210   20.0820 C   0  0  0  0  0  2  0  0  0  0  0  0
  -24.7760  -31.0560   22.0670 N   0  0  0  0  0  0  0  0  0  0  0  0
  -23.5560  -32.0420   23.7110 O   0  0  0  0  0  0  0  0  0  0  0  0
  -22.8970  -29.3700   22.3900 C   0  0  0  0  0  0  0  0  0  0  0  0
  -21.5730  -29.1850   22.2600 N   0  0  0  0  0  0  0  0  0  0  0  0
  -23.5870  -28.7090   23.1710 O   0  0  0  0  0  0  0  0  0  0  0  0
  -21.0740  -29.7680   21.6040 H   0  0  0  0  0  0  0  0  0  0  0  0
  -18.1990  -27.9840   22.7840 C   0  0  0  0  0  0  0  0  0  0  0  0
  -20.7690  -28.2000   22.9860 C   0  0  0  0  0  3  0  0  0  0  0  0
  -20.8360  -26.8160   22.3010 C   0  0  0  0  0  2  0  0  0  0  0  0
  -19.6960  -26.5800   21.3040 C   0  0  0  0  0  2  0  0  0  0  0  0
  -18.3390  -26.6890   22.0030 C   0  0  0  0  0  2  0  0  0  0  0  0
  -19.3400  -28.7020   23.2320 C   0  0  0  0  0  0  0  0  0  0  0  0
  -19.1540  -29.9190   23.9240 C   0  0  0  0  0  3  0  0  0  0  0  0
  -17.8600  -30.4160   24.1730 C   0  0  0  0  0  3  0  0  0  0  0  0
  -16.7350  -29.6920   23.7400 C   0  0  0  0  0  3  0  0  0  0  0  0
  -16.9060  -28.4780   23.0500 C   0  0  0  0  0  3  0  0  0  0  0  0
  -25.9030  -32.4810   23.8650 C   0  0  0  0  0  3  0  0  0  0  0  0
  -26.3860  -31.7180   25.1600 C   0  0  1  0  0  0  0  0  0  0  0  0
  -25.2600  -31.4510   26.1850 C   0  0  0  0  0  1  0  0  0  0  0  0
  -27.0150  -30.3540   24.7880 C   0  0  0  0  0  1  0  0  0  0  0  0
  -27.4940  -32.5360   25.8650 C   0  0  0  0  0  1  0  0  0  0  0  0
  -25.5500  -33.8720   24.1870 N   0  0  0  0  0  0  0  0  0  0  0  0
  -25.9050  -34.9370   23.4580 C   0  0  0  0  0  0  0  0  0  0  0  0
  -26.6280  -34.8530   22.4610 O   0  0  0  0  0  0  0  0  0  0  0  0
  -24.9100  -34.0080   24.9560 H   0  0  0  0  0  0  0  0  0  0  0  0
  -24.1810  -36.7180   23.0210 C   0  0  0  0  0  1  0  0  0  0  0  0
  -25.3740  -36.3140   23.9020 C   0  0  0  0  0  3  0  0  0  0  0  0
  -27.4310  -37.2220   24.8910 C   0  0  0  0  0  1  0  0  0  0  0  0
  -26.4000  -37.3780   23.8680 N   0  0  0  0  0  0  0  0  0  0  0  0
  -25.9760  -38.2950   23.9820 H   0  0  0  0  0  0  0  0  0  0  0  0
  1  3  2  0
  1  2  1  0
  2  4  2  0
  2  8  1  0
  3  5  1  0
  4  7  1  0
  5  4  1  0
  5 47  1  0
  6  3  1  0
  8 17  1  0
  9 17  1  0
 10 15  1  0
 11 12  1  0
 11 10  1  0
 13 12  1  0
 13 22  1  0
 13 14  1  0
 15  9  1  0
 15 14  1  0
 16  9  2  0
 17 18  1  0
 19 20  2  0
 20 39  1  0
 21 20  1  0
 21 24  1  0
 22 19  1  0
 22 23  1  0
 23 21  2  0
 24 25  1  0
 25 26  2  0
 27 30  1  0
 27 26  1  0
 28 27  2  0
 29 28  1  0
 29 24  2  0
 30 31  1  0
 31 32  1  0
 32 33  2  0
 34 33  1  0
 34 38  1  0
 35 34  2  0
 36 31  2  0
 36 35  1  0
 37 36  1  0
 39 40  1  0
 40 43  1  0
 40 42  1  0
 41 39  2  0
 44 45  1  0
 44 19  1  0
 46 44  1  0
 48 49  1  0
 48 47  2  0
 50 52  1  0
 50 49  1  0
 51 62  2  0
 52 57  1  0
 53 61  1  0
 53 63  1  0
 54 60  1  0
 54 56  1  0
 55 61  1  0
 56 55  1  0
 57 56  2  0
 58 52  2  0
 59 58  1  0
 59 54  2  0
 60 53  1  0
 61 51  1  0
 63 65  2  0
 64 63  1  0
 66 64  1  0
 67 76  2  0
 67 72  1  0
 68 64  1  0
 68 72  1  0
 69 68  1  0
 70 71  1  0
 70 69  1  0
 71 67  1  0
 72 73  2  0
 73 74  1  0
 75 74  2  0
 76 75  1  0
 77 51  1  0
 77 82  1  0
 77 78  1  0
 78 81  1  1
 78 79  1  0
 80 78  1  0
 82 85  1  0
 83 87  1  0
 83 82  1  0
 84 83  2  0
 87 86  1  0
 89 87  1  0
 89 90  1  0
 89 88  1  0
M  ISO  4   9 100  17 100  49 101  50 101
M  END
>  <TORSDO>  (11) 
F 20

>  <SCORE>  (11) 
-13.186

>  <name>  (11) 
10

>  <ligand_id>  (11) 
10

>  <original_smiles>  (11) 
[H]c1c([H])c([H])c2c(c1[H])C([H])([H])C([H])([H])C([H])([H])C2([H])N([H])C(=O)C1([H])N(C(=O)C([H])(N([H])C(=O)C([H])(N([H])C([H])([H])[H])C([H])([H])[H])C(C([H])([H])[H])(C([H])([H])[H])C([H])([H])[H])C([H])([H])c2c([H])c(OC([H])([H])C([H])([H])C([H])([H])n3c(Cl)c([H])c(C([H])([H])N([H])C(=O)N4C([H])([H])C([H])([H])C([H])([H])C([H])(n5nc(-c6c([H])c([H])c(Oc7c([H])c([H])c(F)c([H])c7F)c([H])c6[H])c(C(=O)N([H])[H])c5N([H])[H])C4([H])[H])c3Cl)c([H])c([H])c2C1([H])[H]

>  <smiles>  (11) 
[H]c1c([H])c([H])c2c(c1[H])C([H])([H])C([H])([H])C([H])([H])C2([H])N([H])C(=O)C1([H])N(C(=O)C([H])(N([H])C(=O)C([H])(N([H])C([H])([H])[H])C([H])([H])[H])C(C([H])([H])[H])(C([H])([H])[H])C([H])([H])[H])C([H])([H])c2c([H])c(OC([H])([H])C([H])([H])C([H])([H])n3c(Cl)c([H])c(C([H])([H])N([H])C(=O)N4C([H])([H])C([H])([H])C([H])([H])C([H])(n5nc(-c6c([H])c([H])c(Oc7c([H])c([H])c(F)c([H])c7F)c([H])c6[H])c(C(=O)N([H])[H])c5N([H])[H])C4([H])[H])c3Cl)c([H])c([H])c2C1([H])[H]

$$$$
11:0:0
     RDKit          3D

102111  0  0  1  0  0  0  0  0999 V2000
  -29.3760  -20.7580   21.7660 C   0  0  0  0  0  3  0  0  0  0  0  0
  -31.0380  -22.6470   21.5220 C   0  0  0  0  0  2  0  0  0  0  0  0
  -28.3310  -21.8240   22.2240 C   0  0  0  0  0  3  0  0  0  0  0  0
  -30.5550  -21.2860   20.9190 C   0  0  0  0  0  3  0  0  0  0  0  0
  -29.9310  -23.6690   21.9460 C   0  0  0  0  0  3  0  0  0  0  0  0
  -28.5410  -23.1900   21.6710 N   0  0  1  0  0  4  0  0  0  0  0  0
  -27.9490  -23.7940   22.2230 H   0  0  0  0  0  0  0  0  0  0  0  0
  -32.8120  -20.9540   19.8510 C   0  0  0  0  0  3  0  0  0  0  0  0
  -32.6570  -18.2080   19.5560 C   0  0  0  0  0  3  0  0  0  0  0  0
  -31.6820  -20.3020   20.4220 C   0  0  0  0  0  0  0  0  0  0  0  0
  -31.6470  -18.8480   20.3370 C   0  0  0  0  0  0  0  0  0  0  0  0
  -33.7440  -18.8920   18.9770 C   0  0  0  0  0  0  0  0  0  0  0  0
  -33.8470  -20.2800   19.1830 C   0  0  0  0  0  0  0  0  0  0  0  0
  -35.1780  -21.2070   18.5750 Cl  0  0  0  0  0  0  0  0  0  0  0  0
  -34.2150  -17.8930   16.6900 C   0  0  0  0  0  1  0  0  0  0  0  0
  -34.7480  -18.1170   18.1150 C   0  0  0  0  0  2  0  0  0  0  0  0
  -30.5680  -17.8910   20.9340 C   0  0  0  0  0  2  0  0  0  0  0  0
  -31.0660  -16.5120   21.5010 C   0  0  0  0  0  2  0  0  0  0  0  0
  -30.5920  -14.4850   20.0700 C   0  0  0  0  0  0  0  0  0  0  0  0
  -30.2080  -12.3260   18.9240 C   0  0  0  0  0  2  0  0  0  0  0  0
  -29.1860  -12.4480   17.7840 C   0  0  0  0  0  2  0  0  0  0  0  0
  -27.7520  -12.2720   18.3150 C   0  0  0  0  0  2  0  0  0  0  0  0
  -27.4670  -13.1310   19.5740 C   0  0  0  0  0  3  0  0  0  0  0  0
  -28.6020  -13.0030   20.6160 C   0  0  0  0  0  2  0  0  0  0  0  0
  -29.8870  -13.3210   19.9630 N   0  0  0  0  0  0  0  0  0  0  0  0
  -31.5290  -14.7520   19.3120 O   0  0  0  0  0  0  0  0  0  0  0  0
  -30.2790  -15.3180   21.0880 N   0  0  0  0  0  0  0  0  0  0  0  0
  -29.5540  -15.0090   21.7230 H   0  0  0  0  0  0  0  0  0  0  0  0
  -25.1310  -13.6870   20.5120 C   0  0  0  0  0  0  0  0  0  0  0  0
  -24.1010  -12.9010   20.9450 C   0  0  0  0  0  0  0  0  0  0  0  0
  -24.5520  -11.5520   20.7980 C   0  0  0  0  0  0  0  0  0  0  0  0
  -26.1530  -12.8250   20.1480 N   0  0  0  0  0  0  0  0  0  0  0  0
  -25.8100  -11.5290   20.3730 N   0  0  0  0  0  0  0  0  0  0  0  0
  -23.8390  -10.2810   20.9970 C   0  0  0  0  0  0  0  0  0  0  0  0
  -24.3140   -9.3020   21.8970 C   0  0  0  0  0  3  0  0  0  0  0  0
  -23.6030   -8.0990   22.0880 C   0  0  0  0  0  3  0  0  0  0  0  0
  -22.4000   -7.8630   21.3820 C   0  0  0  0  0  0  0  0  0  0  0  0
  -21.9400   -8.8330   20.4730 C   0  0  0  0  0  3  0  0  0  0  0  0
  -22.6520  -10.0310   20.2790 C   0  0  0  0  0  3  0  0  0  0  0  0
  -21.6580   -6.7120   21.4810 O   0  0  0  0  0  0  0  0  0  0  0  0
  -21.6410   -5.9620   22.6290 C   0  0  0  0  0  0  0  0  0  0  0  0
  -21.2170   -6.5000   23.8650 C   0  0  0  0  0  3  0  0  0  0  0  0
  -21.1510   -5.6770   25.0060 C   0  0  0  0  0  3  0  0  0  0  0  0
  -21.4920   -4.3140   24.9150 C   0  0  0  0  0  0  0  0  0  0  0  0
  -21.9040   -3.7740   23.6840 C   0  0  0  0  0  3  0  0  0  0  0  0
  -21.9750   -4.5950   22.5440 C   0  0  0  0  0  0  0  0  0  0  0  0
  -22.3510   -4.0640   21.3560 F   0  0  0  0  0  0  0  0  0  0  0  0
  -21.4210   -3.5200   26.0100 F   0  0  0  0  0  0  0  0  0  0  0  0
  -22.7350  -13.3600   21.3740 C   0  0  0  0  0  0  0  0  0  0  0  0
  -22.0970  -12.6280   22.2810 N   0  0  0  0  0  0  0  0  0  0  0  0
  -22.2460  -14.4060   20.9450 O   0  0  0  0  0  0  0  0  0  0  0  0
  -22.5040  -11.7810   22.6480 H   0  0  0  0  0  0  0  0  0  0  0  0
  -21.1900  -12.9190   22.6180 H   0  0  0  0  0  0  0  0  0  0  0  0
  -25.2790  -15.0680   20.3910 N   0  0  0  0  0  0  0  0  0  0  0  0
  -24.5220  -15.7040   20.6060 H   0  0  0  0  0  0  0  0  0  0  0  0
  -26.1020  -15.5340   20.0290 H   0  0  0  0  0  0  0  0  0  0  0  0
  -29.4520  -25.5010   23.7370 C   0  0  0  0  0  1  0  0  0  0  0  0
  -30.1110  -24.1460   23.4140 C   0  0  0  0  0  2  0  0  0  0  0  0
  -27.9970  -23.3290   20.2680 C   0  0  0  0  0  2  0  0  0  0  0  0
  -27.8270  -24.7660   19.6770 C   0  0  0  0  0  2  0  0  0  0  0  0
  -27.6000  -24.8120   18.1400 C   0  0  0  0  0  2  0  0  0  0  0  0
  -27.5860  -26.1560   17.6060 O   0  0  0  0  0  0  0  0  0  0  0  0
  -25.0510  -30.7810   22.4020 C   0  0  0  0  0  0  0  0  0  0  0  0
  -26.5370  -26.9810   17.9650 C   0  0  0  0  0  0  0  0  0  0  0  0
  -23.4230  -29.9010   20.7620 C   0  0  0  0  0  3  0  0  0  0  0  0
  -24.4090  -28.6510   18.7720 C   0  0  0  0  0  0  0  0  0  0  0  0
  -25.9070  -30.0900   20.1630 C   0  0  0  0  0  2  0  0  0  0  0  0
  -25.7070  -28.9160   19.2230 C   0  0  0  0  0  0  0  0  0  0  0  0
  -26.7750  -28.0810   18.8200 C   0  0  0  0  0  3  0  0  0  0  0  0
  -25.2210  -26.7400   17.5160 C   0  0  0  0  0  3  0  0  0  0  0  0
  -24.1610  -27.5640   17.9240 C   0  0  0  0  0  3  0  0  0  0  0  0
  -23.3040  -29.5610   19.2540 C   0  0  0  0  0  2  0  0  0  0  0  0
  -24.8220  -30.2610   21.1620 N   0  0  0  0  0  0  0  0  0  0  0  0
  -24.1200  -31.0010   23.1880 O   0  0  0  0  0  0  0  0  0  0  0  0
  -22.8320  -28.7300   21.5830 C   0  0  0  0  0  0  0  0  0  0  0  0
  -21.4950  -28.6220   21.6060 N   0  0  0  0  0  0  0  0  0  0  0  0
  -23.5740  -27.9310   22.1640 O   0  0  0  0  0  0  0  0  0  0  0  0
  -20.9590  -29.3210   21.1110 H   0  0  0  0  0  0  0  0  0  0  0  0
  -18.1440  -27.3950   22.1720 C   0  0  0  0  0  0  0  0  0  0  0  0
  -20.7200  -27.5780   22.2770 C   0  0  0  0  0  3  0  0  0  0  0  0
  -20.7470  -26.2610   21.4660 C   0  0  0  0  0  2  0  0  0  0  0  0
  -19.5610  -26.1190   20.5090 C   0  0  0  0  0  2  0  0  0  0  0  0
  -18.2360  -26.1710   21.2740 C   0  0  0  0  0  2  0  0  0  0  0  0
  -19.3100  -28.0630   22.6270 C   0  0  0  0  0  0  0  0  0  0  0  0
  -19.1670  -29.2200   23.4250 C   0  0  0  0  0  3  0  0  0  0  0  0
  -17.8920  -29.7030   23.7730 C   0  0  0  0  0  3  0  0  0  0  0  0
  -16.7430  -29.0230   23.3410 C   0  0  0  0  0  3  0  0  0  0  0  0
  -16.8680  -27.8710   22.5450 C   0  0  0  0  0  3  0  0  0  0  0  0
  -26.4890  -31.1470   22.8800 C   0  0  0  0  0  3  0  0  0  0  0  0
  -26.3860  -32.3220   23.7550 N   0  0  0  0  0  0  0  0  0  0  0  0
  -26.7160  -33.5710   23.4020 C   0  0  0  0  0  0  0  0  0  0  0  0
  -27.2140  -33.8460   22.3050 O   0  0  0  0  0  0  0  0  0  0  0  0
  -25.9310  -32.1810   24.6450 H   0  0  0  0  0  0  0  0  0  0  0  0
  -25.1670  -35.4490   24.0300 C   0  0  0  0  0  1  0  0  0  0  0  0
  -26.4470  -34.6940   24.4230 C   0  0  0  0  0  3  0  0  0  0  0  0
  -28.7520  -35.0650   25.1800 C   0  0  0  0  0  1  0  0  0  0  0  0
  -27.5700  -35.6480   24.5520 N   0  0  0  0  0  0  0  0  0  0  0  0
  -27.2970  -36.4620   25.0930 H   0  0  0  0  0  0  0  0  0  0  0  0
  -27.2190  -29.9600   23.6210 C   0  0  1  0  0  0  0  0  0  0  0  0
  -26.3910  -29.3340   24.7670 C   0  0  0  0  0  1  0  0  0  0  0  0
  -27.5730  -28.8320   22.6230 C   0  0  0  0  0  1  0  0  0  0  0  0
  -28.5480  -30.4670   24.2260 C   0  0  0  0  0  1  0  0  0  0  0  0
  1  3  2  0
  2  5  1  0
  4 10  1  0
  4  2  1  0
  4  1  1  0
  5 58  1  0
  6  5  1  0
  6  7  1  1
  6  3  1  0
  8 10  1  0
  9 11  1  0
 11 10  2  0
 11 17  1  0
 12 13  1  0
 12  9  2  0
 13  8  2  0
 14 13  1  0
 15 16  1  0
 16 12  1  0
 17 18  1  0
 19 27  1  0
 20 25  1  0
 21 22  1  0
 21 20  1  0
 23 22  1  0
 23 32  1  0
 23 24  1  0
 25 19  1  0
 25 24  1  0
 26 19  2  0
 27 18  1  0
 27 28  1  0
 29 30  2  0
 30 49  1  0
 31 30  1  0
 31 34  1  0
 32 33  1  0
 32 29  1  0
 33 31  2  0
 34 35  1  0
 35 36  2  0
 37 40  1  0
 37 36  1  0
 38 37  2  0
 39 38  1  0
 39 34  2  0
 40 41  1  0
 41 42  1  0
 42 43  2  0
 44 43  1  0
 44 48  1  0
 45 44  2  0
 46 41  2  0
 46 45  1  0
 47 46  1  0
 49 50  1  0
 50 53  1  0
 50 52  1  0
 51 49  2  0
 54 29  1  0
 54 55  1  0
 56 54  1  0
 58 57  1  0
 59  6  1  0
 60 59  1  0
 61 60  1  0
 62 64  1  0
 62 61  1  0
 63 74  2  0
 64 69  1  0
 65 73  1  0
 65 75  1  0
 66 68  1  0
 66 72  1  0
 67 73  1  0
 68 67  1  0
 69 68  2  0
 70 71  1  0
 70 64  2  0
 71 66  2  0
 72 65  1  0
 73 63  1  0
 75 76  1  0
 75 77  2  0
 78 76  1  0
 79 88  2  0
 79 84  1  0
 80 76  1  0
 80 84  1  0
 81 80  1  0
 82 83  1  0
 82 81  1  0
 83 79  1  0
 84 85  2  0
 85 86  1  0
 87 86  2  0
 88 87  1  0
 89 63  1  0
 89 99  1  0
 89 90  1  0
 90 93  1  0
 91 90  1  0
 91 95  1  0
 92 91  2  0
 95 94  1  0
 95 97  1  0
 97 98  1  0
 97 96  1  0
 99102  1  1
 99100  1  0
101 99  1  0
M  ISO  4  19 100  27 100  61 101  62 101
M  END
>  <TORSDO>  (12) 
F 24

>  <SCORE>  (12) 
-9.537

>  <name>  (12) 
11

>  <ligand_id>  (12) 
11

>  <original_smiles>  (12) 
[H]c1c([H])c([H])c2c(c1[H])C([H])([H])C([H])([H])C([H])([H])C2([H])N([H])C(=O)C1([H])N(C(=O)C([H])(N([H])C(=O)C([H])(N([H])C([H])([H])[H])C([H])([H])[H])C(C([H])([H])[H])(C([H])([H])[H])C([H])([H])[H])C([H])([H])c2c([H])c(OC([H])([H])C([H])([H])C([H])([H])[N+]3([H])C([H])([H])C([H])([H])C([H])(c4c([H])c(Cl)c(C([H])([H])C([H])([H])[H])c([H])c4C([H])([H])C([H])([H])N([H])C(=O)N4C([H])([H])C([H])([H])C([H])([H])C([H])(n5nc(-c6c([H])c([H])c(Oc7c([H])c([H])c(F)c([H])c7F)c([H])c6[H])c(C(=O)N([H])[H])c5N([H])[H])C4([H])[H])C([H])([H])C3([H])C([H])([H])C([H])([H])[H])c([H])c([H])c2C1([H])[H]

>  <smiles>  (12) 
[H]c1c([H])c([H])c2c(c1[H])C([H])([H])C([H])([H])C([H])([H])C2([H])N([H])C(=O)C1([H])N(C(=O)C([H])(N([H])C(=O)C([H])(N([H])C([H])([H])[H])C([H])([H])[H])C(C([H])([H])[H])(C([H])([H])[H])C([H])([H])[H])C([H])([H])c2c([H])c(OC([H])([H])C([H])([H])C([H])([H])[N+]3([H])C([H])([H])C([H])([H])C([H])(c4c([H])c(Cl)c(C([H])([H])C([H])([H])[H])c([H])c4C([H])([H])C([H])([H])N([H])C(=O)N4C([H])([H])C([H])([H])C([H])([H])C([H])(n5nc(-c6c([H])c([H])c(Oc7c([H])c([H])c(F)c([H])c7F)c([H])c6[H])c(C(=O)N([H])[H])c5N([H])[H])C4([H])[H])C([H])([H])C3([H])C([H])([H])C([H])([H])[H])c([H])c([H])c2C1([H])[H]

$$$$
12:0:0
     RDKit          3D

 93101  0  0  1  0  0  0  0  0999 V2000
  -29.5730  -19.1550   20.3620 C   0  0  0  0  0  3  0  0  0  0  0  0
  -29.8840  -20.6110   20.2310 C   0  0  0  0  0  0  0  0  0  0  0  0
  -31.2760  -20.8570   20.1250 C   0  0  0  0  0  0  0  0  0  0  0  0
  -31.8910  -18.4460   20.3580 C   0  0  0  0  0  0  0  0  0  0  0  0
  -30.5240  -17.9900   20.3640 C   0  0  0  0  0  0  0  0  0  0  0  0
  -32.2230  -19.8230   20.2920 C   0  0  0  0  0  0  0  0  0  0  0  0
  -31.8300  -22.2130   19.7270 C   0  0  0  0  0  1  0  0  0  0  0  0
  -33.1090  -17.5310   20.2760 C   0  0  0  0  0  1  0  0  0  0  0  0
  -33.5320  -20.1790   20.3150 F   0  0  0  0  0  0  0  0  0  0  0  0
  -30.7160  -15.2110   20.5720 C   0  0  0  0  0  0  0  0  0  0  0  0
  -30.5830  -12.7930   19.7970 C   0  0  0  0  0  2  0  0  0  0  0  0
  -29.7300  -12.5850   18.5300 C   0  0  0  0  0  2  0  0  0  0  0  0
  -28.2430  -12.4220   18.8970 C   0  0  0  0  0  2  0  0  0  0  0  0
  -27.7500  -13.4180   19.9800 C   0  0  0  0  0  3  0  0  0  0  0  0
  -28.7610  -13.5940   21.1350 C   0  0  0  0  0  2  0  0  0  0  0  0
  -30.0400  -13.9820   20.5210 N   0  0  0  0  0  0  0  0  0  0  0  0
  -31.9310  -15.0690   20.6550 O   0  0  0  0  0  0  0  0  0  0  0  0
  -30.1320  -16.4830   20.1410 N   0  0  0  0  0  0  0  0  0  0  0  0
  -25.3410  -13.9930   20.6160 C   0  0  0  0  0  0  0  0  0  0  0  0
  -24.2620  -13.2180   20.9340 C   0  0  0  0  0  0  0  0  0  0  0  0
  -24.7390  -11.8700   20.9520 C   0  0  0  0  0  0  0  0  0  0  0  0
  -26.4000  -13.1190   20.4420 N   0  0  0  0  0  0  0  0  0  0  0  0
  -26.0450  -11.8380   20.7160 N   0  0  0  0  0  0  0  0  0  0  0  0
  -24.0160  -10.6050   21.1170 C   0  0  0  0  0  0  0  0  0  0  0  0
  -24.4080   -9.6520   22.0830 C   0  0  0  0  0  3  0  0  0  0  0  0
  -23.6870   -8.4510   22.2370 C   0  0  0  0  0  3  0  0  0  0  0  0
  -22.5550   -8.1970   21.4270 C   0  0  0  0  0  0  0  0  0  0  0  0
  -22.1830   -9.1350   20.4490 C   0  0  0  0  0  3  0  0  0  0  0  0
  -22.9090  -10.3280   20.2930 C   0  0  0  0  0  3  0  0  0  0  0  0
  -21.8080   -7.0460   21.4890 O   0  0  0  0  0  0  0  0  0  0  0  0
  -21.6990   -6.3170   22.6450 C   0  0  0  0  0  0  0  0  0  0  0  0
  -21.1740   -6.8750   23.8330 C   0  0  0  0  0  3  0  0  0  0  0  0
  -21.0180   -6.0700   24.9780 C   0  0  0  0  0  3  0  0  0  0  0  0
  -21.3840   -4.7110   24.9370 C   0  0  0  0  0  0  0  0  0  0  0  0
  -21.8980   -4.1530   23.7540 C   0  0  0  0  0  3  0  0  0  0  0  0
  -22.0550   -4.9550   22.6110 C   0  0  0  0  0  0  0  0  0  0  0  0
  -22.5310   -4.4080   21.4660 F   0  0  0  0  0  0  0  0  0  0  0  0
  -21.2330   -3.9340   26.0350 F   0  0  0  0  0  0  0  0  0  0  0  0
  -22.8490  -13.6910   21.1140 C   0  0  0  0  0  0  0  0  0  0  0  0
  -22.0730  -13.0110   21.9530 N   0  0  0  0  0  0  0  0  0  0  0  0
  -22.4350  -14.7020   20.5430 O   0  0  0  0  0  0  0  0  0  0  0  0
  -22.4170  -12.1960   22.4420 H   0  0  0  0  0  0  0  0  0  0  0  0
  -21.1220  -13.3140   22.1110 H   0  0  0  0  0  0  0  0  0  0  0  0
  -25.5020  -15.3620   20.4380 N   0  0  0  0  0  0  0  0  0  0  0  0
  -24.7360  -16.0210   20.5160 H   0  0  0  0  0  0  0  0  0  0  0  0
  -26.3780  -15.7900   20.1680 H   0  0  0  0  0  0  0  0  0  0  0  0
  -28.0220  -16.9210   18.7440 C   0  0  0  0  0  1  0  0  0  0  0  0
  -30.3360  -16.8920   17.6740 C   0  0  0  0  0  1  0  0  0  0  0  0
  -29.4530  -16.3510   18.8190 C   0  0  0  0  0  3  0  0  0  0  0  0
  -28.8060  -21.8760   20.0850 C   0  0  0  0  0  2  0  0  0  0  0  0
  -29.0350  -23.5330   20.4280 C   0  0  0  0  0  3  0  0  0  0  0  0
  -27.9560  -24.7980   20.1460 C   0  0  0  0  0  3  0  0  0  0  0  0
  -28.2010  -26.3270   20.3550 O   0  0  0  0  0  0  0  0  0  0  0  0
  -24.5230  -31.9990   23.3180 C   0  0  0  0  0  0  0  0  0  0  0  0
  -27.1350  -27.2990   20.2880 C   0  0  0  0  0  0  0  0  0  0  0  0
  -23.3340  -30.5810   21.6920 C   0  0  0  0  0  3  0  0  0  0  0  0
  -24.7920  -29.0190   20.2670 C   0  0  0  0  0  0  0  0  0  0  0  0
  -25.8860  -30.8720   21.5180 C   0  0  0  0  0  2  0  0  0  0  0  0
  -25.9690  -29.4780   20.8690 C   0  0  0  0  0  0  0  0  0  0  0  0
  -27.1450  -28.6340   20.8610 C   0  0  0  0  0  3  0  0  0  0  0  0
  -25.9300  -26.9430   19.6420 C   0  0  0  0  0  3  0  0  0  0  0  0
  -24.7840  -27.7670   19.6330 C   0  0  0  0  0  3  0  0  0  0  0  0
  -23.5550  -29.9020   20.3150 C   0  0  0  0  0  2  0  0  0  0  0  0
  -24.6010  -31.1730   22.2310 N   0  0  0  0  0  0  0  0  0  0  0  0
  -23.4360  -32.2750   23.8480 O   0  0  0  0  0  0  0  0  0  0  0  0
  -22.6690  -29.5710   22.6590 C   0  0  0  0  0  0  0  0  0  0  0  0
  -21.3500  -29.3610   22.5110 N   0  0  0  0  0  0  0  0  0  0  0  0
  -23.3410  -28.9780   23.5060 O   0  0  0  0  0  0  0  0  0  0  0  0
  -20.8650  -29.8880   21.8000 H   0  0  0  0  0  0  0  0  0  0  0  0
  -17.9970  -28.0570   22.9580 C   0  0  0  0  0  0  0  0  0  0  0  0
  -20.5390  -28.4140   23.2820 C   0  0  0  0  0  3  0  0  0  0  0  0
  -20.7020  -26.9720   22.7470 C   0  0  0  0  0  2  0  0  0  0  0  0
  -19.6400  -26.5870   21.7100 C   0  0  0  0  0  2  0  0  0  0  0  0
  -18.2380  -26.7000   22.3160 C   0  0  0  0  0  2  0  0  0  0  0  0
  -19.0790  -28.8680   23.3970 C   0  0  0  0  0  0  0  0  0  0  0  0
  -18.8010  -30.1340   23.9580 C   0  0  0  0  0  3  0  0  0  0  0  0
  -17.4760  -30.5940   24.0780 C   0  0  0  0  0  3  0  0  0  0  0  0
  -16.4080  -29.7820   23.6560 C   0  0  0  0  0  3  0  0  0  0  0  0
  -16.6700  -28.5150   23.1030 C   0  0  0  0  0  3  0  0  0  0  0  0
  -25.7960  -32.6530   23.9390 C   0  0  0  0  0  3  0  0  0  0  0  0
  -26.2910  -31.9200   25.2480 C   0  0  1  0  0  0  0  0  0  0  0  0
  -25.1800  -31.7090   26.3040 C   0  0  0  0  0  1  0  0  0  0  0  0
  -26.8870  -30.5350   24.9090 C   0  0  0  0  0  1  0  0  0  0  0  0
  -27.4260  -32.7390   25.9110 C   0  0  0  0  0  1  0  0  0  0  0  0
  -25.4830  -34.0600   24.2300 N   0  0  0  0  0  0  0  0  0  0  0  0
  -25.8240  -35.0960   23.4510 C   0  0  0  0  0  0  0  0  0  0  0  0
  -26.5080  -34.9660   22.4330 O   0  0  0  0  0  0  0  0  0  0  0  0
  -24.8830  -34.2320   25.0240 H   0  0  0  0  0  0  0  0  0  0  0  0
  -24.1150  -36.8910   23.0250 C   0  0  0  0  0  1  0  0  0  0  0  0
  -25.3370  -36.4970   23.8720 C   0  0  0  0  0  3  0  0  0  0  0  0
  -27.4560  -37.3920   24.7310 C   0  0  0  0  0  1  0  0  0  0  0  0
  -26.3780  -37.5420   23.7570 N   0  0  0  0  0  0  0  0  0  0  0  0
  -25.9730  -38.4660   23.8750 H   0  0  0  0  0  0  0  0  0  0  0  0
  1  5  1  0
  2  1  2  0
  3  2  1  0
  3  6  2  0
  4  5  2  0
  6  9  1  0
  6  4  1  0
  7  3  1  0
  8  4  1  0
 10 17  2  0
 11 16  1  0
 12 13  1  0
 12 11  1  0
 14 13  1  0
 14 22  1  0
 14 15  1  0
 16 10  1  0
 16 15  1  0
 18  5  1  0
 18 10  1  0
 19 20  2  0
 20 21  1  0
 20 39  1  0
 21 24  1  0
 22 19  1  0
 22 23  1  0
 23 21  2  0
 24 25  1  0
 25 26  2  0
 27 30  1  0
 27 26  1  0
 28 27  2  0
 29 28  1  0
 29 24  2  0
 30 31  1  0
 31 32  1  0
 32 33  2  0
 34 33  1  0
 34 38  1  0
 35 34  2  0
 36 31  2  0
 36 35  1  0
 37 36  1  0
 39 40  1  0
 40 43  1  0
 40 42  1  0
 41 39  2  0
 44 45  1  0
 44 19  1  0
 46 44  1  0
 47 49  1  0
 48 49  1  0
 49 18  1  0
 50  2  1  0
 50 51  1  0
 52 53  1  0
 52 51  2  0
 54 65  2  0
 55 53  1  0
 55 60  1  0
 56 64  1  0
 56 66  1  0
 57 63  1  0
 57 59  1  0
 58 64  1  0
 59 58  1  0
 60 59  2  0
 61 55  2  0
 62 61  1  0
 62 57  2  0
 63 56  1  0
 64 54  1  0
 66 68  2  0
 67 66  1  0
 69 67  1  0
 70 79  2  0
 70 75  1  0
 71 67  1  0
 71 75  1  0
 72 71  1  0
 73 74  1  0
 73 72  1  0
 74 70  1  0
 75 76  2  0
 76 77  1  0
 78 77  2  0
 79 78  1  0
 80 54  1  0
 80 85  1  0
 80 81  1  0
 81 84  1  1
 81 82  1  0
 83 81  1  0
 85 88  1  0
 86 90  1  0
 86 85  1  0
 87 86  2  0
 90 89  1  0
 92 90  1  0
 92 93  1  0
 92 91  1  0
M  ISO  4  10 100  18 100  52 101  53 101
M  END
>  <TORSDO>  (13) 
F 20

>  <SCORE>  (13) 
-13.752

>  <name>  (13) 
12

>  <ligand_id>  (13) 
12

>  <original_smiles>  (13) 
[H]c1c([H])c([H])c2c(c1[H])C([H])([H])C([H])([H])C([H])([H])C2([H])N([H])C(=O)C1([H])N(C(=O)C([H])(N([H])C(=O)C([H])(N([H])C([H])([H])[H])C([H])([H])[H])C(C([H])([H])[H])(C([H])([H])[H])C([H])([H])[H])C([H])([H])c2c([H])c(OC([H])([H])C([H])([H])C([H])([H])c3c([H])c(N(C(=O)N4C([H])([H])C([H])([H])C([H])([H])C([H])(n5nc(-c6c([H])c([H])c(Oc7c([H])c([H])c(F)c([H])c7F)c([H])c6[H])c(C(=O)N([H])[H])c5N([H])[H])C4([H])[H])C([H])(C([H])([H])[H])C([H])([H])[H])c(C([H])([H])[H])c(F)c3C([H])([H])[H])c([H])c([H])c2C1([H])[H]

>  <smiles>  (13) 
[H]c1c([H])c([H])c2c(c1[H])C([H])([H])C([H])([H])C([H])([H])C2([H])N([H])C(=O)C1([H])N(C(=O)C([H])(N([H])C(=O)C([H])(N([H])C([H])([H])[H])C([H])([H])[H])C(C([H])([H])[H])(C([H])([H])[H])C([H])([H])[H])C([H])([H])c2c([H])c(OC([H])([H])C([H])([H])C([H])([H])c3c([H])c(N(C(=O)N4C([H])([H])C([H])([H])C([H])([H])C([H])(n5nc(-c6c([H])c([H])c(Oc7c([H])c([H])c(F)c([H])c7F)c([H])c6[H])c(C(=O)N([H])[H])c5N([H])[H])C4([H])[H])C([H])(C([H])([H])[H])C([H])([H])[H])c(C([H])([H])[H])c(F)c3C([H])([H])[H])c([H])c([H])c2C1([H])[H]

$$$$
13:0:0
     RDKit          3D

 89 97  0  0  1  0  0  0  0  0999 V2000
  -29.8330  -20.6670   20.0400 C   0  0  0  0  0  3  0  0  0  0  0  0
  -27.3900  -19.8700   19.2770 C   0  0  0  0  0  3  0  0  0  0  0  0
  -28.8750  -21.7840   19.8050 C   0  0  0  0  0  0  0  0  0  0  0  0
  -27.6060  -21.2720   19.4090 C   0  0  0  0  0  0  0  0  0  0  0  0
  -29.5380  -19.2140   19.8950 C   0  0  0  0  0  0  0  0  0  0  0  0
  -28.2950  -18.8790   19.5020 N   0  0  0  0  0  0  0  0  0  0  0  0
  -26.2680  -22.3090   19.0830 Cl  0  0  0  0  0  0  0  0  0  0  0  0
  -29.1480  -23.4190   20.0510 C   0  0  0  0  0  3  0  0  0  0  0  0
  -28.1770  -24.7730   19.6870 C   0  0  0  0  0  3  0  0  0  0  0  0
  -28.4440  -26.3020   19.9480 O   0  0  0  0  0  0  0  0  0  0  0  0
  -24.5630  -31.7140   23.1560 C   0  0  0  0  0  0  0  0  0  0  0  0
  -27.3780  -27.2820   19.9080 C   0  0  0  0  0  0  0  0  0  0  0  0
  -23.4660  -30.3870   21.3970 C   0  0  0  0  0  3  0  0  0  0  0  0
  -25.0030  -28.9690   19.9100 C   0  0  0  0  0  0  0  0  0  0  0  0
  -26.0130  -30.7490   21.3260 C   0  0  0  0  0  2  0  0  0  0  0  0
  -26.1510  -29.4070   20.5830 C   0  0  0  0  0  0  0  0  0  0  0  0
  -27.3440  -28.5830   20.5610 C   0  0  0  0  0  3  0  0  0  0  0  0
  -26.2040  -26.9590   19.1930 C   0  0  0  0  0  3  0  0  0  0  0  0
  -25.0470  -27.7640   19.1950 C   0  0  0  0  0  3  0  0  0  0  0  0
  -23.7430  -29.8180   19.9820 C   0  0  0  0  0  2  0  0  0  0  0  0
  -24.7000  -30.9690   22.0170 N   0  0  0  0  0  0  0  0  0  0  0  0
  -23.4520  -31.9240   23.6670 O   0  0  0  0  0  0  0  0  0  0  0  0
  -22.8020  -29.2910   22.2700 C   0  0  0  0  0  0  0  0  0  0  0  0
  -21.4800  -29.1000   22.1160 N   0  0  0  0  0  0  0  0  0  0  0  0
  -23.4780  -28.6200   23.0530 O   0  0  0  0  0  0  0  0  0  0  0  0
  -20.9880  -29.7020   21.4730 H   0  0  0  0  0  0  0  0  0  0  0  0
  -18.1040  -27.8480   22.5570 C   0  0  0  0  0  0  0  0  0  0  0  0
  -20.6700  -28.0880   22.7990 C   0  0  0  0  0  3  0  0  0  0  0  0
  -20.7580  -26.7210   22.0820 C   0  0  0  0  0  2  0  0  0  0  0  0
  -19.6360  -26.5000   21.0620 C   0  0  0  0  0  2  0  0  0  0  0  0
  -18.2670  -26.5750   21.7430 C   0  0  0  0  0  2  0  0  0  0  0  0
  -19.2310  -28.5670   23.0400 C   0  0  0  0  0  0  0  0  0  0  0  0
  -19.0210  -29.7610   23.7640 C   0  0  0  0  0  3  0  0  0  0  0  0
  -17.7190  -30.2350   24.0090 C   0  0  0  0  0  3  0  0  0  0  0  0
  -16.6080  -29.5110   23.5420 C   0  0  0  0  0  3  0  0  0  0  0  0
  -16.8010  -28.3200   22.8200 C   0  0  0  0  0  3  0  0  0  0  0  0
  -25.7980  -32.3560   23.8610 C   0  0  0  0  0  3  0  0  0  0  0  0
  -26.2310  -31.5850   25.1690 C   0  0  1  0  0  0  0  0  0  0  0  0
  -25.0700  -31.3380   26.1620 C   0  0  0  0  0  1  0  0  0  0  0  0
  -26.8500  -30.2120   24.8240 C   0  0  0  0  0  1  0  0  0  0  0  0
  -27.3340  -32.3820   25.9060 C   0  0  0  0  0  1  0  0  0  0  0  0
  -25.4580  -33.7520   24.1820 N   0  0  0  0  0  0  0  0  0  0  0  0
  -25.7910  -34.8120   23.4320 C   0  0  0  0  0  0  0  0  0  0  0  0
  -26.4880  -34.7190   22.4180 O   0  0  0  0  0  0  0  0  0  0  0  0
  -24.8450  -33.8980   24.9700 H   0  0  0  0  0  0  0  0  0  0  0  0
  -24.0320  -36.5700   23.0600 C   0  0  0  0  0  1  0  0  0  0  0  0
  -25.2770  -36.1960   23.8780 C   0  0  0  0  0  3  0  0  0  0  0  0
  -27.3810  -37.1350   24.7270 C   0  0  0  0  0  1  0  0  0  0  0  0
  -26.2910  -37.2670   23.7630 N   0  0  0  0  0  0  0  0  0  0  0  0
  -25.8660  -38.1820   23.8870 H   0  0  0  0  0  0  0  0  0  0  0  0
  -30.5420  -17.9280   20.1420 C   0  0  0  0  0  2  0  0  0  0  0  0
  -30.8900  -15.2100   20.2070 C   0  0  0  0  0  0  0  0  0  0  0  0
  -30.7480  -12.8430   19.3020 C   0  0  0  0  0  2  0  0  0  0  0  0
  -29.8230  -12.8040   18.0660 C   0  0  0  0  0  2  0  0  0  0  0  0
  -28.3490  -12.6320   18.4760 C   0  0  0  0  0  2  0  0  0  0  0  0
  -27.9530  -13.5590   19.6570 C   0  0  0  0  0  3  0  0  0  0  0  0
  -29.0010  -13.5670   20.7870 C   0  0  0  0  0  2  0  0  0  0  0  0
  -30.2790  -13.9570   20.1790 N   0  0  0  0  0  0  0  0  0  0  0  0
  -32.0990  -15.2490   19.9410 O   0  0  0  0  0  0  0  0  0  0  0  0
  -30.1340  -16.4100   20.3210 N   0  0  0  0  0  0  0  0  0  0  0  0
  -29.1500  -16.2830   20.5040 H   0  0  0  0  0  0  0  0  0  0  0  0
  -25.5890  -14.1760   20.4090 C   0  0  0  0  0  0  0  0  0  0  0  0
  -24.5140  -13.4200   20.7850 C   0  0  0  0  0  0  0  0  0  0  0  0
  -24.9540  -12.0600   20.7510 C   0  0  0  0  0  0  0  0  0  0  0  0
  -26.6140  -13.2790   20.1600 N   0  0  0  0  0  0  0  0  0  0  0  0
  -26.2420  -12.0010   20.4330 N   0  0  0  0  0  0  0  0  0  0  0  0
  -24.2040  -10.8110   20.9400 C   0  0  0  0  0  0  0  0  0  0  0  0
  -24.5960   -9.8530   21.9000 C   0  0  0  0  0  3  0  0  0  0  0  0
  -23.8450   -8.6700   22.0770 C   0  0  0  0  0  3  0  0  0  0  0  0
  -22.6890   -8.4380   21.2950 C   0  0  0  0  0  0  0  0  0  0  0  0
  -22.3160   -9.3840   20.3240 C   0  0  0  0  0  3  0  0  0  0  0  0
  -23.0690  -10.5580   20.1430 C   0  0  0  0  0  3  0  0  0  0  0  0
  -21.9110   -7.3060   21.3830 O   0  0  0  0  0  0  0  0  0  0  0  0
  -21.8020   -6.5950   22.5510 C   0  0  0  0  0  0  0  0  0  0  0  0
  -21.2930   -7.1750   23.7330 C   0  0  0  0  0  3  0  0  0  0  0  0
  -21.1340   -6.3890   24.8910 C   0  0  0  0  0  3  0  0  0  0  0  0
  -21.4730   -5.0230   24.8680 C   0  0  0  0  0  0  0  0  0  0  0  0
  -21.9760   -4.4430   23.6910 C   0  0  0  0  0  3  0  0  0  0  0  0
  -22.1380   -5.2260   22.5350 C   0  0  0  0  0  0  0  0  0  0  0  0
  -22.6020   -4.6550   21.3960 F   0  0  0  0  0  0  0  0  0  0  0  0
  -21.3120   -4.2650   25.9780 F   0  0  0  0  0  0  0  0  0  0  0  0
  -23.1270  -13.9200   21.0570 C   0  0  0  0  0  0  0  0  0  0  0  0
  -22.3850  -13.2390   21.9240 N   0  0  0  0  0  0  0  0  0  0  0  0
  -22.7080  -14.9500   20.5300 O   0  0  0  0  0  0  0  0  0  0  0  0
  -22.7330  -12.4060   22.3750 H   0  0  0  0  0  0  0  0  0  0  0  0
  -21.4480  -13.5540   22.1340 H   0  0  0  0  0  0  0  0  0  0  0  0
  -25.7770  -15.5440   20.2360 N   0  0  0  0  0  0  0  0  0  0  0  0
  -25.0200  -16.2080   20.3390 H   0  0  0  0  0  0  0  0  0  0  0  0
  -26.6320  -15.9770   19.9110 H   0  0  0  0  0  0  0  0  0  0  0  0
  2  4  2  0
  2  6  1  0
  3  1  2  0
  3  8  1  0
  4  3  1  0
  5  1  1  0
  5 51  1  0
  6  5  2  0
  7  4  1  0
  9 10  1  0
  9  8  2  0
 11 22  2  0
 12 10  1  0
 12 17  1  0
 13 21  1  0
 13 23  1  0
 14 20  1  0
 14 16  1  0
 15 21  1  0
 16 15  1  0
 17 16  2  0
 18 19  1  0
 18 12  2  0
 19 14  2  0
 20 13  1  0
 21 11  1  0
 23 25  2  0
 24 23  1  0
 26 24  1  0
 27 36  2  0
 27 32  1  0
 28 24  1  0
 28 32  1  0
 29 28  1  0
 30 31  1  0
 30 29  1  0
 31 27  1  0
 32 33  2  0
 33 34  1  0
 35 34  2  0
 36 35  1  0
 37 11  1  0
 37 42  1  0
 37 38  1  0
 38 41  1  1
 38 39  1  0
 40 38  1  0
 42 45  1  0
 43 47  1  0
 43 42  1  0
 44 43  2  0
 47 46  1  0
 49 47  1  0
 49 50  1  0
 49 48  1  0
 51 60  1  0
 52 60  1  0
 53 58  1  0
 54 55  1  0
 54 53  1  0
 56 55  1  0
 56 65  1  0
 56 57  1  0
 58 52  1  0
 58 57  1  0
 59 52  2  0
 60 61  1  0
 62 63  2  0
 63 82  1  0
 64 63  1  0
 64 67  1  0
 65 62  1  0
 65 66  1  0
 66 64  2  0
 67 68  1  0
 68 69  2  0
 70 73  1  0
 70 69  1  0
 71 70  2  0
 72 71  1  0
 72 67  2  0
 73 74  1  0
 74 75  1  0
 75 76  2  0
 77 76  1  0
 77 81  1  0
 78 77  2  0
 79 74  2  0
 79 78  1  0
 80 79  1  0
 82 83  1  0
 83 86  1  0
 83 85  1  0
 84 82  2  0
 87 88  1  0
 87 62  1  0
 89 87  1  0
M  ISO  4   9 101  10 101  52 100  60 100
M  END
>  <TORSDO>  (14) 
F 19

>  <SCORE>  (14) 
-14.462

>  <name>  (14) 
13

>  <ligand_id>  (14) 
13

>  <original_smiles>  (14) 
[H]c1nc(C([H])([H])N([H])C(=O)N2C([H])([H])C([H])([H])C([H])([H])C([H])(n3nc(-c4c([H])c([H])c(Oc5c([H])c([H])c(F)c([H])c5F)c([H])c4[H])c(C(=O)N([H])[H])c3N([H])[H])C2([H])[H])c([H])c(C([H])([H])C([H])([H])Oc2c([H])c([H])c3c(c2[H])C([H])([H])N(C(=O)C([H])(N([H])C(=O)C([H])(N([H])C([H])([H])[H])C([H])([H])[H])C(C([H])([H])[H])(C([H])([H])[H])C([H])([H])[H])C([H])(C(=O)N([H])C2([H])c4c([H])c([H])c([H])c([H])c4C([H])([H])C([H])([H])C2([H])[H])C3([H])[H])c1Cl

>  <smiles>  (14) 
[H]c1nc(C([H])([H])N([H])C(=O)N2C([H])([H])C([H])([H])C([H])([H])C([H])(n3nc(-c4c([H])c([H])c(Oc5c([H])c([H])c(F)c([H])c5F)c([H])c4[H])c(C(=O)N([H])[H])c3N([H])[H])C2([H])[H])c([H])c(C([H])([H])C([H])([H])Oc2c([H])c([H])c3c(c2[H])C([H])([H])N(C(=O)C([H])(N([H])C(=O)C([H])(N([H])C([H])([H])[H])C([H])([H])[H])C(C([H])([H])[H])(C([H])([H])[H])C([H])([H])[H])C([H])(C(=O)N([H])C2([H])c4c([H])c([H])c([H])c([H])c4C([H])([H])C([H])([H])C2([H])[H])C3([H])[H])c1Cl

$$$$
14:0:0
     RDKit          3D

 90 98  0  0  1  0  0  0  0  0999 V2000
  -29.5440  -21.3070   21.3860 C   0  0  0  0  0  3  0  0  0  0  0  0
  -28.8140  -21.3120   19.1410 C   0  0  0  0  0  3  0  0  0  0  0  0
  -29.0690  -22.1130   20.2980 C   0  0  0  0  0  0  0  0  0  0  0  0
  -29.6560  -19.1040   20.1200 C   0  0  0  0  0  0  0  0  0  0  0  0
  -29.8300  -19.8890   21.3080 C   0  0  0  0  0  0  0  0  0  0  0  0
  -29.0890  -19.8900   19.0530 C   0  0  0  0  0  0  0  0  0  0  0  0
  -30.5210  -19.1380   22.7010 Cl  0  0  0  0  0  0  0  0  0  0  0  0
  -28.7940  -19.1380   17.5250 Cl  0  0  0  0  0  0  0  0  0  0  0  0
  -29.1270  -23.7500   20.3260 C   0  0  0  0  0  3  0  0  0  0  0  0
  -27.9370  -24.8570   20.0510 C   0  0  0  0  0  3  0  0  0  0  0  0
  -28.1690  -26.3720   20.1830 O   0  0  0  0  0  0  0  0  0  0  0  0
  -24.5090  -31.9350   23.2090 C   0  0  0  0  0  0  0  0  0  0  0  0
  -27.0870  -27.3010   20.1250 C   0  0  0  0  0  0  0  0  0  0  0  0
  -23.2960  -30.5350   21.5810 C   0  0  0  0  0  3  0  0  0  0  0  0
  -24.7370  -28.9870   20.1280 C   0  0  0  0  0  0  0  0  0  0  0  0
  -25.8400  -30.8410   21.3750 C   0  0  0  0  0  2  0  0  0  0  0  0
  -25.9170  -29.4550   20.7190 C   0  0  0  0  0  0  0  0  0  0  0  0
  -27.0940  -28.6270   20.7020 C   0  0  0  0  0  3  0  0  0  0  0  0
  -25.8810  -26.9200   19.4970 C   0  0  0  0  0  3  0  0  0  0  0  0
  -24.7280  -27.7310   19.5020 C   0  0  0  0  0  3  0  0  0  0  0  0
  -23.5010  -29.8670   20.1960 C   0  0  0  0  0  2  0  0  0  0  0  0
  -24.5680  -31.1230   22.1110 N   0  0  0  0  0  0  0  0  0  0  0  0
  -23.4290  -32.2060   23.7550 O   0  0  0  0  0  0  0  0  0  0  0  0
  -22.6430  -29.5150   22.5470 C   0  0  0  0  0  0  0  0  0  0  0  0
  -21.3290  -29.2800   22.3900 N   0  0  0  0  0  0  0  0  0  0  0  0
  -23.3220  -28.9380   23.4000 O   0  0  0  0  0  0  0  0  0  0  0  0
  -20.8360  -29.7990   21.6760 H   0  0  0  0  0  0  0  0  0  0  0  0
  -18.0030  -27.9070   22.7950 C   0  0  0  0  0  0  0  0  0  0  0  0
  -20.5290  -28.3260   23.1620 C   0  0  0  0  0  3  0  0  0  0  0  0
  -20.7360  -26.8820   22.6450 C   0  0  0  0  0  2  0  0  0  0  0  0
  -19.7000  -26.4610   21.6000 C   0  0  0  0  0  2  0  0  0  0  0  0
  -18.2840  -26.5490   22.1790 C   0  0  0  0  0  2  0  0  0  0  0  0
  -19.0570  -28.7480   23.2420 C   0  0  0  0  0  0  0  0  0  0  0  0
  -18.7400  -30.0160   23.7780 C   0  0  0  0  0  3  0  0  0  0  0  0
  -17.4030  -30.4440   23.8730 C   0  0  0  0  0  3  0  0  0  0  0  0
  -16.3630  -29.6030   23.4420 C   0  0  0  0  0  3  0  0  0  0  0  0
  -16.6630  -28.3360   22.9090 C   0  0  0  0  0  3  0  0  0  0  0  0
  -25.7920  -32.5770   23.8180 C   0  0  0  0  0  3  0  0  0  0  0  0
  -26.3090  -31.8240   25.1060 C   0  0  1  0  0  0  0  0  0  0  0  0
  -25.2110  -31.5800   26.1670 C   0  0  0  0  0  1  0  0  0  0  0  0
  -26.9150  -30.4520   24.7310 C   0  0  0  0  0  1  0  0  0  0  0  0
  -27.4440  -32.6380   25.7680 C   0  0  0  0  0  1  0  0  0  0  0  0
  -25.4830  -33.9800   24.1330 N   0  0  0  0  0  0  0  0  0  0  0  0
  -25.7720  -35.0220   23.3420 C   0  0  0  0  0  0  0  0  0  0  0  0
  -26.3950  -34.9030   22.2830 O   0  0  0  0  0  0  0  0  0  0  0  0
  -24.9230  -34.1450   24.9580 H   0  0  0  0  0  0  0  0  0  0  0  0
  -24.0010  -36.7870   23.0560 C   0  0  0  0  0  1  0  0  0  0  0  0
  -25.2970  -36.4170   23.7960 C   0  0  0  0  0  3  0  0  0  0  0  0
  -27.4580  -37.3610   24.4810 C   0  0  0  0  0  1  0  0  0  0  0  0
  -26.3060  -37.4790   23.5900 N   0  0  0  0  0  0  0  0  0  0  0  0
  -25.8950  -38.3980   23.7270 H   0  0  0  0  0  0  0  0  0  0  0  0
  -30.3610  -17.6390   19.8880 C   0  0  0  0  0  2  0  0  0  0  0  0
  -30.5750  -14.9990   19.9030 C   0  0  0  0  0  0  0  0  0  0  0  0
  -30.3680  -12.6790   18.9540 C   0  0  0  0  0  2  0  0  0  0  0  0
  -29.3610  -12.6810   17.7830 C   0  0  0  0  0  2  0  0  0  0  0  0
  -27.9240  -12.4760   18.3040 C   0  0  0  0  0  2  0  0  0  0  0  0
  -27.5990  -13.3700   19.5310 C   0  0  0  0  0  3  0  0  0  0  0  0
  -28.7280  -13.3560   20.5820 C   0  0  0  0  0  2  0  0  0  0  0  0
  -29.9610  -13.7570   19.8940 N   0  0  0  0  0  0  0  0  0  0  0  0
  -31.7470  -15.0660   19.5230 O   0  0  0  0  0  0  0  0  0  0  0  0
  -29.8440  -16.1860   20.1150 N   0  0  0  0  0  0  0  0  0  0  0  0
  -28.8800  -16.0840   20.3890 H   0  0  0  0  0  0  0  0  0  0  0  0
  -25.2850  -13.9080   20.4880 C   0  0  0  0  0  0  0  0  0  0  0  0
  -24.2490  -13.1160   20.8980 C   0  0  0  0  0  0  0  0  0  0  0  0
  -24.7010  -11.7690   20.7520 C   0  0  0  0  0  0  0  0  0  0  0  0
  -26.3010  -13.0450   20.1140 N   0  0  0  0  0  0  0  0  0  0  0  0
  -25.9640  -11.7480   20.3380 N   0  0  0  0  0  0  0  0  0  0  0  0
  -23.9830  -10.4980   20.9240 C   0  0  0  0  0  0  0  0  0  0  0  0
  -24.3810   -9.5480   21.8900 C   0  0  0  0  0  3  0  0  0  0  0  0
  -23.6600   -8.3450   22.0490 C   0  0  0  0  0  3  0  0  0  0  0  0
  -22.5270   -8.0830   21.2420 C   0  0  0  0  0  0  0  0  0  0  0  0
  -22.1490   -9.0230   20.2660 C   0  0  0  0  0  3  0  0  0  0  0  0
  -22.8700  -10.2180   20.1050 C   0  0  0  0  0  3  0  0  0  0  0  0
  -21.7800   -6.9310   21.3100 O   0  0  0  0  0  0  0  0  0  0  0  0
  -21.5470   -6.2940   22.5020 C   0  0  0  0  0  0  0  0  0  0  0  0
  -20.8390   -6.9170   23.5540 C   0  0  0  0  0  3  0  0  0  0  0  0
  -20.5590   -6.2020   24.7350 C   0  0  0  0  0  3  0  0  0  0  0  0
  -20.9760   -4.8640   24.8650 C   0  0  0  0  0  0  0  0  0  0  0  0
  -21.6750   -4.2390   23.8160 C   0  0  0  0  0  3  0  0  0  0  0  0
  -21.9560   -4.9520   22.6380 C   0  0  0  0  0  0  0  0  0  0  0  0
  -22.6110   -4.3390   21.6230 F   0  0  0  0  0  0  0  0  0  0  0  0
  -20.7020   -4.1750   25.9970 F   0  0  0  0  0  0  0  0  0  0  0  0
  -22.8800  -13.5810   21.3040 C   0  0  0  0  0  0  0  0  0  0  0  0
  -22.2200  -12.8440   22.1920 N   0  0  0  0  0  0  0  0  0  0  0  0
  -22.4070  -14.6300   20.8700 O   0  0  0  0  0  0  0  0  0  0  0  0
  -22.6180  -11.9970   22.5660 H   0  0  0  0  0  0  0  0  0  0  0  0
  -21.3040  -13.1360   22.5030 H   0  0  0  0  0  0  0  0  0  0  0  0
  -25.4390  -15.2880   20.3780 N   0  0  0  0  0  0  0  0  0  0  0  0
  -24.6820  -15.9300   20.5860 H   0  0  0  0  0  0  0  0  0  0  0  0
  -26.2450  -15.7470   19.9750 H   0  0  0  0  0  0  0  0  0  0  0  0
  2  3  1  0
  3  9  1  0
  3  1  2  0
  4  5  2  0
  5  1  1  0
  5  7  1  0
  6  2  2  0
  6  4  1  0
  8  6  1  0
 10 11  1  0
 10  9  2  0
 12 23  2  0
 13 11  1  0
 13 18  1  0
 14 22  1  0
 14 24  1  0
 15 21  1  0
 15 17  1  0
 16 22  1  0
 17 16  1  0
 18 17  2  0
 19 20  1  0
 19 13  2  0
 20 15  2  0
 21 14  1  0
 22 12  1  0
 24 26  2  0
 25 24  1  0
 27 25  1  0
 28 37  2  0
 28 33  1  0
 29 25  1  0
 29 33  1  0
 30 29  1  0
 31 32  1  0
 31 30  1  0
 32 28  1  0
 33 34  2  0
 34 35  1  0
 36 35  2  0
 37 36  1  0
 38 12  1  0
 38 43  1  0
 38 39  1  0
 39 42  1  1
 39 40  1  0
 41 39  1  0
 43 46  1  0
 44 48  1  0
 44 43  1  0
 45 44  2  0
 48 47  1  0
 50 51  1  0
 50 48  1  0
 50 49  1  0
 52 61  1  0
 52  4  1  0
 53 61  1  0
 54 59  1  0
 55 56  1  0
 55 54  1  0
 57 56  1  0
 57 66  1  0
 57 58  1  0
 59 53  1  0
 59 58  1  0
 60 53  2  0
 61 62  1  0
 63 64  2  0
 64 83  1  0
 65 64  1  0
 65 68  1  0
 66 67  1  0
 66 63  1  0
 67 65  2  0
 68 69  1  0
 69 70  2  0
 71 74  1  0
 71 70  1  0
 72 71  2  0
 73 72  1  0
 73 68  2  0
 74 75  1  0
 75 80  2  0
 75 76  1  0
 76 77  2  0
 77 78  1  0
 78 82  1  0
 79 78  2  0
 80 79  1  0
 81 80  1  0
 83 84  1  0
 84 87  1  0
 84 86  1  0
 85 83  2  0
 88 63  1  0
 88 89  1  0
 90 88  1  0
M  ISO  4  10 101  11 101  53 100  61 100
M  END
>  <TORSDO>  (15) 
F 19

>  <SCORE>  (15) 
-13.344

>  <name>  (15) 
14

>  <ligand_id>  (15) 
14

>  <original_smiles>  (15) 
[H]c1c([H])c([H])c2c(c1[H])C([H])([H])C([H])([H])C([H])([H])C2([H])N([H])C(=O)C1([H])N(C(=O)C([H])(N([H])C(=O)C([H])(N([H])C([H])([H])[H])C([H])([H])[H])C(C([H])([H])[H])(C([H])([H])[H])C([H])([H])[H])C([H])([H])c2c([H])c(OC([H])([H])C([H])([H])c3c([H])c(Cl)c(C([H])([H])N([H])C(=O)N4C([H])([H])C([H])([H])C([H])([H])C([H])(n5nc(-c6c([H])c([H])c(Oc7c([H])c([H])c(F)c([H])c7F)c([H])c6[H])c(C(=O)N([H])[H])c5N([H])[H])C4([H])[H])c(Cl)c3[H])c([H])c([H])c2C1([H])[H]

>  <smiles>  (15) 
[H]c1c([H])c([H])c2c(c1[H])C([H])([H])C([H])([H])C([H])([H])C2([H])N([H])C(=O)C1([H])N(C(=O)C([H])(N([H])C(=O)C([H])(N([H])C([H])([H])[H])C([H])([H])[H])C(C([H])([H])[H])(C([H])([H])[H])C([H])([H])[H])C([H])([H])c2c([H])c(OC([H])([H])C([H])([H])c3c([H])c(Cl)c(C([H])([H])N([H])C(=O)N4C([H])([H])C([H])([H])C([H])([H])C([H])(n5nc(-c6c([H])c([H])c(Oc7c([H])c([H])c(F)c([H])c7F)c([H])c6[H])c(C(=O)N([H])[H])c5N([H])[H])C4([H])[H])c(Cl)c3[H])c([H])c([H])c2C1([H])[H]

$$$$
15:0:0
     RDKit          3D

102110  0  0  1  0  0  0  0  0999 V2000
  -25.4220  -21.8850   17.7420 C   0  0  0  0  0  2  0  0  0  0  0  0
  -24.2480  -21.8460   16.7490 C   0  0  0  0  0  2  0  0  0  0  0  0
  -23.3780  -23.1240   16.7290 C   0  0  0  0  0  2  0  0  0  0  0  0
  -22.5880  -23.2870   15.4090 C   0  0  0  0  0  2  0  0  0  0  0  0
  -23.0420  -24.4660   14.5160 C   0  0  0  0  0  2  0  0  0  0  0  0
  -24.5690  -24.5450   14.2600 C   0  0  0  0  0  2  0  0  0  0  0  0
  -25.2310  -25.7790   14.9130 C   0  0  0  0  0  2  0  0  0  0  0  0
  -26.6970  -25.5800   15.3710 C   0  0  0  0  0  2  0  0  0  0  0  0
  -26.8090  -25.7530   16.8970 C   0  0  0  0  0  3  0  0  0  0  0  0
  -28.2150  -25.6470   17.5240 C   0  0  0  0  0  3  0  0  0  0  0  0
  -28.2460  -25.5690   19.0820 C   0  0  0  0  0  2  0  0  0  0  0  0
  -28.1990  -26.8180   19.7980 O   0  0  0  0  0  0  0  0  0  0  0  0
  -24.5540  -31.9250   23.2340 C   0  0  0  0  0  0  0  0  0  0  0  0
  -27.0050  -27.4970   19.9540 C   0  0  0  0  0  0  0  0  0  0  0  0
  -23.2640  -30.5600   21.6300 C   0  0  0  0  0  3  0  0  0  0  0  0
  -24.6310  -29.0250   20.1340 C   0  0  0  0  0  0  0  0  0  0  0  0
  -25.7860  -30.8890   21.3270 C   0  0  0  0  0  2  0  0  0  0  0  0
  -25.8240  -29.5260   20.6660 C   0  0  0  0  0  0  0  0  0  0  0  0
  -27.0170  -28.7710   20.5700 C   0  0  0  0  0  3  0  0  0  0  0  0
  -25.7670  -26.9800   19.5080 C   0  0  0  0  0  3  0  0  0  0  0  0
  -24.5930  -27.7460   19.5620 C   0  0  0  0  0  3  0  0  0  0  0  0
  -23.4040  -29.9020   20.2340 C   0  0  0  0  0  2  0  0  0  0  0  0
  -24.5560  -31.1390   22.1210 N   0  0  0  0  0  0  0  0  0  0  0  0
  -23.4970  -32.2030   23.8200 O   0  0  0  0  0  0  0  0  0  0  0  0
  -22.6440  -29.5300   22.6010 C   0  0  0  0  0  0  0  0  0  0  0  0
  -21.3200  -29.3310   22.4940 N   0  0  0  0  0  0  0  0  0  0  0  0
  -23.3500  -28.9150   23.4050 O   0  0  0  0  0  0  0  0  0  0  0  0
  -20.8080  -29.8790   21.8160 H   0  0  0  0  0  0  0  0  0  0  0  0
  -17.9760  -28.0540   22.9920 C   0  0  0  0  0  0  0  0  0  0  0  0
  -20.5250  -28.3870   23.2760 C   0  0  0  0  0  3  0  0  0  0  0  0
  -20.6690  -26.9470   22.7340 C   0  0  0  0  0  2  0  0  0  0  0  0
  -19.5870  -26.5710   21.7160 C   0  0  0  0  0  2  0  0  0  0  0  0
  -18.1950  -26.6940   22.3460 C   0  0  0  0  0  2  0  0  0  0  0  0
  -19.0730  -28.8540   23.4130 C   0  0  0  0  0  0  0  0  0  0  0  0
  -18.8150  -30.1230   23.9770 C   0  0  0  0  0  3  0  0  0  0  0  0
  -17.4960  -30.5920   24.1250 C   0  0  0  0  0  3  0  0  0  0  0  0
  -16.4170  -29.7880   23.7220 C   0  0  0  0  0  3  0  0  0  0  0  0
  -16.6580  -28.5230   23.1580 C   0  0  0  0  0  3  0  0  0  0  0  0
  -25.8710  -32.5320   23.8080 C   0  0  0  0  0  3  0  0  0  0  0  0
  -25.5940  -33.9310   24.1570 N   0  0  0  0  0  0  0  0  0  0  0  0
  -25.9060  -34.9840   23.3910 C   0  0  0  0  0  0  0  0  0  0  0  0
  -26.5300  -34.8770   22.3300 O   0  0  0  0  0  0  0  0  0  0  0  0
  -25.0350  -34.0910   24.9840 H   0  0  0  0  0  0  0  0  0  0  0  0
  -24.1830  -36.7950   23.1160 C   0  0  0  0  0  1  0  0  0  0  0  0
  -25.4530  -36.3750   23.8730 C   0  0  0  0  0  3  0  0  0  0  0  0
  -27.6310  -37.2310   24.6140 C   0  0  0  0  0  1  0  0  0  0  0  0
  -26.4910  -37.4170   23.7200 N   0  0  0  0  0  0  0  0  0  0  0  0
  -26.1030  -38.3400   23.8900 H   0  0  0  0  0  0  0  0  0  0  0  0
  -26.4250  -31.7440   25.0560 C   0  0  1  0  0  0  0  0  0  0  0  0
  -25.3690  -31.5100   26.1630 C   0  0  0  0  0  1  0  0  0  0  0  0
  -26.9760  -30.3650   24.6270 C   0  0  0  0  0  1  0  0  0  0  0  0
  -27.6100  -32.5180   25.6790 C   0  0  0  0  0  1  0  0  0  0  0  0
  -26.3260  -20.6350   17.6450 C   0  0  0  0  0  2  0  0  0  0  0  0
  -27.8410  -20.9420   17.6430 C   0  0  0  0  0  2  0  0  0  0  0  0
  -30.0370  -18.8350   20.7690 C   0  0  0  0  0  3  0  0  0  0  0  0
  -29.7130  -18.1760   19.5690 C   0  0  0  0  0  0  0  0  0  0  0  0
  -28.9610  -20.8870   19.9660 C   0  0  0  0  0  0  0  0  0  0  0  0
  -28.6190  -20.2230   18.7510 C   0  0  0  0  0  0  0  0  0  0  0  0
  -29.6610  -20.1740   20.9710 C   0  0  0  0  0  0  0  0  0  0  0  0
  -29.0010  -18.8710   18.5630 C   0  0  0  0  0  0  0  0  0  0  0  0
  -28.5870  -22.3420   20.2300 C   0  0  0  0  0  1  0  0  0  0  0  0
  -30.0710  -20.9090   22.4810 Cl  0  0  0  0  0  0  0  0  0  0  0  0
  -28.5990  -18.0410   17.0930 Cl  0  0  0  0  0  0  0  0  0  0  0  0
  -30.1350  -16.7330   19.3250 C   0  0  0  0  0  2  0  0  0  0  0  0
  -31.0610  -14.8180   20.3990 C   0  0  0  0  0  0  0  0  0  0  0  0
  -30.8230  -12.5420   19.5220 C   0  0  0  0  0  2  0  0  0  0  0  0
  -29.9290  -12.5950   18.2680 C   0  0  0  0  0  2  0  0  0  0  0  0
  -28.4420  -12.4830   18.6570 C   0  0  0  0  0  2  0  0  0  0  0  0
  -28.0400  -13.4600   19.7920 C   0  0  0  0  0  3  0  0  0  0  0  0
  -29.0560  -13.4100   20.9570 C   0  0  0  0  0  2  0  0  0  0  0  0
  -30.3990  -13.6350   20.4010 N   0  0  0  0  0  0  0  0  0  0  0  0
  -32.2220  -14.9530   20.0090 O   0  0  0  0  0  0  0  0  0  0  0  0
  -30.2740  -15.8870   20.5100 N   0  0  0  0  0  0  0  0  0  0  0  0
  -30.4650  -16.4220   21.3450 H   0  0  0  0  0  0  0  0  0  0  0  0
  -25.6400  -14.1150   20.4530 C   0  0  0  0  0  0  0  0  0  0  0  0
  -24.5480  -13.3680   20.8040 C   0  0  0  0  0  0  0  0  0  0  0  0
  -24.9860  -12.0080   20.7890 C   0  0  0  0  0  0  0  0  0  0  0  0
  -26.6740  -13.2160   20.2520 N   0  0  0  0  0  0  0  0  0  0  0  0
  -26.2800  -11.9430   20.5090 N   0  0  0  0  0  0  0  0  0  0  0  0
  -24.2320  -10.7610   20.9740 C   0  0  0  0  0  0  0  0  0  0  0  0
  -24.6210   -9.7990   21.9330 C   0  0  0  0  0  3  0  0  0  0  0  0
  -23.8730   -8.6140   22.1010 C   0  0  0  0  0  3  0  0  0  0  0  0
  -22.7220   -8.3820   21.3130 C   0  0  0  0  0  0  0  0  0  0  0  0
  -22.3520   -9.3330   20.3450 C   0  0  0  0  0  3  0  0  0  0  0  0
  -23.0990  -10.5090   20.1740 C   0  0  0  0  0  3  0  0  0  0  0  0
  -21.9490   -7.2490   21.3920 O   0  0  0  0  0  0  0  0  0  0  0  0
  -21.8270   -6.5440   22.5620 C   0  0  0  0  0  0  0  0  0  0  0  0
  -21.3600   -7.1460   23.7510 C   0  0  0  0  0  3  0  0  0  0  0  0
  -21.1850   -6.3690   24.9130 C   0  0  0  0  0  3  0  0  0  0  0  0
  -21.4610   -4.9870   24.8860 C   0  0  0  0  0  0  0  0  0  0  0  0
  -21.9210   -4.3850   23.7020 C   0  0  0  0  0  3  0  0  0  0  0  0
  -22.1000   -5.1610   22.5430 C   0  0  0  0  0  0  0  0  0  0  0  0
  -22.5230   -4.5720   21.3990 F   0  0  0  0  0  0  0  0  0  0  0  0
  -21.2850   -4.2380   25.9980 F   0  0  0  0  0  0  0  0  0  0  0  0
  -23.1550  -13.8740   21.0480 C   0  0  0  0  0  0  0  0  0  0  0  0
  -22.4080  -13.2120   21.9260 N   0  0  0  0  0  0  0  0  0  0  0  0
  -22.7400  -14.8930   20.4980 O   0  0  0  0  0  0  0  0  0  0  0  0
  -22.7580  -12.3900   22.3980 H   0  0  0  0  0  0  0  0  0  0  0  0
  -21.4740  -13.5330   22.1340 H   0  0  0  0  0  0  0  0  0  0  0  0
  -25.8390  -15.4810   20.2700 N   0  0  0  0  0  0  0  0  0  0  0  0
  -25.0970  -16.1600   20.3810 H   0  0  0  0  0  0  0  0  0  0  0  0
  -26.7280  -15.8970   20.0220 H   0  0  0  0  0  0  0  0  0  0  0  0
  2  1  1  0
  3  2  1  0
  4  3  1  0
  5  4  1  0
  6  5  1  0
  6  7  1  0
  7  8  1  0
  8  9  1  0
  9 10  2  0
 10 11  1  0
 11 12  1  0
 12 14  1  0
 13 24  2  0
 14 19  1  0
 15 23  1  0
 15 25  1  0
 16 22  1  0
 16 18  1  0
 17 23  1  0
 18 17  1  0
 19 18  2  0
 20 21  1  0
 20 14  2  0
 21 16  2  0
 22 15  1  0
 23 13  1  0
 25 27  2  0
 26 25  1  0
 28 26  1  0
 29 38  2  0
 29 34  1  0
 30 26  1  0
 30 34  1  0
 31 30  1  0
 32 33  1  0
 32 31  1  0
 33 29  1  0
 34 35  2  0
 35 36  1  0
 37 36  2  0
 38 37  1  0
 39 13  1  0
 39 40  1  0
 39 49  1  0
 40 43  1  0
 41 45  1  0
 41 40  1  0
 42 41  2  0
 45 44  1  0
 47 45  1  0
 47 48  1  0
 47 46  1  0
 49 52  1  1
 49 50  1  0
 51 49  1  0
 53  1  1  0
 54 53  1  0
 54 58  1  0
 55 59  1  0
 56 55  2  0
 57 61  1  0
 57 59  2  0
 58 57  1  0
 59 62  1  0
 60 58  2  0
 60 56  1  0
 63 60  1  0
 64 56  1  0
 64 73  1  0
 65 71  1  0
 65 73  1  0
 66 71  1  0
 67 68  1  0
 67 66  1  0
 69 68  1  0
 69 78  1  0
 69 70  1  0
 71 70  1  0
 72 65  2  0
 73 74  1  0
 75 76  2  0
 76 95  1  0
 77 76  1  0
 77 80  1  0
 78 75  1  0
 78 79  1  0
 79 77  2  0
 80 81  1  0
 81 82  2  0
 83 86  1  0
 83 82  1  0
 84 83  2  0
 85 84  1  0
 85 80  2  0
 86 87  1  0
 87 88  1  0
 88 89  2  0
 90 89  1  0
 90 94  1  0
 91 90  2  0
 92 87  2  0
 92 91  1  0
 93 92  1  0
 95 96  1  0
 96 99  1  0
 96 98  1  0
 97 95  2  0
100101  1  0
100 75  1  0
102100  1  0
M  ISO  4  11 101  12 101  65 100  73 100
M  END
>  <TORSDO>  (16) 
F 30

>  <SCORE>  (16) 
-11.105

>  <name>  (16) 
15

>  <ligand_id>  (16) 
15

>  <original_smiles>  (16) 
[H]c1c([H])c([H])c2c(c1[H])C([H])([H])C([H])([H])C([H])([H])C2([H])N([H])C(=O)C1([H])N(C(=O)C([H])(N([H])C(=O)C([H])(N([H])C([H])([H])[H])C([H])([H])[H])C(C([H])([H])[H])(C([H])([H])[H])C([H])([H])[H])C([H])([H])c2c([H])c(OC([H])([H])C([H])([H])C([H])([H])C([H])([H])C([H])([H])C([H])([H])C([H])([H])C([H])([H])C([H])([H])C([H])([H])C([H])([H])C([H])([H])C([H])([H])c3c(Cl)c(C([H])([H])N([H])C(=O)N4C([H])([H])C([H])([H])C([H])([H])C([H])(n5nc(-c6c([H])c([H])c(Oc7c([H])c([H])c(F)c([H])c7F)c([H])c6[H])c(C(=O)N([H])[H])c5N([H])[H])C4([H])[H])c([H])c(Cl)c3C([H])([H])[H])c([H])c([H])c2C1([H])[H]

>  <smiles>  (16) 
[H]c1c([H])c([H])c2c(c1[H])C([H])([H])C([H])([H])C([H])([H])C2([H])N([H])C(=O)C1([H])N(C(=O)C([H])(N([H])C(=O)C([H])(N([H])C([H])([H])[H])C([H])([H])[H])C(C([H])([H])[H])(C([H])([H])[H])C([H])([H])[H])C([H])([H])c2c([H])c(OC([H])([H])C([H])([H])C([H])([H])C([H])([H])C([H])([H])C([H])([H])C([H])([H])C([H])([H])C([H])([H])C([H])([H])C([H])([H])C([H])([H])C([H])([H])c3c(Cl)c(C([H])([H])N([H])C(=O)N4C([H])([H])C([H])([H])C([H])([H])C([H])(n5nc(-c6c([H])c([H])c(Oc7c([H])c([H])c(F)c([H])c7F)c([H])c6[H])c(C(=O)N([H])[H])c5N([H])[H])C4([H])[H])c([H])c(Cl)c3C([H])([H])[H])c([H])c([H])c2C1([H])[H]

$$$$
16:0:0
     RDKit          3D

 92100  0  0  1  0  0  0  0  0999 V2000
  -30.9330  -20.4700   18.5430 C   0  0  0  0  0  3  0  0  0  0  0  0
  -30.8770  -19.2600   19.3460 C   0  0  0  0  0  0  0  0  0  0  0  0
  -29.6290  -20.6220   20.9950 C   0  0  0  0  0  0  0  0  0  0  0  0
  -30.3530  -21.7500   18.9130 C   0  0  0  0  0  0  0  0  0  0  0  0
  -30.2220  -19.3910   20.5990 C   0  0  0  0  0  0  0  0  0  0  0  0
  -29.6520  -21.7680   20.1490 C   0  0  0  0  0  0  0  0  0  0  0  0
  -28.9310  -20.6890   22.3560 C   0  0  0  0  0  1  0  0  0  0  0  0
  -30.1220  -18.0440   21.6860 Cl  0  0  0  0  0  0  0  0  0  0  0  0
  -28.7210  -23.1610   20.5980 Cl  0  0  0  0  0  0  0  0  0  0  0  0
  -31.5810  -17.8970   18.8790 C   0  0  0  0  0  2  0  0  0  0  0  0
  -32.0380  -15.3610   19.3830 C   0  0  0  0  0  0  0  0  0  0  0  0
  -31.8270  -12.9330   18.8580 C   0  0  0  0  0  2  0  0  0  0  0  0
  -30.8090  -12.7580   17.7090 C   0  0  0  0  0  2  0  0  0  0  0  0
  -29.3780  -12.6480   18.2680 C   0  0  0  0  0  2  0  0  0  0  0  0
  -29.0600  -13.7520   19.3120 C   0  0  0  0  0  3  0  0  0  0  0  0
  -30.1910  -13.9060   20.3530 C   0  0  0  0  0  2  0  0  0  0  0  0
  -31.4380  -14.1450   19.6160 N   0  0  0  0  0  0  0  0  0  0  0  0
  -33.1870  -15.4060   18.9360 O   0  0  0  0  0  0  0  0  0  0  0  0
  -31.2630  -16.5060   19.4340 N   0  0  0  0  0  0  0  0  0  0  0  0
  -30.3360  -16.3950   19.8160 H   0  0  0  0  0  0  0  0  0  0  0  0
  -26.8520  -14.4870   20.3900 C   0  0  0  0  0  0  0  0  0  0  0  0
  -25.7600  -13.7830   20.8200 C   0  0  0  0  0  0  0  0  0  0  0  0
  -26.0680  -12.4040   20.6040 C   0  0  0  0  0  0  0  0  0  0  0  0
  -27.7600  -13.5420   19.9420 N   0  0  0  0  0  0  0  0  0  0  0  0
  -27.3020  -12.2770   20.1300 N   0  0  0  0  0  0  0  0  0  0  0  0
  -25.2360  -11.2050   20.7660 C   0  0  0  0  0  0  0  0  0  0  0  0
  -25.5630  -10.2000   21.7030 C   0  0  0  0  0  3  0  0  0  0  0  0
  -24.7370   -9.0660   21.8540 C   0  0  0  0  0  3  0  0  0  0  0  0
  -23.5700   -8.9280   21.0640 C   0  0  0  0  0  0  0  0  0  0  0  0
  -23.2620   -9.9190   20.1160 C   0  0  0  0  0  3  0  0  0  0  0  0
  -24.0890  -11.0450   19.9640 C   0  0  0  0  0  3  0  0  0  0  0  0
  -22.7210   -7.8490   21.1240 O   0  0  0  0  0  0  0  0  0  0  0  0
  -22.3880   -7.2600   22.3170 C   0  0  0  0  0  0  0  0  0  0  0  0
  -21.7220   -7.9710   23.3380 C   0  0  0  0  0  3  0  0  0  0  0  0
  -21.3370   -7.3100   24.5220 C   0  0  0  0  0  3  0  0  0  0  0  0
  -21.6070   -5.9380   24.6810 C   0  0  0  0  0  0  0  0  0  0  0  0
  -22.2650   -5.2260   23.6630 C   0  0  0  0  0  3  0  0  0  0  0  0
  -22.6510   -5.8850   22.4830 C   0  0  0  0  0  0  0  0  0  0  0  0
  -23.2660   -5.1900   21.4960 F   0  0  0  0  0  0  0  0  0  0  0  0
  -21.2300   -5.3000   25.8150 F   0  0  0  0  0  0  0  0  0  0  0  0
  -24.4640  -14.3610   21.3120 C   0  0  0  0  0  0  0  0  0  0  0  0
  -23.7940  -13.6710   22.2270 N   0  0  0  0  0  0  0  0  0  0  0  0
  -24.0630  -15.4560   20.9210 O   0  0  0  0  0  0  0  0  0  0  0  0
  -24.1330  -12.7810   22.5620 H   0  0  0  0  0  0  0  0  0  0  0  0
  -22.9300  -14.0370   22.6000 H   0  0  0  0  0  0  0  0  0  0  0  0
  -27.1370  -15.8470   20.3190 N   0  0  0  0  0  0  0  0  0  0  0  0
  -26.4600  -16.5530   20.5830 H   0  0  0  0  0  0  0  0  0  0  0  0
  -27.9830  -16.2380   19.9230 H   0  0  0  0  0  0  0  0  0  0  0  0
  -30.3810  -22.8720   18.0290 O   0  0  0  0  0  0  0  0  0  0  0  0
  -30.4620  -24.3150   18.4320 C   0  0  0  0  0  3  0  0  0  0  0  0
  -29.2130  -25.3040   18.1490 C   0  0  0  0  0  3  0  0  0  0  0  0
  -29.2010  -26.7640   18.5260 O   0  0  0  0  0  0  0  0  0  0  0  0
  -24.8710  -30.6440   22.8680 C   0  0  0  0  0  0  0  0  0  0  0  0
  -27.9610  -27.4240   18.7080 C   0  0  0  0  0  0  0  0  0  0  0  0
  -23.7920  -29.4250   21.0140 C   0  0  0  0  0  3  0  0  0  0  0  0
  -25.3560  -28.5440   19.1890 C   0  0  0  0  0  0  0  0  0  0  0  0
  -26.2070  -30.2620   20.7780 C   0  0  0  0  0  2  0  0  0  0  0  0
  -26.4740  -29.0970   19.8250 C   0  0  0  0  0  0  0  0  0  0  0  0
  -27.7740  -28.5510   19.5790 C   0  0  0  0  0  3  0  0  0  0  0  0
  -26.8040  -26.9510   18.0460 C   0  0  0  0  0  3  0  0  0  0  0  0
  -25.5250  -27.4840   18.2880 C   0  0  0  0  0  3  0  0  0  0  0  0
  -23.9920  -29.1270   19.5050 C   0  0  0  0  0  2  0  0  0  0  0  0
  -24.9770  -30.1200   21.6110 N   0  0  0  0  0  0  0  0  0  0  0  0
  -23.8110  -30.5780   23.5060 O   0  0  0  0  0  0  0  0  0  0  0  0
  -23.4170  -28.1120   21.7450 C   0  0  0  0  0  0  0  0  0  0  0  0
  -22.1720  -27.6440   21.5550 N   0  0  0  0  0  0  0  0  0  0  0  0
  -24.2450  -27.5260   22.4490 O   0  0  0  0  0  0  0  0  0  0  0  0
  -21.5490  -28.1850   20.9720 H   0  0  0  0  0  0  0  0  0  0  0  0
  -19.2490  -25.5100   21.6110 C   0  0  0  0  0  0  0  0  0  0  0  0
  -21.6220  -26.4060   22.1120 C   0  0  0  0  0  3  0  0  0  0  0  0
  -22.1400  -25.1710   21.3370 C   0  0  0  0  0  2  0  0  0  0  0  0
  -21.2040  -24.7330   20.2060 C   0  0  0  0  0  2  0  0  0  0  0  0
  -19.8160  -24.3890   20.7570 C   0  0  0  0  0  2  0  0  0  0  0  0
  -20.0950  -26.4660   22.2330 C   0  0  0  0  0  0  0  0  0  0  0  0
  -19.5120  -27.5070   22.9880 C   0  0  0  0  0  3  0  0  0  0  0  0
  -18.1150  -27.5990   23.1310 C   0  0  0  0  0  3  0  0  0  0  0  0
  -17.2840  -26.6410   22.5240 C   0  0  0  0  0  3  0  0  0  0  0  0
  -17.8490  -25.5990   21.7690 C   0  0  0  0  0  3  0  0  0  0  0  0
  -26.0690  -31.3700   23.5520 C   0  0  0  0  0  3  0  0  0  0  0  0
  -26.7270  -30.5230   24.7100 C   0  0  1  0  0  0  0  0  0  0  0  0
  -25.7120  -30.0000   25.7550 C   0  0  0  0  0  1  0  0  0  0  0  0
  -27.4800  -29.3000   24.1350 C   0  0  0  0  0  1  0  0  0  0  0  0
  -27.7810  -31.3790   25.4510 C   0  0  0  0  0  1  0  0  0  0  0  0
  -25.5740  -32.6540   24.0700 N   0  0  0  0  0  0  0  0  0  0  0  0
  -25.7680  -33.8410   23.4800 C   0  0  0  0  0  0  0  0  0  0  0  0
  -26.4520  -33.9760   22.4620 O   0  0  0  0  0  0  0  0  0  0  0  0
  -24.9620  -32.6110   24.8720 H   0  0  0  0  0  0  0  0  0  0  0  0
  -23.8200  -35.4280   23.3420 C   0  0  0  0  0  1  0  0  0  0  0  0
  -25.0970  -35.0720   24.1190 C   0  0  0  0  0  3  0  0  0  0  0  0
  -27.0830  -36.1020   25.1350 C   0  0  0  0  0  1  0  0  0  0  0  0
  -25.9830  -36.2560   24.1870 N   0  0  0  0  0  0  0  0  0  0  0  0
  -25.4550  -37.0850   24.4450 H   0  0  0  0  0  0  0  0  0  0  0  0
  1  4  2  0
  1  2  1  0
  2  5  2  0
  3  7  1  0
  4  6  1  0
  5  3  1  0
  5  8  1  0
  6  9  1  0
  6  3  2  0
 10  2  1  0
 10 19  1  0
 11 19  1  0
 11 17  1  0
 12 17  1  0
 13 14  1  0
 13 12  1  0
 15 14  1  0
 15 24  1  0
 15 16  1  0
 17 16  1  0
 18 11  2  0
 19 20  1  0
 21 22  2  0
 22 41  1  0
 23 26  1  0
 23 22  1  0
 24 25  1  0
 24 21  1  0
 25 23  2  0
 26 27  1  0
 27 28  2  0
 29 32  1  0
 29 28  1  0
 30 29  2  0
 31 30  1  0
 31 26  2  0
 32 33  1  0
 33 38  2  0
 33 34  1  0
 34 35  2  0
 35 36  1  0
 36 40  1  0
 37 36  2  0
 38 37  1  0
 39 38  1  0
 41 42  1  0
 42 44  1  0
 42 45  1  0
 43 41  2  0
 46 21  1  0
 46 47  1  0
 48 46  1  0
 49 50  1  0
 49  4  1  0
 51 50  2  0
 51 52  1  0
 52 54  1  0
 53 64  2  0
 54 59  1  0
 55 63  1  0
 55 65  1  0
 56 62  1  0
 56 58  1  0
 57 63  1  0
 58 57  1  0
 59 58  2  0
 60 61  1  0
 60 54  2  0
 61 56  2  0
 62 55  1  0
 63 53  1  0
 65 67  2  0
 66 65  1  0
 68 66  1  0
 69 78  2  0
 69 74  1  0
 70 66  1  0
 70 74  1  0
 71 70  1  0
 72 73  1  0
 72 71  1  0
 73 69  1  0
 74 75  2  0
 75 76  1  0
 77 76  2  0
 78 77  1  0
 79 53  1  0
 79 84  1  0
 79 80  1  0
 80 83  1  1
 80 81  1  0
 82 80  1  0
 84 87  1  0
 85 84  1  0
 85 89  1  0
 86 85  2  0
 89 88  1  0
 89 91  1  0
 91 92  1  0
 91 90  1  0
M  ISO  4  11 100  19 100  51 101  52 101
M  END
>  <TORSDO>  (17) 
F 20

>  <SCORE>  (17) 
-7.150

>  <name>  (17) 
16

>  <ligand_id>  (17) 
16

>  <original_smiles>  (17) 
[H]c1c([H])c([H])c2c(c1[H])C([H])([H])C([H])([H])C([H])([H])C2([H])N([H])C(=O)C1([H])N(C(=O)C([H])(N([H])C(=O)C([H])(N([H])C([H])([H])[H])C([H])([H])[H])C(C([H])([H])[H])(C([H])([H])[H])C([H])([H])[H])C([H])([H])c2c([H])c(OC([H])([H])C([H])([H])Oc3c([H])c(C([H])([H])N([H])C(=O)N4C([H])([H])C([H])([H])C([H])([H])C([H])(n5nc(-c6c([H])c([H])c(Oc7c([H])c([H])c(F)c([H])c7F)c([H])c6[H])c(C(=O)N([H])[H])c5N([H])[H])C4([H])[H])c(Cl)c(C([H])([H])[H])c3Cl)c([H])c([H])c2C1([H])[H]

>  <smiles>  (17) 
[H]c1c([H])c([H])c2c(c1[H])C([H])([H])C([H])([H])C([H])([H])C2([H])N([H])C(=O)C1([H])N(C(=O)C([H])(N([H])C(=O)C([H])(N([H])C([H])([H])[H])C([H])([H])[H])C(C([H])([H])[H])(C([H])([H])[H])C([H])([H])[H])C([H])([H])c2c([H])c(OC([H])([H])C([H])([H])Oc3c([H])c(C([H])([H])N([H])C(=O)N4C([H])([H])C([H])([H])C([H])([H])C([H])(n5nc(-c6c([H])c([H])c(Oc7c([H])c([H])c(F)c([H])c7F)c([H])c6[H])c(C(=O)N([H])[H])c5N([H])[H])C4([H])[H])c(Cl)c(C([H])([H])[H])c3Cl)c([H])c([H])c2C1([H])[H]

$$$$
17:0:0
     RDKit          3D

 94102  0  0  1  0  0  0  0  0999 V2000
  -31.5310  -21.2490   19.4630 C   0  0  0  0  0  0  0  0  0  0  0  0
  -31.1800  -19.8640   19.3850 C   0  0  0  0  0  0  0  0  0  0  0  0
  -31.3130  -21.8340   18.2380 C   0  0  0  0  0  0  0  0  0  0  0  0
  -30.9440  -19.6500   18.0520 C   0  0  0  0  0  0  0  0  0  0  0  0
  -32.0100  -21.9290   20.7200 C   0  0  0  0  0  1  0  0  0  0  0  0
  -30.7510  -20.9230   15.9020 C   0  0  0  0  0  1  0  0  0  0  0  0
  -31.0000  -20.8220   17.3350 N   0  0  0  0  0  0  0  0  0  0  0  0
  -30.5700  -18.1690   17.2430 Cl  0  0  0  0  0  0  0  0  0  0  0  0
  -31.1040  -18.9330   20.5870 C   0  0  0  0  0  2  0  0  0  0  0  0
  -30.6670  -17.4960   20.2910 C   0  0  0  0  0  2  0  0  0  0  0  0
  -30.4190  -16.6440   21.5500 C   0  0  0  0  0  2  0  0  0  0  0  0
  -30.6650  -14.3650   20.5670 C   0  0  0  0  0  0  0  0  0  0  0  0
  -30.3530  -12.2790   19.2960 C   0  0  0  0  0  2  0  0  0  0  0  0
  -29.4220  -12.5730   18.1020 C   0  0  0  0  0  2  0  0  0  0  0  0
  -27.9320  -12.4760   18.4980 C   0  0  0  0  0  2  0  0  0  0  0  0
  -27.6160  -13.2360   19.8160 C   0  0  0  0  0  3  0  0  0  0  0  0
  -28.6510  -12.9020   20.9070 C   0  0  0  0  0  2  0  0  0  0  0  0
  -29.9870  -13.2080   20.3700 N   0  0  0  0  0  0  0  0  0  0  0  0
  -31.7900  -14.5840   20.1080 O   0  0  0  0  0  0  0  0  0  0  0  0
  -29.9600  -15.3060   21.2070 N   0  0  0  0  0  0  0  0  0  0  0  0
  -29.0090  -15.0700   21.4560 H   0  0  0  0  0  0  0  0  0  0  0  0
  -25.2190  -13.8760   20.4810 C   0  0  0  0  0  0  0  0  0  0  0  0
  -24.1390  -13.1160   20.8450 C   0  0  0  0  0  0  0  0  0  0  0  0
  -24.5890  -11.7580   20.8310 C   0  0  0  0  0  0  0  0  0  0  0  0
  -26.2570  -12.9810   20.2740 N   0  0  0  0  0  0  0  0  0  0  0  0
  -25.8810  -11.7030   20.5380 N   0  0  0  0  0  0  0  0  0  0  0  0
  -23.8510  -10.5050   21.0270 C   0  0  0  0  0  0  0  0  0  0  0  0
  -24.2800   -9.5440   21.9690 C   0  0  0  0  0  3  0  0  0  0  0  0
  -23.5530   -8.3470   22.1480 C   0  0  0  0  0  3  0  0  0  0  0  0
  -22.3840   -8.1090   21.3890 C   0  0  0  0  0  0  0  0  0  0  0  0
  -21.9780   -9.0600   20.4360 C   0  0  0  0  0  3  0  0  0  0  0  0
  -22.7030  -10.2460   20.2540 C   0  0  0  0  0  3  0  0  0  0  0  0
  -21.6210   -6.9690   21.4840 O   0  0  0  0  0  0  0  0  0  0  0  0
  -21.5710   -6.2290   22.6390 C   0  0  0  0  0  0  0  0  0  0  0  0
  -21.1600   -6.7890   23.8680 C   0  0  0  0  0  3  0  0  0  0  0  0
  -21.0480   -5.9730   25.0110 C   0  0  0  0  0  3  0  0  0  0  0  0
  -21.3450   -4.6000   24.9290 C   0  0  0  0  0  0  0  0  0  0  0  0
  -21.7500   -4.0380   23.7020 C   0  0  0  0  0  3  0  0  0  0  0  0
  -21.8580   -4.8500   22.5620 C   0  0  0  0  0  0  0  0  0  0  0  0
  -22.2270   -4.3000   21.3790 F   0  0  0  0  0  0  0  0  0  0  0  0
  -21.2330   -3.8130   26.0240 F   0  0  0  0  0  0  0  0  0  0  0  0
  -22.7420  -13.6040   21.0940 C   0  0  0  0  0  0  0  0  0  0  0  0
  -21.9940  -12.9260   21.9560 N   0  0  0  0  0  0  0  0  0  0  0  0
  -22.3150  -14.6250   20.5530 O   0  0  0  0  0  0  0  0  0  0  0  0
  -22.3480  -12.1060   22.4270 H   0  0  0  0  0  0  0  0  0  0  0  0
  -21.0500  -13.2300   22.1470 H   0  0  0  0  0  0  0  0  0  0  0  0
  -25.4000  -15.2450   20.2900 N   0  0  0  0  0  0  0  0  0  0  0  0
  -24.6340  -15.9090   20.3460 H   0  0  0  0  0  0  0  0  0  0  0  0
  -26.2670  -15.6610   19.9690 H   0  0  0  0  0  0  0  0  0  0  0  0
  -31.3550  -23.2890   17.8420 C   0  0  0  0  0  2  0  0  0  0  0  0
  -29.9930  -24.0030   17.9910 C   0  0  0  0  0  2  0  0  0  0  0  0
  -29.8590  -24.8950   19.2460 C   0  0  0  0  0  2  0  0  0  0  0  0
  -28.4430  -25.4840   19.3950 C   0  0  0  0  0  2  0  0  0  0  0  0
  -28.4120  -26.7230   20.1160 O   0  0  0  0  0  0  0  0  0  0  0  0
  -24.5810  -31.8690   23.2370 C   0  0  0  0  0  0  0  0  0  0  0  0
  -27.2160  -27.4240   20.1420 C   0  0  0  0  0  0  0  0  0  0  0  0
  -23.3710  -30.4770   21.5920 C   0  0  0  0  0  3  0  0  0  0  0  0
  -24.8190  -28.9400   20.1690 C   0  0  0  0  0  0  0  0  0  0  0  0
  -25.9010  -30.8260   21.4010 C   0  0  0  0  0  2  0  0  0  0  0  0
  -25.9810  -29.4580   20.7550 C   0  0  0  0  0  0  0  0  0  0  0  0
  -27.1810  -28.7050   20.7390 C   0  0  0  0  0  3  0  0  0  0  0  0
  -26.0180  -26.9080   19.5890 C   0  0  0  0  0  3  0  0  0  0  0  0
  -24.8310  -27.6630   19.5900 C   0  0  0  0  0  3  0  0  0  0  0  0
  -23.5820  -29.8060   20.2100 C   0  0  0  0  0  2  0  0  0  0  0  0
  -24.6360  -31.0710   22.1340 N   0  0  0  0  0  0  0  0  0  0  0  0
  -23.5000  -32.1450   23.7770 O   0  0  0  0  0  0  0  0  0  0  0  0
  -22.7160  -29.4540   22.5490 C   0  0  0  0  0  0  0  0  0  0  0  0
  -21.3910  -29.2720   22.4190 N   0  0  0  0  0  0  0  0  0  0  0  0
  -23.3970  -28.8280   23.3660 O   0  0  0  0  0  0  0  0  0  0  0  0
  -20.9020  -29.8300   21.7330 H   0  0  0  0  0  0  0  0  0  0  0  0
  -18.0160  -28.0770   22.9090 C   0  0  0  0  0  0  0  0  0  0  0  0
  -20.5730  -28.3350   23.1890 C   0  0  0  0  0  3  0  0  0  0  0  0
  -20.6760  -26.9010   22.6200 C   0  0  0  0  0  2  0  0  0  0  0  0
  -19.5790  -26.5750   21.6030 C   0  0  0  0  0  2  0  0  0  0  0  0
  -18.1940  -26.7250   22.2390 C   0  0  0  0  0  2  0  0  0  0  0  0
  -19.1330  -28.8390   23.3430 C   0  0  0  0  0  0  0  0  0  0  0  0
  -18.9110  -30.1030   23.9290 C   0  0  0  0  0  3  0  0  0  0  0  0
  -17.6070  -30.6080   24.0840 C   0  0  0  0  0  3  0  0  0  0  0  0
  -16.5030  -29.8430   23.6660 C   0  0  0  0  0  3  0  0  0  0  0  0
  -16.7090  -28.5800   23.0840 C   0  0  0  0  0  3  0  0  0  0  0  0
  -25.8700  -32.4930   23.8570 C   0  0  0  0  0  3  0  0  0  0  0  0
  -25.5670  -33.8920   24.1850 N   0  0  0  0  0  0  0  0  0  0  0  0
  -25.9050  -34.9410   23.4250 C   0  0  0  0  0  0  0  0  0  0  0  0
  -26.5780  -34.8350   22.3960 O   0  0  0  0  0  0  0  0  0  0  0  0
  -24.9610  -34.0480   24.9780 H   0  0  0  0  0  0  0  0  0  0  0  0
  -24.1840  -36.7370   23.0640 C   0  0  0  0  0  1  0  0  0  0  0  0
  -25.4210  -36.3300   23.8800 C   0  0  0  0  0  3  0  0  0  0  0  0
  -27.5560  -37.2030   24.7180 C   0  0  0  0  0  1  0  0  0  0  0  0
  -26.4570  -37.3790   23.7730 N   0  0  0  0  0  0  0  0  0  0  0  0
  -26.0530  -38.3000   23.9230 H   0  0  0  0  0  0  0  0  0  0  0  0
  -26.3880  -31.7180   25.1290 C   0  0  1  0  0  0  0  0  0  0  0  0
  -25.2940  -31.4800   26.1970 C   0  0  0  0  0  1  0  0  0  0  0  0
  -26.9690  -30.3400   24.7350 C   0  0  0  0  0  1  0  0  0  0  0  0
  -27.5410  -32.5110   25.7900 C   0  0  0  0  0  1  0  0  0  0  0  0
  1  5  1  0
  2  1  1  0
  2  9  1  0
  3  1  2  0
  4  2  2  0
  6  7  1  0
  7  4  1  0
  7  3  1  0
  8  4  1  0
 10  9  1  0
 10 11  1  0
 12 20  1  0
 13 18  1  0
 14 15  1  0
 14 13  1  0
 16 15  1  0
 16 25  1  0
 16 17  1  0
 18 12  1  0
 18 17  1  0
 19 12  2  0
 20 21  1  0
 20 11  1  0
 22 23  2  0
 23 42  1  0
 24 23  1  0
 24 27  1  0
 25 22  1  0
 25 26  1  0
 26 24  2  0
 27 28  1  0
 28 29  2  0
 30 33  1  0
 30 29  1  0
 31 30  2  0
 32 31  1  0
 32 27  2  0
 33 34  1  0
 34 35  1  0
 35 36  2  0
 37 36  1  0
 37 41  1  0
 38 37  2  0
 39 34  2  0
 39 38  1  0
 40 39  1  0
 42 43  1  0
 43 46  1  0
 43 45  1  0
 44 42  2  0
 47 48  1  0
 47 22  1  0
 49 47  1  0
 50 51  1  0
 50  3  1  0
 51 52  1  0
 52 53  1  0
 53 54  1  0
 54 56  1  0
 55 66  2  0
 56 61  1  0
 57 65  1  0
 57 67  1  0
 58 64  1  0
 58 60  1  0
 59 65  1  0
 60 59  1  0
 61 60  2  0
 62 63  1  0
 62 56  2  0
 63 58  2  0
 64 57  1  0
 65 55  1  0
 67 69  2  0
 68 67  1  0
 70 68  1  0
 71 80  2  0
 71 76  1  0
 72 68  1  0
 72 76  1  0
 73 72  1  0
 74 75  1  0
 74 73  1  0
 75 71  1  0
 76 77  2  0
 77 78  1  0
 79 78  2  0
 80 79  1  0
 81 55  1  0
 81 82  1  0
 81 91  1  0
 82 85  1  0
 83 87  1  0
 83 82  1  0
 84 83  2  0
 87 86  1  0
 89 87  1  0
 89 90  1  0
 89 88  1  0
 91 94  1  1
 91 92  1  0
 93 91  1  0
M  ISO  4  12 100  20 100  53 101  54 101
M  END
>  <TORSDO>  (18) 
F 23

>  <SCORE>  (18) 
-12.807

>  <name>  (18) 
17

>  <ligand_id>  (18) 
17

>  <original_smiles>  (18) 
[H]c1c([H])c([H])c2c(c1[H])C([H])([H])C([H])([H])C([H])([H])C2([H])N([H])C(=O)C1([H])N(C(=O)C([H])(N([H])C(=O)C([H])(N([H])C([H])([H])[H])C([H])([H])[H])C(C([H])([H])[H])(C([H])([H])[H])C([H])([H])[H])C([H])([H])c2c([H])c(OC([H])([H])C([H])([H])C([H])([H])C([H])([H])c3c(C([H])([H])[H])c(C([H])([H])C([H])([H])C([H])([H])N([H])C(=O)N4C([H])([H])C([H])([H])C([H])([H])C([H])(n5nc(-c6c([H])c([H])c(Oc7c([H])c([H])c(F)c([H])c7F)c([H])c6[H])c(C(=O)N([H])[H])c5N([H])[H])C4([H])[H])c(Cl)n3C([H])([H])[H])c([H])c([H])c2C1([H])[H]

>  <smiles>  (18) 
[H]c1c([H])c([H])c2c(c1[H])C([H])([H])C([H])([H])C([H])([H])C2([H])N([H])C(=O)C1([H])N(C(=O)C([H])(N([H])C(=O)C([H])(N([H])C([H])([H])[H])C([H])([H])[H])C(C([H])([H])[H])(C([H])([H])[H])C([H])([H])[H])C([H])([H])c2c([H])c(OC([H])([H])C([H])([H])C([H])([H])C([H])([H])c3c(C([H])([H])[H])c(C([H])([H])C([H])([H])C([H])([H])N([H])C(=O)N4C([H])([H])C([H])([H])C([H])([H])C([H])(n5nc(-c6c([H])c([H])c(Oc7c([H])c([H])c(F)c([H])c7F)c([H])c6[H])c(C(=O)N([H])[H])c5N([H])[H])C4([H])[H])c(Cl)n3C([H])([H])[H])c([H])c([H])c2C1([H])[H]

$$$$
18:0:0
     RDKit          3D

 95103  0  0  1  0  0  0  0  0999 V2000
  -30.2970  -20.7080   20.2980 C   0  0  0  0  0  2  0  0  0  0  0  0
  -30.2570  -18.1180   20.3190 C   0  0  0  0  0  3  0  0  0  0  0  0
  -30.4410  -19.3420   21.0320 C   0  0  0  0  0  0  0  0  0  0  0  0
  -30.8400  -19.2720   22.3970 C   0  0  0  0  0  0  0  0  0  0  0  0
  -30.9870  -18.0070   23.0350 C   0  0  0  0  0  0  0  0  0  0  0  0
  -30.4800  -16.8500   20.9270 C   0  0  0  0  0  0  0  0  0  0  0  0
  -30.8320  -16.8060   22.2950 C   0  0  0  0  0  0  0  0  0  0  0  0
  -31.1210  -20.5470   23.1900 C   0  0  0  0  0  1  0  0  0  0  0  0
  -31.3020  -17.9360   24.5290 C   0  0  0  0  0  1  0  0  0  0  0  0
  -31.0460  -15.2640   23.0640 Cl  0  0  0  0  0  0  0  0  0  0  0  0
  -30.9580  -14.5920   19.8910 C   0  0  0  0  0  0  0  0  0  0  0  0
  -30.5970  -12.4530   18.6910 C   0  0  0  0  0  2  0  0  0  0  0  0
  -29.5810  -12.7010   17.5530 C   0  0  0  0  0  2  0  0  0  0  0  0
  -28.1290  -12.5950   18.0650 C   0  0  0  0  0  2  0  0  0  0  0  0
  -27.8920  -13.4020   19.3690 C   0  0  0  0  0  3  0  0  0  0  0  0
  -29.0020  -13.1000   20.4010 C   0  0  0  0  0  2  0  0  0  0  0  0
  -30.2920  -13.4110   19.7640 N   0  0  0  0  0  0  0  0  0  0  0  0
  -32.1030  -14.7680   19.4590 O   0  0  0  0  0  0  0  0  0  0  0  0
  -30.1570  -15.6200   20.2610 N   0  0  0  0  0  0  0  0  0  0  0  0
  -29.2170  -15.3030   20.4370 H   0  0  0  0  0  0  0  0  0  0  0  0
  -25.5570  -14.0900   20.2040 C   0  0  0  0  0  0  0  0  0  0  0  0
  -24.4840  -13.3520   20.6260 C   0  0  0  0  0  0  0  0  0  0  0  0
  -24.8990  -11.9860   20.5720 C   0  0  0  0  0  0  0  0  0  0  0  0
  -26.5580  -13.1740   19.9190 N   0  0  0  0  0  0  0  0  0  0  0  0
  -26.1680  -11.9040   20.1960 N   0  0  0  0  0  0  0  0  0  0  0  0
  -24.1440  -10.7480   20.7970 C   0  0  0  0  0  0  0  0  0  0  0  0
  -24.5810   -9.7770   21.7250 C   0  0  0  0  0  3  0  0  0  0  0  0
  -23.8300   -8.6010   21.9380 C   0  0  0  0  0  3  0  0  0  0  0  0
  -22.6270   -8.3900   21.2220 C   0  0  0  0  0  0  0  0  0  0  0  0
  -22.2080   -9.3490   20.2840 C   0  0  0  0  0  3  0  0  0  0  0  0
  -22.9600  -10.5160   20.0700 C   0  0  0  0  0  3  0  0  0  0  0  0
  -21.8450   -7.2660   21.3440 O   0  0  0  0  0  0  0  0  0  0  0  0
  -21.7870   -6.5540   22.5150 C   0  0  0  0  0  0  0  0  0  0  0  0
  -21.4130   -7.1570   23.7370 C   0  0  0  0  0  3  0  0  0  0  0  0
  -21.2990   -6.3730   24.9010 C   0  0  0  0  0  3  0  0  0  0  0  0
  -21.5480   -4.9890   24.8480 C   0  0  0  0  0  0  0  0  0  0  0  0
  -21.9150   -4.3860   23.6320 C   0  0  0  0  0  3  0  0  0  0  0  0
  -22.0310   -5.1660   22.4680 C   0  0  0  0  0  0  0  0  0  0  0  0
  -22.3640   -4.5780   21.2950 F   0  0  0  0  0  0  0  0  0  0  0  0
  -21.4310   -4.2350   25.9660 F   0  0  0  0  0  0  0  0  0  0  0  0
  -23.1190  -13.8740   20.9720 C   0  0  0  0  0  0  0  0  0  0  0  0
  -22.4230  -13.2120   21.8890 N   0  0  0  0  0  0  0  0  0  0  0  0
  -22.6820  -14.9050   20.4640 O   0  0  0  0  0  0  0  0  0  0  0  0
  -22.7890  -12.3750   22.3180 H   0  0  0  0  0  0  0  0  0  0  0  0
  -21.5120  -13.5480   22.1670 H   0  0  0  0  0  0  0  0  0  0  0  0
  -25.7570  -15.4550   20.0180 N   0  0  0  0  0  0  0  0  0  0  0  0
  -25.0170  -16.1310   20.1670 H   0  0  0  0  0  0  0  0  0  0  0  0
  -26.5900  -15.8680   19.6190 H   0  0  0  0  0  0  0  0  0  0  0  0
  -29.0690  -21.5260   20.5790 N   0  0  0  0  0  4  0  0  0  0  0  0
  -28.4520  -20.9920   21.1680 H   0  0  0  0  0  0  0  0  0  0  0  0
  -28.6110  -21.6170   19.6890 H   0  0  0  0  0  0  0  0  0  0  0  0
  -29.2450  -22.9160   21.1300 C   0  0  0  0  0  3  0  0  0  0  0  0
  -28.3680  -24.0290   20.4440 C   0  0  0  0  0  3  0  0  0  0  0  0
  -28.4760  -25.4580   21.0800 C   0  0  0  0  0  2  0  0  0  0  0  0
  -28.3280  -26.5750   20.1690 O   0  0  0  0  0  0  0  0  0  0  0  0
  -24.5250  -31.8510   23.1900 C   0  0  0  0  0  0  0  0  0  0  0  0
  -27.1620  -27.3180   20.2190 C   0  0  0  0  0  0  0  0  0  0  0  0
  -23.3230  -30.4360   21.5560 C   0  0  0  0  0  3  0  0  0  0  0  0
  -24.7800  -28.8600   20.1710 C   0  0  0  0  0  0  0  0  0  0  0  0
  -25.8550  -30.7690   21.3750 C   0  0  0  0  0  2  0  0  0  0  0  0
  -25.9380  -29.3830   20.7620 C   0  0  0  0  0  0  0  0  0  0  0  0
  -27.1330  -28.6210   20.7770 C   0  0  0  0  0  3  0  0  0  0  0  0
  -25.9890  -26.8120   19.6230 C   0  0  0  0  0  3  0  0  0  0  0  0
  -24.8030  -27.5770   19.5940 C   0  0  0  0  0  3  0  0  0  0  0  0
  -23.5410  -29.7320   20.1900 C   0  0  0  0  0  2  0  0  0  0  0  0
  -24.5860  -31.0350   22.0990 N   0  0  0  0  0  0  0  0  0  0  0  0
  -23.4400  -32.1410   23.7160 O   0  0  0  0  0  0  0  0  0  0  0  0
  -22.6550  -29.4360   22.5280 C   0  0  0  0  0  0  0  0  0  0  0  0
  -21.3320  -29.2520   22.3840 N   0  0  0  0  0  0  0  0  0  0  0  0
  -23.3250  -28.8260   23.3650 O   0  0  0  0  0  0  0  0  0  0  0  0
  -20.8530  -29.7960   21.6810 H   0  0  0  0  0  0  0  0  0  0  0  0
  -17.9570  -28.0430   22.8300 C   0  0  0  0  0  0  0  0  0  0  0  0
  -20.5040  -28.3280   23.1580 C   0  0  0  0  0  3  0  0  0  0  0  0
  -20.6320  -26.8830   22.6200 C   0  0  0  0  0  2  0  0  0  0  0  0
  -19.5580  -26.5270   21.5880 C   0  0  0  0  0  2  0  0  0  0  0  0
  -18.1590  -26.6780   22.1930 C   0  0  0  0  0  2  0  0  0  0  0  0
  -19.0590  -28.8250   23.2680 C   0  0  0  0  0  0  0  0  0  0  0  0
  -18.8170  -30.1030   23.8180 C   0  0  0  0  0  3  0  0  0  0  0  0
  -17.5050  -30.5990   23.9390 C   0  0  0  0  0  3  0  0  0  0  0  0
  -16.4180  -29.8150   23.5170 C   0  0  0  0  0  3  0  0  0  0  0  0
  -16.6430  -28.5390   22.9670 C   0  0  0  0  0  3  0  0  0  0  0  0
  -25.8110  -32.4830   23.8120 C   0  0  0  0  0  3  0  0  0  0  0  0
  -25.4980  -33.8760   24.1590 N   0  0  0  0  0  0  0  0  0  0  0  0
  -25.8230  -34.9380   23.4110 C   0  0  0  0  0  0  0  0  0  0  0  0
  -26.4880  -34.8500   22.3760 O   0  0  0  0  0  0  0  0  0  0  0  0
  -24.9110  -34.0200   24.9670 H   0  0  0  0  0  0  0  0  0  0  0  0
  -24.0830  -36.7250   23.0880 C   0  0  0  0  0  1  0  0  0  0  0  0
  -25.3300  -36.3180   23.8870 C   0  0  0  0  0  3  0  0  0  0  0  0
  -27.4690  -37.2030   24.7110 C   0  0  0  0  0  1  0  0  0  0  0  0
  -26.3560  -37.3780   23.7820 N   0  0  0  0  0  0  0  0  0  0  0  0
  -25.9460  -38.2930   23.9490 H   0  0  0  0  0  0  0  0  0  0  0  0
  -26.3400  -31.6980   25.0750 C   0  0  1  0  0  0  0  0  0  0  0  0
  -25.2550  -31.4390   26.1480 C   0  0  0  0  0  1  0  0  0  0  0  0
  -26.9260  -30.3280   24.6580 C   0  0  0  0  0  1  0  0  0  0  0  0
  -27.4880  -32.4910   25.7430 C   0  0  0  0  0  1  0  0  0  0  0  0
  1 49  1  0
  1  3  1  0
  2  6  2  0
  2  3  1  0
  3  4  2  0
  4  5  1  0
  4  8  1  0
  5  9  1  0
  6  7  1  0
  7  5  2  0
  7 10  1  0
 11 19  1  0
 12 17  1  0
 13 14  1  0
 13 12  1  0
 15 14  1  0
 15 24  1  0
 15 16  1  0
 17 11  1  0
 17 16  1  0
 18 11  2  0
 19 20  1  0
 19  6  1  0
 21 22  2  0
 22 41  1  0
 23 22  1  0
 23 26  1  0
 24 25  1  0
 24 21  1  0
 25 23  2  0
 26 27  1  0
 27 28  2  0
 29 32  1  0
 29 28  1  0
 30 29  2  0
 31 30  1  0
 31 26  2  0
 32 33  1  0
 33 34  1  0
 34 35  2  0
 36 35  1  0
 36 40  1  0
 37 36  2  0
 38 33  2  0
 38 37  1  0
 39 38  1  0
 41 42  1  0
 42 45  1  0
 42 44  1  0
 43 41  2  0
 46 47  1  0
 46 21  1  0
 48 46  1  0
 49 52  1  0
 49 50  1  0
 51 49  1  0
 53 54  1  0
 53 52  2  0
 55 57  1  0
 55 54  1  0
 56 67  2  0
 57 62  1  0
 58 66  1  0
 58 68  1  0
 59 65  1  0
 59 61  1  0
 60 66  1  0
 61 62  2  0
 61 60  1  0
 63 57  2  0
 64 63  1  0
 64 59  2  0
 65 58  1  0
 66 56  1  0
 68 70  2  0
 69 68  1  0
 71 69  1  0
 72 81  2  0
 72 77  1  0
 73 69  1  0
 73 77  1  0
 74 73  1  0
 75 76  1  0
 75 74  1  0
 76 72  1  0
 77 78  2  0
 78 79  1  0
 80 79  2  0
 81 80  1  0
 82 56  1  0
 82 83  1  0
 82 92  1  0
 83 86  1  0
 84 88  1  0
 84 83  1  0
 85 84  2  0
 88 87  1  0
 90 88  1  0
 90 91  1  0
 90 89  1  0
 92 95  1  1
 92 93  1  0
 94 92  1  0
M  ISO  4  11 100  19 100  54 101  55 101
M  END
>  <TORSDO>  (19) 
F 21

>  <SCORE>  (19) 
-9.593

>  <name>  (19) 
18

>  <ligand_id>  (19) 
18

>  <original_smiles>  (19) 
[H]c1c([H])c([H])c2c(c1[H])C([H])([H])C([H])([H])C([H])([H])C2([H])N([H])C(=O)C1([H])N(C(=O)C([H])(N([H])C(=O)C([H])(N([H])C([H])([H])[H])C([H])([H])[H])C(C([H])([H])[H])(C([H])([H])[H])C([H])([H])[H])C([H])([H])c2c([H])c(OC([H])([H])C([H])([H])C([H])([H])[N+]([H])([H])C([H])([H])c3c([H])c(N([H])C(=O)N4C([H])([H])C([H])([H])C([H])([H])C([H])(n5nc(-c6c([H])c([H])c(Oc7c([H])c([H])c(F)c([H])c7F)c([H])c6[H])c(C(=O)N([H])[H])c5N([H])[H])C4([H])[H])c(Cl)c(C([H])([H])[H])c3C([H])([H])[H])c([H])c([H])c2C1([H])[H]

>  <smiles>  (19) 
[H]c1c([H])c([H])c2c(c1[H])C([H])([H])C([H])([H])C([H])([H])C2([H])N([H])C(=O)C1([H])N(C(=O)C([H])(N([H])C(=O)C([H])(N([H])C([H])([H])[H])C([H])([H])[H])C(C([H])([H])[H])(C([H])([H])[H])C([H])([H])[H])C([H])([H])c2c([H])c(OC([H])([H])C([H])([H])C([H])([H])[N+]([H])([H])C([H])([H])c3c([H])c(N([H])C(=O)N4C([H])([H])C([H])([H])C([H])([H])C([H])(n5nc(-c6c([H])c([H])c(Oc7c([H])c([H])c(F)c([H])c7F)c([H])c6[H])c(C(=O)N([H])[H])c5N([H])[H])C4([H])[H])c(Cl)c(C([H])([H])[H])c3C([H])([H])[H])c([H])c([H])c2C1([H])[H]

$$$$
19:0:0
     RDKit          3D

 96105  0  0  1  0  0  0  0  0999 V2000
  -28.8190  -23.0000   21.3040 C   0  0  0  0  0  3  0  0  0  0  0  0
  -28.4090  -24.3130   21.6020 C   0  0  0  0  0  0  0  0  0  0  0  0
  -27.0390  -24.6350   21.4610 C   0  0  0  0  0  0  0  0  0  0  0  0
  -27.8770  -22.0660   20.8490 C   0  0  0  0  0  0  0  0  0  0  0  0
  -26.1550  -23.6160   21.0340 C   0  0  0  0  0  0  0  0  0  0  0  0
  -24.6730  -23.9010   20.8810 C   0  0  0  0  0  1  0  0  0  0  0  0
  -26.5640  -22.3580   20.7250 N   0  0  0  0  0  0  0  0  0  0  0  0
  -26.4500  -26.2340   21.7810 Cl  0  0  0  0  0  0  0  0  0  0  0  0
  -29.4700  -25.3210   22.0070 C   0  0  0  0  0  2  0  0  0  0  0  0
  -30.2150  -25.8600   20.7750 C   0  0  0  0  0  2  0  0  0  0  0  0
  -31.4360  -26.7260   21.1100 C   0  0  0  0  0  2  0  0  0  0  0  0
  -31.3120  -27.9920   20.4610 O   0  0  0  0  0  0  0  0  0  0  0  0
  -26.6020  -30.3830   25.2230 C   0  0  0  0  0  0  0  0  0  0  0  0
  -30.1130  -28.6200   20.6900 C   0  0  0  0  0  0  0  0  0  0  0  0
  -25.8180  -30.2800   22.8770 C   0  0  0  0  0  3  0  0  0  0  0  0
  -27.6200  -29.8610   21.1230 C   0  0  0  0  0  0  0  0  0  0  0  0
  -28.2920  -30.6220   23.4120 C   0  0  0  0  0  2  0  0  0  0  0  0
  -28.6060  -29.9070   22.1160 C   0  0  0  0  0  0  0  0  0  0  0  0
  -29.8540  -29.2880   21.9060 C   0  0  0  0  0  3  0  0  0  0  0  0
  -29.1210  -28.5880   19.6910 C   0  0  0  0  0  3  0  0  0  0  0  0
  -27.8710  -29.2000   19.9050 C   0  0  0  0  0  3  0  0  0  0  0  0
  -26.3170  -30.5580   21.4310 C   0  0  0  0  0  2  0  0  0  0  0  0
  -26.9100  -30.4070   23.8950 N   0  0  0  0  0  0  0  0  0  0  0  0
  -25.4270  -30.3020   25.6080 O   0  0  0  0  0  0  0  0  0  0  0  0
  -25.1100  -28.9040   22.9030 C   0  0  0  0  0  0  0  0  0  0  0  0
  -23.8940  -28.8490   22.3330 N   0  0  0  0  0  0  0  0  0  0  0  0
  -25.6600  -27.9170   23.3980 O   0  0  0  0  0  0  0  0  0  0  0  0
  -23.5140  -29.7060   21.9590 H   0  0  0  0  0  0  0  0  0  0  0  0
  -20.7210  -27.6350   21.1020 C   0  0  0  0  0  0  0  0  0  0  0  0
  -23.0590  -27.6550   22.2050 C   0  0  0  0  0  3  0  0  0  0  0  0
  -23.5170  -26.7760   21.0180 C   0  0  0  0  0  2  0  0  0  0  0  0
  -22.7690  -27.0890   19.7170 C   0  0  0  0  0  2  0  0  0  0  0  0
  -21.2610  -26.8800   19.8990 C   0  0  0  0  0  2  0  0  0  0  0  0
  -21.5700  -28.0130   22.1760 C   0  0  0  0  0  0  0  0  0  0  0  0
  -21.0240  -28.7470   23.2540 C   0  0  0  0  0  3  0  0  0  0  0  0
  -19.6610  -29.1000   23.2680 C   0  0  0  0  0  3  0  0  0  0  0  0
  -18.8230  -28.7100   22.2080 C   0  0  0  0  0  3  0  0  0  0  0  0
  -19.3520  -27.9750   21.1310 C   0  0  0  0  0  3  0  0  0  0  0  0
  -27.7100  -30.4780   26.3210 C   0  0  0  0  0  3  0  0  0  0  0  0
  -27.5340  -31.7600   27.0160 N   0  0  0  0  0  0  0  0  0  0  0  0
  -28.2660  -32.8580   26.7820 C   0  0  0  0  0  0  0  0  0  0  0  0
  -29.2190  -32.8750   25.9990 O   0  0  0  0  0  0  0  0  0  0  0  0
  -26.7360  -31.8340   27.6320 H   0  0  0  0  0  0  0  0  0  0  0  0
  -27.0890  -35.0750   26.5990 C   0  0  0  0  0  1  0  0  0  0  0  0
  -27.8750  -34.1430   27.5360 C   0  0  0  0  0  3  0  0  0  0  0  0
  -29.7350  -34.1210   29.1380 C   0  0  0  0  0  1  0  0  0  0  0  0
  -29.0340  -34.8700   28.0990 N   0  0  0  0  0  0  0  0  0  0  0  0
  -28.7420  -35.7580   28.4970 H   0  0  0  0  0  0  0  0  0  0  0  0
  -27.6790  -29.2770   27.3440 C   0  0  1  0  0  0  0  0  0  0  0  0
  -26.2650  -28.9520   27.8780 C   0  0  0  0  0  1  0  0  0  0  0  0
  -28.2470  -27.9930   26.6930 C   0  0  0  0  0  1  0  0  0  0  0  0
  -28.5820  -29.6010   28.5580 C   0  0  0  0  0  1  0  0  0  0  0  0
  -28.3600  -20.6890   20.4300 C   0  0  0  0  0  2  0  0  0  0  0  0
  -28.9970  -19.8680   21.5640 C   0  0  0  0  0  2  0  0  0  0  0  0
  -31.4610  -14.8900   20.0840 C   0  0  0  0  0  0  0  0  0  0  0  0
  -31.1390  -12.5280   19.4820 C   0  0  0  0  0  2  0  0  0  0  0  0
  -30.2450  -12.4220   18.2320 C   0  0  0  0  0  2  0  0  0  0  0  0
  -28.7600  -12.3900   18.6400 C   0  0  0  0  0  2  0  0  0  0  0  0
  -28.3820  -13.5260   19.6310 C   0  0  0  0  0  3  0  0  0  0  0  0
  -29.3980  -13.6110   20.7920 C   0  0  0  0  0  2  0  0  0  0  0  0
  -30.7490  -13.7420   20.2130 N   0  0  0  0  0  0  0  0  0  0  0  0
  -32.5560  -14.9490   19.5140 O   0  0  0  0  0  0  0  0  0  0  0  0
  -29.6010  -18.0520   19.7790 C   0  0  0  0  0  2  0  0  0  0  0  0
  -30.2010  -17.6980   22.1830 C   0  0  0  0  0  2  0  0  0  0  0  0
  -30.6890  -17.0390   19.4040 C   0  0  0  0  0  2  0  0  0  0  0  0
  -31.2060  -16.6150   21.7420 C   0  0  0  0  0  2  0  0  0  0  0  0
  -29.9810  -18.7650   21.0930 C   0  0  0  0  0  3  0  0  0  0  0  0
  -30.8290  -16.0210   20.4520 N   0  0  0  0  0  0  0  0  0  0  0  0
  -26.0750  -14.3320   20.4480 C   0  0  0  0  0  0  0  0  0  0  0  0
  -24.9360  -13.6510   20.7870 C   0  0  0  0  0  0  0  0  0  0  0  0
  -25.2430  -12.2640   20.6350 C   0  0  0  0  0  0  0  0  0  0  0  0
  -27.0140  -13.3640   20.1200 N   0  0  0  0  0  0  0  0  0  0  0  0
  -26.5150  -12.1120   20.2890 N   0  0  0  0  0  0  0  0  0  0  0  0
  -24.3860  -11.0770   20.7500 C   0  0  0  0  0  0  0  0  0  0  0  0
  -24.7530   -9.9760   21.5530 C   0  0  0  0  0  3  0  0  0  0  0  0
  -23.9050   -8.8540   21.6610 C   0  0  0  0  0  3  0  0  0  0  0  0
  -22.6730   -8.8250   20.9660 C   0  0  0  0  0  0  0  0  0  0  0  0
  -22.3230   -9.9140   20.1480 C   0  0  0  0  0  3  0  0  0  0  0  0
  -23.1700  -11.0290   20.0380 C   0  0  0  0  0  3  0  0  0  0  0  0
  -21.7980   -7.7660   20.9910 O   0  0  0  0  0  0  0  0  0  0  0  0
  -21.6870   -6.9490   22.0860 C   0  0  0  0  0  0  0  0  0  0  0  0
  -21.3980   -7.4590   23.3700 C   0  0  0  0  0  3  0  0  0  0  0  0
  -21.2250   -6.5780   24.4560 C   0  0  0  0  0  3  0  0  0  0  0  0
  -21.3290   -5.1870   24.2590 C   0  0  0  0  0  0  0  0  0  0  0  0
  -21.6100   -4.6770   22.9790 C   0  0  0  0  0  3  0  0  0  0  0  0
  -21.7860   -5.5550   21.8940 C   0  0  0  0  0  0  0  0  0  0  0  0
  -22.0370   -5.0580   20.6590 F   0  0  0  0  0  0  0  0  0  0  0  0
  -21.1540   -4.3400   25.2980 F   0  0  0  0  0  0  0  0  0  0  0  0
  -23.6050  -14.2530   21.1370 C   0  0  0  0  0  0  0  0  0  0  0  0
  -22.8360  -13.5860   21.9940 N   0  0  0  0  0  0  0  0  0  0  0  0
  -23.2580  -15.3440   20.6900 O   0  0  0  0  0  0  0  0  0  0  0  0
  -23.1310  -12.7020   22.3810 H   0  0  0  0  0  0  0  0  0  0  0  0
  -21.9420  -13.9680   22.2680 H   0  0  0  0  0  0  0  0  0  0  0  0
  -26.3870  -15.6830   20.3740 N   0  0  0  0  0  0  0  0  0  0  0  0
  -25.7080  -16.4100   20.5720 H   0  0  0  0  0  0  0  0  0  0  0  0
  -27.2850  -16.0480   20.0810 H   0  0  0  0  0  0  0  0  0  0  0  0
  1  2  1  0
  2  9  1  0
  3  2  2  0
  3  8  1  0
  4  1  2  0
  5  3  1  0
  6  5  1  0
  7  4  1  0
  7  5  2  0
 10 11  1  0
 10  9  1  0
 12 14  1  0
 12 11  1  0
 13 24  2  0
 14 19  1  0
 15 25  1  0
 15 23  1  0
 16 22  1  0
 16 18  1  0
 17 23  1  0
 18 17  1  0
 19 18  2  0
 20 21  1  0
 20 14  2  0
 21 16  2  0
 22 15  1  0
 23 13  1  0
 25 27  2  0
 26 25  1  0
 28 26  1  0
 29 38  2  0
 29 34  1  0
 30 26  1  0
 31 30  1  0
 32 33  1  0
 32 31  1  0
 33 29  1  0
 34 30  1  0
 34 35  2  0
 35 36  1  0
 37 36  2  0
 38 37  1  0
 39 13  1  0
 39 40  1  0
 39 49  1  0
 40 43  1  0
 41 40  1  0
 41 45  1  0
 42 41  2  0
 45 44  1  0
 45 47  1  0
 47 48  1  0
 47 46  1  0
 49 50  1  1
 49 52  1  0
 51 49  1  0
 53  4  1  0
 53 54  1  0
 55 61  1  0
 55 68  1  0
 56 61  1  0
 57 58  1  0
 57 56  1  0
 59 58  1  0
 59 72  1  0
 59 60  1  0
 61 60  1  0
 62 55  2  0
 63 67  1  0
 65 63  1  0
 65 68  1  0
 66 64  1  0
 67 54  1  0
 67 64  1  0
 68 66  1  0
 69 70  2  0
 70 89  1  0
 71 74  1  0
 71 70  1  0
 72 73  1  0
 72 69  1  0
 73 71  2  0
 74 75  1  0
 75 76  2  0
 77 80  1  0
 77 76  1  0
 78 77  2  0
 79 78  1  0
 79 74  2  0
 80 81  1  0
 81 82  1  0
 82 83  2  0
 84 83  1  0
 84 88  1  0
 85 84  2  0
 86 81  2  0
 86 85  1  0
 87 86  1  0
 89 90  1  0
 90 93  1  0
 90 92  1  0
 91 89  2  0
 94 69  1  0
 94 95  1  0
 96 94  1  0
M  ISO  4  11 101  12 101  55 100  68 100
M  END
>  <TORSDO>  (20) 
F 21

>  <SCORE>  (20) 
-5.421

>  <name>  (20) 
19

>  <ligand_id>  (20) 
19

>  <original_smiles>  (20) 
[H]c1c([H])c([H])c2c(c1[H])C([H])([H])C([H])([H])C([H])([H])C2([H])N([H])C(=O)C1([H])N(C(=O)C([H])(N([H])C(=O)C([H])(N([H])C([H])([H])[H])C([H])([H])[H])C(C([H])([H])[H])(C([H])([H])[H])C([H])([H])[H])C([H])([H])c2c([H])c(OC([H])([H])C([H])([H])C([H])([H])c3c([H])c(C([H])([H])C([H])([H])C4([H])C([H])([H])C([H])([H])N(C(=O)N5C([H])([H])C([H])([H])C([H])([H])C([H])(n6nc(-c7c([H])c([H])c(Oc8c([H])c([H])c(F)c([H])c8F)c([H])c7[H])c(C(=O)N([H])[H])c6N([H])[H])C5([H])[H])C([H])([H])C4([H])[H])nc(C([H])([H])[H])c3Cl)c([H])c([H])c2C1([H])[H]

>  <smiles>  (20) 
[H]c1c([H])c([H])c2c(c1[H])C([H])([H])C([H])([H])C([H])([H])C2([H])N([H])C(=O)C1([H])N(C(=O)C([H])(N([H])C(=O)C([H])(N([H])C([H])([H])[H])C([H])([H])[H])C(C([H])([H])[H])(C([H])([H])[H])C([H])([H])[H])C([H])([H])c2c([H])c(OC([H])([H])C([H])([H])C([H])([H])c3c([H])c(C([H])([H])C([H])([H])C4([H])C([H])([H])C([H])([H])N(C(=O)N5C([H])([H])C([H])([H])C([H])([H])C([H])(n6nc(-c7c([H])c([H])c(Oc8c([H])c([H])c(F)c([H])c8F)c([H])c7[H])c(C(=O)N([H])[H])c6N([H])[H])C5([H])[H])C([H])([H])C4([H])[H])nc(C([H])([H])[H])c3Cl)c([H])c([H])c2C1([H])[H]

$$$$
20:0:0
     RDKit          3D

 98107  0  0  1  0  0  0  0  0999 V2000
  -29.7720  -21.7190   20.6290 C   0  0  0  0  0  2  0  0  0  0  0  0
  -31.9540  -21.4640   21.8280 C   0  0  0  0  0  2  0  0  0  0  0  0
  -29.9910  -23.2350   20.5770 C   0  0  0  0  0  2  0  0  0  0  0  0
  -32.1550  -22.9900   21.7580 C   0  0  0  0  0  2  0  0  0  0  0  0
  -31.1210  -20.9900   20.6250 C   0  0  0  0  0  3  0  0  0  0  0  0
  -30.8540  -23.7110   21.6940 N   0  0  1  0  0  4  0  0  0  0  0  0
  -30.3790  -23.5060   22.5600 H   0  0  0  0  0  0  0  0  0  0  0  0
  -31.0130  -18.6590   21.6650 C   0  0  0  0  0  3  0  0  0  0  0  0
  -30.2860  -17.5290   19.2030 C   0  0  0  0  0  3  0  0  0  0  0  0
  -30.9110  -19.4850   20.5210 C   0  0  0  0  0  0  0  0  0  0  0  0
  -30.4140  -16.6960   20.3400 C   0  0  0  0  0  0  0  0  0  0  0  0
  -30.7620  -17.2760   21.5780 C   0  0  0  0  0  0  0  0  0  0  0  0
  -30.5340  -18.9070   19.2850 C   0  0  0  0  0  0  0  0  0  0  0  0
  -30.8710  -16.3040   23.0040 Cl  0  0  0  0  0  0  0  0  0  0  0  0
  -30.3180  -19.8540   17.8530 Cl  0  0  0  0  0  0  0  0  0  0  0  0
  -30.5930  -14.4170   19.4000 C   0  0  0  0  0  0  0  0  0  0  0  0
  -30.1230  -12.3050   18.2420 C   0  0  0  0  0  2  0  0  0  0  0  0
  -29.0050  -12.5250   17.2060 C   0  0  0  0  0  2  0  0  0  0  0  0
  -27.6190  -12.3470   17.8550 C   0  0  0  0  0  2  0  0  0  0  0  0
  -27.4670  -13.1560   19.1720 C   0  0  0  0  0  3  0  0  0  0  0  0
  -28.6820  -12.9260   20.0990 C   0  0  0  0  0  2  0  0  0  0  0  0
  -29.9090  -13.2490   19.3470 N   0  0  0  0  0  0  0  0  0  0  0  0
  -31.5510  -14.6660   18.6640 O   0  0  0  0  0  0  0  0  0  0  0  0
  -30.1410  -15.3030   20.2960 N   0  0  0  0  0  0  0  0  0  0  0  0
  -29.4900  -14.9560   20.9840 H   0  0  0  0  0  0  0  0  0  0  0  0
  -25.1970  -13.6910   20.2680 C   0  0  0  0  0  0  0  0  0  0  0  0
  -24.2140  -12.8850   20.7770 C   0  0  0  0  0  0  0  0  0  0  0  0
  -24.6880  -11.5440   20.6280 C   0  0  0  0  0  0  0  0  0  0  0  0
  -26.2080  -12.8410   19.8470 N   0  0  0  0  0  0  0  0  0  0  0  0
  -25.9110  -11.5430   20.1160 N   0  0  0  0  0  0  0  0  0  0  0  0
  -24.0230  -10.2610   20.8910 C   0  0  0  0  0  0  0  0  0  0  0  0
  -24.4680   -9.3950   21.9130 C   0  0  0  0  0  3  0  0  0  0  0  0
  -23.8030   -8.1750   22.1580 C   0  0  0  0  0  3  0  0  0  0  0  0
  -22.6780   -7.8120   21.3790 C   0  0  0  0  0  0  0  0  0  0  0  0
  -22.2530   -8.6680   20.3470 C   0  0  0  0  0  3  0  0  0  0  0  0
  -22.9210   -9.8790   20.1010 C   0  0  0  0  0  3  0  0  0  0  0  0
  -21.9840   -6.6350   21.5280 O   0  0  0  0  0  0  0  0  0  0  0  0
  -21.6900   -6.1250   22.7680 C   0  0  0  0  0  0  0  0  0  0  0  0
  -20.9140   -6.8420   23.7040 C   0  0  0  0  0  3  0  0  0  0  0  0
  -20.5770   -6.2510   24.9380 C   0  0  0  0  0  3  0  0  0  0  0  0
  -21.0050   -4.9440   25.2360 C   0  0  0  0  0  0  0  0  0  0  0  0
  -21.7730   -4.2270   24.3010 C   0  0  0  0  0  3  0  0  0  0  0  0
  -22.1120   -4.8140   23.0700 C   0  0  0  0  0  0  0  0  0  0  0  0
  -22.8350   -4.1100   22.1660 F   0  0  0  0  0  0  0  0  0  0  0  0
  -20.6750   -4.3740   26.4180 F   0  0  0  0  0  0  0  0  0  0  0  0
  -22.8710  -13.3230   21.2860 C   0  0  0  0  0  0  0  0  0  0  0  0
  -22.3160  -12.6000   22.2520 N   0  0  0  0  0  0  0  0  0  0  0  0
  -22.3270  -14.3400   20.8600 O   0  0  0  0  0  0  0  0  0  0  0  0
  -22.7720  -11.7760   22.6160 H   0  0  0  0  0  0  0  0  0  0  0  0
  -21.4210  -12.8740   22.6340 H   0  0  0  0  0  0  0  0  0  0  0  0
  -25.3070  -15.0690   20.1120 N   0  0  0  0  0  0  0  0  0  0  0  0
  -24.5560  -15.7030   20.3630 H   0  0  0  0  0  0  0  0  0  0  0  0
  -26.0930  -15.5370   19.6780 H   0  0  0  0  0  0  0  0  0  0  0  0
  -31.0270  -25.1810   21.6530 C   0  0  0  0  0  2  0  0  0  0  0  0
  -29.7330  -25.9170   22.0460 C   0  0  0  0  0  2  0  0  0  0  0  0
  -29.6370  -27.3340   21.4670 C   0  0  0  0  0  2  0  0  0  0  0  0
  -29.3780  -27.3730   19.9400 C   0  0  0  0  0  2  0  0  0  0  0  0
  -28.1340  -26.7790   19.5490 O   0  0  0  0  0  0  0  0  0  0  0  0
  -24.4190  -31.7110   23.1000 C   0  0  0  0  0  0  0  0  0  0  0  0
  -26.9680  -27.5050   19.6910 C   0  0  0  0  0  0  0  0  0  0  0  0
  -23.1240  -30.3450   21.4880 C   0  0  0  0  0  3  0  0  0  0  0  0
  -24.5100  -28.8920   19.9150 C   0  0  0  0  0  0  0  0  0  0  0  0
  -25.6080  -30.7950   21.1190 C   0  0  0  0  0  2  0  0  0  0  0  0
  -25.6820  -29.4500   20.4320 C   0  0  0  0  0  0  0  0  0  0  0  0
  -26.9060  -28.7750   20.3090 C   0  0  0  0  0  3  0  0  0  0  0  0
  -25.7760  -26.9450   19.1830 C   0  0  0  0  0  3  0  0  0  0  0  0
  -24.5490  -27.6330   19.2860 C   0  0  0  0  0  3  0  0  0  0  0  0
  -23.2480  -29.7080   20.0750 C   0  0  0  0  0  2  0  0  0  0  0  0
  -24.4060  -30.9610   21.9630 N   0  0  0  0  0  0  0  0  0  0  0  0
  -23.3760  -31.9390   23.7270 O   0  0  0  0  0  0  0  0  0  0  0  0
  -22.5650  -29.2790   22.4550 C   0  0  0  0  0  0  0  0  0  0  0  0
  -21.2530  -29.0130   22.3500 N   0  0  0  0  0  0  0  0  0  0  0  0
  -23.3050  -28.6900   23.2460 O   0  0  0  0  0  0  0  0  0  0  0  0
  -20.7150  -29.5420   21.6780 H   0  0  0  0  0  0  0  0  0  0  0  0
  -17.9830  -27.5690   22.8540 C   0  0  0  0  0  0  0  0  0  0  0  0
  -20.5130  -28.0200   23.1260 C   0  0  0  0  0  3  0  0  0  0  0  0
  -20.7240  -26.5990   22.5560 C   0  0  0  0  0  2  0  0  0  0  0  0
  -19.6510  -26.1900   21.5420 C   0  0  0  0  0  2  0  0  0  0  0  0
  -18.2610  -26.2340   22.1830 C   0  0  0  0  0  2  0  0  0  0  0  0
  -19.0410  -28.4140   23.2820 C   0  0  0  0  0  0  0  0  0  0  0  0
  -18.7300  -29.6610   23.8660 C   0  0  0  0  0  3  0  0  0  0  0  0
  -17.3920  -30.0660   24.0270 C   0  0  0  0  0  3  0  0  0  0  0  0
  -16.3470  -29.2180   23.6170 C   0  0  0  0  0  3  0  0  0  0  0  0
  -16.6440  -27.9720   23.0360 C   0  0  0  0  0  3  0  0  0  0  0  0
  -25.7370  -32.3420   23.6530 C   0  0  0  0  0  3  0  0  0  0  0  0
  -25.4320  -33.7230   24.0510 N   0  0  0  0  0  0  0  0  0  0  0  0
  -25.7390  -34.8080   23.3280 C   0  0  0  0  0  0  0  0  0  0  0  0
  -26.3810  -34.7530   22.2750 O   0  0  0  0  0  0  0  0  0  0  0  0
  -24.8510  -33.8380   24.8680 H   0  0  0  0  0  0  0  0  0  0  0  0
  -24.0050  -36.6120   23.0820 C   0  0  0  0  0  1  0  0  0  0  0  0
  -25.2570  -36.1720   23.8570 C   0  0  0  0  0  3  0  0  0  0  0  0
  -27.3970  -37.0210   24.7090 C   0  0  0  0  0  1  0  0  0  0  0  0
  -26.2870  -37.2300   23.7830 N   0  0  0  0  0  0  0  0  0  0  0  0
  -25.8800  -38.1410   23.9780 H   0  0  0  0  0  0  0  0  0  0  0  0
  -26.3580  -31.5340   24.8570 C   0  0  1  0  0  0  0  0  0  0  0  0
  -25.3440  -31.2150   25.9800 C   0  0  0  0  0  1  0  0  0  0  0  0
  -26.9600  -30.1970   24.3650 C   0  0  0  0  0  1  0  0  0  0  0  0
  -27.5220  -32.3400   25.4830 C   0  0  0  0  0  1  0  0  0  0  0  0
  3  1  1  0
  3  6  1  0
  4  2  1  0
  5 10  1  0
  5  1  1  0
  5  2  1  0
  6  4  1  0
  6  7  1  1
  9 13  2  0
  9 11  1  0
 10  8  2  0
 11 12  2  0
 12  8  1  0
 12 14  1  0
 13 10  1  0
 15 13  1  0
 16 24  1  0
 17 22  1  0
 18 19  1  0
 18 17  1  0
 20 19  1  0
 20 29  1  0
 20 21  1  0
 22 16  1  0
 22 21  1  0
 23 16  2  0
 24 11  1  0
 24 25  1  0
 26 27  2  0
 27 46  1  0
 28 27  1  0
 28 31  1  0
 29 30  1  0
 29 26  1  0
 30 28  2  0
 31 32  1  0
 32 33  2  0
 34 37  1  0
 34 33  1  0
 35 34  2  0
 36 35  1  0
 36 31  2  0
 37 38  1  0
 38 43  2  0
 38 39  1  0
 39 40  2  0
 40 41  1  0
 41 45  1  0
 42 41  2  0
 43 42  1  0
 44 43  1  0
 46 47  1  0
 47 49  1  0
 47 50  1  0
 48 46  2  0
 51 26  1  0
 51 52  1  0
 53 51  1  0
 54  6  1  0
 54 55  1  0
 56 55  1  0
 57 56  1  0
 58 60  1  0
 58 57  1  0
 59 70  2  0
 60 65  1  0
 61 69  1  0
 61 71  1  0
 62 68  1  0
 62 64  1  0
 63 69  1  0
 64 63  1  0
 65 64  2  0
 66 67  1  0
 66 60  2  0
 67 62  2  0
 68 61  1  0
 69 59  1  0
 71 73  2  0
 72 71  1  0
 74 72  1  0
 75 84  2  0
 75 80  1  0
 76 72  1  0
 76 80  1  0
 77 76  1  0
 78 79  1  0
 78 77  1  0
 79 75  1  0
 80 81  2  0
 81 82  1  0
 83 82  2  0
 84 83  1  0
 85 59  1  0
 85 86  1  0
 85 95  1  0
 86 89  1  0
 87 91  1  0
 87 86  1  0
 88 87  2  0
 91 90  1  0
 93 91  1  0
 93 94  1  0
 93 92  1  0
 95 98  1  1
 95 96  1  0
 97 95  1  0
M  ISO  4  16 100  24 100  57 101  58 101
M  END
>  <TORSDO>  (21) 
F 21

>  <SCORE>  (21) 
-9.776

>  <name>  (21) 
20

>  <ligand_id>  (21) 
20

>  <original_smiles>  (21) 
[H]c1c([H])c([H])c2c(c1[H])C([H])([H])C([H])([H])C([H])([H])C2([H])N([H])C(=O)C1([H])N(C(=O)C([H])(N([H])C(=O)C([H])(N([H])C([H])([H])[H])C([H])([H])[H])C(C([H])([H])[H])(C([H])([H])[H])C([H])([H])[H])C([H])([H])c2c([H])c(OC([H])([H])C([H])([H])C([H])([H])C([H])([H])[N+]3([H])C([H])([H])C([H])([H])C([H])(c4c([H])c(Cl)c(N([H])C(=O)N5C([H])([H])C([H])([H])C([H])([H])C([H])(n6nc(-c7c([H])c([H])c(Oc8c([H])c([H])c(F)c([H])c8F)c([H])c7[H])c(C(=O)N([H])[H])c6N([H])[H])C5([H])[H])c([H])c4Cl)C([H])([H])C3([H])[H])c([H])c([H])c2C1([H])[H]

>  <smiles>  (21) 
[H]c1c([H])c([H])c2c(c1[H])C([H])([H])C([H])([H])C([H])([H])C2([H])N([H])C(=O)C1([H])N(C(=O)C([H])(N([H])C(=O)C([H])(N([H])C([H])([H])[H])C([H])([H])[H])C(C([H])([H])[H])(C([H])([H])[H])C([H])([H])[H])C([H])([H])c2c([H])c(OC([H])([H])C([H])([H])C([H])([H])C([H])([H])[N+]3([H])C([H])([H])C([H])([H])C([H])(c4c([H])c(Cl)c(N([H])C(=O)N5C([H])([H])C([H])([H])C([H])([H])C([H])(n6nc(-c7c([H])c([H])c(Oc8c([H])c([H])c(F)c([H])c8F)c([H])c7[H])c(C(=O)N([H])[H])c6N([H])[H])C5([H])[H])c([H])c4Cl)C([H])([H])C3([H])[H])c([H])c([H])c2C1([H])[H]

$$$$
21:0:0
     RDKit          3D

 92100  0  0  1  0  0  0  0  0999 V2000
  -30.5830  -19.9810   18.8800 C   0  0  0  0  0  3  0  0  0  0  0  0
  -31.2440  -18.7850   19.2220 C   0  0  0  0  0  3  0  0  0  0  0  0
  -29.2340  -20.1920   19.2380 C   0  0  0  0  0  0  0  0  0  0  0  0
  -30.5750  -17.7660   19.9340 C   0  0  0  0  0  0  0  0  0  0  0  0
  -28.5440  -19.1650   19.9330 C   0  0  0  0  0  0  0  0  0  0  0  0
  -29.2090  -17.9570   20.2740 C   0  0  0  0  0  0  0  0  0  0  0  0
  -26.8850  -19.3900   20.3850 Cl  0  0  0  0  0  0  0  0  0  0  0  0
  -28.3510  -16.7180   21.1270 Cl  0  0  0  0  0  0  0  0  0  0  0  0
  -28.5520  -21.5070   18.8340 C   0  0  0  0  0  2  0  0  0  0  0  0
  -28.6960  -22.6500   19.8660 C   0  0  0  0  0  2  0  0  0  0  0  0
  -28.3400  -24.0460   19.3000 C   0  0  0  0  0  2  0  0  0  0  0  0
  -28.5050  -25.1960   20.3220 C   0  0  0  0  0  2  0  0  0  0  0  0
  -28.5300  -26.5090   19.7430 O   0  0  0  0  0  0  0  0  0  0  0  0
  -24.7180  -31.5060   23.1090 C   0  0  0  0  0  0  0  0  0  0  0  0
  -27.3600  -27.2310   19.8080 C   0  0  0  0  0  0  0  0  0  0  0  0
  -23.5190  -30.2090   21.3780 C   0  0  0  0  0  3  0  0  0  0  0  0
  -24.9750  -28.7460   19.8830 C   0  0  0  0  0  0  0  0  0  0  0  0
  -26.0490  -30.5640   21.2230 C   0  0  0  0  0  2  0  0  0  0  0  0
  -26.1300  -29.2290   20.5110 C   0  0  0  0  0  0  0  0  0  0  0  0
  -27.3260  -28.4790   20.4710 C   0  0  0  0  0  3  0  0  0  0  0  0
  -26.1940  -26.7670   19.1650 C   0  0  0  0  0  3  0  0  0  0  0  0
  -25.0020  -27.5130   19.2080 C   0  0  0  0  0  3  0  0  0  0  0  0
  -23.7350  -29.6080   19.9650 C   0  0  0  0  0  2  0  0  0  0  0  0
  -24.7810  -30.7700   21.9620 N   0  0  0  0  0  0  0  0  0  0  0  0
  -23.6340  -31.7530   23.6530 O   0  0  0  0  0  0  0  0  0  0  0  0
  -22.8530  -29.1380   22.2730 C   0  0  0  0  0  0  0  0  0  0  0  0
  -21.5280  -28.9770   22.1230 N   0  0  0  0  0  0  0  0  0  0  0  0
  -23.5250  -28.4590   23.0550 O   0  0  0  0  0  0  0  0  0  0  0  0
  -21.0500  -29.5770   21.4660 H   0  0  0  0  0  0  0  0  0  0  0  0
  -18.1320  -27.8210   22.5500 C   0  0  0  0  0  0  0  0  0  0  0  0
  -20.6950  -28.0040   22.8300 C   0  0  0  0  0  3  0  0  0  0  0  0
  -20.7660  -26.6150   22.1550 C   0  0  0  0  0  2  0  0  0  0  0  0
  -19.6550  -26.3880   21.1260 C   0  0  0  0  0  2  0  0  0  0  0  0
  -18.2780  -26.5190   21.7830 C   0  0  0  0  0  2  0  0  0  0  0  0
  -19.2680  -28.5270   23.0280 C   0  0  0  0  0  0  0  0  0  0  0  0
  -19.0790  -29.7510   23.7050 C   0  0  0  0  0  3  0  0  0  0  0  0
  -17.7850  -30.2680   23.9090 C   0  0  0  0  0  3  0  0  0  0  0  0
  -16.6640  -29.5580   23.4480 C   0  0  0  0  0  3  0  0  0  0  0  0
  -16.8380  -28.3350   22.7750 C   0  0  0  0  0  3  0  0  0  0  0  0
  -26.0030  -32.0910   23.7760 C   0  0  0  0  0  3  0  0  0  0  0  0
  -25.7130  -33.4810   24.1490 N   0  0  0  0  0  0  0  0  0  0  0  0
  -26.0920  -34.5520   23.4390 C   0  0  0  0  0  0  0  0  0  0  0  0
  -26.7920  -34.4700   22.4270 O   0  0  0  0  0  0  0  0  0  0  0  0
  -25.0910  -33.6200   24.9310 H   0  0  0  0  0  0  0  0  0  0  0  0
  -24.4090  -36.3890   23.0990 C   0  0  0  0  0  1  0  0  0  0  0  0
  -25.6190  -35.9340   23.9310 C   0  0  0  0  0  3  0  0  0  0  0  0
  -27.7410  -36.7480   24.8590 C   0  0  0  0  0  1  0  0  0  0  0  0
  -26.6760  -36.9680   23.8840 N   0  0  0  0  0  0  0  0  0  0  0  0
  -26.2840  -37.8930   24.0440 H   0  0  0  0  0  0  0  0  0  0  0  0
  -26.4800  -31.2630   25.0310 C   0  0  1  0  0  0  0  0  0  0  0  0
  -25.3600  -31.0040   26.0670 C   0  0  0  0  0  1  0  0  0  0  0  0
  -27.0490  -29.8930   24.5940 C   0  0  0  0  0  1  0  0  0  0  0  0
  -27.6310  -32.0100   25.7440 C   0  0  0  0  0  1  0  0  0  0  0  0
  -31.3680  -16.5360   20.3930 C   0  0  0  0  0  2  0  0  0  0  0  0
  -31.2910  -14.2390   19.3520 C   0  0  0  0  0  0  0  0  0  0  0  0
  -30.7780  -12.0390   18.3400 C   0  0  0  0  0  2  0  0  0  0  0  0
  -29.6780  -12.1870   17.2720 C   0  0  0  0  0  2  0  0  0  0  0  0
  -28.2700  -12.1600   17.9030 C   0  0  0  0  0  2  0  0  0  0  0  0
  -28.1430  -13.0840   19.1430 C   0  0  0  0  0  3  0  0  0  0  0  0
  -29.3250  -12.8590   20.1080 C   0  0  0  0  0  2  0  0  0  0  0  0
  -30.5700  -13.0870   19.3530 N   0  0  0  0  0  0  0  0  0  0  0  0
  -32.3190  -14.3900   18.6810 O   0  0  0  0  0  0  0  0  0  0  0  0
  -30.7630  -15.2340   20.0880 N   0  0  0  0  0  0  0  0  0  0  0  0
  -29.8990  -15.0200   20.5590 H   0  0  0  0  0  0  0  0  0  0  0  0
  -25.9790  -13.8740   20.2930 C   0  0  0  0  0  0  0  0  0  0  0  0
  -24.8920  -13.1890   20.7640 C   0  0  0  0  0  0  0  0  0  0  0  0
  -25.1660  -11.8060   20.5310 C   0  0  0  0  0  0  0  0  0  0  0  0
  -26.8540  -12.9120   19.8120 N   0  0  0  0  0  0  0  0  0  0  0  0
  -26.3760  -11.6580   20.0090 N   0  0  0  0  0  0  0  0  0  0  0  0
  -24.3230  -10.6190   20.7210 C   0  0  0  0  0  0  0  0  0  0  0  0
  -24.7270   -9.5510   21.5510 C   0  0  0  0  0  3  0  0  0  0  0  0
  -23.8910   -8.4290   21.7300 C   0  0  0  0  0  3  0  0  0  0  0  0
  -22.6350   -8.3690   21.0830 C   0  0  0  0  0  0  0  0  0  0  0  0
  -22.2480   -9.4240   20.2370 C   0  0  0  0  0  3  0  0  0  0  0  0
  -23.0840  -10.5370   20.0550 C   0  0  0  0  0  3  0  0  0  0  0  0
  -21.7680   -7.3070   21.1780 O   0  0  0  0  0  0  0  0  0  0  0  0
  -21.6810   -6.5480   22.3170 C   0  0  0  0  0  0  0  0  0  0  0  0
  -21.3220   -7.1110   23.5610 C   0  0  0  0  0  3  0  0  0  0  0  0
  -21.1770   -6.2830   24.6930 C   0  0  0  0  0  3  0  0  0  0  0  0
  -21.3830   -4.8960   24.5810 C   0  0  0  0  0  0  0  0  0  0  0  0
  -21.7340   -4.3330   23.3420 C   0  0  0  0  0  3  0  0  0  0  0  0
  -21.8800   -5.1580   22.2140 C   0  0  0  0  0  0  0  0  0  0  0  0
  -22.1970   -4.6070   21.0160 F   0  0  0  0  0  0  0  0  0  0  0  0
  -21.2370   -4.1000   25.6660 F   0  0  0  0  0  0  0  0  0  0  0  0
  -23.6280  -13.7850   21.3130 C   0  0  0  0  0  0  0  0  0  0  0  0
  -22.9780  -13.0950   22.2440 N   0  0  0  0  0  0  0  0  0  0  0  0
  -23.2330  -14.8920   20.9520 O   0  0  0  0  0  0  0  0  0  0  0  0
  -23.3160  -12.1970   22.5590 H   0  0  0  0  0  0  0  0  0  0  0  0
  -22.1320  -13.4720   22.6450 H   0  0  0  0  0  0  0  0  0  0  0  0
  -26.2920  -15.2270   20.2140 N   0  0  0  0  0  0  0  0  0  0  0  0
  -25.6640  -15.9560   20.5350 H   0  0  0  0  0  0  0  0  0  0  0  0
  -27.1390  -15.5920   19.7960 H   0  0  0  0  0  0  0  0  0  0  0  0
  1  2  2  0
  1  3  1  0
  2  4  1  0
  3  5  2  0
  4  6  2  0
  4 54  1  0
  5  6  1  0
  5  7  1  0
  6  8  1  0
  9  3  1  0
  9 10  1  0
 11 10  1  0
 11 12  1  0
 13 15  1  0
 13 12  1  0
 14 25  2  0
 15 20  1  0
 16 24  1  0
 16 26  1  0
 17 23  1  0
 17 19  1  0
 18 24  1  0
 19 18  1  0
 20 19  2  0
 21 22  1  0
 21 15  2  0
 22 17  2  0
 23 16  1  0
 24 14  1  0
 26 28  2  0
 27 26  1  0
 29 27  1  0
 30 39  2  0
 30 35  1  0
 31 27  1  0
 31 35  1  0
 32 31  1  0
 33 34  1  0
 33 32  1  0
 34 30  1  0
 35 36  2  0
 36 37  1  0
 38 37  2  0
 39 38  1  0
 40 14  1  0
 40 41  1  0
 40 50  1  0
 41 44  1  0
 42 46  1  0
 42 41  1  0
 43 42  2  0
 46 45  1  0
 48 46  1  0
 48 49  1  0
 48 47  1  0
 50 53  1  1
 50 51  1  0
 52 50  1  0
 55 61  1  0
 55 63  1  0
 56 61  1  0
 57 58  1  0
 57 56  1  0
 59 58  1  0
 59 68  1  0
 59 60  1  0
 61 60  1  0
 62 55  2  0
 63 54  1  0
 63 64  1  0
 65 66  2  0
 66 85  1  0
 67 70  1  0
 67 66  1  0
 68 69  1  0
 68 65  1  0
 69 67  2  0
 70 71  1  0
 71 72  2  0
 73 76  1  0
 73 72  1  0
 74 73  2  0
 75 74  1  0
 75 70  2  0
 76 77  1  0
 77 78  1  0
 78 79  2  0
 80 79  1  0
 80 84  1  0
 81 80  2  0
 82 77  2  0
 82 81  1  0
 83 82  1  0
 85 86  1  0
 86 88  1  0
 86 89  1  0
 87 85  2  0
 90 65  1  0
 90 91  1  0
 92 90  1  0
M  ISO  4  12 101  13 101  55 100  63 100
M  END
>  <TORSDO>  (22) 
F 21

>  <SCORE>  (22) 
-10.895

>  <name>  (22) 
21

>  <ligand_id>  (22) 
21

>  <original_smiles>  (22) 
[H]c1c([H])c([H])c2c(c1[H])C([H])([H])C([H])([H])C([H])([H])C2([H])N([H])C(=O)C1([H])N(C(=O)C([H])(N([H])C(=O)C([H])(N([H])C([H])([H])[H])C([H])([H])[H])C(C([H])([H])[H])(C([H])([H])[H])C([H])([H])[H])C([H])([H])c2c([H])c(OC([H])([H])C([H])([H])C([H])([H])C([H])([H])c3c([H])c([H])c(C([H])([H])N([H])C(=O)N4C([H])([H])C([H])([H])C([H])([H])C([H])(n5nc(-c6c([H])c([H])c(Oc7c([H])c([H])c(F)c([H])c7F)c([H])c6[H])c(C(=O)N([H])[H])c5N([H])[H])C4([H])[H])c(Cl)c3Cl)c([H])c([H])c2C1([H])[H]

>  <smiles>  (22) 
[H]c1c([H])c([H])c2c(c1[H])C([H])([H])C([H])([H])C([H])([H])C2([H])N([H])C(=O)C1([H])N(C(=O)C([H])(N([H])C(=O)C([H])(N([H])C([H])([H])[H])C([H])([H])[H])C(C([H])([H])[H])(C([H])([H])[H])C([H])([H])[H])C([H])([H])c2c([H])c(OC([H])([H])C([H])([H])C([H])([H])C([H])([H])c3c([H])c([H])c(C([H])([H])N([H])C(=O)N4C([H])([H])C([H])([H])C([H])([H])C([H])(n5nc(-c6c([H])c([H])c(Oc7c([H])c([H])c(F)c([H])c7F)c([H])c6[H])c(C(=O)N([H])[H])c5N([H])[H])C4([H])[H])c(Cl)c3Cl)c([H])c([H])c2C1([H])[H]

$$$$
22:0:0
     RDKit          3D

102111  0  0  1  0  0  0  0  0999 V2000
  -31.2590  -24.9700   21.6020 C   0  0  0  0  0  1  0  0  0  0  0  0
  -30.7000  -24.5700   20.2840 N   0  0  2  0  0  4  0  0  0  0  0  0
  -31.4280  -23.9930   19.8830 H   0  0  0  0  0  0  0  0  0  0  0  0
  -31.5690  -25.4640   18.1480 C   0  0  0  0  0  1  0  0  0  0  0  0
  -30.5990  -25.7270   19.3150 C   0  0  0  0  0  3  0  0  0  0  0  0
  -29.1980  -26.3530   18.9020 C   0  0  0  0  0  3  0  0  0  0  0  0
  -27.9130  -26.7570   16.6490 C   0  0  0  0  0  1  0  0  0  0  0  0
  -28.4510  -25.7040   17.6490 C   0  0  0  0  0  3  0  0  0  0  0  0
  -26.3980  -24.1680   16.8110 C   0  0  0  0  0  2  0  0  0  0  0  0
  -27.5800  -23.2840   17.0520 C   0  0  0  0  0  3  0  0  0  0  0  0
  -27.4320  -24.5650   17.8640 C   0  0  0  0  0  3  0  0  0  0  0  0
  -27.4050  -21.9230   17.6870 C   0  0  0  0  0  1  0  0  0  0  0  0
  -28.5130  -26.7610   20.1100 O   0  0  0  0  0  0  0  0  0  0  0  0
  -24.7320  -31.9670   23.2690 C   0  0  0  0  0  0  0  0  0  0  0  0
  -27.3890  -27.5710   20.0700 C   0  0  0  0  0  0  0  0  0  0  0  0
  -23.5240  -30.5620   21.6370 C   0  0  0  0  0  3  0  0  0  0  0  0
  -24.9770  -29.0660   20.1740 C   0  0  0  0  0  0  0  0  0  0  0  0
  -26.0520  -30.9440   21.4170 C   0  0  0  0  0  2  0  0  0  0  0  0
  -26.1460  -29.5900   20.7380 C   0  0  0  0  0  0  0  0  0  0  0  0
  -27.3560  -28.8500   20.6840 C   0  0  0  0  0  3  0  0  0  0  0  0
  -26.1830  -27.0560   19.5530 C   0  0  0  0  0  3  0  0  0  0  0  0
  -24.9920  -27.7950   19.5830 C   0  0  0  0  0  3  0  0  0  0  0  0
  -23.7220  -29.9060   20.2500 C   0  0  0  0  0  2  0  0  0  0  0  0
  -24.7880  -31.1730   22.1630 N   0  0  0  0  0  0  0  0  0  0  0  0
  -23.6520  -32.2230   23.8210 O   0  0  0  0  0  0  0  0  0  0  0  0
  -22.8990  -29.5220   22.5960 C   0  0  0  0  0  0  0  0  0  0  0  0
  -21.5770  -29.3100   22.4740 N   0  0  0  0  0  0  0  0  0  0  0  0
  -23.6000  -28.9140   23.4090 O   0  0  0  0  0  0  0  0  0  0  0  0
  -21.0720  -29.8520   21.7870 H   0  0  0  0  0  0  0  0  0  0  0  0
  -18.2400  -28.0140   22.9650 C   0  0  0  0  0  0  0  0  0  0  0  0
  -20.7870  -28.3500   23.2450 C   0  0  0  0  0  3  0  0  0  0  0  0
  -20.9360  -26.9190   22.6760 C   0  0  0  0  0  2  0  0  0  0  0  0
  -19.8490  -26.5580   21.6590 C   0  0  0  0  0  2  0  0  0  0  0  0
  -18.4610  -26.6670   22.2980 C   0  0  0  0  0  2  0  0  0  0  0  0
  -19.3320  -28.8120   23.3950 C   0  0  0  0  0  0  0  0  0  0  0  0
  -19.0730  -30.0730   23.9740 C   0  0  0  0  0  3  0  0  0  0  0  0
  -17.7540  -30.5350   24.1320 C   0  0  0  0  0  3  0  0  0  0  0  0
  -16.6750  -29.7330   23.7200 C   0  0  0  0  0  3  0  0  0  0  0  0
  -16.9190  -28.4750   23.1400 C   0  0  0  0  0  3  0  0  0  0  0  0
  -26.0140  -32.6150   23.8760 C   0  0  0  0  0  3  0  0  0  0  0  0
  -26.5660  -31.8380   25.1320 C   0  0  1  0  0  0  0  0  0  0  0  0
  -25.4970  -31.5720   26.2150 C   0  0  0  0  0  1  0  0  0  0  0  0
  -27.1690  -30.4760   24.7160 C   0  0  0  0  0  1  0  0  0  0  0  0
  -27.7100  -32.6510   25.7860 C   0  0  0  0  0  1  0  0  0  0  0  0
  -25.6820  -34.0010   24.2290 N   0  0  0  0  0  0  0  0  0  0  0  0
  -25.9770  -35.0710   23.4780 C   0  0  0  0  0  0  0  0  0  0  0  0
  -26.6280  -34.9960   22.4320 O   0  0  0  0  0  0  0  0  0  0  0  0
  -25.1040  -34.1330   25.0450 H   0  0  0  0  0  0  0  0  0  0  0  0
  -24.2020  -36.8280   23.1810 C   0  0  0  0  0  1  0  0  0  0  0  0
  -25.4690  -36.4420   23.9620 C   0  0  0  0  0  3  0  0  0  0  0  0
  -27.6030  -37.3640   24.7570 C   0  0  0  0  0  1  0  0  0  0  0  0
  -26.4750  -37.5200   23.8410 N   0  0  0  0  0  0  0  0  0  0  0  0
  -26.0520  -38.4290   24.0090 H   0  0  0  0  0  0  0  0  0  0  0  0
  -29.5760  -23.6050   20.4250 C   0  0  0  0  0  2  0  0  0  0  0  0
  -31.2570  -20.0730   19.9930 C   0  0  0  0  0  3  0  0  0  0  0  0
  -28.7680  -21.2360   20.4760 C   0  0  0  0  0  3  0  0  0  0  0  0
  -30.1260  -19.2320   20.0760 C   0  0  0  0  0  0  0  0  0  0  0  0
  -29.8870  -22.0910   20.3630 C   0  0  0  0  0  0  0  0  0  0  0  0
  -28.8680  -19.8370   20.3240 C   0  0  0  0  0  0  0  0  0  0  0  0
  -31.1550  -21.4790   20.1330 C   0  0  0  0  0  0  0  0  0  0  0  0
  -27.4100  -18.9060   20.4000 Cl  0  0  0  0  0  0  0  0  0  0  0  0
  -32.6230  -22.3840   20.0000 Cl  0  0  0  0  0  0  0  0  0  0  0  0
  -30.2610  -17.7220   19.8220 C   0  0  0  0  0  2  0  0  0  0  0  0
  -31.2210  -16.9460   20.7570 C   0  0  0  0  0  2  0  0  0  0  0  0
  -31.4870  -14.4630   20.3990 C   0  0  0  0  0  0  0  0  0  0  0  0
  -31.1340  -12.2240   19.4430 C   0  0  0  0  0  2  0  0  0  0  0  0
  -30.2400  -12.3390   18.1880 C   0  0  0  0  0  2  0  0  0  0  0  0
  -28.7460  -12.3080   18.5670 C   0  0  0  0  0  2  0  0  0  0  0  0
  -28.4000  -13.2830   19.7220 C   0  0  0  0  0  3  0  0  0  0  0  0
  -29.3990  -13.1310   20.8930 C   0  0  0  0  0  2  0  0  0  0  0  0
  -30.7610  -13.3130   20.3560 N   0  0  0  0  0  0  0  0  0  0  0  0
  -32.6190  -14.5690   19.9260 O   0  0  0  0  0  0  0  0  0  0  0  0
  -30.8210  -15.5350   20.8580 N   0  0  0  0  0  0  0  0  0  0  0  0
  -29.8960  -15.3510   21.2150 H   0  0  0  0  0  0  0  0  0  0  0  0
  -26.0350  -14.0820   20.3640 C   0  0  0  0  0  0  0  0  0  0  0  0
  -24.9030  -13.3970   20.7120 C   0  0  0  0  0  0  0  0  0  0  0  0
  -25.2610  -12.0150   20.7110 C   0  0  0  0  0  0  0  0  0  0  0  0
  -27.0160  -13.1190   20.1700 N   0  0  0  0  0  0  0  0  0  0  0  0
  -26.5500  -11.8720   20.4350 N   0  0  0  0  0  0  0  0  0  0  0  0
  -24.4380  -10.8120   20.9000 C   0  0  0  0  0  0  0  0  0  0  0  0
  -24.7730   -9.8270   21.8560 C   0  0  0  0  0  3  0  0  0  0  0  0
  -23.9540   -8.6900   22.0320 C   0  0  0  0  0  3  0  0  0  0  0  0
  -22.7860   -8.5290   21.2500 C   0  0  0  0  0  0  0  0  0  0  0  0
  -22.4700   -9.5010   20.2830 C   0  0  0  0  0  3  0  0  0  0  0  0
  -23.2890  -10.6290   20.1050 C   0  0  0  0  0  3  0  0  0  0  0  0
  -21.9480   -7.4430   21.3290 O   0  0  0  0  0  0  0  0  0  0  0  0
  -21.8110   -6.7260   22.4900 C   0  0  0  0  0  0  0  0  0  0  0  0
  -21.4110   -7.3350   23.6990 C   0  0  0  0  0  3  0  0  0  0  0  0
  -21.2110   -6.5480   24.8520 C   0  0  0  0  0  3  0  0  0  0  0  0
  -21.4010   -5.1540   24.7970 C   0  0  0  0  0  0  0  0  0  0  0  0
  -21.7960   -4.5470   23.5920 C   0  0  0  0  0  3  0  0  0  0  0  0
  -21.9950   -5.3290   22.4410 C   0  0  0  0  0  0  0  0  0  0  0  0
  -22.3530   -4.7340   21.2790 F   0  0  0  0  0  0  0  0  0  0  0  0
  -21.2030   -4.3980   25.9020 F   0  0  0  0  0  0  0  0  0  0  0  0
  -23.5380  -13.9810   20.9400 C   0  0  0  0  0  0  0  0  0  0  0  0
  -22.7400  -13.3670   21.8040 N   0  0  0  0  0  0  0  0  0  0  0  0
  -23.1840  -15.0190   20.3840 O   0  0  0  0  0  0  0  0  0  0  0  0
  -23.0360  -12.5310   22.2890 H   0  0  0  0  0  0  0  0  0  0  0  0
  -21.8200  -13.7420   21.9890 H   0  0  0  0  0  0  0  0  0  0  0  0
  -26.3040  -15.4350   20.1760 N   0  0  0  0  0  0  0  0  0  0  0  0
  -25.5940  -16.1480   20.2900 H   0  0  0  0  0  0  0  0  0  0  0  0
  -27.1950  -15.8080   19.8770 H   0  0  0  0  0  0  0  0  0  0  0  0
  2 54  1  0
  2  1  1  0
  2  3  1  6
  5  4  1  0
  5  2  1  0
  6  5  1  0
  6 13  1  0
  8  7  1  0
  8  6  1  0
  9 10  1  0
  9 11  1  0
 10 12  1  0
 10 11  1  0
 11  8  1  0
 14 25  2  0
 15 13  1  0
 15 20  1  0
 16 24  1  0
 16 26  1  0
 17 23  1  0
 17 19  1  0
 18 24  1  0
 19 18  1  0
 20 19  2  0
 21 22  1  0
 21 15  2  0
 22 17  2  0
 23 16  1  0
 24 14  1  0
 26 28  2  0
 27 26  1  0
 29 27  1  0
 30 39  2  0
 30 35  1  0
 31 27  1  0
 31 35  1  0
 32 31  1  0
 33 34  1  0
 33 32  1  0
 34 30  1  0
 35 36  2  0
 36 37  1  0
 38 37  2  0
 39 38  1  0
 40 14  1  0
 40 45  1  0
 40 41  1  0
 41 44  1  1
 41 42  1  0
 43 41  1  0
 45 48  1  0
 46 50  1  0
 46 45  1  0
 47 46  2  0
 50 49  1  0
 52 50  1  0
 52 53  1  0
 52 51  1  0
 55 57  2  0
 55 60  1  0
 57 59  1  0
 58 54  1  0
 58 56  1  0
 59 61  1  0
 59 56  2  0
 60 58  2  0
 62 60  1  0
 63 57  1  0
 63 64  1  0
 64 73  1  0
 65 73  1  0
 66 71  1  0
 67 68  1  0
 67 66  1  0
 69 68  1  0
 69 78  1  0
 69 70  1  0
 71 65  1  0
 71 70  1  0
 72 65  2  0
 73 74  1  0
 75 76  2  0
 76 95  1  0
 77 76  1  0
 77 80  1  0
 78 75  1  0
 78 79  1  0
 79 77  2  0
 80 81  1  0
 81 82  2  0
 83 86  1  0
 83 82  1  0
 84 83  2  0
 85 84  1  0
 85 80  2  0
 86 87  1  0
 87 88  1  0
 88 89  2  0
 90 89  1  0
 90 94  1  0
 91 90  2  0
 92 87  2  0
 92 91  1  0
 93 92  1  0
 95 96  1  0
 96 99  1  0
 96 98  1  0
 97 95  2  0
100101  1  0
100 75  1  0
102100  1  0
M  ISO  4   6 101  13 101  65 100  73 100
M  END
>  <TORSDO>  (23) 
F 24

>  <SCORE>  (23) 
-11.117

>  <name>  (23) 
22

>  <ligand_id>  (23) 
22

>  <original_smiles>  (23) 
[H]c1c([H])c([H])c2c(c1[H])C([H])([H])C([H])([H])C([H])([H])C2([H])N([H])C(=O)C1([H])N(C(=O)C([H])(N([H])C(=O)C([H])(N([H])C([H])([H])[H])C([H])([H])[H])C(C([H])([H])[H])(C([H])([H])[H])C([H])([H])[H])C([H])([H])c2c([H])c(OC([H])(C([H])(C([H])([H])[H])C3([H])C([H])([H])C3([H])C([H])([H])[H])C([H])(C([H])([H])[H])[N+]([H])(C([H])([H])[H])C([H])([H])c3c([H])c(Cl)c(C([H])([H])C([H])([H])N([H])C(=O)N4C([H])([H])C([H])([H])C([H])([H])C([H])(n5nc(-c6c([H])c([H])c(Oc7c([H])c([H])c(F)c([H])c7F)c([H])c6[H])c(C(=O)N([H])[H])c5N([H])[H])C4([H])[H])c([H])c3Cl)c([H])c([H])c2C1([H])[H]

>  <smiles>  (23) 
[H]c1c([H])c([H])c2c(c1[H])C([H])([H])C([H])([H])C([H])([H])C2([H])N([H])C(=O)C1([H])N(C(=O)C([H])(N([H])C(=O)C([H])(N([H])C([H])([H])[H])C([H])([H])[H])C(C([H])([H])[H])(C([H])([H])[H])C([H])([H])[H])C([H])([H])c2c([H])c(OC([H])(C([H])(C([H])([H])[H])C3([H])C([H])([H])C3([H])C([H])([H])[H])C([H])(C([H])([H])[H])[N+]([H])(C([H])([H])[H])C([H])([H])c3c([H])c(Cl)c(C([H])([H])C([H])([H])N([H])C(=O)N4C([H])([H])C([H])([H])C([H])([H])C([H])(n5nc(-c6c([H])c([H])c(Oc7c([H])c([H])c(F)c([H])c7F)c([H])c6[H])c(C(=O)N([H])[H])c5N([H])[H])C4([H])[H])c([H])c3Cl)c([H])c([H])c2C1([H])[H]

$$$$
23:0:0
     RDKit          3D

102111  0  0  1  0  0  0  0  0999 V2000
  -27.3950  -21.3390   20.0600 C   0  0  0  0  0  0  0  0  0  0  0  0
  -28.1380  -20.3990   20.8060 C   0  0  0  0  0  0  0  0  0  0  0  0
  -27.4270  -20.9750   18.7310 C   0  0  0  0  0  0  0  0  0  0  0  0
  -28.5260  -19.4250   19.9330 C   0  0  0  0  0  0  0  0  0  0  0  0
  -26.7810  -22.6050   20.6130 C   0  0  0  0  0  2  0  0  0  0  0  0
  -26.4260  -23.6060   19.5090 C   0  0  0  0  0  2  0  0  0  0  0  0
  -27.2480  -23.3570   18.2220 C   0  0  0  0  0  3  0  0  0  0  0  0
  -27.0070  -21.9280   17.6130 C   0  0  2  0  0  0  0  0  0  0  0  0
  -28.4940  -20.4920   22.2730 C   0  0  0  0  0  1  0  0  0  0  0  0
  -25.5280  -21.7060   17.2350 C   0  0  0  0  0  1  0  0  0  0  0  0
  -27.8890  -21.8310   16.3430 C   0  0  0  0  0  1  0  0  0  0  0  0
  -27.9250  -19.6550   18.6860 N   0  0  0  0  0  0  0  0  0  0  0  0
  -27.0740  -24.4920   17.2870 N   0  0  0  0  0  4  0  0  0  0  0  0
  -26.3070  -25.0530   17.6220 H   0  0  0  0  0  0  0  0  0  0  0  0
  -26.7760  -24.1160   16.4020 H   0  0  0  0  0  0  0  0  0  0  0  0
  -28.2740  -25.3480   17.0330 C   0  0  0  0  0  2  0  0  0  0  0  0
  -29.2370  -25.5720   18.2420 C   0  0  0  0  0  2  0  0  0  0  0  0
  -29.5610  -27.0470   18.5450 C   0  0  0  0  0  2  0  0  0  0  0  0
  -29.1090  -27.4420   19.8380 O   0  0  0  0  0  0  0  0  0  0  0  0
  -24.6580  -31.6230   23.4230 C   0  0  0  0  0  0  0  0  0  0  0  0
  -27.8270  -27.9320   19.9310 C   0  0  0  0  0  0  0  0  0  0  0  0
  -23.6160  -30.2260   21.6680 C   0  0  0  0  0  3  0  0  0  0  0  0
  -25.2380  -29.0430   20.1030 C   0  0  0  0  0  0  0  0  0  0  0  0
  -26.0570  -30.9620   21.4760 C   0  0  0  0  0  2  0  0  0  0  0  0
  -26.3180  -29.6740   20.7330 C   0  0  0  0  0  0  0  0  0  0  0  0
  -27.6100  -29.1160   20.6630 C   0  0  0  0  0  3  0  0  0  0  0  0
  -26.7230  -27.2920   19.3250 C   0  0  0  0  0  3  0  0  0  0  0  0
  -25.4340  -27.8410   19.4010 C   0  0  0  0  0  3  0  0  0  0  0  0
  -23.8900  -29.7120   20.2310 C   0  0  0  0  0  2  0  0  0  0  0  0
  -24.7970  -30.9440   22.2520 N   0  0  0  0  0  0  0  0  0  0  0  0
  -23.5610  -31.6960   23.9890 O   0  0  0  0  0  0  0  0  0  0  0  0
  -23.1420  -29.0370   22.5350 C   0  0  0  0  0  0  0  0  0  0  0  0
  -21.9040  -28.5800   22.2930 N   0  0  0  0  0  0  0  0  0  0  0  0
  -23.8840  -28.5310   23.3810 O   0  0  0  0  0  0  0  0  0  0  0  0
  -21.3560  -29.0540   21.5880 H   0  0  0  0  0  0  0  0  0  0  0  0
  -18.9270  -26.5360   22.2990 C   0  0  0  0  0  0  0  0  0  0  0  0
  -21.2570  -27.4430   22.9390 C   0  0  0  0  0  3  0  0  0  0  0  0
  -21.8190  -26.1090   22.3920 C   0  0  0  0  0  2  0  0  0  0  0  0
  -20.9870  -25.5250   21.2420 C   0  0  0  0  0  2  0  0  0  0  0  0
  -19.5420  -25.2880   21.6920 C   0  0  0  0  0  2  0  0  0  0  0  0
  -19.7320  -27.5540   22.8730 C   0  0  0  0  0  0  0  0  0  0  0  0
  -19.1070  -28.7080   23.3990 C   0  0  0  0  0  3  0  0  0  0  0  0
  -17.7080  -28.8530   23.3580 C   0  0  0  0  0  3  0  0  0  0  0  0
  -16.9160  -27.8300   22.8030 C   0  0  0  0  0  3  0  0  0  0  0  0
  -17.5230  -26.6760   22.2790 C   0  0  0  0  0  3  0  0  0  0  0  0
  -25.8590  -32.3610   24.0940 C   0  0  0  0  0  3  0  0  0  0  0  0
  -25.4270  -33.7380   24.3650 N   0  0  0  0  0  0  0  0  0  0  0  0
  -25.7200  -34.7910   23.5900 C   0  0  0  0  0  0  0  0  0  0  0  0
  -26.4510  -34.7120   22.6000 O   0  0  0  0  0  0  0  0  0  0  0  0
  -24.7750  -33.8670   25.1260 H   0  0  0  0  0  0  0  0  0  0  0  0
  -23.8780  -36.4330   23.0980 C   0  0  0  0  0  1  0  0  0  0  0  0
  -25.1030  -36.1500   23.9800 C   0  0  0  0  0  3  0  0  0  0  0  0
  -27.1190  -37.2210   24.8790 C   0  0  0  0  0  1  0  0  0  0  0  0
  -26.0520  -37.2800   23.8830 N   0  0  0  0  0  0  0  0  0  0  0  0
  -25.5650  -38.1660   23.9980 H   0  0  0  0  0  0  0  0  0  0  0  0
  -26.3630  -31.6610   25.4140 C   0  0  1  0  0  0  0  0  0  0  0  0
  -25.2340  -31.3520   26.4270 C   0  0  0  0  0  1  0  0  0  0  0  0
  -27.0750  -30.3270   25.0820 C   0  0  0  0  0  1  0  0  0  0  0  0
  -27.4020  -32.5650   26.1200 C   0  0  0  0  0  1  0  0  0  0  0  0
  -27.9110  -18.7810   16.1760 C   0  0  0  0  0  1  0  0  0  0  0  0
  -27.8100  -18.5700   17.6870 C   0  0  0  0  0  2  0  0  0  0  0  0
  -29.4930  -18.3110   20.2350 C   0  0  0  0  0  2  0  0  0  0  0  0
  -30.8680  -18.5790   19.5910 C   0  0  0  0  0  2  0  0  0  0  0  0
  -32.0440  -17.8360   20.2490 C   0  0  0  0  0  2  0  0  0  0  0  0
  -32.3710  -15.3710   20.0010 C   0  0  0  0  0  0  0  0  0  0  0  0
  -32.0790  -13.0220   19.3250 C   0  0  0  0  0  2  0  0  0  0  0  0
  -31.1560  -12.9700   18.0890 C   0  0  0  0  0  2  0  0  0  0  0  0
  -29.6760  -12.9280   18.5100 C   0  0  0  0  0  2  0  0  0  0  0  0
  -29.3250  -14.0190   19.5560 C   0  0  0  0  0  3  0  0  0  0  0  0
  -30.3570  -14.0310   20.7050 C   0  0  0  0  0  2  0  0  0  0  0  0
  -31.7000  -14.1970   20.1170 N   0  0  0  0  0  0  0  0  0  0  0  0
  -33.4480  -15.4850   19.4050 O   0  0  0  0  0  0  0  0  0  0  0  0
  -31.7260  -16.4330   20.4960 N   0  0  0  0  0  0  0  0  0  0  0  0
  -30.8880  -16.2340   21.0260 H   0  0  0  0  0  0  0  0  0  0  0  0
  -27.0200  -14.8180   20.3830 C   0  0  0  0  0  0  0  0  0  0  0  0
  -25.8880  -14.1510   20.7410 C   0  0  0  0  0  0  0  0  0  0  0  0
  -26.2050  -12.7650   20.6100 C   0  0  0  0  0  0  0  0  0  0  0  0
  -27.9620  -13.8570   20.0600 N   0  0  0  0  0  0  0  0  0  0  0  0
  -27.4730  -12.6060   20.2510 N   0  0  0  0  0  0  0  0  0  0  0  0
  -25.3570  -11.5820   20.7550 C   0  0  0  0  0  0  0  0  0  0  0  0
  -25.6510  -10.5810   21.7060 C   0  0  0  0  0  3  0  0  0  0  0  0
  -24.8060   -9.4600   21.8430 C   0  0  0  0  0  3  0  0  0  0  0  0
  -23.6570   -9.3360   21.0270 C   0  0  0  0  0  0  0  0  0  0  0  0
  -23.3800  -10.3280   20.0710 C   0  0  0  0  0  3  0  0  0  0  0  0
  -24.2250  -11.4420   19.9330 C   0  0  0  0  0  3  0  0  0  0  0  0
  -22.7940   -8.2730   21.0700 O   0  0  0  0  0  0  0  0  0  0  0  0
  -22.4870   -7.6410   22.2470 C   0  0  0  0  0  0  0  0  0  0  0  0
  -21.9110   -8.3320   23.3350 C   0  0  0  0  0  3  0  0  0  0  0  0
  -21.5480   -7.6310   24.5010 C   0  0  0  0  0  3  0  0  0  0  0  0
  -21.7530   -6.2410   24.5790 C   0  0  0  0  0  0  0  0  0  0  0  0
  -22.3170   -5.5500   23.4930 C   0  0  0  0  0  3  0  0  0  0  0  0
  -22.6830   -6.2480   22.3290 C   0  0  0  0  0  0  0  0  0  0  0  0
  -23.2090   -5.5750   21.2780 F   0  0  0  0  0  0  0  0  0  0  0  0
  -21.3980   -5.5640   25.6960 F   0  0  0  0  0  0  0  0  0  0  0  0
  -24.5630  -14.7600   21.0960 C   0  0  0  0  0  0  0  0  0  0  0  0
  -23.8020  -14.1090   21.9650 N   0  0  0  0  0  0  0  0  0  0  0  0
  -24.2200  -15.8520   20.6410 O   0  0  0  0  0  0  0  0  0  0  0  0
  -24.0980  -13.2260   22.3560 H   0  0  0  0  0  0  0  0  0  0  0  0
  -22.9100  -14.4950   22.2440 H   0  0  0  0  0  0  0  0  0  0  0  0
  -27.3120  -16.1640   20.2990 N   0  0  0  0  0  0  0  0  0  0  0  0
  -26.6120  -16.8710   20.4890 H   0  0  0  0  0  0  0  0  0  0  0  0
  -28.1940  -16.5410   19.9910 H   0  0  0  0  0  0  0  0  0  0  0  0
  1  5  1  0
  1  2  1  0
  2  9  1  0
  3  1  2  0
  4 62  1  0
  4  2  2  0
  6  5  1  0
  7 13  1  0
  7  6  1  0
  8  7  1  0
  8  3  1  0
  8 10  1  6
 11  8  1  0
 12  3  1  0
 12  4  1  0
 13 14  1  0
 15 13  1  0
 16 13  1  0
 16 17  1  0
 17 18  1  0
 18 19  1  0
 19 21  1  0
 20 31  2  0
 21 26  1  0
 22 30  1  0
 22 32  1  0
 23 29  1  0
 23 25  1  0
 24 30  1  0
 25 24  1  0
 26 25  2  0
 27 28  1  0
 27 21  2  0
 28 23  2  0
 29 22  1  0
 30 20  1  0
 32 34  2  0
 33 32  1  0
 35 33  1  0
 36 41  1  0
 37 33  1  0
 38 37  1  0
 39 40  1  0
 39 38  1  0
 40 36  1  0
 41 37  1  0
 41 42  2  0
 43 42  1  0
 44 43  2  0
 45 36  2  0
 45 44  1  0
 46 20  1  0
 46 47  1  0
 46 56  1  0
 47 50  1  0
 48 52  1  0
 48 47  1  0
 49 48  2  0
 52 51  1  0
 54 52  1  0
 54 55  1  0
 54 53  1  0
 56 59  1  1
 56 57  1  0
 58 56  1  0
 60 61  1  0
 61 12  1  0
 63 62  1  0
 63 64  1  0
 64 73  1  0
 65 71  1  0
 65 73  1  0
 66 71  1  0
 67 68  1  0
 67 66  1  0
 69 68  1  0
 69 78  1  0
 69 70  1  0
 71 70  1  0
 72 65  2  0
 73 74  1  0
 75 76  2  0
 76 95  1  0
 77 76  1  0
 77 80  1  0
 78 79  1  0
 78 75  1  0
 79 77  2  0
 80 81  1  0
 81 82  2  0
 83 86  1  0
 83 82  1  0
 84 83  2  0
 85 84  1  0
 85 80  2  0
 86 87  1  0
 87 92  2  0
 87 88  1  0
 88 89  2  0
 89 90  1  0
 90 94  1  0
 91 90  2  0
 92 91  1  0
 93 92  1  0
 95 96  1  0
 96 99  1  0
 96 98  1  0
 97 95  2  0
100 75  1  0
100101  1  0
102100  1  0
M  ISO  4  18 101  19 101  65 100  73 100
M  END
>  <TORSDO>  (24) 
F 24

>  <SCORE>  (24) 
-6.057

>  <name>  (24) 
23

>  <ligand_id>  (24) 
23

>  <original_smiles>  (24) 
[H]c1c([H])c([H])c2c(c1[H])C([H])([H])C([H])([H])C([H])([H])C2([H])N([H])C(=O)C1([H])N(C(=O)C([H])(N([H])C(=O)C([H])(N([H])C([H])([H])[H])C([H])([H])[H])C(C([H])([H])[H])(C([H])([H])[H])C([H])([H])[H])C([H])([H])c2c([H])c(OC([H])([H])C([H])([H])C([H])([H])[N+]([H])([H])C3([H])C([H])([H])C([H])([H])c4c(C([H])([H])[H])c(C([H])([H])C([H])([H])C([H])([H])N([H])C(=O)N5C([H])([H])C([H])([H])C([H])([H])C([H])(n6nc(-c7c([H])c([H])c(Oc8c([H])c([H])c(F)c([H])c8F)c([H])c7[H])c(C(=O)N([H])[H])c6N([H])[H])C5([H])[H])n(C([H])([H])C([H])([H])[H])c4C3(C([H])([H])[H])C([H])([H])[H])c([H])c([H])c2C1([H])[H]

>  <smiles>  (24) 
[H]c1c([H])c([H])c2c(c1[H])C([H])([H])C([H])([H])C([H])([H])C2([H])N([H])C(=O)C1([H])N(C(=O)C([H])(N([H])C(=O)C([H])(N([H])C([H])([H])[H])C([H])([H])[H])C(C([H])([H])[H])(C([H])([H])[H])C([H])([H])[H])C([H])([H])c2c([H])c(OC([H])([H])C([H])([H])C([H])([H])[N+]([H])([H])C3([H])C([H])([H])C([H])([H])c4c(C([H])([H])[H])c(C([H])([H])C([H])([H])C([H])([H])N([H])C(=O)N5C([H])([H])C([H])([H])C([H])([H])C([H])(n6nc(-c7c([H])c([H])c(Oc8c([H])c([H])c(F)c([H])c8F)c([H])c7[H])c(C(=O)N([H])[H])c6N([H])[H])C5([H])[H])n(C([H])([H])C([H])([H])[H])c4C3(C([H])([H])[H])C([H])([H])[H])c([H])c([H])c2C1([H])[H]

$$$$
24:0:0
     RDKit          3D

100109  0  0  1  0  0  0  0  0999 V2000
  -30.6370  -22.4120   20.9610 C   0  0  0  0  0  2  0  0  0  0  0  0
  -30.3710  -23.7720   20.3670 C   0  0  0  0  0  3  0  0  0  0  0  0
  -29.0460  -23.2850   19.7890 C   0  0  0  0  0  3  0  0  0  0  0  0
  -29.2590  -21.7700   20.6640 C   0  0  1  0  0  0  0  0  0  0  0  0
  -30.6820  -15.2280   20.2820 C   0  0  0  0  0  0  0  0  0  0  0  0
  -30.5840  -12.8100   19.4870 C   0  0  0  0  0  2  0  0  0  0  0  0
  -29.7150  -12.6440   18.2220 C   0  0  0  0  0  2  0  0  0  0  0  0
  -28.2490  -12.4010   18.6190 C   0  0  0  0  0  2  0  0  0  0  0  0
  -27.7670  -13.3870   19.7170 C   0  0  0  0  0  3  0  0  0  0  0  0
  -28.7770  -13.5560   20.8700 C   0  0  0  0  0  2  0  0  0  0  0  0
  -30.0470  -13.9740   20.2660 N   0  0  0  0  0  0  0  0  0  0  0  0
  -31.8990  -15.1740   20.0610 O   0  0  0  0  0  0  0  0  0  0  0  0
  -30.9280  -17.6090   21.0460 C   0  0  0  0  0  2  0  0  0  0  0  0
  -29.3790  -17.3950   19.3840 C   0  0  0  0  0  2  0  0  0  0  0  0
  -29.6940  -20.0630   20.3030 C   0  0  0  0  0  3  0  0  0  0  0  0
  -30.4280  -19.1100   21.4270 C   0  0  0  0  0  3  0  0  0  0  0  0
  -28.7230  -18.8970   19.6980 C   0  0  2  0  0  0  0  0  0  0  0  0
  -27.4910  -18.6260   20.5900 C   0  0  0  0  0  1  0  0  0  0  0  0
  -28.1910  -19.4470   18.3620 C   0  0  0  0  0  1  0  0  0  0  0  0
  -30.0540  -16.5340   20.4550 N   0  0  0  0  0  0  0  0  0  0  0  0
  -25.3740  -13.9320   20.4190 C   0  0  0  0  0  0  0  0  0  0  0  0
  -24.3080  -13.1440   20.7550 C   0  0  0  0  0  0  0  0  0  0  0  0
  -24.7830  -11.7970   20.7260 C   0  0  0  0  0  0  0  0  0  0  0  0
  -26.4290  -13.0650   20.1940 N   0  0  0  0  0  0  0  0  0  0  0  0
  -26.0820  -11.7750   20.4480 N   0  0  0  0  0  0  0  0  0  0  0  0
  -24.0610  -10.5290   20.8900 C   0  0  0  0  0  0  0  0  0  0  0  0
  -24.4550   -9.5700   21.8480 C   0  0  0  0  0  3  0  0  0  0  0  0
  -23.7290   -8.3680   22.0000 C   0  0  0  0  0  3  0  0  0  0  0  0
  -22.5940   -8.1180   21.1930 C   0  0  0  0  0  0  0  0  0  0  0  0
  -22.2200   -9.0650   20.2240 C   0  0  0  0  0  3  0  0  0  0  0  0
  -22.9460  -10.2580   20.0700 C   0  0  0  0  0  3  0  0  0  0  0  0
  -21.8430   -6.9690   21.2530 O   0  0  0  0  0  0  0  0  0  0  0  0
  -21.7040   -6.2600   22.4200 C   0  0  0  0  0  0  0  0  0  0  0  0
  -21.1900   -6.8510   23.5940 C   0  0  0  0  0  3  0  0  0  0  0  0
  -20.9980   -6.0680   24.7500 C   0  0  0  0  0  3  0  0  0  0  0  0
  -21.3110   -4.6960   24.7320 C   0  0  0  0  0  0  0  0  0  0  0  0
  -21.8160   -4.1050   23.5620 C   0  0  0  0  0  3  0  0  0  0  0  0
  -22.0100   -4.8840   22.4080 C   0  0  0  0  0  0  0  0  0  0  0  0
  -22.4790   -4.3040   21.2770 F   0  0  0  0  0  0  0  0  0  0  0  0
  -21.1190   -3.9430   25.8400 F   0  0  0  0  0  0  0  0  0  0  0  0
  -22.9020  -13.6110   20.9910 C   0  0  0  0  0  0  0  0  0  0  0  0
  -22.1600  -12.9190   21.8480 N   0  0  0  0  0  0  0  0  0  0  0  0
  -22.4690  -14.6280   20.4480 O   0  0  0  0  0  0  0  0  0  0  0  0
  -22.5210  -12.0990   22.3100 H   0  0  0  0  0  0  0  0  0  0  0  0
  -21.2140  -13.2190   22.0470 H   0  0  0  0  0  0  0  0  0  0  0  0
  -25.5300  -15.3030   20.2590 N   0  0  0  0  0  0  0  0  0  0  0  0
  -24.7560  -15.9500   20.3790 H   0  0  0  0  0  0  0  0  0  0  0  0
  -26.3940  -15.7580   19.9990 H   0  0  0  0  0  0  0  0  0  0  0  0
  -31.6640  -19.7130   22.1680 C   0  0  0  0  0  2  0  0  0  0  0  0
  -31.3450  -20.4260   23.4920 C   0  0  0  0  0  2  0  0  0  0  0  0
  -32.2550  -22.0020   25.2900 C   0  0  0  0  0  1  0  0  0  0  0  0
  -32.5760  -21.1500   24.0590 C   0  0  0  0  0  2  0  0  0  0  0  0
  -28.2380  -21.7750   21.8250 C   0  0  1  0  0  0  0  0  0  0  0  0
  -28.3500  -22.9030   22.5280 F   0  0  0  0  0  0  0  0  0  0  0  0
  -27.0040  -21.7510   21.3260 F   0  0  0  0  0  0  0  0  0  0  0  0
  -28.3810  -20.7720   22.6840 F   0  0  0  0  0  0  0  0  0  0  0  0
  -32.7940  -24.5450   20.1070 C   0  0  0  0  0  1  0  0  0  0  0  0
  -31.4150  -24.4060   19.4460 C   0  0  0  0  0  2  0  0  0  0  0  0
  -27.9380  -24.6060   19.8980 C   0  0  0  0  0  2  0  0  0  0  0  0
  -28.1820  -26.1730   19.7350 O   0  0  0  0  0  0  0  0  0  0  0  0
  -24.6530  -31.8130   23.0820 C   0  0  0  0  0  0  0  0  0  0  0  0
  -27.1280  -27.1830   19.7770 C   0  0  0  0  0  0  0  0  0  0  0  0
  -23.4010  -30.4850   21.4260 C   0  0  0  0  0  3  0  0  0  0  0  0
  -24.8050  -28.9650   19.8930 C   0  0  0  0  0  0  0  0  0  0  0  0
  -25.9530  -30.7470   21.1940 C   0  0  0  0  0  2  0  0  0  0  0  0
  -26.0070  -29.3770   20.4810 C   0  0  0  0  0  0  0  0  0  0  0  0
  -27.1670  -28.5060   20.4010 C   0  0  0  0  0  3  0  0  0  0  0  0
  -25.8950  -26.8930   19.1530 C   0  0  0  0  0  3  0  0  0  0  0  0
  -24.7640  -27.7390   19.2120 C   0  0  0  0  0  3  0  0  0  0  0  0
  -23.5820  -29.8650   20.0150 C   0  0  0  0  0  2  0  0  0  0  0  0
  -24.6910  -31.0360   21.9550 N   0  0  0  0  0  0  0  0  0  0  0  0
  -23.5830  -32.0740   23.6550 O   0  0  0  0  0  0  0  0  0  0  0  0
  -22.7520  -29.4390   22.3680 C   0  0  0  0  0  0  0  0  0  0  0  0
  -21.4190  -29.2720   22.2780 N   0  0  0  0  0  0  0  0  0  0  0  0
  -23.4490  -28.7830   23.1450 O   0  0  0  0  0  0  0  0  0  0  0  0
  -20.9110  -29.8540   21.6270 H   0  0  0  0  0  0  0  0  0  0  0  0
  -18.0560  -28.0520   22.8560 C   0  0  0  0  0  0  0  0  0  0  0  0
  -20.6250  -28.3010   23.0360 C   0  0  0  0  0  3  0  0  0  0  0  0
  -20.7000  -26.8960   22.3930 C   0  0  0  0  0  2  0  0  0  0  0  0
  -19.5590  -26.6220   21.4070 C   0  0  0  0  0  2  0  0  0  0  0  0
  -18.2040  -26.7360   22.1100 C   0  0  0  0  0  2  0  0  0  0  0  0
  -19.1920  -28.7930   23.2770 C   0  0  0  0  0  0  0  0  0  0  0  0
  -18.9970  -30.0240   23.9400 C   0  0  0  0  0  3  0  0  0  0  0  0
  -17.7010  -30.5160   24.1830 C   0  0  0  0  0  3  0  0  0  0  0  0
  -16.5800  -29.7710   23.7770 C   0  0  0  0  0  3  0  0  0  0  0  0
  -16.7590  -28.5390   23.1200 C   0  0  0  0  0  3  0  0  0  0  0  0
  -25.9480  -32.4270   23.6950 C   0  0  0  0  0  3  0  0  0  0  0  0
  -25.6490  -33.8170   24.0790 N   0  0  0  0  0  0  0  0  0  0  0  0
  -25.9490  -34.8950   23.3440 C   0  0  0  0  0  0  0  0  0  0  0  0
  -26.5690  -34.8250   22.2800 O   0  0  0  0  0  0  0  0  0  0  0  0
  -25.0920  -33.9420   24.9120 H   0  0  0  0  0  0  0  0  0  0  0  0
  -24.1960  -36.6910   23.1480 C   0  0  0  0  0  1  0  0  0  0  0  0
  -25.4850  -36.2700   23.8700 C   0  0  0  0  0  3  0  0  0  0  0  0
  -27.6640  -37.1440   24.5920 C   0  0  0  0  0  1  0  0  0  0  0  0
  -26.5060  -37.3300   23.7230 N   0  0  0  0  0  0  0  0  0  0  0  0
  -26.1060  -38.2440   23.9200 H   0  0  0  0  0  0  0  0  0  0  0  0
  -26.4880  -31.6180   24.9390 C   0  0  1  0  0  0  0  0  0  0  0  0
  -25.4200  -31.3640   26.0290 C   0  0  0  0  0  1  0  0  0  0  0  0
  -27.0490  -30.2440   24.5050 C   0  0  0  0  0  1  0  0  0  0  0  0
  -27.6630  -32.3850   25.5910 C   0  0  0  0  0  1  0  0  0  0  0  0
  2 58  1  0
  2  1  1  0
  3 59  1  0
  3  2  1  0
  3  4  1  0
  4  1  1  0
  4 53  1  0
  5 20  1  0
  6 11  1  0
  7  8  1  0
  7  6  1  0
  9  8  1  0
  9 24  1  0
  9 10  1  0
 11  5  1  0
 11 10  1  0
 12  5  2  0
 13 16  1  0
 14 17  1  0
 14 20  1  0
 15 17  1  0
  4 15  1  6
 15 16  1  0
 16 49  1  0
 17 18  1  1
 19 17  1  0
 20 13  1  0
 21 22  2  0
 22 41  1  0
 23 22  1  0
 23 26  1  0
 24 21  1  0
 24 25  1  0
 25 23  2  0
 26 27  1  0
 27 28  2  0
 29 32  1  0
 29 28  1  0
 30 29  2  0
 31 30  1  0
 31 26  2  0
 32 33  1  0
 33 34  1  0
 34 35  2  0
 36 35  1  0
 36 40  1  0
 37 36  2  0
 38 33  2  0
 38 37  1  0
 39 38  1  0
 41 42  1  0
 42 45  1  0
 42 44  1  0
 43 41  2  0
 46 47  1  0
 46 21  1  0
 48 46  1  0
 49 50  1  0
 50 52  1  0
 52 51  1  0
 53 54  1  1
 53 56  1  0
 55 53  1  0
 58 57  1  0
 60 62  1  0
 60 59  1  0
 61 72  2  0
 62 67  1  0
 63 71  1  0
 63 73  1  0
 64 70  1  0
 64 66  1  0
 65 71  1  0
 66 65  1  0
 67 66  2  0
 68 69  1  0
 68 62  2  0
 69 64  2  0
 70 63  1  0
 71 61  1  0
 73 75  2  0
 74 73  1  0
 76 74  1  0
 77 86  2  0
 77 82  1  0
 78 74  1  0
 78 82  1  0
 79 78  1  0
 80 81  1  0
 80 79  1  0
 81 77  1  0
 82 83  2  0
 83 84  1  0
 85 84  2  0
 86 85  1  0
 87 61  1  0
 87 88  1  0
 87 97  1  0
 88 91  1  0
 89 93  1  0
 89 88  1  0
 90 89  2  0
 93 92  1  0
 95 93  1  0
 95 96  1  0
 95 94  1  0
 97100  1  1
 97 98  1  0
 99 97  1  0
M  ISO  4   5 100  20 100  59 101  60 101
M  END
>  <TORSDO>  (25) 
F 22

>  <SCORE>  (25) 
-11.900

>  <name>  (25) 
24

>  <ligand_id>  (25) 
24

>  <original_smiles>  (25) 
[H]c1c([H])c([H])c2c(c1[H])C([H])([H])C([H])([H])C([H])([H])C2([H])N([H])C(=O)C1([H])N(C(=O)C([H])(N([H])C(=O)C([H])(N([H])C([H])([H])[H])C([H])([H])[H])C(C([H])([H])[H])(C([H])([H])[H])C([H])([H])[H])C([H])([H])c2c([H])c(OC([H])([H])C3([H])C([H])(C([H])([H])C([H])([H])[H])C([H])([H])C3(C(F)(F)F)C3([H])C([H])(C([H])([H])C([H])([H])C([H])([H])C([H])([H])[H])C([H])([H])N(C(=O)N4C([H])([H])C([H])([H])C([H])([H])C([H])(n5nc(-c6c([H])c([H])c(Oc7c([H])c([H])c(F)c([H])c7F)c([H])c6[H])c(C(=O)N([H])[H])c5N([H])[H])C4([H])[H])C([H])([H])C3(C([H])([H])[H])C([H])([H])[H])c([H])c([H])c2C1([H])[H]

>  <smiles>  (25) 
[H]c1c([H])c([H])c2c(c1[H])C([H])([H])C([H])([H])C([H])([H])C2([H])N([H])C(=O)C1([H])N(C(=O)C([H])(N([H])C(=O)C([H])(N([H])C([H])([H])[H])C([H])([H])[H])C(C([H])([H])[H])(C([H])([H])[H])C([H])([H])[H])C([H])([H])c2c([H])c(OC([H])([H])C3([H])C([H])(C([H])([H])C([H])([H])[H])C([H])([H])C3(C(F)(F)F)C3([H])C([H])(C([H])([H])C([H])([H])C([H])([H])C([H])([H])[H])C([H])([H])N(C(=O)N4C([H])([H])C([H])([H])C([H])([H])C([H])(n5nc(-c6c([H])c([H])c(Oc7c([H])c([H])c(F)c([H])c7F)c([H])c6[H])c(C(=O)N([H])[H])c5N([H])[H])C4([H])[H])C([H])([H])C3(C([H])([H])[H])C([H])([H])[H])c([H])c([H])c2C1([H])[H]

$$$$
25:0:0
     RDKit          3D

 92100  0  0  1  0  0  0  0  0999 V2000
  -28.9720  -18.0960   20.7030 C   0  0  0  0  0  3  0  0  0  0  0  0
  -30.9840  -19.1730   21.5290 C   0  0  0  0  0  3  0  0  0  0  0  0
  -30.2850  -17.9900   21.2140 C   0  0  0  0  0  0  0  0  0  0  0  0
  -29.0560  -20.5580   20.9210 C   0  0  0  0  0  0  0  0  0  0  0  0
  -28.3640  -19.3690   20.5510 C   0  0  0  0  0  0  0  0  0  0  0  0
  -30.3830  -20.4370   21.4030 C   0  0  0  0  0  0  0  0  0  0  0  0
  -26.7500  -19.4380   19.9370 Cl  0  0  0  0  0  0  0  0  0  0  0  0
  -31.3010  -21.8220   21.8830 Cl  0  0  0  0  0  0  0  0  0  0  0  0
  -28.3760  -21.9380   20.9020 C   0  0  0  0  0  2  0  0  0  0  0  0
  -28.9010  -22.9390   19.8410 C   0  0  0  0  0  2  0  0  0  0  0  0
  -28.5800  -24.4140   20.1970 C   0  0  0  0  0  2  0  0  0  0  0  0
  -29.1300  -25.4390   19.1810 C   0  0  0  0  0  2  0  0  0  0  0  0
  -28.9750  -26.7940   19.6250 O   0  0  0  0  0  0  0  0  0  0  0  0
  -24.8270  -31.4120   23.0590 C   0  0  0  0  0  0  0  0  0  0  0  0
  -27.7380  -27.4110   19.6410 C   0  0  0  0  0  0  0  0  0  0  0  0
  -23.7130  -30.1190   21.2670 C   0  0  0  0  0  3  0  0  0  0  0  0
  -25.2640  -28.7880   19.7380 C   0  0  0  0  0  0  0  0  0  0  0  0
  -26.2190  -30.6150   21.1550 C   0  0  0  0  0  2  0  0  0  0  0  0
  -26.3820  -29.3140   20.3950 C   0  0  0  0  0  0  0  0  0  0  0  0
  -27.6170  -28.6320   20.3460 C   0  0  0  0  0  3  0  0  0  0  0  0
  -26.5980  -26.8960   18.9790 C   0  0  0  0  0  3  0  0  0  0  0  0
  -25.3670  -27.5810   19.0250 C   0  0  0  0  0  3  0  0  0  0  0  0
  -23.9720  -29.5730   19.8370 C   0  0  0  0  0  2  0  0  0  0  0  0
  -24.9370  -30.7230   21.8880 N   0  0  0  0  0  0  0  0  0  0  0  0
  -23.7250  -31.5800   23.6020 O   0  0  0  0  0  0  0  0  0  0  0  0
  -23.0950  -28.9840   22.1150 C   0  0  0  0  0  0  0  0  0  0  0  0
  -21.7790  -28.7630   21.9480 N   0  0  0  0  0  0  0  0  0  0  0  0
  -23.7940  -28.3100   22.8740 O   0  0  0  0  0  0  0  0  0  0  0  0
  -21.2730  -29.3510   21.3000 H   0  0  0  0  0  0  0  0  0  0  0  0
  -18.4530  -27.4130   22.3330 C   0  0  0  0  0  0  0  0  0  0  0  0
  -21.0020  -27.7210   22.6140 C   0  0  0  0  0  3  0  0  0  0  0  0
  -21.1450  -26.3670   21.8740 C   0  0  0  0  0  2  0  0  0  0  0  0
  -20.0380  -26.1250   20.8420 C   0  0  0  0  0  2  0  0  0  0  0  0
  -18.6670  -26.1460   21.5210 C   0  0  0  0  0  2  0  0  0  0  0  0
  -19.5510  -28.1590   22.8380 C   0  0  0  0  0  0  0  0  0  0  0  0
  -19.2970  -29.3450   23.5640 C   0  0  0  0  0  3  0  0  0  0  0  0
  -17.9790  -29.7860   23.7800 C   0  0  0  0  0  3  0  0  0  0  0  0
  -16.8950  -29.0370   23.2890 C   0  0  0  0  0  3  0  0  0  0  0  0
  -17.1340  -27.8540   22.5690 C   0  0  0  0  0  3  0  0  0  0  0  0
  -26.0710  -32.0420   23.7580 C   0  0  0  0  0  3  0  0  0  0  0  0
  -25.6920  -33.3870   24.2100 N   0  0  0  0  0  0  0  0  0  0  0  0
  -26.0060  -34.5230   23.5710 C   0  0  0  0  0  0  0  0  0  0  0  0
  -26.7150  -34.5500   22.5610 O   0  0  0  0  0  0  0  0  0  0  0  0
  -25.0690  -33.4380   25.0030 H   0  0  0  0  0  0  0  0  0  0  0  0
  -24.2160  -36.2680   23.3260 C   0  0  0  0  0  1  0  0  0  0  0  0
  -25.4450  -35.8390   24.1420 C   0  0  0  0  0  3  0  0  0  0  0  0
  -27.5070  -36.7200   25.1420 C   0  0  0  0  0  1  0  0  0  0  0  0
  -26.4360  -36.9370   24.1710 N   0  0  0  0  0  0  0  0  0  0  0  0
  -25.9860  -37.8210   24.3910 H   0  0  0  0  0  0  0  0  0  0  0  0
  -26.6110  -31.1800   24.9640 C   0  0  1  0  0  0  0  0  0  0  0  0
  -25.5170  -30.7940   25.9860 C   0  0  0  0  0  1  0  0  0  0  0  0
  -27.2590  -29.8720   24.4520 C   0  0  0  0  0  1  0  0  0  0  0  0
  -27.7180  -31.9580   25.7140 C   0  0  0  0  0  1  0  0  0  0  0  0
  -31.0030  -16.6670   21.4860 C   0  0  0  0  0  2  0  0  0  0  0  0
  -30.9060  -14.4190   20.4400 C   0  0  0  0  0  0  0  0  0  0  0  0
  -30.5640  -12.2730   19.2710 C   0  0  0  0  0  2  0  0  0  0  0  0
  -29.6230  -12.4730   18.0690 C   0  0  0  0  0  2  0  0  0  0  0  0
  -28.1510  -12.3530   18.5070 C   0  0  0  0  0  2  0  0  0  0  0  0
  -27.8220  -13.2040   19.7640 C   0  0  0  0  0  3  0  0  0  0  0  0
  -28.8780  -12.9800   20.8710 C   0  0  0  0  0  2  0  0  0  0  0  0
  -30.2020  -13.2640   20.2970 N   0  0  0  0  0  0  0  0  0  0  0  0
  -32.0010  -14.5920   19.8970 O   0  0  0  0  0  0  0  0  0  0  0  0
  -30.3270  -15.4030   21.1520 N   0  0  0  0  0  0  0  0  0  0  0  0
  -29.4320  -15.2100   21.5760 H   0  0  0  0  0  0  0  0  0  0  0  0
  -25.4210  -13.8200   20.4550 C   0  0  0  0  0  0  0  0  0  0  0  0
  -24.3500  -13.0510   20.8330 C   0  0  0  0  0  0  0  0  0  0  0  0
  -24.8100  -11.7000   20.8150 C   0  0  0  0  0  0  0  0  0  0  0  0
  -26.4680  -12.9360   20.2430 N   0  0  0  0  0  0  0  0  0  0  0  0
  -26.1030  -11.6560   20.5150 N   0  0  0  0  0  0  0  0  0  0  0  0
  -24.0820  -10.4380   21.0120 C   0  0  0  0  0  0  0  0  0  0  0  0
  -24.5060   -9.4780   21.9590 C   0  0  0  0  0  3  0  0  0  0  0  0
  -23.7750   -8.2820   22.1410 C   0  0  0  0  0  3  0  0  0  0  0  0
  -22.6090   -8.0410   21.3780 C   0  0  0  0  0  0  0  0  0  0  0  0
  -22.2050   -8.9890   20.4220 C   0  0  0  0  0  3  0  0  0  0  0  0
  -22.9370  -10.1740   20.2370 C   0  0  0  0  0  3  0  0  0  0  0  0
  -21.8510   -6.8980   21.4710 O   0  0  0  0  0  0  0  0  0  0  0  0
  -21.7800   -6.1740   22.6340 C   0  0  0  0  0  0  0  0  0  0  0  0
  -21.3230   -6.7470   23.8420 C   0  0  0  0  0  3  0  0  0  0  0  0
  -21.2010   -5.9500   24.9970 C   0  0  0  0  0  3  0  0  0  0  0  0
  -21.5230   -4.5800   24.9450 C   0  0  0  0  0  0  0  0  0  0  0  0
  -21.9700   -4.0060   23.7410 C   0  0  0  0  0  3  0  0  0  0  0  0
  -22.0950   -4.8000   22.5900 C   0  0  0  0  0  0  0  0  0  0  0  0
  -22.5070   -4.2380   21.4270 F   0  0  0  0  0  0  0  0  0  0  0  0
  -21.3970   -3.8140   26.0520 F   0  0  0  0  0  0  0  0  0  0  0  0
  -22.9540  -13.5340   21.0990 C   0  0  0  0  0  0  0  0  0  0  0  0
  -22.2240  -12.8520   21.9760 N   0  0  0  0  0  0  0  0  0  0  0  0
  -22.5160  -14.5490   20.5630 O   0  0  0  0  0  0  0  0  0  0  0  0
  -22.5870  -12.0290   22.4340 H   0  0  0  0  0  0  0  0  0  0  0  0
  -21.2860  -13.1570   22.1940 H   0  0  0  0  0  0  0  0  0  0  0  0
  -25.5860  -15.1850   20.2570 N   0  0  0  0  0  0  0  0  0  0  0  0
  -24.8100  -15.8350   20.3220 H   0  0  0  0  0  0  0  0  0  0  0  0
  -26.4340  -15.6090   19.9010 H   0  0  0  0  0  0  0  0  0  0  0  0
  1  3  1  0
  3 54  1  0
  3  2  2  0
  4  6  2  0
  5  1  2  0
  5  4  1  0
  6  2  1  0
  6  8  1  0
  7  5  1  0
  9  4  1  0
 10 11  1  0
 10  9  1  0
 12 13  1  0
 12 11  1  0
 13 15  1  0
 14 25  2  0
 15 20  1  0
 16 24  1  0
 16 26  1  0
 17 23  1  0
 17 19  1  0
 18 24  1  0
 19 18  1  0
 20 19  2  0
 21 22  1  0
 21 15  2  0
 22 17  2  0
 23 16  1  0
 24 14  1  0
 26 28  2  0
 27 26  1  0
 29 27  1  0
 30 39  2  0
 30 35  1  0
 31 27  1  0
 31 35  1  0
 32 31  1  0
 33 34  1  0
 33 32  1  0
 34 30  1  0
 35 36  2  0
 36 37  1  0
 38 37  2  0
 39 38  1  0
 40 14  1  0
 40 41  1  0
 40 50  1  0
 41 44  1  0
 42 46  1  0
 42 41  1  0
 43 42  2  0
 46 45  1  0
 46 48  1  0
 48 49  1  0
 48 47  1  0
 50 53  1  1
 50 51  1  0
 52 50  1  0
 55 63  1  0
 56 61  1  0
 57 58  1  0
 57 56  1  0
 59 58  1  0
 59 68  1  0
 59 60  1  0
 61 55  1  0
 61 60  1  0
 62 55  2  0
 63 54  1  0
 63 64  1  0
 65 66  2  0
 66 85  1  0
 67 66  1  0
 67 70  1  0
 68 65  1  0
 68 69  1  0
 69 67  2  0
 70 71  1  0
 71 72  2  0
 73 76  1  0
 73 72  1  0
 74 73  2  0
 75 74  1  0
 75 70  2  0
 76 77  1  0
 77 78  1  0
 78 79  2  0
 80 79  1  0
 80 84  1  0
 81 80  2  0
 82 77  2  0
 82 81  1  0
 83 82  1  0
 85 86  1  0
 86 89  1  0
 86 88  1  0
 87 85  2  0
 90 91  1  0
 90 65  1  0
 92 90  1  0
M  ISO  4  12 101  13 101  55 100  63 100
M  END
>  <TORSDO>  (26) 
F 21

>  <SCORE>  (26) 
-11.945

>  <name>  (26) 
25

>  <ligand_id>  (26) 
25

>  <original_smiles>  (26) 
[H]c1c([H])c([H])c2c(c1[H])C([H])([H])C([H])([H])C([H])([H])C2([H])N([H])C(=O)C1([H])N(C(=O)C([H])(N([H])C(=O)C([H])(N([H])C([H])([H])[H])C([H])([H])[H])C(C([H])([H])[H])(C([H])([H])[H])C([H])([H])[H])C([H])([H])c2c([H])c(OC([H])([H])C([H])([H])C([H])([H])C([H])([H])c3c(Cl)c([H])c(C([H])([H])N([H])C(=O)N4C([H])([H])C([H])([H])C([H])([H])C([H])(n5nc(-c6c([H])c([H])c(Oc7c([H])c([H])c(F)c([H])c7F)c([H])c6[H])c(C(=O)N([H])[H])c5N([H])[H])C4([H])[H])c([H])c3Cl)c([H])c([H])c2C1([H])[H]

>  <smiles>  (26) 
[H]c1c([H])c([H])c2c(c1[H])C([H])([H])C([H])([H])C([H])([H])C2([H])N([H])C(=O)C1([H])N(C(=O)C([H])(N([H])C(=O)C([H])(N([H])C([H])([H])[H])C([H])([H])[H])C(C([H])([H])[H])(C([H])([H])[H])C([H])([H])[H])C([H])([H])c2c([H])c(OC([H])([H])C([H])([H])C([H])([H])C([H])([H])c3c(Cl)c([H])c(C([H])([H])N([H])C(=O)N4C([H])([H])C([H])([H])C([H])([H])C([H])(n5nc(-c6c([H])c([H])c(Oc7c([H])c([H])c(F)c([H])c7F)c([H])c6[H])c(C(=O)N([H])[H])c5N([H])[H])C4([H])[H])c([H])c3Cl)c([H])c([H])c2C1([H])[H]

$$$$
26:0:0
     RDKit          3D

 90 98  0  0  1  0  0  0  0  0999 V2000
  -28.3670  -20.1000   20.4760 C   0  0  0  0  0  2  0  0  0  0  0  0
  -29.2050  -16.5260   19.2020 C   0  0  0  0  0  3  0  0  0  0  0  0
  -29.8420  -18.1570   21.3810 C   0  0  0  0  0  3  0  0  0  0  0  0
  -29.9630  -15.9530   20.2520 C   0  0  0  0  0  0  0  0  0  0  0  0
  -29.0410  -18.7040   20.3490 C   0  0  0  0  0  0  0  0  0  0  0  0
  -28.7430  -17.8610   19.2520 C   0  0  0  0  0  0  0  0  0  0  0  0
  -30.2820  -16.8010   21.3490 C   0  0  0  0  0  0  0  0  0  0  0  0
  -27.9970  -18.3330   18.2260 F   0  0  0  0  0  0  0  0  0  0  0  0
  -31.2070  -16.2160   22.6890 Cl  0  0  0  0  0  0  0  0  0  0  0  0
  -30.6330  -14.5990   20.0240 C   0  0  0  0  0  0  0  0  0  0  0  0
  -30.2310  -12.4170   18.9360 C   0  0  0  0  0  2  0  0  0  0  0  0
  -29.2380  -12.6140   17.7730 C   0  0  0  0  0  2  0  0  0  0  0  0
  -27.7880  -12.4840   18.2750 C   0  0  0  0  0  2  0  0  0  0  0  0
  -27.5110  -13.3130   19.5570 C   0  0  0  0  0  3  0  0  0  0  0  0
  -28.6320  -13.1550   20.6060 C   0  0  0  0  0  2  0  0  0  0  0  0
  -29.9180  -13.4350   19.9570 N   0  0  0  0  0  0  0  0  0  0  0  0
  -31.7890  -14.6680   19.6100 O   0  0  0  0  0  0  0  0  0  0  0  0
  -25.1770  -13.8790   20.4570 C   0  0  0  0  0  0  0  0  0  0  0  0
  -24.1350  -13.0930   20.8680 C   0  0  0  0  0  0  0  0  0  0  0  0
  -24.5930  -11.7460   20.7730 C   0  0  0  0  0  0  0  0  0  0  0  0
  -26.2020  -13.0070   20.1260 N   0  0  0  0  0  0  0  0  0  0  0  0
  -25.8630  -11.7170   20.3840 N   0  0  0  0  0  0  0  0  0  0  0  0
  -23.8750  -10.4790   20.9760 C   0  0  0  0  0  0  0  0  0  0  0  0
  -24.3380   -9.5090   21.8900 C   0  0  0  0  0  3  0  0  0  0  0  0
  -23.6240   -8.3050   22.0820 C   0  0  0  0  0  3  0  0  0  0  0  0
  -22.4280   -8.0670   21.3590 C   0  0  0  0  0  0  0  0  0  0  0  0
  -21.9830   -9.0270   20.4340 C   0  0  0  0  0  3  0  0  0  0  0  0
  -22.6980  -10.2220   20.2410 C   0  0  0  0  0  3  0  0  0  0  0  0
  -21.6820   -6.9180   21.4590 O   0  0  0  0  0  0  0  0  0  0  0  0
  -21.6370   -6.1900   22.6200 C   0  0  0  0  0  0  0  0  0  0  0  0
  -21.2190   -6.7580   23.8430 C   0  0  0  0  0  3  0  0  0  0  0  0
  -21.1240   -5.9550   24.9970 C   0  0  0  0  0  3  0  0  0  0  0  0
  -21.4290   -4.5830   24.9270 C   0  0  0  0  0  0  0  0  0  0  0  0
  -21.8370   -4.0120   23.7080 C   0  0  0  0  0  3  0  0  0  0  0  0
  -21.9380   -4.8140   22.5580 C   0  0  0  0  0  0  0  0  0  0  0  0
  -22.3140   -4.2570   21.3820 F   0  0  0  0  0  0  0  0  0  0  0  0
  -21.3280   -3.8080   26.0320 F   0  0  0  0  0  0  0  0  0  0  0  0
  -22.7540  -13.5640   21.2330 C   0  0  0  0  0  0  0  0  0  0  0  0
  -22.0800  -12.8470   22.1280 N   0  0  0  0  0  0  0  0  0  0  0  0
  -22.2890  -14.5980   20.7620 O   0  0  0  0  0  0  0  0  0  0  0  0
  -22.4880  -12.0280   22.5480 H   0  0  0  0  0  0  0  0  0  0  0  0
  -21.1470  -13.1270   22.3980 H   0  0  0  0  0  0  0  0  0  0  0  0
  -25.3240  -15.2530   20.3150 N   0  0  0  0  0  0  0  0  0  0  0  0
  -24.5520  -15.8780   20.5190 H   0  0  0  0  0  0  0  0  0  0  0  0
  -26.1440  -15.7290   19.9610 H   0  0  0  0  0  0  0  0  0  0  0  0
  -29.2300  -21.4040   20.4670 C   0  0  0  0  0  2  0  0  0  0  0  0
  -28.3650  -22.7090   20.5650 C   0  0  0  0  0  2  0  0  0  0  0  0
  -29.0380  -24.0970   20.2640 C   0  0  0  0  0  2  0  0  0  0  0  0
  -27.9660  -25.1870   20.0100 C   0  0  0  0  0  2  0  0  0  0  0  0
  -28.2810  -26.6000   20.1380 O   0  0  0  0  0  0  0  0  0  0  0  0
  -24.6040  -31.8870   23.2490 C   0  0  0  0  0  0  0  0  0  0  0  0
  -27.1590  -27.4220   20.0990 C   0  0  0  0  0  0  0  0  0  0  0  0
  -23.3750  -30.5080   21.6160 C   0  0  0  0  0  3  0  0  0  0  0  0
  -24.7910  -28.9850   20.1570 C   0  0  0  0  0  0  0  0  0  0  0  0
  -25.9030  -30.8460   21.3830 C   0  0  0  0  0  2  0  0  0  0  0  0
  -25.9720  -29.4810   20.7260 C   0  0  0  0  0  0  0  0  0  0  0  0
  -27.1660  -28.7130   20.6880 C   0  0  0  0  0  3  0  0  0  0  0  0
  -25.9510  -26.9720   19.5040 C   0  0  0  0  0  3  0  0  0  0  0  0
  -24.7770  -27.7310   19.5420 C   0  0  0  0  0  3  0  0  0  0  0  0
  -23.5610  -29.8540   20.2260 C   0  0  0  0  0  2  0  0  0  0  0  0
  -24.6510  -31.0890   22.1450 N   0  0  0  0  0  0  0  0  0  0  0  0
  -23.5260  -32.1610   23.7970 O   0  0  0  0  0  0  0  0  0  0  0  0
  -22.7270  -29.4770   22.5710 C   0  0  0  0  0  0  0  0  0  0  0  0
  -21.4010  -29.2930   22.4520 N   0  0  0  0  0  0  0  0  0  0  0  0
  -23.4160  -28.8500   23.3810 O   0  0  0  0  0  0  0  0  0  0  0  0
  -20.9030  -29.8730   21.7900 H   0  0  0  0  0  0  0  0  0  0  0  0
  -18.0380  -28.0680   22.9630 C   0  0  0  0  0  0  0  0  0  0  0  0
  -20.5940  -28.3460   23.2230 C   0  0  0  0  0  3  0  0  0  0  0  0
  -20.7000  -26.9130   22.6550 C   0  0  0  0  0  2  0  0  0  0  0  0
  -19.5980  -26.5770   21.6430 C   0  0  0  0  0  2  0  0  0  0  0  0
  -18.2180  -26.7180   22.2910 C   0  0  0  0  0  2  0  0  0  0  0  0
  -19.1540  -28.8390   23.3880 C   0  0  0  0  0  0  0  0  0  0  0  0
  -18.9280  -30.1000   23.9800 C   0  0  0  0  0  3  0  0  0  0  0  0
  -17.6210  -30.5950   24.1450 C   0  0  0  0  0  3  0  0  0  0  0  0
  -16.5200  -29.8250   23.7290 C   0  0  0  0  0  3  0  0  0  0  0  0
  -16.7300  -28.5630   23.1470 C   0  0  0  0  0  3  0  0  0  0  0  0
  -25.8970  -32.5120   23.8580 C   0  0  0  0  0  3  0  0  0  0  0  0
  -25.5890  -33.9050   24.2060 N   0  0  0  0  0  0  0  0  0  0  0  0
  -25.8880  -34.9640   23.4430 C   0  0  0  0  0  0  0  0  0  0  0  0
  -26.5290  -34.8720   22.3930 O   0  0  0  0  0  0  0  0  0  0  0  0
  -25.0110  -34.0480   25.0200 H   0  0  0  0  0  0  0  0  0  0  0  0
  -24.1340  -36.7470   23.1510 C   0  0  0  0  0  1  0  0  0  0  0  0
  -25.4040  -36.3480   23.9190 C   0  0  0  0  0  3  0  0  0  0  0  0
  -27.5620  -37.2500   24.6760 C   0  0  0  0  0  1  0  0  0  0  0  0
  -26.4230  -37.4100   23.7730 N   0  0  0  0  0  0  0  0  0  0  0  0
  -26.0160  -38.3260   23.9350 H   0  0  0  0  0  0  0  0  0  0  0  0
  -26.4280  -31.7240   25.1180 C   0  0  1  0  0  0  0  0  0  0  0  0
  -25.3540  -31.4730   26.2030 C   0  0  0  0  0  1  0  0  0  0  0  0
  -27.0040  -30.3530   24.6940 C   0  0  0  0  0  1  0  0  0  0  0  0
  -27.5860  -32.5100   25.7760 C   0  0  0  0  0  1  0  0  0  0  0  0
  2  6  2  0
  2  4  1  0
  4  7  2  0
  5  1  1  0
  5  3  2  0
  6  5  1  0
  7  3  1  0
  7  9  1  0
  8  6  1  0
 10  4  1  0
 11 16  1  0
 12 13  1  0
 12 11  1  0
 14 13  1  0
 14 21  1  0
 14 15  1  0
 16 10  1  0
 16 15  1  0
 17 10  2  0
 18 19  2  0
 19 38  1  0
 20 19  1  0
 20 23  1  0
 21 22  1  0
 21 18  1  0
 22 20  2  0
 23 24  1  0
 24 25  2  0
 26 29  1  0
 26 25  1  0
 27 26  2  0
 28 27  1  0
 28 23  2  0
 29 30  1  0
 30 31  1  0
 31 32  2  0
 33 32  1  0
 33 37  1  0
 34 33  2  0
 35 30  2  0
 35 34  1  0
 36 35  1  0
 38 39  1  0
 39 42  1  0
 39 41  1  0
 40 38  2  0
 43 18  1  0
 43 44  1  0
 45 43  1  0
 46  1  1  0
 46 47  1  0
 48 47  1  0
 49 50  1  0
 49 48  1  0
 51 62  2  0
 52 50  1  0
 52 57  1  0
 53 61  1  0
 53 63  1  0
 54 60  1  0
 54 56  1  0
 55 61  1  0
 56 55  1  0
 57 56  2  0
 58 59  1  0
 58 52  2  0
 59 54  2  0
 60 53  1  0
 61 51  1  0
 63 65  2  0
 64 63  1  0
 66 64  1  0
 67 76  2  0
 67 72  1  0
 68 64  1  0
 68 72  1  0
 69 68  1  0
 70 71  1  0
 70 69  1  0
 71 67  1  0
 72 73  2  0
 73 74  1  0
 75 74  2  0
 76 75  1  0
 77 51  1  0
 77 78  1  0
 77 87  1  0
 78 81  1  0
 79 83  1  0
 79 78  1  0
 80 79  2  0
 83 82  1  0
 85 83  1  0
 85 86  1  0
 85 84  1  0
 87 90  1  1
 87 88  1  0
 89 87  1  0
M  ISO  4   4 100  10 100  49 101  50 101
M  END
>  <TORSDO>  (27) 
F 21

>  <SCORE>  (27) 
-13.102

>  <name>  (27) 
26

>  <ligand_id>  (27) 
26

>  <original_smiles>  (27) 
[H]c1c([H])c([H])c2c(c1[H])C([H])([H])C([H])([H])C([H])([H])C2([H])N([H])C(=O)C1([H])N(C(=O)C([H])(N([H])C(=O)C([H])(N([H])C([H])([H])[H])C([H])([H])[H])C(C([H])([H])[H])(C([H])([H])[H])C([H])([H])[H])C([H])([H])c2c([H])c(OC([H])([H])C([H])([H])C([H])([H])C([H])([H])C([H])([H])c3c([H])c(Cl)c(C(=O)N4C([H])([H])C([H])([H])C([H])([H])C([H])(n5nc(-c6c([H])c([H])c(Oc7c([H])c([H])c(F)c([H])c7F)c([H])c6[H])c(C(=O)N([H])[H])c5N([H])[H])C4([H])[H])c([H])c3F)c([H])c([H])c2C1([H])[H]

>  <smiles>  (27) 
[H]c1c([H])c([H])c2c(c1[H])C([H])([H])C([H])([H])C([H])([H])C2([H])N([H])C(=O)C1([H])N(C(=O)C([H])(N([H])C(=O)C([H])(N([H])C([H])([H])[H])C([H])([H])[H])C(C([H])([H])[H])(C([H])([H])[H])C([H])([H])[H])C([H])([H])c2c([H])c(OC([H])([H])C([H])([H])C([H])([H])C([H])([H])C([H])([H])c3c([H])c(Cl)c(C(=O)N4C([H])([H])C([H])([H])C([H])([H])C([H])(n5nc(-c6c([H])c([H])c(Oc7c([H])c([H])c(F)c([H])c7F)c([H])c6[H])c(C(=O)N([H])[H])c5N([H])[H])C4([H])[H])c([H])c3F)c([H])c([H])c2C1([H])[H]

$$$$
27:0:0
     RDKit          3D

100108  0  0  1  0  0  0  0  0999 V2000
  -32.1900  -20.7580   20.3000 C   0  0  0  0  0  3  0  0  0  0  0  0
  -30.0600  -17.7920   19.0890 C   0  0  0  0  0  0  0  0  0  0  0  0
  -31.0160  -19.9530   19.7400 C   0  0  0  0  0  0  0  0  0  0  0  0
  -28.8310  -18.4210   18.7990 C   0  0  0  0  0  0  0  0  0  0  0  0
  -31.1570  -18.5590   19.5460 C   0  0  0  0  0  0  0  0  0  0  0  0
  -29.7740  -20.5720   19.4510 C   0  0  0  0  0  0  0  0  0  0  0  0
  -28.6880  -19.8070   18.9750 C   0  0  0  0  0  0  0  0  0  0  0  0
  -27.7790  -17.6860   18.3540 F   0  0  0  0  0  0  0  0  0  0  0  0
  -32.6750  -17.7930   19.8910 Cl  0  0  0  0  0  0  0  0  0  0  0  0
  -29.5550  -22.2700   19.7010 Cl  0  0  0  0  0  0  0  0  0  0  0  0
  -27.1700  -20.5540   18.6030 Cl  0  0  0  0  0  0  0  0  0  0  0  0
  -30.1940  -16.2980   18.8680 C   0  0  0  0  0  2  0  0  0  0  0  0
  -30.6710  -14.4540   20.4050 C   0  0  0  0  0  0  0  0  0  0  0  0
  -30.3430  -12.2630   19.4400 C   0  0  0  0  0  2  0  0  0  0  0  0
  -29.4230  -12.4850   18.2190 C   0  0  0  0  0  2  0  0  0  0  0  0
  -27.9440  -12.3930   18.6440 C   0  0  0  0  0  2  0  0  0  0  0  0
  -27.6010  -13.2510   19.8920 C   0  0  0  0  0  3  0  0  0  0  0  0
  -28.6610  -13.0790   21.0090 C   0  0  0  0  0  2  0  0  0  0  0  0
  -29.9940  -13.2860   20.4300 N   0  0  0  0  0  0  0  0  0  0  0  0
  -31.8810  -14.5420   20.2230 O   0  0  0  0  0  0  0  0  0  0  0  0
  -29.8800  -15.4720   20.0420 N   0  0  0  0  0  0  0  0  0  0  0  0
  -28.9000  -15.3410   20.2330 H   0  0  0  0  0  0  0  0  0  0  0  0
  -25.2070  -13.8630   20.6130 C   0  0  0  0  0  0  0  0  0  0  0  0
  -24.1360  -13.0920   20.9740 C   0  0  0  0  0  0  0  0  0  0  0  0
  -24.5930  -11.7390   20.9330 C   0  0  0  0  0  0  0  0  0  0  0  0
  -26.2500  -12.9810   20.3760 N   0  0  0  0  0  0  0  0  0  0  0  0
  -25.8830  -11.6970   20.6320 N   0  0  0  0  0  0  0  0  0  0  0  0
  -23.8600  -10.4770   21.1110 C   0  0  0  0  0  0  0  0  0  0  0  0
  -24.3050   -9.4850   22.0140 C   0  0  0  0  0  3  0  0  0  0  0  0
  -23.5740   -8.2900   22.1790 C   0  0  0  0  0  3  0  0  0  0  0  0
  -22.3850   -8.0750   21.4420 C   0  0  0  0  0  0  0  0  0  0  0  0
  -21.9610   -9.0560   20.5270 C   0  0  0  0  0  3  0  0  0  0  0  0
  -22.6920  -10.2440   20.3600 C   0  0  0  0  0  3  0  0  0  0  0  0
  -21.6250   -6.9360   21.5180 O   0  0  0  0  0  0  0  0  0  0  0  0
  -21.6140   -6.1540   22.6450 C   0  0  0  0  0  0  0  0  0  0  0  0
  -21.2570   -6.6750   23.9080 C   0  0  0  0  0  3  0  0  0  0  0  0
  -21.1880   -5.8210   25.0290 C   0  0  0  0  0  3  0  0  0  0  0  0
  -21.4640   -4.4490   24.8860 C   0  0  0  0  0  0  0  0  0  0  0  0
  -21.8160   -3.9270   23.6280 C   0  0  0  0  0  3  0  0  0  0  0  0
  -21.8840   -4.7780   22.5090 C   0  0  0  0  0  0  0  0  0  0  0  0
  -22.2010   -4.2670   21.2960 F   0  0  0  0  0  0  0  0  0  0  0  0
  -21.3910   -3.6260   25.9590 F   0  0  0  0  0  0  0  0  0  0  0  0
  -22.7390  -13.5730   21.2410 C   0  0  0  0  0  0  0  0  0  0  0  0
  -22.0050  -12.8750   22.1020 N   0  0  0  0  0  0  0  0  0  0  0  0
  -22.3050  -14.6010   20.7230 O   0  0  0  0  0  0  0  0  0  0  0  0
  -22.3670  -12.0430   22.5430 H   0  0  0  0  0  0  0  0  0  0  0  0
  -21.0700  -13.1830   22.3260 H   0  0  0  0  0  0  0  0  0  0  0  0
  -25.3680  -15.2350   20.4410 N   0  0  0  0  0  0  0  0  0  0  0  0
  -24.5880  -15.8750   20.5450 H   0  0  0  0  0  0  0  0  0  0  0  0
  -26.1980  -15.6820   20.0790 H   0  0  0  0  0  0  0  0  0  0  0  0
  -32.3650  -20.6830   21.8390 C   0  0  0  0  0  3  0  0  0  0  0  0
  -31.1930  -20.0540   22.6270 C   0  0  0  0  0  2  0  0  0  0  0  0
  -31.1330  -20.4400   24.1160 C   0  0  0  0  0  2  0  0  0  0  0  0
  -30.8920  -21.9370   24.3950 C   0  0  0  0  0  2  0  0  0  0  0  0
  -29.8580  -22.5840   23.4590 C   0  0  0  0  0  2  0  0  0  0  0  0
  -29.4210  -23.9810   23.9090 C   0  0  0  0  0  2  0  0  0  0  0  0
  -28.4970  -24.6470   22.8770 C   0  0  0  0  0  2  0  0  0  0  0  0
  -29.2780  -25.4870   21.8460 C   0  0  0  0  0  2  0  0  0  0  0  0
  -28.5710  -25.6220   20.4930 C   0  0  0  0  0  2  0  0  0  0  0  0
  -28.6620  -26.9750   20.0530 O   0  0  0  0  0  0  0  0  0  0  0  0
  -24.7480  -31.9650   23.2180 C   0  0  0  0  0  0  0  0  0  0  0  0
  -27.4730  -27.6570   20.0640 C   0  0  0  0  0  0  0  0  0  0  0  0
  -23.5620  -30.5390   21.5800 C   0  0  0  0  0  3  0  0  0  0  0  0
  -25.0370  -29.0690   20.1180 C   0  0  0  0  0  0  0  0  0  0  0  0
  -26.0680  -30.9870   21.3470 C   0  0  0  0  0  2  0  0  0  0  0  0
  -26.1850  -29.6280   20.6970 C   0  0  0  0  0  0  0  0  0  0  0  0
  -27.4090  -28.9300   20.6650 C   0  0  0  0  0  3  0  0  0  0  0  0
  -26.3170  -27.1160   19.4620 C   0  0  0  0  0  3  0  0  0  0  0  0
  -25.0960  -27.8110   19.4970 C   0  0  0  0  0  3  0  0  0  0  0  0
  -23.7690  -29.8850   20.1890 C   0  0  0  0  0  2  0  0  0  0  0  0
  -24.8120  -31.1790   22.1080 N   0  0  0  0  0  0  0  0  0  0  0  0
  -23.6670  -32.1970   23.7760 O   0  0  0  0  0  0  0  0  0  0  0  0
  -22.9600  -29.4870   22.5400 C   0  0  0  0  0  0  0  0  0  0  0  0
  -21.6400  -29.2680   22.4300 N   0  0  0  0  0  0  0  0  0  0  0  0
  -23.6760  -28.8740   23.3340 O   0  0  0  0  0  0  0  0  0  0  0  0
  -21.1230  -29.8210   21.7620 H   0  0  0  0  0  0  0  0  0  0  0  0
  -18.3120  -27.9650   22.9560 C   0  0  0  0  0  0  0  0  0  0  0  0
  -20.8630  -28.3000   23.2030 C   0  0  0  0  0  3  0  0  0  0  0  0
  -21.0020  -26.8750   22.6190 C   0  0  0  0  0  2  0  0  0  0  0  0
  -19.9020  -26.5230   21.6140 C   0  0  0  0  0  2  0  0  0  0  0  0
  -18.5230  -26.6240   22.2730 C   0  0  0  0  0  2  0  0  0  0  0  0
  -19.4110  -28.7580   23.3790 C   0  0  0  0  0  0  0  0  0  0  0  0
  -19.1610  -30.0110   23.9780 C   0  0  0  0  0  3  0  0  0  0  0  0
  -17.8440  -30.4740   24.1550 C   0  0  0  0  0  3  0  0  0  0  0  0
  -16.7590  -29.6790   23.7470 C   0  0  0  0  0  3  0  0  0  0  0  0
  -16.9940  -28.4260   23.1540 C   0  0  0  0  0  3  0  0  0  0  0  0
  -26.0230  -32.6280   23.8240 C   0  0  0  0  0  3  0  0  0  0  0  0
  -26.5840  -31.8610   25.0840 C   0  0  1  0  0  0  0  0  0  0  0  0
  -25.5170  -31.5860   26.1690 C   0  0  0  0  0  1  0  0  0  0  0  0
  -27.1970  -30.5030   24.6700 C   0  0  0  0  0  1  0  0  0  0  0  0
  -27.7240  -32.6820   25.7340 C   0  0  0  0  0  1  0  0  0  0  0  0
  -25.6800  -34.0140   24.1660 N   0  0  0  0  0  0  0  0  0  0  0  0
  -25.9690  -35.0780   23.4030 C   0  0  0  0  0  0  0  0  0  0  0  0
  -26.6280  -34.9960   22.3630 O   0  0  0  0  0  0  0  0  0  0  0  0
  -25.0910  -34.1500   24.9740 H   0  0  0  0  0  0  0  0  0  0  0  0
  -24.1780  -36.8110   23.0790 C   0  0  0  0  0  1  0  0  0  0  0  0
  -25.4440  -36.4490   23.8700 C   0  0  0  0  0  3  0  0  0  0  0  0
  -27.5660  -37.3960   24.6620 C   0  0  0  0  0  1  0  0  0  0  0  0
  -26.4410  -37.5340   23.7420 N   0  0  0  0  0  0  0  0  0  0  0  0
  -26.0100  -38.4400   23.9020 H   0  0  0  0  0  0  0  0  0  0  0  0
  1 51  2  0
  2  5  1  0
  3  1  1  0
  4  7  1  0
  4  2  2  0
  5  3  2  0
  5  9  1  0
  6 10  1  0
  6  3  1  0
  7  6  2  0
  8  4  1  0
 11  7  1  0
 12  2  1  0
 12 21  1  0
 13 19  1  0
 14 19  1  0
 15 16  1  0
 15 14  1  0
 17 16  1  0
 17 26  1  0
 17 18  1  0
 19 18  1  0
 20 13  2  0
 21 22  1  0
 21 13  1  0
 23 24  2  0
 24 43  1  0
 25 24  1  0
 25 28  1  0
 26 23  1  0
 26 27  1  0
 27 25  2  0
 28 29  1  0
 29 30  2  0
 31 34  1  0
 31 30  1  0
 32 31  2  0
 33 32  1  0
 33 28  2  0
 34 35  1  0
 35 36  1  0
 36 37  2  0
 38 37  1  0
 38 42  1  0
 39 38  2  0
 40 35  2  0
 40 39  1  0
 41 40  1  0
 43 44  1  0
 44 47  1  0
 44 46  1  0
 45 43  2  0
 48 49  1  0
 48 23  1  0
 50 48  1  0
 51 52  1  0
 52 53  1  0
 53 54  1  0
 55 56  1  0
 55 54  1  0
 57 56  1  0
 58 57  1  0
 59 58  1  0
 60 62  1  0
 60 59  1  0
 61 72  2  0
 62 67  1  0
 63 71  1  0
 63 73  1  0
 64 70  1  0
 64 66  1  0
 65 71  1  0
 66 65  1  0
 67 66  2  0
 68 69  1  0
 68 62  2  0
 69 64  2  0
 70 63  1  0
 71 61  1  0
 73 75  2  0
 74 73  1  0
 76 74  1  0
 77 86  2  0
 77 82  1  0
 78 74  1  0
 78 82  1  0
 79 78  1  0
 80 81  1  0
 80 79  1  0
 81 77  1  0
 82 83  2  0
 83 84  1  0
 85 84  2  0
 86 85  1  0
 87 61  1  0
 87 92  1  0
 87 88  1  0
 88 91  1  1
 88 89  1  0
 90 88  1  0
 92 95  1  0
 93 97  1  0
 93 92  1  0
 94 93  2  0
 97 96  1  0
 99 97  1  0
 99100  1  0
 99 98  1  0
M  ISO  4  13 100  21 100  59 101  60 101
M  END
>  <TORSDO>  (28) 
F 27

>  <SCORE>  (28) 
-11.999

>  <name>  (28) 
27

>  <ligand_id>  (28) 
27

>  <original_smiles>  (28) 
[H]c1c([H])c([H])c2c(c1[H])C([H])([H])C([H])([H])C([H])([H])C2([H])N([H])C(=O)C1([H])N(C(=O)C([H])(N([H])C(=O)C([H])(N([H])C([H])([H])[H])C([H])([H])[H])C(C([H])([H])[H])(C([H])([H])[H])C([H])([H])[H])C([H])([H])c2c([H])c(OC([H])([H])C([H])([H])C([H])([H])C([H])([H])C([H])([H])C([H])([H])C([H])([H])C([H])([H])C([H])([H])C([H])([H])c3c(Cl)c(Cl)c(F)c(C([H])([H])N([H])C(=O)N4C([H])([H])C([H])([H])C([H])([H])C([H])(n5nc(-c6c([H])c([H])c(Oc7c([H])c([H])c(F)c([H])c7F)c([H])c6[H])c(C(=O)N([H])[H])c5N([H])[H])C4([H])[H])c3Cl)c([H])c([H])c2C1([H])[H]

>  <smiles>  (28) 
[H]c1c([H])c([H])c2c(c1[H])C([H])([H])C([H])([H])C([H])([H])C2([H])N([H])C(=O)C1([H])N(C(=O)C([H])(N([H])C(=O)C([H])(N([H])C([H])([H])[H])C([H])([H])[H])C(C([H])([H])[H])(C([H])([H])[H])C([H])([H])[H])C([H])([H])c2c([H])c(OC([H])([H])C([H])([H])C([H])([H])C([H])([H])C([H])([H])C([H])([H])C([H])([H])C([H])([H])C([H])([H])C([H])([H])c3c(Cl)c(Cl)c(F)c(C([H])([H])N([H])C(=O)N4C([H])([H])C([H])([H])C([H])([H])C([H])(n5nc(-c6c([H])c([H])c(Oc7c([H])c([H])c(F)c([H])c7F)c([H])c6[H])c(C(=O)N([H])[H])c5N([H])[H])C4([H])[H])c3Cl)c([H])c([H])c2C1([H])[H]

$$$$
28:0:0
     RDKit          3D

 95104  0  0  1  0  0  0  0  0999 V2000
  -30.0900  -19.1680   21.3560 C   0  0  0  0  0  3  0  0  0  0  0  0
  -30.0990  -20.4070   20.6700 C   0  0  0  0  0  0  0  0  0  0  0  0
  -30.5990  -20.4650   19.3460 C   0  0  0  0  0  0  0  0  0  0  0  0
  -30.5890  -17.9850   20.7540 C   0  0  0  0  0  0  0  0  0  0  0  0
  -31.0580  -18.0560   19.4230 C   0  0  0  0  0  0  0  0  0  0  0  0
  -31.0600  -19.2810   18.7240 C   0  0  0  0  0  0  0  0  0  0  0  0
  -29.5850  -21.6670   21.3710 C   0  0  0  0  0  2  0  0  0  0  0  0
  -30.7010  -21.7920   18.5960 C   0  0  0  0  0  2  0  0  0  0  0  0
  -29.9470  -22.9560   19.2470 C   0  0  0  0  0  2  0  0  0  0  0  0
  -30.1320  -22.9840   20.7720 C   0  0  0  0  0  3  0  0  0  0  0  0
  -31.5490  -16.9620   18.8010 F   0  0  0  0  0  0  0  0  0  0  0  0
  -31.6770  -19.3170   17.1070 Cl  0  0  0  0  0  0  0  0  0  0  0  0
  -30.7300  -16.7080   21.5990 C   0  0  0  0  0  2  0  0  0  0  0  0
  -30.7210  -14.4510   20.5100 C   0  0  0  0  0  0  0  0  0  0  0  0
  -30.3520  -12.3330   19.3040 C   0  0  0  0  0  2  0  0  0  0  0  0
  -29.4210  -12.5700   18.1000 C   0  0  0  0  0  2  0  0  0  0  0  0
  -27.9440  -12.4530   18.5220 C   0  0  0  0  0  2  0  0  0  0  0  0
  -27.6140  -13.2800   19.7940 C   0  0  0  0  0  3  0  0  0  0  0  0
  -28.6620  -13.0380   20.9020 C   0  0  0  0  0  2  0  0  0  0  0  0
  -29.9920  -13.3170   20.3350 N   0  0  0  0  0  0  0  0  0  0  0  0
  -31.8660  -14.5740   20.0770 O   0  0  0  0  0  0  0  0  0  0  0  0
  -30.0920  -15.4740   21.1160 N   0  0  0  0  0  0  0  0  0  0  0  0
  -29.1340  -15.3180   21.3880 H   0  0  0  0  0  0  0  0  0  0  0  0
  -25.2140  -13.9090   20.4750 C   0  0  0  0  0  0  0  0  0  0  0  0
  -24.1380  -13.1460   20.8440 C   0  0  0  0  0  0  0  0  0  0  0  0
  -24.5910  -11.7920   20.8330 C   0  0  0  0  0  0  0  0  0  0  0  0
  -26.2560  -13.0190   20.2650 N   0  0  0  0  0  0  0  0  0  0  0  0
  -25.8840  -11.7400   20.5370 N   0  0  0  0  0  0  0  0  0  0  0  0
  -23.8550  -10.5360   21.0300 C   0  0  0  0  0  0  0  0  0  0  0  0
  -24.2820   -9.5670   21.9650 C   0  0  0  0  0  3  0  0  0  0  0  0
  -23.5460   -8.3780   22.1490 C   0  0  0  0  0  3  0  0  0  0  0  0
  -22.3670   -8.1480   21.4000 C   0  0  0  0  0  0  0  0  0  0  0  0
  -21.9590   -9.1060   20.4540 C   0  0  0  0  0  3  0  0  0  0  0  0
  -22.6960  -10.2870   20.2680 C   0  0  0  0  0  3  0  0  0  0  0  0
  -21.6030   -7.0110   21.4950 O   0  0  0  0  0  0  0  0  0  0  0  0
  -21.5650   -6.2620   22.6430 C   0  0  0  0  0  0  0  0  0  0  0  0
  -21.1850   -6.8190   23.8840 C   0  0  0  0  0  3  0  0  0  0  0  0
  -21.0910   -5.9980   25.0250 C   0  0  0  0  0  3  0  0  0  0  0  0
  -21.3690   -4.6220   24.9280 C   0  0  0  0  0  0  0  0  0  0  0  0
  -21.7420   -4.0630   23.6910 C   0  0  0  0  0  3  0  0  0  0  0  0
  -21.8360   -4.8820   22.5520 C   0  0  0  0  0  0  0  0  0  0  0  0
  -22.1760   -4.3350   21.3610 F   0  0  0  0  0  0  0  0  0  0  0  0
  -21.2720   -3.8310   26.0220 F   0  0  0  0  0  0  0  0  0  0  0  0
  -22.7410  -13.6370   21.0960 C   0  0  0  0  0  0  0  0  0  0  0  0
  -22.0000  -12.9550   21.9630 N   0  0  0  0  0  0  0  0  0  0  0  0
  -22.3150  -14.6590   20.5610 O   0  0  0  0  0  0  0  0  0  0  0  0
  -22.3560  -12.1270   22.4170 H   0  0  0  0  0  0  0  0  0  0  0  0
  -21.0620  -13.2640   22.1720 H   0  0  0  0  0  0  0  0  0  0  0  0
  -25.3890  -15.2760   20.2830 N   0  0  0  0  0  0  0  0  0  0  0  0
  -24.6220  -15.9340   20.3710 H   0  0  0  0  0  0  0  0  0  0  0  0
  -26.2450  -15.7050   19.9510 H   0  0  0  0  0  0  0  0  0  0  0  0
  -29.4650  -24.2350   21.3870 C   0  0  0  0  0  2  0  0  0  0  0  0
  -30.2230  -25.5610   21.1290 C   0  0  0  0  0  2  0  0  0  0  0  0
  -29.3130  -26.7970   21.2080 C   0  0  0  0  0  2  0  0  0  0  0  0
  -28.3830  -26.6950   20.1350 O   0  0  0  0  0  0  0  0  0  0  0  0
  -24.5720  -31.8870   23.2340 C   0  0  0  0  0  0  0  0  0  0  0  0
  -27.2450  -27.4610   20.1960 C   0  0  0  0  0  0  0  0  0  0  0  0
  -23.3710  -30.4730   21.5940 C   0  0  0  0  0  3  0  0  0  0  0  0
  -24.8350  -28.9310   20.1850 C   0  0  0  0  0  0  0  0  0  0  0  0
  -25.8870  -30.8500   21.3920 C   0  0  0  0  0  2  0  0  0  0  0  0
  -25.9830  -29.4690   20.7820 C   0  0  0  0  0  0  0  0  0  0  0  0
  -27.1880  -28.7380   20.8010 C   0  0  0  0  0  3  0  0  0  0  0  0
  -26.0870  -26.9350   19.5910 C   0  0  0  0  0  3  0  0  0  0  0  0
  -24.8790  -27.6580   19.5910 C   0  0  0  0  0  3  0  0  0  0  0  0
  -23.5860  -29.7810   20.2190 C   0  0  0  0  0  2  0  0  0  0  0  0
  -24.6280  -31.0840   22.1350 N   0  0  0  0  0  0  0  0  0  0  0  0
  -23.4910  -32.1610   23.7720 O   0  0  0  0  0  0  0  0  0  0  0  0
  -22.7210  -29.4580   22.5600 C   0  0  0  0  0  0  0  0  0  0  0  0
  -21.3960  -29.2760   22.4310 N   0  0  0  0  0  0  0  0  0  0  0  0
  -23.4020  -28.8380   23.3800 O   0  0  0  0  0  0  0  0  0  0  0  0
  -20.9110  -29.8260   21.7350 H   0  0  0  0  0  0  0  0  0  0  0  0
  -18.0190  -28.0990   22.9330 C   0  0  0  0  0  0  0  0  0  0  0  0
  -20.5770  -28.3470   23.2070 C   0  0  0  0  0  3  0  0  0  0  0  0
  -20.6760  -26.9140   22.6340 C   0  0  0  0  0  2  0  0  0  0  0  0
  -19.5750  -26.5930   21.6190 C   0  0  0  0  0  2  0  0  0  0  0  0
  -18.1900  -26.7480   22.2600 C   0  0  0  0  0  2  0  0  0  0  0  0
  -19.1410  -28.8570   23.3620 C   0  0  0  0  0  0  0  0  0  0  0  0
  -18.9280  -30.1240   23.9480 C   0  0  0  0  0  3  0  0  0  0  0  0
  -17.6240  -30.6320   24.1090 C   0  0  0  0  0  3  0  0  0  0  0  0
  -16.5180  -29.8720   23.6940 C   0  0  0  0  0  3  0  0  0  0  0  0
  -16.7150  -28.6060   23.1120 C   0  0  0  0  0  3  0  0  0  0  0  0
  -25.8580  -32.5200   23.8540 C   0  0  0  0  0  3  0  0  0  0  0  0
  -26.3820  -31.7420   25.1230 C   0  0  1  0  0  0  0  0  0  0  0  0
  -25.2950  -31.4890   26.1910 C   0  0  0  0  0  1  0  0  0  0  0  0
  -26.9670  -30.3710   24.7130 C   0  0  0  0  0  1  0  0  0  0  0  0
  -27.5360  -32.5320   25.7830 C   0  0  0  0  0  1  0  0  0  0  0  0
  -25.5490  -33.9160   24.1860 N   0  0  0  0  0  0  0  0  0  0  0  0
  -25.8800  -34.9680   23.4260 C   0  0  0  0  0  0  0  0  0  0  0  0
  -26.5530  -34.8670   22.3960 O   0  0  0  0  0  0  0  0  0  0  0  0
  -24.9510  -34.0690   24.9850 H   0  0  0  0  0  0  0  0  0  0  0  0
  -24.1490  -36.7550   23.0590 C   0  0  0  0  0  1  0  0  0  0  0  0
  -25.3870  -36.3550   23.8780 C   0  0  0  0  0  3  0  0  0  0  0  0
  -27.5170  -37.2410   24.7160 C   0  0  0  0  0  1  0  0  0  0  0  0
  -26.4180  -37.4100   23.7700 N   0  0  0  0  0  0  0  0  0  0  0  0
  -26.0110  -38.3290   23.9200 H   0  0  0  0  0  0  0  0  0  0  0  0
  2  1  2  0
  2  7  1  0
  3  2  1  0
  4  1  1  0
  4 13  1  0
  5  4  2  0
  6  3  2  0
  6  5  1  0
  8  9  1  0
  8  3  1  0
  9 10  1  0
 10  7  1  0
 10 52  1  0
 11  5  1  0
 12  6  1  0
 14 22  1  0
 15 20  1  0
 16 17  1  0
 16 15  1  0
 18 17  1  0
 18 27  1  0
 18 19  1  0
 20 14  1  0
 20 19  1  0
 21 14  2  0
 22 23  1  0
 22 13  1  0
 24 25  2  0
 25 44  1  0
 26 25  1  0
 26 29  1  0
 27 24  1  0
 27 28  1  0
 28 26  2  0
 29 30  1  0
 30 31  2  0
 32 35  1  0
 32 31  1  0
 33 32  2  0
 34 33  1  0
 34 29  2  0
 35 36  1  0
 36 37  1  0
 37 38  2  0
 39 38  1  0
 39 43  1  0
 40 39  2  0
 41 36  2  0
 41 40  1  0
 42 41  1  0
 44 45  1  0
 45 48  1  0
 45 47  1  0
 46 44  2  0
 49 50  1  0
 49 24  1  0
 51 49  1  0
 53 54  1  0
 53 52  1  0
 55 57  1  0
 55 54  1  0
 56 67  2  0
 57 62  1  0
 58 66  1  0
 58 68  1  0
 59 65  1  0
 59 61  1  0
 60 66  1  0
 61 62  2  0
 61 60  1  0
 63 64  1  0
 63 57  2  0
 64 59  2  0
 65 58  1  0
 66 56  1  0
 68 70  2  0
 69 68  1  0
 71 69  1  0
 72 81  2  0
 72 77  1  0
 73 69  1  0
 73 77  1  0
 74 73  1  0
 75 76  1  0
 75 74  1  0
 76 72  1  0
 77 78  2  0
 78 79  1  0
 80 79  2  0
 81 80  1  0
 82 56  1  0
 82 87  1  0
 82 83  1  0
 83 86  1  1
 83 84  1  0
 85 83  1  0
 87 90  1  0
 88 92  1  0
 88 87  1  0
 89 88  2  0
 92 91  1  0
 94 92  1  0
 94 95  1  0
 94 93  1  0
M  ISO  4  14 100  22 100  54 101  55 101
M  END
>  <TORSDO>  (29) 
F 20

>  <SCORE>  (29) 
-14.150

>  <name>  (29) 
28

>  <ligand_id>  (29) 
28

>  <original_smiles>  (29) 
[H]c1c([H])c([H])c2c(c1[H])C([H])([H])C([H])([H])C([H])([H])C2([H])N([H])C(=O)C1([H])N(C(=O)C([H])(N([H])C(=O)C([H])(N([H])C([H])([H])[H])C([H])([H])[H])C(C([H])([H])[H])(C([H])([H])[H])C([H])([H])[H])C([H])([H])c2c([H])c(OC([H])([H])C([H])([H])C([H])([H])C3([H])C([H])([H])c4c([H])c(C([H])([H])N([H])C(=O)N5C([H])([H])C([H])([H])C([H])([H])C([H])(n6nc(-c7c([H])c([H])c(Oc8c([H])c([H])c(F)c([H])c8F)c([H])c7[H])c(C(=O)N([H])[H])c6N([H])[H])C5([H])[H])c(F)c(Cl)c4C([H])([H])C3([H])[H])c([H])c([H])c2C1([H])[H]

>  <smiles>  (29) 
[H]c1c([H])c([H])c2c(c1[H])C([H])([H])C([H])([H])C([H])([H])C2([H])N([H])C(=O)C1([H])N(C(=O)C([H])(N([H])C(=O)C([H])(N([H])C([H])([H])[H])C([H])([H])[H])C(C([H])([H])[H])(C([H])([H])[H])C([H])([H])[H])C([H])([H])c2c([H])c(OC([H])([H])C([H])([H])C([H])([H])C3([H])C([H])([H])c4c([H])c(C([H])([H])N([H])C(=O)N5C([H])([H])C([H])([H])C([H])([H])C([H])(n6nc(-c7c([H])c([H])c(Oc8c([H])c([H])c(F)c([H])c8F)c([H])c7[H])c(C(=O)N([H])[H])c6N([H])[H])C5([H])[H])c(F)c(Cl)c4C([H])([H])C3([H])[H])c([H])c([H])c2C1([H])[H]

$$$$
29:0:0
     RDKit          3D

 95104  0  0  1  0  0  0  0  0999 V2000
  -30.4010  -18.1210   22.5000 C   0  0  0  0  0  3  0  0  0  0  0  0
  -29.6170  -18.4160   19.8960 C   0  0  0  0  0  3  0  0  0  0  0  0
  -29.9270  -19.3770   22.1000 C   0  0  0  0  0  0  0  0  0  0  0  0
  -29.5590  -19.5360   20.7480 C   0  0  0  0  0  0  0  0  0  0  0  0
  -30.5560  -17.0940   21.5500 C   0  0  0  0  0  0  0  0  0  0  0  0
  -29.8840  -20.5180   23.1040 C   0  0  0  0  0  2  0  0  0  0  0  0
  -29.1700  -20.9020   20.1940 C   0  0  0  0  0  2  0  0  0  0  0  0
  -29.7730  -21.9150   22.4620 C   0  0  0  0  0  2  0  0  0  0  0  0
  -28.7770  -21.9100   21.2920 C   0  0  0  0  0  3  0  0  0  0  0  0
  -30.1220  -17.2180   20.2750 N   0  0  0  0  0  0  0  0  0  0  0  0
  -28.4230  -23.2610   20.7790 N   0  0  0  0  0  4  0  0  0  0  0  0
  -27.8100  -23.6870   21.4580 H   0  0  0  0  0  0  0  0  0  0  0  0
  -27.8520  -23.0970   19.9620 H   0  0  0  0  0  0  0  0  0  0  0  0
  -29.4730  -24.2700   20.4120 C   0  0  0  0  0  2  0  0  0  0  0  0
  -28.8700  -25.3220   19.4230 C   0  0  0  0  0  2  0  0  0  0  0  0
  -28.9690  -26.7510   19.7260 O   0  0  0  0  0  0  0  0  0  0  0  0
  -24.6340  -31.3570   23.0460 C   0  0  0  0  0  0  0  0  0  0  0  0
  -27.7830  -27.4810   19.6530 C   0  0  0  0  0  0  0  0  0  0  0  0
  -23.6230  -30.0020   21.2480 C   0  0  0  0  0  3  0  0  0  0  0  0
  -25.2640  -28.7910   19.7160 C   0  0  0  0  0  0  0  0  0  0  0  0
  -26.1090  -30.6220   21.1760 C   0  0  0  0  0  2  0  0  0  0  0  0
  -26.3510  -29.3410   20.4030 C   0  0  0  0  0  0  0  0  0  0  0  0
  -27.6170  -28.6930   20.3780 C   0  0  0  0  0  3  0  0  0  0  0  0
  -26.6860  -27.0210   18.8860 C   0  0  0  0  0  3  0  0  0  0  0  0
  -25.4290  -27.6350   18.9480 C   0  0  0  0  0  3  0  0  0  0  0  0
  -23.9320  -29.5020   19.8160 C   0  0  0  0  0  2  0  0  0  0  0  0
  -24.8020  -30.6740   21.8770 N   0  0  0  0  0  0  0  0  0  0  0  0
  -23.5190  -31.4590   23.5710 O   0  0  0  0  0  0  0  0  0  0  0  0
  -23.0760  -28.8190   22.0810 C   0  0  0  0  0  0  0  0  0  0  0  0
  -21.7850  -28.5020   21.8950 N   0  0  0  0  0  0  0  0  0  0  0  0
  -23.8100  -28.1980   22.8570 O   0  0  0  0  0  0  0  0  0  0  0  0
  -21.2480  -29.0620   21.2470 H   0  0  0  0  0  0  0  0  0  0  0  0
  -18.5600  -26.8890   22.1550 C   0  0  0  0  0  0  0  0  0  0  0  0
  -21.0600  -27.4110   22.5490 C   0  0  0  0  0  3  0  0  0  0  0  0
  -21.3470  -26.0580   21.8570 C   0  0  0  0  0  2  0  0  0  0  0  0
  -20.3210  -25.7030   20.7780 C   0  0  0  0  0  2  0  0  0  0  0  0
  -18.9120  -25.6330   21.3760 C   0  0  0  0  0  2  0  0  0  0  0  0
  -19.5680  -27.7330   22.6920 C   0  0  0  0  0  0  0  0  0  0  0  0
  -19.1850  -28.9070   23.3750 C   0  0  0  0  0  3  0  0  0  0  0  0
  -17.8260  -29.2390   23.5310 C   0  0  0  0  0  3  0  0  0  0  0  0
  -16.8320  -28.3920   23.0090 C   0  0  0  0  0  3  0  0  0  0  0  0
  -17.2000  -27.2190   22.3270 C   0  0  0  0  0  3  0  0  0  0  0  0
  -25.8290  -32.0600   23.7580 C   0  0  0  0  0  3  0  0  0  0  0  0
  -26.3090  -31.3070   25.0590 C   0  0  1  0  0  0  0  0  0  0  0  0
  -25.1660  -30.9980   26.0540 C   0  0  0  0  0  1  0  0  0  0  0  0
  -26.9920  -29.9680   24.6970 C   0  0  0  0  0  1  0  0  0  0  0  0
  -27.3700  -32.1590   25.7940 C   0  0  0  0  0  1  0  0  0  0  0  0
  -25.4040  -33.4310   24.0750 N   0  0  0  0  0  0  0  0  0  0  0  0
  -25.7290  -34.5130   23.3520 C   0  0  0  0  0  0  0  0  0  0  0  0
  -26.4870  -34.4670   22.3810 O   0  0  0  0  0  0  0  0  0  0  0  0
  -24.7370  -33.5340   24.8240 H   0  0  0  0  0  0  0  0  0  0  0  0
  -23.9270  -36.1970   22.8680 C   0  0  0  0  0  1  0  0  0  0  0  0
  -25.1150  -35.8600   23.7810 C   0  0  0  0  0  3  0  0  0  0  0  0
  -27.1070  -36.8640   24.8080 C   0  0  0  0  0  1  0  0  0  0  0  0
  -26.0860  -36.9760   23.7700 N   0  0  0  0  0  0  0  0  0  0  0  0
  -25.6130  -37.8670   23.8870 H   0  0  0  0  0  0  0  0  0  0  0  0
  -31.4700  -15.9240   21.9130 C   0  0  0  0  0  2  0  0  0  0  0  0
  -31.1940  -14.4160   19.9220 C   0  0  0  0  0  0  0  0  0  0  0  0
  -30.5400  -12.4780   18.5260 C   0  0  0  0  0  2  0  0  0  0  0  0
  -29.4960  -12.8010   17.4490 C   0  0  0  0  0  2  0  0  0  0  0  0
  -28.0680  -12.7160   18.0030 C   0  0  0  0  0  2  0  0  0  0  0  0
  -27.9040  -13.4360   19.3680 C   0  0  0  0  0  3  0  0  0  0  0  0
  -29.0620  -13.1680   20.3550 C   0  0  0  0  0  2  0  0  0  0  0  0
  -30.3430  -13.3900   19.6570 N   0  0  0  0  0  0  0  0  0  0  0  0
  -31.9970  -14.8760   19.1050 O   0  0  0  0  0  0  0  0  0  0  0  0
  -32.2400  -13.6420   21.8650 C   0  0  0  0  0  1  0  0  0  0  0  0
  -31.3420  -14.6210   21.2410 N   0  0  0  0  0  0  0  0  0  0  0  0
  -25.6020  -14.0290   20.3390 C   0  0  0  0  0  0  0  0  0  0  0  0
  -24.5610  -13.2560   20.7820 C   0  0  0  0  0  0  0  0  0  0  0  0
  -24.9820  -11.9010   20.6340 C   0  0  0  0  0  0  0  0  0  0  0  0
  -26.6010  -13.1440   19.9660 N   0  0  0  0  0  0  0  0  0  0  0  0
  -26.2380  -11.8520   20.2050 N   0  0  0  0  0  0  0  0  0  0  0  0
  -24.2320  -10.6480   20.8230 C   0  0  0  0  0  0  0  0  0  0  0  0
  -24.6450   -9.6900   21.7750 C   0  0  0  0  0  3  0  0  0  0  0  0
  -23.9070   -8.5010   21.9610 C   0  0  0  0  0  3  0  0  0  0  0  0
  -22.7420   -8.2620   21.1920 C   0  0  0  0  0  0  0  0  0  0  0  0
  -22.3530   -9.2080   20.2240 C   0  0  0  0  0  3  0  0  0  0  0  0
  -23.0910  -10.3900   20.0360 C   0  0  0  0  0  3  0  0  0  0  0  0
  -21.9750   -7.1250   21.2830 O   0  0  0  0  0  0  0  0  0  0  0  0
  -21.7760   -6.4850   22.4800 C   0  0  0  0  0  0  0  0  0  0  0  0
  -21.1770   -7.1340   23.5820 C   0  0  0  0  0  3  0  0  0  0  0  0
  -20.9200   -6.4210   24.7690 C   0  0  0  0  0  3  0  0  0  0  0  0
  -21.2490   -5.0540   24.8590 C   0  0  0  0  0  0  0  0  0  0  0  0
  -21.8350   -4.4010   23.7620 C   0  0  0  0  0  3  0  0  0  0  0  0
  -22.0930   -5.1140   22.5750 C   0  0  0  0  0  0  0  0  0  0  0  0
  -22.6370   -4.4680   21.5140 F   0  0  0  0  0  0  0  0  0  0  0  0
  -20.9950   -4.3660   25.9980 F   0  0  0  0  0  0  0  0  0  0  0  0
  -23.2100  -13.7510   21.2240 C   0  0  0  0  0  0  0  0  0  0  0  0
  -22.5750  -13.0540   22.1620 N   0  0  0  0  0  0  0  0  0  0  0  0
  -22.7370  -14.7930   20.7810 O   0  0  0  0  0  0  0  0  0  0  0  0
  -22.9680  -12.2090   22.5390 H   0  0  0  0  0  0  0  0  0  0  0  0
  -21.6790  -13.3720   22.4960 H   0  0  0  0  0  0  0  0  0  0  0  0
  -25.7810  -15.4040   20.2060 N   0  0  0  0  0  0  0  0  0  0  0  0
  -25.0490  -16.0700   20.4140 H   0  0  0  0  0  0  0  0  0  0  0  0
  -26.6120  -15.8330   19.8150 H   0  0  0  0  0  0  0  0  0  0  0  0
  2 10  2  0
  2  4  1  0
  3  1  1  0
  3  6  1  0
  4  3  2  0
  5 57  1  0
  5  1  2  0
  7  4  1  0
  7  9  1  0
  8  6  1  0
  9 11  1  0
  9  8  1  0
 10  5  1  0
 11 12  1  0
 13 11  1  0
 14 11  1  0
 15 16  1  0
 15 14  1  0
 17 28  2  0
 18 16  1  0
 18 23  1  0
 19 27  1  0
 19 29  1  0
 20 26  1  0
 20 22  1  0
 21 27  1  0
 22 21  1  0
 23 22  2  0
 24 25  1  0
 24 18  2  0
 25 20  2  0
 26 19  1  0
 27 17  1  0
 29 31  2  0
 30 29  1  0
 32 30  1  0
 33 42  2  0
 33 38  1  0
 34 30  1  0
 34 38  1  0
 35 34  1  0
 36 37  1  0
 36 35  1  0
 37 33  1  0
 38 39  2  0
 39 40  1  0
 41 40  2  0
 42 41  1  0
 43 17  1  0
 43 48  1  0
 43 44  1  0
 44 47  1  1
 44 45  1  0
 46 44  1  0
 48 51  1  0
 49 53  1  0
 49 48  1  0
 50 49  2  0
 53 52  1  0
 55 53  1  0
 55 56  1  0
 55 54  1  0
 58 67  1  0
 59 64  1  0
 60 61  1  0
 60 59  1  0
 62 61  1  0
 62 71  1  0
 62 63  1  0
 64 58  1  0
 64 63  1  0
 65 58  2  0
 67 66  1  0
 67 57  1  0
 68 69  2  0
 69 88  1  0
 70 69  1  0
 70 73  1  0
 71 72  1  0
 71 68  1  0
 72 70  2  0
 73 74  1  0
 74 75  2  0
 76 79  1  0
 76 75  1  0
 77 76  2  0
 78 77  1  0
 78 73  2  0
 79 80  1  0
 80 85  2  0
 80 81  1  0
 81 82  2  0
 82 83  1  0
 83 87  1  0
 84 83  2  0
 85 84  1  0
 86 85  1  0
 88 89  1  0
 89 92  1  0
 89 91  1  0
 90 88  2  0
 93 68  1  0
 93 94  1  0
 95 93  1  0
M  ISO  4  15 101  16 101  58 100  67 100
M  END
>  <TORSDO>  (30) 
F 20

>  <SCORE>  (30) 
-9.787

>  <name>  (30) 
29

>  <ligand_id>  (30) 
29

>  <original_smiles>  (30) 
[H]c1nc(C([H])([H])N(C(=O)N2C([H])([H])C([H])([H])C([H])([H])C([H])(n3nc(-c4c([H])c([H])c(Oc5c([H])c([H])c(F)c([H])c5F)c([H])c4[H])c(C(=O)N([H])[H])c3N([H])[H])C2([H])[H])C([H])([H])[H])c([H])c2c1C([H])([H])C([H])([N+]([H])([H])C([H])([H])C([H])([H])Oc1c([H])c([H])c3c(c1[H])C([H])([H])N(C(=O)C([H])(N([H])C(=O)C([H])(N([H])C([H])([H])[H])C([H])([H])[H])C(C([H])([H])[H])(C([H])([H])[H])C([H])([H])[H])C([H])(C(=O)N([H])C1([H])c4c([H])c([H])c([H])c([H])c4C([H])([H])C([H])([H])C1([H])[H])C3([H])[H])C([H])([H])C2([H])[H]

>  <smiles>  (30) 
[H]c1nc(C([H])([H])N(C(=O)N2C([H])([H])C([H])([H])C([H])([H])C([H])(n3nc(-c4c([H])c([H])c(Oc5c([H])c([H])c(F)c([H])c5F)c([H])c4[H])c(C(=O)N([H])[H])c3N([H])[H])C2([H])[H])C([H])([H])[H])c([H])c2c1C([H])([H])C([H])([N+]([H])([H])C([H])([H])C([H])([H])Oc1c([H])c([H])c3c(c1[H])C([H])([H])N(C(=O)C([H])(N([H])C(=O)C([H])(N([H])C([H])([H])[H])C([H])([H])[H])C(C([H])([H])[H])(C([H])([H])[H])C([H])([H])[H])C([H])(C(=O)N([H])C1([H])c4c([H])c([H])c([H])c([H])c4C([H])([H])C([H])([H])C1([H])[H])C3([H])[H])C([H])([H])C2([H])[H]

$$$$
30:0:0
     RDKit          3D

 99109  0  0  1  0  0  0  0  0999 V2000
  -30.4460  -20.0370   24.0900 C   0  0  0  0  0  3  0  0  0  0  0  0
  -30.0090  -19.9820   21.3080 C   0  0  0  0  0  3  0  0  0  0  0  0
  -30.1010  -23.3730   22.6730 C   0  0  0  0  0  3  0  0  0  0  0  0
  -30.3040  -21.2630   23.4010 C   0  0  0  0  0  0  0  0  0  0  0  0
  -30.1750  -18.7730   22.0150 C   0  0  0  0  0  0  0  0  0  0  0  0
  -30.3330  -22.6370   23.8060 C   0  0  0  0  0  0  0  0  0  0  0  0
  -30.0760  -21.2120   21.9940 C   0  0  0  0  0  0  0  0  0  0  0  0
  -30.3840  -18.8080   23.4110 C   0  0  0  0  0  0  0  0  0  0  0  0
  -30.5600  -23.1600   25.1920 C   0  0  0  0  0  1  0  0  0  0  0  0
  -29.9520  -22.5340   21.5720 N   0  0  0  0  0  0  0  0  0  0  0  0
  -30.5400  -17.6580   24.1070 F   0  0  0  0  0  0  0  0  0  0  0  0
  -28.1330  -23.2590   20.0510 C   0  0  0  0  0  2  0  0  0  0  0  0
  -30.5260  -24.1670   19.7520 C   0  0  0  0  0  2  0  0  0  0  0  0
  -27.8270  -24.7140   19.6670 C   0  0  0  0  0  2  0  0  0  0  0  0
  -30.0500  -24.7070   18.3890 C   0  0  0  0  0  2  0  0  0  0  0  0
  -29.6450  -22.9790   20.2140 C   0  0  0  0  0  3  0  0  0  0  0  0
  -28.5670  -25.1550   18.3780 C   0  0  0  0  0  3  0  0  0  0  0  0
  -28.5010  -26.5810   18.2210 O   0  0  0  0  0  0  0  0  0  0  0  0
  -24.6020  -30.5430   22.6320 C   0  0  0  0  0  0  0  0  0  0  0  0
  -27.2770  -27.1870   18.4230 C   0  0  0  0  0  0  0  0  0  0  0  0
  -23.3620  -29.4610   20.7870 C   0  0  0  0  0  3  0  0  0  0  0  0
  -24.7900  -28.4310   18.9450 C   0  0  0  0  0  0  0  0  0  0  0  0
  -25.8300  -30.0750   20.5160 C   0  0  0  0  0  2  0  0  0  0  0  0
  -25.9540  -28.9040   19.5630 C   0  0  0  0  0  0  0  0  0  0  0  0
  -27.1980  -28.2920   19.3000 C   0  0  0  0  0  3  0  0  0  0  0  0
  -26.0940  -26.7320   17.7950 C   0  0  0  0  0  3  0  0  0  0  0  0
  -24.8540  -27.3440   18.0580 C   0  0  0  0  0  3  0  0  0  0  0  0
  -23.4970  -29.1400   19.2750 C   0  0  0  0  0  2  0  0  0  0  0  0
  -24.6200  -30.0280   21.3700 N   0  0  0  0  0  0  0  0  0  0  0  0
  -23.5540  -30.5870   23.2910 O   0  0  0  0  0  0  0  0  0  0  0  0
  -22.8680  -28.1920   21.5160 C   0  0  0  0  0  0  0  0  0  0  0  0
  -21.5620  -27.9040   21.3970 N   0  0  0  0  0  0  0  0  0  0  0  0
  -23.6530  -27.4790   22.1480 O   0  0  0  0  0  0  0  0  0  0  0  0
  -20.9840  -28.5430   20.8680 H   0  0  0  0  0  0  0  0  0  0  0  0
  -18.3670  -26.2360   21.6390 C   0  0  0  0  0  0  0  0  0  0  0  0
  -20.8800  -26.7420   21.9640 C   0  0  0  0  0  3  0  0  0  0  0  0
  -21.1410  -25.4740   21.1200 C   0  0  0  0  0  2  0  0  0  0  0  0
  -20.0660  -25.2250   20.0570 C   0  0  0  0  0  2  0  0  0  0  0  0
  -18.6880  -25.0750   20.7110 C   0  0  0  0  0  2  0  0  0  0  0  0
  -19.3950  -27.0280   22.2140 C   0  0  0  0  0  0  0  0  0  0  0  0
  -19.0420  -28.1180   23.0390 C   0  0  0  0  0  3  0  0  0  0  0  0
  -17.6910  -28.4190   23.2950 C   0  0  0  0  0  3  0  0  0  0  0  0
  -16.6760  -27.6210   22.7380 C   0  0  0  0  0  3  0  0  0  0  0  0
  -17.0150  -26.5320   21.9140 C   0  0  0  0  0  3  0  0  0  0  0  0
  -25.8890  -31.1230   23.2980 C   0  0  0  0  0  3  0  0  0  0  0  0
  -26.4990  -30.1740   24.4020 C   0  0  1  0  0  0  0  0  0  0  0  0
  -25.4780  -29.7310   25.4770 C   0  0  0  0  0  1  0  0  0  0  0  0
  -27.0900  -28.8990   23.7570 C   0  0  0  0  0  1  0  0  0  0  0  0
  -27.6670  -30.8900   25.1190 C   0  0  0  0  0  1  0  0  0  0  0  0
  -25.5420  -32.4290   23.8690 N   0  0  0  0  0  0  0  0  0  0  0  0
  -25.8910  -33.6090   23.3360 C   0  0  0  0  0  0  0  0  0  0  0  0
  -26.6100  -33.7060   22.3380 O   0  0  0  0  0  0  0  0  0  0  0  0
  -24.9130  -32.4260   24.6600 H   0  0  0  0  0  0  0  0  0  0  0  0
  -24.1560  -35.4240   23.2330 C   0  0  0  0  0  1  0  0  0  0  0  0
  -25.3570  -34.8810   24.0220 C   0  0  0  0  0  3  0  0  0  0  0  0
  -27.4230  -35.6060   25.1340 C   0  0  0  0  0  1  0  0  0  0  0  0
  -26.3790  -35.9410   24.1700 N   0  0  0  0  0  0  0  0  0  0  0  0
  -25.9500  -36.8160   24.4580 H   0  0  0  0  0  0  0  0  0  0  0  0
  -30.1740  -17.4420   21.2790 C   0  0  0  0  0  2  0  0  0  0  0  0
  -31.4660  -17.2510   20.4590 C   0  0  0  0  0  2  0  0  0  0  0  0
  -32.1060  -15.8610   20.5960 C   0  0  0  0  0  2  0  0  0  0  0  0
  -31.2700  -13.9540   19.2270 C   0  0  0  0  0  0  0  0  0  0  0  0
  -30.7780  -11.6460   18.5120 C   0  0  0  0  0  2  0  0  0  0  0  0
  -29.6730  -11.5580   17.4480 C   0  0  0  0  0  2  0  0  0  0  0  0
  -28.2870  -11.5050   18.1130 C   0  0  0  0  0  2  0  0  0  0  0  0
  -28.0900  -12.6370   19.1510 C   0  0  0  0  0  3  0  0  0  0  0  0
  -29.2830  -12.7040   20.1290 C   0  0  0  0  0  2  0  0  0  0  0  0
  -30.5310  -12.8270   19.3500 N   0  0  0  0  0  0  0  0  0  0  0  0
  -32.0890  -14.1430   18.3200 O   0  0  0  0  0  0  0  0  0  0  0  0
  -31.1840  -14.7750   20.2800 N   0  0  0  0  0  0  0  0  0  0  0  0
  -30.5270  -14.5020   20.9960 H   0  0  0  0  0  0  0  0  0  0  0  0
  -25.9960  -13.4650   20.4000 C   0  0  0  0  0  0  0  0  0  0  0  0
  -24.9020  -12.8010   20.8900 C   0  0  0  0  0  0  0  0  0  0  0  0
  -25.1210  -11.4170   20.6090 C   0  0  0  0  0  0  0  0  0  0  0  0
  -26.8220  -12.4900   19.8620 N   0  0  0  0  0  0  0  0  0  0  0  0
  -26.3070  -11.2460   20.0400 N   0  0  0  0  0  0  0  0  0  0  0  0
  -24.2480  -10.2530   20.7980 C   0  0  0  0  0  0  0  0  0  0  0  0
  -24.5800   -9.2180   21.7000 C   0  0  0  0  0  3  0  0  0  0  0  0
  -23.7150   -8.1170   21.8770 C   0  0  0  0  0  3  0  0  0  0  0  0
  -22.5020   -8.0440   21.1520 C   0  0  0  0  0  0  0  0  0  0  0  0
  -22.1860   -9.0650   20.2400 C   0  0  0  0  0  3  0  0  0  0  0  0
  -23.0510  -10.1590   20.0600 C   0  0  0  0  0  3  0  0  0  0  0  0
  -21.6130   -7.0010   21.2400 O   0  0  0  0  0  0  0  0  0  0  0  0
  -21.3160   -6.4060   22.4400 C   0  0  0  0  0  0  0  0  0  0  0  0
  -20.7500   -7.1340   23.5110 C   0  0  0  0  0  3  0  0  0  0  0  0
  -20.3950   -6.4700   24.7020 C   0  0  0  0  0  3  0  0  0  0  0  0
  -20.5960   -5.0830   24.8230 C   0  0  0  0  0  0  0  0  0  0  0  0
  -21.1540   -4.3560   23.7560 C   0  0  0  0  0  3  0  0  0  0  0  0
  -21.5100   -5.0160   22.5660 C   0  0  0  0  0  0  0  0  0  0  0  0
  -22.0270   -4.3090   21.5340 F   0  0  0  0  0  0  0  0  0  0  0  0
  -20.2470   -4.4430   25.9640 F   0  0  0  0  0  0  0  0  0  0  0  0
  -23.6760  -13.4210   21.4990 C   0  0  0  0  0  0  0  0  0  0  0  0
  -23.0460  -12.7310   22.4420 N   0  0  0  0  0  0  0  0  0  0  0  0
  -23.2990  -14.5470   21.1740 O   0  0  0  0  0  0  0  0  0  0  0  0
  -23.3660  -11.8160   22.7220 H   0  0  0  0  0  0  0  0  0  0  0  0
  -22.2330  -13.1240   22.8940 H   0  0  0  0  0  0  0  0  0  0  0  0
  -26.3470  -14.8100   20.3520 N   0  0  0  0  0  0  0  0  0  0  0  0
  -25.7350  -15.5440   20.6960 H   0  0  0  0  0  0  0  0  0  0  0  0
  -27.1930  -15.1660   19.9240 H   0  0  0  0  0  0  0  0  0  0  0  0
  2  7  2  0
  2  5  1  0
  3  6  2  0
  4  6  1  0
  4  1  2  0
  5  8  2  0
  6  9  1  0
  7  4  1  0
  8  1  1  0
  8 11  1  0
 10  7  1  0
 10  3  1  0
 12 16  1  0
 14 12  1  0
 15 13  1  0
 16 13  1  0
 16 10  1  0
 17 18  1  0
 17 15  1  0
 17 14  1  0
 18 20  1  0
 19 30  2  0
 20 25  1  0
 21 29  1  0
 21 31  1  0
 22 28  1  0
 22 24  1  0
 23 29  1  0
 24 23  1  0
 25 24  2  0
 26 27  1  0
 26 20  2  0
 27 22  2  0
 28 21  1  0
 29 19  1  0
 31 33  2  0
 32 31  1  0
 34 32  1  0
 35 44  2  0
 35 40  1  0
 36 32  1  0
 36 40  1  0
 37 36  1  0
 38 39  1  0
 38 37  1  0
 39 35  1  0
 40 41  2  0
 41 42  1  0
 43 42  2  0
 44 43  1  0
 45 19  1  0
 45 50  1  0
 45 46  1  0
 46 49  1  1
 46 47  1  0
 48 46  1  0
 50 53  1  0
 51 50  1  0
 51 55  1  0
 52 51  2  0
 55 54  1  0
 55 57  1  0
 57 58  1  0
 57 56  1  0
 59  5  1  0
 60 61  1  0
 60 59  1  0
 62 68  1  0
 62 70  1  0
 63 68  1  0
 64 65  1  0
 64 63  1  0
 66 65  1  0
 66 75  1  0
 66 67  1  0
 68 67  1  0
 69 62  2  0
 70 61  1  0
 70 71  1  0
 72 73  2  0
 73 92  1  0
 74 77  1  0
 74 73  1  0
 75 76  1  0
 75 72  1  0
 76 74  2  0
 77 78  1  0
 78 79  2  0
 80 83  1  0
 80 79  1  0
 81 80  2  0
 82 81  1  0
 82 77  2  0
 83 84  1  0
 84 89  2  0
 84 85  1  0
 85 86  2  0
 86 87  1  0
 87 91  1  0
 88 87  2  0
 89 88  1  0
 90 89  1  0
 92 93  1  0
 93 95  1  0
 93 96  1  0
 94 92  2  0
 97 72  1  0
 97 98  1  0
 99 97  1  0
M  ISO  4  17 101  18 101  62 100  70 100
M  END
>  <TORSDO>  (31) 
F 20

>  <SCORE>  (31) 
-6.544

>  <name>  (31) 
30

>  <ligand_id>  (31) 
30

>  <original_smiles>  (31) 
[H]c1c([H])c([H])c2c(c1[H])C([H])([H])C([H])([H])C([H])([H])C2([H])N([H])C(=O)C1([H])N(C(=O)C([H])(N([H])C(=O)C([H])(N([H])C([H])([H])[H])C([H])([H])[H])C(C([H])([H])[H])(C([H])([H])[H])C([H])([H])[H])C([H])([H])c2c([H])c(OC3([H])C([H])([H])C([H])([H])C([H])(n4c([H])c(C([H])([H])[H])c5c([H])c(F)c(C([H])([H])C([H])([H])C([H])([H])N([H])C(=O)N6C([H])([H])C([H])([H])C([H])([H])C([H])(n7nc(-c8c([H])c([H])c(Oc9c([H])c([H])c(F)c([H])c9F)c([H])c8[H])c(C(=O)N([H])[H])c7N([H])[H])C6([H])[H])c([H])c54)C([H])([H])C3([H])[H])c([H])c([H])c2C1([H])[H]

>  <smiles>  (31) 
[H]c1c([H])c([H])c2c(c1[H])C([H])([H])C([H])([H])C([H])([H])C2([H])N([H])C(=O)C1([H])N(C(=O)C([H])(N([H])C(=O)C([H])(N([H])C([H])([H])[H])C([H])([H])[H])C(C([H])([H])[H])(C([H])([H])[H])C([H])([H])[H])C([H])([H])c2c([H])c(OC3([H])C([H])([H])C([H])([H])C([H])(n4c([H])c(C([H])([H])[H])c5c([H])c(F)c(C([H])([H])C([H])([H])C([H])([H])N([H])C(=O)N6C([H])([H])C([H])([H])C([H])([H])C([H])(n7nc(-c8c([H])c([H])c(Oc9c([H])c([H])c(F)c([H])c9F)c([H])c8[H])c(C(=O)N([H])[H])c7N([H])[H])C6([H])[H])c([H])c54)C([H])([H])C3([H])[H])c([H])c([H])c2C1([H])[H]

$$$$
31:0:0
     RDKit          3D

 97105  0  0  1  0  0  0  0  0999 V2000
  -27.5140  -20.9820   19.1310 C   0  0  0  0  0  2  0  0  0  0  0  0
  -28.9180  -16.8870   19.2630 C   0  0  0  0  0  3  0  0  0  0  0  0
  -29.2920  -17.7770   20.2930 C   0  0  0  0  0  0  0  0  0  0  0  0
  -27.4360  -18.5630   18.2820 C   0  0  0  0  0  0  0  0  0  0  0  0
  -27.9090  -19.5130   19.2260 C   0  0  0  0  0  0  0  0  0  0  0  0
  -27.9870  -17.2630   18.2820 C   0  0  0  0  0  0  0  0  0  0  0  0
  -28.8290  -19.1110   20.2340 C   0  0  0  0  0  0  0  0  0  0  0  0
  -26.3970  -18.9360   17.2260 C   0  0  0  0  0  1  0  0  0  0  0  0
  -27.5740  -16.1050   17.0690 Cl  0  0  0  0  0  0  0  0  0  0  0  0
  -29.3970  -20.2630   21.4000 Cl  0  0  0  0  0  0  0  0  0  0  0  0
  -30.2170  -17.3100   21.4220 C   0  0  0  0  0  2  0  0  0  0  0  0
  -30.8740  -14.9150   21.5100 C   0  0  0  0  0  0  0  0  0  0  0  0
  -30.8030  -12.7450   20.3850 C   0  0  0  0  0  2  0  0  0  0  0  0
  -30.0160  -12.9040   19.0630 C   0  0  0  0  0  2  0  0  0  0  0  0
  -28.4940  -12.7700   19.2820 C   0  0  0  0  0  2  0  0  0  0  0  0
  -27.9770  -13.5740   20.5050 C   0  0  0  0  0  3  0  0  0  0  0  0
  -28.8900  -13.3750   21.7400 C   0  0  0  0  0  2  0  0  0  0  0  0
  -30.2710  -13.7130   21.3480 N   0  0  0  0  0  0  0  0  0  0  0  0
  -32.0460  -15.1450   21.2120 O   0  0  0  0  0  0  0  0  0  0  0  0
  -30.0180  -15.9060   21.7780 N   0  0  0  0  0  0  0  0  0  0  0  0
  -29.0830  -15.6220   22.0170 H   0  0  0  0  0  0  0  0  0  0  0  0
  -25.5100  -14.1330   20.9730 C   0  0  0  0  0  0  0  0  0  0  0  0
  -24.4110  -13.3300   21.1410 C   0  0  0  0  0  0  0  0  0  0  0  0
  -24.8900  -11.9870   21.0500 C   0  0  0  0  0  0  0  0  0  0  0  0
  -26.5810  -13.2710   20.7940 N   0  0  0  0  0  0  0  0  0  0  0  0
  -26.2060  -11.9740   20.8960 N   0  0  0  0  0  0  0  0  0  0  0  0
  -24.1630  -10.7130   21.0390 C   0  0  0  0  0  0  0  0  0  0  0  0
  -24.5100   -9.6630   21.9170 C   0  0  0  0  0  3  0  0  0  0  0  0
  -23.7890   -8.4510   21.9060 C   0  0  0  0  0  3  0  0  0  0  0  0
  -22.7120   -8.2790   21.0060 C   0  0  0  0  0  0  0  0  0  0  0  0
  -22.3910   -9.3170   20.1100 C   0  0  0  0  0  3  0  0  0  0  0  0
  -23.1110  -10.5240   20.1220 C   0  0  0  0  0  3  0  0  0  0  0  0
  -21.9660   -7.1280   20.9050 O   0  0  0  0  0  0  0  0  0  0  0  0
  -21.7770   -6.2970   21.9800 C   0  0  0  0  0  0  0  0  0  0  0  0
  -21.1850   -6.7540   23.1780 C   0  0  0  0  0  3  0  0  0  0  0  0
  -20.9430   -5.8500   24.2310 C   0  0  0  0  0  3  0  0  0  0  0  0
  -21.2870   -4.4910   24.0880 C   0  0  0  0  0  0  0  0  0  0  0  0
  -21.8710   -4.0360   22.8920 C   0  0  0  0  0  3  0  0  0  0  0  0
  -22.1130   -4.9350   21.8410 C   0  0  0  0  0  0  0  0  0  0  0  0
  -22.6540   -4.4860   20.6820 F   0  0  0  0  0  0  0  0  0  0  0  0
  -21.0490   -3.6230   25.0990 F   0  0  0  0  0  0  0  0  0  0  0  0
  -22.9860  -13.7740   21.2860 C   0  0  0  0  0  0  0  0  0  0  0  0
  -22.1780  -13.0100   22.0160 N   0  0  0  0  0  0  0  0  0  0  0  0
  -22.5890  -14.8320   20.7990 O   0  0  0  0  0  0  0  0  0  0  0  0
  -22.5110  -12.1550   22.4390 H   0  0  0  0  0  0  0  0  0  0  0  0
  -21.2180  -13.2880   22.1580 H   0  0  0  0  0  0  0  0  0  0  0  0
  -25.6860  -15.5150   20.9380 N   0  0  0  0  0  0  0  0  0  0  0  0
  -24.9150  -16.1680   21.0080 H   0  0  0  0  0  0  0  0  0  0  0  0
  -26.5660  -15.9690   20.7420 H   0  0  0  0  0  0  0  0  0  0  0  0
  -26.9100  -21.4860   20.3800 N   0  0  0  0  0  4  0  0  0  0  0  0
  -27.4400  -21.1150   21.1540 H   0  0  0  0  0  0  0  0  0  0  0  0
  -25.9680  -21.1310   20.4510 H   0  0  0  0  0  0  0  0  0  0  0  0
  -26.8920  -22.9570   20.5000 C   0  0  0  0  0  2  0  0  0  0  0  0
  -28.3140  -23.5370   20.6600 C   0  0  0  0  0  2  0  0  0  0  0  0
  -28.3210  -25.0270   20.9980 C   0  0  0  0  0  2  0  0  0  0  0  0
  -28.9570  -25.8530   19.8690 C   0  0  0  0  0  2  0  0  0  0  0  0
  -28.8250  -27.2300   20.1540 O   0  0  0  0  0  0  0  0  0  0  0  0
  -24.7110  -31.9690   23.3970 C   0  0  0  0  0  0  0  0  0  0  0  0
  -27.5700  -27.7930   20.1750 C   0  0  0  0  0  0  0  0  0  0  0  0
  -23.5620  -30.5520   21.7200 C   0  0  0  0  0  3  0  0  0  0  0  0
  -25.0830  -29.1280   20.2490 C   0  0  0  0  0  0  0  0  0  0  0  0
  -26.0580  -31.0490   21.5170 C   0  0  0  0  0  2  0  0  0  0  0  0
  -26.2080  -29.6990   20.8520 C   0  0  0  0  0  0  0  0  0  0  0  0
  -27.4490  -29.0360   20.8230 C   0  0  0  0  0  3  0  0  0  0  0  0
  -26.4280  -27.2220   19.5640 C   0  0  0  0  0  3  0  0  0  0  0  0
  -25.1840  -27.8790   19.6080 C   0  0  0  0  0  3  0  0  0  0  0  0
  -23.7960  -29.9200   20.3210 C   0  0  0  0  0  2  0  0  0  0  0  0
  -24.7950  -31.2040   22.2720 N   0  0  0  0  0  0  0  0  0  0  0  0
  -23.6210  -32.1780   23.9460 O   0  0  0  0  0  0  0  0  0  0  0  0
  -22.9700  -29.4730   22.6560 C   0  0  0  0  0  0  0  0  0  0  0  0
  -21.6750  -29.1710   22.4740 N   0  0  0  0  0  0  0  0  0  0  0  0
  -23.6740  -28.9110   23.4980 O   0  0  0  0  0  0  0  0  0  0  0  0
  -21.1640  -29.6850   21.7700 H   0  0  0  0  0  0  0  0  0  0  0  0
  -18.4300  -27.6160   22.7580 C   0  0  0  0  0  0  0  0  0  0  0  0
  -20.9150  -28.1650   23.2130 C   0  0  0  0  0  3  0  0  0  0  0  0
  -21.2200  -26.7440   22.6900 C   0  0  0  0  0  2  0  0  0  0  0  0
  -20.2430  -26.2770   21.6060 C   0  0  0  0  0  2  0  0  0  0  0  0
  -18.8080  -26.2800   22.1420 C   0  0  0  0  0  2  0  0  0  0  0  0
  -19.4220  -28.5080   23.2470 C   0  0  0  0  0  0  0  0  0  0  0  0
  -19.0200  -29.7530   23.7790 C   0  0  0  0  0  3  0  0  0  0  0  0
  -17.6590  -30.1090   23.8290 C   0  0  0  0  0  3  0  0  0  0  0  0
  -16.6810  -29.2130   23.3570 C   0  0  0  0  0  3  0  0  0  0  0  0
  -17.0680  -27.9700   22.8250 C   0  0  0  0  0  3  0  0  0  0  0  0
  -25.9710  -32.6410   24.0250 C   0  0  0  0  0  3  0  0  0  0  0  0
  -25.6320  -34.0420   24.3070 N   0  0  0  0  0  0  0  0  0  0  0  0
  -25.9530  -35.0740   23.5150 C   0  0  0  0  0  0  0  0  0  0  0  0
  -26.6440  -34.9500   22.5000 O   0  0  0  0  0  0  0  0  0  0  0  0
  -25.0190  -34.2120   25.0910 H   0  0  0  0  0  0  0  0  0  0  0  0
  -24.1870  -36.8080   23.0770 C   0  0  0  0  0  1  0  0  0  0  0  0
  -25.4270  -36.4640   23.9170 C   0  0  0  0  0  3  0  0  0  0  0  0
  -27.5310  -37.4310   24.7360 C   0  0  0  0  0  1  0  0  0  0  0  0
  -26.4340  -37.5380   23.7770 N   0  0  0  0  0  0  0  0  0  0  0  0
  -26.0020  -38.4520   23.8880 H   0  0  0  0  0  0  0  0  0  0  0  0
  -26.4790  -31.9140   25.3290 C   0  0  1  0  0  0  0  0  0  0  0  0
  -25.3710  -31.6790   26.3820 C   0  0  0  0  0  1  0  0  0  0  0  0
  -27.1000  -30.5410   24.9780 C   0  0  0  0  0  1  0  0  0  0  0  0
  -27.5960  -32.7500   25.9980 C   0  0  0  0  0  1  0  0  0  0  0  0
  1  5  1  0
  1 50  1  0
  2  3  1  0
  3 11  1  0
  4  6  1  0
  4  5  2  0
  5  7  1  0
  6  2  2  0
  7  3  2  0
  7 10  1  0
  8  4  1  0
  9  6  1  0
 11 20  1  0
 12 20  1  0
 13 18  1  0
 14 15  1  0
 14 13  1  0
 16 15  1  0
 16 25  1  0
 16 17  1  0
 18 12  1  0
 18 17  1  0
 19 12  2  0
 20 21  1  0
 22 23  2  0
 23 42  1  0
 24 23  1  0
 25 26  1  0
 25 22  1  0
 26 24  2  0
 27 24  1  0
 27 28  1  0
 29 28  2  0
 30 29  1  0
 31 32  1  0
 31 30  2  0
 32 27  2  0
 33 30  1  0
 33 34  1  0
 34 35  1  0
 35 36  2  0
 37 36  1  0
 37 41  1  0
 38 37  2  0
 39 34  2  0
 39 38  1  0
 40 39  1  0
 42 43  1  0
 43 46  1  0
 43 45  1  0
 44 42  2  0
 47 22  1  0
 47 48  1  0
 49 47  1  0
 50 52  1  0
 50 53  1  0
 50 51  1  0
 53 54  1  0
 54 55  1  0
 56 57  1  0
 56 55  1  0
 57 59  1  0
 58 69  2  0
 59 64  1  0
 60 68  1  0
 60 70  1  0
 61 67  1  0
 61 63  1  0
 62 68  1  0
 63 62  1  0
 64 63  2  0
 65 66  1  0
 65 59  2  0
 66 61  2  0
 67 60  1  0
 68 58  1  0
 70 72  2  0
 71 70  1  0
 73 71  1  0
 74 83  2  0
 74 79  1  0
 75 71  1  0
 75 79  1  0
 76 75  1  0
 77 78  1  0
 77 76  1  0
 78 74  1  0
 79 80  2  0
 80 81  1  0
 82 81  2  0
 83 82  1  0
 84 58  1  0
 84 85  1  0
 84 94  1  0
 85 88  1  0
 86 90  1  0
 86 85  1  0
 87 86  2  0
 90 89  1  0
 92 93  1  0
 92 90  1  0
 92 91  1  0
 94 97  1  1
 94 95  1  0
 96 94  1  0
M  ISO  4  12 100  20 100  56 101  57 101
M  END
>  <TORSDO>  (32) 
F 23

>  <SCORE>  (32) 
-6.283

>  <name>  (32) 
31

>  <ligand_id>  (32) 
31

>  <original_smiles>  (32) 
[H]c1c([H])c([H])c2c(c1[H])C([H])([H])C([H])([H])C([H])([H])C2([H])N([H])C(=O)C1([H])N(C(=O)C([H])(N([H])C(=O)C([H])(N([H])C([H])([H])[H])C([H])([H])[H])C(C([H])([H])[H])(C([H])([H])[H])C([H])([H])[H])C([H])([H])c2c([H])c(OC([H])([H])C([H])([H])C([H])([H])C([H])([H])[N+]([H])([H])C([H])([H])c3c(Cl)c(C([H])([H])N([H])C(=O)N4C([H])([H])C([H])([H])C([H])([H])C([H])(n5nc(-c6c([H])c([H])c(Oc7c([H])c([H])c(F)c([H])c7F)c([H])c6[H])c(C(=O)N([H])[H])c5N([H])[H])C4([H])[H])c([H])c(Cl)c3C([H])([H])[H])c([H])c([H])c2C1([H])[H]

>  <smiles>  (32) 
[H]c1c([H])c([H])c2c(c1[H])C([H])([H])C([H])([H])C([H])([H])C2([H])N([H])C(=O)C1([H])N(C(=O)C([H])(N([H])C(=O)C([H])(N([H])C([H])([H])[H])C([H])([H])[H])C(C([H])([H])[H])(C([H])([H])[H])C([H])([H])[H])C([H])([H])c2c([H])c(OC([H])([H])C([H])([H])C([H])([H])C([H])([H])[N+]([H])([H])C([H])([H])c3c(Cl)c(C([H])([H])N([H])C(=O)N4C([H])([H])C([H])([H])C([H])([H])C([H])(n5nc(-c6c([H])c([H])c(Oc7c([H])c([H])c(F)c([H])c7F)c([H])c6[H])c(C(=O)N([H])[H])c5N([H])[H])C4([H])[H])c([H])c(Cl)c3C([H])([H])[H])c([H])c([H])c2C1([H])[H]

$$$$
32:0:0
     RDKit          3D

 93101  0  0  1  0  0  0  0  0999 V2000
  -29.8630  -19.4050   18.9000 C   0  0  0  0  0  3  0  0  0  0  0  0
  -29.5080  -20.4610   19.7580 C   0  0  0  0  0  0  0  0  0  0  0  0
  -29.8520  -20.3490   21.1340 C   0  0  0  0  0  0  0  0  0  0  0  0
  -30.6430  -19.2420   21.5850 C   0  0  0  0  0  0  0  0  0  0  0  0
  -30.9590  -18.1550   20.7020 C   0  0  0  0  0  0  0  0  0  0  0  0
  -30.5610  -18.2790   19.3450 C   0  0  0  0  0  0  0  0  0  0  0  0
  -29.3430  -21.3880   22.1320 C   0  0  0  0  0  1  0  0  0  0  0  0
  -31.1740  -19.2700   23.0190 C   0  0  0  0  0  1  0  0  0  0  0  0
  -30.9500  -17.1020   18.1430 Cl  0  0  0  0  0  0  0  0  0  0  0  0
  -28.6800  -21.5710   19.0810 C   0  0  0  0  0  2  0  0  0  0  0  0
  -28.2770  -22.9070   19.7610 C   0  0  0  0  0  2  0  0  0  0  0  0
  -29.2410  -24.1410   19.8330 C   0  0  0  0  0  2  0  0  0  0  0  0
  -28.3220  -25.3710   19.6960 C   0  0  0  0  0  2  0  0  0  0  0  0
  -28.6020  -26.7370   20.0940 O   0  0  0  0  0  0  0  0  0  0  0  0
  -24.6670  -31.8470   23.2690 C   0  0  0  0  0  0  0  0  0  0  0  0
  -27.4530  -27.5340   20.0730 C   0  0  0  0  0  0  0  0  0  0  0  0
  -23.5230  -30.4550   21.5890 C   0  0  0  0  0  3  0  0  0  0  0  0
  -25.0290  -29.0250   20.1290 C   0  0  0  0  0  0  0  0  0  0  0  0
  -26.0530  -30.8770   21.4360 C   0  0  0  0  0  2  0  0  0  0  0  0
  -26.1780  -29.5320   20.7490 C   0  0  0  0  0  0  0  0  0  0  0  0
  -27.3910  -28.7910   20.7320 C   0  0  0  0  0  3  0  0  0  0  0  0
  -26.2690  -27.0950   19.4100 C   0  0  0  0  0  3  0  0  0  0  0  0
  -25.0700  -27.8020   19.4630 C   0  0  0  0  0  3  0  0  0  0  0  0
  -23.7650  -29.8430   20.1910 C   0  0  0  0  0  2  0  0  0  0  0  0
  -24.7660  -31.0750   22.1540 N   0  0  0  0  0  0  0  0  0  0  0  0
  -23.5710  -32.0680   23.8000 O   0  0  0  0  0  0  0  0  0  0  0  0
  -22.9070  -29.3730   22.5060 C   0  0  0  0  0  0  0  0  0  0  0  0
  -21.5950  -29.1290   22.3510 N   0  0  0  0  0  0  0  0  0  0  0  0
  -23.6040  -28.7610   23.3220 O   0  0  0  0  0  0  0  0  0  0  0  0
  -21.0850  -29.6950   21.6860 H   0  0  0  0  0  0  0  0  0  0  0  0
  -18.2770  -27.7450   22.7380 C   0  0  0  0  0  0  0  0  0  0  0  0
  -20.8070  -28.1400   23.0830 C   0  0  0  0  0  3  0  0  0  0  0  0
  -20.9940  -26.7150   22.5110 C   0  0  0  0  0  2  0  0  0  0  0  0
  -19.9510  -26.3530   21.4530 C   0  0  0  0  0  2  0  0  0  0  0  0
  -18.5470  -26.4090   22.0630 C   0  0  0  0  0  2  0  0  0  0  0  0
  -19.3400  -28.5660   23.2000 C   0  0  0  0  0  0  0  0  0  0  0  0
  -19.0410  -29.8170   23.7770 C   0  0  0  0  0  3  0  0  0  0  0  0
  -17.7110  -30.2490   23.9130 C   0  0  0  0  0  3  0  0  0  0  0  0
  -16.6610  -29.4230   23.4750 C   0  0  0  0  0  3  0  0  0  0  0  0
  -16.9420  -28.1740   22.8880 C   0  0  0  0  0  3  0  0  0  0  0  0
  -25.9220  -32.5110   23.9110 C   0  0  0  0  0  3  0  0  0  0  0  0
  -25.5690  -33.9000   24.2290 N   0  0  0  0  0  0  0  0  0  0  0  0
  -25.8680  -34.9560   23.4600 C   0  0  0  0  0  0  0  0  0  0  0  0
  -26.5440  -34.8640   22.4320 O   0  0  0  0  0  0  0  0  0  0  0  0
  -24.9650  -34.0430   25.0250 H   0  0  0  0  0  0  0  0  0  0  0  0
  -24.0760  -36.6820   23.0920 C   0  0  0  0  0  1  0  0  0  0  0  0
  -25.3330  -36.3310   23.9040 C   0  0  0  0  0  3  0  0  0  0  0  0
  -27.4400  -37.2960   24.7160 C   0  0  0  0  0  1  0  0  0  0  0  0
  -26.3300  -37.4170   23.7750 N   0  0  0  0  0  0  0  0  0  0  0  0
  -25.8940  -38.3250   23.9100 H   0  0  0  0  0  0  0  0  0  0  0  0
  -26.4320  -31.7540   25.1980 C   0  0  1  0  0  0  0  0  0  0  0  0
  -25.3250  -31.4850   26.2450 C   0  0  0  0  0  1  0  0  0  0  0  0
  -27.0590  -30.3920   24.8190 C   0  0  0  0  0  1  0  0  0  0  0  0
  -27.5450  -32.5810   25.8800 C   0  0  0  0  0  1  0  0  0  0  0  0
  -31.7650  -16.9030   21.1400 C   0  0  0  0  0  2  0  0  0  0  0  0
  -31.6270  -14.5460   20.2740 C   0  0  0  0  0  0  0  0  0  0  0  0
  -31.1600  -12.3410   19.2630 C   0  0  0  0  0  2  0  0  0  0  0  0
  -30.2440  -12.4880   18.0300 C   0  0  0  0  0  2  0  0  0  0  0  0
  -28.7630  -12.4650   18.4440 C   0  0  0  0  0  2  0  0  0  0  0  0
  -28.4580  -13.4330   19.6180 C   0  0  0  0  0  3  0  0  0  0  0  0
  -29.4920  -13.2740   20.7580 C   0  0  0  0  0  2  0  0  0  0  0  0
  -30.8430  -13.4360   20.1940 N   0  0  0  0  0  0  0  0  0  0  0  0
  -32.7330  -14.6080   19.7350 O   0  0  0  0  0  0  0  0  0  0  0  0
  -31.1140  -15.5950   20.9440 N   0  0  0  0  0  0  0  0  0  0  0  0
  -30.2370  -15.4570   21.4190 H   0  0  0  0  0  0  0  0  0  0  0  0
  -26.1200  -14.2330   20.3380 C   0  0  0  0  0  0  0  0  0  0  0  0
  -24.9890  -13.5520   20.6990 C   0  0  0  0  0  0  0  0  0  0  0  0
  -25.3270  -12.1660   20.6480 C   0  0  0  0  0  0  0  0  0  0  0  0
  -27.0850  -13.2660   20.0970 N   0  0  0  0  0  0  0  0  0  0  0  0
  -26.6090  -12.0150   20.3380 N   0  0  0  0  0  0  0  0  0  0  0  0
  -24.4890  -10.9700   20.8240 C   0  0  0  0  0  0  0  0  0  0  0  0
  -24.8230   -9.9620   21.7550 C   0  0  0  0  0  3  0  0  0  0  0  0
  -23.9940   -8.8300   21.9140 C   0  0  0  0  0  3  0  0  0  0  0  0
  -22.8150   -8.7000   21.1440 C   0  0  0  0  0  0  0  0  0  0  0  0
  -22.5010   -9.6940   20.2000 C   0  0  0  0  0  3  0  0  0  0  0  0
  -23.3290  -10.8160   20.0380 C   0  0  0  0  0  3  0  0  0  0  0  0
  -21.9620   -7.6240   21.2150 O   0  0  0  0  0  0  0  0  0  0  0  0
  -21.8030   -6.9090   22.3730 C   0  0  0  0  0  0  0  0  0  0  0  0
  -21.3770   -7.5190   23.5720 C   0  0  0  0  0  3  0  0  0  0  0  0
  -21.1600   -6.7360   24.7230 C   0  0  0  0  0  3  0  0  0  0  0  0
  -21.3560   -5.3440   24.6760 C   0  0  0  0  0  0  0  0  0  0  0  0
  -21.7770   -4.7330   23.4840 C   0  0  0  0  0  3  0  0  0  0  0  0
  -21.9960   -5.5120   22.3330 C   0  0  0  0  0  0  0  0  0  0  0  0
  -22.3830   -4.9150   21.1810 F   0  0  0  0  0  0  0  0  0  0  0  0
  -21.1390   -4.5910   25.7820 F   0  0  0  0  0  0  0  0  0  0  0  0
  -23.6420  -14.1470   20.9870 C   0  0  0  0  0  0  0  0  0  0  0  0
  -22.8650  -13.5150   21.8600 N   0  0  0  0  0  0  0  0  0  0  0  0
  -23.2910  -15.2110   20.4780 O   0  0  0  0  0  0  0  0  0  0  0  0
  -23.1640  -12.6550   22.2990 H   0  0  0  0  0  0  0  0  0  0  0  0
  -21.9620  -13.9010   22.0940 H   0  0  0  0  0  0  0  0  0  0  0  0
  -26.3950  -15.5850   20.1690 N   0  0  0  0  0  0  0  0  0  0  0  0
  -25.6630  -16.2830   20.2400 H   0  0  0  0  0  0  0  0  0  0  0  0
  -27.2610  -15.9500   19.7950 H   0  0  0  0  0  0  0  0  0  0  0  0
  1  6  2  0
  1  2  1  0
  2  3  2  0
  3  4  1  0
  3  7  1  0
  4  8  1  0
  5 55  1  0
  5  4  2  0
  6  5  1  0
  9  6  1  0
 10  2  1  0
 10 11  1  0
 11 12  1  0
 13 12  1  0
 13 14  1  0
 15 26  2  0
 16 14  1  0
 16 21  1  0
 17 25  1  0
 17 27  1  0
 18 24  1  0
 18 20  1  0
 19 25  1  0
 20 19  1  0
 21 20  2  0
 22 23  1  0
 22 16  2  0
 23 18  2  0
 24 17  1  0
 25 15  1  0
 27 29  2  0
 28 27  1  0
 30 28  1  0
 31 40  2  0
 31 36  1  0
 32 28  1  0
 32 36  1  0
 33 32  1  0
 34 35  1  0
 34 33  1  0
 35 31  1  0
 36 37  2  0
 37 38  1  0
 39 38  2  0
 40 39  1  0
 41 15  1  0
 41 42  1  0
 41 51  1  0
 42 45  1  0
 43 47  1  0
 43 42  1  0
 44 43  2  0
 47 46  1  0
 49 47  1  0
 49 50  1  0
 49 48  1  0
 51 54  1  1
 51 52  1  0
 53 51  1  0
 56 64  1  0
 57 62  1  0
 58 59  1  0
 58 57  1  0
 60 59  1  0
 60 69  1  0
 60 61  1  0
 62 56  1  0
 62 61  1  0
 63 56  2  0
 64 55  1  0
 64 65  1  0
 66 67  2  0
 67 86  1  0
 68 67  1  0
 68 71  1  0
 69 70  1  0
 69 66  1  0
 70 68  2  0
 71 72  1  0
 72 73  2  0
 74 77  1  0
 74 73  1  0
 75 74  2  0
 76 75  1  0
 76 71  2  0
 77 78  1  0
 78 79  1  0
 79 80  2  0
 81 80  1  0
 81 85  1  0
 82 81  2  0
 83 78  2  0
 83 82  1  0
 84 83  1  0
 86 87  1  0
 87 90  1  0
 87 89  1  0
 88 86  2  0
 91 92  1  0
 91 66  1  0
 93 91  1  0
M  ISO  4  13 101  14 101  56 100  64 100
M  END
>  <TORSDO>  (33) 
F 21

>  <SCORE>  (33) 
-12.686

>  <name>  (33) 
32

>  <ligand_id>  (33) 
32

>  <original_smiles>  (33) 
[H]c1c([H])c([H])c2c(c1[H])C([H])([H])C([H])([H])C([H])([H])C2([H])N([H])C(=O)C1([H])N(C(=O)C([H])(N([H])C(=O)C([H])(N([H])C([H])([H])[H])C([H])([H])[H])C(C([H])([H])[H])(C([H])([H])[H])C([H])([H])[H])C([H])([H])c2c([H])c(OC([H])([H])C([H])([H])C([H])([H])C([H])([H])c3c([H])c(Cl)c(C([H])([H])N([H])C(=O)N4C([H])([H])C([H])([H])C([H])([H])C([H])(n5nc(-c6c([H])c([H])c(Oc7c([H])c([H])c(F)c([H])c7F)c([H])c6[H])c(C(=O)N([H])[H])c5N([H])[H])C4([H])[H])c(C([H])([H])[H])c3C([H])([H])[H])c([H])c([H])c2C1([H])[H]

>  <smiles>  (33) 
[H]c1c([H])c([H])c2c(c1[H])C([H])([H])C([H])([H])C([H])([H])C2([H])N([H])C(=O)C1([H])N(C(=O)C([H])(N([H])C(=O)C([H])(N([H])C([H])([H])[H])C([H])([H])[H])C(C([H])([H])[H])(C([H])([H])[H])C([H])([H])[H])C([H])([H])c2c([H])c(OC([H])([H])C([H])([H])C([H])([H])C([H])([H])c3c([H])c(Cl)c(C([H])([H])N([H])C(=O)N4C([H])([H])C([H])([H])C([H])([H])C([H])(n5nc(-c6c([H])c([H])c(Oc7c([H])c([H])c(F)c([H])c7F)c([H])c6[H])c(C(=O)N([H])[H])c5N([H])[H])C4([H])[H])c(C([H])([H])[H])c3C([H])([H])[H])c([H])c([H])c2C1([H])[H]

$$$$
33:0:0
     RDKit          3D

 94102  0  0  1  0  0  0  0  0999 V2000
  -30.0920  -21.5650   20.1790 C   0  0  0  0  0  2  0  0  0  0  0  0
  -29.4150  -19.1530   19.4100 C   0  0  0  0  0  3  0  0  0  0  0  0
  -29.9170  -20.0120   20.4250 C   0  0  0  0  0  0  0  0  0  0  0  0
  -29.9430  -17.0770   20.6810 C   0  0  0  0  0  0  0  0  0  0  0  0
  -29.4180  -17.7300   19.5320 C   0  0  0  0  0  0  0  0  0  0  0  0
  -30.4150  -19.3590   21.5900 C   0  0  0  0  0  0  0  0  0  0  0  0
  -30.4220  -17.9300   21.7140 C   0  0  0  0  0  0  0  0  0  0  0  0
  -28.7300  -16.7920   18.2540 Cl  0  0  0  0  0  0  0  0  0  0  0  0
  -31.0440  -20.3210   22.8860 Cl  0  0  0  0  0  0  0  0  0  0  0  0
  -31.0100  -17.1980   23.1690 Cl  0  0  0  0  0  0  0  0  0  0  0  0
  -29.8070  -15.6880   20.8840 O   0  0  0  0  0  0  0  0  0  0  0  0
  -30.6660  -14.6950   20.3750 C   0  0  0  0  0  0  0  0  0  0  0  0
  -30.4000  -12.4890   19.2100 C   0  0  0  0  0  2  0  0  0  0  0  0
  -29.4500  -12.7180   18.0130 C   0  0  0  0  0  2  0  0  0  0  0  0
  -27.9760  -12.5720   18.4420 C   0  0  0  0  0  2  0  0  0  0  0  0
  -27.6440  -13.3790   19.7250 C   0  0  0  0  0  3  0  0  0  0  0  0
  -28.6970  -13.1380   20.8270 C   0  0  0  0  0  2  0  0  0  0  0  0
  -30.0170  -13.4420   20.2640 N   0  0  0  0  0  0  0  0  0  0  0  0
  -31.7980  -14.9190   19.9400 O   0  0  0  0  0  0  0  0  0  0  0  0
  -25.2500  -13.9880   20.4320 C   0  0  0  0  0  0  0  0  0  0  0  0
  -24.1800  -13.2200   20.8040 C   0  0  0  0  0  0  0  0  0  0  0  0
  -24.6390  -11.8660   20.7800 C   0  0  0  0  0  0  0  0  0  0  0  0
  -26.2910  -13.1040   20.2040 N   0  0  0  0  0  0  0  0  0  0  0  0
  -25.9290  -11.8230   20.4720 N   0  0  0  0  0  0  0  0  0  0  0  0
  -23.9080  -10.6070   20.9760 C   0  0  0  0  0  0  0  0  0  0  0  0
  -24.3300   -9.6480   21.9230 C   0  0  0  0  0  3  0  0  0  0  0  0
  -23.5990   -8.4540   22.1060 C   0  0  0  0  0  3  0  0  0  0  0  0
  -22.4340   -8.2100   21.3410 C   0  0  0  0  0  0  0  0  0  0  0  0
  -22.0320   -9.1580   20.3830 C   0  0  0  0  0  3  0  0  0  0  0  0
  -22.7630  -10.3430   20.1990 C   0  0  0  0  0  3  0  0  0  0  0  0
  -21.6770   -7.0670   21.4310 O   0  0  0  0  0  0  0  0  0  0  0  0
  -21.5990   -6.3450   22.5960 C   0  0  0  0  0  0  0  0  0  0  0  0
  -21.1460   -6.9240   23.8010 C   0  0  0  0  0  3  0  0  0  0  0  0
  -21.0140   -6.1290   24.9580 C   0  0  0  0  0  3  0  0  0  0  0  0
  -21.3250   -4.7570   24.9090 C   0  0  0  0  0  0  0  0  0  0  0  0
  -21.7720   -4.1780   23.7080 C   0  0  0  0  0  3  0  0  0  0  0  0
  -21.9050   -4.9700   22.5540 C   0  0  0  0  0  0  0  0  0  0  0  0
  -22.3150   -4.4020   21.3940 F   0  0  0  0  0  0  0  0  0  0  0  0
  -21.1920   -3.9920   26.0170 F   0  0  0  0  0  0  0  0  0  0  0  0
  -22.7840  -13.7020   21.0730 C   0  0  0  0  0  0  0  0  0  0  0  0
  -22.0550  -13.0150   21.9460 N   0  0  0  0  0  0  0  0  0  0  0  0
  -22.3470  -14.7240   20.5440 O   0  0  0  0  0  0  0  0  0  0  0  0
  -22.4220  -12.1880   22.3950 H   0  0  0  0  0  0  0  0  0  0  0  0
  -21.1190  -13.3200   22.1710 H   0  0  0  0  0  0  0  0  0  0  0  0
  -25.4200  -15.3570   20.2510 N   0  0  0  0  0  0  0  0  0  0  0  0
  -24.6570  -16.0160   20.3550 H   0  0  0  0  0  0  0  0  0  0  0  0
  -26.2760  -15.7870   19.9240 H   0  0  0  0  0  0  0  0  0  0  0  0
  -28.9740  -22.5540   20.4570 N   0  0  0  0  0  4  0  0  0  0  0  0
  -28.5620  -22.3290   21.3490 H   0  0  0  0  0  0  0  0  0  0  0  0
  -28.2650  -22.3770   19.7610 H   0  0  0  0  0  0  0  0  0  0  0  0
  -30.0560  -24.4530   21.7300 C   0  0  0  0  0  1  0  0  0  0  0  0
  -29.3270  -24.0480   20.4320 C   0  0  0  0  0  3  0  0  0  0  0  0
  -28.1120  -25.0500   20.1700 C   0  0  0  0  0  2  0  0  0  0  0  0
  -28.3430  -26.5170   20.2260 O   0  0  0  0  0  0  0  0  0  0  0  0
  -24.6300  -31.9270   23.2460 C   0  0  0  0  0  0  0  0  0  0  0  0
  -27.2200  -27.3620   20.1820 C   0  0  0  0  0  0  0  0  0  0  0  0
  -23.4150  -30.5260   21.6190 C   0  0  0  0  0  3  0  0  0  0  0  0
  -24.8540  -28.9740   20.1870 C   0  0  0  0  0  0  0  0  0  0  0  0
  -25.9530  -30.8440   21.4150 C   0  0  0  0  0  2  0  0  0  0  0  0
  -26.0280  -29.4640   20.7720 C   0  0  0  0  0  0  0  0  0  0  0  0
  -27.2140  -28.6710   20.7570 C   0  0  0  0  0  3  0  0  0  0  0  0
  -26.0180  -26.9260   19.5740 C   0  0  0  0  0  3  0  0  0  0  0  0
  -24.8510  -27.7110   19.5790 C   0  0  0  0  0  3  0  0  0  0  0  0
  -23.6180  -29.8470   20.2390 C   0  0  0  0  0  2  0  0  0  0  0  0
  -24.6850  -31.1150   22.1500 N   0  0  0  0  0  0  0  0  0  0  0  0
  -23.5510  -32.2070   23.7870 O   0  0  0  0  0  0  0  0  0  0  0  0
  -22.7570  -29.5120   22.5840 C   0  0  0  0  0  0  0  0  0  0  0  0
  -21.4310  -29.3340   22.4630 N   0  0  0  0  0  0  0  0  0  0  0  0
  -23.4400  -28.8880   23.4020 O   0  0  0  0  0  0  0  0  0  0  0  0
  -20.9390  -29.8870   21.7760 H   0  0  0  0  0  0  0  0  0  0  0  0
  -18.0550  -28.1370   22.9770 C   0  0  0  0  0  0  0  0  0  0  0  0
  -20.6140  -28.4000   23.2420 C   0  0  0  0  0  3  0  0  0  0  0  0
  -20.7160  -26.9650   22.6740 C   0  0  0  0  0  2  0  0  0  0  0  0
  -19.6130  -26.6350   21.6640 C   0  0  0  0  0  2  0  0  0  0  0  0
  -18.2320  -26.7840   22.3100 C   0  0  0  0  0  2  0  0  0  0  0  0
  -19.1750  -28.9030   23.4000 C   0  0  0  0  0  0  0  0  0  0  0  0
  -18.9560  -30.1690   23.9840 C   0  0  0  0  0  3  0  0  0  0  0  0
  -17.6510  -30.6710   24.1490 C   0  0  0  0  0  3  0  0  0  0  0  0
  -16.5460  -29.9030   23.7420 C   0  0  0  0  0  3  0  0  0  0  0  0
  -16.7500  -28.6370   23.1620 C   0  0  0  0  0  3  0  0  0  0  0  0
  -25.9180  -32.5590   23.8580 C   0  0  0  0  0  3  0  0  0  0  0  0
  -25.6100  -33.9550   24.1970 N   0  0  0  0  0  0  0  0  0  0  0  0
  -25.9250  -35.0120   23.4370 C   0  0  0  0  0  0  0  0  0  0  0  0
  -26.5770  -34.9140   22.3940 O   0  0  0  0  0  0  0  0  0  0  0  0
  -25.0280  -34.1050   25.0090 H   0  0  0  0  0  0  0  0  0  0  0  0
  -24.1820  -36.7990   23.1210 C   0  0  0  0  0  1  0  0  0  0  0  0
  -25.4420  -36.3980   23.9070 C   0  0  0  0  0  3  0  0  0  0  0  0
  -27.5880  -37.2900   24.6950 C   0  0  0  0  0  1  0  0  0  0  0  0
  -26.4670  -37.4550   23.7750 N   0  0  0  0  0  0  0  0  0  0  0  0
  -26.0600  -38.3730   23.9330 H   0  0  0  0  0  0  0  0  0  0  0  0
  -26.4470  -31.7820   25.1260 C   0  0  1  0  0  0  0  0  0  0  0  0
  -25.3640  -31.5390   26.2030 C   0  0  0  0  0  1  0  0  0  0  0  0
  -27.0280  -30.4080   24.7220 C   0  0  0  0  0  1  0  0  0  0  0  0
  -27.6030  -32.5760   25.7810 C   0  0  0  0  0  1  0  0  0  0  0  0
  1  3  1  0
  1 48  1  0
  2  5  2  0
  2  3  1  0
  3  6  2  0
  4 11  1  0
  4  7  2  0
  5  4  1  0
  6  7  1  0
  6  9  1  0
  7 10  1  0
  8  5  1  0
 12 11  1  0
 13 18  1  0
 14 15  1  0
 14 13  1  0
 16 15  1  0
 16 23  1  0
 16 17  1  0
 18 12  1  0
 18 17  1  0
 19 12  2  0
 20 21  2  0
 21 40  1  0
 22 21  1  0
 22 25  1  0
 23 20  1  0
 23 24  1  0
 24 22  2  0
 25 26  1  0
 26 27  2  0
 28 31  1  0
 28 27  1  0
 29 28  2  0
 30 29  1  0
 30 25  2  0
 31 32  1  0
 32 33  1  0
 33 34  2  0
 35 34  1  0
 35 39  1  0
 36 35  2  0
 37 32  2  0
 37 36  1  0
 38 37  1  0
 40 41  1  0
 41 44  1  0
 41 43  1  0
 42 40  2  0
 45 46  1  0
 45 20  1  0
 47 45  1  0
 48 49  1  0
 50 48  1  0
 52 48  1  0
 52 51  1  0
 53 54  1  0
 53 52  1  0
 55 66  2  0
 56 54  1  0
 56 61  1  0
 57 65  1  0
 57 67  1  0
 58 64  1  0
 58 60  1  0
 59 65  1  0
 60 59  1  0
 61 60  2  0
 62 63  1  0
 62 56  2  0
 63 58  2  0
 64 57  1  0
 65 55  1  0
 67 69  2  0
 68 67  1  0
 70 68  1  0
 71 80  2  0
 71 76  1  0
 72 68  1  0
 72 76  1  0
 73 72  1  0
 74 75  1  0
 74 73  1  0
 75 71  1  0
 76 77  2  0
 77 78  1  0
 79 78  2  0
 80 79  1  0
 81 55  1  0
 81 82  1  0
 81 91  1  0
 82 85  1  0
 83 87  1  0
 83 82  1  0
 84 83  2  0
 87 86  1  0
 89 87  1  0
 89 90  1  0
 89 88  1  0
 91 94  1  1
 91 92  1  0
 93 91  1  0
M  ISO  4  11 100  12 100  53 101  54 101
M  END
>  <TORSDO>  (34) 
F 21

>  <SCORE>  (34) 
-13.120

>  <name>  (34) 
33

>  <ligand_id>  (34) 
33

>  <original_smiles>  (34) 
[H]c1c([H])c([H])c2c(c1[H])C([H])([H])C([H])([H])C([H])([H])C2([H])N([H])C(=O)C1([H])N(C(=O)C([H])(N([H])C(=O)C([H])(N([H])C([H])([H])[H])C([H])([H])[H])C(C([H])([H])[H])(C([H])([H])[H])C([H])([H])[H])C([H])([H])c2c([H])c(OC([H])([H])C([H])(C([H])([H])[H])[N+]([H])([H])C([H])([H])c3c([H])c(Cl)c(OC(=O)N4C([H])([H])C([H])([H])C([H])([H])C([H])(n5nc(-c6c([H])c([H])c(Oc7c([H])c([H])c(F)c([H])c7F)c([H])c6[H])c(C(=O)N([H])[H])c5N([H])[H])C4([H])[H])c(Cl)c3Cl)c([H])c([H])c2C1([H])[H]

>  <smiles>  (34) 
[H]c1c([H])c([H])c2c(c1[H])C([H])([H])C([H])([H])C([H])([H])C2([H])N([H])C(=O)C1([H])N(C(=O)C([H])(N([H])C(=O)C([H])(N([H])C([H])([H])[H])C([H])([H])[H])C(C([H])([H])[H])(C([H])([H])[H])C([H])([H])[H])C([H])([H])c2c([H])c(OC([H])([H])C([H])(C([H])([H])[H])[N+]([H])([H])C([H])([H])c3c([H])c(Cl)c(OC(=O)N4C([H])([H])C([H])([H])C([H])([H])C([H])(n5nc(-c6c([H])c([H])c(Oc7c([H])c([H])c(F)c([H])c7F)c([H])c6[H])c(C(=O)N([H])[H])c5N([H])[H])C4([H])[H])c(Cl)c3Cl)c([H])c([H])c2C1([H])[H]

$$$$
34:0:0
     RDKit          3D

 97105  0  0  1  0  0  0  0  0999 V2000
  -29.0880  -18.1240   20.4330 C   0  0  0  0  0  3  0  0  0  0  0  0
  -30.4510  -18.2280   20.7610 C   0  0  0  0  0  0  0  0  0  0  0  0
  -30.1040  -20.5890   21.3660 C   0  0  0  0  0  0  0  0  0  0  0  0
  -28.7390  -20.4890   20.9640 C   0  0  0  0  0  0  0  0  0  0  0  0
  -28.2410  -19.2370   20.5260 C   0  0  0  0  0  0  0  0  0  0  0  0
  -30.9600  -19.4630   21.2380 C   0  0  0  0  0  0  0  0  0  0  0  0
  -30.6970  -21.8950   21.8980 C   0  0  0  0  0  1  0  0  0  0  0  0
  -26.5980  -19.0320   20.0270 Cl  0  0  0  0  0  0  0  0  0  0  0  0
  -32.6490  -19.6240   21.6080 Cl  0  0  0  0  0  0  0  0  0  0  0  0
  -31.7770  -17.1100   18.9800 C   0  0  0  0  0  1  0  0  0  0  0  0
  -31.3590  -17.0400   20.4670 C   0  0  0  0  0  3  0  0  0  0  0  0
  -31.4170  -14.5940   20.7950 C   0  0  0  0  0  0  0  0  0  0  0  0
  -31.1260  -12.2340   20.2240 C   0  0  0  0  0  2  0  0  0  0  0  0
  -30.3570  -12.1410   18.8940 C   0  0  0  0  0  2  0  0  0  0  0  0
  -28.8380  -12.1250   19.1540 C   0  0  0  0  0  2  0  0  0  0  0  0
  -28.3730  -13.2570   20.1090 C   0  0  0  0  0  3  0  0  0  0  0  0
  -29.2830  -13.3570   21.3540 C   0  0  0  0  0  2  0  0  0  0  0  0
  -30.6780  -13.4600   20.8970 N   0  0  0  0  0  0  0  0  0  0  0  0
  -32.6140  -14.5880   20.5140 O   0  0  0  0  0  0  0  0  0  0  0  0
  -30.7400  -15.7490   20.8020 N   0  0  0  0  0  0  0  0  0  0  0  0
  -29.7550  -15.7210   21.0080 H   0  0  0  0  0  0  0  0  0  0  0  0
  -25.9780  -14.0580   20.6030 C   0  0  0  0  0  0  0  0  0  0  0  0
  -24.8260  -13.3780   20.8820 C   0  0  0  0  0  0  0  0  0  0  0  0
  -25.1770  -11.9940   20.9030 C   0  0  0  0  0  0  0  0  0  0  0  0
  -26.9670  -13.0950   20.4740 N   0  0  0  0  0  0  0  0  0  0  0  0
  -26.4820  -11.8480   20.7090 N   0  0  0  0  0  0  0  0  0  0  0  0
  -24.3370  -10.7970   21.0380 C   0  0  0  0  0  0  0  0  0  0  0  0
  -24.6510   -9.7760   21.9610 C   0  0  0  0  0  3  0  0  0  0  0  0
  -23.8170   -8.6430   22.0880 C   0  0  0  0  0  3  0  0  0  0  0  0
  -22.6550   -8.5250   21.2900 C   0  0  0  0  0  0  0  0  0  0  0  0
  -22.3600   -9.5330   20.3550 C   0  0  0  0  0  3  0  0  0  0  0  0
  -23.1930  -10.6560   20.2270 C   0  0  0  0  0  3  0  0  0  0  0  0
  -21.8020   -7.4480   21.3260 O   0  0  0  0  0  0  0  0  0  0  0  0
  -21.7040   -6.6430   22.4320 C   0  0  0  0  0  0  0  0  0  0  0  0
  -21.3520   -7.1580   23.6990 C   0  0  0  0  0  3  0  0  0  0  0  0
  -21.1940   -6.2850   24.7940 C   0  0  0  0  0  3  0  0  0  0  0  0
  -21.3790   -4.8990   24.6230 C   0  0  0  0  0  0  0  0  0  0  0  0
  -21.7270   -4.3850   23.3610 C   0  0  0  0  0  3  0  0  0  0  0  0
  -21.8850   -5.2550   22.2680 C   0  0  0  0  0  0  0  0  0  0  0  0
  -22.1980   -4.7520   21.0490 F   0  0  0  0  0  0  0  0  0  0  0  0
  -21.2210   -4.0600   25.6720 F   0  0  0  0  0  0  0  0  0  0  0  0
  -23.4520  -13.9690   21.0270 C   0  0  0  0  0  0  0  0  0  0  0  0
  -22.6040  -13.3510   21.8420 N   0  0  0  0  0  0  0  0  0  0  0  0
  -23.1410  -15.0130   20.4550 O   0  0  0  0  0  0  0  0  0  0  0  0
  -22.8670  -12.5060   22.3270 H   0  0  0  0  0  0  0  0  0  0  0  0
  -21.6770  -13.7290   21.9810 H   0  0  0  0  0  0  0  0  0  0  0  0
  -26.2680  -15.4080   20.4260 N   0  0  0  0  0  0  0  0  0  0  0  0
  -25.5520  -16.1240   20.4730 H   0  0  0  0  0  0  0  0  0  0  0  0
  -27.1680  -15.7690   20.1450 H   0  0  0  0  0  0  0  0  0  0  0  0
  -27.8030  -21.7010   20.9370 C   0  0  0  0  0  2  0  0  0  0  0  0
  -28.0240  -22.5150   19.7220 N   0  0  0  0  0  4  0  0  0  0  0  0
  -27.1390  -22.5700   19.2420 H   0  0  0  0  0  0  0  0  0  0  0  0
  -28.6620  -22.0170   19.1220 H   0  0  0  0  0  0  0  0  0  0  0  0
  -28.5320  -23.8880   19.9460 C   0  0  0  0  0  2  0  0  0  0  0  0
  -28.2860  -24.7790   18.7110 C   0  0  0  0  0  2  0  0  0  0  0  0
  -28.7430  -26.2400   18.8860 C   0  0  0  0  0  2  0  0  0  0  0  0
  -28.2420  -27.0570   17.8250 O   0  0  0  0  0  0  0  0  0  0  0  0
  -24.4690  -30.9000   22.4450 C   0  0  0  0  0  0  0  0  0  0  0  0
  -27.0380  -27.6430   18.1150 C   0  0  0  0  0  0  0  0  0  0  0  0
  -23.1740  -29.7730   20.6630 C   0  0  0  0  0  3  0  0  0  0  0  0
  -24.5450  -28.7890   18.7530 C   0  0  0  0  0  0  0  0  0  0  0  0
  -25.5990  -30.4760   20.2680 C   0  0  0  0  0  2  0  0  0  0  0  0
  -25.7180  -29.3070   19.3160 C   0  0  0  0  0  0  0  0  0  0  0  0
  -26.9700  -28.7360   19.0030 C   0  0  0  0  0  3  0  0  0  0  0  0
  -25.8570  -27.1420   17.5340 C   0  0  0  0  0  3  0  0  0  0  0  0
  -24.6080  -27.7040   17.8600 C   0  0  0  0  0  3  0  0  0  0  0  0
  -23.2470  -29.4540   19.1470 C   0  0  0  0  0  2  0  0  0  0  0  0
  -24.4380  -30.3870   21.1840 N   0  0  0  0  0  0  0  0  0  0  0  0
  -23.4570  -30.9090   23.1590 O   0  0  0  0  0  0  0  0  0  0  0  0
  -22.7580  -28.4900   21.4180 C   0  0  0  0  0  0  0  0  0  0  0  0
  -21.4570  -28.1610   21.3690 N   0  0  0  0  0  0  0  0  0  0  0  0
  -23.5990  -27.8020   22.0040 O   0  0  0  0  0  0  0  0  0  0  0  0
  -20.8290  -28.7830   20.8760 H   0  0  0  0  0  0  0  0  0  0  0  0
  -18.3380  -26.3970   21.7920 C   0  0  0  0  0  0  0  0  0  0  0  0
  -20.8500  -26.9770   21.9750 C   0  0  0  0  0  3  0  0  0  0  0  0
  -21.0990  -25.7170   21.1130 C   0  0  0  0  0  2  0  0  0  0  0  0
  -19.9740  -25.4370   20.1150 C   0  0  0  0  0  2  0  0  0  0  0  0
  -18.6430  -25.2460   20.8460 C   0  0  0  0  0  2  0  0  0  0  0  0
  -19.3730  -27.2190   22.3100 C   0  0  0  0  0  0  0  0  0  0  0  0
  -19.0310  -28.2960   23.1560 C   0  0  0  0  0  3  0  0  0  0  0  0
  -17.6870  -28.5560   23.4860 C   0  0  0  0  0  3  0  0  0  0  0  0
  -16.6690  -27.7290   22.9820 C   0  0  0  0  0  3  0  0  0  0  0  0
  -16.9950  -26.6490   22.1410 C   0  0  0  0  0  3  0  0  0  0  0  0
  -25.7690  -31.5230   23.0420 C   0  0  0  0  0  3  0  0  0  0  0  0
  -25.3890  -32.7620   23.7330 N   0  0  0  0  0  0  0  0  0  0  0  0
  -25.5940  -33.9950   23.2510 C   0  0  0  0  0  0  0  0  0  0  0  0
  -26.1920  -34.2100   22.1930 O   0  0  0  0  0  0  0  0  0  0  0  0
  -24.8380  -32.6630   24.5730 H   0  0  0  0  0  0  0  0  0  0  0  0
  -23.7350  -35.6790   23.4390 C   0  0  0  0  0  1  0  0  0  0  0  0
  -25.0420  -35.1760   24.0720 C   0  0  0  0  0  3  0  0  0  0  0  0
  -27.1590  -35.9770   25.0230 C   0  0  0  0  0  1  0  0  0  0  0  0
  -25.9950  -36.2990   24.2010 N   0  0  0  0  0  0  0  0  0  0  0  0
  -25.5400  -37.1170   24.5990 H   0  0  0  0  0  0  0  0  0  0  0  0
  -26.5360  -30.5460   24.0180 C   0  0  1  0  0  0  0  0  0  0  0  0
  -25.6400  -29.9440   25.1230 C   0  0  0  0  0  1  0  0  0  0  0  0
  -27.1670  -29.3740   23.2300 C   0  0  0  0  0  1  0  0  0  0  0  0
  -27.7040  -31.2990   24.7010 C   0  0  0  0  0  1  0  0  0  0  0  0
  1  5  2  0
  1  2  1  0
  2  6  2  0
  3  7  1  0
  4  3  2  0
  5  4  1  0
  6  3  1  0
  6  9  1  0
  8  5  1  0
 11 10  1  0
 11  2  1  0
 11 20  1  0
 12 20  1  0
 12 18  1  0
 13 18  1  0
 14 15  1  0
 14 13  1  0
 16 15  1  0
 16 25  1  0
 16 17  1  0
 18 17  1  0
 19 12  2  0
 20 21  1  0
 22 23  2  0
 23 24  1  0
 23 42  1  0
 24 27  1  0
 25 22  1  0
 25 26  1  0
 26 24  2  0
 27 28  1  0
 28 29  2  0
 30 33  1  0
 30 29  1  0
 31 30  2  0
 32 31  1  0
 32 27  2  0
 33 34  1  0
 34 35  1  0
 35 36  2  0
 37 36  1  0
 37 41  1  0
 38 37  2  0
 39 34  2  0
 39 38  1  0
 40 39  1  0
 42 43  1  0
 43 46  1  0
 43 45  1  0
 44 42  2  0
 47 48  1  0
 47 22  1  0
 49 47  1  0
 50  4  1  0
 51 54  1  0
 51 50  1  0
 52 51  1  0
 53 51  1  0
 55 56  1  0
 55 54  1  0
 57 59  1  0
 57 56  1  0
 58 69  2  0
 59 64  1  0
 60 68  1  0
 60 70  1  0
 61 67  1  0
 61 63  1  0
 62 68  1  0
 63 62  1  0
 64 63  2  0
 65 66  1  0
 65 59  2  0
 66 61  2  0
 67 60  1  0
 68 58  1  0
 70 72  2  0
 71 70  1  0
 73 71  1  0
 74 83  2  0
 74 79  1  0
 75 71  1  0
 75 79  1  0
 76 75  1  0
 77 78  1  0
 77 76  1  0
 78 74  1  0
 79 80  2  0
 80 81  1  0
 82 81  2  0
 83 82  1  0
 84 58  1  0
 84 85  1  0
 84 94  1  0
 85 88  1  0
 86 85  1  0
 86 90  1  0
 87 86  2  0
 90 89  1  0
 90 92  1  0
 92 93  1  0
 92 91  1  0
 94 97  1  1
 94 95  1  0
 96 94  1  0
M  ISO  4  12 100  20 100  56 101  57 101
M  END
>  <TORSDO>  (35) 
F 22

>  <SCORE>  (35) 
-9.246

>  <name>  (35) 
34

>  <ligand_id>  (35) 
34

>  <original_smiles>  (35) 
[H]c1c([H])c([H])c2c(c1[H])C([H])([H])C([H])([H])C([H])([H])C2([H])N([H])C(=O)C1([H])N(C(=O)C([H])(N([H])C(=O)C([H])(N([H])C([H])([H])[H])C([H])([H])[H])C(C([H])([H])[H])(C([H])([H])[H])C([H])([H])[H])C([H])([H])c2c([H])c(OC([H])([H])C([H])([H])C([H])([H])[N+]([H])([H])C([H])([H])c3c(Cl)c([H])c(C([H])(N([H])C(=O)N4C([H])([H])C([H])([H])C([H])([H])C([H])(n5nc(-c6c([H])c([H])c(Oc7c([H])c([H])c(F)c([H])c7F)c([H])c6[H])c(C(=O)N([H])[H])c5N([H])[H])C4([H])[H])C([H])([H])[H])c(Cl)c3C([H])([H])[H])c([H])c([H])c2C1([H])[H]

>  <smiles>  (35) 
[H]c1c([H])c([H])c2c(c1[H])C([H])([H])C([H])([H])C([H])([H])C2([H])N([H])C(=O)C1([H])N(C(=O)C([H])(N([H])C(=O)C([H])(N([H])C([H])([H])[H])C([H])([H])[H])C(C([H])([H])[H])(C([H])([H])[H])C([H])([H])[H])C([H])([H])c2c([H])c(OC([H])([H])C([H])([H])C([H])([H])[N+]([H])([H])C([H])([H])c3c(Cl)c([H])c(C([H])(N([H])C(=O)N4C([H])([H])C([H])([H])C([H])([H])C([H])(n5nc(-c6c([H])c([H])c(Oc7c([H])c([H])c(F)c([H])c7F)c([H])c6[H])c(C(=O)N([H])[H])c5N([H])[H])C4([H])[H])C([H])([H])[H])c(Cl)c3C([H])([H])[H])c([H])c([H])c2C1([H])[H]

$$$$
35:0:0
     RDKit          3D

 94102  0  0  1  0  0  0  0  0999 V2000
  -31.2370  -21.3750   20.0580 C   0  0  0  0  0  2  0  0  0  0  0  0
  -30.4020  -19.0520   19.4120 C   0  0  0  0  0  3  0  0  0  0  0  0
  -31.3860  -17.8930   21.7600 C   0  0  0  0  0  3  0  0  0  0  0  0
  -31.0490  -19.8800   20.3590 C   0  0  0  0  0  0  0  0  0  0  0  0
  -30.6960  -17.0700   20.8370 C   0  0  0  0  0  0  0  0  0  0  0  0
  -31.5410  -19.2790   21.5440 C   0  0  0  0  0  0  0  0  0  0  0  0
  -30.1940  -17.6750   19.6520 C   0  0  0  0  0  0  0  0  0  0  0  0
  -32.3150  -20.2150   22.7740 Cl  0  0  0  0  0  0  0  0  0  0  0  0
  -29.2300  -16.8050   18.5080 Cl  0  0  0  0  0  0  0  0  0  0  0  0
  -28.8940  -15.7230   21.8200 C   0  0  0  0  0  1  0  0  0  0  0  0
  -30.3420  -15.6340   21.2860 C   0  0  0  0  0  3  0  0  0  0  0  0
  -30.7800  -14.5150   20.2600 C   0  0  0  0  0  0  0  0  0  0  0  0
  -30.4190  -12.4610   18.9040 C   0  0  0  0  0  2  0  0  0  0  0  0
  -29.4040  -12.7450   17.7710 C   0  0  0  0  0  2  0  0  0  0  0  0
  -27.9520  -12.5490   18.2630 C   0  0  0  0  0  2  0  0  0  0  0  0
  -27.6960  -13.2840   19.6020 C   0  0  0  0  0  3  0  0  0  0  0  0
  -28.8100  -12.9220   20.6110 C   0  0  0  0  0  2  0  0  0  0  0  0
  -30.0930  -13.3490   20.0360 N   0  0  0  0  0  0  0  0  0  0  0  0
  -31.8260  -14.7340   19.6350 O   0  0  0  0  0  0  0  0  0  0  0  0
  -25.3360  -13.8760   20.4470 C   0  0  0  0  0  0  0  0  0  0  0  0
  -24.2930  -13.0920   20.8670 C   0  0  0  0  0  0  0  0  0  0  0  0
  -24.7550  -11.7460   20.7720 C   0  0  0  0  0  0  0  0  0  0  0  0
  -26.3680  -13.0050   20.1390 N   0  0  0  0  0  0  0  0  0  0  0  0
  -26.0250  -11.7150   20.3900 N   0  0  0  0  0  0  0  0  0  0  0  0
  -24.0430  -10.4770   20.9670 C   0  0  0  0  0  0  0  0  0  0  0  0
  -24.4950   -9.5150   21.8940 C   0  0  0  0  0  3  0  0  0  0  0  0
  -23.7870   -8.3090   22.0770 C   0  0  0  0  0  3  0  0  0  0  0  0
  -22.6110   -8.0580   21.3300 C   0  0  0  0  0  0  0  0  0  0  0  0
  -22.1790   -9.0100   20.3910 C   0  0  0  0  0  3  0  0  0  0  0  0
  -22.8870  -10.2090   20.2070 C   0  0  0  0  0  3  0  0  0  0  0  0
  -21.8690   -6.9040   21.4190 O   0  0  0  0  0  0  0  0  0  0  0  0
  -21.7920   -6.1900   22.5860 C   0  0  0  0  0  0  0  0  0  0  0  0
  -21.3100   -6.7670   23.7820 C   0  0  0  0  0  3  0  0  0  0  0  0
  -21.1850   -5.9780   24.9420 C   0  0  0  0  0  3  0  0  0  0  0  0
  -21.5280   -4.6130   24.9090 C   0  0  0  0  0  0  0  0  0  0  0  0
  -22.0000   -4.0360   23.7160 C   0  0  0  0  0  3  0  0  0  0  0  0
  -22.1300   -4.8230   22.5580 C   0  0  0  0  0  0  0  0  0  0  0  0
  -22.5670   -4.2590   21.4070 F   0  0  0  0  0  0  0  0  0  0  0  0
  -21.4030   -3.8540   26.0210 F   0  0  0  0  0  0  0  0  0  0  0  0
  -22.9140  -13.5610   21.2300 C   0  0  0  0  0  0  0  0  0  0  0  0
  -22.2330  -12.8420   22.1160 N   0  0  0  0  0  0  0  0  0  0  0  0
  -22.4530  -14.6010   20.7680 O   0  0  0  0  0  0  0  0  0  0  0  0
  -22.6210  -12.0050   22.5240 H   0  0  0  0  0  0  0  0  0  0  0  0
  -21.3120  -13.1450   22.4030 H   0  0  0  0  0  0  0  0  0  0  0  0
  -25.4660  -15.2500   20.2800 N   0  0  0  0  0  0  0  0  0  0  0  0
  -24.6630  -15.8600   20.3860 H   0  0  0  0  0  0  0  0  0  0  0  0
  -26.2400  -15.7050   19.8160 H   0  0  0  0  0  0  0  0  0  0  0  0
  -30.0060  -22.2010   20.1920 N   0  0  0  0  0  4  0  0  0  0  0  0
  -29.6890  -22.1700   21.1470 H   0  0  0  0  0  0  0  0  0  0  0  0
  -29.2970  -21.7750   19.6180 H   0  0  0  0  0  0  0  0  0  0  0  0
  -30.1800  -23.6270   19.7820 C   0  0  0  0  0  2  0  0  0  0  0  0
  -28.8560  -24.4060   19.5090 C   0  0  0  0  0  2  0  0  0  0  0  0
  -28.3990  -25.3790   20.6310 C   0  0  0  0  0  2  0  0  0  0  0  0
  -28.4520  -26.7550   20.2230 O   0  0  0  0  0  0  0  0  0  0  0  0
  -24.5820  -31.9000   23.2570 C   0  0  0  0  0  0  0  0  0  0  0  0
  -27.2660  -27.4590   20.2170 C   0  0  0  0  0  0  0  0  0  0  0  0
  -23.3880  -30.4880   21.6120 C   0  0  0  0  0  3  0  0  0  0  0  0
  -24.8580  -28.9480   20.2030 C   0  0  0  0  0  0  0  0  0  0  0  0
  -25.9120  -30.8620   21.4210 C   0  0  0  0  0  2  0  0  0  0  0  0
  -26.0090  -29.4880   20.7890 C   0  0  0  0  0  0  0  0  0  0  0  0
  -27.2170  -28.7530   20.7840 C   0  0  0  0  0  3  0  0  0  0  0  0
  -26.0960  -26.9300   19.6290 C   0  0  0  0  0  3  0  0  0  0  0  0
  -24.8970  -27.6710   19.6140 C   0  0  0  0  0  3  0  0  0  0  0  0
  -23.6070  -29.7990   20.2370 C   0  0  0  0  0  2  0  0  0  0  0  0
  -24.6450  -31.0980   22.1560 N   0  0  0  0  0  0  0  0  0  0  0  0
  -23.4970  -32.1700   23.7910 O   0  0  0  0  0  0  0  0  0  0  0  0
  -22.7350  -29.4700   22.5750 C   0  0  0  0  0  0  0  0  0  0  0  0
  -21.4110  -29.2900   22.4420 N   0  0  0  0  0  0  0  0  0  0  0  0
  -23.4160  -28.8430   23.3890 O   0  0  0  0  0  0  0  0  0  0  0  0
  -20.9260  -29.8460   21.7510 H   0  0  0  0  0  0  0  0  0  0  0  0
  -18.0260  -28.1320   22.9470 C   0  0  0  0  0  0  0  0  0  0  0  0
  -20.5880  -28.3560   23.2080 C   0  0  0  0  0  3  0  0  0  0  0  0
  -20.6710  -26.9300   22.6180 C   0  0  0  0  0  2  0  0  0  0  0  0
  -19.5590  -26.6310   21.6060 C   0  0  0  0  0  2  0  0  0  0  0  0
  -18.1810  -26.7870   22.2590 C   0  0  0  0  0  2  0  0  0  0  0  0
  -19.1560  -28.8770   23.3770 C   0  0  0  0  0  0  0  0  0  0  0  0
  -18.9560  -30.1390   23.9770 C   0  0  0  0  0  3  0  0  0  0  0  0
  -17.6590  -30.6570   24.1510 C   0  0  0  0  0  3  0  0  0  0  0  0
  -16.5430  -29.9080   23.7390 C   0  0  0  0  0  3  0  0  0  0  0  0
  -16.7270  -28.6470   23.1440 C   0  0  0  0  0  3  0  0  0  0  0  0
  -25.8620  -32.5340   23.8850 C   0  0  0  0  0  3  0  0  0  0  0  0
  -25.5520  -33.9330   24.2080 N   0  0  0  0  0  0  0  0  0  0  0  0
  -25.8980  -34.9810   23.4490 C   0  0  0  0  0  0  0  0  0  0  0  0
  -26.5810  -34.8730   22.4280 O   0  0  0  0  0  0  0  0  0  0  0  0
  -24.9490  -34.0920   25.0020 H   0  0  0  0  0  0  0  0  0  0  0  0
  -24.1800  -36.7740   23.0530 C   0  0  0  0  0  1  0  0  0  0  0  0
  -25.4040  -36.3720   23.8930 C   0  0  0  0  0  3  0  0  0  0  0  0
  -27.5220  -37.2510   24.7680 C   0  0  0  0  0  1  0  0  0  0  0  0
  -26.4420  -37.4220   23.8010 N   0  0  0  0  0  0  0  0  0  0  0  0
  -26.0370  -38.3430   23.9380 H   0  0  0  0  0  0  0  0  0  0  0  0
  -26.3740  -31.7650   25.1640 C   0  0  1  0  0  0  0  0  0  0  0  0
  -25.2740  -31.5210   26.2240 C   0  0  0  0  0  1  0  0  0  0  0  0
  -26.9640  -30.3920   24.7700 C   0  0  0  0  0  1  0  0  0  0  0  0
  -27.5190  -32.5620   25.8330 C   0  0  0  0  0  1  0  0  0  0  0  0
  1 48  1  0
  1  4  1  0
  2  7  2  0
  2  4  1  0
  4  6  2  0
  5 11  1  0
  5  3  2  0
  6  3  1  0
  6  8  1  0
  7  5  1  0
  9  7  1  0
 11 10  1  0
 12 11  1  0
 13 18  1  0
 14 15  1  0
 14 13  1  0
 16 15  1  0
 16 23  1  0
 16 17  1  0
 18 12  1  0
 18 17  1  0
 19 12  2  0
 20 21  2  0
 21 40  1  0
 22 21  1  0
 22 25  1  0
 23 24  1  0
 23 20  1  0
 24 22  2  0
 25 26  1  0
 26 27  2  0
 28 31  1  0
 28 27  1  0
 29 28  2  0
 30 29  1  0
 30 25  2  0
 31 32  1  0
 32 33  1  0
 33 34  2  0
 35 34  1  0
 35 39  1  0
 36 35  2  0
 37 32  2  0
 37 36  1  0
 38 37  1  0
 40 41  1  0
 41 44  1  0
 41 43  1  0
 42 40  2  0
 45 46  1  0
 45 20  1  0
 47 45  1  0
 48 49  1  0
 50 48  1  0
 51 48  1  0
 52 51  1  0
 52 53  1  0
 54 53  1  0
 55 66  2  0
 56 54  1  0
 56 61  1  0
 57 65  1  0
 57 67  1  0
 58 64  1  0
 58 60  1  0
 59 65  1  0
 60 59  1  0
 61 60  2  0
 62 56  2  0
 63 62  1  0
 63 58  2  0
 64 57  1  0
 65 55  1  0
 67 69  2  0
 68 67  1  0
 70 68  1  0
 71 80  2  0
 71 76  1  0
 72 68  1  0
 72 76  1  0
 73 72  1  0
 74 75  1  0
 74 73  1  0
 75 71  1  0
 76 77  2  0
 77 78  1  0
 79 78  2  0
 80 79  1  0
 81 55  1  0
 81 82  1  0
 81 91  1  0
 82 85  1  0
 83 87  1  0
 83 82  1  0
 84 83  2  0
 87 86  1  0
 89 87  1  0
 89 90  1  0
 89 88  1  0
 91 94  1  1
 91 92  1  0
 93 91  1  0
M  ISO  4  11 100  12 100  53 101  54 101
M  END
>  <TORSDO>  (36) 
F 22

>  <SCORE>  (36) 
-12.202

>  <name>  (36) 
35

>  <ligand_id>  (36) 
35

>  <original_smiles>  (36) 
[H]c1c([H])c([H])c2c(c1[H])C([H])([H])C([H])([H])C([H])([H])C2([H])N([H])C(=O)C1([H])N(C(=O)C([H])(N([H])C(=O)C([H])(N([H])C([H])([H])[H])C([H])([H])[H])C(C([H])([H])[H])(C([H])([H])[H])C([H])([H])[H])C([H])([H])c2c([H])c(OC([H])([H])C([H])([H])C([H])([H])[N+]([H])([H])C([H])([H])c3c([H])c(Cl)c(C([H])(C(=O)N4C([H])([H])C([H])([H])C([H])([H])C([H])(n5nc(-c6c([H])c([H])c(Oc7c([H])c([H])c(F)c([H])c7F)c([H])c6[H])c(C(=O)N([H])[H])c5N([H])[H])C4([H])[H])C([H])([H])[H])c([H])c3Cl)c([H])c([H])c2C1([H])[H]

>  <smiles>  (36) 
[H]c1c([H])c([H])c2c(c1[H])C([H])([H])C([H])([H])C([H])([H])C2([H])N([H])C(=O)C1([H])N(C(=O)C([H])(N([H])C(=O)C([H])(N([H])C([H])([H])[H])C([H])([H])[H])C(C([H])([H])[H])(C([H])([H])[H])C([H])([H])[H])C([H])([H])c2c([H])c(OC([H])([H])C([H])([H])C([H])([H])[N+]([H])([H])C([H])([H])c3c([H])c(Cl)c(C([H])(C(=O)N4C([H])([H])C([H])([H])C([H])([H])C([H])(n5nc(-c6c([H])c([H])c(Oc7c([H])c([H])c(F)c([H])c7F)c([H])c6[H])c(C(=O)N([H])[H])c5N([H])[H])C4([H])[H])C([H])([H])[H])c([H])c3Cl)c([H])c([H])c2C1([H])[H]

$$$$
36:0:0
     RDKit          3D

 90 98  0  0  1  0  0  0  0  0999 V2000
  -30.8750  -21.5310   20.5230 C   0  0  0  0  0  3  0  0  0  0  0  0
  -28.7700  -19.7480   20.5200 C   0  0  0  0  0  3  0  0  0  0  0  0
  -29.5960  -22.1700   20.4390 C   0  0  0  0  0  0  0  0  0  0  0  0
  -30.0640  -19.1220   20.5730 C   0  0  0  0  0  0  0  0  0  0  0  0
  -28.5370  -21.1960   20.4480 C   0  0  0  0  0  0  0  0  0  0  0  0
  -31.1060  -20.1080   20.5970 C   0  0  0  0  0  0  0  0  0  0  0  0
  -26.9030  -21.7560   20.4120 Cl  0  0  0  0  0  0  0  0  0  0  0  0
  -32.7510  -19.6060   20.7920 Cl  0  0  0  0  0  0  0  0  0  0  0  0
  -29.5220  -23.8020   20.2390 C   0  0  0  0  0  3  0  0  0  0  0  0
  -28.3250  -24.8930   20.6040 C   0  0  0  0  0  3  0  0  0  0  0  0
  -28.4400  -26.3950   20.2610 O   0  0  0  0  0  0  0  0  0  0  0  0
  -24.6710  -31.9080   23.2310 C   0  0  0  0  0  0  0  0  0  0  0  0
  -27.3130  -27.2790   20.2270 C   0  0  0  0  0  0  0  0  0  0  0  0
  -23.4760  -30.5060   21.5910 C   0  0  0  0  0  3  0  0  0  0  0  0
  -24.9420  -28.9470   20.1720 C   0  0  0  0  0  0  0  0  0  0  0  0
  -26.0170  -30.8270   21.4000 C   0  0  0  0  0  2  0  0  0  0  0  0
  -26.1170  -29.4360   20.7620 C   0  0  0  0  0  0  0  0  0  0  0  0
  -27.3070  -28.6270   20.7530 C   0  0  0  0  0  3  0  0  0  0  0  0
  -26.1080  -26.8650   19.6140 C   0  0  0  0  0  3  0  0  0  0  0  0
  -24.9430  -27.6670   19.5940 C   0  0  0  0  0  3  0  0  0  0  0  0
  -23.6980  -29.8230   20.2150 C   0  0  0  0  0  2  0  0  0  0  0  0
  -24.7400  -31.1020   22.1280 N   0  0  0  0  0  0  0  0  0  0  0  0
  -23.5860  -32.1800   23.7700 O   0  0  0  0  0  0  0  0  0  0  0  0
  -22.8110  -29.4930   22.5610 C   0  0  0  0  0  0  0  0  0  0  0  0
  -21.4850  -29.3030   22.4310 N   0  0  0  0  0  0  0  0  0  0  0  0
  -23.4930  -28.8750   23.3840 O   0  0  0  0  0  0  0  0  0  0  0  0
  -20.9910  -29.8480   21.7390 H   0  0  0  0  0  0  0  0  0  0  0  0
  -18.1170  -28.0790   22.9560 C   0  0  0  0  0  0  0  0  0  0  0  0
  -20.6760  -28.3560   23.2020 C   0  0  0  0  0  3  0  0  0  0  0  0
  -20.7820  -26.9280   22.6190 C   0  0  0  0  0  2  0  0  0  0  0  0
  -19.6720  -26.6050   21.6110 C   0  0  0  0  0  2  0  0  0  0  0  0
  -18.2960  -26.7370   22.2660 C   0  0  0  0  0  2  0  0  0  0  0  0
  -19.2340  -28.8470   23.3810 C   0  0  0  0  0  0  0  0  0  0  0  0
  -19.0100  -30.1020   23.9860 C   0  0  0  0  0  3  0  0  0  0  0  0
  -17.7030  -30.5940   24.1660 C   0  0  0  0  0  3  0  0  0  0  0  0
  -16.6020  -29.8240   23.7540 C   0  0  0  0  0  3  0  0  0  0  0  0
  -16.8080  -28.5670   23.1580 C   0  0  0  0  0  3  0  0  0  0  0  0
  -25.9470  -32.5550   23.8560 C   0  0  0  0  0  3  0  0  0  0  0  0
  -26.4590  -31.7990   25.1430 C   0  0  1  0  0  0  0  0  0  0  0  0
  -25.3660  -31.5650   26.2100 C   0  0  0  0  0  1  0  0  0  0  0  0
  -27.0550  -30.4220   24.7700 C   0  0  0  0  0  1  0  0  0  0  0  0
  -27.6020  -32.6060   25.8060 C   0  0  0  0  0  1  0  0  0  0  0  0
  -25.6310  -33.9560   24.1800 N   0  0  0  0  0  0  0  0  0  0  0  0
  -25.9460  -35.0080   23.4090 C   0  0  0  0  0  0  0  0  0  0  0  0
  -26.6020  -34.8980   22.3710 O   0  0  0  0  0  0  0  0  0  0  0  0
  -25.0590  -34.1120   24.9950 H   0  0  0  0  0  0  0  0  0  0  0  0
  -24.2090  -36.7880   23.0510 C   0  0  0  0  0  1  0  0  0  0  0  0
  -25.4560  -36.3950   23.8620 C   0  0  0  0  0  3  0  0  0  0  0  0
  -27.5870  -37.2970   24.6820 C   0  0  0  0  0  1  0  0  0  0  0  0
  -26.4840  -37.4520   23.7380 N   0  0  0  0  0  0  0  0  0  0  0  0
  -26.0750  -38.3720   23.8700 H   0  0  0  0  0  0  0  0  0  0  0  0
  -30.3640  -17.5300   20.9150 C   0  0  0  0  0  2  0  0  0  0  0  0
  -30.5990  -15.0080   20.0270 C   0  0  0  0  0  0  0  0  0  0  0  0
  -30.3520  -12.7360   18.9490 C   0  0  0  0  0  2  0  0  0  0  0  0
  -29.3180  -12.7110   17.7940 C   0  0  0  0  0  2  0  0  0  0  0  0
  -27.9010  -12.4820   18.3380 C   0  0  0  0  0  2  0  0  0  0  0  0
  -27.5770  -13.4030   19.5410 C   0  0  0  0  0  3  0  0  0  0  0  0
  -28.7110  -13.4070   20.5910 C   0  0  0  0  0  2  0  0  0  0  0  0
  -29.9420  -13.7950   19.9090 N   0  0  0  0  0  0  0  0  0  0  0  0
  -31.8030  -15.0420   19.7610 O   0  0  0  0  0  0  0  0  0  0  0  0
  -29.8850  -16.2010   20.2720 N   0  0  0  0  0  0  0  0  0  0  0  0
  -28.8790  -16.0670   20.2910 H   0  0  0  0  0  0  0  0  0  0  0  0
  -25.2620  -13.9790   20.4720 C   0  0  0  0  0  0  0  0  0  0  0  0
  -24.2160  -13.1910   20.8740 C   0  0  0  0  0  0  0  0  0  0  0  0
  -24.6690  -11.8430   20.7770 C   0  0  0  0  0  0  0  0  0  0  0  0
  -26.2790  -13.0990   20.1310 N   0  0  0  0  0  0  0  0  0  0  0  0
  -25.9400  -11.8140   20.3910 N   0  0  0  0  0  0  0  0  0  0  0  0
  -23.9510  -10.5750   20.9690 C   0  0  0  0  0  0  0  0  0  0  0  0
  -24.3960   -9.6040   21.8920 C   0  0  0  0  0  3  0  0  0  0  0  0
  -23.6750   -8.4040   22.0740 C   0  0  0  0  0  3  0  0  0  0  0  0
  -22.4970   -8.1640   21.3310 C   0  0  0  0  0  0  0  0  0  0  0  0
  -22.0670   -9.1250   20.3970 C   0  0  0  0  0  3  0  0  0  0  0  0
  -22.7890  -10.3160   20.2120 C   0  0  0  0  0  3  0  0  0  0  0  0
  -21.7470   -7.0160   21.4220 O   0  0  0  0  0  0  0  0  0  0  0  0
  -21.6710   -6.2930   22.5850 C   0  0  0  0  0  0  0  0  0  0  0  0
  -21.1760   -6.8570   23.7800 C   0  0  0  0  0  3  0  0  0  0  0  0
  -21.0500   -6.0580   24.9340 C   0  0  0  0  0  3  0  0  0  0  0  0
  -21.4240   -4.7010   24.8960 C   0  0  0  0  0  0  0  0  0  0  0  0
  -21.9120   -4.1370   23.7040 C   0  0  0  0  0  3  0  0  0  0  0  0
  -22.0400   -4.9330   22.5510 C   0  0  0  0  0  0  0  0  0  0  0  0
  -22.4940   -4.3810   21.3990 F   0  0  0  0  0  0  0  0  0  0  0  0
  -21.2970   -3.9310   26.0010 F   0  0  0  0  0  0  0  0  0  0  0  0
  -22.8360  -13.6640   21.2400 C   0  0  0  0  0  0  0  0  0  0  0  0
  -22.1500  -12.9410   22.1150 N   0  0  0  0  0  0  0  0  0  0  0  0
  -22.3810  -14.7120   20.7830 O   0  0  0  0  0  0  0  0  0  0  0  0
  -22.5380  -12.0910   22.5020 H   0  0  0  0  0  0  0  0  0  0  0  0
  -21.2290  -13.2410   22.4060 H   0  0  0  0  0  0  0  0  0  0  0  0
  -25.4220  -15.3490   20.3350 N   0  0  0  0  0  0  0  0  0  0  0  0
  -24.6710  -16.0020   20.5320 H   0  0  0  0  0  0  0  0  0  0  0  0
  -26.2630  -15.8030   20.0080 H   0  0  0  0  0  0  0  0  0  0  0  0
  1  6  1  0
  2  4  1  0
  3  5  1  0
  3  1  2  0
  4  6  2  0
  4 52  1  0
  5  2  2  0
  6  8  1  0
  7  5  1  0
  9  3  1  0
  9 10  2  0
 11 10  1  0
 12 23  2  0
 13 11  1  0
 13 18  1  0
 14 22  1  0
 14 24  1  0
 15 21  1  0
 15 17  1  0
 16 22  1  0
 17 16  1  0
 18 17  2  0
 19 13  2  0
 20 19  1  0
 20 15  2  0
 21 14  1  0
 22 12  1  0
 24 26  2  0
 25 24  1  0
 27 25  1  0
 28 37  2  0
 28 33  1  0
 29 25  1  0
 29 33  1  0
 30 29  1  0
 31 32  1  0
 31 30  1  0
 32 28  1  0
 33 34  2  0
 34 35  1  0
 36 35  2  0
 37 36  1  0
 38 12  1  0
 38 43  1  0
 38 39  1  0
 39 42  1  1
 39 40  1  0
 41 39  1  0
 43 46  1  0
 44 48  1  0
 44 43  1  0
 45 44  2  0
 48 47  1  0
 50 48  1  0
 50 51  1  0
 50 49  1  0
 53 61  1  0
 54 59  1  0
 55 56  1  0
 55 54  1  0
 57 56  1  0
 57 66  1  0
 57 58  1  0
 59 53  1  0
 59 58  1  0
 60 53  2  0
 61 62  1  0
 61 52  1  0
 63 64  2  0
 64 83  1  0
 65 64  1  0
 65 68  1  0
 66 67  1  0
 66 63  1  0
 67 65  2  0
 68 69  1  0
 69 70  2  0
 71 74  1  0
 71 70  1  0
 72 71  2  0
 73 72  1  0
 73 68  2  0
 74 75  1  0
 75 76  1  0
 76 77  2  0
 78 77  1  0
 78 82  1  0
 79 78  2  0
 80 75  2  0
 80 79  1  0
 81 80  1  0
 83 84  1  0
 84 87  1  0
 84 86  1  0
 85 83  2  0
 88 63  1  0
 88 89  1  0
 90 88  1  0
M  ISO  4  10 101  11 101  53 100  61 100
M  END
>  <TORSDO>  (37) 
F 19

>  <SCORE>  (37) 
-13.913

>  <name>  (37) 
36

>  <ligand_id>  (37) 
36

>  <original_smiles>  (37) 
[H]c1c([H])c([H])c2c(c1[H])C([H])([H])C([H])([H])C([H])([H])C2([H])N([H])C(=O)C1([H])N(C(=O)C([H])(N([H])C(=O)C([H])(N([H])C([H])([H])[H])C([H])([H])[H])C(C([H])([H])[H])(C([H])([H])[H])C([H])([H])[H])C([H])([H])c2c([H])c(OC([H])([H])C([H])([H])c3c([H])c(Cl)c(C([H])([H])N([H])C(=O)N4C([H])([H])C([H])([H])C([H])([H])C([H])(n5nc(-c6c([H])c([H])c(Oc7c([H])c([H])c(F)c([H])c7F)c([H])c6[H])c(C(=O)N([H])[H])c5N([H])[H])C4([H])[H])c([H])c3Cl)c([H])c([H])c2C1([H])[H]

>  <smiles>  (37) 
[H]c1c([H])c([H])c2c(c1[H])C([H])([H])C([H])([H])C([H])([H])C2([H])N([H])C(=O)C1([H])N(C(=O)C([H])(N([H])C(=O)C([H])(N([H])C([H])([H])[H])C([H])([H])[H])C(C([H])([H])[H])(C([H])([H])[H])C([H])([H])[H])C([H])([H])c2c([H])c(OC([H])([H])C([H])([H])c3c([H])c(Cl)c(C([H])([H])N([H])C(=O)N4C([H])([H])C([H])([H])C([H])([H])C([H])(n5nc(-c6c([H])c([H])c(Oc7c([H])c([H])c(F)c([H])c7F)c([H])c6[H])c(C(=O)N([H])[H])c5N([H])[H])C4([H])[H])c([H])c3Cl)c([H])c([H])c2C1([H])[H]

$$$$
37:0:0
     RDKit          3D

 98106  0  0  1  0  0  0  0  0999 V2000
  -26.5260  -23.1970   18.5850 C   0  0  0  0  0  3  0  0  0  0  0  0
  -27.6630  -23.5410   17.8300 C   0  0  0  0  0  0  0  0  0  0  0  0
  -26.2000  -21.8570   18.8320 C   0  0  0  0  0  0  0  0  0  0  0  0
  -28.3660  -22.5300   17.1240 C   0  0  0  0  0  0  0  0  0  0  0  0
  -28.0260  -21.1680   17.3500 C   0  0  0  0  0  0  0  0  0  0  0  0
  -27.0190  -20.8470   18.2960 C   0  0  0  0  0  0  0  0  0  0  0  0
  -25.0350  -21.5290   19.7520 C   0  0  0  0  0  1  0  0  0  0  0  0
  -29.5170  -22.9040   16.1960 C   0  0  0  0  0  1  0  0  0  0  0  0
  -28.7750  -20.0420   16.6450 C   0  0  0  0  0  1  0  0  0  0  0  0
  -26.9670  -19.5950   18.8540 O   0  0  0  0  0  0  0  0  0  0  0  0
  -28.1660  -19.3880   19.6050 C   0  0  0  0  0  2  0  0  0  0  0  0
  -28.3570  -17.9630   20.1230 C   0  0  0  0  0  2  0  0  0  0  0  0
  -29.7030  -17.8610   20.8660 C   0  0  0  0  0  2  0  0  0  0  0  0
  -30.1080  -16.4230   21.2100 C   0  0  0  0  0  2  0  0  0  0  0  0
  -31.6410  -16.2530   21.2500 C   0  0  0  0  0  2  0  0  0  0  0  0
  -32.1190  -14.8560   21.6780 C   0  0  0  0  0  2  0  0  0  0  0  0
  -31.3000  -13.3450   19.8400 C   0  0  0  0  0  0  0  0  0  0  0  0
  -30.6220  -11.3050   18.6350 C   0  0  0  0  0  2  0  0  0  0  0  0
  -29.5790  -11.5170   17.5270 C   0  0  0  0  0  2  0  0  0  0  0  0
  -28.1560  -11.4970   18.1080 C   0  0  0  0  0  2  0  0  0  0  0  0
  -27.9990  -12.4470   19.3220 C   0  0  0  0  0  3  0  0  0  0  0  0
  -29.1240  -12.2110   20.3510 C   0  0  0  0  0  2  0  0  0  0  0  0
  -30.4330  -12.3240   19.6740 N   0  0  0  0  0  0  0  0  0  0  0  0
  -32.1380  -13.6960   19.0010 O   0  0  0  0  0  0  0  0  0  0  0  0
  -31.3020  -13.8000   21.0970 N   0  0  0  0  0  0  0  0  0  0  0  0
  -30.6270  -13.3700   21.7120 H   0  0  0  0  0  0  0  0  0  0  0  0
  -25.7720  -13.2970   20.3060 C   0  0  0  0  0  0  0  0  0  0  0  0
  -24.6650  -12.6350   20.7620 C   0  0  0  0  0  0  0  0  0  0  0  0
  -24.9590  -11.2420   20.6400 C   0  0  0  0  0  0  0  0  0  0  0  0
  -26.6780  -12.3140   19.9340 N   0  0  0  0  0  0  0  0  0  0  0  0
  -26.1950  -11.0710   20.1890 N   0  0  0  0  0  0  0  0  0  0  0  0
  -24.1150  -10.0630   20.8670 C   0  0  0  0  0  0  0  0  0  0  0  0
  -24.4870   -9.0520   21.7800 C   0  0  0  0  0  3  0  0  0  0  0  0
  -23.6500   -7.9360   21.9950 C   0  0  0  0  0  3  0  0  0  0  0  0
  -22.4240   -7.8250   21.2960 C   0  0  0  0  0  0  0  0  0  0  0  0
  -22.0690   -8.8210   20.3700 C   0  0  0  0  0  3  0  0  0  0  0  0
  -22.9060   -9.9280   20.1540 C   0  0  0  0  0  3  0  0  0  0  0  0
  -21.5590   -6.7660   21.4210 O   0  0  0  0  0  0  0  0  0  0  0  0
  -21.4750   -6.0390   22.5820 C   0  0  0  0  0  0  0  0  0  0  0  0
  -21.0970   -6.6300   23.8080 C   0  0  0  0  0  3  0  0  0  0  0  0
  -20.9560   -5.8330   24.9600 C   0  0  0  0  0  3  0  0  0  0  0  0
  -21.1800   -4.4450   24.8900 C   0  0  0  0  0  0  0  0  0  0  0  0
  -21.5500   -3.8540   23.6690 C   0  0  0  0  0  3  0  0  0  0  0  0
  -21.6950   -4.6480   22.5190 C   0  0  0  0  0  0  0  0  0  0  0  0
  -22.0300   -4.0680   21.3400 F   0  0  0  0  0  0  0  0  0  0  0  0
  -21.0360   -3.6780   25.9960 F   0  0  0  0  0  0  0  0  0  0  0  0
  -23.3680  -13.2510   21.2020 C   0  0  0  0  0  0  0  0  0  0  0  0
  -22.6750  -12.6170   22.1410 N   0  0  0  0  0  0  0  0  0  0  0  0
  -22.9840  -14.3290   20.7490 O   0  0  0  0  0  0  0  0  0  0  0  0
  -22.9990  -11.7410   22.5230 H   0  0  0  0  0  0  0  0  0  0  0  0
  -21.8110  -13.0090   22.4830 H   0  0  0  0  0  0  0  0  0  0  0  0
  -26.0770  -14.6470   20.1570 N   0  0  0  0  0  0  0  0  0  0  0  0
  -25.4090  -15.3790   20.3730 H   0  0  0  0  0  0  0  0  0  0  0  0
  -26.9430  -14.9980   19.7710 H   0  0  0  0  0  0  0  0  0  0  0  0
  -28.1400  -24.9880   17.9270 C   0  0  0  0  0  2  0  0  0  0  0  0
  -29.0390  -25.1650   19.1830 C   0  0  0  0  0  2  0  0  0  0  0  0
  -29.3600  -26.6120   19.6080 C   0  0  0  0  0  2  0  0  0  0  0  0
  -28.8660  -26.9350   20.9250 O   0  0  0  0  0  0  0  0  0  0  0  0
  -24.8160  -32.0980   23.7910 C   0  0  0  0  0  0  0  0  0  0  0  0
  -27.6770  -27.6240   20.9480 C   0  0  0  0  0  0  0  0  0  0  0  0
  -23.7280  -30.6630   22.0980 C   0  0  0  0  0  3  0  0  0  0  0  0
  -25.2710  -29.0960   20.8250 C   0  0  0  0  0  0  0  0  0  0  0  0
  -26.2640  -31.0140   22.0780 C   0  0  0  0  0  2  0  0  0  0  0  0
  -26.3910  -29.6330   21.4770 C   0  0  0  0  0  0  0  0  0  0  0  0
  -27.5980  -28.9020   21.5450 C   0  0  0  0  0  3  0  0  0  0  0  0
  -26.5240  -27.0830   20.3500 C   0  0  0  0  0  3  0  0  0  0  0  0
  -25.3280  -27.8100   20.2710 C   0  0  0  0  0  3  0  0  0  0  0  0
  -24.0300  -29.9510   20.7590 C   0  0  0  0  0  2  0  0  0  0  0  0
  -24.9490  -31.2720   22.7150 N   0  0  0  0  0  0  0  0  0  0  0  0
  -23.6980  -32.3860   24.2390 O   0  0  0  0  0  0  0  0  0  0  0  0
  -23.0050  -29.6640   23.0290 C   0  0  0  0  0  0  0  0  0  0  0  0
  -21.7250  -29.3890   22.7320 N   0  0  0  0  0  0  0  0  0  0  0  0
  -23.6000  -29.1340   23.9700 O   0  0  0  0  0  0  0  0  0  0  0  0
  -21.3050  -29.8670   21.9470 H   0  0  0  0  0  0  0  0  0  0  0  0
  -18.4150  -27.9460   22.7910 C   0  0  0  0  0  0  0  0  0  0  0  0
  -20.8640  -28.4500   23.4460 C   0  0  0  0  0  3  0  0  0  0  0  0
  -21.1680  -26.9910   23.0340 C   0  0  0  0  0  2  0  0  0  0  0  0
  -20.2790  -26.4860   21.8940 C   0  0  0  0  0  2  0  0  0  0  0  0
  -18.8000  -26.5660   22.2890 C   0  0  0  0  0  2  0  0  0  0  0  0
  -19.3860  -28.8370   23.3200 C   0  0  0  0  0  0  0  0  0  0  0  0
  -18.9820  -30.1250   23.7360 C   0  0  0  0  0  3  0  0  0  0  0  0
  -17.6360  -30.5250   23.6340 C   0  0  0  0  0  3  0  0  0  0  0  0
  -16.6780  -29.6310   23.1250 C   0  0  0  0  0  3  0  0  0  0  0  0
  -17.0640  -28.3430   22.7130 C   0  0  0  0  0  3  0  0  0  0  0  0
  -26.0560  -32.7380   24.4880 C   0  0  0  0  0  3  0  0  0  0  0  0
  -26.4410  -32.0370   25.8500 C   0  0  1  0  0  0  0  0  0  0  0  0
  -25.2400  -31.8120   26.7950 C   0  0  0  0  0  1  0  0  0  0  0  0
  -27.0930  -30.6580   25.5930 C   0  0  0  0  0  1  0  0  0  0  0  0
  -27.4930  -32.8860   26.6020 C   0  0  0  0  0  1  0  0  0  0  0  0
  -25.7620  -34.1620   24.6980 N   0  0  0  0  0  0  0  0  0  0  0  0
  -26.1760  -35.1480   23.8930 C   0  0  0  0  0  0  0  0  0  0  0  0
  -26.9180  -34.9570   22.9240 O   0  0  0  0  0  0  0  0  0  0  0  0
  -25.1010  -34.3860   25.4270 H   0  0  0  0  0  0  0  0  0  0  0  0
  -24.5080  -36.9340   23.2910 C   0  0  0  0  0  1  0  0  0  0  0  0
  -25.6860  -36.5740   24.2100 C   0  0  0  0  0  3  0  0  0  0  0  0
  -27.7780  -37.4890   25.1140 C   0  0  0  0  0  1  0  0  0  0  0  0
  -26.7450  -37.5990   24.0870 N   0  0  0  0  0  0  0  0  0  0  0  0
  -26.3480  -38.5350   24.1370 H   0  0  0  0  0  0  0  0  0  0  0  0
  1  3  1  0
  2 55  1  0
  2  1  2  0
  3  7  1  0
  4  5  2  0
  4  2  1  0
  5  6  1  0
  6  3  2  0
  6 10  1  0
  8  4  1  0
  9  5  1  0
 10 11  1  0
 11 12  1  0
 12 13  1  0
 13 14  1  0
 14 15  1  0
 15 16  1  0
 17 25  1  0
 18 23  1  0
 19 20  1  0
 19 18  1  0
 21 20  1  0
 21 30  1  0
 21 22  1  0
 23 17  1  0
 23 22  1  0
 24 17  2  0
 25 16  1  0
 25 26  1  0
 27 28  2  0
 28 47  1  0
 29 28  1  0
 29 32  1  0
 30 31  1  0
 30 27  1  0
 31 29  2  0
 32 33  1  0
 33 34  2  0
 35 38  1  0
 35 34  1  0
 36 35  2  0
 37 36  1  0
 37 32  2  0
 38 39  1  0
 39 40  1  0
 40 41  2  0
 42 41  1  0
 42 46  1  0
 43 42  2  0
 44 39  2  0
 44 43  1  0
 45 44  1  0
 47 48  1  0
 48 51  1  0
 48 50  1  0
 49 47  2  0
 52 27  1  0
 52 53  1  0
 54 52  1  0
 55 56  1  0
 56 57  1  0
 57 58  1  0
 58 60  1  0
 59 70  2  0
 60 65  1  0
 61 69  1  0
 61 71  1  0
 62 64  1  0
 63 69  1  0
 64 65  2  0
 64 63  1  0
 66 60  2  0
 67 66  1  0
 67 62  2  0
 68 62  1  0
 68 61  1  0
 69 59  1  0
 71 73  2  0
 72 71  1  0
 74 72  1  0
 75 80  1  0
 76 72  1  0
 77 76  1  0
 78 79  1  0
 78 77  1  0
 79 75  1  0
 80 76  1  0
 80 81  2  0
 82 81  1  0
 83 82  2  0
 84 75  2  0
 84 83  1  0
 85 59  1  0
 85 90  1  0
 85 86  1  0
 86 89  1  1
 86 87  1  0
 88 86  1  0
 90 93  1  0
 91 95  1  0
 91 90  1  0
 92 91  2  0
 95 94  1  0
 97 98  1  0
 97 95  1  0
 97 96  1  0
M  ISO  4  17 100  25 100  57 101  58 101
M  END
>  <TORSDO>  (38) 
F 26

>  <SCORE>  (38) 
-8.117

>  <name>  (38) 
37

>  <ligand_id>  (38) 
37

>  <original_smiles>  (38) 
[H]c1c([H])c([H])c2c(c1[H])C([H])([H])C([H])([H])C([H])([H])C2([H])N([H])C(=O)C1([H])N(C(=O)C([H])(N([H])C(=O)C([H])(N([H])C([H])([H])[H])C([H])([H])[H])C(C([H])([H])[H])(C([H])([H])[H])C([H])([H])[H])C([H])([H])c2c([H])c(OC([H])([H])C([H])([H])C([H])([H])c3c([H])c(C([H])([H])[H])c(OC([H])([H])C([H])([H])C([H])([H])C([H])([H])C([H])([H])C([H])([H])N([H])C(=O)N4C([H])([H])C([H])([H])C([H])([H])C([H])(n5nc(-c6c([H])c([H])c(Oc7c([H])c([H])c(F)c([H])c7F)c([H])c6[H])c(C(=O)N([H])[H])c5N([H])[H])C4([H])[H])c(C([H])([H])[H])c3C([H])([H])[H])c([H])c([H])c2C1([H])[H]

>  <smiles>  (38) 
[H]c1c([H])c([H])c2c(c1[H])C([H])([H])C([H])([H])C([H])([H])C2([H])N([H])C(=O)C1([H])N(C(=O)C([H])(N([H])C(=O)C([H])(N([H])C([H])([H])[H])C([H])([H])[H])C(C([H])([H])[H])(C([H])([H])[H])C([H])([H])[H])C([H])([H])c2c([H])c(OC([H])([H])C([H])([H])C([H])([H])c3c([H])c(C([H])([H])[H])c(OC([H])([H])C([H])([H])C([H])([H])C([H])([H])C([H])([H])C([H])([H])N([H])C(=O)N4C([H])([H])C([H])([H])C([H])([H])C([H])(n5nc(-c6c([H])c([H])c(Oc7c([H])c([H])c(F)c([H])c7F)c([H])c6[H])c(C(=O)N([H])[H])c5N([H])[H])C4([H])[H])c(C([H])([H])[H])c3C([H])([H])[H])c([H])c([H])c2C1([H])[H]

$$$$
38:0:0
     RDKit          3D

 94103  0  0  1  0  0  0  0  0999 V2000
  -29.7780  -19.0640   18.7010 C   0  0  0  0  0  3  0  0  0  0  0  0
  -28.9660  -19.8680   21.2600 C   0  0  0  0  0  3  0  0  0  0  0  0
  -31.7580  -17.4680   21.4270 C   0  0  0  0  0  2  0  0  0  0  0  0
  -30.3980  -18.4390   19.8440 C   0  0  0  0  0  0  0  0  0  0  0  0
  -28.7740  -20.0840   18.8010 C   0  0  0  0  0  0  0  0  0  0  0  0
  -30.0850  -19.0000   21.1260 C   0  0  0  0  0  0  0  0  0  0  0  0
  -31.2660  -17.2980   20.1540 C   0  0  0  0  0  3  0  0  0  0  0  0
  -28.2670  -20.3160   20.1050 C   0  0  0  0  0  0  0  0  0  0  0  0
  -31.3000  -18.7350   23.4440 C   0  0  0  0  0  1  0  0  0  0  0  0
  -31.0380  -18.4690   22.0350 N   0  0  0  0  0  0  0  0  0  0  0  0
  -27.0770  -20.9480   20.2690 F   0  0  0  0  0  0  0  0  0  0  0  0
  -32.2810  -15.0740   19.7990 C   0  0  0  0  0  0  0  0  0  0  0  0
  -31.9610  -12.6610   19.4210 C   0  0  0  0  0  2  0  0  0  0  0  0
  -31.0710  -12.5290   18.1670 C   0  0  0  0  0  2  0  0  0  0  0  0
  -29.5700  -12.5870   18.5410 C   0  0  0  0  0  2  0  0  0  0  0  0
  -29.2120  -13.7550   19.5100 C   0  0  0  0  0  3  0  0  0  0  0  0
  -30.2370  -13.8330   20.6690 C   0  0  0  0  0  2  0  0  0  0  0  0
  -31.5720  -13.9320   20.0480 N   0  0  0  0  0  0  0  0  0  0  0  0
  -33.5050  -15.0600   19.6110 O   0  0  0  0  0  0  0  0  0  0  0  0
  -31.5850  -16.1450   19.3690 N   0  0  0  0  0  0  0  0  0  0  0  0
  -31.0830  -16.0330   18.4930 H   0  0  0  0  0  0  0  0  0  0  0  0
  -26.9230  -14.6790   20.2360 C   0  0  0  0  0  0  0  0  0  0  0  0
  -25.7490  -14.0590   20.5940 C   0  0  0  0  0  0  0  0  0  0  0  0
  -26.0110  -12.6530   20.5400 C   0  0  0  0  0  0  0  0  0  0  0  0
  -27.8360  -13.6630   19.9830 N   0  0  0  0  0  0  0  0  0  0  0  0
  -27.2900  -12.4390   20.2300 N   0  0  0  0  0  0  0  0  0  0  0  0
  -25.1070  -11.5080   20.7000 C   0  0  0  0  0  0  0  0  0  0  0  0
  -25.3570  -10.5070   21.6630 C   0  0  0  0  0  3  0  0  0  0  0  0
  -24.4700   -9.4210   21.8170 C   0  0  0  0  0  3  0  0  0  0  0  0
  -23.3120   -9.3270   21.0030 C   0  0  0  0  0  0  0  0  0  0  0  0
  -23.0760  -10.3210   20.0310 C   0  0  0  0  0  3  0  0  0  0  0  0
  -23.9670  -11.3980   19.8770 C   0  0  0  0  0  3  0  0  0  0  0  0
  -22.3960   -8.3010   21.0660 O   0  0  0  0  0  0  0  0  0  0  0  0
  -22.1370   -7.6450   22.2420 C   0  0  0  0  0  0  0  0  0  0  0  0
  -21.6550   -8.3240   23.3830 C   0  0  0  0  0  3  0  0  0  0  0  0
  -21.3280   -7.6010   24.5480 C   0  0  0  0  0  3  0  0  0  0  0  0
  -21.4710   -6.1990   24.5700 C   0  0  0  0  0  0  0  0  0  0  0  0
  -21.9430   -5.5220   23.4310 C   0  0  0  0  0  3  0  0  0  0  0  0
  -22.2710   -6.2440   22.2720 C   0  0  0  0  0  0  0  0  0  0  0  0
  -22.7050   -5.5780   21.1730 F   0  0  0  0  0  0  0  0  0  0  0  0
  -21.1500   -5.5040   25.6900 F   0  0  0  0  0  0  0  0  0  0  0  0
  -24.4250  -14.7260   20.8680 C   0  0  0  0  0  0  0  0  0  0  0  0
  -23.6420  -14.1790   21.7840 N   0  0  0  0  0  0  0  0  0  0  0  0
  -24.1060  -15.7650   20.2950 O   0  0  0  0  0  0  0  0  0  0  0  0
  -23.9070  -13.3230   22.2550 H   0  0  0  0  0  0  0  0  0  0  0  0
  -22.7610  -14.6130   22.0140 H   0  0  0  0  0  0  0  0  0  0  0  0
  -27.2850  -16.0130   20.0880 N   0  0  0  0  0  0  0  0  0  0  0  0
  -26.6540  -16.7820   20.2600 H   0  0  0  0  0  0  0  0  0  0  0  0
  -28.1920  -16.3140   19.7660 H   0  0  0  0  0  0  0  0  0  0  0  0
  -28.1620  -20.8660   17.5730 C   0  0  0  0  0  2  0  0  0  0  0  0
  -28.9490  -22.1240   17.0200 C   0  0  0  0  0  2  0  0  0  0  0  0
  -29.0830  -23.4530   17.9230 C   0  0  0  0  0  2  0  0  0  0  0  0
  -28.2960  -24.7660   17.5250 C   0  0  0  0  0  2  0  0  0  0  0  0
  -28.5920  -26.1760   17.9500 O   0  0  0  0  0  0  0  0  0  0  0  0
  -24.8340  -30.3400   22.5470 C   0  0  0  0  0  0  0  0  0  0  0  0
  -27.4710  -27.0020   18.1890 C   0  0  0  0  0  0  0  0  0  0  0  0
  -23.6020  -29.2060   20.7330 C   0  0  0  0  0  3  0  0  0  0  0  0
  -25.0010  -28.3070   18.8230 C   0  0  0  0  0  0  0  0  0  0  0  0
  -26.0460  -29.9230   20.3870 C   0  0  0  0  0  2  0  0  0  0  0  0
  -26.1920  -28.7660   19.4100 C   0  0  0  0  0  0  0  0  0  0  0  0
  -27.4320  -28.1150   19.1030 C   0  0  0  0  0  3  0  0  0  0  0  0
  -26.2470  -26.6910   17.5460 C   0  0  0  0  0  3  0  0  0  0  0  0
  -25.0330  -27.2760   17.8960 C   0  0  0  0  0  3  0  0  0  0  0  0
  -23.6860  -28.9330   19.2170 C   0  0  0  0  0  2  0  0  0  0  0  0
  -24.8540  -29.8370   21.2710 N   0  0  0  0  0  0  0  0  0  0  0  0
  -23.7900  -30.3270   23.2070 O   0  0  0  0  0  0  0  0  0  0  0  0
  -23.2090  -27.8980   21.4530 C   0  0  0  0  0  0  0  0  0  0  0  0
  -21.9060  -27.5490   21.3990 N   0  0  0  0  0  0  0  0  0  0  0  0
  -24.0520  -27.2120   22.0320 O   0  0  0  0  0  0  0  0  0  0  0  0
  -21.2770  -28.2080   20.9840 H   0  0  0  0  0  0  0  0  0  0  0  0
  -18.8040  -25.7110   21.6360 C   0  0  0  0  0  0  0  0  0  0  0  0
  -21.2880  -26.3240   21.9030 C   0  0  0  0  0  3  0  0  0  0  0  0
  -21.5870  -25.1070   20.9850 C   0  0  0  0  0  2  0  0  0  0  0  0
  -20.4750  -24.8360   19.9660 C   0  0  0  0  0  2  0  0  0  0  0  0
  -19.1630  -24.5890   20.6790 C   0  0  0  0  0  2  0  0  0  0  0  0
  -19.8010  -26.5570   22.1830 C   0  0  0  0  0  0  0  0  0  0  0  0
  -19.4060  -27.6050   23.0470 C   0  0  0  0  0  3  0  0  0  0  0  0
  -18.0530  -27.7690   23.3680 C   0  0  0  0  0  3  0  0  0  0  0  0
  -17.0800  -26.8760   22.8700 C   0  0  0  0  0  3  0  0  0  0  0  0
  -17.4530  -25.8800   21.9800 C   0  0  0  0  0  3  0  0  0  0  0  0
  -26.0880  -31.0000   23.1770 C   0  0  0  0  0  3  0  0  0  0  0  0
  -26.8400  -30.0460   24.1840 C   0  0  1  0  0  0  0  0  0  0  0  0
  -25.9120  -29.4340   25.2570 C   0  0  0  0  0  1  0  0  0  0  0  0
  -27.5140  -28.8810   23.4250 C   0  0  0  0  0  1  0  0  0  0  0  0
  -27.9660  -30.8260   24.8980 C   0  0  0  0  0  1  0  0  0  0  0  0
  -25.6630  -32.2400   23.8480 N   0  0  0  0  0  0  0  0  0  0  0  0
  -25.8240  -33.4740   23.3630 C   0  0  0  0  0  0  0  0  0  0  0  0
  -26.4350  -33.6920   22.3110 O   0  0  0  0  0  0  0  0  0  0  0  0
  -25.1310  -32.1220   24.6970 H   0  0  0  0  0  0  0  0  0  0  0  0
  -23.9130  -35.0900   23.5200 C   0  0  0  0  0  1  0  0  0  0  0  0
  -25.2340  -34.6460   24.1660 C   0  0  0  0  0  3  0  0  0  0  0  0
  -27.3090  -35.5370   25.1280 C   0  0  0  0  0  1  0  0  0  0  0  0
  -26.1470  -35.8030   24.2880 N   0  0  0  0  0  0  0  0  0  0  0  0
  -25.6580  -36.6070   24.6720 H   0  0  0  0  0  0  0  0  0  0  0  0
  1  5  2  0
  1  4  1  0
  3 10  1  0
  4  7  1  0
  4  6  2  0
  5  8  1  0
  6  2  1  0
  6 10  1  0
  7 20  1  0
  7  3  1  0
  8 11  1  0
  8  2  2  0
 10  9  1  0
 12 18  1  0
 13 18  1  0
 14 15  1  0
 14 13  1  0
 16 15  1  0
 16 25  1  0
 16 17  1  0
 18 17  1  0
 19 12  2  0
 20 12  1  0
 21 20  1  0
 22 23  2  0
 23 42  1  0
 24 23  1  0
 24 27  1  0
 25 26  1  0
 25 22  1  0
 26 24  2  0
 27 28  1  0
 28 29  2  0
 30 33  1  0
 30 29  1  0
 31 30  2  0
 32 31  1  0
 32 27  2  0
 33 34  1  0
 34 39  2  0
 34 35  1  0
 35 36  2  0
 36 37  1  0
 37 41  1  0
 38 37  2  0
 39 38  1  0
 40 39  1  0
 42 43  1  0
 43 46  1  0
 43 45  1  0
 44 42  2  0
 47 22  1  0
 47 48  1  0
 49 47  1  0
 50  5  1  0
 51 50  1  0
 51 52  1  0
 53 52  1  0
 53 54  1  0
 54 56  1  0
 55 66  2  0
 56 61  1  0
 57 65  1  0
 57 67  1  0
 58 64  1  0
 58 60  1  0
 59 65  1  0
 60 59  1  0
 61 60  2  0
 62 63  1  0
 62 56  2  0
 63 58  2  0
 64 57  1  0
 65 55  1  0
 67 69  2  0
 68 67  1  0
 70 68  1  0
 71 80  2  0
 71 76  1  0
 72 68  1  0
 72 76  1  0
 73 72  1  0
 74 75  1  0
 74 73  1  0
 75 71  1  0
 76 77  2  0
 77 78  1  0
 79 78  2  0
 80 79  1  0
 81 55  1  0
 81 86  1  0
 81 82  1  0
 82 85  1  1
 82 83  1  0
 84 82  1  0
 86 89  1  0
 87 86  1  0
 87 91  1  0
 88 87  2  0
 91 90  1  0
 91 93  1  0
 93 94  1  0
 93 92  1  0
M  ISO  4  12 100  20 100  53 101  54 101
M  END
>  <TORSDO>  (39) 
F 20

>  <SCORE>  (39) 
-7.363

>  <name>  (39) 
38

>  <ligand_id>  (39) 
38

>  <original_smiles>  (39) 
[H]c1c([H])c([H])c2c(c1[H])C([H])([H])C([H])([H])C([H])([H])C2([H])N([H])C(=O)C1([H])N(C(=O)C([H])(N([H])C(=O)C([H])(N([H])C([H])([H])[H])C([H])([H])[H])C(C([H])([H])[H])(C([H])([H])[H])C([H])([H])[H])C([H])([H])c2c([H])c(OC([H])([H])C([H])([H])C([H])([H])C([H])([H])c3c(F)c([H])c4c(c3[H])c(N([H])C(=O)N3C([H])([H])C([H])([H])C([H])([H])C([H])(n5nc(-c6c([H])c([H])c(Oc7c([H])c([H])c(F)c([H])c7F)c([H])c6[H])c(C(=O)N([H])[H])c5N([H])[H])C3([H])[H])c([H])n4C([H])([H])[H])c([H])c([H])c2C1([H])[H]

>  <smiles>  (39) 
[H]c1c([H])c([H])c2c(c1[H])C([H])([H])C([H])([H])C([H])([H])C2([H])N([H])C(=O)C1([H])N(C(=O)C([H])(N([H])C(=O)C([H])(N([H])C([H])([H])[H])C([H])([H])[H])C(C([H])([H])[H])(C([H])([H])[H])C([H])([H])[H])C([H])([H])c2c([H])c(OC([H])([H])C([H])([H])C([H])([H])C([H])([H])c3c(F)c([H])c4c(c3[H])c(N([H])C(=O)N3C([H])([H])C([H])([H])C([H])([H])C([H])(n5nc(-c6c([H])c([H])c(Oc7c([H])c([H])c(F)c([H])c7F)c([H])c6[H])c(C(=O)N([H])[H])c5N([H])[H])C3([H])[H])c([H])n4C([H])([H])[H])c([H])c([H])c2C1([H])[H]

$$$$
39:0:0
     RDKit          3D

 91 99  0  0  1  0  0  0  0  0999 V2000
  -30.8930  -20.1820   19.9660 C   0  0  0  0  0  3  0  0  0  0  0  0
  -30.5490  -21.5800   20.0260 C   0  0  0  0  0  0  0  0  0  0  0  0
  -29.9690  -19.0890   19.9300 C   0  0  0  0  0  0  0  0  0  0  0  0
  -29.2000  -22.0570   20.0630 C   0  0  0  0  0  0  0  0  0  0  0  0
  -28.2450  -20.9730   19.9540 C   0  0  0  0  0  0  0  0  0  0  0  0
  -28.6130  -19.5530   19.8970 C   0  0  0  0  0  0  0  0  0  0  0  0
  -31.6910  -22.5810   20.0950 C   0  0  0  0  0  1  0  0  0  0  0  0
  -26.7640  -21.3260   19.9250 C   0  0  0  0  0  1  0  0  0  0  0  0
  -27.3720  -18.3510   19.8120 Cl  0  0  0  0  0  0  0  0  0  0  0  0
  -28.8450  -23.6150   20.4590 C   0  0  0  0  0  3  0  0  0  0  0  0
  -28.4390  -24.8730   19.4730 C   0  0  0  0  0  3  0  0  0  0  0  0
  -28.4520  -26.3470   19.9330 O   0  0  0  0  0  0  0  0  0  0  0  0
  -24.6270  -31.7290   23.0830 C   0  0  0  0  0  0  0  0  0  0  0  0
  -27.3380  -27.2450   19.8750 C   0  0  0  0  0  0  0  0  0  0  0  0
  -23.4630  -30.3590   21.3950 C   0  0  0  0  0  3  0  0  0  0  0  0
  -24.9520  -28.8870   19.9130 C   0  0  0  0  0  0  0  0  0  0  0  0
  -26.0030  -30.7170   21.2350 C   0  0  0  0  0  2  0  0  0  0  0  0
  -26.1150  -29.3550   20.5370 C   0  0  0  0  0  0  0  0  0  0  0  0
  -27.3060  -28.5460   20.5060 C   0  0  0  0  0  3  0  0  0  0  0  0
  -26.1490  -26.8750   19.2050 C   0  0  0  0  0  3  0  0  0  0  0  0
  -24.9790  -27.6600   19.2340 C   0  0  0  0  0  3  0  0  0  0  0  0
  -23.6980  -29.7390   19.9920 C   0  0  0  0  0  2  0  0  0  0  0  0
  -24.7170  -30.9550   21.9590 N   0  0  0  0  0  0  0  0  0  0  0  0
  -23.5340  -31.9630   23.6210 O   0  0  0  0  0  0  0  0  0  0  0  0
  -22.8200  -29.2960   22.3200 C   0  0  0  0  0  0  0  0  0  0  0  0
  -21.4960  -29.0960   22.1950 N   0  0  0  0  0  0  0  0  0  0  0  0
  -23.5150  -28.6550   23.1150 O   0  0  0  0  0  0  0  0  0  0  0  0
  -20.9920  -29.6690   21.5320 H   0  0  0  0  0  0  0  0  0  0  0  0
  -18.1470  -27.8110   22.6790 C   0  0  0  0  0  0  0  0  0  0  0  0
  -20.7020  -28.1120   22.9330 C   0  0  0  0  0  3  0  0  0  0  0  0
  -20.8250  -26.7070   22.2980 C   0  0  0  0  0  2  0  0  0  0  0  0
  -19.7190  -26.4060   21.2820 C   0  0  0  0  0  2  0  0  0  0  0  0
  -18.3420  -26.4950   21.9460 C   0  0  0  0  0  2  0  0  0  0  0  0
  -19.2540  -28.5770   23.1300 C   0  0  0  0  0  0  0  0  0  0  0  0
  -19.0170  -29.8080   23.7790 C   0  0  0  0  0  3  0  0  0  0  0  0
  -17.7050  -30.2750   23.9810 C   0  0  0  0  0  3  0  0  0  0  0  0
  -16.6110  -29.5070   23.5450 C   0  0  0  0  0  3  0  0  0  0  0  0
  -16.8320  -28.2750   22.9010 C   0  0  0  0  0  3  0  0  0  0  0  0
  -25.8890  -32.3780   23.7300 C   0  0  0  0  0  3  0  0  0  0  0  0
  -26.4130  -31.5880   24.9920 C   0  0  1  0  0  0  0  0  0  0  0  0
  -25.3190  -31.3040   26.0480 C   0  0  0  0  0  1  0  0  0  0  0  0
  -27.0250  -30.2300   24.5760 C   0  0  0  0  0  1  0  0  0  0  0  0
  -27.5440  -32.3890   25.6790 C   0  0  0  0  0  1  0  0  0  0  0  0
  -25.5430  -33.7590   24.0960 N   0  0  0  0  0  0  0  0  0  0  0  0
  -25.8520  -34.8430   23.3700 C   0  0  0  0  0  0  0  0  0  0  0  0
  -26.5270  -34.7830   22.3390 O   0  0  0  0  0  0  0  0  0  0  0  0
  -24.9400  -33.8770   24.8980 H   0  0  0  0  0  0  0  0  0  0  0  0
  -24.0760  -36.6010   23.0740 C   0  0  0  0  0  1  0  0  0  0  0  0
  -25.3340  -36.2060   23.8670 C   0  0  0  0  0  3  0  0  0  0  0  0
  -27.4470  -37.1290   24.7100 C   0  0  0  0  0  1  0  0  0  0  0  0
  -26.3380  -37.2890   23.7740 N   0  0  0  0  0  0  0  0  0  0  0  0
  -25.9080  -38.1940   23.9430 H   0  0  0  0  0  0  0  0  0  0  0  0
  -30.6000  -17.5730   19.9380 C   0  0  0  0  0  2  0  0  0  0  0  0
  -30.6760  -14.9350   19.9490 C   0  0  0  0  0  0  0  0  0  0  0  0
  -30.3880  -12.6370   18.9710 C   0  0  0  0  0  2  0  0  0  0  0  0
  -29.4010  -12.6810   17.7840 C   0  0  0  0  0  2  0  0  0  0  0  0
  -27.9550  -12.5120   18.2870 C   0  0  0  0  0  2  0  0  0  0  0  0
  -27.6390  -13.4180   19.5080 C   0  0  0  0  0  3  0  0  0  0  0  0
  -28.7500  -13.3720   20.5790 C   0  0  0  0  0  2  0  0  0  0  0  0
  -30.0070  -13.7240   19.9120 N   0  0  0  0  0  0  0  0  0  0  0  0
  -31.8610  -14.9510   19.6030 O   0  0  0  0  0  0  0  0  0  0  0  0
  -29.9970  -16.1550   20.1490 N   0  0  0  0  0  0  0  0  0  0  0  0
  -29.0190  -16.1050   20.3870 H   0  0  0  0  0  0  0  0  0  0  0  0
  -25.3030  -14.0250   20.3600 C   0  0  0  0  0  0  0  0  0  0  0  0
  -24.2480  -13.2620   20.7750 C   0  0  0  0  0  0  0  0  0  0  0  0
  -24.6940  -11.9060   20.7210 C   0  0  0  0  0  0  0  0  0  0  0  0
  -26.3230  -13.1350   20.0690 N   0  0  0  0  0  0  0  0  0  0  0  0
  -25.9690  -11.8540   20.3510 N   0  0  0  0  0  0  0  0  0  0  0  0
  -23.9610  -10.6520   20.9400 C   0  0  0  0  0  0  0  0  0  0  0  0
  -24.4150   -9.6790   21.8580 C   0  0  0  0  0  3  0  0  0  0  0  0
  -23.6790   -8.4920   22.0660 C   0  0  0  0  0  3  0  0  0  0  0  0
  -22.4750   -8.2690   21.3560 C   0  0  0  0  0  0  0  0  0  0  0  0
  -22.0390   -9.2310   20.4270 C   0  0  0  0  0  3  0  0  0  0  0  0
  -22.7750  -10.4090   20.2180 C   0  0  0  0  0  3  0  0  0  0  0  0
  -21.7100   -7.1350   21.4740 O   0  0  0  0  0  0  0  0  0  0  0  0
  -21.7010   -6.3890   22.6250 C   0  0  0  0  0  0  0  0  0  0  0  0
  -21.3410   -6.9460   23.8720 C   0  0  0  0  0  3  0  0  0  0  0  0
  -21.2780   -6.1280   25.0180 C   0  0  0  0  0  3  0  0  0  0  0  0
  -21.5660   -4.7530   24.9170 C   0  0  0  0  0  0  0  0  0  0  0  0
  -21.9210   -4.1960   23.6770 C   0  0  0  0  0  3  0  0  0  0  0  0
  -21.9850   -5.0120   22.5330 C   0  0  0  0  0  0  0  0  0  0  0  0
  -22.3060   -4.4650   21.3360 F   0  0  0  0  0  0  0  0  0  0  0  0
  -21.4980   -3.9640   26.0150 F   0  0  0  0  0  0  0  0  0  0  0  0
  -22.8710  -13.7560   21.1100 C   0  0  0  0  0  0  0  0  0  0  0  0
  -22.1760  -13.0720   22.0110 N   0  0  0  0  0  0  0  0  0  0  0  0
  -22.4230  -14.7860   20.6080 O   0  0  0  0  0  0  0  0  0  0  0  0
  -22.5520  -12.2380   22.4380 H   0  0  0  0  0  0  0  0  0  0  0  0
  -21.2540  -13.3860   22.2790 H   0  0  0  0  0  0  0  0  0  0  0  0
  -25.4740  -15.3940   20.1800 N   0  0  0  0  0  0  0  0  0  0  0  0
  -24.7240  -16.0540   20.3500 H   0  0  0  0  0  0  0  0  0  0  0  0
  -26.3160  -15.8370   19.8370 H   0  0  0  0  0  0  0  0  0  0  0  0
  1  2  1  0
  2  4  2  0
  2  7  1  0
  3 53  1  0
  3  1  2  0
  4 10  1  0
  5  4  1  0
  6  3  1  0
  6  5  2  0
  8  5  1  0
  9  6  1  0
 11 12  1  0
 11 10  2  0
 13 24  2  0
 14 12  1  0
 14 19  1  0
 15 23  1  0
 15 25  1  0
 16 22  1  0
 16 18  1  0
 17 23  1  0
 18 17  1  0
 19 18  2  0
 20 21  1  0
 20 14  2  0
 21 16  2  0
 22 15  1  0
 23 13  1  0
 25 27  2  0
 26 25  1  0
 28 26  1  0
 29 38  2  0
 29 34  1  0
 30 26  1  0
 30 34  1  0
 31 30  1  0
 32 33  1  0
 32 31  1  0
 33 29  1  0
 34 35  2  0
 35 36  1  0
 37 36  2  0
 38 37  1  0
 39 13  1  0
 39 44  1  0
 39 40  1  0
 40 43  1  1
 40 41  1  0
 42 40  1  0
 44 47  1  0
 45 49  1  0
 45 44  1  0
 46 45  2  0
 49 48  1  0
 51 49  1  0
 51 52  1  0
 51 50  1  0
 53 62  1  0
 54 62  1  0
 55 60  1  0
 56 57  1  0
 56 55  1  0
 58 57  1  0
 58 67  1  0
 58 59  1  0
 60 54  1  0
 60 59  1  0
 61 54  2  0
 62 63  1  0
 64 65  2  0
 65 84  1  0
 66 65  1  0
 66 69  1  0
 67 68  1  0
 67 64  1  0
 68 66  2  0
 69 70  1  0
 70 71  2  0
 72 75  1  0
 72 71  1  0
 73 72  2  0
 74 73  1  0
 74 69  2  0
 75 76  1  0
 76 77  1  0
 77 78  2  0
 79 78  1  0
 79 83  1  0
 80 79  2  0
 81 76  2  0
 81 80  1  0
 82 81  1  0
 84 85  1  0
 85 88  1  0
 85 87  1  0
 86 84  2  0
 89 90  1  0
 89 64  1  0
 91 89  1  0
M  ISO  4  11 101  12 101  54 100  62 100
M  END
>  <TORSDO>  (40) 
F 19

>  <SCORE>  (40) 
-13.545

>  <name>  (40) 
39

>  <ligand_id>  (40) 
39

>  <original_smiles>  (40) 
[H]c1c([H])c([H])c2c(c1[H])C([H])([H])C([H])([H])C([H])([H])C2([H])N([H])C(=O)C1([H])N(C(=O)C([H])(N([H])C(=O)C([H])(N([H])C([H])([H])[H])C([H])([H])[H])C(C([H])([H])[H])(C([H])([H])[H])C([H])([H])[H])C([H])([H])c2c([H])c(OC([H])([H])C([H])([H])c3c(C([H])([H])[H])c([H])c(C([H])([H])N([H])C(=O)N4C([H])([H])C([H])([H])C([H])([H])C([H])(n5nc(-c6c([H])c([H])c(Oc7c([H])c([H])c(F)c([H])c7F)c([H])c6[H])c(C(=O)N([H])[H])c5N([H])[H])C4([H])[H])c(Cl)c3C([H])([H])[H])c([H])c([H])c2C1([H])[H]

>  <smiles>  (40) 
[H]c1c([H])c([H])c2c(c1[H])C([H])([H])C([H])([H])C([H])([H])C2([H])N([H])C(=O)C1([H])N(C(=O)C([H])(N([H])C(=O)C([H])(N([H])C([H])([H])[H])C([H])([H])[H])C(C([H])([H])[H])(C([H])([H])[H])C([H])([H])[H])C([H])([H])c2c([H])c(OC([H])([H])C([H])([H])c3c(C([H])([H])[H])c([H])c(C([H])([H])N([H])C(=O)N4C([H])([H])C([H])([H])C([H])([H])C([H])(n5nc(-c6c([H])c([H])c(Oc7c([H])c([H])c(F)c([H])c7F)c([H])c6[H])c(C(=O)N([H])[H])c5N([H])[H])C4([H])[H])c(Cl)c3C([H])([H])[H])c([H])c([H])c2C1([H])[H]

$$$$
40:0:0
     RDKit          3D

 90 98  0  0  1  0  0  0  0  0999 V2000
  -28.9780  -20.5330   21.8510 C   0  0  0  0  0  3  0  0  0  0  0  0
  -29.8490  -19.2590   19.9300 C   0  0  0  0  0  0  0  0  0  0  0  0
  -29.4390  -19.3150   21.2860 C   0  0  0  0  0  0  0  0  0  0  0  0
  -29.7440  -20.5950   19.2670 C   0  0  0  0  0  0  0  0  0  0  0  0
  -29.2550  -21.8460   19.9250 C   0  0  0  0  0  0  0  0  0  0  0  0
  -28.8960  -21.7400   21.2220 N   0  0  0  0  0  0  0  0  0  0  0  0
  -29.5110  -17.9280   22.3180 Cl  0  0  0  0  0  0  0  0  0  0  0  0
  -30.2720  -20.7150   17.6300 Cl  0  0  0  0  0  0  0  0  0  0  0  0
  -30.4610  -17.8560   19.2630 C   0  0  0  0  0  2  0  0  0  0  0  0
  -31.0320  -15.1460   19.4040 C   0  0  0  0  0  0  0  0  0  0  0  0
  -30.8140  -12.7680   18.5140 C   0  0  0  0  0  2  0  0  0  0  0  0
  -29.7310  -12.7040   17.4090 C   0  0  0  0  0  2  0  0  0  0  0  0
  -28.3450  -12.4780   18.0390 C   0  0  0  0  0  2  0  0  0  0  0  0
  -28.0820  -13.4280   19.2340 C   0  0  0  0  0  3  0  0  0  0  0  0
  -29.2690  -13.4690   20.2250 C   0  0  0  0  0  2  0  0  0  0  0  0
  -30.4530  -13.8770   19.4510 N   0  0  0  0  0  0  0  0  0  0  0  0
  -32.1800  -15.2190   18.9500 O   0  0  0  0  0  0  0  0  0  0  0  0
  -30.2700  -16.3210   19.6620 N   0  0  0  0  0  0  0  0  0  0  0  0
  -29.3590  -16.1170   20.0380 H   0  0  0  0  0  0  0  0  0  0  0  0
  -25.8660  -14.0260   20.3590 C   0  0  0  0  0  0  0  0  0  0  0  0
  -24.8290  -13.2530   20.8140 C   0  0  0  0  0  0  0  0  0  0  0  0
  -25.2210  -11.9000   20.6030 C   0  0  0  0  0  0  0  0  0  0  0  0
  -26.8160  -13.1360   19.8940 N   0  0  0  0  0  0  0  0  0  0  0  0
  -26.4500  -11.8450   20.1050 N   0  0  0  0  0  0  0  0  0  0  0  0
  -24.4700  -10.6470   20.7940 C   0  0  0  0  0  0  0  0  0  0  0  0
  -24.8900   -9.6690   21.7200 C   0  0  0  0  0  3  0  0  0  0  0  0
  -24.1410   -8.4860   21.9010 C   0  0  0  0  0  3  0  0  0  0  0  0
  -22.9580   -8.2730   21.1530 C   0  0  0  0  0  0  0  0  0  0  0  0
  -22.5570   -9.2410   20.2140 C   0  0  0  0  0  3  0  0  0  0  0  0
  -23.3080  -10.4160   20.0330 C   0  0  0  0  0  3  0  0  0  0  0  0
  -22.1840   -7.1420   21.2420 O   0  0  0  0  0  0  0  0  0  0  0  0
  -21.9620   -6.5110   22.4410 C   0  0  0  0  0  0  0  0  0  0  0  0
  -21.3590   -7.1750   23.5310 C   0  0  0  0  0  3  0  0  0  0  0  0
  -21.0910   -6.4710   24.7220 C   0  0  0  0  0  3  0  0  0  0  0  0
  -21.4110   -5.1040   24.8190 C   0  0  0  0  0  0  0  0  0  0  0  0
  -22.0060   -4.4400   23.7320 C   0  0  0  0  0  3  0  0  0  0  0  0
  -22.2790   -5.1420   22.5450 C   0  0  0  0  0  0  0  0  0  0  0  0
  -22.8320   -4.4920   21.4910 F   0  0  0  0  0  0  0  0  0  0  0  0
  -21.1450   -4.4240   25.9580 F   0  0  0  0  0  0  0  0  0  0  0  0
  -23.5080  -13.7550   21.3240 C   0  0  0  0  0  0  0  0  0  0  0  0
  -22.8930  -13.0250   22.2490 N   0  0  0  0  0  0  0  0  0  0  0  0
  -23.0320  -14.8180   20.9340 O   0  0  0  0  0  0  0  0  0  0  0  0
  -23.2910  -12.1600   22.5820 H   0  0  0  0  0  0  0  0  0  0  0  0
  -22.0120  -13.3400   22.6350 H   0  0  0  0  0  0  0  0  0  0  0  0
  -26.0720  -15.4000   20.2880 N   0  0  0  0  0  0  0  0  0  0  0  0
  -25.3860  -16.0630   20.6230 H   0  0  0  0  0  0  0  0  0  0  0  0
  -26.9000  -15.8430   19.9170 H   0  0  0  0  0  0  0  0  0  0  0  0
  -29.3530  -23.4320   19.4170 C   0  0  0  0  0  3  0  0  0  0  0  0
  -28.1910  -24.6660   19.5040 C   0  0  0  0  0  3  0  0  0  0  0  0
  -28.4120  -26.2240   19.3940 O   0  0  0  0  0  0  0  0  0  0  0  0
  -24.7240  -31.4960   23.0110 C   0  0  0  0  0  0  0  0  0  0  0  0
  -27.3240  -27.1770   19.4640 C   0  0  0  0  0  0  0  0  0  0  0  0
  -23.5040  -30.2220   21.2920 C   0  0  0  0  0  3  0  0  0  0  0  0
  -24.9420  -28.8460   19.6660 C   0  0  0  0  0  0  0  0  0  0  0  0
  -26.0360  -30.5980   21.0510 C   0  0  0  0  0  2  0  0  0  0  0  0
  -26.1290  -29.2730   20.2700 C   0  0  0  0  0  0  0  0  0  0  0  0
  -27.3200  -28.4610   20.1510 C   0  0  0  0  0  3  0  0  0  0  0  0
  -26.1050  -26.8540   18.8300 C   0  0  0  0  0  3  0  0  0  0  0  0
  -24.9420  -27.6500   18.9310 C   0  0  0  0  0  3  0  0  0  0  0  0
  -23.6870  -29.6880   19.8470 C   0  0  0  0  0  2  0  0  0  0  0  0
  -24.7760  -30.7910   21.8390 N   0  0  0  0  0  0  0  0  0  0  0  0
  -23.6530  -31.6880   23.6070 O   0  0  0  0  0  0  0  0  0  0  0  0
  -22.9020  -29.1040   22.1770 C   0  0  0  0  0  0  0  0  0  0  0  0
  -21.5800  -28.8760   22.0650 N   0  0  0  0  0  0  0  0  0  0  0  0
  -23.6230  -28.4460   22.9320 O   0  0  0  0  0  0  0  0  0  0  0  0
  -21.0490  -29.4640   21.4370 H   0  0  0  0  0  0  0  0  0  0  0  0
  -18.2830  -27.4360   22.5170 C   0  0  0  0  0  0  0  0  0  0  0  0
  -20.8290  -27.8310   22.7660 C   0  0  0  0  0  3  0  0  0  0  0  0
  -21.0020  -26.4560   22.0750 C   0  0  0  0  0  2  0  0  0  0  0  0
  -19.9010  -26.1500   21.0560 C   0  0  0  0  0  2  0  0  0  0  0  0
  -18.5260  -26.1560   21.7340 C   0  0  0  0  0  2  0  0  0  0  0  0
  -19.3650  -28.2280   22.9900 C   0  0  0  0  0  0  0  0  0  0  0  0
  -19.0840  -29.4250   23.6850 C   0  0  0  0  0  3  0  0  0  0  0  0
  -17.7550  -29.8310   23.9130 C   0  0  0  0  0  3  0  0  0  0  0  0
  -16.6910  -29.0360   23.4580 C   0  0  0  0  0  3  0  0  0  0  0  0
  -16.9550  -27.8430   22.7600 C   0  0  0  0  0  3  0  0  0  0  0  0
  -26.0070  -32.1170   23.6440 C   0  0  0  0  0  3  0  0  0  0  0  0
  -26.5680  -31.2760   24.8580 C   0  0  1  0  0  0  0  0  0  0  0  0
  -25.5040  -30.9330   25.9260 C   0  0  0  0  0  1  0  0  0  0  0  0
  -27.1840  -29.9470   24.3660 C   0  0  0  0  0  1  0  0  0  0  0  0
  -27.7070  -32.0590   25.5530 C   0  0  0  0  0  1  0  0  0  0  0  0
  -25.6760  -33.4820   24.0790 N   0  0  0  0  0  0  0  0  0  0  0  0
  -25.9790  -34.5980   23.3970 C   0  0  0  0  0  0  0  0  0  0  0  0
  -26.6370  -34.5830   22.3520 O   0  0  0  0  0  0  0  0  0  0  0  0
  -25.0870  -33.5680   24.8960 H   0  0  0  0  0  0  0  0  0  0  0  0
  -24.2210  -36.3870   23.1990 C   0  0  0  0  0  1  0  0  0  0  0  0
  -25.4770  -35.9390   23.9640 C   0  0  0  0  0  3  0  0  0  0  0  0
  -27.6050  -36.7970   24.8410 C   0  0  0  0  0  1  0  0  0  0  0  0
  -26.4930  -37.0180   23.9200 N   0  0  0  0  0  0  0  0  0  0  0  0
  -26.0710  -37.9150   24.1410 H   0  0  0  0  0  0  0  0  0  0  0  0
  2  3  2  0
  3  1  1  0
  3  7  1  0
  4  5  2  0
  4  2  1  0
  5  6  1  0
  6  1  2  0
  8  4  1  0
  9 18  1  0
  9  2  1  0
 10 16  1  0
 10 18  1  0
 11 16  1  0
 12 13  1  0
 12 11  1  0
 14 13  1  0
 14 23  1  0
 14 15  1  0
 16 15  1  0
 17 10  2  0
 18 19  1  0
 20 21  2  0
 21 40  1  0
 22 25  1  0
 22 21  1  0
 23 24  1  0
 23 20  1  0
 24 22  2  0
 25 26  1  0
 26 27  2  0
 28 31  1  0
 28 27  1  0
 29 28  2  0
 30 29  1  0
 30 25  2  0
 31 32  1  0
 32 37  2  0
 32 33  1  0
 33 34  2  0
 34 35  1  0
 35 39  1  0
 36 35  2  0
 37 36  1  0
 38 37  1  0
 40 41  1  0
 41 43  1  0
 41 44  1  0
 42 40  2  0
 45 20  1  0
 45 46  1  0
 47 45  1  0
 48 49  2  0
 48  5  1  0
 50 52  1  0
 50 49  1  0
 51 62  2  0
 52 57  1  0
 53 61  1  0
 53 63  1  0
 54 60  1  0
 54 56  1  0
 55 61  1  0
 56 55  1  0
 57 56  2  0
 58 59  1  0
 58 52  2  0
 59 54  2  0
 60 53  1  0
 61 51  1  0
 63 65  2  0
 64 63  1  0
 66 64  1  0
 67 76  2  0
 67 72  1  0
 68 64  1  0
 68 72  1  0
 69 68  1  0
 70 71  1  0
 70 69  1  0
 71 67  1  0
 72 73  2  0
 73 74  1  0
 75 74  2  0
 76 75  1  0
 77 51  1  0
 77 82  1  0
 77 78  1  0
 78 81  1  1
 78 79  1  0
 80 78  1  0
 82 85  1  0
 83 87  1  0
 83 82  1  0
 84 83  2  0
 87 86  1  0
 89 87  1  0
 89 90  1  0
 89 88  1  0
M  ISO  4  10 100  18 100  49 101  50 101
M  END
>  <TORSDO>  (41) 
F 19

>  <SCORE>  (41) 
-10.742

>  <name>  (41) 
40

>  <ligand_id>  (41) 
40

>  <original_smiles>  (41) 
[H]c1nc(C([H])([H])C([H])([H])Oc2c([H])c([H])c3c(c2[H])C([H])([H])N(C(=O)C([H])(N([H])C(=O)C([H])(N([H])C([H])([H])[H])C([H])([H])[H])C(C([H])([H])[H])(C([H])([H])[H])C([H])([H])[H])C([H])(C(=O)N([H])C2([H])c4c([H])c([H])c([H])c([H])c4C([H])([H])C([H])([H])C2([H])[H])C3([H])[H])c(Cl)c(C([H])([H])N([H])C(=O)N2C([H])([H])C([H])([H])C([H])([H])C([H])(n3nc(-c4c([H])c([H])c(Oc5c([H])c([H])c(F)c([H])c5F)c([H])c4[H])c(C(=O)N([H])[H])c3N([H])[H])C2([H])[H])c1Cl

>  <smiles>  (41) 
[H]c1nc(C([H])([H])C([H])([H])Oc2c([H])c([H])c3c(c2[H])C([H])([H])N(C(=O)C([H])(N([H])C(=O)C([H])(N([H])C([H])([H])[H])C([H])([H])[H])C(C([H])([H])[H])(C([H])([H])[H])C([H])([H])[H])C([H])(C(=O)N([H])C2([H])c4c([H])c([H])c([H])c([H])c4C([H])([H])C([H])([H])C2([H])[H])C3([H])[H])c(Cl)c(C([H])([H])N([H])C(=O)N2C([H])([H])C([H])([H])C([H])([H])C([H])(n3nc(-c4c([H])c([H])c(Oc5c([H])c([H])c(F)c([H])c5F)c([H])c4[H])c(C(=O)N([H])[H])c3N([H])[H])C2([H])[H])c1Cl

$$$$
41:0:0
     RDKit          3D

 93101  0  0  1  0  0  0  0  0999 V2000
  -29.8680  -17.8320   19.4010 C   0  0  0  0  0  3  0  0  0  0  0  0
  -30.2950  -18.0460   20.7190 C   0  0  0  0  0  0  0  0  0  0  0  0
  -29.7840  -20.4820   20.4420 C   0  0  0  0  0  0  0  0  0  0  0  0
  -29.4240  -20.2350   19.0830 C   0  0  0  0  0  0  0  0  0  0  0  0
  -30.2300  -19.3770   21.2330 C   0  0  0  0  0  0  0  0  0  0  0  0
  -29.4330  -18.8970   18.5930 C   0  0  0  0  0  0  0  0  0  0  0  0
  -29.0360  -21.3760   18.1490 C   0  0  0  0  0  1  0  0  0  0  0  0
  -30.5930  -19.5900   22.5230 F   0  0  0  0  0  0  0  0  0  0  0  0
  -28.9310  -18.4940   16.9890 Cl  0  0  0  0  0  0  0  0  0  0  0  0
  -29.6250  -21.8620   21.1670 C   0  0  0  0  0  2  0  0  0  0  0  0
  -29.8270  -23.2820   20.5120 C   0  0  0  0  0  2  0  0  0  0  0  0
  -28.5950  -24.2620   20.3900 C   0  0  0  0  0  2  0  0  0  0  0  0
  -28.6990  -25.6110   21.1770 C   0  0  0  0  0  2  0  0  0  0  0  0
  -28.6250  -26.7570   20.3150 O   0  0  0  0  0  0  0  0  0  0  0  0
  -24.6940  -31.8910   23.2990 C   0  0  0  0  0  0  0  0  0  0  0  0
  -27.4380  -27.4560   20.3180 C   0  0  0  0  0  0  0  0  0  0  0  0
  -23.5300  -30.4610   21.6490 C   0  0  0  0  0  3  0  0  0  0  0  0
  -25.0260  -28.9190   20.2720 C   0  0  0  0  0  0  0  0  0  0  0  0
  -26.0550  -30.8480   21.4900 C   0  0  0  0  0  2  0  0  0  0  0  0
  -26.1680  -29.4740   20.8630 C   0  0  0  0  0  0  0  0  0  0  0  0
  -27.3800  -28.7550   20.8730 C   0  0  0  0  0  3  0  0  0  0  0  0
  -26.2810  -26.9000   19.7320 C   0  0  0  0  0  3  0  0  0  0  0  0
  -25.0770  -27.6320   19.7020 C   0  0  0  0  0  3  0  0  0  0  0  0
  -23.7720  -29.7630   20.2810 C   0  0  0  0  0  2  0  0  0  0  0  0
  -24.7770  -31.0820   22.2050 N   0  0  0  0  0  0  0  0  0  0  0  0
  -23.6010  -32.1570   23.8160 O   0  0  0  0  0  0  0  0  0  0  0  0
  -22.8690  -29.4480   22.6090 C   0  0  0  0  0  0  0  0  0  0  0  0
  -21.5470  -29.2600   22.4630 N   0  0  0  0  0  0  0  0  0  0  0  0
  -23.5430  -28.8290   23.4360 O   0  0  0  0  0  0  0  0  0  0  0  0
  -21.0690  -29.8070   21.7590 H   0  0  0  0  0  0  0  0  0  0  0  0
  -18.1650  -28.0760   22.9300 C   0  0  0  0  0  0  0  0  0  0  0  0
  -20.7200  -28.3260   23.2260 C   0  0  0  0  0  3  0  0  0  0  0  0
  -20.8250  -26.8960   22.6510 C   0  0  0  0  0  2  0  0  0  0  0  0
  -19.7320  -26.5770   21.6270 C   0  0  0  0  0  2  0  0  0  0  0  0
  -18.3440  -26.7260   22.2570 C   0  0  0  0  0  2  0  0  0  0  0  0
  -19.2820  -28.8360   23.3690 C   0  0  0  0  0  0  0  0  0  0  0  0
  -19.0600  -30.1010   23.9550 C   0  0  0  0  0  3  0  0  0  0  0  0
  -17.7550  -30.6040   24.1110 C   0  0  0  0  0  3  0  0  0  0  0  0
  -16.6520  -29.8410   23.6890 C   0  0  0  0  0  3  0  0  0  0  0  0
  -16.8590  -28.5800   23.1030 C   0  0  0  0  0  3  0  0  0  0  0  0
  -25.9610  -32.5380   23.9370 C   0  0  0  0  0  3  0  0  0  0  0  0
  -25.6400  -33.9400   24.2360 N   0  0  0  0  0  0  0  0  0  0  0  0
  -25.9820  -34.9810   23.4640 C   0  0  0  0  0  0  0  0  0  0  0  0
  -26.6690  -34.8620   22.4460 O   0  0  0  0  0  0  0  0  0  0  0  0
  -25.0310  -34.1080   25.0240 H   0  0  0  0  0  0  0  0  0  0  0  0
  -24.2470  -36.7530   23.0480 C   0  0  0  0  0  1  0  0  0  0  0  0
  -25.4790  -36.3750   23.8870 C   0  0  0  0  0  3  0  0  0  0  0  0
  -27.5940  -37.2860   24.7320 C   0  0  0  0  0  1  0  0  0  0  0  0
  -26.5060  -37.4310   23.7700 N   0  0  0  0  0  0  0  0  0  0  0  0
  -26.0930  -38.3520   23.8950 H   0  0  0  0  0  0  0  0  0  0  0  0
  -26.4590  -31.7900   25.2350 C   0  0  1  0  0  0  0  0  0  0  0  0
  -25.3480  -31.5640   26.2860 C   0  0  0  0  0  1  0  0  0  0  0  0
  -27.0590  -30.4110   24.8770 C   0  0  0  0  0  1  0  0  0  0  0  0
  -27.5960  -32.6010   25.9040 C   0  0  0  0  0  1  0  0  0  0  0  0
  -30.8580  -16.8540   21.5290 C   0  0  0  0  0  2  0  0  0  0  0  0
  -30.7890  -14.5380   20.4600 C   0  0  0  0  0  0  0  0  0  0  0  0
  -30.3930  -12.4170   19.2330 C   0  0  0  0  0  2  0  0  0  0  0  0
  -29.4270  -12.6030   18.0460 C   0  0  0  0  0  2  0  0  0  0  0  0
  -27.9830  -12.3960   18.5300 C   0  0  0  0  0  2  0  0  0  0  0  0
  -27.6520  -13.2740   19.7650 C   0  0  0  0  0  3  0  0  0  0  0  0
  -28.7310  -13.1180   20.8680 C   0  0  0  0  0  2  0  0  0  0  0  0
  -30.0530  -13.4000   20.2810 N   0  0  0  0  0  0  0  0  0  0  0  0
  -31.8580  -14.7190   19.8710 O   0  0  0  0  0  0  0  0  0  0  0  0
  -30.2710  -15.5080   21.2430 N   0  0  0  0  0  0  0  0  0  0  0  0
  -29.4050  -15.2950   21.7220 H   0  0  0  0  0  0  0  0  0  0  0  0
  -25.2790  -13.8800   20.5430 C   0  0  0  0  0  0  0  0  0  0  0  0
  -24.2160  -13.1080   20.9300 C   0  0  0  0  0  0  0  0  0  0  0  0
  -24.6740  -11.7550   20.8760 C   0  0  0  0  0  0  0  0  0  0  0  0
  -26.3130  -12.9980   20.2720 N   0  0  0  0  0  0  0  0  0  0  0  0
  -25.9550  -11.7140   20.5340 N   0  0  0  0  0  0  0  0  0  0  0  0
  -23.9440  -10.4980   21.0710 C   0  0  0  0  0  0  0  0  0  0  0  0
  -24.3980   -9.5140   21.9770 C   0  0  0  0  0  3  0  0  0  0  0  0
  -23.6720   -8.3160   22.1580 C   0  0  0  0  0  3  0  0  0  0  0  0
  -22.4760   -8.0960   21.4320 C   0  0  0  0  0  0  0  0  0  0  0  0
  -22.0420   -9.0660   20.5110 C   0  0  0  0  0  3  0  0  0  0  0  0
  -22.7700  -10.2550   20.3290 C   0  0  0  0  0  3  0  0  0  0  0  0
  -21.7150   -6.9560   21.5250 O   0  0  0  0  0  0  0  0  0  0  0  0
  -21.6930   -6.2000   22.6700 C   0  0  0  0  0  0  0  0  0  0  0  0
  -21.3000   -6.7420   23.9130 C   0  0  0  0  0  3  0  0  0  0  0  0
  -21.2220   -5.9140   25.0480 C   0  0  0  0  0  3  0  0  0  0  0  0
  -21.5310   -4.5450   24.9460 C   0  0  0  0  0  0  0  0  0  0  0  0
  -21.9190   -4.0010   23.7090 C   0  0  0  0  0  3  0  0  0  0  0  0
  -21.9990   -4.8270   22.5730 C   0  0  0  0  0  0  0  0  0  0  0  0
  -22.3540   -4.2970   21.3780 F   0  0  0  0  0  0  0  0  0  0  0  0
  -21.4520   -3.7430   26.0340 F   0  0  0  0  0  0  0  0  0  0  0  0
  -22.8310  -13.5890   21.2460 C   0  0  0  0  0  0  0  0  0  0  0  0
  -22.1190  -12.8930   22.1220 N   0  0  0  0  0  0  0  0  0  0  0  0
  -22.3880  -14.6240   20.7490 O   0  0  0  0  0  0  0  0  0  0  0  0
  -22.4860  -12.0580   22.5530 H   0  0  0  0  0  0  0  0  0  0  0  0
  -21.1910  -13.2010   22.3700 H   0  0  0  0  0  0  0  0  0  0  0  0
  -25.4420  -15.2510   20.3750 N   0  0  0  0  0  0  0  0  0  0  0  0
  -24.6790  -15.8990   20.5420 H   0  0  0  0  0  0  0  0  0  0  0  0
  -26.2800  -15.7050   20.0320 H   0  0  0  0  0  0  0  0  0  0  0  0
  1  2  1  0
  2  5  2  0
  2 55  1  0
  3 10  1  0
  3  5  1  0
  4  3  2  0
  5  8  1  0
  6  4  1  0
  6  1  2  0
  7  4  1  0
  9  6  1  0
 11 10  1  0
 12 11  1  0
 12 13  1  0
 14 16  1  0
 14 13  1  0
 15 26  2  0
 16 21  1  0
 17 25  1  0
 17 27  1  0
 18 24  1  0
 18 20  1  0
 19 25  1  0
 20 21  2  0
 20 19  1  0
 22 16  2  0
 23 22  1  0
 23 18  2  0
 24 17  1  0
 25 15  1  0
 27 29  2  0
 28 27  1  0
 30 28  1  0
 31 40  2  0
 31 36  1  0
 32 28  1  0
 32 36  1  0
 33 32  1  0
 34 35  1  0
 34 33  1  0
 35 31  1  0
 36 37  2  0
 37 38  1  0
 39 38  2  0
 40 39  1  0
 41 15  1  0
 41 42  1  0
 41 51  1  0
 42 45  1  0
 43 47  1  0
 43 42  1  0
 44 43  2  0
 47 46  1  0
 49 47  1  0
 49 50  1  0
 49 48  1  0
 51 54  1  1
 51 52  1  0
 53 51  1  0
 56 64  1  0
 57 62  1  0
 58 59  1  0
 58 57  1  0
 60 59  1  0
 60 69  1  0
 60 61  1  0
 62 56  1  0
 62 61  1  0
 63 56  2  0
 64 55  1  0
 64 65  1  0
 66 67  2  0
 67 86  1  0
 68 67  1  0
 68 71  1  0
 69 70  1  0
 69 66  1  0
 70 68  2  0
 71 72  1  0
 72 73  2  0
 74 77  1  0
 74 73  1  0
 75 74  2  0
 76 75  1  0
 76 71  2  0
 77 78  1  0
 78 79  1  0
 79 80  2  0
 81 80  1  0
 81 85  1  0
 82 81  2  0
 83 78  2  0
 83 82  1  0
 84 83  1  0
 86 87  1  0
 87 90  1  0
 87 89  1  0
 88 86  2  0
 91 92  1  0
 91 66  1  0
 93 91  1  0
M  ISO  4  13 101  14 101  56 100  64 100
M  END
>  <TORSDO>  (42) 
F 21

>  <SCORE>  (42) 
-13.724

>  <name>  (42) 
41

>  <ligand_id>  (42) 
41

>  <original_smiles>  (42) 
[H]c1c([H])c([H])c2c(c1[H])C([H])([H])C([H])([H])C([H])([H])C2([H])N([H])C(=O)C1([H])N(C(=O)C([H])(N([H])C(=O)C([H])(N([H])C([H])([H])[H])C([H])([H])[H])C(C([H])([H])[H])(C([H])([H])[H])C([H])([H])[H])C([H])([H])c2c([H])c(OC([H])([H])C([H])([H])C([H])([H])C([H])([H])c3c(F)c(C([H])([H])N([H])C(=O)N4C([H])([H])C([H])([H])C([H])([H])C([H])(n5nc(-c6c([H])c([H])c(Oc7c([H])c([H])c(F)c([H])c7F)c([H])c6[H])c(C(=O)N([H])[H])c5N([H])[H])C4([H])[H])c([H])c(Cl)c3C([H])([H])[H])c([H])c([H])c2C1([H])[H]

>  <smiles>  (42) 
[H]c1c([H])c([H])c2c(c1[H])C([H])([H])C([H])([H])C([H])([H])C2([H])N([H])C(=O)C1([H])N(C(=O)C([H])(N([H])C(=O)C([H])(N([H])C([H])([H])[H])C([H])([H])[H])C(C([H])([H])[H])(C([H])([H])[H])C([H])([H])[H])C([H])([H])c2c([H])c(OC([H])([H])C([H])([H])C([H])([H])C([H])([H])c3c(F)c(C([H])([H])N([H])C(=O)N4C([H])([H])C([H])([H])C([H])([H])C([H])(n5nc(-c6c([H])c([H])c(Oc7c([H])c([H])c(F)c([H])c7F)c([H])c6[H])c(C(=O)N([H])[H])c5N([H])[H])C4([H])[H])c([H])c(Cl)c3C([H])([H])[H])c([H])c([H])c2C1([H])[H]

$$$$
42:0:0
     RDKit          3D

101110  0  0  1  0  0  0  0  0999 V2000
  -31.2210  -20.1350   21.3210 C   0  0  0  0  0  0  0  0  0  0  0  0
  -31.0320  -21.4990   20.8830 C   0  0  0  0  0  0  0  0  0  0  0  0
  -30.7790  -21.7660   19.5020 C   0  0  0  0  0  0  0  0  0  0  0  0
  -31.2280  -19.1360   20.2950 C   0  0  0  0  0  0  0  0  0  0  0  0
  -30.6510  -20.6660   18.6290 C   0  0  0  0  0  0  0  0  0  0  0  0
  -30.9540  -17.0950   22.8220 C   0  0  0  0  0  2  0  0  0  0  0  0
  -30.4630  -18.5090   23.1540 C   0  0  0  0  0  2  0  0  0  0  0  0
  -31.7390  -17.6840   20.4440 C   0  0  0  0  0  3  0  0  0  0  0  0
  -30.9330  -16.6930   21.3360 C   0  0  0  0  0  3  0  0  0  0  0  0
  -31.4290  -19.6680   22.8010 C   0  0  2  0  0  0  0  0  0  0  0  0
  -31.1460  -22.6930   21.8290 C   0  0  0  0  0  1  0  0  0  0  0  0
  -30.3020  -20.8090   17.1560 C   0  0  0  0  0  1  0  0  0  0  0  0
  -31.3180  -20.6830   23.9610 C   0  0  0  0  0  1  0  0  0  0  0  0
  -30.8780  -19.4060   19.0180 N   0  0  0  0  0  0  0  0  0  0  0  0
  -32.6880  -19.2590   22.9410 F   0  0  0  0  0  0  0  0  0  0  0  0
  -33.5030  -17.6330   20.7630 Cl  0  0  0  0  0  0  0  0  0  0  0  0
  -31.4340  -15.2110   21.2140 C   0  0  0  0  0  3  0  0  0  0  0  0
  -30.9420  -14.4460   22.1910 F   0  0  0  0  0  0  0  0  0  0  0  0
  -31.3060  -14.5160   19.8300 C   0  0  0  0  0  0  0  0  0  0  0  0
  -30.6610  -12.5390   18.4960 C   0  0  0  0  0  2  0  0  0  0  0  0
  -29.6190  -12.8140   17.4010 C   0  0  0  0  0  2  0  0  0  0  0  0
  -28.1960  -12.6880   17.9690 C   0  0  0  0  0  2  0  0  0  0  0  0
  -28.0120  -13.5120   19.2660 C   0  0  0  0  0  3  0  0  0  0  0  0
  -29.1510  -13.2480   20.2730 C   0  0  0  0  0  2  0  0  0  0  0  0
  -30.4490  -13.4790   19.6120 N   0  0  0  0  0  0  0  0  0  0  0  0
  -32.1410  -14.8350   18.9800 O   0  0  0  0  0  0  0  0  0  0  0  0
  -25.7290  -14.1800   20.2520 C   0  0  0  0  0  0  0  0  0  0  0  0
  -24.6730  -13.4340   20.6980 C   0  0  0  0  0  0  0  0  0  0  0  0
  -25.0670  -12.0680   20.5620 C   0  0  0  0  0  0  0  0  0  0  0  0
  -26.7040  -13.2700   19.8710 N   0  0  0  0  0  0  0  0  0  0  0  0
  -26.3150  -11.9930   20.1160 N   0  0  0  0  0  0  0  0  0  0  0  0
  -24.3110  -10.8270   20.7750 C   0  0  0  0  0  0  0  0  0  0  0  0
  -24.7320   -9.8550   21.7090 C   0  0  0  0  0  3  0  0  0  0  0  0
  -23.9750   -8.6790   21.9080 C   0  0  0  0  0  3  0  0  0  0  0  0
  -22.7860   -8.4660   21.1700 C   0  0  0  0  0  0  0  0  0  0  0  0
  -22.3880   -9.4250   20.2230 C   0  0  0  0  0  3  0  0  0  0  0  0
  -23.1430  -10.5930   20.0240 C   0  0  0  0  0  3  0  0  0  0  0  0
  -22.0030   -7.3420   21.2770 O   0  0  0  0  0  0  0  0  0  0  0  0
  -21.8710   -6.6680   22.4650 C   0  0  0  0  0  0  0  0  0  0  0  0
  -21.3810   -7.2990   23.6300 C   0  0  0  0  0  3  0  0  0  0  0  0
  -21.1930   -6.5520   24.8090 C   0  0  0  0  0  3  0  0  0  0  0  0
  -21.4870   -5.1740   24.8250 C   0  0  0  0  0  0  0  0  0  0  0  0
  -21.9720   -4.5450   23.6650 C   0  0  0  0  0  3  0  0  0  0  0  0
  -22.1590   -5.2890   22.4880 C   0  0  0  0  0  0  0  0  0  0  0  0
  -22.6040   -4.6720   21.3660 F   0  0  0  0  0  0  0  0  0  0  0  0
  -21.3000   -4.4530   25.9550 F   0  0  0  0  0  0  0  0  0  0  0  0
  -23.3330  -13.9500   21.1380 C   0  0  0  0  0  0  0  0  0  0  0  0
  -22.6840  -13.2560   22.0660 N   0  0  0  0  0  0  0  0  0  0  0  0
  -22.8760  -15.0020   20.6910 O   0  0  0  0  0  0  0  0  0  0  0  0
  -23.0690  -12.4030   22.4440 H   0  0  0  0  0  0  0  0  0  0  0  0
  -21.7890  -13.5810   22.4040 H   0  0  0  0  0  0  0  0  0  0  0  0
  -25.9390  -15.5500   20.1190 N   0  0  0  0  0  0  0  0  0  0  0  0
  -25.2280  -16.2370   20.3460 H   0  0  0  0  0  0  0  0  0  0  0  0
  -26.7770  -15.9640   19.7310 H   0  0  0  0  0  0  0  0  0  0  0  0
  -30.7480  -23.1980   18.9200 C   0  0  0  0  0  2  0  0  0  0  0  0
  -29.4380  -23.8850   19.0210 N   0  0  0  0  0  4  0  0  0  0  0  0
  -29.1530  -23.9540   19.9840 H   0  0  0  0  0  0  0  0  0  0  0  0
  -28.7510  -23.3220   18.5430 H   0  0  0  0  0  0  0  0  0  0  0  0
  -29.4430  -25.2460   18.4150 C   0  0  0  0  0  2  0  0  0  0  0  0
  -28.0610  -25.9290   18.4400 C   0  0  0  0  0  2  0  0  0  0  0  0
  -27.8950  -26.6900   19.6400 O   0  0  0  0  0  0  0  0  0  0  0  0
  -24.5400  -31.7940   23.3030 C   0  0  0  0  0  0  0  0  0  0  0  0
  -26.7440  -27.4430   19.7650 C   0  0  0  0  0  0  0  0  0  0  0  0
  -23.1520  -30.5430   21.6830 C   0  0  0  0  0  3  0  0  0  0  0  0
  -24.4230  -29.0350   20.0670 C   0  0  0  0  0  0  0  0  0  0  0  0
  -25.6710  -30.8040   21.3160 C   0  0  0  0  0  2  0  0  0  0  0  0
  -25.6440  -29.4710   20.5980 C   0  0  0  0  0  0  0  0  0  0  0  0
  -26.8020  -28.6740   20.4570 C   0  0  0  0  0  3  0  0  0  0  0  0
  -25.4970  -27.0120   19.2520 C   0  0  0  0  0  3  0  0  0  0  0  0
  -24.3440  -27.8020   19.3990 C   0  0  0  0  0  3  0  0  0  0  0  0
  -23.2270  -29.9390   20.2550 C   0  0  0  0  0  2  0  0  0  0  0  0
  -24.4780  -31.0570   22.1570 N   0  0  0  0  0  0  0  0  0  0  0  0
  -23.5150  -32.0790   23.9370 O   0  0  0  0  0  0  0  0  0  0  0  0
  -22.5290  -29.4930   22.6320 C   0  0  0  0  0  0  0  0  0  0  0  0
  -21.2080  -29.2860   22.5070 N   0  0  0  0  0  0  0  0  0  0  0  0
  -23.2310  -28.8690   23.4330 O   0  0  0  0  0  0  0  0  0  0  0  0
  -20.7010  -29.8430   21.8320 H   0  0  0  0  0  0  0  0  0  0  0  0
  -17.8820  -27.9380   22.9210 C   0  0  0  0  0  0  0  0  0  0  0  0
  -20.4140  -28.3220   23.2690 C   0  0  0  0  0  3  0  0  0  0  0  0
  -20.6040  -26.8890   22.7200 C   0  0  0  0  0  2  0  0  0  0  0  0
  -19.5510  -26.4970   21.6790 C   0  0  0  0  0  2  0  0  0  0  0  0
  -18.1440  -26.5870   22.2770 C   0  0  0  0  0  2  0  0  0  0  0  0
  -18.9480  -28.7590   23.3740 C   0  0  0  0  0  0  0  0  0  0  0  0
  -18.6510  -30.0210   23.9330 C   0  0  0  0  0  3  0  0  0  0  0  0
  -17.3190  -30.4610   24.0490 C   0  0  0  0  0  3  0  0  0  0  0  0
  -16.2670  -29.6380   23.6130 C   0  0  0  0  0  3  0  0  0  0  0  0
  -16.5490  -28.3780   23.0550 C   0  0  0  0  0  3  0  0  0  0  0  0
  -25.8960  -32.3310   23.8550 C   0  0  0  0  0  3  0  0  0  0  0  0
  -25.7080  -33.7510   24.1780 N   0  0  0  0  0  0  0  0  0  0  0  0
  -26.1030  -34.7670   23.4000 C   0  0  0  0  0  0  0  0  0  0  0  0
  -26.7350  -34.6020   22.3530 O   0  0  0  0  0  0  0  0  0  0  0  0
  -25.1460  -33.9600   24.9920 H   0  0  0  0  0  0  0  0  0  0  0  0
  -24.5150  -36.6880   23.0680 C   0  0  0  0  0  1  0  0  0  0  0  0
  -25.7390  -36.1920   23.8560 C   0  0  0  0  0  3  0  0  0  0  0  0
  -27.9570  -36.9090   24.6300 C   0  0  0  0  0  1  0  0  0  0  0  0
  -26.8500  -37.1580   23.7100 N   0  0  0  0  0  0  0  0  0  0  0  0
  -26.5220  -38.1090   23.8610 H   0  0  0  0  0  0  0  0  0  0  0  0
  -26.4170  -31.5340   25.1130 C   0  0  1  0  0  0  0  0  0  0  0  0
  -25.3430  -31.3310   26.2070 C   0  0  0  0  0  1  0  0  0  0  0  0
  -26.9340  -30.1370   24.6970 C   0  0  0  0  0  1  0  0  0  0  0  0
  -27.6140  -32.2790   25.7480 C   0  0  0  0  0  1  0  0  0  0  0  0
  1 10  1  0
  2  1  1  0
  2 11  1  0
  3  2  2  0
  4  8  1  0
  4  1  2  0
  5 14  2  0
  5  3  1  0
  6  7  1  0
  8 16  1  0
  8  9  1  0
  9 17  1  0
  9  6  1  0
 10 15  1  0
 10  7  1  0
 10 13  1  1
 12  5  1  0
 14  4  1  0
 17 18  1  0
 19 17  1  0
 20 25  1  0
 21 22  1  0
 21 20  1  0
 23 22  1  0
 23 30  1  0
 23 24  1  0
 25 19  1  0
 25 24  1  0
 26 19  2  0
 27 28  2  0
 28 47  1  0
 29 28  1  0
 29 32  1  0
 30 31  1  0
 30 27  1  0
 31 29  2  0
 32 33  1  0
 33 34  2  0
 35 38  1  0
 35 34  1  0
 36 35  2  0
 37 36  1  0
 37 32  2  0
 38 39  1  0
 39 44  2  0
 39 40  1  0
 40 41  2  0
 41 42  1  0
 42 46  1  0
 43 42  2  0
 44 43  1  0
 45 44  1  0
 47 48  1  0
 48 51  1  0
 48 50  1  0
 49 47  2  0
 52 27  1  0
 52 53  1  0
 54 52  1  0
 55 56  1  0
 55  3  1  0
 56 57  1  0
 58 56  1  0
 59 60  1  0
 59 56  1  0
 60 61  1  0
 61 63  1  0
 62 73  2  0
 63 68  1  0
 64 72  1  0
 64 74  1  0
 65 71  1  0
 65 67  1  0
 66 72  1  0
 67 66  1  0
 68 67  2  0
 69 70  1  0
 69 63  2  0
 70 65  2  0
 71 64  1  0
 72 62  1  0
 74 76  2  0
 75 74  1  0
 77 75  1  0
 78 87  2  0
 78 83  1  0
 79 75  1  0
 79 83  1  0
 80 79  1  0
 81 82  1  0
 81 80  1  0
 82 78  1  0
 83 84  2  0
 84 85  1  0
 86 85  2  0
 87 86  1  0
 88 62  1  0
 88 89  1  0
 88 98  1  0
 89 92  1  0
 90 94  1  0
 90 89  1  0
 91 90  2  0
 94 93  1  0
 96 94  1  0
 96 97  1  0
 96 95  1  0
 98101  1  1
 98 99  1  0
100 98  1  0
M  ISO  4  17 100  19 100  60 101  61 101
M  END
>  <TORSDO>  (43) 
F 21

>  <SCORE>  (43) 
-11.072

>  <name>  (43) 
42

>  <ligand_id>  (43) 
42

>  <original_smiles>  (43) 
[H]c1c([H])c([H])c2c(c1[H])C([H])([H])C([H])([H])C([H])([H])C2([H])N([H])C(=O)C1([H])N(C(=O)C([H])(N([H])C(=O)C([H])(N([H])C([H])([H])[H])C([H])([H])[H])C(C([H])([H])[H])(C([H])([H])[H])C([H])([H])[H])C([H])([H])c2c([H])c(OC([H])([H])C([H])([H])[N+]([H])([H])C([H])([H])c3c(C([H])([H])[H])nc4c(c3C([H])([H])[H])C(F)(C([H])([H])[H])C([H])([H])C([H])([H])C([H])(C([H])(F)C(=O)N3C([H])([H])C([H])([H])C([H])([H])C([H])(n5nc(-c6c([H])c([H])c(Oc7c([H])c([H])c(F)c([H])c7F)c([H])c6[H])c(C(=O)N([H])[H])c5N([H])[H])C3([H])[H])C4([H])Cl)c([H])c([H])c2C1([H])[H]

>  <smiles>  (43) 
[H]c1c([H])c([H])c2c(c1[H])C([H])([H])C([H])([H])C([H])([H])C2([H])N([H])C(=O)C1([H])N(C(=O)C([H])(N([H])C(=O)C([H])(N([H])C([H])([H])[H])C([H])([H])[H])C(C([H])([H])[H])(C([H])([H])[H])C([H])([H])[H])C([H])([H])c2c([H])c(OC([H])([H])C([H])([H])[N+]([H])([H])C([H])([H])c3c(C([H])([H])[H])nc4c(c3C([H])([H])[H])C(F)(C([H])([H])[H])C([H])([H])C([H])([H])C([H])(C([H])(F)C(=O)N3C([H])([H])C([H])([H])C([H])([H])C([H])(n5nc(-c6c([H])c([H])c(Oc7c([H])c([H])c(F)c([H])c7F)c([H])c6[H])c(C(=O)N([H])[H])c5N([H])[H])C3([H])[H])C4([H])Cl)c([H])c([H])c2C1([H])[H]

$$$$
43:0:0
     RDKit          3D

103113  0  0  1  0  0  0  0  0999 V2000
  -29.3670  -19.1440   17.7360 C   0  0  0  0  0  2  0  0  0  0  0  0
  -29.2350  -20.9520   15.9500 C   0  0  0  0  0  2  0  0  0  0  0  0
  -27.6300  -21.0130   17.9140 C   0  0  0  0  0  2  0  0  0  0  0  0
  -30.0960  -22.0440   16.6220 C   0  0  0  0  0  2  0  0  0  0  0  0
  -27.9330  -22.5170   17.7430 C   0  0  0  0  0  2  0  0  0  0  0  0
  -28.4450  -20.1050   16.9640 C   0  0  0  0  0  3  0  0  0  0  0  0
  -29.4010  -22.7770   17.7240 N   0  0  2  0  0  4  0  0  0  0  0  0
  -29.7670  -22.3740   18.5730 H   0  0  0  0  0  0  0  0  0  0  0  0
  -29.7880  -24.2190   17.7510 C   0  0  0  0  0  2  0  0  0  0  0  0
  -29.6350  -24.9350   19.1140 C   0  0  0  0  0  2  0  0  0  0  0  0
  -28.2020  -25.3600   19.4470 C   0  0  0  0  0  2  0  0  0  0  0  0
  -28.1820  -26.5250   20.2600 O   0  0  0  0  0  0  0  0  0  0  0  0
  -24.6020  -31.7830   23.4200 C   0  0  0  0  0  0  0  0  0  0  0  0
  -27.0100  -27.2510   20.2900 C   0  0  0  0  0  0  0  0  0  0  0  0
  -23.3150  -30.4510   21.7810 C   0  0  0  0  0  3  0  0  0  0  0  0
  -24.6790  -28.8510   20.3450 C   0  0  0  0  0  0  0  0  0  0  0  0
  -25.8510  -30.6920   21.5620 C   0  0  0  0  0  2  0  0  0  0  0  0
  -25.8650  -29.3190   20.9220 C   0  0  0  0  0  0  0  0  0  0  0  0
  -27.0290  -28.5230   20.8990 C   0  0  0  0  0  3  0  0  0  0  0  0
  -25.7920  -26.7820   19.7330 C   0  0  0  0  0  3  0  0  0  0  0  0
  -24.6350  -27.5790   19.7530 C   0  0  0  0  0  3  0  0  0  0  0  0
  -23.4790  -29.7660   20.4000 C   0  0  0  0  0  2  0  0  0  0  0  0
  -24.6090  -30.9880   22.3130 N   0  0  0  0  0  0  0  0  0  0  0  0
  -23.5380  -32.1080   23.9660 O   0  0  0  0  0  0  0  0  0  0  0  0
  -22.6240  -29.4570   22.7410 C   0  0  0  0  0  0  0  0  0  0  0  0
  -21.2990  -29.2980   22.5850 N   0  0  0  0  0  0  0  0  0  0  0  0
  -23.2770  -28.8300   23.5800 O   0  0  0  0  0  0  0  0  0  0  0  0
  -20.8350  -29.8530   21.8800 H   0  0  0  0  0  0  0  0  0  0  0  0
  -17.9050  -28.1240   22.9720 C   0  0  0  0  0  0  0  0  0  0  0  0
  -20.4480  -28.3870   23.3490 C   0  0  0  0  0  3  0  0  0  0  0  0
  -20.5710  -26.9370   22.8270 C   0  0  0  0  0  2  0  0  0  0  0  0
  -19.5170  -26.5810   21.7760 C   0  0  0  0  0  2  0  0  0  0  0  0
  -18.1080  -26.7510   22.3510 C   0  0  0  0  0  2  0  0  0  0  0  0
  -19.0060  -28.9000   23.4250 C   0  0  0  0  0  0  0  0  0  0  0  0
  -18.7660  -30.1850   23.9590 C   0  0  0  0  0  3  0  0  0  0  0  0
  -17.4570  -30.6950   24.0440 C   0  0  0  0  0  3  0  0  0  0  0  0
  -16.3710  -29.9180   23.6070 C   0  0  0  0  0  3  0  0  0  0  0  0
  -16.5950  -28.6340   23.0780 C   0  0  0  0  0  3  0  0  0  0  0  0
  -25.9220  -32.3470   24.0340 C   0  0  0  0  0  3  0  0  0  0  0  0
  -25.6880  -33.7580   24.3660 N   0  0  0  0  0  0  0  0  0  0  0  0
  -26.0580  -34.7910   23.5980 C   0  0  0  0  0  0  0  0  0  0  0  0
  -26.7050  -34.6530   22.5560 O   0  0  0  0  0  0  0  0  0  0  0  0
  -25.1140  -33.9430   25.1760 H   0  0  0  0  0  0  0  0  0  0  0  0
  -24.4120  -36.6630   23.2610 C   0  0  0  0  0  1  0  0  0  0  0  0
  -25.6440  -36.2010   24.0590 C   0  0  0  0  0  3  0  0  0  0  0  0
  -27.8280  -36.9850   24.8620 C   0  0  0  0  0  1  0  0  0  0  0  0
  -26.7240  -37.2030   23.9300 N   0  0  0  0  0  0  0  0  0  0  0  0
  -26.3650  -38.1430   24.0750 H   0  0  0  0  0  0  0  0  0  0  0  0
  -26.4120  -31.5470   25.3020 C   0  0  1  0  0  0  0  0  0  0  0  0
  -25.3180  -31.3570   26.3800 C   0  0  0  0  0  1  0  0  0  0  0  0
  -26.9260  -30.1450   24.8990 C   0  0  0  0  0  1  0  0  0  0  0  0
  -27.6060  -32.2820   25.9570 C   0  0  0  0  0  1  0  0  0  0  0  0
  -28.6310  -17.9300   18.3240 C   0  0  0  0  0  2  0  0  0  0  0  0
  -29.8010  -15.6880   18.6140 C   0  0  0  0  0  3  0  0  0  0  0  0
  -30.8360  -15.1650   19.4220 C   0  0  0  0  0  0  0  0  0  0  0  0
  -29.5950  -16.9840   18.9660 C   0  0  0  0  0  0  0  0  0  0  0  0
  -31.2670  -16.1610   20.2640 C   0  0  0  0  0  0  0  0  0  0  0  0
  -30.5040  -17.3090   19.9760 N   0  0  0  0  0  0  0  0  0  0  0  0
  -31.4110  -13.8090   19.2820 C   0  0  0  0  0  0  0  0  0  0  0  0
  -30.5760  -11.8280   18.1220 C   0  0  0  0  0  2  0  0  0  0  0  0
  -29.5550  -12.3200   17.0730 C   0  0  0  0  0  2  0  0  0  0  0  0
  -28.1450  -12.4260   17.6900 C   0  0  0  0  0  2  0  0  0  0  0  0
  -28.1320  -13.2010   19.0340 C   0  0  0  0  0  3  0  0  0  0  0  0
  -29.2630  -12.7230   19.9700 C   0  0  0  0  0  2  0  0  0  0  0  0
  -30.5400  -12.7710   19.2450 N   0  0  0  0  0  0  0  0  0  0  0  0
  -32.5560  -13.7410   18.8320 O   0  0  0  0  0  0  0  0  0  0  0  0
  -25.9710  -14.1640   20.0450 C   0  0  0  0  0  0  0  0  0  0  0  0
  -24.8470  -13.5590   20.5430 C   0  0  0  0  0  0  0  0  0  0  0  0
  -25.0850  -12.1530   20.4580 C   0  0  0  0  0  0  0  0  0  0  0  0
  -26.8260  -13.1330   19.6850 N   0  0  0  0  0  0  0  0  0  0  0  0
  -26.3050  -11.9190   19.9920 N   0  0  0  0  0  0  0  0  0  0  0  0
  -24.2010  -11.0150   20.7370 C   0  0  0  0  0  0  0  0  0  0  0  0
  -24.5950   -9.9700   21.6030 C   0  0  0  0  0  3  0  0  0  0  0  0
  -23.7210   -8.8940   21.8670 C   0  0  0  0  0  3  0  0  0  0  0  0
  -22.4390   -8.8560   21.2700 C   0  0  0  0  0  0  0  0  0  0  0  0
  -22.0630   -9.8870   20.3910 C   0  0  0  0  0  3  0  0  0  0  0  0
  -22.9350  -10.9550   20.1230 C   0  0  0  0  0  3  0  0  0  0  0  0
  -21.5320   -7.8400   21.4510 O   0  0  0  0  0  0  0  0  0  0  0  0
  -21.5210   -7.0820   22.5940 C   0  0  0  0  0  0  0  0  0  0  0  0
  -21.3340   -7.6590   23.8690 C   0  0  0  0  0  3  0  0  0  0  0  0
  -21.2590   -6.8350   25.0110 C   0  0  0  0  0  3  0  0  0  0  0  0
  -21.3610   -5.4370   24.8790 C   0  0  0  0  0  0  0  0  0  0  0  0
  -21.5420   -4.8610   23.6090 C   0  0  0  0  0  3  0  0  0  0  0  0
  -21.6200   -5.6820   22.4700 C   0  0  0  0  0  0  0  0  0  0  0  0
  -21.7730   -5.1190   21.2460 F   0  0  0  0  0  0  0  0  0  0  0  0
  -21.2820   -4.6450   25.9730 F   0  0  0  0  0  0  0  0  0  0  0  0
  -23.5860  -14.2410   20.9870 C   0  0  0  0  0  0  0  0  0  0  0  0
  -22.9160  -13.6940   21.9970 N   0  0  0  0  0  0  0  0  0  0  0  0
  -23.2100  -15.2920   20.4690 O   0  0  0  0  0  0  0  0  0  0  0  0
  -23.2360  -12.8440   22.4360 H   0  0  0  0  0  0  0  0  0  0  0  0
  -22.0740  -14.1350   22.3380 H   0  0  0  0  0  0  0  0  0  0  0  0
  -26.3280  -15.4950   19.8510 N   0  0  0  0  0  0  0  0  0  0  0  0
  -25.7030  -16.2610   20.0720 H   0  0  0  0  0  0  0  0  0  0  0  0
  -27.2190  -15.8000   19.4780 H   0  0  0  0  0  0  0  0  0  0  0  0
  -31.5410  -20.7460   22.4450 C   0  0  0  0  0  2  0  0  0  0  0  0
  -31.8320  -20.8140   20.9360 C   0  0  0  0  0  2  0  0  0  0  0  0
  -30.2220  -20.0050   22.7200 C   0  0  0  0  0  2  0  0  0  0  0  0
  -31.8940  -19.4030   20.3260 C   0  0  0  0  0  2  0  0  0  0  0  0
  -30.2260  -18.5950   22.1060 C   0  0  0  0  0  2  0  0  0  0  0  0
  -30.5840  -18.6370   20.6060 C   0  0  0  0  0  3  0  0  0  0  0  0
  -32.3750  -16.1120   21.2800 C   0  0  0  0  0  3  0  0  0  0  0  0
  -33.5520  -16.4410   20.7500 F   0  0  0  0  0  0  0  0  0  0  0  0
  -32.4990  -14.9140   21.8490 F   0  0  0  0  0  0  0  0  0  0  0  0
  1 53  1  0
  2  4  1  0
  2  6  1  0
  4  7  1  0
  5  3  1  0
  6  1  1  0
  6  3  1  0
  7  5  1  0
  7  9  1  0
  7  8  1  1
  9 10  1  0
 10 11  1  0
 11 12  1  0
 12 14  1  0
 13 24  2  0
 14 19  1  0
 15 23  1  0
 15 25  1  0
 16 22  1  0
 16 18  1  0
 17 23  1  0
 18 17  1  0
 19 18  2  0
 20 21  1  0
 20 14  2  0
 21 16  2  0
 22 15  1  0
 23 13  1  0
 25 27  2  0
 26 25  1  0
 28 26  1  0
 29 38  2  0
 29 34  1  0
 30 26  1  0
 30 34  1  0
 31 30  1  0
 32 33  1  0
 32 31  1  0
 33 29  1  0
 34 35  2  0
 35 36  1  0
 37 36  2  0
 38 37  1  0
 39 13  1  0
 39 40  1  0
 39 49  1  0
 40 43  1  0
 41 45  1  0
 41 40  1  0
 42 41  2  0
 45 44  1  0
 47 45  1  0
 47 48  1  0
 47 46  1  0
 49 52  1  1
 49 50  1  0
 51 49  1  0
 53 56  1  0
 54 56  2  0
 54 55  1  0
 55 57  2  0
 56 58  1  0
 57101  1  0
 58 57  1  0
 58100  1  0
 59 55  1  0
 60 65  1  0
 61 62  1  0
 61 60  1  0
 63 62  1  0
 63 70  1  0
 63 64  1  0
 65 59  1  0
 65 64  1  0
 66 59  2  0
 67 68  2  0
 68 87  1  0
 69 68  1  0
 69 72  1  0
 70 71  1  0
 70 67  1  0
 71 69  2  0
 72 73  1  0
 73 74  2  0
 75 78  1  0
 75 74  1  0
 76 75  2  0
 77 76  1  0
 77 72  2  0
 78 79  1  0
 79 80  1  0
 80 81  2  0
 82 81  1  0
 82 86  1  0
 83 82  2  0
 84 79  2  0
 84 83  1  0
 85 84  1  0
 87 88  1  0
 88 91  1  0
 88 90  1  0
 89 87  2  0
 92 67  1  0
 92 93  1  0
 94 92  1  0
 95 97  1  0
 96 95  1  0
 98100  1  0
 98 96  1  0
 99 97  1  0
100 99  1  0
101103  1  0
102101  1  0
M  ISO  4  11 101  12 101  55 100  59 100
M  END
>  <TORSDO>  (44) 
F 24

>  <SCORE>  (44) 
-7.704

>  <name>  (44) 
43

>  <ligand_id>  (44) 
43

>  <original_smiles>  (44) 
[H]c1c([H])c([H])c2c(c1[H])C([H])([H])C([H])([H])C([H])([H])C2([H])N([H])C(=O)C1([H])N(C(=O)C([H])(N([H])C(=O)C([H])(N([H])C([H])([H])[H])C([H])([H])[H])C(C([H])([H])[H])(C([H])([H])[H])C([H])([H])[H])C([H])([H])c2c([H])c(OC([H])([H])C([H])([H])C([H])([H])[N+]3([H])C([H])([H])C([H])([H])C([H])(C([H])([H])C([H])([H])c4c([H])c(C(=O)N5C([H])([H])C([H])([H])C([H])([H])C([H])(n6nc(-c7c([H])c([H])c(Oc8c([H])c([H])c(F)c([H])c8F)c([H])c7[H])c(C(=O)N([H])[H])c6N([H])[H])C5([H])[H])c(C([H])(F)F)n4C4([H])C([H])([H])C([H])([H])C([H])([H])C([H])([H])C4([H])[H])C([H])([H])C3([H])[H])c([H])c([H])c2C1([H])[H]

>  <smiles>  (44) 
[H]c1c([H])c([H])c2c(c1[H])C([H])([H])C([H])([H])C([H])([H])C2([H])N([H])C(=O)C1([H])N(C(=O)C([H])(N([H])C(=O)C([H])(N([H])C([H])([H])[H])C([H])([H])[H])C(C([H])([H])[H])(C([H])([H])[H])C([H])([H])[H])C([H])([H])c2c([H])c(OC([H])([H])C([H])([H])C([H])([H])[N+]3([H])C([H])([H])C([H])([H])C([H])(C([H])([H])C([H])([H])c4c([H])c(C(=O)N5C([H])([H])C([H])([H])C([H])([H])C([H])(n6nc(-c7c([H])c([H])c(Oc8c([H])c([H])c(F)c([H])c8F)c([H])c7[H])c(C(=O)N([H])[H])c6N([H])[H])C5([H])[H])c(C([H])(F)F)n4C4([H])C([H])([H])C([H])([H])C([H])([H])C([H])([H])C4([H])[H])C([H])([H])C3([H])[H])c([H])c([H])c2C1([H])[H]

$$$$
44:0:0
     RDKit          3D

 95103  0  0  1  0  0  0  0  0999 V2000
  -30.0660  -21.6010   20.0170 C   0  0  0  0  0  2  0  0  0  0  0  0
  -29.1680  -19.2210   19.4040 C   0  0  0  0  0  3  0  0  0  0  0  0
  -29.1560  -17.8010   19.5410 C   0  0  0  0  0  0  0  0  0  0  0  0
  -29.8710  -20.0640   20.3000 C   0  0  0  0  0  0  0  0  0  0  0  0
  -30.5500  -17.9870   21.5130 C   0  0  0  0  0  0  0  0  0  0  0  0
  -29.8610  -17.1450   20.5920 C   0  0  0  0  0  0  0  0  0  0  0  0
  -30.5550  -19.4110   21.3610 C   0  0  0  0  0  0  0  0  0  0  0  0
  -28.3810  -16.9870   18.5180 C   0  0  0  0  0  1  0  0  0  0  0  0
  -31.3020  -17.3580   22.6750 C   0  0  0  0  0  1  0  0  0  0  0  0
  -31.2600  -20.1670   22.2380 F   0  0  0  0  0  0  0  0  0  0  0  0
  -30.5390  -14.6610   20.4390 C   0  0  0  0  0  0  0  0  0  0  0  0
  -30.3420  -12.4270   19.3720 C   0  0  0  0  0  2  0  0  0  0  0  0
  -29.4030  -12.5590   18.1530 C   0  0  0  0  0  2  0  0  0  0  0  0
  -27.9270  -12.3980   18.5730 C   0  0  0  0  0  2  0  0  0  0  0  0
  -27.5610  -13.2530   19.8160 C   0  0  0  0  0  3  0  0  0  0  0  0
  -28.6160  -13.0930   20.9350 C   0  0  0  0  0  2  0  0  0  0  0  0
  -29.9280  -13.4370   20.3640 N   0  0  0  0  0  0  0  0  0  0  0  0
  -31.7000  -14.8270   20.0530 O   0  0  0  0  0  0  0  0  0  0  0  0
  -29.7290  -15.7040   20.8000 N   0  0  0  0  0  0  0  0  0  0  0  0
  -28.8060  -15.4010   21.0680 H   0  0  0  0  0  0  0  0  0  0  0  0
  -25.1590  -13.8580   20.5070 C   0  0  0  0  0  0  0  0  0  0  0  0
  -24.0890  -13.0860   20.8720 C   0  0  0  0  0  0  0  0  0  0  0  0
  -24.5540  -11.7350   20.8580 C   0  0  0  0  0  0  0  0  0  0  0  0
  -26.2070  -12.9770   20.2890 N   0  0  0  0  0  0  0  0  0  0  0  0
  -25.8480  -11.6960   20.5610 N   0  0  0  0  0  0  0  0  0  0  0  0
  -23.8290  -10.4740   21.0520 C   0  0  0  0  0  0  0  0  0  0  0  0
  -24.2640   -9.5080   21.9860 C   0  0  0  0  0  3  0  0  0  0  0  0
  -23.5390   -8.3110   22.1680 C   0  0  0  0  0  3  0  0  0  0  0  0
  -22.3640   -8.0730   21.4160 C   0  0  0  0  0  0  0  0  0  0  0  0
  -21.9470   -9.0270   20.4720 C   0  0  0  0  0  3  0  0  0  0  0  0
  -22.6740  -10.2150   20.2870 C   0  0  0  0  0  3  0  0  0  0  0  0
  -21.6110   -6.9280   21.5070 O   0  0  0  0  0  0  0  0  0  0  0  0
  -21.5810   -6.1750   22.6530 C   0  0  0  0  0  0  0  0  0  0  0  0
  -21.1840   -6.7230   23.8940 C   0  0  0  0  0  3  0  0  0  0  0  0
  -21.0990   -5.8980   25.0330 C   0  0  0  0  0  3  0  0  0  0  0  0
  -21.4010   -4.5260   24.9340 C   0  0  0  0  0  0  0  0  0  0  0  0
  -21.7890   -3.9770   23.6990 C   0  0  0  0  0  3  0  0  0  0  0  0
  -21.8750   -4.7990   22.5610 C   0  0  0  0  0  0  0  0  0  0  0  0
  -22.2290   -4.2610   21.3690 F   0  0  0  0  0  0  0  0  0  0  0  0
  -21.3110   -3.7310   26.0260 F   0  0  0  0  0  0  0  0  0  0  0  0
  -22.6890  -13.5640   21.1290 C   0  0  0  0  0  0  0  0  0  0  0  0
  -21.9520  -12.8730   21.9910 N   0  0  0  0  0  0  0  0  0  0  0  0
  -22.2570  -14.5870   20.6000 O   0  0  0  0  0  0  0  0  0  0  0  0
  -22.3130  -12.0450   22.4410 H   0  0  0  0  0  0  0  0  0  0  0  0
  -21.0130  -13.1760   22.2030 H   0  0  0  0  0  0  0  0  0  0  0  0
  -25.3190  -15.2270   20.3220 N   0  0  0  0  0  0  0  0  0  0  0  0
  -24.5440  -15.8760   20.4240 H   0  0  0  0  0  0  0  0  0  0  0  0
  -26.1630  -15.6740   19.9940 H   0  0  0  0  0  0  0  0  0  0  0  0
  -29.0380  -22.6180   20.4700 N   0  0  0  0  0  4  0  0  0  0  0  0
  -28.8670  -22.4750   21.4520 H   0  0  0  0  0  0  0  0  0  0  0  0
  -28.1810  -22.3850   19.9900 H   0  0  0  0  0  0  0  0  0  0  0  0
  -30.5080  -24.5950   21.1010 C   0  0  0  0  0  1  0  0  0  0  0  0
  -29.3420  -24.0990   20.2200 C   0  0  0  0  0  3  0  0  0  0  0  0
  -28.0980  -25.0760   20.3760 C   0  0  0  0  0  2  0  0  0  0  0  0
  -28.3010  -26.5280   20.1590 O   0  0  0  0  0  0  0  0  0  0  0  0
  -24.5980  -31.9110   23.2370 C   0  0  0  0  0  0  0  0  0  0  0  0
  -27.1690  -27.3550   20.1510 C   0  0  0  0  0  0  0  0  0  0  0  0
  -23.3720  -30.5140   21.6130 C   0  0  0  0  0  3  0  0  0  0  0  0
  -24.8000  -28.9590   20.1750 C   0  0  0  0  0  0  0  0  0  0  0  0
  -25.9090  -30.8280   21.4010 C   0  0  0  0  0  2  0  0  0  0  0  0
  -25.9770  -29.4500   20.7540 C   0  0  0  0  0  0  0  0  0  0  0  0
  -27.1640  -28.6610   20.7310 C   0  0  0  0  0  3  0  0  0  0  0  0
  -25.9660  -26.9190   19.5450 C   0  0  0  0  0  3  0  0  0  0  0  0
  -24.7950  -27.6970   19.5640 C   0  0  0  0  0  3  0  0  0  0  0  0
  -23.5670  -29.8370   20.2330 C   0  0  0  0  0  2  0  0  0  0  0  0
  -24.6460  -31.1010   22.1400 N   0  0  0  0  0  0  0  0  0  0  0  0
  -23.5230  -32.1940   23.7830 O   0  0  0  0  0  0  0  0  0  0  0  0
  -22.7170  -29.5000   22.5790 C   0  0  0  0  0  0  0  0  0  0  0  0
  -21.3900  -29.3240   22.4600 N   0  0  0  0  0  0  0  0  0  0  0  0
  -23.4000  -28.8750   23.3960 O   0  0  0  0  0  0  0  0  0  0  0  0
  -20.8980  -29.8780   21.7740 H   0  0  0  0  0  0  0  0  0  0  0  0
  -18.0160  -28.1310   22.9770 C   0  0  0  0  0  0  0  0  0  0  0  0
  -20.5740  -28.3910   23.2400 C   0  0  0  0  0  3  0  0  0  0  0  0
  -20.6760  -26.9560   22.6740 C   0  0  0  0  0  2  0  0  0  0  0  0
  -19.5720  -26.6240   21.6660 C   0  0  0  0  0  2  0  0  0  0  0  0
  -18.1910  -26.7760   22.3120 C   0  0  0  0  0  2  0  0  0  0  0  0
  -19.1350  -28.8960   23.3970 C   0  0  0  0  0  0  0  0  0  0  0  0
  -18.9180  -30.1650   23.9790 C   0  0  0  0  0  3  0  0  0  0  0  0
  -17.6140  -30.6650   24.1470 C   0  0  0  0  0  3  0  0  0  0  0  0
  -16.5090  -29.8970   23.7430 C   0  0  0  0  0  3  0  0  0  0  0  0
  -16.7110  -28.6330   23.1620 C   0  0  0  0  0  3  0  0  0  0  0  0
  -25.8920  -32.5390   23.8420 C   0  0  0  0  0  3  0  0  0  0  0  0
  -26.4240  -31.7600   25.1070 C   0  0  1  0  0  0  0  0  0  0  0  0
  -25.3470  -31.5210   26.1900 C   0  0  0  0  0  1  0  0  0  0  0  0
  -26.9980  -30.3820   24.7020 C   0  0  0  0  0  1  0  0  0  0  0  0
  -27.5870  -32.5470   25.7550 C   0  0  0  0  0  1  0  0  0  0  0  0
  -25.5880  -33.9350   24.1850 N   0  0  0  0  0  0  0  0  0  0  0  0
  -25.9020  -34.9910   23.4250 C   0  0  0  0  0  0  0  0  0  0  0  0
  -26.5500  -34.8940   22.3790 O   0  0  0  0  0  0  0  0  0  0  0  0
  -25.0100  -34.0840   25.0000 H   0  0  0  0  0  0  0  0  0  0  0  0
  -24.1600  -36.7810   23.1220 C   0  0  0  0  0  1  0  0  0  0  0  0
  -25.4230  -36.3770   23.8990 C   0  0  0  0  0  3  0  0  0  0  0  0
  -27.5760  -37.2640   24.6760 C   0  0  0  0  0  1  0  0  0  0  0  0
  -26.4490  -37.4330   23.7640 N   0  0  0  0  0  0  0  0  0  0  0  0
  -26.0440  -38.3510   23.9290 H   0  0  0  0  0  0  0  0  0  0  0  0
  1  4  1  0
  1 49  1  0
  2  3  2  0
  2  4  1  0
  3  6  1  0
  4  7  2  0
  5  9  1  0
  6 19  1  0
  6  5  2  0
  7  5  1  0
  7 10  1  0
  8  3  1  0
 11 19  1  0
 12 17  1  0
 13 14  1  0
 13 12  1  0
 15 14  1  0
 15 24  1  0
 15 16  1  0
 17 11  1  0
 17 16  1  0
 18 11  2  0
 19 20  1  0
 21 22  2  0
 22 41  1  0
 23 22  1  0
 23 26  1  0
 24 21  1  0
 24 25  1  0
 25 23  2  0
 26 27  1  0
 27 28  2  0
 29 32  1  0
 29 28  1  0
 30 29  2  0
 31 30  1  0
 31 26  2  0
 32 33  1  0
 33 34  1  0
 34 35  2  0
 36 35  1  0
 36 40  1  0
 37 36  2  0
 38 33  2  0
 38 37  1  0
 39 38  1  0
 41 42  1  0
 42 45  1  0
 42 44  1  0
 43 41  2  0
 46 47  1  0
 46 21  1  0
 48 46  1  0
 49 50  1  0
 51 49  1  0
 53 54  1  0
 53 49  1  0
 53 52  1  0
 55 54  1  0
 56 67  2  0
 57 55  1  0
 57 62  1  0
 58 66  1  0
 58 68  1  0
 59 65  1  0
 59 61  1  0
 60 66  1  0
 61 60  1  0
 62 61  2  0
 63 64  1  0
 63 57  2  0
 64 59  2  0
 65 58  1  0
 66 56  1  0
 68 70  2  0
 69 68  1  0
 71 69  1  0
 72 81  2  0
 72 77  1  0
 73 69  1  0
 73 77  1  0
 74 73  1  0
 75 76  1  0
 75 74  1  0
 76 72  1  0
 77 78  2  0
 78 79  1  0
 80 79  2  0
 81 80  1  0
 82 56  1  0
 82 87  1  0
 82 83  1  0
 83 86  1  1
 83 84  1  0
 85 83  1  0
 87 90  1  0
 88 92  1  0
 88 87  1  0
 89 88  2  0
 92 91  1  0
 94 92  1  0
 94 95  1  0
 94 93  1  0
M  ISO  4  11 100  19 100  54 101  55 101
M  END
>  <TORSDO>  (45) 
F 20

>  <SCORE>  (45) 
-13.707

>  <name>  (45) 
44

>  <ligand_id>  (45) 
44

>  <original_smiles>  (45) 
[H]c1c([H])c([H])c2c(c1[H])C([H])([H])C([H])([H])C([H])([H])C2([H])N([H])C(=O)C1([H])N(C(=O)C([H])(N([H])C(=O)C([H])(N([H])C([H])([H])[H])C([H])([H])[H])C(C([H])([H])[H])(C([H])([H])[H])C([H])([H])[H])C([H])([H])c2c([H])c(OC([H])([H])C([H])(C([H])([H])[H])[N+]([H])([H])C([H])([H])c3c([H])c(C([H])([H])[H])c(N([H])C(=O)N4C([H])([H])C([H])([H])C([H])([H])C([H])(n5nc(-c6c([H])c([H])c(Oc7c([H])c([H])c(F)c([H])c7F)c([H])c6[H])c(C(=O)N([H])[H])c5N([H])[H])C4([H])[H])c(C([H])([H])[H])c3F)c([H])c([H])c2C1([H])[H]

>  <smiles>  (45) 
[H]c1c([H])c([H])c2c(c1[H])C([H])([H])C([H])([H])C([H])([H])C2([H])N([H])C(=O)C1([H])N(C(=O)C([H])(N([H])C(=O)C([H])(N([H])C([H])([H])[H])C([H])([H])[H])C(C([H])([H])[H])(C([H])([H])[H])C([H])([H])[H])C([H])([H])c2c([H])c(OC([H])([H])C([H])(C([H])([H])[H])[N+]([H])([H])C([H])([H])c3c([H])c(C([H])([H])[H])c(N([H])C(=O)N4C([H])([H])C([H])([H])C([H])([H])C([H])(n5nc(-c6c([H])c([H])c(Oc7c([H])c([H])c(F)c([H])c7F)c([H])c6[H])c(C(=O)N([H])[H])c5N([H])[H])C4([H])[H])c(C([H])([H])[H])c3F)c([H])c([H])c2C1([H])[H]

$$$$
45:0:0
     RDKit          3D

 92100  0  0  1  0  0  0  0  0999 V2000
  -29.7620  -19.4590   21.4580 C   0  0  0  0  0  3  0  0  0  0  0  0
  -29.1370  -20.0210   20.3150 C   0  0  0  0  0  0  0  0  0  0  0  0
  -29.2310  -17.7260   19.3080 C   0  0  0  0  0  0  0  0  0  0  0  0
  -29.7950  -17.1620   20.4940 C   0  0  0  0  0  0  0  0  0  0  0  0
  -30.0750  -18.0710   21.5520 C   0  0  0  0  0  0  0  0  0  0  0  0
  -28.9180  -19.1270   19.2230 C   0  0  0  0  0  0  0  0  0  0  0  0
  -28.8540  -16.8260   18.1350 C   0  0  0  0  0  1  0  0  0  0  0  0
  -30.7330  -17.4840   23.0400 Cl  0  0  0  0  0  0  0  0  0  0  0  0
  -28.1720  -19.7340   17.7820 Cl  0  0  0  0  0  0  0  0  0  0  0  0
  -30.6290  -14.7160   20.2770 C   0  0  0  0  0  0  0  0  0  0  0  0
  -30.4250  -12.5000   19.1730 C   0  0  0  0  0  2  0  0  0  0  0  0
  -29.4490  -12.6380   17.9810 C   0  0  0  0  0  2  0  0  0  0  0  0
  -27.9880  -12.4660   18.4410 C   0  0  0  0  0  2  0  0  0  0  0  0
  -27.6520  -13.3060   19.7010 C   0  0  0  0  0  3  0  0  0  0  0  0
  -28.7350  -13.1210   20.7890 C   0  0  0  0  0  2  0  0  0  0  0  0
  -30.0330  -13.4860   20.1990 N   0  0  0  0  0  0  0  0  0  0  0  0
  -31.7600  -14.9220   19.8270 O   0  0  0  0  0  0  0  0  0  0  0  0
  -29.8330  -15.7210   20.7500 N   0  0  0  0  0  0  0  0  0  0  0  0
  -29.0170  -15.3760   21.2290 H   0  0  0  0  0  0  0  0  0  0  0  0
  -25.2650  -13.8800   20.4680 C   0  0  0  0  0  0  0  0  0  0  0  0
  -24.2120  -13.0930   20.8520 C   0  0  0  0  0  0  0  0  0  0  0  0
  -24.6860  -11.7470   20.7980 C   0  0  0  0  0  0  0  0  0  0  0  0
  -26.3140  -13.0110   20.2070 N   0  0  0  0  0  0  0  0  0  0  0  0
  -25.9700  -11.7240   20.4660 N   0  0  0  0  0  0  0  0  0  0  0  0
  -23.9770  -10.4760   20.9890 C   0  0  0  0  0  0  0  0  0  0  0  0
  -24.4160   -9.5190   21.9300 C   0  0  0  0  0  3  0  0  0  0  0  0
  -23.7060   -8.3120   22.1080 C   0  0  0  0  0  3  0  0  0  0  0  0
  -22.5440   -8.0530   21.3440 C   0  0  0  0  0  0  0  0  0  0  0  0
  -22.1240   -8.9990   20.3910 C   0  0  0  0  0  3  0  0  0  0  0  0
  -22.8350  -10.1970   20.2120 C   0  0  0  0  0  3  0  0  0  0  0  0
  -21.8050   -6.8980   21.4310 O   0  0  0  0  0  0  0  0  0  0  0  0
  -21.7270   -6.1790   22.5960 C   0  0  0  0  0  0  0  0  0  0  0  0
  -21.2330   -6.7480   23.7910 C   0  0  0  0  0  3  0  0  0  0  0  0
  -21.1060   -5.9550   24.9490 C   0  0  0  0  0  3  0  0  0  0  0  0
  -21.4620   -4.5930   24.9130 C   0  0  0  0  0  0  0  0  0  0  0  0
  -21.9480   -4.0230   23.7230 C   0  0  0  0  0  3  0  0  0  0  0  0
  -22.0780   -4.8140   22.5670 C   0  0  0  0  0  0  0  0  0  0  0  0
  -22.5280   -4.2560   21.4180 F   0  0  0  0  0  0  0  0  0  0  0  0
  -21.3300   -3.8280   26.0210 F   0  0  0  0  0  0  0  0  0  0  0  0
  -22.8160  -13.5530   21.1560 C   0  0  0  0  0  0  0  0  0  0  0  0
  -22.1080  -12.8360   22.0230 N   0  0  0  0  0  0  0  0  0  0  0  0
  -22.3600  -14.5820   20.6600 O   0  0  0  0  0  0  0  0  0  0  0  0
  -22.4890  -12.0020   22.4440 H   0  0  0  0  0  0  0  0  0  0  0  0
  -21.1740  -13.1280   22.2700 H   0  0  0  0  0  0  0  0  0  0  0  0
  -25.4130  -15.2540   20.2980 N   0  0  0  0  0  0  0  0  0  0  0  0
  -24.6400  -15.8990   20.4160 H   0  0  0  0  0  0  0  0  0  0  0  0
  -26.2470  -15.7000   19.9380 H   0  0  0  0  0  0  0  0  0  0  0  0
  -28.5450  -21.4860   20.3450 C   0  0  0  0  0  2  0  0  0  0  0  0
  -29.4960  -22.7420   20.2790 C   0  0  0  0  0  2  0  0  0  0  0  0
  -28.9490  -24.1380   19.7180 C   0  0  0  0  0  2  0  0  0  0  0  0
  -28.3430  -25.2370   20.6820 C   0  0  0  0  0  2  0  0  0  0  0  0
  -28.4270  -26.6380   20.2270 O   0  0  0  0  0  0  0  0  0  0  0  0
  -24.6190  -31.9620   23.2570 C   0  0  0  0  0  0  0  0  0  0  0  0
  -27.2760  -27.4270   20.2300 C   0  0  0  0  0  0  0  0  0  0  0  0
  -23.4290  -30.5490   21.6160 C   0  0  0  0  0  3  0  0  0  0  0  0
  -24.8940  -28.9940   20.2100 C   0  0  0  0  0  0  0  0  0  0  0  0
  -25.9630  -30.8880   21.4380 C   0  0  0  0  0  2  0  0  0  0  0  0
  -26.0540  -29.5060   20.8040 C   0  0  0  0  0  0  0  0  0  0  0  0
  -27.2520  -28.7360   20.7970 C   0  0  0  0  0  3  0  0  0  0  0  0
  -26.0920  -26.9490   19.6270 C   0  0  0  0  0  3  0  0  0  0  0  0
  -24.9120  -27.7200   19.6140 C   0  0  0  0  0  3  0  0  0  0  0  0
  -23.6520  -29.8620   20.2410 C   0  0  0  0  0  2  0  0  0  0  0  0
  -24.6890  -31.1500   22.1610 N   0  0  0  0  0  0  0  0  0  0  0  0
  -23.5310  -32.2370   23.7830 O   0  0  0  0  0  0  0  0  0  0  0  0
  -22.7640  -29.5340   22.5760 C   0  0  0  0  0  0  0  0  0  0  0  0
  -21.4390  -29.3600   22.4460 N   0  0  0  0  0  0  0  0  0  0  0  0
  -23.4400  -28.9050   23.3940 O   0  0  0  0  0  0  0  0  0  0  0  0
  -20.9540  -29.9250   21.7630 H   0  0  0  0  0  0  0  0  0  0  0  0
  -18.0490  -28.1980   22.9530 C   0  0  0  0  0  0  0  0  0  0  0  0
  -20.6110  -28.4260   23.2120 C   0  0  0  0  0  3  0  0  0  0  0  0
  -20.6930  -26.9990   22.6230 C   0  0  0  0  0  2  0  0  0  0  0  0
  -19.5820  -26.6960   21.6120 C   0  0  0  0  0  2  0  0  0  0  0  0
  -18.2050  -26.8520   22.2650 C   0  0  0  0  0  2  0  0  0  0  0  0
  -19.1780  -28.9450   23.3810 C   0  0  0  0  0  0  0  0  0  0  0  0
  -18.9780  -30.2060   23.9830 C   0  0  0  0  0  3  0  0  0  0  0  0
  -17.6800  -30.7220   24.1570 C   0  0  0  0  0  3  0  0  0  0  0  0
  -16.5650  -29.9730   23.7460 C   0  0  0  0  0  3  0  0  0  0  0  0
  -16.7500  -28.7120   23.1500 C   0  0  0  0  0  3  0  0  0  0  0  0
  -25.8970  -32.5980   23.8870 C   0  0  0  0  0  3  0  0  0  0  0  0
  -26.4040  -31.8320   25.1700 C   0  0  1  0  0  0  0  0  0  0  0  0
  -25.3000  -31.5830   26.2260 C   0  0  0  0  0  1  0  0  0  0  0  0
  -27.0020  -30.4600   24.7820 C   0  0  0  0  0  1  0  0  0  0  0  0
  -27.5430  -32.6350   25.8430 C   0  0  0  0  0  1  0  0  0  0  0  0
  -25.5840  -33.9960   24.2100 N   0  0  0  0  0  0  0  0  0  0  0  0
  -25.9270  -35.0460   23.4510 C   0  0  0  0  0  0  0  0  0  0  0  0
  -26.6110  -34.9370   22.4290 O   0  0  0  0  0  0  0  0  0  0  0  0
  -24.9760  -34.1490   25.0020 H   0  0  0  0  0  0  0  0  0  0  0  0
  -24.2130  -36.8440   23.0600 C   0  0  0  0  0  1  0  0  0  0  0  0
  -25.4350  -36.4370   23.8980 C   0  0  0  0  0  3  0  0  0  0  0  0
  -27.5530  -37.3130   24.7750 C   0  0  0  0  0  1  0  0  0  0  0  0
  -26.4720  -37.4860   23.8090 N   0  0  0  0  0  0  0  0  0  0  0  0
  -26.0660  -38.4050   23.9510 H   0  0  0  0  0  0  0  0  0  0  0  0
  1  5  1  0
  2 48  1  0
  2  1  2  0
  3  4  1  0
  4 18  1  0
  4  5  2  0
  5  8  1  0
  6  3  2  0
  6  2  1  0
  7  3  1  0
  9  6  1  0
 10 18  1  0
 11 16  1  0
 12 13  1  0
 12 11  1  0
 14 13  1  0
 14 23  1  0
 14 15  1  0
 16 10  1  0
 16 15  1  0
 17 10  2  0
 18 19  1  0
 20 21  2  0
 21 40  1  0
 22 21  1  0
 22 25  1  0
 23 24  1  0
 23 20  1  0
 24 22  2  0
 25 26  1  0
 26 27  2  0
 28 31  1  0
 28 27  1  0
 29 28  2  0
 30 29  1  0
 30 25  2  0
 31 32  1  0
 32 33  1  0
 33 34  2  0
 35 34  1  0
 35 39  1  0
 36 35  2  0
 37 32  2  0
 37 36  1  0
 38 37  1  0
 40 41  1  0
 41 44  1  0
 41 43  1  0
 42 40  2  0
 45 46  1  0
 45 20  1  0
 47 45  1  0
 49 48  1  0
 50 49  1  0
 50 51  1  0
 52 54  1  0
 52 51  1  0
 53 64  2  0
 54 59  1  0
 55 63  1  0
 55 65  1  0
 56 62  1  0
 56 58  1  0
 57 63  1  0
 58 57  1  0
 59 58  2  0
 60 54  2  0
 61 60  1  0
 61 56  2  0
 62 55  1  0
 63 53  1  0
 65 67  2  0
 66 65  1  0
 68 66  1  0
 69 78  2  0
 69 74  1  0
 70 66  1  0
 70 74  1  0
 71 70  1  0
 72 73  1  0
 72 71  1  0
 73 69  1  0
 74 75  2  0
 75 76  1  0
 77 76  2  0
 78 77  1  0
 79 53  1  0
 79 84  1  0
 79 80  1  0
 80 83  1  1
 80 81  1  0
 82 80  1  0
 84 87  1  0
 85 89  1  0
 85 84  1  0
 86 85  2  0
 89 88  1  0
 91 89  1  0
 91 92  1  0
 91 90  1  0
M  ISO  4  10 100  18 100  51 101  52 101
M  END
>  <TORSDO>  (46) 
F 20

>  <SCORE>  (46) 
-13.099

>  <name>  (46) 
45

>  <ligand_id>  (46) 
45

>  <original_smiles>  (46) 
[H]c1c([H])c([H])c2c(c1[H])C([H])([H])C([H])([H])C([H])([H])C2([H])N([H])C(=O)C1([H])N(C(=O)C([H])(N([H])C(=O)C([H])(N([H])C([H])([H])[H])C([H])([H])[H])C(C([H])([H])[H])(C([H])([H])[H])C([H])([H])[H])C([H])([H])c2c([H])c(OC([H])([H])C([H])([H])C([H])([H])C([H])([H])c3c([H])c(Cl)c(N([H])C(=O)N4C([H])([H])C([H])([H])C([H])([H])C([H])(n5nc(-c6c([H])c([H])c(Oc7c([H])c([H])c(F)c([H])c7F)c([H])c6[H])c(C(=O)N([H])[H])c5N([H])[H])C4([H])[H])c(C([H])([H])[H])c3Cl)c([H])c([H])c2C1([H])[H]

>  <smiles>  (46) 
[H]c1c([H])c([H])c2c(c1[H])C([H])([H])C([H])([H])C([H])([H])C2([H])N([H])C(=O)C1([H])N(C(=O)C([H])(N([H])C(=O)C([H])(N([H])C([H])([H])[H])C([H])([H])[H])C(C([H])([H])[H])(C([H])([H])[H])C([H])([H])[H])C([H])([H])c2c([H])c(OC([H])([H])C([H])([H])C([H])([H])C([H])([H])c3c([H])c(Cl)c(N([H])C(=O)N4C([H])([H])C([H])([H])C([H])([H])C([H])(n5nc(-c6c([H])c([H])c(Oc7c([H])c([H])c(F)c([H])c7F)c([H])c6[H])c(C(=O)N([H])[H])c5N([H])[H])C4([H])[H])c(C([H])([H])[H])c3Cl)c([H])c([H])c2C1([H])[H]

$$$$
46:0:0
     RDKit          3D

 96104  0  0  1  0  0  0  0  0999 V2000
  -30.5830  -19.8890   21.3950 C   0  0  0  0  0  0  0  0  0  0  0  0
  -29.8080  -19.6460   20.2220 C   0  0  0  0  0  0  0  0  0  0  0  0
  -29.4490  -18.2840   19.9170 C   0  0  0  0  0  0  0  0  0  0  0  0
  -30.9200  -18.8200   22.2710 C   0  0  0  0  0  0  0  0  0  0  0  0
  -29.8770  -17.1950   20.7510 C   0  0  0  0  0  0  0  0  0  0  0  0
  -30.5820  -17.4850   21.9440 C   0  0  0  0  0  0  0  0  0  0  0  0
  -31.0890  -21.2920   21.7420 C   0  0  0  0  0  1  0  0  0  0  0  0
  -28.6300  -17.9770   18.6640 C   0  0  0  0  0  1  0  0  0  0  0  0
  -31.6690  -19.0880   23.5780 C   0  0  0  0  0  1  0  0  0  0  0  0
  -31.0040  -16.2050   23.0410 Cl  0  0  0  0  0  0  0  0  0  0  0  0
  -30.2840  -14.8540   19.9050 C   0  0  0  0  0  0  0  0  0  0  0  0
  -30.0430  -12.6880   18.7270 C   0  0  0  0  0  2  0  0  0  0  0  0
  -28.9680  -12.8320   17.6300 C   0  0  0  0  0  2  0  0  0  0  0  0
  -27.5590  -12.5740   18.2020 C   0  0  0  0  0  2  0  0  0  0  0  0
  -27.2950  -13.3600   19.5150 C   0  0  0  0  0  3  0  0  0  0  0  0
  -28.4730  -13.1990   20.5020 C   0  0  0  0  0  2  0  0  0  0  0  0
  -29.6980  -13.6250   19.8090 N   0  0  0  0  0  0  0  0  0  0  0  0
  -31.3600  -15.1130   19.3600 O   0  0  0  0  0  0  0  0  0  0  0  0
  -29.5200  -15.8240   20.4710 N   0  0  0  0  0  0  0  0  0  0  0  0
  -28.6030  -15.5350   20.7700 H   0  0  0  0  0  0  0  0  0  0  0  0
  -24.9530  -13.7920   20.4870 C   0  0  0  0  0  0  0  0  0  0  0  0
  -23.9780  -12.9420   20.9360 C   0  0  0  0  0  0  0  0  0  0  0  0
  -24.5130  -11.6240   20.8100 C   0  0  0  0  0  0  0  0  0  0  0  0
  -26.0200  -12.9850   20.1200 N   0  0  0  0  0  0  0  0  0  0  0  0
  -25.7650  -11.6760   20.3700 N   0  0  0  0  0  0  0  0  0  0  0  0
  -23.8870  -10.3140   21.0270 C   0  0  0  0  0  0  0  0  0  0  0  0
  -24.3680   -9.4200   22.0090 C   0  0  0  0  0  3  0  0  0  0  0  0
  -23.7390   -8.1730   22.2110 C   0  0  0  0  0  3  0  0  0  0  0  0
  -22.6150   -7.8100   21.4300 C   0  0  0  0  0  0  0  0  0  0  0  0
  -22.1550   -8.6930   20.4380 C   0  0  0  0  0  3  0  0  0  0  0  0
  -22.7860   -9.9320   20.2350 C   0  0  0  0  0  3  0  0  0  0  0  0
  -21.9560   -6.6100   21.5400 O   0  0  0  0  0  0  0  0  0  0  0  0
  -21.8160   -5.9730   22.7470 C   0  0  0  0  0  0  0  0  0  0  0  0
  -21.1360   -6.5700   23.8310 C   0  0  0  0  0  3  0  0  0  0  0  0
  -20.9550   -5.8530   25.0300 C   0  0  0  0  0  3  0  0  0  0  0  0
  -21.4420   -4.5370   25.1440 C   0  0  0  0  0  0  0  0  0  0  0  0
  -22.1140   -3.9390   24.0640 C   0  0  0  0  0  3  0  0  0  0  0  0
  -22.2970   -4.6540   22.8680 C   0  0  0  0  0  0  0  0  0  0  0  0
  -22.9270   -4.0640   21.8240 F   0  0  0  0  0  0  0  0  0  0  0  0
  -21.2610   -3.8440   26.2930 F   0  0  0  0  0  0  0  0  0  0  0  0
  -22.5890  -13.3220   21.3650 C   0  0  0  0  0  0  0  0  0  0  0  0
  -21.9910  -12.5480   22.2630 N   0  0  0  0  0  0  0  0  0  0  0  0
  -22.0440  -14.3400   20.9390 O   0  0  0  0  0  0  0  0  0  0  0  0
  -22.4460  -11.7250   22.6300 H   0  0  0  0  0  0  0  0  0  0  0  0
  -21.0640  -12.7820   22.5890 H   0  0  0  0  0  0  0  0  0  0  0  0
  -25.0150  -15.1750   20.3430 N   0  0  0  0  0  0  0  0  0  0  0  0
  -24.2210  -15.7710   20.5470 H   0  0  0  0  0  0  0  0  0  0  0  0
  -25.7870  -15.6780   19.9260 H   0  0  0  0  0  0  0  0  0  0  0  0
  -29.4660  -20.8410   19.2660 C   0  0  0  0  0  2  0  0  0  0  0  0
  -28.5220  -21.8790   19.7990 N   0  0  0  0  0  4  0  0  0  0  0  0
  -28.4650  -21.7600   20.7970 H   0  0  0  0  0  0  0  0  0  0  0  0
  -27.6110  -21.6630   19.4280 H   0  0  0  0  0  0  0  0  0  0  0  0
  -28.8510  -23.3210   19.4940 C   0  0  0  0  0  2  0  0  0  0  0  0
  -27.8320  -24.3750   20.0620 C   0  0  0  0  0  2  0  0  0  0  0  0
  -28.3610  -25.8150   20.4160 C   0  0  0  0  0  2  0  0  0  0  0  0
  -28.1590  -26.9050   19.4850 O   0  0  0  0  0  0  0  0  0  0  0  0
  -24.6580  -31.8090   23.4030 C   0  0  0  0  0  0  0  0  0  0  0  0
  -27.0380  -27.6920   19.6850 C   0  0  0  0  0  0  0  0  0  0  0  0
  -23.3460  -30.6490   21.6550 C   0  0  0  0  0  3  0  0  0  0  0  0
  -24.6980  -29.2650   19.9880 C   0  0  0  0  0  0  0  0  0  0  0  0
  -25.8740  -30.9620   21.3930 C   0  0  0  0  0  2  0  0  0  0  0  0
  -25.8960  -29.6760   20.5880 C   0  0  0  0  0  0  0  0  0  0  0  0
  -27.0720  -28.8970   20.4340 C   0  0  0  0  0  3  0  0  0  0  0  0
  -25.8260  -27.3060   19.0790 C   0  0  0  0  0  3  0  0  0  0  0  0
  -24.6600  -28.0800   19.2310 C   0  0  0  0  0  3  0  0  0  0  0  0
  -23.4820  -30.1430   20.1950 C   0  0  0  0  0  2  0  0  0  0  0  0
  -24.6470  -31.1500   22.2090 N   0  0  0  0  0  0  0  0  0  0  0  0
  -23.6080  -32.0340   24.0220 O   0  0  0  0  0  0  0  0  0  0  0  0
  -22.7060  -29.5320   22.5110 C   0  0  0  0  0  0  0  0  0  0  0  0
  -21.3820  -29.3560   22.3760 N   0  0  0  0  0  0  0  0  0  0  0  0
  -23.3980  -28.8310   23.2530 O   0  0  0  0  0  0  0  0  0  0  0  0
  -20.8840  -29.9760   21.7510 H   0  0  0  0  0  0  0  0  0  0  0  0
  -18.0260  -28.0610   22.7270 C   0  0  0  0  0  0  0  0  0  0  0  0
  -20.5760  -28.3380   23.0500 C   0  0  0  0  0  3  0  0  0  0  0  0
  -20.7110  -26.9660   22.3480 C   0  0  0  0  0  2  0  0  0  0  0  0
  -19.6250  -26.7180   21.2970 C   0  0  0  0  0  2  0  0  0  0  0  0
  -18.2340  -26.7810   21.9340 C   0  0  0  0  0  2  0  0  0  0  0  0
  -19.1270  -28.8000   23.2380 C   0  0  0  0  0  0  0  0  0  0  0  0
  -18.8800  -29.9990   23.9390 C   0  0  0  0  0  3  0  0  0  0  0  0
  -17.5660  -30.4620   24.1350 C   0  0  0  0  0  3  0  0  0  0  0  0
  -16.4790  -29.7180   23.6420 C   0  0  0  0  0  3  0  0  0  0  0  0
  -16.7100  -28.5190   22.9450 C   0  0  0  0  0  3  0  0  0  0  0  0
  -25.9860  -32.3270   24.0370 C   0  0  0  0  0  3  0  0  0  0  0  0
  -25.7620  -33.7160   24.4620 N   0  0  0  0  0  0  0  0  0  0  0  0
  -26.1430  -34.7960   23.7670 C   0  0  0  0  0  0  0  0  0  0  0  0
  -26.7930  -34.7220   22.7210 O   0  0  0  0  0  0  0  0  0  0  0  0
  -25.1890  -33.8500   25.2830 H   0  0  0  0  0  0  0  0  0  0  0  0
  -24.5120  -36.6980   23.5530 C   0  0  0  0  0  1  0  0  0  0  0  0
  -25.7380  -36.1760   24.3200 C   0  0  0  0  0  3  0  0  0  0  0  0
  -27.9190  -36.8950   25.1860 C   0  0  0  0  0  1  0  0  0  0  0  0
  -26.8260  -37.1760   24.2600 N   0  0  0  0  0  0  0  0  0  0  0  0
  -26.4720  -38.1080   24.4630 H   0  0  0  0  0  0  0  0  0  0  0  0
  -26.4810  -31.4480   25.2510 C   0  0  1  0  0  0  0  0  0  0  0  0
  -25.3860  -31.1800   26.3080 C   0  0  0  0  0  1  0  0  0  0  0  0
  -27.0070  -30.0810   24.7550 C   0  0  0  0  0  1  0  0  0  0  0  0
  -27.6660  -32.1490   25.9570 C   0  0  0  0  0  1  0  0  0  0  0  0
  1  7  1  0
  1  4  1  0
  2  1  2  0
  3  2  1  0
  3  5  2  0
  4  9  1  0
  5  6  1  0
  6  4  2  0
  6 10  1  0
  8  3  1  0
 11 19  1  0
 12 17  1  0
 13 14  1  0
 13 12  1  0
 15 14  1  0
 15 24  1  0
 15 16  1  0
 17 11  1  0
 17 16  1  0
 18 11  2  0
 19  5  1  0
 19 20  1  0
 21 22  2  0
 22 41  1  0
 23 22  1  0
 23 26  1  0
 24 25  1  0
 24 21  1  0
 25 23  2  0
 26 27  1  0
 27 28  2  0
 29 32  1  0
 29 28  1  0
 30 29  2  0
 31 30  1  0
 31 26  2  0
 32 33  1  0
 33 38  2  0
 33 34  1  0
 34 35  2  0
 35 36  1  0
 36 40  1  0
 37 36  2  0
 38 37  1  0
 39 38  1  0
 41 42  1  0
 42 45  1  0
 42 44  1  0
 43 41  2  0
 46 21  1  0
 46 47  1  0
 48 46  1  0
 49 50  1  0
 49  2  1  0
 50 51  1  0
 52 50  1  0
 53 50  1  0
 53 54  1  0
 54 55  1  0
 56 58  1  0
 56 55  1  0
 57 68  2  0
 58 63  1  0
 59 67  1  0
 59 69  1  0
 60 66  1  0
 60 62  1  0
 61 67  1  0
 62 61  1  0
 63 62  2  0
 64 65  1  0
 64 58  2  0
 65 60  2  0
 66 59  1  0
 67 57  1  0
 69 71  2  0
 70 69  1  0
 72 70  1  0
 73 82  2  0
 73 78  1  0
 74 70  1  0
 74 78  1  0
 75 74  1  0
 76 77  1  0
 76 75  1  0
 77 73  1  0
 78 79  2  0
 79 80  1  0
 81 80  2  0
 82 81  1  0
 83 57  1  0
 83 84  1  0
 83 93  1  0
 84 87  1  0
 85 89  1  0
 85 84  1  0
 86 85  2  0
 89 88  1  0
 91 89  1  0
 91 92  1  0
 91 90  1  0
 93 96  1  1
 93 94  1  0
 95 93  1  0
M  ISO  4  11 100  19 100  55 101  56 101
M  END
>  <TORSDO>  (47) 
F 21

>  <SCORE>  (47) 
-11.777

>  <name>  (47) 
46

>  <ligand_id>  (47) 
46

>  <original_smiles>  (47) 
[H]c1c([H])c([H])c2c(c1[H])C([H])([H])C([H])([H])C([H])([H])C2([H])N([H])C(=O)C1([H])N(C(=O)C([H])(N([H])C(=O)C([H])(N([H])C([H])([H])[H])C([H])([H])[H])C(C([H])([H])[H])(C([H])([H])[H])C([H])([H])[H])C([H])([H])c2c([H])c(OC([H])([H])C([H])([H])C([H])([H])[N+]([H])([H])C([H])([H])c3c(C([H])([H])[H])c(N([H])C(=O)N4C([H])([H])C([H])([H])C([H])([H])C([H])(n5nc(-c6c([H])c([H])c(Oc7c([H])c([H])c(F)c([H])c7F)c([H])c6[H])c(C(=O)N([H])[H])c5N([H])[H])C4([H])[H])c(Cl)c(C([H])([H])[H])c3C([H])([H])[H])c([H])c([H])c2C1([H])[H]

>  <smiles>  (47) 
[H]c1c([H])c([H])c2c(c1[H])C([H])([H])C([H])([H])C([H])([H])C2([H])N([H])C(=O)C1([H])N(C(=O)C([H])(N([H])C(=O)C([H])(N([H])C([H])([H])[H])C([H])([H])[H])C(C([H])([H])[H])(C([H])([H])[H])C([H])([H])[H])C([H])([H])c2c([H])c(OC([H])([H])C([H])([H])C([H])([H])[N+]([H])([H])C([H])([H])c3c(C([H])([H])[H])c(N([H])C(=O)N4C([H])([H])C([H])([H])C([H])([H])C([H])(n5nc(-c6c([H])c([H])c(Oc7c([H])c([H])c(F)c([H])c7F)c([H])c6[H])c(C(=O)N([H])[H])c5N([H])[H])C4([H])[H])c(Cl)c(C([H])([H])[H])c3C([H])([H])[H])c([H])c([H])c2C1([H])[H]

$$$$
47:0:0
     RDKit          3D

 94102  0  0  1  0  0  0  0  0999 V2000
  -29.9400  -22.2270   18.8570 C   0  0  0  0  0  3  0  0  0  0  0  0
  -29.8790  -22.4760   21.2700 C   0  0  0  0  0  3  0  0  0  0  0  0
  -30.1430  -23.0310   19.9990 C   0  0  0  0  0  0  0  0  0  0  0  0
  -29.1610  -20.3670   20.2500 C   0  0  0  0  0  0  0  0  0  0  0  0
  -29.4770  -20.9000   18.9750 C   0  0  0  0  0  0  0  0  0  0  0  0
  -29.3730  -21.1700   21.3960 C   0  0  0  0  0  0  0  0  0  0  0  0
  -29.2960  -19.9730   17.5260 Cl  0  0  0  0  0  0  0  0  0  0  0  0
  -29.0030  -20.6010   22.9870 Cl  0  0  0  0  0  0  0  0  0  0  0  0
  -30.6800  -24.4540   19.8160 C   0  0  0  0  0  2  0  0  0  0  0  0
  -30.3760  -25.4760   20.9360 C   0  0  0  0  0  2  0  0  0  0  0  0
  -28.9410  -26.0340   20.9300 C   0  0  0  0  0  2  0  0  0  0  0  0
  -28.7510  -26.8900   19.8100 O   0  0  0  0  0  0  0  0  0  0  0  0
  -24.7090  -31.7130   23.1140 C   0  0  0  0  0  0  0  0  0  0  0  0
  -27.5540  -27.5510   19.8590 C   0  0  0  0  0  0  0  0  0  0  0  0
  -23.5610  -30.3130   21.4260 C   0  0  0  0  0  3  0  0  0  0  0  0
  -25.0820  -28.8970   19.9460 C   0  0  0  0  0  0  0  0  0  0  0  0
  -26.0600  -30.8110   21.2260 C   0  0  0  0  0  2  0  0  0  0  0  0
  -26.2110  -29.4680   20.5460 C   0  0  0  0  0  0  0  0  0  0  0  0
  -27.4520  -28.7990   20.5070 C   0  0  0  0  0  3  0  0  0  0  0  0
  -26.4130  -26.9780   19.2620 C   0  0  0  0  0  3  0  0  0  0  0  0
  -25.1720  -27.6460   19.3070 C   0  0  0  0  0  3  0  0  0  0  0  0
  -23.7960  -29.6890   20.0230 C   0  0  0  0  0  2  0  0  0  0  0  0
  -24.7950  -30.9580   21.9830 N   0  0  0  0  0  0  0  0  0  0  0  0
  -23.6200  -31.9090   23.6720 O   0  0  0  0  0  0  0  0  0  0  0  0
  -22.9720  -29.2260   22.3540 C   0  0  0  0  0  0  0  0  0  0  0  0
  -21.6590  -28.9770   22.2220 N   0  0  0  0  0  0  0  0  0  0  0  0
  -23.6900  -28.6140   23.1480 O   0  0  0  0  0  0  0  0  0  0  0  0
  -21.1370  -29.5300   21.5560 H   0  0  0  0  0  0  0  0  0  0  0  0
  -18.3630  -27.5740   22.6690 C   0  0  0  0  0  0  0  0  0  0  0  0
  -20.8980  -27.9750   22.9650 C   0  0  0  0  0  3  0  0  0  0  0  0
  -21.0900  -26.5670   22.3580 C   0  0  0  0  0  2  0  0  0  0  0  0
  -20.0150  -26.2030   21.3270 C   0  0  0  0  0  2  0  0  0  0  0  0
  -18.6230  -26.2530   21.9620 C   0  0  0  0  0  2  0  0  0  0  0  0
  -19.4320  -28.3880   23.1270 C   0  0  0  0  0  0  0  0  0  0  0  0
  -19.1390  -29.6200   23.7500 C   0  0  0  0  0  3  0  0  0  0  0  0
  -17.8080  -30.0430   23.9170 C   0  0  0  0  0  3  0  0  0  0  0  0
  -16.7510  -29.2280   23.4730 C   0  0  0  0  0  3  0  0  0  0  0  0
  -17.0300  -27.9940   22.8570 C   0  0  0  0  0  3  0  0  0  0  0  0
  -25.9680  -32.3880   23.7470 C   0  0  0  0  0  3  0  0  0  0  0  0
  -25.5980  -33.7610   24.1130 N   0  0  0  0  0  0  0  0  0  0  0  0
  -25.8750  -34.8460   23.3750 C   0  0  0  0  0  0  0  0  0  0  0  0
  -26.5420  -34.7970   22.3370 O   0  0  0  0  0  0  0  0  0  0  0  0
  -25.0100  -33.8700   24.9290 H   0  0  0  0  0  0  0  0  0  0  0  0
  -24.0610  -36.5600   23.0680 C   0  0  0  0  0  1  0  0  0  0  0  0
  -25.3250  -36.1990   23.8650 C   0  0  0  0  0  3  0  0  0  0  0  0
  -27.4200  -37.1670   24.7040 C   0  0  0  0  0  1  0  0  0  0  0  0
  -26.3050  -37.3040   23.7710 N   0  0  0  0  0  0  0  0  0  0  0  0
  -25.8560  -38.1970   23.9440 H   0  0  0  0  0  0  0  0  0  0  0  0
  -26.5290  -31.6070   24.9980 C   0  0  1  0  0  0  0  0  0  0  0  0
  -25.4610  -31.2860   26.0690 C   0  0  0  0  0  1  0  0  0  0  0  0
  -27.1720  -30.2720   24.5570 C   0  0  0  0  0  1  0  0  0  0  0  0
  -27.6460  -32.4350   25.6760 C   0  0  0  0  0  1  0  0  0  0  0  0
  -28.5340  -18.9780   20.4000 C   0  0  0  0  0  2  0  0  0  0  0  0
  -29.4270  -17.8880   21.0300 C   0  0  0  0  0  2  0  0  0  0  0  0
  -30.8760  -17.8320   20.5180 C   0  0  0  0  0  2  0  0  0  0  0  0
  -31.6890  -16.6700   21.1190 C   0  0  0  0  0  2  0  0  0  0  0  0
  -31.5800  -14.4200   20.0280 C   0  0  0  0  0  0  0  0  0  0  0  0
  -31.1490  -12.2440   18.9470 C   0  0  0  0  0  2  0  0  0  0  0  0
  -30.1560  -12.3630   17.7730 C   0  0  0  0  0  2  0  0  0  0  0  0
  -28.6930  -12.3570   18.2530 C   0  0  0  0  0  2  0  0  0  0  0  0
  -28.4430  -13.2930   19.4660 C   0  0  0  0  0  3  0  0  0  0  0  0
  -29.5160  -13.0690   20.5530 C   0  0  0  0  0  2  0  0  0  0  0  0
  -30.8360  -13.2880   19.9360 N   0  0  0  0  0  0  0  0  0  0  0  0
  -32.6280  -14.5920   19.3950 O   0  0  0  0  0  0  0  0  0  0  0  0
  -31.0860  -15.3640   20.8440 N   0  0  0  0  0  0  0  0  0  0  0  0
  -30.2080  -15.1520   21.2990 H   0  0  0  0  0  0  0  0  0  0  0  0
  -26.1230  -14.0820   20.2590 C   0  0  0  0  0  0  0  0  0  0  0  0
  -25.0130  -13.3920   20.6740 C   0  0  0  0  0  0  0  0  0  0  0  0
  -25.3620  -12.0110   20.6100 C   0  0  0  0  0  0  0  0  0  0  0  0
  -27.0880  -13.1230   19.9900 N   0  0  0  0  0  0  0  0  0  0  0  0
  -26.6320  -11.8700   20.2530 N   0  0  0  0  0  0  0  0  0  0  0  0
  -24.5440  -10.8100   20.8170 C   0  0  0  0  0  0  0  0  0  0  0  0
  -24.8970   -9.8380   21.7770 C   0  0  0  0  0  3  0  0  0  0  0  0
  -24.0900   -8.6960   21.9690 C   0  0  0  0  0  3  0  0  0  0  0  0
  -22.9150   -8.5200   21.2010 C   0  0  0  0  0  0  0  0  0  0  0  0
  -22.5800   -9.4790   20.2300 C   0  0  0  0  0  3  0  0  0  0  0  0
  -23.3860  -10.6130   20.0360 C   0  0  0  0  0  3  0  0  0  0  0  0
  -22.0860   -7.4290   21.2990 O   0  0  0  0  0  0  0  0  0  0  0  0
  -21.9030   -6.7670   22.4860 C   0  0  0  0  0  0  0  0  0  0  0  0
  -21.4140   -7.4230   23.6360 C   0  0  0  0  0  3  0  0  0  0  0  0
  -21.1740   -6.6900   24.8150 C   0  0  0  0  0  3  0  0  0  0  0  0
  -21.4150   -5.3040   24.8430 C   0  0  0  0  0  0  0  0  0  0  0  0
  -21.8980   -4.6470   23.7000 C   0  0  0  0  0  3  0  0  0  0  0  0
  -22.1360   -5.3770   22.5220 C   0  0  0  0  0  0  0  0  0  0  0  0
  -22.5790   -4.7380   21.4130 F   0  0  0  0  0  0  0  0  0  0  0  0
  -21.1790   -4.5980   25.9740 F   0  0  0  0  0  0  0  0  0  0  0  0
  -23.6720  -13.9750   21.0140 C   0  0  0  0  0  0  0  0  0  0  0  0
  -22.9400  -13.3350   21.9200 N   0  0  0  0  0  0  0  0  0  0  0  0
  -23.2830  -15.0260   20.5100 O   0  0  0  0  0  0  0  0  0  0  0  0
  -23.2760  -12.4880   22.3590 H   0  0  0  0  0  0  0  0  0  0  0  0
  -22.0340  -13.6940   22.1840 H   0  0  0  0  0  0  0  0  0  0  0  0
  -26.3820  -15.4340   20.0680 N   0  0  0  0  0  0  0  0  0  0  0  0
  -25.6570  -16.1370   20.1530 H   0  0  0  0  0  0  0  0  0  0  0  0
  -27.1910  -15.7620   19.5560 H   0  0  0  0  0  0  0  0  0  0  0  0
  1  5  2  0
  1  3  1  0
  2  6  1  0
  3  2  2  0
  4 53  1  0
  4  6  2  0
  5  4  1  0
  6  8  1  0
  7  5  1  0
  9  3  1  0
  9 10  1  0
 11 10  1  0
 12 14  1  0
 12 11  1  0
 13 24  2  0
 14 19  1  0
 15 23  1  0
 15 25  1  0
 16 22  1  0
 16 18  1  0
 17 23  1  0
 18 17  1  0
 19 18  2  0
 20 21  1  0
 20 14  2  0
 21 16  2  0
 22 15  1  0
 23 13  1  0
 25 27  2  0
 26 25  1  0
 28 26  1  0
 29 38  2  0
 29 34  1  0
 30 26  1  0
 30 34  1  0
 31 30  1  0
 32 33  1  0
 32 31  1  0
 33 29  1  0
 34 35  2  0
 35 36  1  0
 37 36  2  0
 38 37  1  0
 39 13  1  0
 39 40  1  0
 39 49  1  0
 40 43  1  0
 41 45  1  0
 41 40  1  0
 42 41  2  0
 45 44  1  0
 47 45  1  0
 47 48  1  0
 47 46  1  0
 49 52  1  1
 49 50  1  0
 51 49  1  0
 53 54  1  0
 55 54  1  0
 55 56  1  0
 57 65  1  0
 58 63  1  0
 59 60  1  0
 59 58  1  0
 61 60  1  0
 61 70  1  0
 61 62  1  0
 63 57  1  0
 63 62  1  0
 64 57  2  0
 65 56  1  0
 65 66  1  0
 67 68  2  0
 68 87  1  0
 69 68  1  0
 69 72  1  0
 70 71  1  0
 70 67  1  0
 71 69  2  0
 72 73  1  0
 73 74  2  0
 75 78  1  0
 75 74  1  0
 76 75  2  0
 77 76  1  0
 77 72  2  0
 78 79  1  0
 79 84  2  0
 79 80  1  0
 80 81  2  0
 81 82  1  0
 82 86  1  0
 83 82  2  0
 84 83  1  0
 85 84  1  0
 87 88  1  0
 88 91  1  0
 88 90  1  0
 89 87  2  0
 92 93  1  0
 92 67  1  0
 94 92  1  0
M  ISO  4  11 101  12 101  57 100  65 100
M  END
>  <TORSDO>  (48) 
F 23

>  <SCORE>  (48) 
-10.464

>  <name>  (48) 
47

>  <ligand_id>  (48) 
47

>  <original_smiles>  (48) 
[H]c1c([H])c([H])c2c(c1[H])C([H])([H])C([H])([H])C([H])([H])C2([H])N([H])C(=O)C1([H])N(C(=O)C([H])(N([H])C(=O)C([H])(N([H])C([H])([H])[H])C([H])([H])[H])C(C([H])([H])[H])(C([H])([H])[H])C([H])([H])[H])C([H])([H])c2c([H])c(OC([H])([H])C([H])([H])C([H])([H])c3c([H])c(Cl)c(C([H])([H])C([H])([H])C([H])([H])C([H])([H])N([H])C(=O)N4C([H])([H])C([H])([H])C([H])([H])C([H])(n5nc(-c6c([H])c([H])c(Oc7c([H])c([H])c(F)c([H])c7F)c([H])c6[H])c(C(=O)N([H])[H])c5N([H])[H])C4([H])[H])c(Cl)c3[H])c([H])c([H])c2C1([H])[H]

>  <smiles>  (48) 
[H]c1c([H])c([H])c2c(c1[H])C([H])([H])C([H])([H])C([H])([H])C2([H])N([H])C(=O)C1([H])N(C(=O)C([H])(N([H])C(=O)C([H])(N([H])C([H])([H])[H])C([H])([H])[H])C(C([H])([H])[H])(C([H])([H])[H])C([H])([H])[H])C([H])([H])c2c([H])c(OC([H])([H])C([H])([H])C([H])([H])c3c([H])c(Cl)c(C([H])([H])C([H])([H])C([H])([H])C([H])([H])N([H])C(=O)N4C([H])([H])C([H])([H])C([H])([H])C([H])(n5nc(-c6c([H])c([H])c(Oc7c([H])c([H])c(F)c([H])c7F)c([H])c6[H])c(C(=O)N([H])[H])c5N([H])[H])C4([H])[H])c(Cl)c3[H])c([H])c([H])c2C1([H])[H]

$$$$
48:0:0
     RDKit          3D

 93101  0  0  1  0  0  0  0  0999 V2000
  -30.3390  -21.5260   19.2170 C   0  0  0  0  0  0  0  0  0  0  0  0
  -29.0340  -21.3580   19.7290 C   0  0  0  0  0  0  0  0  0  0  0  0
  -31.2020  -22.4010   19.9290 C   0  0  0  0  0  0  0  0  0  0  0  0
  -28.5100  -22.7300   20.2780 C   0  0  0  0  0  0  0  0  0  0  0  0
  -30.6550  -23.1390   21.0070 C   0  0  0  0  0  0  0  0  0  0  0  0
  -29.3310  -23.2830   21.1880 N   0  0  0  0  0  0  0  0  0  0  0  0
  -31.6680  -23.9850   22.1230 Cl  0  0  0  0  0  0  0  0  0  0  0  0
  -31.0390  -21.4960   16.7620 C   0  0  0  0  0  1  0  0  0  0  0  0
  -30.8040  -20.6760   18.0370 C   0  0  0  0  0  2  0  0  0  0  0  0
  -33.1170  -23.7980   18.9840 C   0  0  0  0  0  1  0  0  0  0  0  0
  -32.7030  -22.4760   19.6450 C   0  0  0  0  0  2  0  0  0  0  0  0
  -28.7430  -19.6580   20.0820 C   0  0  0  0  0  3  0  0  0  0  0  0
  -29.7840  -18.1720   19.9070 C   0  0  0  0  0  3  0  0  0  0  0  0
  -30.3100  -15.2630   19.9170 C   0  0  0  0  0  0  0  0  0  0  0  0
  -30.2830  -12.8240   19.0210 C   0  0  0  0  0  2  0  0  0  0  0  0
  -29.3030  -12.6140   17.8400 C   0  0  0  0  0  2  0  0  0  0  0  0
  -27.8890  -12.3070   18.3610 C   0  0  0  0  0  2  0  0  0  0  0  0
  -27.4820  -13.2520   19.5180 C   0  0  0  0  0  3  0  0  0  0  0  0
  -28.5840  -13.4150   20.5860 C   0  0  0  0  0  2  0  0  0  0  0  0
  -29.7660  -13.9470   19.8900 N   0  0  0  0  0  0  0  0  0  0  0  0
  -31.5100  -15.2870   19.6040 O   0  0  0  0  0  0  0  0  0  0  0  0
  -29.5360  -16.5240   20.0910 N   0  0  0  0  0  0  0  0  0  0  0  0
  -28.5760  -16.3180   20.3270 H   0  0  0  0  0  0  0  0  0  0  0  0
  -25.1400  -13.7510   20.3930 C   0  0  0  0  0  0  0  0  0  0  0  0
  -24.1210  -12.9470   20.8220 C   0  0  0  0  0  0  0  0  0  0  0  0
  -24.6230  -11.6100   20.7730 C   0  0  0  0  0  0  0  0  0  0  0  0
  -26.1920  -12.9020   20.0980 N   0  0  0  0  0  0  0  0  0  0  0  0
  -25.8970  -11.6090   20.3940 N   0  0  0  0  0  0  0  0  0  0  0  0
  -23.9410  -10.3300   21.0060 C   0  0  0  0  0  0  0  0  0  0  0  0
  -24.4070   -9.4040   21.9670 C   0  0  0  0  0  3  0  0  0  0  0  0
  -23.7200   -8.1920   22.1850 C   0  0  0  0  0  3  0  0  0  0  0  0
  -22.5520   -7.8940   21.4440 C   0  0  0  0  0  0  0  0  0  0  0  0
  -22.1050   -8.8070   20.4720 C   0  0  0  0  0  3  0  0  0  0  0  0
  -22.7940  -10.0110   20.2520 C   0  0  0  0  0  3  0  0  0  0  0  0
  -21.8330   -6.7290   21.5710 O   0  0  0  0  0  0  0  0  0  0  0  0
  -21.7740   -6.0470   22.7600 C   0  0  0  0  0  0  0  0  0  0  0  0
  -21.2420   -6.6310   23.9290 C   0  0  0  0  0  3  0  0  0  0  0  0
  -21.1350   -5.8710   25.1110 C   0  0  0  0  0  3  0  0  0  0  0  0
  -21.5510   -4.5260   25.1240 C   0  0  0  0  0  0  0  0  0  0  0  0
  -22.0770   -3.9400   23.9590 C   0  0  0  0  0  3  0  0  0  0  0  0
  -22.1850   -4.6980   22.7800 C   0  0  0  0  0  0  0  0  0  0  0  0
  -22.6720   -4.1220   21.6540 F   0  0  0  0  0  0  0  0  0  0  0  0
  -21.4420   -3.7930   26.2570 F   0  0  0  0  0  0  0  0  0  0  0  0
  -22.7270  -13.3880   21.1580 C   0  0  0  0  0  0  0  0  0  0  0  0
  -22.0560  -12.6730   22.0530 N   0  0  0  0  0  0  0  0  0  0  0  0
  -22.2430  -14.4050   20.6610 O   0  0  0  0  0  0  0  0  0  0  0  0
  -22.4600  -11.8510   22.4770 H   0  0  0  0  0  0  0  0  0  0  0  0
  -21.1240  -12.9540   22.3220 H   0  0  0  0  0  0  0  0  0  0  0  0
  -25.2530  -15.1240   20.1980 N   0  0  0  0  0  0  0  0  0  0  0  0
  -24.4680  -15.7510   20.3410 H   0  0  0  0  0  0  0  0  0  0  0  0
  -26.0550  -15.5830   19.7860 H   0  0  0  0  0  0  0  0  0  0  0  0
  -27.7180  -24.1330   19.5970 C   0  0  0  0  0  2  0  0  0  0  0  0
  -27.9540  -25.7550   19.8450 O   0  0  0  0  0  0  0  0  0  0  0  0
  -24.4940  -31.7200   22.9100 C   0  0  0  0  0  0  0  0  0  0  0  0
  -26.9600  -26.8700   19.7720 C   0  0  0  0  0  0  0  0  0  0  0  0
  -23.2600  -30.3550   21.2730 C   0  0  0  0  0  3  0  0  0  0  0  0
  -24.6730  -28.7670   19.7920 C   0  0  0  0  0  0  0  0  0  0  0  0
  -25.8240  -30.5530   21.0830 C   0  0  0  0  0  2  0  0  0  0  0  0
  -25.8730  -29.1550   20.4000 C   0  0  0  0  0  0  0  0  0  0  0  0
  -27.0090  -28.2250   20.3700 C   0  0  0  0  0  3  0  0  0  0  0  0
  -25.7340  -26.6430   19.1050 C   0  0  0  0  0  3  0  0  0  0  0  0
  -24.6290  -27.5330   19.1230 C   0  0  0  0  0  3  0  0  0  0  0  0
  -23.4590  -29.6940   19.8810 C   0  0  0  0  0  2  0  0  0  0  0  0
  -24.5490  -30.9030   21.8080 N   0  0  0  0  0  0  0  0  0  0  0  0
  -23.4170  -32.0080   23.4570 O   0  0  0  0  0  0  0  0  0  0  0  0
  -22.5800  -29.3470   22.2370 C   0  0  0  0  0  0  0  0  0  0  0  0
  -21.2420  -29.2250   22.1670 N   0  0  0  0  0  0  0  0  0  0  0  0
  -23.2620  -28.6770   23.0160 O   0  0  0  0  0  0  0  0  0  0  0  0
  -20.7450  -29.8170   21.5160 H   0  0  0  0  0  0  0  0  0  0  0  0
  -17.8470  -28.1290   22.8260 C   0  0  0  0  0  0  0  0  0  0  0  0
  -20.4270  -28.2860   22.9460 C   0  0  0  0  0  3  0  0  0  0  0  0
  -20.4360  -26.8780   22.3060 C   0  0  0  0  0  2  0  0  0  0  0  0
  -19.2640  -26.6440   21.3460 C   0  0  0  0  0  2  0  0  0  0  0  0
  -17.9290  -26.8080   22.0790 C   0  0  0  0  0  2  0  0  0  0  0  0
  -19.0180  -28.8300   23.2190 C   0  0  0  0  0  0  0  0  0  0  0  0
  -18.8830  -30.0650   23.8870 C   0  0  0  0  0  3  0  0  0  0  0  0
  -17.6110  -30.6020   24.1600 C   0  0  0  0  0  3  0  0  0  0  0  0
  -16.4540  -29.8980   23.7800 C   0  0  0  0  0  3  0  0  0  0  0  0
  -16.5740  -28.6620   23.1190 C   0  0  0  0  0  3  0  0  0  0  0  0
  -25.7810  -32.3460   23.5280 C   0  0  0  0  0  3  0  0  0  0  0  0
  -25.4570  -33.7190   23.9540 N   0  0  0  0  0  0  0  0  0  0  0  0
  -25.8140  -34.8330   23.3000 C   0  0  0  0  0  0  0  0  0  0  0  0
  -26.5130  -34.8110   22.2840 O   0  0  0  0  0  0  0  0  0  0  0  0
  -24.8380  -33.8110   24.7470 H   0  0  0  0  0  0  0  0  0  0  0  0
  -24.1370  -36.6900   23.0210 C   0  0  0  0  0  1  0  0  0  0  0  0
  -25.3210  -36.1840   23.8590 C   0  0  0  0  0  3  0  0  0  0  0  0
  -27.4090  -36.9540   24.9010 C   0  0  0  0  0  1  0  0  0  0  0  0
  -26.3740  -37.2220   23.9060 N   0  0  0  0  0  0  0  0  0  0  0  0
  -25.9720  -38.1350   24.1050 H   0  0  0  0  0  0  0  0  0  0  0  0
  -26.3480  -31.5200   24.7490 C   0  0  1  0  0  0  0  0  0  0  0  0
  -25.2930  -31.2180   25.8390 C   0  0  0  0  0  1  0  0  0  0  0  0
  -26.9330  -30.1690   24.2790 C   0  0  0  0  0  1  0  0  0  0  0  0
  -27.5120  -32.2950   25.4090 C   0  0  0  0  0  1  0  0  0  0  0  0
  1  2  2  0
  1  3  1  0
  2 12  1  0
  2  4  1  0
  3  5  2  0
  4  6  2  0
  5  6  1  0
  5  7  1  0
  8  9  1  0
  9  1  1  0
 10 11  1  0
 11  3  1  0
 13 12  2  0
 13 22  1  0
 14 22  1  0
 15 20  1  0
 16 17  1  0
 16 15  1  0
 18 17  1  0
 18 27  1  0
 18 19  1  0
 20 14  1  0
 20 19  1  0
 21 14  2  0
 22 23  1  0
 24 25  2  0
 25 44  1  0
 26 25  1  0
 26 29  1  0
 27 24  1  0
 27 28  1  0
 28 26  2  0
 29 30  1  0
 30 31  2  0
 32 35  1  0
 32 31  1  0
 33 32  2  0
 34 33  1  0
 34 29  2  0
 35 36  1  0
 36 41  2  0
 36 37  1  0
 37 38  2  0
 38 39  1  0
 39 43  1  0
 40 39  2  0
 41 40  1  0
 42 41  1  0
 44 45  1  0
 45 48  1  0
 45 47  1  0
 46 44  2  0
 49 50  1  0
 49 24  1  0
 51 49  1  0
 52 53  1  0
 52  4  1  0
 54 65  2  0
 55 53  1  0
 55 60  1  0
 56 64  1  0
 56 66  1  0
 57 63  1  0
 57 59  1  0
 58 64  1  0
 59 58  1  0
 60 59  2  0
 61 62  1  0
 61 55  2  0
 62 57  2  0
 63 56  1  0
 64 54  1  0
 66 68  2  0
 67 66  1  0
 69 67  1  0
 70 79  2  0
 70 75  1  0
 71 67  1  0
 71 75  1  0
 72 71  1  0
 73 74  1  0
 73 72  1  0
 74 70  1  0
 75 76  2  0
 76 77  1  0
 78 77  2  0
 79 78  1  0
 80 54  1  0
 80 81  1  0
 80 90  1  0
 81 84  1  0
 82 86  1  0
 82 81  1  0
 83 82  2  0
 86 85  1  0
 86 88  1  0
 88 89  1  0
 88 87  1  0
 90 93  1  1
 90 91  1  0
 92 90  1  0
M  ISO  4  14 100  22 100  52 101  53 101
M  END
>  <TORSDO>  (49) 
F 21

>  <SCORE>  (49) 
-13.582

>  <name>  (49) 
48

>  <ligand_id>  (49) 
48

>  <original_smiles>  (49) 
[H]c1c([H])c([H])c2c(c1[H])C([H])([H])C([H])([H])C([H])([H])C2([H])N([H])C(=O)C1([H])N(C(=O)C([H])(N([H])C(=O)C([H])(N([H])C([H])([H])[H])C([H])([H])[H])C(C([H])([H])[H])(C([H])([H])[H])C([H])([H])[H])C([H])([H])c2c([H])c(OC([H])([H])c3nc(Cl)c(C([H])([H])C([H])([H])[H])c(C([H])([H])C([H])([H])[H])c3C([H])([H])C([H])([H])N([H])C(=O)N3C([H])([H])C([H])([H])C([H])([H])C([H])(n4nc(-c5c([H])c([H])c(Oc6c([H])c([H])c(F)c([H])c6F)c([H])c5[H])c(C(=O)N([H])[H])c4N([H])[H])C3([H])[H])c([H])c([H])c2C1([H])[H]

>  <smiles>  (49) 
[H]c1c([H])c([H])c2c(c1[H])C([H])([H])C([H])([H])C([H])([H])C2([H])N([H])C(=O)C1([H])N(C(=O)C([H])(N([H])C(=O)C([H])(N([H])C([H])([H])[H])C([H])([H])[H])C(C([H])([H])[H])(C([H])([H])[H])C([H])([H])[H])C([H])([H])c2c([H])c(OC([H])([H])c3nc(Cl)c(C([H])([H])C([H])([H])[H])c(C([H])([H])C([H])([H])[H])c3C([H])([H])C([H])([H])N([H])C(=O)N3C([H])([H])C([H])([H])C([H])([H])C([H])(n4nc(-c5c([H])c([H])c(Oc6c([H])c([H])c(F)c([H])c6F)c([H])c5[H])c(C(=O)N([H])[H])c4N([H])[H])C3([H])[H])c([H])c([H])c2C1([H])[H]

$$$$
49:0:0
     RDKit          3D

 93101  0  0  1  0  0  0  0  0999 V2000
  -30.6280  -19.7880   20.2400 C   0  0  0  0  0  3  0  0  0  0  0  0
  -30.0280  -21.0570   20.1320 C   0  0  0  0  0  0  0  0  0  0  0  0
  -30.9940  -19.2580   21.4920 C   0  0  0  0  0  0  0  0  0  0  0  0
  -29.8120  -21.8410   21.2930 C   0  0  0  0  0  0  0  0  0  0  0  0
  -30.2970  -21.3720   22.5450 C   0  0  0  0  0  0  0  0  0  0  0  0
  -30.8660  -20.0730   22.6450 C   0  0  0  0  0  0  0  0  0  0  0  0
  -29.5520  -21.5100   18.7610 C   0  0  0  0  0  1  0  0  0  0  0  0
  -30.1340  -22.2230   23.8030 C   0  0  0  0  0  1  0  0  0  0  0  0
  -31.3230  -19.4540   24.2000 Cl  0  0  0  0  0  0  0  0  0  0  0  0
  -31.4020  -17.7830   21.5580 C   0  0  0  0  0  2  0  0  0  0  0  0
  -30.3220  -16.9140   20.8790 C   0  0  0  0  0  2  0  0  0  0  0  0
  -31.0330  -14.5570   20.5200 C   0  0  0  0  0  0  0  0  0  0  0  0
  -30.7330  -12.4240   19.3180 C   0  0  0  0  0  2  0  0  0  0  0  0
  -29.8110  -12.6610   18.1040 C   0  0  0  0  0  2  0  0  0  0  0  0
  -28.3260  -12.5530   18.5040 C   0  0  0  0  0  2  0  0  0  0  0  0
  -27.9850  -13.3930   19.7640 C   0  0  0  0  0  3  0  0  0  0  0  0
  -29.0080  -13.1050   20.8900 C   0  0  0  0  0  2  0  0  0  0  0  0
  -30.3630  -13.3840   20.3690 N   0  0  0  0  0  0  0  0  0  0  0  0
  -32.1080  -14.8100   19.9660 O   0  0  0  0  0  0  0  0  0  0  0  0
  -30.3560  -15.4880   21.2030 N   0  0  0  0  0  0  0  0  0  0  0  0
  -29.5470  -15.1380   21.6940 H   0  0  0  0  0  0  0  0  0  0  0  0
  -25.5850  -14.0700   20.4210 C   0  0  0  0  0  0  0  0  0  0  0  0
  -24.4880  -13.3270   20.7630 C   0  0  0  0  0  0  0  0  0  0  0  0
  -24.9100  -11.9620   20.7270 C   0  0  0  0  0  0  0  0  0  0  0  0
  -26.6110  -13.1610   20.2070 N   0  0  0  0  0  0  0  0  0  0  0  0
  -26.2030  -11.8870   20.4440 N   0  0  0  0  0  0  0  0  0  0  0  0
  -24.1450  -10.7200   20.8930 C   0  0  0  0  0  0  0  0  0  0  0  0
  -24.5330   -9.7340   21.8260 C   0  0  0  0  0  3  0  0  0  0  0  0
  -23.7740   -8.5550   21.9800 C   0  0  0  0  0  3  0  0  0  0  0  0
  -22.6100   -8.3540   21.2000 C   0  0  0  0  0  0  0  0  0  0  0  0
  -22.2400   -9.3290   20.2570 C   0  0  0  0  0  3  0  0  0  0  0  0
  -23.0000  -10.5000   20.1010 C   0  0  0  0  0  3  0  0  0  0  0  0
  -21.8230   -7.2290   21.2630 O   0  0  0  0  0  0  0  0  0  0  0  0
  -21.7080   -6.4950   22.4160 C   0  0  0  0  0  0  0  0  0  0  0  0
  -21.2320   -7.0650   23.6160 C   0  0  0  0  0  3  0  0  0  0  0  0
  -21.0630   -6.2580   24.7600 C   0  0  0  0  0  3  0  0  0  0  0  0
  -21.3610   -4.8830   24.7030 C   0  0  0  0  0  0  0  0  0  0  0  0
  -21.8300   -4.3140   23.5060 C   0  0  0  0  0  3  0  0  0  0  0  0
  -22.0000   -5.1170   22.3650 C   0  0  0  0  0  0  0  0  0  0  0  0
  -22.4330   -4.5600   21.2080 F   0  0  0  0  0  0  0  0  0  0  0  0
  -21.1920   -4.1050   25.7970 F   0  0  0  0  0  0  0  0  0  0  0  0
  -23.0990  -13.8400   21.0160 C   0  0  0  0  0  0  0  0  0  0  0  0
  -22.3410  -13.1650   21.8710 N   0  0  0  0  0  0  0  0  0  0  0  0
  -22.6940  -14.8760   20.4880 O   0  0  0  0  0  0  0  0  0  0  0  0
  -22.6790  -12.3300   22.3230 H   0  0  0  0  0  0  0  0  0  0  0  0
  -21.4080  -13.4930   22.0800 H   0  0  0  0  0  0  0  0  0  0  0  0
  -25.7920  -15.4370   20.2600 N   0  0  0  0  0  0  0  0  0  0  0  0
  -25.0410  -16.1100   20.3600 H   0  0  0  0  0  0  0  0  0  0  0  0
  -26.6640  -15.8570   19.9590 H   0  0  0  0  0  0  0  0  0  0  0  0
  -28.9080  -23.0770   21.2130 C   0  0  0  0  0  2  0  0  0  0  0  0
  -29.5670  -24.4580   20.9610 C   0  0  0  0  0  2  0  0  0  0  0  0
  -28.4980  -25.3850   20.3480 C   0  0  0  0  0  2  0  0  0  0  0  0
  -28.7050  -26.8070   20.4390 O   0  0  0  0  0  0  0  0  0  0  0  0
  -24.6670  -31.9170   23.2920 C   0  0  0  0  0  0  0  0  0  0  0  0
  -27.5470  -27.5600   20.3130 C   0  0  0  0  0  0  0  0  0  0  0  0
  -23.5740  -30.5030   21.5880 C   0  0  0  0  0  3  0  0  0  0  0  0
  -25.1270  -29.0260   20.2130 C   0  0  0  0  0  0  0  0  0  0  0  0
  -26.0980  -30.9230   21.5120 C   0  0  0  0  0  2  0  0  0  0  0  0
  -26.2460  -29.5640   20.8620 C   0  0  0  0  0  0  0  0  0  0  0  0
  -27.4600  -28.8370   20.9130 C   0  0  0  0  0  3  0  0  0  0  0  0
  -26.4140  -27.0620   19.6220 C   0  0  0  0  0  3  0  0  0  0  0  0
  -25.2060  -27.7740   19.5890 C   0  0  0  0  0  3  0  0  0  0  0  0
  -23.8630  -29.8500   20.2120 C   0  0  0  0  0  2  0  0  0  0  0  0
  -24.7950  -31.1280   22.1890 N   0  0  0  0  0  0  0  0  0  0  0  0
  -23.5550  -32.1590   23.7820 O   0  0  0  0  0  0  0  0  0  0  0  0
  -22.9050  -29.4540   22.5070 C   0  0  0  0  0  0  0  0  0  0  0  0
  -21.5900  -29.2490   22.3260 N   0  0  0  0  0  0  0  0  0  0  0  0
  -23.5670  -28.8290   23.3420 O   0  0  0  0  0  0  0  0  0  0  0  0
  -21.1160  -29.8070   21.6300 H   0  0  0  0  0  0  0  0  0  0  0  0
  -18.2140  -28.0100   22.6960 C   0  0  0  0  0  0  0  0  0  0  0  0
  -20.7600  -28.2890   23.0540 C   0  0  0  0  0  3  0  0  0  0  0  0
  -20.8960  -26.8700   22.4560 C   0  0  0  0  0  2  0  0  0  0  0  0
  -19.8290  -26.5550   21.4030 C   0  0  0  0  0  2  0  0  0  0  0  0
  -18.4260  -26.6740   22.0040 C   0  0  0  0  0  2  0  0  0  0  0  0
  -19.3100  -28.7750   23.1750 C   0  0  0  0  0  0  0  0  0  0  0  0
  -19.0600  -30.0270   23.7790 C   0  0  0  0  0  3  0  0  0  0  0  0
  -17.7450  -30.5120   23.9100 C   0  0  0  0  0  3  0  0  0  0  0  0
  -16.6630  -29.7440   23.4470 C   0  0  0  0  0  3  0  0  0  0  0  0
  -16.8980  -28.4950   22.8460 C   0  0  0  0  0  3  0  0  0  0  0  0
  -25.9060  -32.5740   23.9750 C   0  0  0  0  0  3  0  0  0  0  0  0
  -25.5590  -33.9710   24.2670 N   0  0  0  0  0  0  0  0  0  0  0  0
  -25.9030  -35.0160   23.5030 C   0  0  0  0  0  0  0  0  0  0  0  0
  -26.6190  -34.9090   22.5030 O   0  0  0  0  0  0  0  0  0  0  0  0
  -24.9290  -34.1270   25.0400 H   0  0  0  0  0  0  0  0  0  0  0  0
  -24.1520  -36.7610   23.0500 C   0  0  0  0  0  1  0  0  0  0  0  0
  -25.3710  -36.4010   23.9130 C   0  0  0  0  0  3  0  0  0  0  0  0
  -27.4540  -37.3500   24.8020 C   0  0  0  0  0  1  0  0  0  0  0  0
  -26.3850  -37.4740   23.8150 N   0  0  0  0  0  0  0  0  0  0  0  0
  -25.9540  -38.3880   23.9270 H   0  0  0  0  0  0  0  0  0  0  0  0
  -26.3640  -31.8250   25.2850 C   0  0  1  0  0  0  0  0  0  0  0  0
  -25.2180  -31.5810   26.2950 C   0  0  0  0  0  1  0  0  0  0  0  0
  -26.9900  -30.4520   24.9400 C   0  0  0  0  0  1  0  0  0  0  0  0
  -27.4620  -32.6470   26.0000 C   0  0  0  0  0  1  0  0  0  0  0  0
  1  3  1  0
  2  1  2  0
  2  4  1  0
  3 10  1  0
  3  6  2  0
  4  5  2  0
  5  6  1  0
  5  8  1  0
  6  9  1  0
  7  2  1  0
 11 20  1  0
 11 10  1  0
 12 20  1  0
 13 18  1  0
 14 15  1  0
 14 13  1  0
 16 15  1  0
 16 25  1  0
 16 17  1  0
 18 12  1  0
 18 17  1  0
 19 12  2  0
 20 21  1  0
 22 23  2  0
 23 42  1  0
 24 23  1  0
 24 27  1  0
 25 22  1  0
 25 26  1  0
 26 24  2  0
 27 28  1  0
 28 29  2  0
 30 33  1  0
 30 29  1  0
 31 30  2  0
 32 31  1  0
 32 27  2  0
 33 34  1  0
 34 35  1  0
 35 36  2  0
 37 36  1  0
 37 41  1  0
 38 37  2  0
 39 34  2  0
 39 38  1  0
 40 39  1  0
 42 43  1  0
 43 46  1  0
 43 45  1  0
 44 42  2  0
 47 48  1  0
 47 22  1  0
 49 47  1  0
 50  4  1  0
 51 50  1  0
 52 53  1  0
 52 51  1  0
 54 65  2  0
 55 53  1  0
 55 60  1  0
 56 64  1  0
 56 66  1  0
 57 59  1  0
 58 64  1  0
 59 60  2  0
 59 58  1  0
 61 55  2  0
 62 61  1  0
 62 57  2  0
 63 57  1  0
 63 56  1  0
 64 54  1  0
 66 68  2  0
 67 66  1  0
 69 67  1  0
 70 79  2  0
 70 75  1  0
 71 67  1  0
 71 75  1  0
 72 71  1  0
 73 74  1  0
 73 72  1  0
 74 70  1  0
 75 76  2  0
 76 77  1  0
 78 77  2  0
 79 78  1  0
 80 54  1  0
 80 81  1  0
 80 90  1  0
 81 84  1  0
 82 86  1  0
 82 81  1  0
 83 82  2  0
 86 85  1  0
 88 86  1  0
 88 89  1  0
 88 87  1  0
 90 93  1  1
 90 91  1  0
 92 90  1  0
M  ISO  4  12 100  20 100  52 101  53 101
M  END
>  <TORSDO>  (50) 
F 21

>  <SCORE>  (50) 
-13.509

>  <name>  (50) 
49

>  <ligand_id>  (50) 
49

>  <original_smiles>  (50) 
[H]c1c([H])c([H])c2c(c1[H])C([H])([H])C([H])([H])C([H])([H])C2([H])N([H])C(=O)C1([H])N(C(=O)C([H])(N([H])C(=O)C([H])(N([H])C([H])([H])[H])C([H])([H])[H])C(C([H])([H])[H])(C([H])([H])[H])C([H])([H])[H])C([H])([H])c2c([H])c(OC([H])([H])C([H])([H])C([H])([H])c3c(C([H])([H])[H])c([H])c(C([H])([H])C([H])([H])N([H])C(=O)N4C([H])([H])C([H])([H])C([H])([H])C([H])(n5nc(-c6c([H])c([H])c(Oc7c([H])c([H])c(F)c([H])c7F)c([H])c6[H])c(C(=O)N([H])[H])c5N([H])[H])C4([H])[H])c(Cl)c3C([H])([H])[H])c([H])c([H])c2C1([H])[H]

>  <smiles>  (50) 
[H]c1c([H])c([H])c2c(c1[H])C([H])([H])C([H])([H])C([H])([H])C2([H])N([H])C(=O)C1([H])N(C(=O)C([H])(N([H])C(=O)C([H])(N([H])C([H])([H])[H])C([H])([H])[H])C(C([H])([H])[H])(C([H])([H])[H])C([H])([H])[H])C([H])([H])c2c([H])c(OC([H])([H])C([H])([H])C([H])([H])c3c(C([H])([H])[H])c([H])c(C([H])([H])C([H])([H])N([H])C(=O)N4C([H])([H])C([H])([H])C([H])([H])C([H])(n5nc(-c6c([H])c([H])c(Oc7c([H])c([H])c(F)c([H])c7F)c([H])c6[H])c(C(=O)N([H])[H])c5N([H])[H])C4([H])[H])c(Cl)c3C([H])([H])[H])c([H])c([H])c2C1([H])[H]

$$$$
50:0:0
     RDKit          3D

 94102  0  0  1  0  0  0  0  0999 V2000
  -29.6980  -20.6660   20.6170 C   0  0  0  0  0  3  0  0  0  0  0  0
  -28.8240  -21.7780   20.4240 C   0  0  0  0  0  0  0  0  0  0  0  0
  -29.5010  -19.4090   19.9690 C   0  0  0  0  0  0  0  0  0  0  0  0
  -27.7070  -21.6010   19.5650 C   0  0  0  0  0  0  0  0  0  0  0  0
  -28.4120  -19.2820   19.0670 C   0  0  0  0  0  0  0  0  0  0  0  0
  -27.5310  -20.3770   18.8680 C   0  0  0  0  0  0  0  0  0  0  0  0
  -26.6610  -22.7000   19.3900 C   0  0  0  0  0  1  0  0  0  0  0  0
  -26.2140  -20.2260   17.7460 Cl  0  0  0  0  0  0  0  0  0  0  0  0
  -28.9190  -17.9450   16.9510 C   0  0  0  0  0  1  0  0  0  0  0  0
  -28.1850  -17.9790   18.2980 C   0  0  0  0  0  2  0  0  0  0  0  0
  -29.0290  -23.0890   21.2330 C   0  0  0  0  0  2  0  0  0  0  0  0
  -29.2110  -24.4560   20.4700 C   0  0  0  0  0  2  0  0  0  0  0  0
  -28.8020  -25.7040   21.3270 C   0  0  0  0  0  2  0  0  0  0  0  0
  -28.8740  -27.0030   20.6800 O   0  0  0  0  0  0  0  0  0  0  0  0
  -24.6830  -32.1010   23.4740 C   0  0  0  0  0  0  0  0  0  0  0  0
  -27.6900  -27.7200   20.6170 C   0  0  0  0  0  0  0  0  0  0  0  0
  -23.6370  -30.6280   21.7860 C   0  0  0  0  0  3  0  0  0  0  0  0
  -25.2370  -29.1390   20.4660 C   0  0  0  0  0  0  0  0  0  0  0  0
  -26.1530  -31.0930   21.7260 C   0  0  0  0  0  2  0  0  0  0  0  0
  -26.3390  -29.7170   21.1100 C   0  0  0  0  0  0  0  0  0  0  0  0
  -27.5710  -29.0190   21.1750 C   0  0  0  0  0  3  0  0  0  0  0  0
  -26.5700  -27.1600   19.9670 C   0  0  0  0  0  3  0  0  0  0  0  0
  -25.3490  -27.8600   19.8900 C   0  0  0  0  0  3  0  0  0  0  0  0
  -23.9560  -29.9430   20.4300 C   0  0  0  0  0  2  0  0  0  0  0  0
  -24.8390  -31.2910   22.3870 N   0  0  0  0  0  0  0  0  0  0  0  0
  -23.5620  -32.3310   23.9490 O   0  0  0  0  0  0  0  0  0  0  0  0
  -22.9760  -29.5910   22.7230 C   0  0  0  0  0  0  0  0  0  0  0  0
  -21.6690  -29.3540   22.5290 N   0  0  0  0  0  0  0  0  0  0  0  0
  -23.6400  -29.0020   23.5800 O   0  0  0  0  0  0  0  0  0  0  0  0
  -21.1930  -29.8860   21.8130 H   0  0  0  0  0  0  0  0  0  0  0  0
  -18.3120  -28.0670   22.9040 C   0  0  0  0  0  0  0  0  0  0  0  0
  -20.8510  -28.3890   23.2640 C   0  0  0  0  0  3  0  0  0  0  0  0
  -21.0110  -26.9670   22.6810 C   0  0  0  0  0  2  0  0  0  0  0  0
  -19.9530  -26.6240   21.6270 C   0  0  0  0  0  2  0  0  0  0  0  0
  -18.5460  -26.7290   22.2250 C   0  0  0  0  0  2  0  0  0  0  0  0
  -19.3940  -28.8540   23.3770 C   0  0  0  0  0  0  0  0  0  0  0  0
  -19.1240  -30.1070   23.9700 C   0  0  0  0  0  3  0  0  0  0  0  0
  -17.8020  -30.5740   24.0930 C   0  0  0  0  0  3  0  0  0  0  0  0
  -16.7320  -29.7850   23.6380 C   0  0  0  0  0  3  0  0  0  0  0  0
  -16.9880  -28.5330   23.0490 C   0  0  0  0  0  3  0  0  0  0  0  0
  -25.9010  -32.7970   24.1580 C   0  0  0  0  0  3  0  0  0  0  0  0
  -25.5460  -34.2060   24.3700 N   0  0  0  0  0  0  0  0  0  0  0  0
  -25.9150  -35.2140   23.5680 C   0  0  0  0  0  0  0  0  0  0  0  0
  -26.6610  -35.0570   22.5970 O   0  0  0  0  0  0  0  0  0  0  0  0
  -24.8900  -34.4000   25.1120 H   0  0  0  0  0  0  0  0  0  0  0  0
  -24.1790  -36.9350   22.9770 C   0  0  0  0  0  1  0  0  0  0  0  0
  -25.3710  -36.6180   23.8930 C   0  0  0  0  0  3  0  0  0  0  0  0
  -27.4240  -37.6130   24.8020 C   0  0  0  0  0  1  0  0  0  0  0  0
  -26.3880  -37.6860   23.7750 N   0  0  0  0  0  0  0  0  0  0  0  0
  -25.9550  -38.6040   23.8270 H   0  0  0  0  0  0  0  0  0  0  0  0
  -26.3230  -32.1180   25.5180 C   0  0  1  0  0  0  0  0  0  0  0  0
  -25.1420  -31.8860   26.4900 C   0  0  0  0  0  1  0  0  0  0  0  0
  -26.9970  -30.7510   25.2590 C   0  0  0  0  0  1  0  0  0  0  0  0
  -27.3690  -32.9980   26.2420 C   0  0  0  0  0  1  0  0  0  0  0  0
  -30.5120  -18.2480   20.1750 C   0  0  0  0  0  2  0  0  0  0  0  0
  -30.2600  -17.2440   21.3530 C   0  0  0  0  0  2  0  0  0  0  0  0
  -30.6340  -14.8660   20.4660 C   0  0  0  0  0  0  0  0  0  0  0  0
  -30.4040  -12.7220   19.2450 C   0  0  0  0  0  2  0  0  0  0  0  0
  -29.4280  -12.9130   18.0660 C   0  0  0  0  0  2  0  0  0  0  0  0
  -27.9670  -12.7150   18.5180 C   0  0  0  0  0  2  0  0  0  0  0  0
  -27.6280  -13.5050   19.8090 C   0  0  0  0  0  3  0  0  0  0  0  0
  -28.7110  -13.2880   20.8890 C   0  0  0  0  0  2  0  0  0  0  0  0
  -30.0070  -13.6650   20.3050 N   0  0  0  0  0  0  0  0  0  0  0  0
  -31.7640  -15.0910   20.0250 O   0  0  0  0  0  0  0  0  0  0  0  0
  -29.8800  -15.8480   21.0120 N   0  0  0  0  0  0  0  0  0  0  0  0
  -28.9560  -15.5630   21.3010 H   0  0  0  0  0  0  0  0  0  0  0  0
  -25.2310  -14.0280   20.5850 C   0  0  0  0  0  0  0  0  0  0  0  0
  -24.1880  -13.2190   20.9420 C   0  0  0  0  0  0  0  0  0  0  0  0
  -24.6800  -11.8800   20.8550 C   0  0  0  0  0  0  0  0  0  0  0  0
  -26.2920  -13.1810   20.3030 N   0  0  0  0  0  0  0  0  0  0  0  0
  -25.9650  -11.8820   20.5250 N   0  0  0  0  0  0  0  0  0  0  0  0
  -23.9860  -10.5960   21.0110 C   0  0  0  0  0  0  0  0  0  0  0  0
  -24.4270   -9.6270   21.9390 C   0  0  0  0  0  3  0  0  0  0  0  0
  -23.7330   -8.4060   22.0840 C   0  0  0  0  0  3  0  0  0  0  0  0
  -22.5830   -8.1470   21.3000 C   0  0  0  0  0  0  0  0  0  0  0  0
  -22.1620   -9.1060   20.3620 C   0  0  0  0  0  3  0  0  0  0  0  0
  -22.8570  -10.3170   20.2150 C   0  0  0  0  0  3  0  0  0  0  0  0
  -21.8600   -6.9790   21.3550 O   0  0  0  0  0  0  0  0  0  0  0  0
  -21.7850   -6.2320   22.5030 C   0  0  0  0  0  0  0  0  0  0  0  0
  -21.2540   -6.7590   23.7000 C   0  0  0  0  0  3  0  0  0  0  0  0
  -21.1310   -5.9350   24.8370 C   0  0  0  0  0  3  0  0  0  0  0  0
  -21.5280   -4.5860   24.7770 C   0  0  0  0  0  0  0  0  0  0  0  0
  -22.0520   -4.0590   23.5840 C   0  0  0  0  0  3  0  0  0  0  0  0
  -22.1770   -4.8800   22.4490 C   0  0  0  0  0  0  0  0  0  0  0  0
  -22.6630   -4.3620   21.2950 F   0  0  0  0  0  0  0  0  0  0  0  0
  -21.4030   -3.7920   25.8660 F   0  0  0  0  0  0  0  0  0  0  0  0
  -22.7850  -13.6520   21.2540 C   0  0  0  0  0  0  0  0  0  0  0  0
  -22.0900  -12.9100   22.1090 N   0  0  0  0  0  0  0  0  0  0  0  0
  -22.3130  -14.6840   20.7770 O   0  0  0  0  0  0  0  0  0  0  0  0
  -22.4850  -12.0750   22.5160 H   0  0  0  0  0  0  0  0  0  0  0  0
  -21.1500  -13.1810   22.3610 H   0  0  0  0  0  0  0  0  0  0  0  0
  -25.3620  -15.4070   20.4590 N   0  0  0  0  0  0  0  0  0  0  0  0
  -24.5810  -16.0370   20.6110 H   0  0  0  0  0  0  0  0  0  0  0  0
  -26.1990  -15.8830   20.1550 H   0  0  0  0  0  0  0  0  0  0  0  0
  2  1  1  0
  2 11  1  0
  3 55  1  0
  3  1  2  0
  4  2  2  0
  5  3  1  0
  6  5  2  0
  6  4  1  0
  7  4  1  0
  8  6  1  0
  9 10  1  0
 10  5  1  0
 12 11  1  0
 12 13  1  0
 14 13  1  0
 15 26  2  0
 16 14  1  0
 16 21  1  0
 17 25  1  0
 17 27  1  0
 18 20  1  0
 19 25  1  0
 20 21  2  0
 20 19  1  0
 22 16  2  0
 23 22  1  0
 23 18  2  0
 24 18  1  0
 24 17  1  0
 25 15  1  0
 27 29  2  0
 28 27  1  0
 30 28  1  0
 31 40  2  0
 31 36  1  0
 32 28  1  0
 32 36  1  0
 33 32  1  0
 34 35  1  0
 34 33  1  0
 35 31  1  0
 36 37  2  0
 37 38  1  0
 39 38  2  0
 40 39  1  0
 41 15  1  0
 41 42  1  0
 41 51  1  0
 42 45  1  0
 43 47  1  0
 43 42  1  0
 44 43  2  0
 47 46  1  0
 49 50  1  0
 49 47  1  0
 49 48  1  0
 51 54  1  1
 51 52  1  0
 53 51  1  0
 55 56  1  0
 57 65  1  0
 58 63  1  0
 59 60  1  0
 59 58  1  0
 61 60  1  0
 61 70  1  0
 61 62  1  0
 63 57  1  0
 63 62  1  0
 64 57  2  0
 65 66  1  0
 65 56  1  0
 67 68  2  0
 68 87  1  0
 69 68  1  0
 69 72  1  0
 70 71  1  0
 70 67  1  0
 71 69  2  0
 72 73  1  0
 73 74  2  0
 75 78  1  0
 75 74  1  0
 76 75  2  0
 77 76  1  0
 77 72  2  0
 78 79  1  0
 79 80  1  0
 80 81  2  0
 82 81  1  0
 82 86  1  0
 83 82  2  0
 84 79  2  0
 84 83  1  0
 85 84  1  0
 87 88  1  0
 88 91  1  0
 88 90  1  0
 89 87  2  0
 92 67  1  0
 92 93  1  0
 94 92  1  0
M  ISO  4  13 101  14 101  57 100  65 100
M  END
>  <TORSDO>  (51) 
F 22

>  <SCORE>  (51) 
-12.851

>  <name>  (51) 
50

>  <ligand_id>  (51) 
50

>  <original_smiles>  (51) 
[H]c1c([H])c([H])c2c(c1[H])C([H])([H])C([H])([H])C([H])([H])C2([H])N([H])C(=O)C1([H])N(C(=O)C([H])(N([H])C(=O)C([H])(N([H])C([H])([H])[H])C([H])([H])[H])C(C([H])([H])[H])(C([H])([H])[H])C([H])([H])[H])C([H])([H])c2c([H])c(OC([H])([H])C([H])([H])C([H])([H])c3c([H])c(C([H])([H])C([H])([H])N([H])C(=O)N4C([H])([H])C([H])([H])C([H])([H])C([H])(n5nc(-c6c([H])c([H])c(Oc7c([H])c([H])c(F)c([H])c7F)c([H])c6[H])c(C(=O)N([H])[H])c5N([H])[H])C4([H])[H])c(C([H])([H])C([H])([H])[H])c(Cl)c3C([H])([H])[H])c([H])c([H])c2C1([H])[H]

>  <smiles>  (51) 
[H]c1c([H])c([H])c2c(c1[H])C([H])([H])C([H])([H])C([H])([H])C2([H])N([H])C(=O)C1([H])N(C(=O)C([H])(N([H])C(=O)C([H])(N([H])C([H])([H])[H])C([H])([H])[H])C(C([H])([H])[H])(C([H])([H])[H])C([H])([H])[H])C([H])([H])c2c([H])c(OC([H])([H])C([H])([H])C([H])([H])c3c([H])c(C([H])([H])C([H])([H])N([H])C(=O)N4C([H])([H])C([H])([H])C([H])([H])C([H])(n5nc(-c6c([H])c([H])c(Oc7c([H])c([H])c(F)c([H])c7F)c([H])c6[H])c(C(=O)N([H])[H])c5N([H])[H])C4([H])[H])c(C([H])([H])C([H])([H])[H])c(Cl)c3C([H])([H])[H])c([H])c([H])c2C1([H])[H]

$$$$
51:0:0
     RDKit          3D

 90 98  0  0  1  0  0  0  0  0999 V2000
  -30.8750  -21.5310   20.5230 C   0  0  0  0  0  3  0  0  0  0  0  0
  -28.7700  -19.7480   20.5200 C   0  0  0  0  0  3  0  0  0  0  0  0
  -29.5960  -22.1700   20.4390 C   0  0  0  0  0  0  0  0  0  0  0  0
  -30.0640  -19.1220   20.5730 C   0  0  0  0  0  0  0  0  0  0  0  0
  -28.5370  -21.1960   20.4480 C   0  0  0  0  0  0  0  0  0  0  0  0
  -31.1060  -20.1080   20.5970 C   0  0  0  0  0  0  0  0  0  0  0  0
  -26.9030  -21.7560   20.4120 Cl  0  0  0  0  0  0  0  0  0  0  0  0
  -32.7510  -19.6060   20.7920 Cl  0  0  0  0  0  0  0  0  0  0  0  0
  -29.5220  -23.8020   20.2390 C   0  0  0  0  0  3  0  0  0  0  0  0
  -28.3250  -24.8930   20.6040 C   0  0  0  0  0  3  0  0  0  0  0  0
  -28.4400  -26.3950   20.2610 O   0  0  0  0  0  0  0  0  0  0  0  0
  -24.6710  -31.9080   23.2310 C   0  0  0  0  0  0  0  0  0  0  0  0
  -27.3130  -27.2790   20.2270 C   0  0  0  0  0  0  0  0  0  0  0  0
  -23.4760  -30.5060   21.5910 C   0  0  0  0  0  3  0  0  0  0  0  0
  -24.9420  -28.9470   20.1720 C   0  0  0  0  0  0  0  0  0  0  0  0
  -26.0170  -30.8270   21.4000 C   0  0  0  0  0  2  0  0  0  0  0  0
  -26.1170  -29.4360   20.7620 C   0  0  0  0  0  0  0  0  0  0  0  0
  -27.3070  -28.6270   20.7530 C   0  0  0  0  0  3  0  0  0  0  0  0
  -26.1080  -26.8650   19.6140 C   0  0  0  0  0  3  0  0  0  0  0  0
  -24.9430  -27.6670   19.5940 C   0  0  0  0  0  3  0  0  0  0  0  0
  -23.6980  -29.8230   20.2150 C   0  0  0  0  0  2  0  0  0  0  0  0
  -24.7400  -31.1020   22.1280 N   0  0  0  0  0  0  0  0  0  0  0  0
  -23.5860  -32.1800   23.7700 O   0  0  0  0  0  0  0  0  0  0  0  0
  -22.8110  -29.4930   22.5610 C   0  0  0  0  0  0  0  0  0  0  0  0
  -21.4850  -29.3030   22.4310 N   0  0  0  0  0  0  0  0  0  0  0  0
  -23.4930  -28.8750   23.3840 O   0  0  0  0  0  0  0  0  0  0  0  0
  -20.9910  -29.8480   21.7390 H   0  0  0  0  0  0  0  0  0  0  0  0
  -18.1170  -28.0790   22.9560 C   0  0  0  0  0  0  0  0  0  0  0  0
  -20.6760  -28.3560   23.2020 C   0  0  0  0  0  3  0  0  0  0  0  0
  -20.7820  -26.9280   22.6190 C   0  0  0  0  0  2  0  0  0  0  0  0
  -19.6720  -26.6050   21.6110 C   0  0  0  0  0  2  0  0  0  0  0  0
  -18.2960  -26.7370   22.2660 C   0  0  0  0  0  2  0  0  0  0  0  0
  -19.2340  -28.8470   23.3810 C   0  0  0  0  0  0  0  0  0  0  0  0
  -19.0100  -30.1020   23.9860 C   0  0  0  0  0  3  0  0  0  0  0  0
  -17.7030  -30.5940   24.1660 C   0  0  0  0  0  3  0  0  0  0  0  0
  -16.6020  -29.8240   23.7540 C   0  0  0  0  0  3  0  0  0  0  0  0
  -16.8080  -28.5670   23.1580 C   0  0  0  0  0  3  0  0  0  0  0  0
  -25.9470  -32.5550   23.8560 C   0  0  0  0  0  3  0  0  0  0  0  0
  -26.4590  -31.7990   25.1430 C   0  0  1  0  0  0  0  0  0  0  0  0
  -25.3660  -31.5650   26.2100 C   0  0  0  0  0  1  0  0  0  0  0  0
  -27.0550  -30.4220   24.7700 C   0  0  0  0  0  1  0  0  0  0  0  0
  -27.6020  -32.6060   25.8060 C   0  0  0  0  0  1  0  0  0  0  0  0
  -25.6310  -33.9560   24.1800 N   0  0  0  0  0  0  0  0  0  0  0  0
  -25.9460  -35.0080   23.4090 C   0  0  0  0  0  0  0  0  0  0  0  0
  -26.6020  -34.8980   22.3710 O   0  0  0  0  0  0  0  0  0  0  0  0
  -25.0590  -34.1120   24.9950 H   0  0  0  0  0  0  0  0  0  0  0  0
  -24.2090  -36.7880   23.0510 C   0  0  0  0  0  1  0  0  0  0  0  0
  -25.4560  -36.3950   23.8620 C   0  0  0  0  0  3  0  0  0  0  0  0
  -27.5870  -37.2970   24.6820 C   0  0  0  0  0  1  0  0  0  0  0  0
  -26.4840  -37.4520   23.7380 N   0  0  0  0  0  0  0  0  0  0  0  0
  -26.0750  -38.3720   23.8700 H   0  0  0  0  0  0  0  0  0  0  0  0
  -30.3640  -17.5300   20.9150 C   0  0  0  0  0  2  0  0  0  0  0  0
  -30.5990  -15.0080   20.0270 C   0  0  0  0  0  0  0  0  0  0  0  0
  -30.3520  -12.7360   18.9490 C   0  0  0  0  0  2  0  0  0  0  0  0
  -29.3180  -12.7110   17.7940 C   0  0  0  0  0  2  0  0  0  0  0  0
  -27.9010  -12.4820   18.3380 C   0  0  0  0  0  2  0  0  0  0  0  0
  -27.5770  -13.4030   19.5410 C   0  0  0  0  0  3  0  0  0  0  0  0
  -28.7110  -13.4070   20.5910 C   0  0  0  0  0  2  0  0  0  0  0  0
  -29.9420  -13.7950   19.9090 N   0  0  0  0  0  0  0  0  0  0  0  0
  -31.8030  -15.0420   19.7610 O   0  0  0  0  0  0  0  0  0  0  0  0
  -29.8850  -16.2010   20.2720 N   0  0  0  0  0  0  0  0  0  0  0  0
  -28.8790  -16.0670   20.2910 H   0  0  0  0  0  0  0  0  0  0  0  0
  -25.2620  -13.9790   20.4720 C   0  0  0  0  0  0  0  0  0  0  0  0
  -24.2160  -13.1910   20.8740 C   0  0  0  0  0  0  0  0  0  0  0  0
  -24.6690  -11.8430   20.7770 C   0  0  0  0  0  0  0  0  0  0  0  0
  -26.2790  -13.0990   20.1310 N   0  0  0  0  0  0  0  0  0  0  0  0
  -25.9400  -11.8140   20.3910 N   0  0  0  0  0  0  0  0  0  0  0  0
  -23.9510  -10.5750   20.9690 C   0  0  0  0  0  0  0  0  0  0  0  0
  -24.3960   -9.6040   21.8920 C   0  0  0  0  0  3  0  0  0  0  0  0
  -23.6750   -8.4040   22.0740 C   0  0  0  0  0  3  0  0  0  0  0  0
  -22.4970   -8.1640   21.3310 C   0  0  0  0  0  0  0  0  0  0  0  0
  -22.0670   -9.1250   20.3970 C   0  0  0  0  0  3  0  0  0  0  0  0
  -22.7890  -10.3160   20.2120 C   0  0  0  0  0  3  0  0  0  0  0  0
  -21.7470   -7.0160   21.4220 O   0  0  0  0  0  0  0  0  0  0  0  0
  -21.6710   -6.2930   22.5850 C   0  0  0  0  0  0  0  0  0  0  0  0
  -21.1760   -6.8570   23.7800 C   0  0  0  0  0  3  0  0  0  0  0  0
  -21.0500   -6.0580   24.9340 C   0  0  0  0  0  3  0  0  0  0  0  0
  -21.4240   -4.7010   24.8960 C   0  0  0  0  0  0  0  0  0  0  0  0
  -21.9120   -4.1370   23.7040 C   0  0  0  0  0  3  0  0  0  0  0  0
  -22.0400   -4.9330   22.5510 C   0  0  0  0  0  0  0  0  0  0  0  0
  -22.4940   -4.3810   21.3990 F   0  0  0  0  0  0  0  0  0  0  0  0
  -21.2970   -3.9310   26.0010 F   0  0  0  0  0  0  0  0  0  0  0  0
  -22.8360  -13.6640   21.2400 C   0  0  0  0  0  0  0  0  0  0  0  0
  -22.1500  -12.9410   22.1150 N   0  0  0  0  0  0  0  0  0  0  0  0
  -22.3810  -14.7120   20.7830 O   0  0  0  0  0  0  0  0  0  0  0  0
  -22.5380  -12.0910   22.5020 H   0  0  0  0  0  0  0  0  0  0  0  0
  -21.2290  -13.2410   22.4060 H   0  0  0  0  0  0  0  0  0  0  0  0
  -25.4220  -15.3490   20.3350 N   0  0  0  0  0  0  0  0  0  0  0  0
  -24.6710  -16.0020   20.5320 H   0  0  0  0  0  0  0  0  0  0  0  0
  -26.2630  -15.8030   20.0080 H   0  0  0  0  0  0  0  0  0  0  0  0
  1  6  1  0
  2  4  1  0
  3  5  1  0
  3  1  2  0
  4  6  2  0
  4 52  1  0
  5  2  2  0
  6  8  1  0
  7  5  1  0
  9  3  1  0
  9 10  2  0
 11 10  1  0
 12 23  2  0
 13 11  1  0
 13 18  1  0
 14 22  1  0
 14 24  1  0
 15 21  1  0
 15 17  1  0
 16 22  1  0
 17 16  1  0
 18 17  2  0
 19 13  2  0
 20 19  1  0
 20 15  2  0
 21 14  1  0
 22 12  1  0
 24 26  2  0
 25 24  1  0
 27 25  1  0
 28 37  2  0
 28 33  1  0
 29 25  1  0
 29 33  1  0
 30 29  1  0
 31 32  1  0
 31 30  1  0
 32 28  1  0
 33 34  2  0
 34 35  1  0
 36 35  2  0
 37 36  1  0
 38 12  1  0
 38 43  1  0
 38 39  1  0
 39 42  1  1
 39 40  1  0
 41 39  1  0
 43 46  1  0
 44 48  1  0
 44 43  1  0
 45 44  2  0
 48 47  1  0
 50 48  1  0
 50 51  1  0
 50 49  1  0
 53 61  1  0
 54 59  1  0
 55 56  1  0
 55 54  1  0
 57 56  1  0
 57 66  1  0
 57 58  1  0
 59 53  1  0
 59 58  1  0
 60 53  2  0
 61 62  1  0
 61 52  1  0
 63 64  2  0
 64 83  1  0
 65 64  1  0
 65 68  1  0
 66 67  1  0
 66 63  1  0
 67 65  2  0
 68 69  1  0
 69 70  2  0
 71 74  1  0
 71 70  1  0
 72 71  2  0
 73 72  1  0
 73 68  2  0
 74 75  1  0
 75 76  1  0
 76 77  2  0
 78 77  1  0
 78 82  1  0
 79 78  2  0
 80 75  2  0
 80 79  1  0
 81 80  1  0
 83 84  1  0
 84 87  1  0
 84 86  1  0
 85 83  2  0
 88 63  1  0
 88 89  1  0
 90 88  1  0
M  ISO  4  10 101  11 101  53 100  61 100
M  END
>  <TORSDO>  (52) 
F 19

>  <SCORE>  (52) 
-13.913

>  <name>  (52) 
51

>  <ligand_id>  (52) 
51

>  <original_smiles>  (52) 
[H]c1c([H])c([H])c2c(c1[H])C([H])([H])C([H])([H])C([H])([H])C2([H])N([H])C(=O)C1([H])N(C(=O)C([H])(N([H])C(=O)C([H])(N([H])C([H])([H])[H])C([H])([H])[H])C(C([H])([H])[H])(C([H])([H])[H])C([H])([H])[H])C([H])([H])c2c([H])c(OC([H])([H])C([H])([H])c3c([H])c(Cl)c(C([H])([H])N([H])C(=O)N4C([H])([H])C([H])([H])C([H])([H])C([H])(n5nc(-c6c([H])c([H])c(Oc7c([H])c([H])c(F)c([H])c7F)c([H])c6[H])c(C(=O)N([H])[H])c5N([H])[H])C4([H])[H])c([H])c3Cl)c([H])c([H])c2C1([H])[H]

>  <smiles>  (52) 
[H]c1c([H])c([H])c2c(c1[H])C([H])([H])C([H])([H])C([H])([H])C2([H])N([H])C(=O)C1([H])N(C(=O)C([H])(N([H])C(=O)C([H])(N([H])C([H])([H])[H])C([H])([H])[H])C(C([H])([H])[H])(C([H])([H])[H])C([H])([H])[H])C([H])([H])c2c([H])c(OC([H])([H])C([H])([H])c3c([H])c(Cl)c(C([H])([H])N([H])C(=O)N4C([H])([H])C([H])([H])C([H])([H])C([H])(n5nc(-c6c([H])c([H])c(Oc7c([H])c([H])c(F)c([H])c7F)c([H])c6[H])c(C(=O)N([H])[H])c5N([H])[H])C4([H])[H])c([H])c3Cl)c([H])c([H])c2C1([H])[H]

$$$$
52:0:0
     RDKit          3D

 92100  0  0  1  0  0  0  0  0999 V2000
  -29.5230  -19.8840   20.6620 C   0  0  0  0  0  3  0  0  0  0  0  0
  -28.9500  -19.5340   17.9770 C   0  0  0  0  0  3  0  0  0  0  0  0
  -29.7370  -18.5700   20.0810 C   0  0  0  0  0  0  0  0  0  0  0  0
  -29.0030  -21.0360   19.9360 C   0  0  0  0  0  0  0  0  0  0  0  0
  -29.4550  -18.4440   18.7090 C   0  0  0  0  0  0  0  0  0  0  0  0
  -28.7150  -20.7980   18.5630 C   0  0  0  0  0  0  0  0  0  0  0  0
  -29.6790  -17.2710   18.0690 F   0  0  0  0  0  0  0  0  0  0  0  0
  -28.0230  -21.9920   17.5270 Cl  0  0  0  0  0  0  0  0  0  0  0  0
  -27.1900  -22.2710   21.1990 C   0  0  0  0  0  1  0  0  0  0  0  0
  -28.6310  -22.4080   20.6840 C   0  0  0  0  0  3  0  0  0  0  0  0
  -28.8010  -23.8870   20.0220 C   0  0  0  0  0  3  0  0  0  0  0  0
  -28.3990  -25.1990   20.8740 C   0  0  0  0  0  3  0  0  0  0  0  0
  -28.5290  -26.5810   20.3300 O   0  0  0  0  0  0  0  0  0  0  0  0
  -24.6360  -31.9440   23.2740 C   0  0  0  0  0  0  0  0  0  0  0  0
  -27.3940  -27.4120   20.3030 C   0  0  0  0  0  0  0  0  0  0  0  0
  -23.4940  -30.5230   21.6070 C   0  0  0  0  0  3  0  0  0  0  0  0
  -25.0020  -28.9800   20.2310 C   0  0  0  0  0  0  0  0  0  0  0  0
  -26.0300  -30.8780   21.4820 C   0  0  0  0  0  2  0  0  0  0  0  0
  -26.1510  -29.4980   20.8450 C   0  0  0  0  0  0  0  0  0  0  0  0
  -27.3530  -28.7280   20.8620 C   0  0  0  0  0  3  0  0  0  0  0  0
  -26.2220  -26.9420   19.6730 C   0  0  0  0  0  3  0  0  0  0  0  0
  -25.0390  -27.7070   19.6380 C   0  0  0  0  0  3  0  0  0  0  0  0
  -23.7540  -29.8410   20.2390 C   0  0  0  0  0  2  0  0  0  0  0  0
  -24.7390  -31.1330   22.1790 N   0  0  0  0  0  0  0  0  0  0  0  0
  -23.5350  -32.2090   23.7790 O   0  0  0  0  0  0  0  0  0  0  0  0
  -22.8200  -29.5040   22.5560 C   0  0  0  0  0  0  0  0  0  0  0  0
  -21.5010  -29.3070   22.3900 N   0  0  0  0  0  0  0  0  0  0  0  0
  -23.4820  -28.8940   23.3990 O   0  0  0  0  0  0  0  0  0  0  0  0
  -21.0260  -29.8540   21.6860 H   0  0  0  0  0  0  0  0  0  0  0  0
  -18.1280  -28.0610   22.7960 C   0  0  0  0  0  0  0  0  0  0  0  0
  -20.6730  -28.3590   23.1380 C   0  0  0  0  0  3  0  0  0  0  0  0
  -20.8140  -26.9270   22.5710 C   0  0  0  0  0  2  0  0  0  0  0  0
  -19.7460  -26.5830   21.5270 C   0  0  0  0  0  2  0  0  0  0  0  0
  -18.3440  -26.7120   22.1300 C   0  0  0  0  0  2  0  0  0  0  0  0
  -19.2230  -28.8410   23.2550 C   0  0  0  0  0  0  0  0  0  0  0  0
  -18.9710  -30.1020   23.8370 C   0  0  0  0  0  3  0  0  0  0  0  0
  -17.6560  -30.5860   23.9650 C   0  0  0  0  0  3  0  0  0  0  0  0
  -16.5750  -29.8050   23.5220 C   0  0  0  0  0  3  0  0  0  0  0  0
  -16.8110  -28.5440   22.9450 C   0  0  0  0  0  3  0  0  0  0  0  0
  -25.8930  -32.5940   23.9300 C   0  0  0  0  0  3  0  0  0  0  0  0
  -26.3680  -31.8440   25.2350 C   0  0  1  0  0  0  0  0  0  0  0  0
  -25.2380  -31.6120   26.2660 C   0  0  0  0  0  1  0  0  0  0  0  0
  -26.9770  -30.4660   24.8810 C   0  0  0  0  0  1  0  0  0  0  0  0
  -27.4820  -32.6580   25.9310 C   0  0  0  0  0  1  0  0  0  0  0  0
  -25.5620  -33.9950   24.2310 N   0  0  0  0  0  0  0  0  0  0  0  0
  -25.9000  -35.0400   23.4630 C   0  0  0  0  0  0  0  0  0  0  0  0
  -26.5950  -34.9280   22.4500 O   0  0  0  0  0  0  0  0  0  0  0  0
  -24.9440  -34.1550   25.0110 H   0  0  0  0  0  0  0  0  0  0  0  0
  -24.1660  -36.8140   23.0380 C   0  0  0  0  0  1  0  0  0  0  0  0
  -25.3880  -36.4310   23.8870 C   0  0  0  0  0  3  0  0  0  0  0  0
  -27.4900  -37.3520   24.7610 C   0  0  0  0  0  1  0  0  0  0  0  0
  -26.4140  -37.4930   23.7850 N   0  0  0  0  0  0  0  0  0  0  0  0
  -25.9960  -38.4110   23.9060 H   0  0  0  0  0  0  0  0  0  0  0  0
  -30.3470  -17.3320   20.8640 C   0  0  0  0  0  2  0  0  0  0  0  0
  -30.6470  -14.7790   20.3470 C   0  0  0  0  0  0  0  0  0  0  0  0
  -30.4060  -12.5640   19.2330 C   0  0  0  0  0  2  0  0  0  0  0  0
  -29.4440  -12.7050   18.0340 C   0  0  0  0  0  2  0  0  0  0  0  0
  -27.9770  -12.5410   18.4740 C   0  0  0  0  0  2  0  0  0  0  0  0
  -27.6300  -13.3620   19.7430 C   0  0  0  0  0  3  0  0  0  0  0  0
  -28.7090  -13.2060   20.8340 C   0  0  0  0  0  2  0  0  0  0  0  0
  -30.0000  -13.5740   20.2330 N   0  0  0  0  0  0  0  0  0  0  0  0
  -31.8380  -14.8800   20.0460 O   0  0  0  0  0  0  0  0  0  0  0  0
  -29.8930  -15.9020   20.6150 N   0  0  0  0  0  0  0  0  0  0  0  0
  -28.9050  -15.7470   20.7260 H   0  0  0  0  0  0  0  0  0  0  0  0
  -25.2360  -13.9180   20.4890 C   0  0  0  0  0  0  0  0  0  0  0  0
  -24.1820  -13.1290   20.8650 C   0  0  0  0  0  0  0  0  0  0  0  0
  -24.6640  -11.7850   20.8300 C   0  0  0  0  0  0  0  0  0  0  0  0
  -26.2910  -13.0530   20.2440 N   0  0  0  0  0  0  0  0  0  0  0  0
  -25.9540  -11.7660   20.5150 N   0  0  0  0  0  0  0  0  0  0  0  0
  -23.9560  -10.5120   21.0240 C   0  0  0  0  0  0  0  0  0  0  0  0
  -24.3950   -9.5630   21.9720 C   0  0  0  0  0  3  0  0  0  0  0  0
  -23.6870   -8.3540   22.1530 C   0  0  0  0  0  3  0  0  0  0  0  0
  -22.5300   -8.0860   21.3840 C   0  0  0  0  0  0  0  0  0  0  0  0
  -22.1110   -9.0260   20.4260 C   0  0  0  0  0  3  0  0  0  0  0  0
  -22.8190  -10.2260   20.2440 C   0  0  0  0  0  3  0  0  0  0  0  0
  -21.7970   -6.9270   21.4690 O   0  0  0  0  0  0  0  0  0  0  0  0
  -21.7370   -6.1970   22.6290 C   0  0  0  0  0  0  0  0  0  0  0  0
  -21.2600   -6.7560   23.8340 C   0  0  0  0  0  3  0  0  0  0  0  0
  -21.1490   -5.9530   24.9870 C   0  0  0  0  0  3  0  0  0  0  0  0
  -21.5030   -4.5910   24.9350 C   0  0  0  0  0  0  0  0  0  0  0  0
  -21.9710   -4.0320   23.7330 C   0  0  0  0  0  3  0  0  0  0  0  0
  -22.0870   -4.8330   22.5840 C   0  0  0  0  0  0  0  0  0  0  0  0
  -22.5190   -4.2840   21.4220 F   0  0  0  0  0  0  0  0  0  0  0  0
  -21.3920   -3.8170   26.0390 F   0  0  0  0  0  0  0  0  0  0  0  0
  -22.7800  -13.5900   21.1390 C   0  0  0  0  0  0  0  0  0  0  0  0
  -22.0550  -12.8850   21.9990 N   0  0  0  0  0  0  0  0  0  0  0  0
  -22.3310  -14.6130   20.6230 O   0  0  0  0  0  0  0  0  0  0  0  0
  -22.4250  -12.0650   22.4550 H   0  0  0  0  0  0  0  0  0  0  0  0
  -21.1110  -13.1790   22.2100 H   0  0  0  0  0  0  0  0  0  0  0  0
  -25.3820  -15.2910   20.3120 N   0  0  0  0  0  0  0  0  0  0  0  0
  -24.6130  -15.9390   20.4380 H   0  0  0  0  0  0  0  0  0  0  0  0
  -26.2140  -15.7350   19.9470 H   0  0  0  0  0  0  0  0  0  0  0  0
  2  6  2  0
  2  5  1  0
  3  1  1  0
  3 54  1  0
  4  1  2  0
  4 10  1  0
  5  3  2  0
  6  4  1  0
  7  5  1  0
  8  6  1  0
 10  9  1  0
 11 10  1  0
 11 12  2  0
 13 12  1  0
 14 25  2  0
 15 13  1  0
 15 20  1  0
 16 24  1  0
 16 26  1  0
 17 23  1  0
 17 19  1  0
 18 24  1  0
 19 20  2  0
 19 18  1  0
 21 15  2  0
 22 21  1  0
 22 17  2  0
 23 16  1  0
 24 14  1  0
 26 28  2  0
 27 26  1  0
 29 27  1  0
 30 39  2  0
 30 35  1  0
 31 27  1  0
 31 35  1  0
 32 31  1  0
 33 34  1  0
 33 32  1  0
 34 30  1  0
 35 36  2  0
 36 37  1  0
 38 37  2  0
 39 38  1  0
 40 14  1  0
 40 45  1  0
 40 41  1  0
 41 44  1  1
 41 42  1  0
 43 41  1  0
 45 48  1  0
 46 50  1  0
 46 45  1  0
 47 46  2  0
 50 49  1  0
 52 50  1  0
 52 53  1  0
 52 51  1  0
 55 63  1  0
 56 61  1  0
 57 58  1  0
 57 56  1  0
 59 58  1  0
 59 68  1  0
 59 60  1  0
 61 55  1  0
 61 60  1  0
 62 55  2  0
 63 64  1  0
 63 54  1  0
 65 66  2  0
 66 85  1  0
 67 66  1  0
 67 70  1  0
 68 65  1  0
 68 69  1  0
 69 67  2  0
 70 71  1  0
 71 72  2  0
 73 76  1  0
 73 72  1  0
 74 73  2  0
 75 74  1  0
 75 70  2  0
 76 77  1  0
 77 78  1  0
 78 79  2  0
 80 79  1  0
 80 84  1  0
 81 80  2  0
 82 77  2  0
 82 81  1  0
 83 82  1  0
 85 86  1  0
 86 89  1  0
 86 88  1  0
 87 85  2  0
 90 91  1  0
 90 65  1  0
 92 90  1  0
M  ISO  4  12 101  13 101  55 100  63 100
M  END
>  <TORSDO>  (53) 
F 20

>  <SCORE>  (53) 
-13.769

>  <name>  (53) 
52

>  <ligand_id>  (53) 
52

>  <original_smiles>  (53) 
[H]c1c([H])c([H])c2c(c1[H])C([H])([H])C([H])([H])C([H])([H])C2([H])N([H])C(=O)C1([H])N(C(=O)C([H])(N([H])C(=O)C([H])(N([H])C([H])([H])[H])C([H])([H])[H])C(C([H])([H])[H])(C([H])([H])[H])C([H])([H])[H])C([H])([H])c2c([H])c(OC([H])([H])C([H])([H])C([H])(c3c([H])c(C([H])([H])N([H])C(=O)N4C([H])([H])C([H])([H])C([H])([H])C([H])(n5nc(-c6c([H])c([H])c(Oc7c([H])c([H])c(F)c([H])c7F)c([H])c6[H])c(C(=O)N([H])[H])c5N([H])[H])C4([H])[H])c(F)c([H])c3Cl)C([H])([H])[H])c([H])c([H])c2C1([H])[H]

>  <smiles>  (53) 
[H]c1c([H])c([H])c2c(c1[H])C([H])([H])C([H])([H])C([H])([H])C2([H])N([H])C(=O)C1([H])N(C(=O)C([H])(N([H])C(=O)C([H])(N([H])C([H])([H])[H])C([H])([H])[H])C(C([H])([H])[H])(C([H])([H])[H])C([H])([H])[H])C([H])([H])c2c([H])c(OC([H])([H])C([H])([H])C([H])(c3c([H])c(C([H])([H])N([H])C(=O)N4C([H])([H])C([H])([H])C([H])([H])C([H])(n5nc(-c6c([H])c([H])c(Oc7c([H])c([H])c(F)c([H])c7F)c([H])c6[H])c(C(=O)N([H])[H])c5N([H])[H])C4([H])[H])c(F)c([H])c3Cl)C([H])([H])[H])c([H])c([H])c2C1([H])[H]

$$$$
53:0:0
     RDKit          3D

 96105  0  0  1  0  0  0  0  0999 V2000
  -30.3120  -20.1750   21.4460 C   0  0  0  0  0  0  0  0  0  0  0  0
  -30.6630  -18.9540   20.8330 C   0  0  0  0  0  0  0  0  0  0  0  0
  -30.7670  -17.8120   21.6790 C   0  0  0  0  0  0  0  0  0  0  0  0
  -30.0670  -20.2140   22.8050 C   0  0  0  0  0  0  0  0  0  0  0  0
  -30.4390  -17.9600   23.0600 C   0  0  0  0  0  0  0  0  0  0  0  0
  -30.2230  -21.5620   20.8400 C   0  0  0  0  0  2  0  0  0  0  0  0
  -29.8220  -21.6120   23.2960 C   0  0  0  0  0  2  0  0  0  0  0  0
  -30.1380  -22.5160   22.0700 C   0  0  0  0  0  3  0  0  0  0  0  0
  -30.9760  -18.8960   19.3460 C   0  0  0  0  0  1  0  0  0  0  0  0
  -30.0950  -19.1460   23.6170 N   0  0  0  0  0  0  0  0  0  0  0  0
  -31.3720  -16.5020   21.1510 C   0  0  0  0  0  2  0  0  0  0  0  0
  -30.6830  -14.6750   19.6370 C   0  0  0  0  0  0  0  0  0  0  0  0
  -30.1120  -12.6270   18.3910 C   0  0  0  0  0  2  0  0  0  0  0  0
  -29.0290  -12.8950   17.3310 C   0  0  0  0  0  2  0  0  0  0  0  0
  -27.6270  -12.7420   17.9470 C   0  0  0  0  0  2  0  0  0  0  0  0
  -27.4700  -13.5360   19.2720 C   0  0  0  0  0  3  0  0  0  0  0  0
  -28.6560  -13.2770   20.2280 C   0  0  0  0  0  2  0  0  0  0  0  0
  -29.9080  -13.5660   19.5070 N   0  0  0  0  0  0  0  0  0  0  0  0
  -31.6140  -14.9250   18.8680 O   0  0  0  0  0  0  0  0  0  0  0  0
  -30.4320  -15.4730   20.6890 N   0  0  0  0  0  0  0  0  0  0  0  0
  -29.6570  -15.2230   21.2850 H   0  0  0  0  0  0  0  0  0  0  0  0
  -25.1820  -14.1220   20.2960 C   0  0  0  0  0  0  0  0  0  0  0  0
  -24.1660  -13.3390   20.7740 C   0  0  0  0  0  0  0  0  0  0  0  0
  -24.6140  -11.9890   20.6460 C   0  0  0  0  0  0  0  0  0  0  0  0
  -26.1860  -13.2480   19.9110 N   0  0  0  0  0  0  0  0  0  0  0  0
  -25.8540  -11.9580   20.1750 N   0  0  0  0  0  0  0  0  0  0  0  0
  -23.9120  -10.7220   20.8900 C   0  0  0  0  0  0  0  0  0  0  0  0
  -24.4210   -9.7560   21.7870 C   0  0  0  0  0  3  0  0  0  0  0  0
  -23.7180   -8.5540   22.0180 C   0  0  0  0  0  3  0  0  0  0  0  0
  -22.4930   -8.3090   21.3540 C   0  0  0  0  0  0  0  0  0  0  0  0
  -22.0030   -9.2630   20.4450 C   0  0  0  0  0  3  0  0  0  0  0  0
  -22.7050  -10.4570   20.2110 C   0  0  0  0  0  3  0  0  0  0  0  0
  -21.7550   -7.1590   21.4970 O   0  0  0  0  0  0  0  0  0  0  0  0
  -21.7480   -6.4490   22.6720 C   0  0  0  0  0  0  0  0  0  0  0  0
  -21.3600   -7.0370   23.8960 C   0  0  0  0  0  3  0  0  0  0  0  0
  -21.3010   -6.2540   25.0660 C   0  0  0  0  0  3  0  0  0  0  0  0
  -21.6200   -4.8840   25.0140 C   0  0  0  0  0  0  0  0  0  0  0  0
  -22.0010   -4.2950   23.7940 C   0  0  0  0  0  3  0  0  0  0  0  0
  -22.0620   -5.0760   22.6270 C   0  0  0  0  0  0  0  0  0  0  0  0
  -22.4090   -4.5000   21.4510 F   0  0  0  0  0  0  0  0  0  0  0  0
  -21.5560   -4.1290   26.1360 F   0  0  0  0  0  0  0  0  0  0  0  0
  -22.8170  -13.8090   21.2390 C   0  0  0  0  0  0  0  0  0  0  0  0
  -22.2150  -13.1020   22.1880 N   0  0  0  0  0  0  0  0  0  0  0  0
  -22.3100  -14.8380   20.7920 O   0  0  0  0  0  0  0  0  0  0  0  0
  -22.6390  -12.2690   22.5680 H   0  0  0  0  0  0  0  0  0  0  0  0
  -21.3160  -13.3980   22.5400 H   0  0  0  0  0  0  0  0  0  0  0  0
  -25.3300  -15.4970   20.1390 N   0  0  0  0  0  0  0  0  0  0  0  0
  -24.5920  -16.1530   20.3680 H   0  0  0  0  0  0  0  0  0  0  0  0
  -26.1460  -15.9420   19.7370 H   0  0  0  0  0  0  0  0  0  0  0  0
  -30.5040  -16.8020   24.0490 C   0  0  0  0  0  2  0  0  0  0  0  0
  -32.0630  -15.2660   25.3780 C   0  0  0  0  0  1  0  0  0  0  0  0
  -31.9190  -16.5910   24.6170 C   0  0  0  0  0  2  0  0  0  0  0  0
  -29.1380  -23.6870   21.9620 C   0  0  0  0  0  2  0  0  0  0  0  0
  -29.4690  -24.8080   20.9480 C   0  0  0  0  0  2  0  0  0  0  0  0
  -28.4600  -25.9610   21.1100 C   0  0  0  0  0  2  0  0  0  0  0  0
  -28.5920  -27.0250   20.1600 O   0  0  0  0  0  0  0  0  0  0  0  0
  -24.6830  -32.0300   23.3370 C   0  0  0  0  0  0  0  0  0  0  0  0
  -27.4410  -27.7740   20.1230 C   0  0  0  0  0  0  0  0  0  0  0  0
  -23.5070  -30.6300   21.6700 C   0  0  0  0  0  3  0  0  0  0  0  0
  -24.9990  -29.1830   20.1900 C   0  0  0  0  0  0  0  0  0  0  0  0
  -26.0150  -31.0840   21.4580 C   0  0  0  0  0  2  0  0  0  0  0  0
  -26.1430  -29.7350   20.7810 C   0  0  0  0  0  0  0  0  0  0  0  0
  -27.3700  -29.0360   20.7490 C   0  0  0  0  0  3  0  0  0  0  0  0
  -26.2880  -27.2340   19.5150 C   0  0  0  0  0  3  0  0  0  0  0  0
  -25.0650  -27.9300   19.5530 C   0  0  0  0  0  3  0  0  0  0  0  0
  -23.7240  -29.9910   20.2720 C   0  0  0  0  0  2  0  0  0  0  0  0
  -24.7540  -31.2600   22.2140 N   0  0  0  0  0  0  0  0  0  0  0  0
  -23.5990  -32.2530   23.8930 O   0  0  0  0  0  0  0  0  0  0  0  0
  -22.8990  -29.5650   22.6110 C   0  0  0  0  0  0  0  0  0  0  0  0
  -21.5790  -29.3450   22.4900 N   0  0  0  0  0  0  0  0  0  0  0  0
  -23.6090  -28.9410   23.4040 O   0  0  0  0  0  0  0  0  0  0  0  0
  -21.0660  -29.9030   21.8240 H   0  0  0  0  0  0  0  0  0  0  0  0
  -18.2510  -28.0230   22.9690 C   0  0  0  0  0  0  0  0  0  0  0  0
  -20.7990  -28.3640   23.2440 C   0  0  0  0  0  3  0  0  0  0  0  0
  -20.9500  -26.9500   22.6380 C   0  0  0  0  0  2  0  0  0  0  0  0
  -19.8580  -26.6090   21.6200 C   0  0  0  0  0  2  0  0  0  0  0  0
  -18.4740  -26.6930   22.2680 C   0  0  0  0  0  2  0  0  0  0  0  0
  -19.3430  -28.8140   23.4130 C   0  0  0  0  0  0  0  0  0  0  0  0
  -19.0830  -30.0580   24.0280 C   0  0  0  0  0  3  0  0  0  0  0  0
  -17.7620  -30.5110   24.2040 C   0  0  0  0  0  3  0  0  0  0  0  0
  -16.6840  -29.7170   23.7770 C   0  0  0  0  0  3  0  0  0  0  0  0
  -16.9290  -28.4750   23.1660 C   0  0  0  0  0  3  0  0  0  0  0  0
  -25.9560  -32.6850   23.9610 C   0  0  0  0  0  3  0  0  0  0  0  0
  -25.6240  -34.0810   24.2760 N   0  0  0  0  0  0  0  0  0  0  0  0
  -25.9610  -35.1310   23.5150 C   0  0  0  0  0  0  0  0  0  0  0  0
  -26.6520  -35.0280   22.4980 O   0  0  0  0  0  0  0  0  0  0  0  0
  -25.0120  -34.2350   25.0630 H   0  0  0  0  0  0  0  0  0  0  0  0
  -24.2200  -36.9000   23.1080 C   0  0  0  0  0  1  0  0  0  0  0  0
  -25.4460  -36.5160   23.9520 C   0  0  0  0  0  3  0  0  0  0  0  0
  -27.5490  -37.4300   24.8290 C   0  0  0  0  0  1  0  0  0  0  0  0
  -26.4690  -37.5810   23.8580 N   0  0  0  0  0  0  0  0  0  0  0  0
  -26.0490  -38.4970   23.9890 H   0  0  0  0  0  0  0  0  0  0  0  0
  -26.4780  -31.9310   25.2440 C   0  0  1  0  0  0  0  0  0  0  0  0
  -25.3810  -31.6760   26.3040 C   0  0  0  0  0  1  0  0  0  0  0  0
  -27.0920  -30.5640   24.8600 C   0  0  0  0  0  1  0  0  0  0  0  0
  -27.6060  -32.7520   25.9130 C   0  0  0  0  0  1  0  0  0  0  0  0
  1  4  1  0
  2  1  2  0
  2  3  1  0
  3  5  2  0
  4  7  1  0
  4 10  2  0
  5 10  1  0
  5 50  1  0
  6  1  1  0
  6  8  1  0
  8 53  1  0
  8  7  1  0
  9  2  1  0
 11  3  1  0
 12 20  1  0
 13 18  1  0
 14 15  1  0
 14 13  1  0
 16 15  1  0
 16 25  1  0
 16 17  1  0
 18 12  1  0
 18 17  1  0
 19 12  2  0
 20 11  1  0
 20 21  1  0
 22 23  2  0
 23 42  1  0
 24 23  1  0
 24 27  1  0
 25 26  1  0
 25 22  1  0
 26 24  2  0
 27 28  1  0
 28 29  2  0
 30 33  1  0
 30 29  1  0
 31 30  2  0
 32 31  1  0
 32 27  2  0
 33 34  1  0
 34 35  1  0
 35 36  2  0
 37 36  1  0
 37 41  1  0
 38 37  2  0
 39 34  2  0
 39 38  1  0
 40 39  1  0
 42 43  1  0
 43 46  1  0
 43 45  1  0
 44 42  2  0
 47 22  1  0
 47 48  1  0
 49 47  1  0
 50 52  1  0
 52 51  1  0
 54 55  1  0
 54 53  1  0
 56 55  1  0
 57 68  2  0
 58 56  1  0
 58 63  1  0
 59 67  1  0
 59 69  1  0
 60 66  1  0
 60 62  1  0
 61 67  1  0
 62 61  1  0
 63 62  2  0
 64 65  1  0
 64 58  2  0
 65 60  2  0
 66 59  1  0
 67 57  1  0
 69 71  2  0
 70 69  1  0
 72 70  1  0
 73 82  2  0
 73 78  1  0
 74 70  1  0
 74 78  1  0
 75 74  1  0
 76 77  1  0
 76 75  1  0
 77 73  1  0
 78 79  2  0
 79 80  1  0
 81 80  2  0
 82 81  1  0
 83 57  1  0
 83 84  1  0
 83 93  1  0
 84 87  1  0
 85 89  1  0
 85 84  1  0
 86 85  2  0
 89 88  1  0
 91 89  1  0
 91 92  1  0
 91 90  1  0
 93 96  1  1
 93 94  1  0
 95 93  1  0
M  ISO  4  12 100  20 100  55 101  56 101
M  END
>  <TORSDO>  (54) 
F 22

>  <SCORE>  (54) 
1.890

>  <name>  (54) 
53

>  <ligand_id>  (54) 
53

>  <original_smiles>  (54) 
[H]c1c([H])c([H])c2c(c1[H])C([H])([H])C([H])([H])C([H])([H])C2([H])N([H])C(=O)C1([H])N(C(=O)C([H])(N([H])C(=O)C([H])(N([H])C([H])([H])[H])C([H])([H])[H])C(C([H])([H])[H])(C([H])([H])[H])C([H])([H])[H])C([H])([H])c2c([H])c(OC([H])([H])C([H])([H])C([H])([H])C3([H])C([H])([H])c4nc(C([H])([H])C([H])([H])C([H])([H])[H])c(C([H])([H])N([H])C(=O)N5C([H])([H])C([H])([H])C([H])([H])C([H])(n6nc(-c7c([H])c([H])c(Oc8c([H])c([H])c(F)c([H])c8F)c([H])c7[H])c(C(=O)N([H])[H])c6N([H])[H])C5([H])[H])c(C([H])([H])[H])c4C3([H])[H])c([H])c([H])c2C1([H])[H]

>  <smiles>  (54) 
[H]c1c([H])c([H])c2c(c1[H])C([H])([H])C([H])([H])C([H])([H])C2([H])N([H])C(=O)C1([H])N(C(=O)C([H])(N([H])C(=O)C([H])(N([H])C([H])([H])[H])C([H])([H])[H])C(C([H])([H])[H])(C([H])([H])[H])C([H])([H])[H])C([H])([H])c2c([H])c(OC([H])([H])C([H])([H])C([H])([H])C3([H])C([H])([H])c4nc(C([H])([H])C([H])([H])C([H])([H])[H])c(C([H])([H])N([H])C(=O)N5C([H])([H])C([H])([H])C([H])([H])C([H])(n6nc(-c7c([H])c([H])c(Oc8c([H])c([H])c(F)c([H])c8F)c([H])c7[H])c(C(=O)N([H])[H])c6N([H])[H])C5([H])[H])c(C([H])([H])[H])c4C3([H])[H])c([H])c([H])c2C1([H])[H]

$$$$
54:0:0
     RDKit          3D

 92100  0  0  1  0  0  0  0  0999 V2000
  -28.7760  -21.8580   20.3550 N   0  0  0  0  0  4  0  0  0  0  0  0
  -27.8100  -21.6850   20.5850 H   0  0  0  0  0  0  0  0  0  0  0  0
  -28.8420  -21.6700   19.3670 H   0  0  0  0  0  0  0  0  0  0  0  0
  -29.3520  -23.6770   22.0740 C   0  0  0  0  0  1  0  0  0  0  0  0
  -29.0810  -23.4110   20.5820 C   0  0  0  0  0  3  0  0  0  0  0  0
  -28.0630  -24.6360   20.0100 C   0  0  0  0  0  2  0  0  0  0  0  0
  -28.3050  -26.1790   20.0680 O   0  0  0  0  0  0  0  0  0  0  0  0
  -24.6390  -31.8300   23.0290 C   0  0  0  0  0  0  0  0  0  0  0  0
  -27.2330  -27.1430   19.9850 C   0  0  0  0  0  0  0  0  0  0  0  0
  -23.4350  -30.4240   21.3980 C   0  0  0  0  0  3  0  0  0  0  0  0
  -24.8850  -28.8620   19.9600 C   0  0  0  0  0  0  0  0  0  0  0  0
  -25.9830  -30.7140   21.2100 C   0  0  0  0  0  2  0  0  0  0  0  0
  -26.0640  -29.3220   20.5600 C   0  0  0  0  0  0  0  0  0  0  0  0
  -27.2370  -28.4790   20.5550 C   0  0  0  0  0  3  0  0  0  0  0  0
  -26.0280  -26.7840   19.3390 C   0  0  0  0  0  3  0  0  0  0  0  0
  -24.8810  -27.6070   19.3320 C   0  0  0  0  0  3  0  0  0  0  0  0
  -23.6490  -29.7470   20.0180 C   0  0  0  0  0  2  0  0  0  0  0  0
  -24.7050  -31.0110   21.9330 N   0  0  0  0  0  0  0  0  0  0  0  0
  -23.5560  -32.1050   23.5670 O   0  0  0  0  0  0  0  0  0  0  0  0
  -22.7730  -29.4120   22.3660 C   0  0  0  0  0  0  0  0  0  0  0  0
  -21.4390  -29.2640   22.2810 N   0  0  0  0  0  0  0  0  0  0  0  0
  -23.4610  -28.7620   23.1580 O   0  0  0  0  0  0  0  0  0  0  0  0
  -20.9400  -29.8380   21.6150 H   0  0  0  0  0  0  0  0  0  0  0  0
  -18.0550  -28.1240   22.8890 C   0  0  0  0  0  0  0  0  0  0  0  0
  -20.6270  -28.3280   23.0640 C   0  0  0  0  0  3  0  0  0  0  0  0
  -20.6780  -26.9060   22.4570 C   0  0  0  0  0  2  0  0  0  0  0  0
  -19.5310  -26.6270   21.4800 C   0  0  0  0  0  2  0  0  0  0  0  0
  -18.1780  -26.7860   22.1790 C   0  0  0  0  0  2  0  0  0  0  0  0
  -19.2050  -28.8550   23.2910 C   0  0  0  0  0  0  0  0  0  0  0  0
  -19.0340  -30.1070   23.9190 C   0  0  0  0  0  3  0  0  0  0  0  0
  -17.7470  -30.6280   24.1500 C   0  0  0  0  0  3  0  0  0  0  0  0
  -16.6130  -29.8940   23.7630 C   0  0  0  0  0  3  0  0  0  0  0  0
  -16.7680  -28.6440   23.1370 C   0  0  0  0  0  3  0  0  0  0  0  0
  -25.9180  -32.4740   23.6440 C   0  0  0  0  0  3  0  0  0  0  0  0
  -26.4920  -31.6640   24.8720 C   0  0  1  0  0  0  0  0  0  0  0  0
  -25.4380  -31.3560   25.9610 C   0  0  0  0  0  1  0  0  0  0  0  0
  -27.0960  -30.3180   24.4080 C   0  0  0  0  0  1  0  0  0  0  0  0
  -27.6430  -32.4590   25.5320 C   0  0  0  0  0  1  0  0  0  0  0  0
  -25.5760  -33.8460   24.0520 N   0  0  0  0  0  0  0  0  0  0  0  0
  -25.8840  -34.9500   23.3570 C   0  0  0  0  0  0  0  0  0  0  0  0
  -26.5520  -34.9210   22.3210 O   0  0  0  0  0  0  0  0  0  0  0  0
  -24.9820  -33.9410   24.8630 H   0  0  0  0  0  0  0  0  0  0  0  0
  -24.1230  -36.7320   23.1100 C   0  0  0  0  0  1  0  0  0  0  0  0
  -25.3710  -36.3000   23.8970 C   0  0  0  0  0  3  0  0  0  0  0  0
  -27.4900  -37.1720   24.7810 C   0  0  0  0  0  1  0  0  0  0  0  0
  -26.3830  -37.3780   23.8500 N   0  0  0  0  0  0  0  0  0  0  0  0
  -25.9600  -38.2790   24.0550 H   0  0  0  0  0  0  0  0  0  0  0  0
  -29.5710  -20.6610   21.0310 C   0  0  0  0  0  2  0  0  0  0  0  0
  -28.4680  -17.7880   18.9150 C   0  0  0  0  0  3  0  0  0  0  0  0
  -29.8050  -16.4720   20.5490 C   0  0  0  0  0  0  0  0  0  0  0  0
  -29.0640  -16.5790   19.3290 C   0  0  0  0  0  0  0  0  0  0  0  0
  -29.9870  -17.8320   21.1480 C   0  0  0  0  0  0  0  0  0  0  0  0
  -29.3870  -19.0870   20.5880 C   0  0  0  0  0  0  0  0  0  0  0  0
  -28.6010  -18.9920   19.5030 N   0  0  0  0  0  0  0  0  0  0  0  0
  -28.9700  -15.3300   18.1500 Cl  0  0  0  0  0  0  0  0  0  0  0  0
  -30.9780  -17.9850   22.5550 Cl  0  0  0  0  0  0  0  0  0  0  0  0
  -30.5410  -15.0650   20.9240 C   0  0  0  0  0  0  0  0  0  0  0  0
  -30.5620  -12.6130   20.2350 C   0  0  0  0  0  2  0  0  0  0  0  0
  -29.7860  -12.3300   18.9270 C   0  0  0  0  0  2  0  0  0  0  0  0
  -28.2630  -12.2250   19.1700 C   0  0  0  0  0  2  0  0  0  0  0  0
  -27.7060  -13.2250   20.2220 C   0  0  0  0  0  3  0  0  0  0  0  0
  -28.6360  -13.3940   21.4340 C   0  0  0  0  0  2  0  0  0  0  0  0
  -29.9530  -13.7910   20.9190 N   0  0  0  0  0  0  0  0  0  0  0  0
  -31.7780  -15.0690   20.9470 O   0  0  0  0  0  0  0  0  0  0  0  0
  -25.2620  -13.7980   20.7060 C   0  0  0  0  0  0  0  0  0  0  0  0
  -24.1730  -13.0200   20.9860 C   0  0  0  0  0  0  0  0  0  0  0  0
  -24.6550  -11.6760   21.0520 C   0  0  0  0  0  0  0  0  0  0  0  0
  -26.3330  -12.9260   20.6040 N   0  0  0  0  0  0  0  0  0  0  0  0
  -25.9710  -11.6490   20.8860 N   0  0  0  0  0  0  0  0  0  0  0  0
  -23.9290  -10.4100   21.2040 C   0  0  0  0  0  0  0  0  0  0  0  0
  -24.3040   -9.4570   22.1760 C   0  0  0  0  0  3  0  0  0  0  0  0
  -23.5770   -8.2550   22.3150 C   0  0  0  0  0  3  0  0  0  0  0  0
  -22.4610   -7.9990   21.4830 C   0  0  0  0  0  0  0  0  0  0  0  0
  -22.1080   -8.9420   20.5010 C   0  0  0  0  0  3  0  0  0  0  0  0
  -22.8350  -10.1340   20.3600 C   0  0  0  0  0  3  0  0  0  0  0  0
  -21.7120   -6.8490   21.5320 O   0  0  0  0  0  0  0  0  0  0  0  0
  -21.6220   -6.0960   22.6740 C   0  0  0  0  0  0  0  0  0  0  0  0
  -21.1630   -6.6420   23.8930 C   0  0  0  0  0  3  0  0  0  0  0  0
  -21.0180   -5.8150   25.0250 C   0  0  0  0  0  3  0  0  0  0  0  0
  -21.3260   -4.4440   24.9400 C   0  0  0  0  0  0  0  0  0  0  0  0
  -21.7800   -3.8980   23.7270 C   0  0  0  0  0  3  0  0  0  0  0  0
  -21.9240   -4.7200   22.5970 C   0  0  0  0  0  0  0  0  0  0  0  0
  -22.3410   -4.1850   21.4240 F   0  0  0  0  0  0  0  0  0  0  0  0
  -21.1810   -3.6480   26.0250 F   0  0  0  0  0  0  0  0  0  0  0  0
  -22.7510  -13.4840   21.0860 C   0  0  0  0  0  0  0  0  0  0  0  0
  -21.9440  -12.8090   21.8980 N   0  0  0  0  0  0  0  0  0  0  0  0
  -22.3600  -14.4820   20.4810 O   0  0  0  0  0  0  0  0  0  0  0  0
  -22.2720  -12.0040   22.4080 H   0  0  0  0  0  0  0  0  0  0  0  0
  -20.9830  -13.1040   22.0090 H   0  0  0  0  0  0  0  0  0  0  0  0
  -25.4290  -15.1650   20.5010 N   0  0  0  0  0  0  0  0  0  0  0  0
  -24.6450  -15.8090   20.5130 H   0  0  0  0  0  0  0  0  0  0  0  0
  -26.3010  -15.6040   20.2440 H   0  0  0  0  0  0  0  0  0  0  0  0
  1  5  1  0
  1  2  1  0
  1 48  1  0
  3  1  1  0
  5  4  1  0
  6  7  1  0
  6  5  1  0
  8 19  2  0
  9  7  1  0
  9 14  1  0
 10 18  1  0
 10 20  1  0
 11 17  1  0
 11 13  1  0
 12 18  1  0
 13 12  1  0
 14 13  2  0
 15  9  2  0
 16 15  1  0
 16 11  2  0
 17 10  1  0
 18  8  1  0
 20 22  2  0
 21 20  1  0
 23 21  1  0
 24 33  2  0
 24 29  1  0
 25 21  1  0
 25 29  1  0
 26 25  1  0
 27 28  1  0
 27 26  1  0
 28 24  1  0
 29 30  2  0
 30 31  1  0
 32 31  2  0
 33 32  1  0
 34  8  1  0
 34 39  1  0
 34 35  1  0
 35 38  1  1
 35 36  1  0
 37 35  1  0
 39 42  1  0
 40 44  1  0
 40 39  1  0
 41 40  2  0
 44 43  1  0
 46 44  1  0
 46 47  1  0
 46 45  1  0
 49 51  2  0
 49 54  1  0
 50 57  1  0
 50 52  2  0
 51 50  1  0
 52 56  1  0
 53 48  1  0
 53 52  1  0
 54 53  2  0
 55 51  1  0
 57 64  2  0
 58 63  1  0
 59 60  1  0
 59 58  1  0
 61 60  1  0
 61 68  1  0
 61 62  1  0
 63 57  1  0
 63 62  1  0
 65 66  2  0
 66 67  1  0
 66 85  1  0
 67 70  1  0
 68 65  1  0
 68 69  1  0
 69 67  2  0
 70 71  1  0
 71 72  2  0
 73 76  1  0
 73 72  1  0
 74 73  2  0
 75 74  1  0
 75 70  2  0
 76 77  1  0
 77 78  1  0
 78 79  2  0
 80 79  1  0
 80 84  1  0
 81 80  2  0
 82 77  2  0
 82 81  1  0
 83 82  1  0
 85 86  1  0
 86 89  1  0
 86 88  1  0
 87 85  2  0
 90 91  1  0
 90 65  1  0
 92 90  1  0
M  ISO  4   6 101   7 101  50 100  57 100
M  END
>  <TORSDO>  (55) 
F 20

>  <SCORE>  (55) 
-12.514

>  <name>  (55) 
54

>  <ligand_id>  (55) 
54

>  <original_smiles>  (55) 
[H]c1nc(C([H])([H])[N+]([H])([H])C([H])(C([H])([H])[H])C([H])([H])Oc2c([H])c([H])c3c(c2[H])C([H])([H])N(C(=O)C([H])(N([H])C(=O)C([H])(N([H])C([H])([H])[H])C([H])([H])[H])C(C([H])([H])[H])(C([H])([H])[H])C([H])([H])[H])C([H])(C(=O)N([H])C2([H])c4c([H])c([H])c([H])c([H])c4C([H])([H])C([H])([H])C2([H])[H])C3([H])[H])c(Cl)c(C(=O)N2C([H])([H])C([H])([H])C([H])([H])C([H])(n3nc(-c4c([H])c([H])c(Oc5c([H])c([H])c(F)c([H])c5F)c([H])c4[H])c(C(=O)N([H])[H])c3N([H])[H])C2([H])[H])c1Cl

>  <smiles>  (55) 
[H]c1nc(C([H])([H])[N+]([H])([H])C([H])(C([H])([H])[H])C([H])([H])Oc2c([H])c([H])c3c(c2[H])C([H])([H])N(C(=O)C([H])(N([H])C(=O)C([H])(N([H])C([H])([H])[H])C([H])([H])[H])C(C([H])([H])[H])(C([H])([H])[H])C([H])([H])[H])C([H])(C(=O)N([H])C2([H])c4c([H])c([H])c([H])c([H])c4C([H])([H])C([H])([H])C2([H])[H])C3([H])[H])c(Cl)c(C(=O)N2C([H])([H])C([H])([H])C([H])([H])C([H])(n3nc(-c4c([H])c([H])c(Oc5c([H])c([H])c(F)c([H])c5F)c([H])c4[H])c(C(=O)N([H])[H])c3N([H])[H])C2([H])[H])c1Cl

$$$$
55:0:0
     RDKit          3D

 89 97  0  0  1  0  0  0  0  0999 V2000
  -30.5270  -15.0100   20.4160 C   0  0  0  0  0  0  0  0  0  0  0  0
  -30.4060  -12.6490   19.4860 C   0  0  0  0  0  2  0  0  0  0  0  0
  -29.4830  -12.5850   18.2470 C   0  0  0  0  0  2  0  0  0  0  0  0
  -28.0200  -12.3660   18.6740 C   0  0  0  0  0  2  0  0  0  0  0  0
  -27.5980  -13.2990   19.8400 C   0  0  0  0  0  3  0  0  0  0  0  0
  -28.6470  -13.3390   20.9720 C   0  0  0  0  0  2  0  0  0  0  0  0
  -29.9160  -13.7540   20.3610 N   0  0  0  0  0  0  0  0  0  0  0  0
  -31.7400  -15.0240   20.1680 O   0  0  0  0  0  0  0  0  0  0  0  0
  -29.1930  -18.8820   20.4100 C   0  0  0  0  0  3  0  0  0  0  0  0
  -31.8090  -19.3320   20.7660 C   0  0  0  0  0  3  0  0  0  0  0  0
  -29.5850  -20.3270   20.4600 C   0  0  0  0  0  0  0  0  0  0  0  0
  -30.9830  -20.4730   20.6570 C   0  0  0  0  0  0  0  0  0  0  0  0
  -30.1140  -17.7110   20.5320 C   0  0  0  0  0  0  0  0  0  0  0  0
  -31.4100  -18.0390   20.7080 N   0  0  0  0  0  0  0  0  0  0  0  0
  -29.7580  -16.2150   20.5080 N   0  0  0  0  0  0  0  0  0  0  0  0
  -31.7640  -22.0090   20.7790 Cl  0  0  0  0  0  0  0  0  0  0  0  0
  -28.7690  -16.0370   20.5680 H   0  0  0  0  0  0  0  0  0  0  0  0
  -25.2140  -13.8640   20.5730 C   0  0  0  0  0  0  0  0  0  0  0  0
  -24.1510  -13.0830   20.9350 C   0  0  0  0  0  0  0  0  0  0  0  0
  -24.6220  -11.7350   20.9030 C   0  0  0  0  0  0  0  0  0  0  0  0
  -26.2610  -12.9910   20.3350 N   0  0  0  0  0  0  0  0  0  0  0  0
  -25.9150  -11.7050   20.6000 N   0  0  0  0  0  0  0  0  0  0  0  0
  -23.8990  -10.4690   21.0830 C   0  0  0  0  0  0  0  0  0  0  0  0
  -24.3350   -9.4930   22.0070 C   0  0  0  0  0  3  0  0  0  0  0  0
  -23.6100   -8.2930   22.1760 C   0  0  0  0  0  3  0  0  0  0  0  0
  -22.4350   -8.0610   21.4230 C   0  0  0  0  0  0  0  0  0  0  0  0
  -22.0190   -9.0250   20.4870 C   0  0  0  0  0  3  0  0  0  0  0  0
  -22.7450  -10.2150   20.3150 C   0  0  0  0  0  3  0  0  0  0  0  0
  -21.6820   -6.9140   21.5020 O   0  0  0  0  0  0  0  0  0  0  0  0
  -21.6390   -6.1600   22.6470 C   0  0  0  0  0  0  0  0  0  0  0  0
  -21.2170   -6.7010   23.8810 C   0  0  0  0  0  3  0  0  0  0  0  0
  -21.1210   -5.8730   25.0160 C   0  0  0  0  0  3  0  0  0  0  0  0
  -21.4360   -4.5050   24.9200 C   0  0  0  0  0  0  0  0  0  0  0  0
  -21.8520   -3.9630   23.6910 C   0  0  0  0  0  3  0  0  0  0  0  0
  -21.9490   -4.7880   22.5570 C   0  0  0  0  0  0  0  0  0  0  0  0
  -22.3290   -4.2560   21.3710 F   0  0  0  0  0  0  0  0  0  0  0  0
  -21.3370   -3.7070   26.0100 F   0  0  0  0  0  0  0  0  0  0  0  0
  -22.7500  -13.5540   21.1960 C   0  0  0  0  0  0  0  0  0  0  0  0
  -22.0200  -12.8580   22.0590 N   0  0  0  0  0  0  0  0  0  0  0  0
  -22.3120  -14.5750   20.6680 O   0  0  0  0  0  0  0  0  0  0  0  0
  -22.3880  -12.0320   22.5090 H   0  0  0  0  0  0  0  0  0  0  0  0
  -21.0800  -13.1560   22.2760 H   0  0  0  0  0  0  0  0  0  0  0  0
  -25.3690  -15.2360   20.3980 N   0  0  0  0  0  0  0  0  0  0  0  0
  -24.5890  -15.8770   20.4940 H   0  0  0  0  0  0  0  0  0  0  0  0
  -26.1960  -15.6770   20.0190 H   0  0  0  0  0  0  0  0  0  0  0  0
  -28.5950  -21.6630   20.3050 C   0  0  0  0  0  2  0  0  0  0  0  0
  -28.9820  -23.3220   20.4060 C   0  0  0  0  0  3  0  0  0  0  0  0
  -27.9370  -24.6370   20.1770 C   0  0  0  0  0  3  0  0  0  0  0  0
  -28.2300  -26.1720   20.3040 O   0  0  0  0  0  0  0  0  0  0  0  0
  -24.6440  -31.9200   23.2470 C   0  0  0  0  0  0  0  0  0  0  0  0
  -27.1820  -27.1670   20.2340 C   0  0  0  0  0  0  0  0  0  0  0  0
  -23.4320  -30.5240   21.6170 C   0  0  0  0  0  3  0  0  0  0  0  0
  -24.8670  -28.9330   20.1960 C   0  0  0  0  0  0  0  0  0  0  0  0
  -25.9870  -30.7710   21.4460 C   0  0  0  0  0  2  0  0  0  0  0  0
  -26.0520  -29.3750   20.8000 C   0  0  0  0  0  0  0  0  0  0  0  0
  -27.2100  -28.5080   20.7990 C   0  0  0  0  0  3  0  0  0  0  0  0
  -25.9700  -26.8310   19.5930 C   0  0  0  0  0  3  0  0  0  0  0  0
  -24.8390  -27.6760   19.5770 C   0  0  0  0  0  3  0  0  0  0  0  0
  -23.6460  -29.8390   20.2420 C   0  0  0  0  0  2  0  0  0  0  0  0
  -24.7080  -31.0930   22.1580 N   0  0  0  0  0  0  0  0  0  0  0  0
  -23.5600  -32.2130   23.7750 O   0  0  0  0  0  0  0  0  0  0  0  0
  -22.7490  -29.5250   22.5850 C   0  0  0  0  0  0  0  0  0  0  0  0
  -21.4200  -29.3620   22.4610 N   0  0  0  0  0  0  0  0  0  0  0  0
  -23.4170  -28.9000   23.4120 O   0  0  0  0  0  0  0  0  0  0  0  0
  -20.9360  -29.9170   21.7680 H   0  0  0  0  0  0  0  0  0  0  0  0
  -18.0330  -28.1800   22.9710 C   0  0  0  0  0  0  0  0  0  0  0  0
  -20.5920  -28.4340   23.2390 C   0  0  0  0  0  3  0  0  0  0  0  0
  -20.6890  -26.9970   22.6760 C   0  0  0  0  0  2  0  0  0  0  0  0
  -19.5870  -26.6700   21.6630 C   0  0  0  0  0  2  0  0  0  0  0  0
  -18.2050  -26.8240   22.3050 C   0  0  0  0  0  2  0  0  0  0  0  0
  -19.1530  -28.9420   23.3960 C   0  0  0  0  0  0  0  0  0  0  0  0
  -18.9370  -30.2090   23.9800 C   0  0  0  0  0  3  0  0  0  0  0  0
  -17.6340  -30.7130   24.1440 C   0  0  0  0  0  3  0  0  0  0  0  0
  -16.5270  -29.9480   23.7340 C   0  0  0  0  0  3  0  0  0  0  0  0
  -16.7270  -28.6830   23.1540 C   0  0  0  0  0  3  0  0  0  0  0  0
  -25.9270  -32.5510   23.8680 C   0  0  0  0  0  3  0  0  0  0  0  0
  -25.6180  -33.9490   24.2080 N   0  0  0  0  0  0  0  0  0  0  0  0
  -25.9290  -35.0070   23.4480 C   0  0  0  0  0  0  0  0  0  0  0  0
  -26.5730  -34.9090   22.4000 O   0  0  0  0  0  0  0  0  0  0  0  0
  -25.0420  -34.0980   25.0240 H   0  0  0  0  0  0  0  0  0  0  0  0
  -24.1790  -36.7940   23.1630 C   0  0  0  0  0  1  0  0  0  0  0  0
  -25.4540  -36.3950   23.9250 C   0  0  0  0  0  3  0  0  0  0  0  0
  -27.6140  -37.2920   24.6730 C   0  0  0  0  0  1  0  0  0  0  0  0
  -26.4760  -37.4530   23.7720 N   0  0  0  0  0  0  0  0  0  0  0  0
  -26.0700  -38.3710   23.9330 H   0  0  0  0  0  0  0  0  0  0  0  0
  -26.4420  -31.7770   25.1440 C   0  0  1  0  0  0  0  0  0  0  0  0
  -25.3500  -31.5440   26.2150 C   0  0  0  0  0  1  0  0  0  0  0  0
  -27.0190  -30.3960   24.7550 C   0  0  0  0  0  1  0  0  0  0  0  0
  -27.5970  -32.5660   25.8040 C   0  0  0  0  0  1  0  0  0  0  0  0
  1 15  1  0
  2  7  1  0
  3  4  1  0
  3  2  1  0
  5  4  1  0
  5 21  1  0
  5  6  1  0
  7  1  1  0
  7  6  1  0
  8  1  2  0
  9 11  2  0
  9 13  1  0
 11 12  1  0
 12 10  2  0
 12 16  1  0
 13 14  2  0
 14 10  1  0
 15 13  1  0
 15 17  1  0
 18 19  2  0
 19 38  1  0
 20 19  1  0
 20 23  1  0
 21 18  1  0
 21 22  1  0
 22 20  2  0
 23 24  1  0
 24 25  2  0
 26 29  1  0
 26 25  1  0
 27 26  2  0
 28 27  1  0
 28 23  2  0
 29 30  1  0
 30 31  1  0
 31 32  2  0
 33 32  1  0
 33 37  1  0
 34 33  2  0
 35 30  2  0
 35 34  1  0
 36 35  1  0
 38 39  1  0
 39 42  1  0
 39 41  1  0
 40 38  2  0
 43 44  1  0
 43 18  1  0
 45 43  1  0
 46 47  1  0
 46 11  1  0
 48 49  1  0
 48 47  2  0
 50 61  2  0
 51 49  1  0
 51 56  1  0
 52 60  1  0
 52 62  1  0
 53 59  1  0
 53 55  1  0
 54 60  1  0
 55 54  1  0
 56 55  2  0
 57 51  2  0
 58 57  1  0
 58 53  2  0
 59 52  1  0
 60 50  1  0
 62 64  2  0
 63 62  1  0
 65 63  1  0
 66 75  2  0
 66 71  1  0
 67 63  1  0
 67 71  1  0
 68 67  1  0
 69 70  1  0
 69 68  1  0
 70 66  1  0
 71 72  2  0
 72 73  1  0
 74 73  2  0
 75 74  1  0
 76 50  1  0
 76 77  1  0
 76 86  1  0
 77 80  1  0
 78 82  1  0
 78 77  1  0
 79 78  2  0
 82 81  1  0
 84 82  1  0
 84 85  1  0
 84 83  1  0
 86 89  1  1
 86 87  1  0
 88 86  1  0
M  ISO  4   1 100  15 100  48 101  49 101
M  END
>  <TORSDO>  (56) 
F 18

>  <SCORE>  (56) 
-16.045

>  <name>  (56) 
55

>  <ligand_id>  (56) 
55

>  <original_smiles>  (56) 
[H]c1nc(N([H])C(=O)N2C([H])([H])C([H])([H])C([H])([H])C([H])(n3nc(-c4c([H])c([H])c(Oc5c([H])c([H])c(F)c([H])c5F)c([H])c4[H])c(C(=O)N([H])[H])c3N([H])[H])C2([H])[H])c([H])c(C([H])([H])C([H])([H])C([H])([H])Oc2c([H])c([H])c3c(c2[H])C([H])([H])N(C(=O)C([H])(N([H])C(=O)C([H])(N([H])C([H])([H])[H])C([H])([H])[H])C(C([H])([H])[H])(C([H])([H])[H])C([H])([H])[H])C([H])(C(=O)N([H])C2([H])c4c([H])c([H])c([H])c([H])c4C([H])([H])C([H])([H])C2([H])[H])C3([H])[H])c1Cl

>  <smiles>  (56) 
[H]c1nc(N([H])C(=O)N2C([H])([H])C([H])([H])C([H])([H])C([H])(n3nc(-c4c([H])c([H])c(Oc5c([H])c([H])c(F)c([H])c5F)c([H])c4[H])c(C(=O)N([H])[H])c3N([H])[H])C2([H])[H])c([H])c(C([H])([H])C([H])([H])C([H])([H])Oc2c([H])c([H])c3c(c2[H])C([H])([H])N(C(=O)C([H])(N([H])C(=O)C([H])(N([H])C([H])([H])[H])C([H])([H])[H])C(C([H])([H])[H])(C([H])([H])[H])C([H])([H])[H])C([H])(C(=O)N([H])C2([H])c4c([H])c([H])c([H])c([H])c4C([H])([H])C([H])([H])C2([H])[H])C3([H])[H])c1Cl

$$$$
56:0:0
     RDKit          3D

 93101  0  0  1  0  0  0  0  0999 V2000
  -27.9780  -19.7220   20.6760 C   0  0  0  0  0  2  0  0  0  0  0  0
  -28.6770  -18.4280   18.6420 C   0  0  0  0  0  3  0  0  0  0  0  0
  -28.7530  -18.5840   20.0400 C   0  0  0  0  0  0  0  0  0  0  0  0
  -29.6270  -17.7420   20.7720 C   0  0  0  0  0  0  0  0  0  0  0  0
  -29.5250  -17.5120   18.0160 C   0  0  0  0  0  0  0  0  0  0  0  0
  -30.4140  -16.8060   20.0600 C   0  0  0  0  0  0  0  0  0  0  0  0
  -29.5110  -17.3270   16.5160 C   0  0  0  0  0  1  0  0  0  0  0  0
  -30.3830  -16.7430   18.7050 N   0  0  0  0  0  0  0  0  0  0  0  0
  -29.7580  -17.8560   22.4980 Cl  0  0  0  0  0  0  0  0  0  0  0  0
  -31.8580  -14.8790   20.3420 C   0  0  0  0  0  0  0  0  0  0  0  0
  -31.4060  -12.7380   19.2080 C   0  0  0  0  0  2  0  0  0  0  0  0
  -30.4570  -12.9420   18.0130 C   0  0  0  0  0  2  0  0  0  0  0  0
  -28.9850  -12.8620   18.4650 C   0  0  0  0  0  2  0  0  0  0  0  0
  -28.6870  -13.7570   19.6960 C   0  0  0  0  0  3  0  0  0  0  0  0
  -29.7510  -13.5580   20.7990 C   0  0  0  0  0  2  0  0  0  0  0  0
  -31.0820  -13.7700   20.2000 N   0  0  0  0  0  0  0  0  0  0  0  0
  -33.0160  -14.9600   19.9240 O   0  0  0  0  0  0  0  0  0  0  0  0
  -31.2510  -15.9650   20.8300 N   0  0  0  0  0  0  0  0  0  0  0  0
  -31.7960  -16.4880   21.4970 H   0  0  0  0  0  0  0  0  0  0  0  0
  -26.3690  -14.5350   20.4850 C   0  0  0  0  0  0  0  0  0  0  0  0
  -25.2450  -13.8340   20.8290 C   0  0  0  0  0  0  0  0  0  0  0  0
  -25.5930  -12.4540   20.7170 C   0  0  0  0  0  0  0  0  0  0  0  0
  -27.3310  -13.5800   20.1900 N   0  0  0  0  0  0  0  0  0  0  0  0
  -26.8680  -12.3220   20.3830 N   0  0  0  0  0  0  0  0  0  0  0  0
  -24.7730  -11.2450   20.8480 C   0  0  0  0  0  0  0  0  0  0  0  0
  -25.0770  -10.2500   21.8040 C   0  0  0  0  0  3  0  0  0  0  0  0
  -24.2650   -9.1020   21.9210 C   0  0  0  0  0  3  0  0  0  0  0  0
  -23.1360   -8.9430   21.0830 C   0  0  0  0  0  0  0  0  0  0  0  0
  -22.8520   -9.9260   20.1180 C   0  0  0  0  0  3  0  0  0  0  0  0
  -23.6640  -11.0660   19.9980 C   0  0  0  0  0  3  0  0  0  0  0  0
  -22.3050   -7.8510   21.1110 O   0  0  0  0  0  0  0  0  0  0  0  0
  -22.0070   -7.2040   22.2830 C   0  0  0  0  0  0  0  0  0  0  0  0
  -21.3730   -7.8630   23.3590 C   0  0  0  0  0  3  0  0  0  0  0  0
  -21.0210   -7.1420   24.5180 C   0  0  0  0  0  3  0  0  0  0  0  0
  -21.2960   -5.7640   24.6000 C   0  0  0  0  0  0  0  0  0  0  0  0
  -21.9250   -5.1060   23.5290 C   0  0  0  0  0  3  0  0  0  0  0  0
  -22.2760   -5.8230   22.3730 C   0  0  0  0  0  0  0  0  0  0  0  0
  -22.8620   -5.1800   21.3330 F   0  0  0  0  0  0  0  0  0  0  0  0
  -20.9520   -5.0680   25.7080 F   0  0  0  0  0  0  0  0  0  0  0  0
  -23.8940  -14.4070   21.1500 C   0  0  0  0  0  0  0  0  0  0  0  0
  -23.1300  -13.7320   22.0000 N   0  0  0  0  0  0  0  0  0  0  0  0
  -23.5280  -15.4850   20.6830 O   0  0  0  0  0  0  0  0  0  0  0  0
  -23.4400  -12.8580   22.4000 H   0  0  0  0  0  0  0  0  0  0  0  0
  -22.2220  -14.0930   22.2530 H   0  0  0  0  0  0  0  0  0  0  0  0
  -26.6400  -15.8970   20.3800 N   0  0  0  0  0  0  0  0  0  0  0  0
  -25.9260  -16.5980   20.5350 H   0  0  0  0  0  0  0  0  0  0  0  0
  -27.5100  -16.2850   20.0390 H   0  0  0  0  0  0  0  0  0  0  0  0
  -28.3860  -21.0330   19.9920 C   0  0  0  0  0  2  0  0  0  0  0  0
  -28.1640  -22.2980   20.8170 C   0  0  0  0  0  2  0  0  0  0  0  0
  -28.7590  -23.4900   20.0620 C   0  0  0  0  0  2  0  0  0  0  0  0
  -28.6770  -24.8010   20.8340 C   0  0  0  0  0  2  0  0  0  0  0  0
  -29.2930  -25.9500   20.0200 C   0  0  0  0  0  2  0  0  0  0  0  0
  -29.0570  -27.1980   20.6540 O   0  0  0  0  0  0  0  0  0  0  0  0
  -24.7470  -32.0360   23.4890 C   0  0  0  0  0  0  0  0  0  0  0  0
  -27.8040  -27.7650   20.5830 C   0  0  0  0  0  0  0  0  0  0  0  0
  -23.6990  -30.5360   21.8220 C   0  0  0  0  0  3  0  0  0  0  0  0
  -25.3050  -29.0810   20.4850 C   0  0  0  0  0  0  0  0  0  0  0  0
  -26.2000  -31.0610   21.7230 C   0  0  0  0  0  2  0  0  0  0  0  0
  -26.3960  -29.6930   21.1110 C   0  0  0  0  0  0  0  0  0  0  0  0
  -27.6430  -29.0380   21.1640 C   0  0  0  0  0  3  0  0  0  0  0  0
  -26.6890  -27.1540   19.9570 C   0  0  0  0  0  3  0  0  0  0  0  0
  -25.4440  -27.8050   19.9110 C   0  0  0  0  0  3  0  0  0  0  0  0
  -24.0070  -29.8500   20.4640 C   0  0  0  0  0  2  0  0  0  0  0  0
  -24.8960  -31.2280   22.4020 N   0  0  0  0  0  0  0  0  0  0  0  0
  -23.6290  -32.2470   23.9790 O   0  0  0  0  0  0  0  0  0  0  0  0
  -23.0800  -29.4870   22.7710 C   0  0  0  0  0  0  0  0  0  0  0  0
  -21.7960  -29.1660   22.5460 N   0  0  0  0  0  0  0  0  0  0  0  0
  -23.7530  -28.9630   23.6620 O   0  0  0  0  0  0  0  0  0  0  0  0
  -21.3120  -29.6470   21.8010 H   0  0  0  0  0  0  0  0  0  0  0  0
  -18.5280  -27.6470   22.8120 C   0  0  0  0  0  0  0  0  0  0  0  0
  -21.0130  -28.1780   23.2870 C   0  0  0  0  0  3  0  0  0  0  0  0
  -21.3090  -26.7460   22.7890 C   0  0  0  0  0  2  0  0  0  0  0  0
  -20.3390  -26.2720   21.7010 C   0  0  0  0  0  2  0  0  0  0  0  0
  -18.8970  -26.2980   22.2170 C   0  0  0  0  0  2  0  0  0  0  0  0
  -19.5230  -28.5370   23.2980 C   0  0  0  0  0  0  0  0  0  0  0  0
  -19.1300  -29.7930   23.8060 C   0  0  0  0  0  3  0  0  0  0  0  0
  -17.7720  -30.1660   23.8340 C   0  0  0  0  0  3  0  0  0  0  0  0
  -16.7900  -29.2760   23.3650 C   0  0  0  0  0  3  0  0  0  0  0  0
  -17.1680  -28.0180   22.8610 C   0  0  0  0  0  3  0  0  0  0  0  0
  -25.9670  -32.7540   24.1490 C   0  0  0  0  0  3  0  0  0  0  0  0
  -25.5850  -34.1540   24.3760 N   0  0  0  0  0  0  0  0  0  0  0  0
  -25.8920  -35.1660   23.5550 C   0  0  0  0  0  0  0  0  0  0  0  0
  -26.6000  -35.0270   22.5540 O   0  0  0  0  0  0  0  0  0  0  0  0
  -24.9630  -34.3330   25.1510 H   0  0  0  0  0  0  0  0  0  0  0  0
  -24.0770  -36.8300   23.0420 C   0  0  0  0  0  1  0  0  0  0  0  0
  -25.3220  -36.5560   23.9000 C   0  0  0  0  0  3  0  0  0  0  0  0
  -27.3880  -37.6160   24.6970 C   0  0  0  0  0  1  0  0  0  0  0  0
  -26.3000  -37.6520   23.7230 N   0  0  0  0  0  0  0  0  0  0  0  0
  -25.8420  -38.5570   23.7930 H   0  0  0  0  0  0  0  0  0  0  0  0
  -26.4330  -32.0760   25.4970 C   0  0  1  0  0  0  0  0  0  0  0  0
  -25.2760  -31.7860   26.4790 C   0  0  0  0  0  1  0  0  0  0  0  0
  -27.1630  -30.7410   25.2150 C   0  0  0  0  0  1  0  0  0  0  0  0
  -27.4520  -32.9910   26.2170 C   0  0  0  0  0  1  0  0  0  0  0  0
  2  3  1  0
  3  1  1  0
  3  4  2  0
  4  9  1  0
  5  2  2  0
  5  8  1  0
  6  4  1  0
  6 18  1  0
  7  5  1  0
  8  6  2  0
 10 18  1  0
 11 16  1  0
 12 13  1  0
 12 11  1  0
 14 13  1  0
 14 23  1  0
 14 15  1  0
 16 10  1  0
 16 15  1  0
 17 10  2  0
 18 19  1  0
 20 21  2  0
 21 40  1  0
 22 21  1  0
 22 25  1  0
 23 24  1  0
 23 20  1  0
 24 22  2  0
 25 26  1  0
 26 27  2  0
 28 31  1  0
 28 27  1  0
 29 28  2  0
 30 29  1  0
 30 25  2  0
 31 32  1  0
 32 37  2  0
 32 33  1  0
 33 34  2  0
 34 35  1  0
 35 39  1  0
 36 35  2  0
 37 36  1  0
 38 37  1  0
 40 41  1  0
 41 44  1  0
 41 43  1  0
 42 40  2  0
 45 20  1  0
 45 46  1  0
 47 45  1  0
 48  1  1  0
 48 49  1  0
 50 49  1  0
 50 51  1  0
 52 53  1  0
 52 51  1  0
 54 65  2  0
 55 53  1  0
 55 60  1  0
 56 64  1  0
 56 66  1  0
 57 59  1  0
 58 64  1  0
 59 60  2  0
 59 58  1  0
 61 55  2  0
 62 61  1  0
 62 57  2  0
 63 57  1  0
 63 56  1  0
 64 54  1  0
 66 68  2  0
 67 66  1  0
 69 67  1  0
 70 79  2  0
 70 75  1  0
 71 67  1  0
 71 75  1  0
 72 71  1  0
 73 74  1  0
 73 72  1  0
 74 70  1  0
 75 76  2  0
 76 77  1  0
 78 77  2  0
 79 78  1  0
 80 54  1  0
 80 81  1  0
 80 90  1  0
 81 84  1  0
 82 86  1  0
 82 81  1  0
 83 82  2  0
 86 85  1  0
 88 89  1  0
 88 86  1  0
 88 87  1  0
 90 93  1  1
 90 91  1  0
 92 90  1  0
M  ISO  4  10 100  18 100  52 101  53 101
M  END
>  <TORSDO>  (57) 
F 22

>  <SCORE>  (57) 
-8.779

>  <name>  (57) 
56

>  <ligand_id>  (57) 
56

>  <original_smiles>  (57) 
[H]c1c([H])c([H])c2c(c1[H])C([H])([H])C([H])([H])C([H])([H])C2([H])N([H])C(=O)C1([H])N(C(=O)C([H])(N([H])C(=O)C([H])(N([H])C([H])([H])[H])C([H])([H])[H])C(C([H])([H])[H])(C([H])([H])[H])C([H])([H])[H])C([H])([H])c2c([H])c(OC([H])([H])C([H])([H])C([H])([H])C([H])([H])C([H])([H])C([H])([H])c3c([H])c(C([H])([H])[H])nc(N([H])C(=O)N4C([H])([H])C([H])([H])C([H])([H])C([H])(n5nc(-c6c([H])c([H])c(Oc7c([H])c([H])c(F)c([H])c7F)c([H])c6[H])c(C(=O)N([H])[H])c5N([H])[H])C4([H])[H])c3Cl)c([H])c([H])c2C1([H])[H]

>  <smiles>  (57) 
[H]c1c([H])c([H])c2c(c1[H])C([H])([H])C([H])([H])C([H])([H])C2([H])N([H])C(=O)C1([H])N(C(=O)C([H])(N([H])C(=O)C([H])(N([H])C([H])([H])[H])C([H])([H])[H])C(C([H])([H])[H])(C([H])([H])[H])C([H])([H])[H])C([H])([H])c2c([H])c(OC([H])([H])C([H])([H])C([H])([H])C([H])([H])C([H])([H])C([H])([H])c3c([H])c(C([H])([H])[H])nc(N([H])C(=O)N4C([H])([H])C([H])([H])C([H])([H])C([H])(n5nc(-c6c([H])c([H])c(Oc7c([H])c([H])c(F)c([H])c7F)c([H])c6[H])c(C(=O)N([H])[H])c5N([H])[H])C4([H])[H])c3Cl)c([H])c([H])c2C1([H])[H]

$$$$
57:0:0
     RDKit          3D

 90 98  0  0  1  0  0  0  0  0999 V2000
  -28.9260  -20.4690   20.6350 C   0  0  0  0  0  3  0  0  0  0  0  0
  -28.2710  -21.6750   21.0200 C   0  0  0  0  0  0  0  0  0  0  0  0
  -29.7540  -20.3480   19.5020 C   0  0  0  0  0  0  0  0  0  0  0  0
  -29.1310  -23.0850   19.1200 C   0  0  0  0  0  0  0  0  0  0  0  0
  -28.3620  -22.9210   20.3040 C   0  0  0  0  0  0  0  0  0  0  0  0
  -29.8070  -21.7240   18.7690 C   0  0  0  0  0  0  0  0  0  0  0  0
  -27.3950  -21.5890   22.2650 C   0  0  0  0  0  1  0  0  0  0  0  0
  -27.4410  -24.2780   20.8690 Cl  0  0  0  0  0  0  0  0  0  0  0  0
  -30.7520  -21.7290   17.3250 Cl  0  0  0  0  0  0  0  0  0  0  0  0
  -30.5260  -18.7740   19.2400 C   0  0  0  0  0  2  0  0  0  0  0  0
  -31.0500  -15.8850   19.8320 C   0  0  0  0  0  0  0  0  0  0  0  0
  -31.0610  -13.3310   19.3040 C   0  0  0  0  0  2  0  0  0  0  0  0
  -30.1810  -12.9490   18.0860 C   0  0  0  0  0  2  0  0  0  0  0  0
  -28.7170  -12.7280   18.5100 C   0  0  0  0  0  2  0  0  0  0  0  0
  -28.2330  -13.8270   19.4910 C   0  0  0  0  0  3  0  0  0  0  0  0
  -29.2490  -14.1320   20.6130 C   0  0  0  0  0  2  0  0  0  0  0  0
  -30.4890  -14.5730   19.9530 N   0  0  0  0  0  0  0  0  0  0  0  0
  -32.2700  -15.8420   19.6120 O   0  0  0  0  0  0  0  0  0  0  0  0
  -30.2940  -17.1770   19.7640 N   0  0  0  0  0  0  0  0  0  0  0  0
  -29.3240  -17.0130   19.9900 H   0  0  0  0  0  0  0  0  0  0  0  0
  -25.9020  -14.4960   20.2700 C   0  0  0  0  0  0  0  0  0  0  0  0
  -24.8030  -13.7730   20.6380 C   0  0  0  0  0  0  0  0  0  0  0  0
  -25.1950  -12.4010   20.5840 C   0  0  0  0  0  0  0  0  0  0  0  0
  -26.8930  -13.5710   20.0040 N   0  0  0  0  0  0  0  0  0  0  0  0
  -26.4820  -12.3020   20.2640 N   0  0  0  0  0  0  0  0  0  0  0  0
  -24.4000  -11.1780   20.7610 C   0  0  0  0  0  0  0  0  0  0  0  0
  -24.7760  -10.1780   21.6850 C   0  0  0  0  0  3  0  0  0  0  0  0
  -23.9820   -9.0230   21.8530 C   0  0  0  0  0  3  0  0  0  0  0  0
  -22.7970   -8.8580   21.0960 C   0  0  0  0  0  0  0  0  0  0  0  0
  -22.4390   -9.8460   20.1620 C   0  0  0  0  0  3  0  0  0  0  0  0
  -23.2330  -10.9930   19.9930 C   0  0  0  0  0  3  0  0  0  0  0  0
  -21.9780   -7.7580   21.1730 O   0  0  0  0  0  0  0  0  0  0  0  0
  -21.8930   -7.0020   22.3150 C   0  0  0  0  0  0  0  0  0  0  0  0
  -21.4670   -7.5540   23.5430 C   0  0  0  0  0  3  0  0  0  0  0  0
  -21.3260   -6.7280   24.6750 C   0  0  0  0  0  3  0  0  0  0  0  0
  -21.6030   -5.3500   24.5800 C   0  0  0  0  0  0  0  0  0  0  0  0
  -22.0220   -4.7980   23.3570 C   0  0  0  0  0  3  0  0  0  0  0  0
  -22.1630   -5.6230   22.2270 C   0  0  0  0  0  0  0  0  0  0  0  0
  -22.5470   -5.0830   21.0440 F   0  0  0  0  0  0  0  0  0  0  0  0
  -21.4610   -4.5530   25.6650 F   0  0  0  0  0  0  0  0  0  0  0  0
  -23.4350  -14.3240   20.9140 C   0  0  0  0  0  0  0  0  0  0  0  0
  -22.6710  -13.6660   21.7770 N   0  0  0  0  0  0  0  0  0  0  0  0
  -23.0550  -15.3750   20.3980 O   0  0  0  0  0  0  0  0  0  0  0  0
  -22.9910  -12.8180   22.2220 H   0  0  0  0  0  0  0  0  0  0  0  0
  -21.7500  -14.0190   21.9970 H   0  0  0  0  0  0  0  0  0  0  0  0
  -26.1370  -15.8590   20.1090 N   0  0  0  0  0  0  0  0  0  0  0  0
  -25.4010  -16.5470   20.2270 H   0  0  0  0  0  0  0  0  0  0  0  0
  -26.9850  -16.2530   19.7250 H   0  0  0  0  0  0  0  0  0  0  0  0
  -28.9460  -24.6200   18.2440 C   0  0  0  0  0  2  0  0  0  0  0  0
  -28.8560  -26.2500   18.6260 O   0  0  0  0  0  0  0  0  0  0  0  0
  -24.7550  -31.2470   22.5600 C   0  0  0  0  0  0  0  0  0  0  0  0
  -27.7110  -27.2230   18.7110 C   0  0  0  0  0  0  0  0  0  0  0  0
  -23.6360  -29.9200   20.8130 C   0  0  0  0  0  3  0  0  0  0  0  0
  -25.1760  -28.7580   19.0800 C   0  0  0  0  0  0  0  0  0  0  0  0
  -26.1270  -30.5230   20.5420 C   0  0  0  0  0  2  0  0  0  0  0  0
  -26.3420  -29.2360   19.6870 C   0  0  0  0  0  0  0  0  0  0  0  0
  -27.5930  -28.4850   19.4900 C   0  0  0  0  0  3  0  0  0  0  0  0
  -26.4900  -26.9170   18.0650 C   0  0  0  0  0  3  0  0  0  0  0  0
  -25.2730  -27.6300   18.2480 C   0  0  0  0  0  3  0  0  0  0  0  0
  -23.8460  -29.4710   19.3390 C   0  0  0  0  0  2  0  0  0  0  0  0
  -24.8610  -30.5890   21.3600 N   0  0  0  0  0  0  0  0  0  0  0  0
  -23.6830  -31.2930   23.1870 O   0  0  0  0  0  0  0  0  0  0  0  0
  -23.1720  -28.7110   21.6680 C   0  0  0  0  0  0  0  0  0  0  0  0
  -21.8870  -28.3240   21.5560 N   0  0  0  0  0  0  0  0  0  0  0  0
  -23.9740  -28.1280   22.4010 O   0  0  0  0  0  0  0  0  0  0  0  0
  -21.2790  -28.8610   20.9530 H   0  0  0  0  0  0  0  0  0  0  0  0
  -18.8140  -26.4370   21.9600 C   0  0  0  0  0  0  0  0  0  0  0  0
  -21.2800  -27.1690   22.2290 C   0  0  0  0  0  3  0  0  0  0  0  0
  -21.6390  -25.8500   21.5030 C   0  0  0  0  0  2  0  0  0  0  0  0
  -20.5920  -25.4270   20.4680 C   0  0  0  0  0  2  0  0  0  0  0  0
  -19.2280  -25.2290   21.1350 C   0  0  0  0  0  2  0  0  0  0  0  0
  -19.7750  -27.3560   22.4600 C   0  0  0  0  0  0  0  0  0  0  0  0
  -19.3310  -28.4760   23.1950 C   0  0  0  0  0  3  0  0  0  0  0  0
  -17.9590  -28.6850   23.4330 C   0  0  0  0  0  3  0  0  0  0  0  0
  -17.0140  -27.7660   22.9450 C   0  0  0  0  0  3  0  0  0  0  0  0
  -17.4420  -26.6430   22.2140 C   0  0  0  0  0  3  0  0  0  0  0  0
  -25.9670  -31.9870   23.2000 C   0  0  0  0  0  3  0  0  0  0  0  0
  -25.4690  -33.2290   23.8210 N   0  0  0  0  0  0  0  0  0  0  0  0
  -25.6060  -34.4570   23.3030 C   0  0  0  0  0  0  0  0  0  0  0  0
  -26.2280  -34.6750   22.2620 O   0  0  0  0  0  0  0  0  0  0  0  0
  -24.9060  -33.1210   24.6520 H   0  0  0  0  0  0  0  0  0  0  0  0
  -23.6360  -36.0260   23.3760 C   0  0  0  0  0  1  0  0  0  0  0  0
  -24.9540  -35.6320   24.0620 C   0  0  0  0  0  3  0  0  0  0  0  0
  -26.9770  -36.6200   25.0470 C   0  0  0  0  0  1  0  0  0  0  0  0
  -25.8260  -36.8240   24.1710 N   0  0  0  0  0  0  0  0  0  0  0  0
  -25.3020  -37.6220   24.5180 H   0  0  0  0  0  0  0  0  0  0  0  0
  -26.7290  -31.1170   24.2750 C   0  0  1  0  0  0  0  0  0  0  0  0
  -25.8070  -30.5250   25.3670 C   0  0  0  0  0  1  0  0  0  0  0  0
  -27.4740  -29.9400   23.6040 C   0  0  0  0  0  1  0  0  0  0  0  0
  -27.8080  -31.9740   24.9770 C   0  0  0  0  0  1  0  0  0  0  0  0
  1  2  1  0
  2  7  1  0
  3  1  2  0
  4  5  1  0
  5  8  1  0
  5  2  2  0
  6  4  2  0
  6  3  1  0
  9  6  1  0
 10  3  1  0
 10 19  1  0
 11 17  1  0
 12 17  1  0
 13 14  1  0
 13 12  1  0
 15 14  1  0
 15 24  1  0
 15 16  1  0
 17 16  1  0
 18 11  2  0
 19 11  1  0
 19 20  1  0
 21 22  2  0
 22 41  1  0
 23 22  1  0
 23 26  1  0
 24 25  1  0
 24 21  1  0
 25 23  2  0
 26 27  1  0
 27 28  2  0
 29 32  1  0
 29 28  1  0
 30 29  2  0
 31 30  1  0
 31 26  2  0
 32 33  1  0
 33 34  1  0
 34 35  2  0
 36 35  1  0
 36 40  1  0
 37 36  2  0
 38 33  2  0
 38 37  1  0
 39 38  1  0
 41 42  1  0
 42 45  1  0
 42 44  1  0
 43 41  2  0
 46 47  1  0
 46 21  1  0
 48 46  1  0
 49 50  1  0
 49  4  1  0
 50 52  1  0
 51 62  2  0
 52 57  1  0
 53 61  1  0
 53 63  1  0
 54 60  1  0
 54 56  1  0
 55 61  1  0
 56 55  1  0
 57 56  2  0
 58 59  1  0
 58 52  2  0
 59 54  2  0
 60 53  1  0
 61 51  1  0
 63 65  2  0
 64 63  1  0
 66 64  1  0
 67 76  2  0
 67 72  1  0
 68 64  1  0
 68 72  1  0
 69 68  1  0
 70 71  1  0
 70 69  1  0
 71 67  1  0
 72 73  2  0
 73 74  1  0
 75 74  2  0
 76 75  1  0
 77 51  1  0
 77 78  1  0
 77 87  1  0
 78 81  1  0
 79 78  1  0
 79 83  1  0
 80 79  2  0
 83 82  1  0
 83 85  1  0
 85 86  1  0
 85 84  1  0
 87 90  1  1
 87 88  1  0
 89 87  1  0
M  ISO  4  11 100  19 100  49 101  50 101
M  END
>  <TORSDO>  (58) 
F 18

>  <SCORE>  (58) 
-9.885

>  <name>  (58) 
57

>  <ligand_id>  (58) 
57

>  <original_smiles>  (58) 
[H]c1c([H])c([H])c2c(c1[H])C([H])([H])C([H])([H])C([H])([H])C2([H])N([H])C(=O)C1([H])N(C(=O)C([H])(N([H])C(=O)C([H])(N([H])C([H])([H])[H])C([H])([H])[H])C(C([H])([H])[H])(C([H])([H])[H])C([H])([H])[H])C([H])([H])c2c([H])c(OC([H])([H])c3c(Cl)c(C([H])([H])[H])c([H])c(C([H])([H])N([H])C(=O)N4C([H])([H])C([H])([H])C([H])([H])C([H])(n5nc(-c6c([H])c([H])c(Oc7c([H])c([H])c(F)c([H])c7F)c([H])c6[H])c(C(=O)N([H])[H])c5N([H])[H])C4([H])[H])c3Cl)c([H])c([H])c2C1([H])[H]

>  <smiles>  (58) 
[H]c1c([H])c([H])c2c(c1[H])C([H])([H])C([H])([H])C([H])([H])C2([H])N([H])C(=O)C1([H])N(C(=O)C([H])(N([H])C(=O)C([H])(N([H])C([H])([H])[H])C([H])([H])[H])C(C([H])([H])[H])(C([H])([H])[H])C([H])([H])[H])C([H])([H])c2c([H])c(OC([H])([H])c3c(Cl)c(C([H])([H])[H])c([H])c(C([H])([H])N([H])C(=O)N4C([H])([H])C([H])([H])C([H])([H])C([H])(n5nc(-c6c([H])c([H])c(Oc7c([H])c([H])c(F)c([H])c7F)c([H])c6[H])c(C(=O)N([H])[H])c5N([H])[H])C4([H])[H])c3Cl)c([H])c([H])c2C1([H])[H]

$$$$
58:0:0
     RDKit          3D

105110  0  0  1  0  0  0  0  0999 V2000
  -23.5360  -28.3560   18.2090 C   0  0  0  0  0  3  0  0  0  0  0  0
  -24.4530  -29.7100   18.3120 C   0  0  0  0  0  3  0  0  0  0  0  0
  -23.0730  -27.3840   19.4510 C   0  0  0  0  0  0  0  0  0  0  0  0
  -24.7690  -30.3350   19.8270 C   0  0  0  0  0  2  0  0  0  0  0  0
  -23.4740  -27.6600   21.0100 C   0  0  0  0  0  3  0  0  0  0  0  0
  -24.2290  -28.9800   21.3980 N   0  0  0  0  0  1  0  0  0  0  0  0
  -23.7170  -26.3520   22.1320 Cl  0  0  0  0  0  0  0  0  0  0  0  0
  -25.5410  -31.7160   19.6360 C   0  0  0  0  0  2  0  0  0  0  0  0
  -25.6150  -34.2480   19.2150 C   0  0  0  0  0  1  0  0  0  0  0  0
  -24.8650  -33.0860   19.9080 C   0  0  0  0  0  2  0  0  0  0  0  0
  -22.3520  -26.0590   19.1460 C   0  0  0  0  0  2  0  0  0  0  0  0
  -22.8430  -25.3370   17.9430 N   0  0  0  0  0  4  0  0  0  0  0  0
  -23.8470  -25.3770   17.8830 H   0  0  0  0  0  0  0  0  0  0  0  0
  -22.4760  -25.8130   17.1320 H   0  0  0  0  0  0  0  0  0  0  0  0
  -22.4310  -23.9150   17.8060 C   0  0  0  0  0  2  0  0  0  0  0  0
  -23.1330  -22.9240   18.7730 C   0  0  0  0  0  2  0  0  0  0  0  0
  -24.6570  -22.7010   18.5940 C   0  0  0  0  0  2  0  0  0  0  0  0
  -25.1640  -21.5650   19.5130 C   0  0  0  0  0  2  0  0  0  0  0  0
  -26.6500  -21.1880   19.3500 C   0  0  0  0  0  2  0  0  0  0  0  0
  -27.0070  -19.9610   20.2160 C   0  0  0  0  0  2  0  0  0  0  0  0
  -28.4750  -19.5130   20.1300 C   0  0  0  0  0  2  0  0  0  0  0  0
  -28.7460  -18.2260   20.9390 C   0  0  0  0  0  2  0  0  0  0  0  0
  -30.2280  -17.8080   20.8910 C   0  0  0  0  0  2  0  0  0  0  0  0
  -30.6140  -16.6320   21.8160 C   0  0  0  0  0  2  0  0  0  0  0  0
  -30.7120  -14.4260   20.6290 C   0  0  0  0  0  0  0  0  0  0  0  0
  -30.4220  -12.3060   19.4000 C   0  0  0  0  0  2  0  0  0  0  0  0
  -29.4860  -12.5150   18.1930 C   0  0  0  0  0  2  0  0  0  0  0  0
  -28.0090  -12.3740   18.6110 C   0  0  0  0  0  2  0  0  0  0  0  0
  -27.6620  -13.2020   19.8760 C   0  0  0  0  0  3  0  0  0  0  0  0
  -28.7020  -12.9500   20.9890 C   0  0  0  0  0  2  0  0  0  0  0  0
  -30.0330  -13.2640   20.4430 N   0  0  0  0  0  0  0  0  0  0  0  0
  -31.8040  -14.6650   20.1070 O   0  0  0  0  0  0  0  0  0  0  0  0
  -30.0810  -15.3370   21.3860 N   0  0  0  0  0  0  0  0  0  0  0  0
  -29.1780  -15.0710   21.7470 H   0  0  0  0  0  0  0  0  0  0  0  0
  -25.2590  -13.8140   20.5690 C   0  0  0  0  0  0  0  0  0  0  0  0
  -24.1850  -13.0450   20.9170 C   0  0  0  0  0  0  0  0  0  0  0  0
  -24.6380  -11.6900   20.8730 C   0  0  0  0  0  0  0  0  0  0  0  0
  -26.3020  -12.9310   20.3350 N   0  0  0  0  0  0  0  0  0  0  0  0
  -25.9300  -11.6480   20.5760 N   0  0  0  0  0  0  0  0  0  0  0  0
  -23.9050  -10.4300   21.0400 C   0  0  0  0  0  0  0  0  0  0  0  0
  -24.3600   -9.4210   21.9180 C   0  0  0  0  0  3  0  0  0  0  0  0
  -23.6290   -8.2240   22.0750 C   0  0  0  0  0  3  0  0  0  0  0  0
  -22.4270   -8.0280   21.3540 C   0  0  0  0  0  0  0  0  0  0  0  0
  -21.9900   -9.0250   20.4650 C   0  0  0  0  0  3  0  0  0  0  0  0
  -22.7220  -10.2130   20.3060 C   0  0  0  0  0  3  0  0  0  0  0  0
  -21.6640   -6.8870   21.4240 O   0  0  0  0  0  0  0  0  0  0  0  0
  -21.6850   -6.0730   22.5280 C   0  0  0  0  0  0  0  0  0  0  0  0
  -21.4010   -6.5640   23.8210 C   0  0  0  0  0  3  0  0  0  0  0  0
  -21.3660   -5.6790   24.9180 C   0  0  0  0  0  3  0  0  0  0  0  0
  -21.6050   -4.3060   24.7230 C   0  0  0  0  0  0  0  0  0  0  0  0
  -21.8820   -3.8140   23.4350 C   0  0  0  0  0  3  0  0  0  0  0  0
  -21.9190   -4.6960   22.3400 C   0  0  0  0  0  0  0  0  0  0  0  0
  -22.1660   -4.2150   21.0980 F   0  0  0  0  0  0  0  0  0  0  0  0
  -21.5630   -3.4540   25.7740 F   0  0  0  0  0  0  0  0  0  0  0  0
  -22.7850  -13.5230   21.1840 C   0  0  0  0  0  0  0  0  0  0  0  0
  -22.0510  -12.8250   22.0410 N   0  0  0  0  0  0  0  0  0  0  0  0
  -22.3550  -14.5560   20.6700 O   0  0  0  0  0  0  0  0  0  0  0  0
  -22.4110  -11.9900   22.4800 H   0  0  0  0  0  0  0  0  0  0  0  0
  -21.1130  -13.1280   22.2620 H   0  0  0  0  0  0  0  0  0  0  0  0
  -25.4340  -15.1870   20.4070 N   0  0  0  0  0  0  0  0  0  0  0  0
  -24.6720  -15.8470   20.5180 H   0  0  0  0  0  0  0  0  0  0  0  0
  -26.2920  -15.6210   20.0930 H   0  0  0  0  0  0  0  0  0  0  0  0
  -25.8260  -29.4740   17.4370 C   0  0  0  0  0  2  0  0  0  0  0  0
  -27.3800  -29.1060   18.0450 C   0  0  0  0  0  2  0  0  0  0  0  0
  -28.0570  -27.8220   18.6400 O   0  0  0  0  0  0  0  0  0  0  0  0
  -24.6100  -31.9860   23.2920 C   0  0  0  0  0  0  0  0  0  0  0  0
  -27.8480  -27.3650   19.9000 C   0  0  0  0  0  3  0  0  0  0  0  0
  -22.9510  -30.8860   21.5800 C   0  0  0  0  0  2  0  0  0  0  0  0
  -25.4150  -28.1950   19.7820 C   0  0  0  0  0  2  0  0  0  0  0  0
  -26.1390  -30.3650   21.8860 C   0  0  0  0  0  3  0  0  0  0  0  0
  -26.5020  -28.9580   20.7700 C   0  0  0  0  0  0  0  0  0  0  0  0
  -27.7300  -28.4130   20.8000 C   0  0  0  0  0  2  0  0  0  0  0  0
  -26.8530  -26.4170   19.7050 C   0  0  0  0  0  2  0  0  0  0  0  0
  -25.6570  -26.9180   19.3380 C   0  0  0  0  0  2  0  0  0  0  0  0
  -22.6990  -29.6890   20.0270 C   0  0  0  0  0 15  0  0  0  0  0  0
  -24.6020  -31.1920   22.2130 N   0  0  0  0  0  0  0  0  0  0  0  0
  -23.5480  -32.3750   23.7960 O   0  0  0  0  0  0  0  0  0  0  0  0
  -22.2860  -29.9670   22.7410 C   0  0  0  0  0  0  0  0  0  0  0  0
  -21.1240  -29.4260   22.4210 N   0  0  0  0  0  0  0  0  0  0  0  0
  -22.9640  -29.4330   23.6460 O   0  0  0  0  0  0  0  0  0  0  0  0
  -20.6350  -29.8150   21.6270 H   0  0  0  0  0  0  0  0  0  0  0  0
  -17.9160  -28.1350   22.8890 C   0  0  0  0  0  0  0  0  0  0  0  0
  -20.4370  -28.3830   23.1620 C   0  0  0  0  0  3  0  0  0  0  0  0
  -20.5210  -26.9870   22.5010 C   0  0  0  0  0  2  0  0  0  0  0  0
  -19.4130  -26.6580   21.5150 C   0  0  0  0  0  2  0  0  0  0  0  0
  -18.0740  -26.7800   22.2170 C   0  0  0  0  0  2  0  0  0  0  0  0
  -19.0300  -28.8760   23.3470 C   0  0  0  0  0  0  0  0  0  0  0  0
  -18.8470  -30.1450   23.9380 C   0  0  0  0  0  3  0  0  0  0  0  0
  -17.5590  -30.6770   24.0800 C   0  0  0  0  0  3  0  0  0  0  0  0
  -16.4500  -29.9370   23.6390 C   0  0  0  0  0  3  0  0  0  0  0  0
  -16.6270  -28.6720   23.0500 C   0  0  0  0  0  3  0  0  0  0  0  0
  -25.9390  -32.5060   23.9070 C   0  0  0  0  0  3  0  0  0  0  0  0
  -25.6420  -33.8960   24.2730 N   0  0  0  0  0  0  0  0  0  0  0  0
  -25.9300  -34.9640   23.5220 C   0  0  0  0  0  0  0  0  0  0  0  0
  -26.5780  -34.8950   22.4750 O   0  0  0  0  0  0  0  0  0  0  0  0
  -25.0160  -34.0290   25.0550 H   0  0  0  0  0  0  0  0  0  0  0  0
  -24.1610  -36.7190   23.2510 C   0  0  0  0  0  1  0  0  0  0  0  0
  -25.4250  -36.3240   24.0290 C   0  0  0  0  0  3  0  0  0  0  0  0
  -27.5700  -37.1880   24.8410 C   0  0  0  0  0  1  0  0  0  0  0  0
  -26.4410  -37.3930   23.9360 N   0  0  0  0  0  0  0  0  0  0  0  0
  -26.0320  -38.2960   24.1620 H   0  0  0  0  0  0  0  0  0  0  0  0
  -26.4550  -31.7110   25.1750 C   0  0  1  0  0  0  0  0  0  0  0  0
  -25.3530  -31.4490   26.2280 C   0  0  0  0  0  1  0  0  0  0  0  0
  -27.0880  -30.3410   24.8560 C   0  0  0  0  0  1  0  0  0  0  0  0
  -27.5970  -32.5200   25.8370 C   0  0  0  0  0  1  0  0  0  0  0  0
  1  2  1  0
  1  3  2  0
  2 63  1  0
  2  4  1  0
  3  5  1  0
  5  6  1  0
  5  7  1  0
  8  4  1  0
  8 10  1  0
  9 10  1  0
 11  3  1  0
 12 11  1  0
 13 12  1  0
 14 12  1  0
 15 12  1  0
 15 16  1  0
 17 16  1  0
 17 18  1  0
 19 18  1  0
 19 20  1  0
 21 20  1  0
 21 22  1  0
 23 22  1  0
 23 24  1  0
 25 33  1  0
 26 31  1  0
 27 28  1  0
 27 26  1  0
 29 28  1  0
 29 38  1  0
 29 30  1  0
 31 25  1  0
 31 30  1  0
 32 25  2  0
 33 34  1  0
 33 24  1  0
 35 36  2  0
 36 55  1  0
 37 36  1  0
 37 40  1  0
 38 35  1  0
 38 39  1  0
 39 37  2  0
 40 41  1  0
 41 42  2  0
 43 46  1  0
 43 42  1  0
 44 43  2  0
 45 44  1  0
 45 40  2  0
 46 47  1  0
 47 48  1  0
 48 49  2  0
 50 49  1  0
 50 54  1  0
 51 50  2  0
 52 47  2  0
 52 51  1  0
 53 52  1  0
 55 56  1  0
 56 59  1  0
 56 58  1  0
 57 55  2  0
 60 61  1  0
 60 35  1  0
 62 60  1  0
 63 64  1  0
 64 65  1  0
 66 77  2  0
 67 65  1  0
 67 72  1  0
 68 76  1  0
 68 78  1  0
 69 71  1  0
 70 76  1  0
 71 72  1  0
 71 70  2  0
 73 67  1  0
 74 73  1  0
 74 69  1  0
 76 66  1  0
 78 80  2  0
 79 78  1  0
 81 79  1  0
 82 91  2  0
 82 87  1  0
 83 79  1  0
 83 87  1  0
 84 83  1  0
 85 86  1  0
 85 84  1  0
 86 82  1  0
 87 88  2  0
 88 89  1  0
 90 89  2  0
 91 90  1  0
 92 66  1  0
 92 93  1  0
 92102  1  0
 93 96  1  0
 94 98  1  0
 94 93  1  0
 95 94  2  0
 98 97  1  0
100 98  1  0
100101  1  0
100 99  1  0
102105  1  1
102103  1  0
104102  1  0
M  ISO  4  25 100  33 100  64 101  65 101
M  END
>  <TORSDO>  (59) 
F 32

>  <SCORE>  (59) 
5.304

>  <name>  (59) 
58

>  <ligand_id>  (59) 
58

>  <original_smiles>  (59) 
[H]c1c([H])c([H])c2c(c1[H])C([H])([H])C([H])([H])C([H])([H])C2([H])N([H])C(=O)C1([H])N(C(=O)C([H])(N([H])C(=O)C([H])(N([H])C([H])([H])[H])C([H])([H])[H])C(C([H])([H])[H])(C([H])([H])[H])C([H])([H])[H])C([H])([H])c2c([H])c(OC([H])([H])C([H])([H])c3c(C([H])([H])C([H])([H])C([H])([H])[H])nc(Cl)c(C([H])([H])[N+]([H])([H])C([H])([H])C([H])([H])C([H])([H])C([H])([H])C([H])([H])C([H])([H])C([H])([H])C([H])([H])C([H])([H])C([H])([H])N([H])C(=O)N4C([H])([H])C([H])([H])C([H])([H])C([H])(n5nc(-c6c([H])c([H])c(Oc7c([H])c([H])c(F)c([H])c7F)c([H])c6[H])c(C(=O)N([H])[H])c5N([H])[H])C4([H])[H])c3[H])c([H])c([H])c2C1([H])[H]

>  <smiles>  (59) 
[H]c1c([H])c([H])c2c(c1[H])C([H])([H])C([H])([H])C([H])([H])C2([H])N([H])C(=O)C1([H])N(C(=O)C([H])(N([H])C(=O)C([H])(N([H])C([H])([H])[H])C([H])([H])[H])C(C([H])([H])[H])(C([H])([H])[H])C([H])([H])[H])C([H])([H])c2c([H])c(OC([H])([H])C([H])([H])c3c(C([H])([H])C([H])([H])C([H])([H])[H])nc(Cl)c(C([H])([H])[N+]([H])([H])C([H])([H])C([H])([H])C([H])([H])C([H])([H])C([H])([H])C([H])([H])C([H])([H])C([H])([H])C([H])([H])C([H])([H])N([H])C(=O)N4C([H])([H])C([H])([H])C([H])([H])C([H])(n5nc(-c6c([H])c([H])c(Oc7c([H])c([H])c(F)c([H])c7F)c([H])c6[H])c(C(=O)N([H])[H])c5N([H])[H])C4([H])[H])c3[H])c([H])c([H])c2C1([H])[H]

$$$$
59:0:0
     RDKit          3D

 93101  0  0  1  0  0  0  0  0999 V2000
  -33.3250  -19.8270   21.3380 C   0  0  0  0  0  3  0  0  0  0  0  0
  -32.0680  -21.7610   20.6550 C   0  0  0  0  0  3  0  0  0  0  0  0
  -33.3010  -21.1600   20.9290 C   0  0  0  0  0  0  0  0  0  0  0  0
  -32.1400  -19.0730   21.3770 C   0  0  0  0  0  0  0  0  0  0  0  0
  -30.8960  -19.6150   20.9220 C   0  0  0  0  0  0  0  0  0  0  0  0
  -30.8300  -21.0560   20.6620 C   0  0  0  0  0  0  0  0  0  0  0  0
  -34.5800  -21.9680   20.8180 C   0  0  0  0  0  1  0  0  0  0  0  0
  -32.2830  -17.6620   21.9390 C   0  0  0  0  0  1  0  0  0  0  0  0
  -29.7230  -18.5920   20.7700 C   0  0  0  0  0  2  0  0  0  0  0  0
  -30.0170  -17.3290   19.8380 C   0  0  0  0  0  2  0  0  0  0  0  0
  -30.5610  -14.8340   20.0640 C   0  0  0  0  0  0  0  0  0  0  0  0
  -30.3060  -12.6010   19.0210 C   0  0  0  0  0  2  0  0  0  0  0  0
  -29.3350  -12.7470   17.8320 C   0  0  0  0  0  2  0  0  0  0  0  0
  -27.8830  -12.5390   18.3040 C   0  0  0  0  0  2  0  0  0  0  0  0
  -27.5420  -13.3920   19.5540 C   0  0  0  0  0  3  0  0  0  0  0  0
  -28.6380  -13.2910   20.6400 C   0  0  0  0  0  2  0  0  0  0  0  0
  -29.9290  -13.6230   20.0210 N   0  0  0  0  0  0  0  0  0  0  0  0
  -31.7060  -14.9710   19.6260 O   0  0  0  0  0  0  0  0  0  0  0  0
  -29.7950  -15.9310   20.3600 N   0  0  0  0  0  0  0  0  0  0  0  0
  -28.8690  -15.7310   20.7100 H   0  0  0  0  0  0  0  0  0  0  0  0
  -25.1620  -13.9220   20.3590 C   0  0  0  0  0  0  0  0  0  0  0  0
  -24.1320  -13.1200   20.7660 C   0  0  0  0  0  0  0  0  0  0  0  0
  -24.6310  -11.7810   20.7210 C   0  0  0  0  0  0  0  0  0  0  0  0
  -26.2220  -13.0690   20.0890 N   0  0  0  0  0  0  0  0  0  0  0  0
  -25.9100  -11.7770   20.3730 N   0  0  0  0  0  0  0  0  0  0  0  0
  -23.9450  -10.5000   20.9400 C   0  0  0  0  0  0  0  0  0  0  0  0
  -24.4090   -9.5710   21.8990 C   0  0  0  0  0  3  0  0  0  0  0  0
  -23.7250   -8.3520   22.1040 C   0  0  0  0  0  3  0  0  0  0  0  0
  -22.5620   -8.0560   21.3520 C   0  0  0  0  0  0  0  0  0  0  0  0
  -22.1180   -8.9740   20.3860 C   0  0  0  0  0  3  0  0  0  0  0  0
  -22.8010  -10.1840   20.1780 C   0  0  0  0  0  3  0  0  0  0  0  0
  -21.8480   -6.8870   21.4680 O   0  0  0  0  0  0  0  0  0  0  0  0
  -21.7940   -6.1880   22.6460 C   0  0  0  0  0  0  0  0  0  0  0  0
  -21.3070   -6.7710   23.8370 C   0  0  0  0  0  3  0  0  0  0  0  0
  -21.2040   -5.9950   25.0090 C   0  0  0  0  0  3  0  0  0  0  0  0
  -21.5770   -4.6370   24.9890 C   0  0  0  0  0  0  0  0  0  0  0  0
  -22.0590   -4.0540   23.8040 C   0  0  0  0  0  3  0  0  0  0  0  0
  -22.1630   -4.8270   22.6350 C   0  0  0  0  0  0  0  0  0  0  0  0
  -22.6070   -4.2570   21.4880 F   0  0  0  0  0  0  0  0  0  0  0  0
  -21.4710   -3.8890   26.1120 F   0  0  0  0  0  0  0  0  0  0  0  0
  -22.7320  -13.5590   21.0810 C   0  0  0  0  0  0  0  0  0  0  0  0
  -22.0480  -12.8430   21.9660 N   0  0  0  0  0  0  0  0  0  0  0  0
  -22.2490  -14.5700   20.5740 O   0  0  0  0  0  0  0  0  0  0  0  0
  -22.4470  -12.0240   22.4010 H   0  0  0  0  0  0  0  0  0  0  0  0
  -21.1090  -13.1210   22.2170 H   0  0  0  0  0  0  0  0  0  0  0  0
  -25.2810  -15.2950   20.1690 N   0  0  0  0  0  0  0  0  0  0  0  0
  -24.4890  -15.9190   20.2730 H   0  0  0  0  0  0  0  0  0  0  0  0
  -26.0960  -15.7540   19.7850 H   0  0  0  0  0  0  0  0  0  0  0  0
  -29.6530  -21.8040   20.4340 O   0  0  0  0  0  0  0  0  0  0  0  0
  -29.7360  -23.2850   20.5460 C   0  0  0  0  0  3  0  0  0  0  0  0
  -28.4340  -24.1650   20.4350 C   0  0  0  0  0  3  0  0  0  0  0  0
  -28.4910  -25.6470   21.0130 C   0  0  0  0  0  2  0  0  0  0  0  0
  -28.4710  -26.8130   20.1290 O   0  0  0  0  0  0  0  0  0  0  0  0
  -24.6010  -31.9920   23.2830 C   0  0  0  0  0  0  0  0  0  0  0  0
  -27.3210  -27.5960   20.1530 C   0  0  0  0  0  0  0  0  0  0  0  0
  -23.4230  -30.5910   21.6200 C   0  0  0  0  0  3  0  0  0  0  0  0
  -24.9070  -29.1010   20.1650 C   0  0  0  0  0  0  0  0  0  0  0  0
  -25.9460  -30.9950   21.4260 C   0  0  0  0  0  2  0  0  0  0  0  0
  -26.0590  -29.6290   20.7640 C   0  0  0  0  0  0  0  0  0  0  0  0
  -27.2720  -28.8870   20.7500 C   0  0  0  0  0  3  0  0  0  0  0  0
  -26.1540  -27.1010   19.5380 C   0  0  0  0  0  3  0  0  0  0  0  0
  -24.9540  -27.8420   19.5400 C   0  0  0  0  0  3  0  0  0  0  0  0
  -23.6460  -29.9370   20.2280 C   0  0  0  0  0  2  0  0  0  0  0  0
  -24.6760  -31.2080   22.1680 N   0  0  0  0  0  0  0  0  0  0  0  0
  -23.5160  -32.2310   23.8280 O   0  0  0  0  0  0  0  0  0  0  0  0
  -22.7890  -29.5480   22.5660 C   0  0  0  0  0  0  0  0  0  0  0  0
  -21.4660  -29.3420   22.4420 N   0  0  0  0  0  0  0  0  0  0  0  0
  -23.4830  -28.9250   23.3740 O   0  0  0  0  0  0  0  0  0  0  0  0
  -20.9660  -29.8980   21.7630 H   0  0  0  0  0  0  0  0  0  0  0  0
  -18.1160  -28.0730   22.9250 C   0  0  0  0  0  0  0  0  0  0  0  0
  -20.6690  -28.3760   23.1960 C   0  0  0  0  0  3  0  0  0  0  0  0
  -20.7970  -26.9580   22.5910 C   0  0  0  0  0  2  0  0  0  0  0  0
  -19.6980  -26.6320   21.5750 C   0  0  0  0  0  2  0  0  0  0  0  0
  -18.3160  -26.7400   22.2240 C   0  0  0  0  0  2  0  0  0  0  0  0
  -19.2190  -28.8490   23.3670 C   0  0  0  0  0  0  0  0  0  0  0  0
  -18.9770  -30.0980   23.9800 C   0  0  0  0  0  3  0  0  0  0  0  0
  -17.6630  -30.5690   24.1580 C   0  0  0  0  0  3  0  0  0  0  0  0
  -16.5730  -29.7890   23.7310 C   0  0  0  0  0  3  0  0  0  0  0  0
  -16.8000  -28.5440   23.1210 C   0  0  0  0  0  3  0  0  0  0  0  0
  -25.8750  -32.6400   23.9150 C   0  0  0  0  0  3  0  0  0  0  0  0
  -25.5550  -34.0390   24.2270 N   0  0  0  0  0  0  0  0  0  0  0  0
  -25.8810  -35.0850   23.4570 C   0  0  0  0  0  0  0  0  0  0  0  0
  -26.5530  -34.9740   22.4290 O   0  0  0  0  0  0  0  0  0  0  0  0
  -24.9650  -34.2020   25.0310 H   0  0  0  0  0  0  0  0  0  0  0  0
  -24.1400  -36.8590   23.0760 C   0  0  0  0  0  1  0  0  0  0  0  0
  -25.3810  -36.4750   23.8960 C   0  0  0  0  0  3  0  0  0  0  0  0
  -27.5040  -37.3890   24.7240 C   0  0  0  0  0  1  0  0  0  0  0  0
  -26.4050  -37.5350   23.7730 N   0  0  0  0  0  0  0  0  0  0  0  0
  -25.9920  -38.4540   23.9020 H   0  0  0  0  0  0  0  0  0  0  0  0
  -26.3810  -31.8830   25.2020 C   0  0  1  0  0  0  0  0  0  0  0  0
  -25.2780  -31.6410   26.2580 C   0  0  0  0  0  1  0  0  0  0  0  0
  -26.9820  -30.5100   24.8250 C   0  0  0  0  0  1  0  0  0  0  0  0
  -27.5150  -32.6920   25.8730 C   0  0  0  0  0  1  0  0  0  0  0  0
  1  4  1  0
  2  6  2  0
  2  3  1  0
  3  1  2  0
  4  8  1  0
  5  4  2  0
  6  5  1  0
  7  3  1  0
  9  5  1  0
 10 19  1  0
 10  9  1  0
 11 19  1  0
 12 17  1  0
 13 14  1  0
 13 12  1  0
 15 14  1  0
 15 24  1  0
 15 16  1  0
 17 11  1  0
 17 16  1  0
 18 11  2  0
 19 20  1  0
 21 22  2  0
 22 41  1  0
 23 22  1  0
 23 26  1  0
 24 21  1  0
 24 25  1  0
 25 23  2  0
 26 27  1  0
 27 28  2  0
 29 32  1  0
 29 28  1  0
 30 29  2  0
 31 30  1  0
 31 26  2  0
 32 33  1  0
 33 34  1  0
 34 35  2  0
 36 35  1  0
 36 40  1  0
 37 36  2  0
 38 33  2  0
 38 37  1  0
 39 38  1  0
 41 42  1  0
 42 45  1  0
 42 44  1  0
 43 41  2  0
 46 47  1  0
 46 21  1  0
 48 46  1  0
 49 50  1  0
 49  6  1  0
 51 50  2  0
 51 52  1  0
 53 55  1  0
 53 52  1  0
 54 65  2  0
 55 60  1  0
 56 64  1  0
 56 66  1  0
 57 63  1  0
 57 59  1  0
 58 64  1  0
 59 58  1  0
 60 59  2  0
 61 62  1  0
 61 55  2  0
 62 57  2  0
 63 56  1  0
 64 54  1  0
 66 68  2  0
 67 66  1  0
 69 67  1  0
 70 79  2  0
 70 75  1  0
 71 67  1  0
 71 75  1  0
 72 71  1  0
 73 74  1  0
 73 72  1  0
 74 70  1  0
 75 76  2  0
 76 77  1  0
 78 77  2  0
 79 78  1  0
 80 54  1  0
 80 81  1  0
 80 90  1  0
 81 84  1  0
 82 86  1  0
 82 81  1  0
 83 82  2  0
 86 85  1  0
 88 86  1  0
 88 89  1  0
 88 87  1  0
 90 93  1  1
 90 91  1  0
 92 90  1  0
M  ISO  4  11 100  19 100  52 101  53 101
M  END
>  <TORSDO>  (60) 
F 22

>  <SCORE>  (60) 
-12.090

>  <name>  (60) 
59

>  <ligand_id>  (60) 
59

>  <original_smiles>  (60) 
[H]c1c([H])c([H])c2c(c1[H])C([H])([H])C([H])([H])C([H])([H])C2([H])N([H])C(=O)C1([H])N(C(=O)C([H])(N([H])C(=O)C([H])(N([H])C([H])([H])[H])C([H])([H])[H])C(C([H])([H])[H])(C([H])([H])[H])C([H])([H])[H])C([H])([H])c2c([H])c(OC([H])([H])C([H])([H])C([H])([H])Oc3c([H])c(C([H])([H])[H])c([H])c(C([H])([H])[H])c3C([H])([H])C([H])([H])N([H])C(=O)N3C([H])([H])C([H])([H])C([H])([H])C([H])(n4nc(-c5c([H])c([H])c(Oc6c([H])c([H])c(F)c([H])c6F)c([H])c5[H])c(C(=O)N([H])[H])c4N([H])[H])C3([H])[H])c([H])c([H])c2C1([H])[H]

>  <smiles>  (60) 
[H]c1c([H])c([H])c2c(c1[H])C([H])([H])C([H])([H])C([H])([H])C2([H])N([H])C(=O)C1([H])N(C(=O)C([H])(N([H])C(=O)C([H])(N([H])C([H])([H])[H])C([H])([H])[H])C(C([H])([H])[H])(C([H])([H])[H])C([H])([H])[H])C([H])([H])c2c([H])c(OC([H])([H])C([H])([H])C([H])([H])Oc3c([H])c(C([H])([H])[H])c([H])c(C([H])([H])[H])c3C([H])([H])C([H])([H])N([H])C(=O)N3C([H])([H])C([H])([H])C([H])([H])C([H])(n4nc(-c5c([H])c([H])c(Oc6c([H])c([H])c(F)c([H])c6F)c([H])c5[H])c(C(=O)N([H])[H])c4N([H])[H])C3([H])[H])c([H])c([H])c2C1([H])[H]

$$$$
60:0:0
     RDKit          3D

 92 94  0  0  1  0  0  0  0  0999 V2000
  -26.3660  -14.5040   21.4830 C   0  0  0  0  0  2  0  0  0  0  0  0
  -25.3930  -12.8210   21.6920 C   0  0  0  0  0  2  0  0  0  0  0  0
  -27.4530   -9.4500   22.5860 C   0  0  0  0  0  3  0  0  0  0  0  0
  -26.3580  -10.4870   19.2600 C   0  0  0  0  0 15  0  0  0  0  0  0
  -28.7320   -9.2030   21.4410 C   0  0  0  0  0  2  0  0  0  0  0  0
  -25.3400  -11.0630   20.9490 C   0  0  0  0  0  2  0  0  0  0  0  0
  -25.9720  -10.3790   22.4640 C   0  0  0  0  0  0  0  0  0  0  0  0
  -28.0620   -9.4840   19.6620 C   0  0  0  0  0  2  0  0  0  0  0  0
  -25.1090  -10.5850   23.9520 Cl  0  0  0  0  0  0  0  0  0  0  0  0
  -28.9090   -8.8740   18.2810 Cl  0  0  0  0  0  0  0  0  0  0  0  0
  -30.5430   -9.4440   22.4500 C   0  0  2  0  0  0  0  0  0  0  0  0
  -31.0290   -7.9760   22.2170 C   0  0  0  0  0  1  0  0  0  0  0  0
  -31.5180   -8.5380   20.5180 C   0  0  0  0  0  1  0  0  0  0  0  0
  -31.1050  -10.1790   20.0920 C   0  0  0  0  0  2  0  0  0  0  0  0
  -30.4190  -11.3690   21.2450 C   0  0  0  0  0  2  0  0  0  0  0  0
  -30.0360  -10.6710   23.0500 C   0  0  0  0  0  1  0  0  0  0  0  0
  -30.4460   -9.0660   23.3890 N   0  0  0  0  0  1  0  0  0  0  0  0
  -31.9850   -9.9290   22.5370 O   0  0  0  0  0  1  0  0  0  0  0  0
  -28.7340  -12.6680   19.9360 C   0  0  0  0  0  0  0  0  0  0  0  0
  -27.4460  -12.4810   19.9820 C   0  0  0  0  0  0  0  0  0  0  0  0
  -27.5760  -11.2670   20.9330 C   0  0  0  0  0  2  0  0  0  0  0  0
  -29.2030  -11.8120   20.8260 N   0  0  0  0  0  0  0  0  0  0  0  0
  -28.3090  -11.7530   21.7190 N   0  0  0  0  0  2  0  0  0  0  0  0
  -26.0580   -8.8550   20.8040 C   0  0  0  0  0  2  0  0  0  0  0  0
  -25.5220   -7.9300   21.8050 C   0  0  0  0  0  2  0  0  0  0  0  0
  -24.1960   -7.3760   21.9460 C   0  0  0  0  0  3  0  0  0  0  0  0
  -23.0980   -7.7270   21.1220 C   0  0  0  0  0  0  0  0  0  0  0  0
  -23.4490   -8.5470   20.0780 C   0  0  0  0  0  2  0  0  0  0  0  0
  -24.8550   -8.6370   19.8280 C   0  0  0  0  0  2  0  0  0  0  0  0
  -21.8210   -7.1940   21.1520 O   0  0  0  0  0  0  0  0  0  0  0  0
  -21.4620   -6.3290   22.1550 C   0  0  0  0  0  0  0  0  0  0  0  0
  -21.3100   -6.8200   23.4660 C   0  0  0  0  0  3  0  0  0  0  0  0
  -20.9560   -5.9520   24.5120 C   0  0  0  0  0  3  0  0  0  0  0  0
  -20.7220   -4.5920   24.2480 C   0  0  0  0  0  0  0  0  0  0  0  0
  -20.8390   -4.0980   22.9340 C   0  0  0  0  0  3  0  0  0  0  0  0
  -21.2040   -4.9630   21.8860 C   0  0  0  0  0  0  0  0  0  0  0  0
  -21.2980   -4.4770   20.6240 F   0  0  0  0  0  0  0  0  0  0  0  0
  -20.3790   -3.7610   25.2580 F   0  0  0  0  0  0  0  0  0  0  0  0
  -26.3250  -13.1180   18.9980 C   0  0  0  0  0  0  0  0  0  0  0  0
  -25.0000  -12.7890   18.9220 N   0  0  0  0  0  0  0  0  0  0  0  0
  -26.6220  -14.0140   18.2550 O   0  0  0  0  0  0  0  0  0  0  0  0
  -24.6430  -12.0510   19.5160 H   0  0  0  0  0  0  0  0  0  0  0  0
  -24.3770  -13.2840   18.3010 H   0  0  0  0  0  0  0  0  0  0  0  0
  -29.5480  -13.5040   19.3020 N   0  0  0  0  0  0  0  0  0  0  0  0
  -29.1960  -14.2230   18.6820 H   0  0  0  0  0  0  0  0  0  0  0  0
  -30.5410  -13.5760   19.4900 H   0  0  0  0  0  0  0  0  0  0  0  0
  -27.2720  -15.7070   20.3060 C   0  0  0  0  0  3  0  0  0  0  0  0
  -28.6650  -16.9990   20.2840 C   0  0  0  0  0  3  0  0  0  0  0  0
  -29.4400  -18.2740   19.1010 C   0  0  0  0  0  2  0  0  0  0  0  0
  -30.4730  -19.8770   19.1420 C   0  0  0  0  0  2  0  0  0  0  0  0
  -30.5260  -21.6030   18.3330 C   0  0  0  0  0  2  0  0  0  0  0  0
  -31.0710  -23.2340   18.5760 O   0  0  0  0  0  0  0  0  0  0  0  0
  -25.8370  -27.4760   21.6540 C   0  0  0  0  0  0  0  0  0  0  0  0
  -30.2700  -24.5010   18.4900 C   0  0  0  0  0  0  0  0  0  0  0  0
  -25.7410  -26.8420   19.2840 C   0  0  0  0  0  3  0  0  0  0  0  0
  -27.9700  -26.2640   18.1280 C   0  0  0  0  0  0  0  0  0  0  0  0
  -28.0270  -27.3400   20.3590 C   0  0  0  0  0  2  0  0  0  0  0  0
  -28.6820  -26.3740   19.3260 C   0  0  0  0  0  0  0  0  0  0  0  0
  -29.8610  -25.5160   19.5020 C   0  0  0  0  0  3  0  0  0  0  0  0
  -29.6490  -24.7050   17.2540 C   0  0  0  0  0  3  0  0  0  0  0  0
  -28.5060  -25.5070   17.0810 C   0  0  0  0  0  3  0  0  0  0  0  0
  -26.6070  -26.9290   17.9970 C   0  0  0  0  0  2  0  0  0  0  0  0
  -26.5290  -27.2310   20.4960 N   0  0  0  0  0  0  0  0  0  0  0  0
  -24.6010  -27.3650   21.7110 O   0  0  0  0  0  0  0  0  0  0  0  0
  -25.1120  -25.4280   19.4110 C   0  0  0  0  0  0  0  0  0  0  0  0
  -24.0130  -25.1670   18.6790 N   0  0  0  0  0  0  0  0  0  0  0  0
  -25.6200  -24.5850   20.1550 O   0  0  0  0  0  0  0  0  0  0  0  0
  -23.6410  -25.9090   18.1010 H   0  0  0  0  0  0  0  0  0  0  0  0
  -21.1400  -23.4540   17.2700 C   0  0  0  0  0  0  0  0  0  0  0  0
  -23.3010  -23.8840   18.6270 C   0  0  0  0  0  3  0  0  0  0  0  0
  -23.9870  -22.9080   17.6430 C   0  0  0  0  0  2  0  0  0  0  0  0
  -23.3940  -22.9600   16.2310 C   0  0  0  0  0  2  0  0  0  0  0  0
  -21.9030  -22.6130   16.2610 C   0  0  0  0  0  2  0  0  0  0  0  0
  -21.7980  -24.0640   18.3720 C   0  0  0  0  0  0  0  0  0  0  0  0
  -21.0460  -24.8590   19.2640 C   0  0  0  0  0  3  0  0  0  0  0  0
  -19.6640  -25.0490   19.0690 C   0  0  0  0  0  3  0  0  0  0  0  0
  -19.0160  -24.4330   17.9850 C   0  0  0  0  0  3  0  0  0  0  0  0
  -19.7520  -23.6340   17.0910 C   0  0  0  0  0  3  0  0  0  0  0  0
  -26.5590  -27.9270   22.9580 C   0  0  0  0  0  3  0  0  0  0  0  0
  -25.6720  -28.8700   23.6630 N   0  0  0  0  0  0  0  0  0  0  0  0
  -25.7600  -30.2060   23.6030 C   0  0  0  0  0  0  0  0  0  0  0  0
  -26.6520  -30.7850   22.9790 O   0  0  0  0  0  0  0  0  0  0  0  0
  -24.8840  -28.4650   24.1450 H   0  0  0  0  0  0  0  0  0  0  0  0
  -23.5970  -31.4810   23.3710 C   0  0  0  0  0  1  0  0  0  0  0  0
  -24.6920  -31.0320   24.3530 C   0  0  0  0  0  3  0  0  0  0  0  0
  -26.0720  -31.8700   26.2050 C   0  0  0  0  0  1  0  0  0  0  0  0
  -25.2430  -32.2140   25.0530 N   0  0  0  0  0  0  0  0  0  0  0  0
  -24.4960  -32.8250   25.3720 H   0  0  0  0  0  0  0  0  0  0  0  0
  -26.9260  -26.7210   23.9100 C   0  0  1  0  0  0  0  0  0  0  0  0
  -25.7290  -25.7940   24.2270 C   0  0  0  0  0  1  0  0  0  0  0  0
  -28.0420  -25.8460   23.2970 C   0  0  0  0  0  1  0  0  0  0  0  0
  -27.4820  -27.2620   25.2490 C   0  0  0  0  0  1  0  0  0  0  0  0
  1  2  1  0
  5  3  1  0
  6  2  1  0
  6  7  1  0
  7  3  2  0
  7  9  1  0
  8  5  1  0
 10  8  1  0
 11 18  1  0
 11 16  1  6
 11 17  1  0
 12 11  1  0
 14 13  1  0
 14 15  1  0
 19 20  2  0
 19 22  1  0
 20 21  1  0
 21 23  1  0
 22 15  1  0
 22 23  1  0
 24 25  1  0
 25 26  1  0
 27 30  1  0
 27 26  2  0
 28 27  1  0
 29 28  1  0
 29 24  1  0
 30 31  1  0
 31 32  1  0
 32 33  2  0
 34 33  1  0
 34 38  1  0
 35 34  2  0
 36 31  2  0
 36 35  1  0
 37 36  1  0
 39 20  1  0
 40 39  1  0
 40 42  1  0
 41 39  2  0
 43 40  1  0
 44 46  1  0
 44 19  1  0
 45 44  1  0
 47  1  1  0
 48 47  2  0
 49 50  1  0
 49 48  1  0
 51 52  1  0
 51 50  1  0
 53 64  2  0
 54 52  1  0
 54 59  1  0
 55 65  1  0
 55 63  1  0
 56 58  1  0
 57 63  1  0
 58 59  2  0
 58 57  1  0
 60 54  2  0
 61 60  1  0
 61 56  2  0
 62 56  1  0
 62 55  1  0
 63 53  1  0
 65 67  2  0
 66 65  1  0
 68 66  1  0
 69 74  1  0
 70 66  1  0
 71 70  1  0
 72 73  1  0
 72 71  1  0
 73 69  1  0
 74 70  1  0
 74 75  2  0
 76 75  1  0
 77 76  2  0
 78 69  2  0
 78 77  1  0
 79 53  1  0
 79 80  1  0
 79 89  1  0
 80 83  1  0
 81 80  1  0
 81 85  1  0
 82 81  2  0
 85 84  1  0
 85 87  1  0
 87 88  1  0
 87 86  1  0
 89 90  1  1
 89 92  1  0
 91 89  1  0
M  ISO  4   5 100  11 100  51 101  52 101
M  END
>  <TORSDO>  (61) 
F 23

>  <SCORE>  (61) 
1.045

>  <name>  (61) 
60

>  <ligand_id>  (61) 
60

>  <original_smiles>  (61) 
[H]c1c([H])c([H])c2c(c1[H])C([H])([H])C([H])([H])C([H])([H])C2([H])N([H])C(=O)C1([H])N(C(=O)C([H])(N([H])C(=O)C([H])(N([H])C([H])([H])[H])C([H])([H])[H])C(C([H])([H])[H])(C([H])([H])[H])C([H])([H])[H])C([H])([H])c2c([H])c(OC([H])([H])C([H])([H])C([H])([H])C([H])([H])C([H])([H])C([H])([H])C([H])([H])c3c([H])c(Cl)c(C(=O)N4C([H])([H])C([H])([H])C([H])([H])C([H])(n5nc(-c6c([H])c([H])c(Oc7c([H])c([H])c(F)c([H])c7F)c([H])c6[H])c(C(=O)N([H])[H])c5N([H])[H])C4([H])[H])c([H])c3Cl)c([H])c([H])c2C1([H])[H]

>  <smiles>  (61) 
[H]c1c([H])c([H])c2c(c1[H])C([H])([H])C([H])([H])C([H])([H])C2([H])N([H])C(=O)C1([H])N(C(=O)C([H])(N([H])C(=O)C([H])(N([H])C([H])([H])[H])C([H])([H])[H])C(C([H])([H])[H])(C([H])([H])[H])C([H])([H])[H])C([H])([H])c2c([H])c(OC([H])([H])C([H])([H])C([H])([H])C([H])([H])C([H])([H])C([H])([H])C([H])([H])c3c([H])c(Cl)c(C(=O)N4C([H])([H])C([H])([H])C([H])([H])C([H])(n5nc(-c6c([H])c([H])c(Oc7c([H])c([H])c(F)c([H])c7F)c([H])c6[H])c(C(=O)N([H])[H])c5N([H])[H])C4([H])[H])c([H])c3Cl)c([H])c([H])c2C1([H])[H]

$$$$
61:0:0
     RDKit          3D

 95103  0  0  1  0  0  0  0  0999 V2000
  -31.6910  -20.9690   21.3900 C   0  0  0  0  0  2  0  0  0  0  0  0
  -30.0120  -19.0470   21.0150 C   0  0  0  0  0  0  0  0  0  0  0  0
  -31.3370  -19.4780   21.2740 C   0  0  0  0  0  0  0  0  0  0  0  0
  -29.7460  -17.6520   20.9470 C   0  0  0  0  0  0  0  0  0  0  0  0
  -32.3320  -18.4870   21.4350 C   0  0  0  0  0  0  0  0  0  0  0  0
  -30.8220  -16.7310   21.0650 C   0  0  0  0  0  0  0  0  0  0  0  0
  -28.9000  -20.0730   20.8110 C   0  0  0  0  0  1  0  0  0  0  0  0
  -28.3130  -17.1600   20.7220 C   0  0  0  0  0  1  0  0  0  0  0  0
  -33.7880  -18.8150   21.7230 C   0  0  0  0  0  1  0  0  0  0  0  0
  -32.0700  -17.1730   21.3270 N   0  0  0  0  0  0  0  0  0  0  0  0
  -31.0560  -14.4470   20.0520 C   0  0  0  0  0  0  0  0  0  0  0  0
  -30.6830  -12.2620   18.9580 C   0  0  0  0  0  2  0  0  0  0  0  0
  -29.6810  -12.4100   17.7960 C   0  0  0  0  0  2  0  0  0  0  0  0
  -28.2310  -12.2890   18.3020 C   0  0  0  0  0  2  0  0  0  0  0  0
  -27.9530  -13.1860   19.5380 C   0  0  0  0  0  3  0  0  0  0  0  0
  -29.0580  -12.9990   20.6030 C   0  0  0  0  0  2  0  0  0  0  0  0
  -30.3620  -13.2780   19.9720 N   0  0  0  0  0  0  0  0  0  0  0  0
  -32.0740  -14.6530   19.3790 O   0  0  0  0  0  0  0  0  0  0  0  0
  -30.5280  -15.3500   20.9000 N   0  0  0  0  0  0  0  0  0  0  0  0
  -29.6990  -15.0290   21.3680 H   0  0  0  0  0  0  0  0  0  0  0  0
  -25.6240  -13.8380   20.4220 C   0  0  0  0  0  0  0  0  0  0  0  0
  -24.5570  -13.0840   20.8320 C   0  0  0  0  0  0  0  0  0  0  0  0
  -24.9700  -11.7210   20.7140 C   0  0  0  0  0  0  0  0  0  0  0  0
  -26.6230  -12.9360   20.0890 N   0  0  0  0  0  0  0  0  0  0  0  0
  -26.2340  -11.6550   20.3180 N   0  0  0  0  0  0  0  0  0  0  0  0
  -24.2160  -10.4740   20.9030 C   0  0  0  0  0  0  0  0  0  0  0  0
  -24.6160   -9.5070   21.8500 C   0  0  0  0  0  3  0  0  0  0  0  0
  -23.8660   -8.3240   22.0270 C   0  0  0  0  0  3  0  0  0  0  0  0
  -22.7010   -8.1010   21.2530 C   0  0  0  0  0  0  0  0  0  0  0  0
  -22.3210   -9.0570   20.2960 C   0  0  0  0  0  3  0  0  0  0  0  0
  -23.0720  -10.2310   20.1180 C   0  0  0  0  0  3  0  0  0  0  0  0
  -21.9250   -6.9710   21.3370 O   0  0  0  0  0  0  0  0  0  0  0  0
  -21.7170   -6.3270   22.5310 C   0  0  0  0  0  0  0  0  0  0  0  0
  -21.1460   -6.9850   23.6420 C   0  0  0  0  0  3  0  0  0  0  0  0
  -20.8860   -6.2680   24.8270 C   0  0  0  0  0  3  0  0  0  0  0  0
  -21.1840   -4.8940   24.9000 C   0  0  0  0  0  0  0  0  0  0  0  0
  -21.7480   -4.2360   23.7930 C   0  0  0  0  0  3  0  0  0  0  0  0
  -22.0100   -4.9510   22.6100 C   0  0  0  0  0  0  0  0  0  0  0  0
  -22.5330   -4.3080   21.5390 F   0  0  0  0  0  0  0  0  0  0  0  0
  -20.9280   -4.2030   26.0350 F   0  0  0  0  0  0  0  0  0  0  0  0
  -23.1980  -13.5910   21.2180 C   0  0  0  0  0  0  0  0  0  0  0  0
  -22.5180  -12.8950   22.1240 N   0  0  0  0  0  0  0  0  0  0  0  0
  -22.7490  -14.6380   20.7530 O   0  0  0  0  0  0  0  0  0  0  0  0
  -22.8950  -12.0480   22.5210 H   0  0  0  0  0  0  0  0  0  0  0  0
  -21.6090  -13.2160   22.4240 H   0  0  0  0  0  0  0  0  0  0  0  0
  -25.8230  -15.2090   20.2880 N   0  0  0  0  0  0  0  0  0  0  0  0
  -25.0820  -15.8790   20.4630 H   0  0  0  0  0  0  0  0  0  0  0  0
  -26.6520  -15.6310   19.8910 H   0  0  0  0  0  0  0  0  0  0  0  0
  -31.5900  -21.7140   20.0380 C   0  0  0  0  0  2  0  0  0  0  0  0
  -33.5640  -23.3390   20.4300 C   0  0  0  0  0  1  0  0  0  0  0  0
  -32.0920  -23.1800   20.0040 C   0  0  0  0  0  3  0  0  0  0  0  0
  -31.1530  -24.1880   20.7190 C   0  0  0  0  0  2  0  0  0  0  0  0
  -30.4890  -25.1620   19.7200 C   0  0  0  0  0  2  0  0  0  0  0  0
  -29.4040  -26.0890   20.3040 C   0  0  0  0  0  2  0  0  0  0  0  0
  -28.8800  -26.8430   19.2150 O   0  0  0  0  0  0  0  0  0  0  0  0
  -24.7910  -31.2480   23.0700 C   0  0  0  0  0  0  0  0  0  0  0  0
  -27.6630  -27.4430   19.4240 C   0  0  0  0  0  0  0  0  0  0  0  0
  -23.6360  -29.9610   21.2990 C   0  0  0  0  0  3  0  0  0  0  0  0
  -25.1580  -28.7180   19.6700 C   0  0  0  0  0  0  0  0  0  0  0  0
  -26.1170  -30.5420   21.0850 C   0  0  0  0  0  2  0  0  0  0  0  0
  -26.2870  -29.2610   20.2970 C   0  0  0  0  0  0  0  0  0  0  0  0
  -27.5420  -28.6250   20.1820 C   0  0  0  0  0  3  0  0  0  0  0  0
  -26.5230  -26.9030   18.7940 C   0  0  0  0  0  3  0  0  0  0  0  0
  -25.2670  -27.5320   18.9200 C   0  0  0  0  0  3  0  0  0  0  0  0
  -23.8520  -29.4630   19.8430 C   0  0  0  0  0  2  0  0  0  0  0  0
  -24.8670  -30.5930   21.8780 N   0  0  0  0  0  0  0  0  0  0  0  0
  -23.7110  -31.3700   23.6660 O   0  0  0  0  0  0  0  0  0  0  0  0
  -23.0970  -28.7880   22.1460 C   0  0  0  0  0  0  0  0  0  0  0  0
  -21.7990  -28.4830   21.9840 N   0  0  0  0  0  0  0  0  0  0  0  0
  -23.8430  -28.1560   22.9000 O   0  0  0  0  0  0  0  0  0  0  0  0
  -21.2540  -29.0530   21.3520 H   0  0  0  0  0  0  0  0  0  0  0  0
  -18.5800  -26.8690   22.2700 C   0  0  0  0  0  0  0  0  0  0  0  0
  -21.0830  -27.3920   22.6460 C   0  0  0  0  0  3  0  0  0  0  0  0
  -21.3650  -26.0390   21.9520 C   0  0  0  0  0  2  0  0  0  0  0  0
  -20.3300  -25.6850   20.8800 C   0  0  0  0  0  2  0  0  0  0  0  0
  -18.9280  -25.6130   21.4890 C   0  0  0  0  0  2  0  0  0  0  0  0
  -19.5910  -27.7130   22.7990 C   0  0  0  0  0  0  0  0  0  0  0  0
  -19.2120  -28.8870   23.4850 C   0  0  0  0  0  3  0  0  0  0  0  0
  -17.8540  -29.2180   23.6500 C   0  0  0  0  0  3  0  0  0  0  0  0
  -16.8560  -28.3700   23.1370 C   0  0  0  0  0  3  0  0  0  0  0  0
  -17.2210  -27.1970   22.4510 C   0  0  0  0  0  3  0  0  0  0  0  0
  -26.0490  -31.8940   23.7320 C   0  0  0  0  0  3  0  0  0  0  0  0
  -25.6740  -33.2450   24.1690 N   0  0  0  0  0  0  0  0  0  0  0  0
  -25.9630  -34.3680   23.4980 C   0  0  0  0  0  0  0  0  0  0  0  0
  -26.6450  -34.3780   22.4690 O   0  0  0  0  0  0  0  0  0  0  0  0
  -25.0680  -33.3090   24.9730 H   0  0  0  0  0  0  0  0  0  0  0  0
  -24.1620  -36.1060   23.2570 C   0  0  0  0  0  1  0  0  0  0  0  0
  -25.4060  -35.6910   24.0580 C   0  0  0  0  0  3  0  0  0  0  0  0
  -27.4820  -36.5980   25.0020 C   0  0  0  0  0  1  0  0  0  0  0  0
  -26.3910  -36.7940   24.0520 N   0  0  0  0  0  0  0  0  0  0  0  0
  -25.9400  -37.6800   24.2660 H   0  0  0  0  0  0  0  0  0  0  0  0
  -26.6210  -31.0540   24.9390 C   0  0  1  0  0  0  0  0  0  0  0  0
  -25.5550  -30.6800   25.9940 C   0  0  0  0  0  1  0  0  0  0  0  0
  -27.2660  -29.7430   24.4300 C   0  0  0  0  0  1  0  0  0  0  0  0
  -27.7390  -31.8520   25.6500 C   0  0  0  0  0  1  0  0  0  0  0  0
  2  3  1  0
  3  1  1  0
  3  5  2  0
  4  2  2  0
  4  6  1  0
  5  9  1  0
  6 10  2  0
  7  2  1  0
  8  4  1  0
 10  5  1  0
 11 19  1  0
 12 17  1  0
 13 14  1  0
 13 12  1  0
 15 14  1  0
 15 24  1  0
 15 16  1  0
 17 11  1  0
 17 16  1  0
 18 11  2  0
 19  6  1  0
 19 20  1  0
 21 22  2  0
 22 41  1  0
 23 22  1  0
 23 26  1  0
 24 25  1  0
 24 21  1  0
 25 23  2  0
 26 27  1  0
 27 28  2  0
 29 32  1  0
 29 28  1  0
 30 29  2  0
 31 30  1  0
 31 26  2  0
 32 33  1  0
 33 38  2  0
 33 34  1  0
 34 35  2  0
 35 36  1  0
 36 40  1  0
 37 36  2  0
 38 37  1  0
 39 38  1  0
 41 42  1  0
 42 45  1  0
 42 44  1  0
 43 41  2  0
 46 21  1  0
 46 47  1  0
 48 46  1  0
 49  1  1  0
 51 49  1  0
 51 50  1  0
 51 52  1  0
 53 54  1  0
 53 52  1  0
 55 57  1  0
 55 54  1  0
 56 67  2  0
 57 62  1  0
 58 66  1  0
 58 68  1  0
 59 65  1  0
 59 61  1  0
 60 66  1  0
 61 60  1  0
 62 61  2  0
 63 64  1  0
 63 57  2  0
 64 59  2  0
 65 58  1  0
 66 56  1  0
 68 70  2  0
 69 68  1  0
 71 69  1  0
 72 81  2  0
 72 77  1  0
 73 69  1  0
 73 77  1  0
 74 73  1  0
 75 76  1  0
 75 74  1  0
 76 72  1  0
 77 78  2  0
 78 79  1  0
 80 79  2  0
 81 80  1  0
 82 56  1  0
 82 83  1  0
 82 92  1  0
 83 86  1  0
 84 88  1  0
 84 83  1  0
 85 84  2  0
 88 87  1  0
 90 88  1  0
 90 91  1  0
 90 89  1  0
 92 95  1  1
 92 93  1  0
 94 92  1  0
M  ISO  4  11 100  19 100  54 101  55 101
M  END
>  <TORSDO>  (62) 
F 22

>  <SCORE>  (62) 
-10.093

>  <name>  (62) 
61

>  <ligand_id>  (62) 
61

>  <original_smiles>  (62) 
[H]c1c([H])c([H])c2c(c1[H])C([H])([H])C([H])([H])C([H])([H])C2([H])N([H])C(=O)C1([H])N(C(=O)C([H])(N([H])C(=O)C([H])(N([H])C([H])([H])[H])C([H])([H])[H])C(C([H])([H])[H])(C([H])([H])[H])C([H])([H])[H])C([H])([H])c2c([H])c(OC([H])([H])C([H])([H])C([H])([H])C([H])(C([H])([H])[H])C([H])([H])C([H])([H])c3c(C([H])([H])[H])nc(N([H])C(=O)N4C([H])([H])C([H])([H])C([H])([H])C([H])(n5nc(-c6c([H])c([H])c(Oc7c([H])c([H])c(F)c([H])c7F)c([H])c6[H])c(C(=O)N([H])[H])c5N([H])[H])C4([H])[H])c(C([H])([H])[H])c3C([H])([H])[H])c([H])c([H])c2C1([H])[H]

>  <smiles>  (62) 
[H]c1c([H])c([H])c2c(c1[H])C([H])([H])C([H])([H])C([H])([H])C2([H])N([H])C(=O)C1([H])N(C(=O)C([H])(N([H])C(=O)C([H])(N([H])C([H])([H])[H])C([H])([H])[H])C(C([H])([H])[H])(C([H])([H])[H])C([H])([H])[H])C([H])([H])c2c([H])c(OC([H])([H])C([H])([H])C([H])([H])C([H])(C([H])([H])[H])C([H])([H])C([H])([H])c3c(C([H])([H])[H])nc(N([H])C(=O)N4C([H])([H])C([H])([H])C([H])([H])C([H])(n5nc(-c6c([H])c([H])c(Oc7c([H])c([H])c(F)c([H])c7F)c([H])c6[H])c(C(=O)N([H])[H])c5N([H])[H])C4([H])[H])c(C([H])([H])[H])c3C([H])([H])[H])c([H])c([H])c2C1([H])[H]

$$$$
62:0:0
     RDKit          3D

 97106  0  0  1  0  0  0  0  0999 V2000
  -30.4230  -24.2130   17.5370 C   0  0  0  0  0  2  0  0  0  0  0  0
  -30.6170  -24.1650   19.0650 C   0  0  0  0  0  2  0  0  0  0  0  0
  -28.7120  -22.3160   17.7770 C   0  0  0  0  0  2  0  0  0  0  0  0
  -29.9070  -22.8750   16.9610 C   0  0  0  0  0  3  0  0  0  0  0  0
  -29.3480  -23.6630   19.7840 C   0  0  0  0  0  3  0  0  0  0  0  0
  -28.9800  -22.3150   19.2180 N   0  0  0  0  0  0  0  0  0  0  0  0
  -31.3230  -19.3590   19.7490 C   0  0  0  0  0  3  0  0  0  0  0  0
  -30.8630  -20.6950   19.5790 C   0  0  0  0  0  3  0  0  0  0  0  0
  -30.4520  -18.2670   19.9990 C   0  0  0  0  0  0  0  0  0  0  0  0
  -29.0620  -18.5810   20.0580 C   0  0  0  0  0  0  0  0  0  0  0  0
  -29.4840  -21.0220   19.6110 C   0  0  0  0  0  0  0  0  0  0  0  0
  -28.5960  -19.9240   19.8350 C   0  0  0  0  0  0  0  0  0  0  0  0
  -28.0520  -17.4840   20.3690 C   0  0  0  0  0  1  0  0  0  0  0  0
  -26.8910  -20.2350   19.7940 Cl  0  0  0  0  0  0  0  0  0  0  0  0
  -31.0890  -16.8750   20.3670 C   0  0  0  0  0  2  0  0  0  0  0  0
  -31.0260  -14.3800   19.8390 C   0  0  0  0  0  0  0  0  0  0  0  0
  -30.6210  -12.0970   18.9560 C   0  0  0  0  0  2  0  0  0  0  0  0
  -29.6510  -12.1710   17.7620 C   0  0  0  0  0  2  0  0  0  0  0  0
  -28.1870  -12.1120   18.2460 C   0  0  0  0  0  2  0  0  0  0  0  0
  -27.9060  -13.0900   19.4220 C   0  0  0  0  0  3  0  0  0  0  0  0
  -28.9990  -13.0080   20.5110 C   0  0  0  0  0  2  0  0  0  0  0  0
  -30.2960  -13.2220   19.8570 N   0  0  0  0  0  0  0  0  0  0  0  0
  -32.1790  -14.3930   19.4050 O   0  0  0  0  0  0  0  0  0  0  0  0
  -30.4010  -15.5520   20.1700 N   0  0  0  0  0  0  0  0  0  0  0  0
  -29.4370  -15.4870   20.4580 H   0  0  0  0  0  0  0  0  0  0  0  0
  -25.6170  -13.8530   20.2980 C   0  0  0  0  0  0  0  0  0  0  0  0
  -24.5110  -13.1590   20.7090 C   0  0  0  0  0  0  0  0  0  0  0  0
  -24.8550  -11.7760   20.6120 C   0  0  0  0  0  0  0  0  0  0  0  0
  -26.5680  -12.9000   19.9770 N   0  0  0  0  0  0  0  0  0  0  0  0
  -26.1190  -11.6420   20.2280 N   0  0  0  0  0  0  0  0  0  0  0  0
  -24.0340  -10.5730   20.8070 C   0  0  0  0  0  0  0  0  0  0  0  0
  -24.3940   -9.5780   21.7430 C   0  0  0  0  0  3  0  0  0  0  0  0
  -23.5770   -8.4420   21.9280 C   0  0  0  0  0  3  0  0  0  0  0  0
  -22.3870   -8.2920   21.1770 C   0  0  0  0  0  0  0  0  0  0  0  0
  -22.0470   -9.2740   20.2290 C   0  0  0  0  0  3  0  0  0  0  0  0
  -22.8630  -10.4020   20.0430 C   0  0  0  0  0  3  0  0  0  0  0  0
  -21.5460   -7.2100   21.2690 O   0  0  0  0  0  0  0  0  0  0  0  0
  -21.3890   -6.5190   22.4440 C   0  0  0  0  0  0  0  0  0  0  0  0
  -20.9320   -7.1470   23.6240 C   0  0  0  0  0  3  0  0  0  0  0  0
  -20.7190   -6.3860   24.7880 C   0  0  0  0  0  3  0  0  0  0  0  0
  -20.9500   -4.9980   24.7760 C   0  0  0  0  0  0  0  0  0  0  0  0
  -21.4010   -4.3700   23.6020 C   0  0  0  0  0  3  0  0  0  0  0  0
  -21.6150   -5.1280   22.4380 C   0  0  0  0  0  0  0  0  0  0  0  0
  -22.0270   -4.5140   21.3020 F   0  0  0  0  0  0  0  0  0  0  0  0
  -20.7390   -4.2650   25.8940 F   0  0  0  0  0  0  0  0  0  0  0  0
  -23.1750  -13.7420   21.0700 C   0  0  0  0  0  0  0  0  0  0  0  0
  -22.4400  -13.0870   21.9620 N   0  0  0  0  0  0  0  0  0  0  0  0
  -22.7960  -14.8110   20.5950 O   0  0  0  0  0  0  0  0  0  0  0  0
  -22.7600  -12.2220   22.3700 H   0  0  0  0  0  0  0  0  0  0  0  0
  -21.5420  -13.4560   22.2380 H   0  0  0  0  0  0  0  0  0  0  0  0
  -25.8820  -15.2100   20.1460 N   0  0  0  0  0  0  0  0  0  0  0  0
  -25.1700  -15.9120   20.3090 H   0  0  0  0  0  0  0  0  0  0  0  0
  -26.7170  -15.5840   19.7140 H   0  0  0  0  0  0  0  0  0  0  0  0
  -29.4860  -21.7470   14.6730 C   0  0  0  0  0  1  0  0  0  0  0  0
  -29.5490  -23.0550   15.4740 C   0  0  0  0  0  2  0  0  0  0  0  0
  -28.1780  -24.7550   19.6410 C   0  0  0  0  0  2  0  0  0  0  0  0
  -28.3460  -26.1990   19.9420 O   0  0  0  0  0  0  0  0  0  0  0  0
  -24.3700  -31.4720   22.8830 C   0  0  0  0  0  0  0  0  0  0  0  0
  -27.1940  -27.0090   19.8750 C   0  0  0  0  0  0  0  0  0  0  0  0
  -23.2390  -30.0170   21.2440 C   0  0  0  0  0  3  0  0  0  0  0  0
  -24.7630  -28.5300   19.8360 C   0  0  0  0  0  0  0  0  0  0  0  0
  -25.7690  -30.4380   21.0820 C   0  0  0  0  0  2  0  0  0  0  0  0
  -25.9080  -29.0650   20.4380 C   0  0  0  0  0  0  0  0  0  0  0  0
  -27.1270  -28.3190   20.4440 C   0  0  0  0  0  3  0  0  0  0  0  0
  -26.0140  -26.5330   19.2500 C   0  0  0  0  0  3  0  0  0  0  0  0
  -24.8190  -27.2710   19.2270 C   0  0  0  0  0  3  0  0  0  0  0  0
  -23.4890  -29.3470   19.8680 C   0  0  0  0  0  2  0  0  0  0  0  0
  -24.4770  -30.6610   21.7920 N   0  0  0  0  0  0  0  0  0  0  0  0
  -23.2710  -31.7080   23.4060 O   0  0  0  0  0  0  0  0  0  0  0  0
  -22.6130  -28.9770   22.2040 C   0  0  0  0  0  0  0  0  0  0  0  0
  -21.2840  -28.7970   22.1160 N   0  0  0  0  0  0  0  0  0  0  0  0
  -23.3190  -28.3380   22.9880 O   0  0  0  0  0  0  0  0  0  0  0  0
  -20.7750  -29.3640   21.4520 H   0  0  0  0  0  0  0  0  0  0  0  0
  -17.9180  -27.6290   22.7530 C   0  0  0  0  0  0  0  0  0  0  0  0
  -20.4910  -27.8450   22.8960 C   0  0  0  0  0  3  0  0  0  0  0  0
  -20.5410  -26.4340   22.2660 C   0  0  0  0  0  2  0  0  0  0  0  0
  -19.3810  -26.1620   21.3020 C   0  0  0  0  0  2  0  0  0  0  0  0
  -18.0370  -26.3030   22.0220 C   0  0  0  0  0  2  0  0  0  0  0  0
  -19.0690  -28.3620   23.1490 C   0  0  0  0  0  0  0  0  0  0  0  0
  -18.8990  -29.6060   23.7940 C   0  0  0  0  0  3  0  0  0  0  0  0
  -17.6120  -30.1160   24.0470 C   0  0  0  0  0  3  0  0  0  0  0  0
  -16.4760  -29.3800   23.6650 C   0  0  0  0  0  3  0  0  0  0  0  0
  -16.6320  -28.1380   23.0230 C   0  0  0  0  0  3  0  0  0  0  0  0
  -25.6210  -32.1600   23.5110 C   0  0  0  0  0  3  0  0  0  0  0  0
  -26.1800  -31.3960   24.7740 C   0  0  1  0  0  0  0  0  0  0  0  0
  -25.1030  -31.0850   25.8410 C   0  0  0  0  0  1  0  0  0  0  0  0
  -26.8310  -30.0550   24.3620 C   0  0  0  0  0  1  0  0  0  0  0  0
  -27.2910  -32.2390   25.4430 C   0  0  0  0  0  1  0  0  0  0  0  0
  -25.2370  -33.5340   23.8660 N   0  0  0  0  0  0  0  0  0  0  0  0
  -25.5230  -34.6190   23.1350 C   0  0  0  0  0  0  0  0  0  0  0  0
  -26.2090  -34.5730   22.1100 O   0  0  0  0  0  0  0  0  0  0  0  0
  -24.6270  -33.6380   24.6640 H   0  0  0  0  0  0  0  0  0  0  0  0
  -23.7080  -36.3290   22.7990 C   0  0  0  0  0  1  0  0  0  0  0  0
  -24.9600  -35.9720   23.6150 C   0  0  0  0  0  3  0  0  0  0  0  0
  -27.0380  -36.9470   24.4890 C   0  0  0  0  0  1  0  0  0  0  0  0
  -25.9390  -37.0770   23.5340 N   0  0  0  0  0  0  0  0  0  0  0  0
  -25.4870  -37.9740   23.6900 H   0  0  0  0  0  0  0  0  0  0  0  0
  1  2  1  0
  2  5  1  0
  3  6  1  0
  4 55  1  0
  4  1  1  0
  4  3  1  0
  5 56  1  0
  6 11  1  0
  6  5  1  0
  7  9  1  0
  8 11  1  0
  8  7  2  0
  9 10  2  0
  9 15  1  0
 10 13  1  0
 11 12  2  0
 12 10  1  0
 14 12  1  0
 16 22  1  0
 16 24  1  0
 17 22  1  0
 18 19  1  0
 18 17  1  0
 20 19  1  0
 20 29  1  0
 20 21  1  0
 22 21  1  0
 23 16  2  0
 24 15  1  0
 24 25  1  0
 26 27  2  0
 27 46  1  0
 28 27  1  0
 28 31  1  0
 29 30  1  0
 29 26  1  0
 30 28  2  0
 31 32  1  0
 32 33  2  0
 34 37  1  0
 34 33  1  0
 35 34  2  0
 36 35  1  0
 36 31  2  0
 37 38  1  0
 38 39  1  0
 39 40  2  0
 41 40  1  0
 41 45  1  0
 42 41  2  0
 43 38  2  0
 43 42  1  0
 44 43  1  0
 46 47  1  0
 47 50  1  0
 47 49  1  0
 48 46  2  0
 51 26  1  0
 51 52  1  0
 53 51  1  0
 54 55  1  0
 56 57  1  0
 58 69  2  0
 59 57  1  0
 59 64  1  0
 60 68  1  0
 60 70  1  0
 61 67  1  0
 61 63  1  0
 62 68  1  0
 63 64  2  0
 63 62  1  0
 65 59  2  0
 66 65  1  0
 66 61  2  0
 67 60  1  0
 68 58  1  0
 70 72  2  0
 71 70  1  0
 73 71  1  0
 74 83  2  0
 74 79  1  0
 75 71  1  0
 75 79  1  0
 76 75  1  0
 77 78  1  0
 77 76  1  0
 78 74  1  0
 79 80  2  0
 80 81  1  0
 82 81  2  0
 83 82  1  0
 84 58  1  0
 84 89  1  0
 84 85  1  0
 85 88  1  1
 85 86  1  0
 87 85  1  0
 89 92  1  0
 90 94  1  0
 90 89  1  0
 91 90  2  0
 94 93  1  0
 96 94  1  0
 96 97  1  0
 96 95  1  0
M  ISO  4  16 100  24 100  56 101  57 101
M  END
>  <TORSDO>  (63) 
F 20

>  <SCORE>  (63) 
-11.662

>  <name>  (63) 
62

>  <ligand_id>  (63) 
62

>  <original_smiles>  (63) 
[H]c1c([H])c([H])c2c(c1[H])C([H])([H])C([H])([H])C([H])([H])C2([H])N([H])C(=O)C1([H])N(C(=O)C([H])(N([H])C(=O)C([H])(N([H])C([H])([H])[H])C([H])([H])[H])C(C([H])([H])[H])(C([H])([H])[H])C([H])([H])[H])C([H])([H])c2c([H])c(OC([H])([H])C3([H])N(c4c([H])c([H])c(C([H])([H])N([H])C(=O)N5C([H])([H])C([H])([H])C([H])([H])C([H])(n6nc(-c7c([H])c([H])c(Oc8c([H])c([H])c(F)c([H])c8F)c([H])c7[H])c(C(=O)N([H])[H])c6N([H])[H])C5([H])[H])c(C([H])([H])[H])c4Cl)C([H])([H])C([H])(C([H])([H])C([H])([H])[H])C([H])([H])C3([H])[H])c([H])c([H])c2C1([H])[H]

>  <smiles>  (63) 
[H]c1c([H])c([H])c2c(c1[H])C([H])([H])C([H])([H])C([H])([H])C2([H])N([H])C(=O)C1([H])N(C(=O)C([H])(N([H])C(=O)C([H])(N([H])C([H])([H])[H])C([H])([H])[H])C(C([H])([H])[H])(C([H])([H])[H])C([H])([H])[H])C([H])([H])c2c([H])c(OC([H])([H])C3([H])N(c4c([H])c([H])c(C([H])([H])N([H])C(=O)N5C([H])([H])C([H])([H])C([H])([H])C([H])(n6nc(-c7c([H])c([H])c(Oc8c([H])c([H])c(F)c([H])c8F)c([H])c7[H])c(C(=O)N([H])[H])c6N([H])[H])C5([H])[H])c(C([H])([H])[H])c4Cl)C([H])([H])C([H])(C([H])([H])C([H])([H])[H])C([H])([H])C3([H])[H])c([H])c([H])c2C1([H])[H]

$$$$
63:0:0
     RDKit          3D

 98107  0  0  1  0  0  0  0  0999 V2000
  -29.0550  -26.9950   17.6750 C   0  0  0  0  0  0  0  0  0  0  0  0
  -28.7970  -26.0550   18.7170 C   0  0  0  0  0  0  0  0  0  0  0  0
  -29.3220  -26.5370   16.3670 C   0  0  0  0  0  0  0  0  0  0  0  0
  -28.9820  -24.6570   18.4100 C   0  0  0  0  0  0  0  0  0  0  0  0
  -29.3760  -25.1520   16.1490 C   0  0  0  0  0  0  0  0  0  0  0  0
  -29.0630  -28.4970   17.9430 C   0  0  0  0  0  1  0  0  0  0  0  0
  -29.2280  -24.2570   17.1410 N   0  0  0  0  0  0  0  0  0  0  0  0
  -29.5640  -27.6400   15.0500 Cl  0  0  0  0  0  0  0  0  0  0  0  0
  -29.6800  -24.5280   14.5670 Cl  0  0  0  0  0  0  0  0  0  0  0  0
  -28.3830  -26.5350   19.9550 O   0  0  0  0  0  0  0  0  0  0  0  0
  -24.4980  -31.7090   23.1130 C   0  0  0  0  0  0  0  0  0  0  0  0
  -27.2100  -27.2840   20.0090 C   0  0  0  0  0  0  0  0  0  0  0  0
  -23.3220  -30.3120   21.4460 C   0  0  0  0  0  3  0  0  0  0  0  0
  -24.8030  -28.7930   20.0260 C   0  0  0  0  0  0  0  0  0  0  0  0
  -25.8500  -30.6810   21.2830 C   0  0  0  0  0  2  0  0  0  0  0  0
  -25.9530  -29.3100   20.6350 C   0  0  0  0  0  0  0  0  0  0  0  0
  -27.1560  -28.5590   20.6340 C   0  0  0  0  0  3  0  0  0  0  0  0
  -26.0340  -26.7820   19.4120 C   0  0  0  0  0  3  0  0  0  0  0  0
  -24.8380  -27.5260   19.4180 C   0  0  0  0  0  3  0  0  0  0  0  0
  -23.5540  -29.6470   20.0630 C   0  0  0  0  0  2  0  0  0  0  0  0
  -24.5740  -30.9170   22.0050 N   0  0  0  0  0  0  0  0  0  0  0  0
  -23.4090  -31.9670   23.6430 O   0  0  0  0  0  0  0  0  0  0  0  0
  -22.6680  -29.2780   22.3920 C   0  0  0  0  0  0  0  0  0  0  0  0
  -21.3450  -29.0920   22.2580 N   0  0  0  0  0  0  0  0  0  0  0  0
  -23.3510  -28.6450   23.2020 O   0  0  0  0  0  0  0  0  0  0  0  0
  -20.8550  -29.6540   21.5750 H   0  0  0  0  0  0  0  0  0  0  0  0
  -17.9760  -27.8680   22.7220 C   0  0  0  0  0  0  0  0  0  0  0  0
  -20.5300  -28.1410   23.0130 C   0  0  0  0  0  3  0  0  0  0  0  0
  -20.6460  -26.7170   22.4240 C   0  0  0  0  0  2  0  0  0  0  0  0
  -19.5540  -26.3970   21.3980 C   0  0  0  0  0  2  0  0  0  0  0  0
  -18.1670  -26.5260   22.0350 C   0  0  0  0  0  2  0  0  0  0  0  0
  -19.0870  -28.6330   23.1690 C   0  0  0  0  0  0  0  0  0  0  0  0
  -18.8550  -29.8880   23.7720 C   0  0  0  0  0  3  0  0  0  0  0  0
  -17.5450  -30.3800   23.9310 C   0  0  0  0  0  3  0  0  0  0  0  0
  -16.4500  -29.6120   23.5000 C   0  0  0  0  0  3  0  0  0  0  0  0
  -16.6650  -28.3570   22.9040 C   0  0  0  0  0  3  0  0  0  0  0  0
  -25.7720  -32.3470   23.7500 C   0  0  0  0  0  3  0  0  0  0  0  0
  -26.3010  -31.5540   25.0090 C   0  0  1  0  0  0  0  0  0  0  0  0
  -25.2120  -31.2790   26.0720 C   0  0  0  0  0  1  0  0  0  0  0  0
  -26.9010  -30.1940   24.5850 C   0  0  0  0  0  1  0  0  0  0  0  0
  -27.4430  -32.3480   25.6870 C   0  0  0  0  0  1  0  0  0  0  0  0
  -25.4380  -33.7320   24.1130 N   0  0  0  0  0  0  0  0  0  0  0  0
  -25.7520  -34.8070   23.3770 C   0  0  0  0  0  0  0  0  0  0  0  0
  -26.4230  -34.7370   22.3430 O   0  0  0  0  0  0  0  0  0  0  0  0
  -24.8430  -33.8580   24.9180 H   0  0  0  0  0  0  0  0  0  0  0  0
  -23.9890  -36.5710   23.0640 C   0  0  0  0  0  1  0  0  0  0  0  0
  -25.2410  -36.1760   23.8640 C   0  0  0  0  0  3  0  0  0  0  0  0
  -27.3650  -37.0810   24.7000 C   0  0  0  0  0  1  0  0  0  0  0  0
  -26.2540  -37.2500   23.7680 N   0  0  0  0  0  0  0  0  0  0  0  0
  -25.8330  -38.1590   23.9390 H   0  0  0  0  0  0  0  0  0  0  0  0
  -29.0020  -23.4710   19.4270 C   0  0  0  0  0  2  0  0  0  0  0  0
  -29.3950  -22.0800   18.7720 C   0  0  0  0  0  2  0  0  0  0  0  0
  -31.0040  -20.4070   19.8590 C   0  0  0  0  0  3  0  0  0  0  0  0
  -31.3100  -19.1210   20.3650 C   0  0  0  0  0  3  0  0  0  0  0  0
  -28.6550  -19.8490   19.8720 C   0  0  0  0  0  3  0  0  0  0  0  0
  -29.6720  -20.7920   19.5850 C   0  0  0  0  0  0  0  0  0  0  0  0
  -30.3020  -18.1610   20.6240 C   0  0  0  0  0  0  0  0  0  0  0  0
  -28.9580  -18.5590   20.3910 C   0  0  0  0  0  0  0  0  0  0  0  0
  -27.6540  -17.4830   20.7400 Cl  0  0  0  0  0  0  0  0  0  0  0  0
  -30.7130  -16.8040   21.2650 C   0  0  0  0  0  2  0  0  0  0  0  0
  -30.7540  -14.4630   20.2860 C   0  0  0  0  0  0  0  0  0  0  0  0
  -30.4090  -12.2780   19.1690 C   0  0  0  0  0  2  0  0  0  0  0  0
  -29.4550  -12.4480   17.9700 C   0  0  0  0  0  2  0  0  0  0  0  0
  -27.9850  -12.3330   18.4210 C   0  0  0  0  0  2  0  0  0  0  0  0
  -27.6680  -13.2030   19.6680 C   0  0  0  0  0  3  0  0  0  0  0  0
  -28.7360  -13.0150   20.7670 C   0  0  0  0  0  2  0  0  0  0  0  0
  -30.0490  -13.3000   20.1680 N   0  0  0  0  0  0  0  0  0  0  0  0
  -31.8990  -14.5820   19.8400 O   0  0  0  0  0  0  0  0  0  0  0  0
  -30.1010  -15.5270   20.8150 N   0  0  0  0  0  0  0  0  0  0  0  0
  -29.1380  -15.3790   21.0760 H   0  0  0  0  0  0  0  0  0  0  0  0
  -25.2890  -13.8480   20.4010 C   0  0  0  0  0  0  0  0  0  0  0  0
  -24.2140  -13.0980   20.7890 C   0  0  0  0  0  0  0  0  0  0  0  0
  -24.6540  -11.7390   20.7680 C   0  0  0  0  0  0  0  0  0  0  0  0
  -26.3190  -12.9490   20.1690 N   0  0  0  0  0  0  0  0  0  0  0  0
  -25.9410  -11.6750   20.4480 N   0  0  0  0  0  0  0  0  0  0  0  0
  -23.9080  -10.4910   20.9780 C   0  0  0  0  0  0  0  0  0  0  0  0
  -24.3380   -9.5210   21.9100 C   0  0  0  0  0  3  0  0  0  0  0  0
  -23.5930   -8.3390   22.1060 C   0  0  0  0  0  3  0  0  0  0  0  0
  -22.4040   -8.1170   21.3710 C   0  0  0  0  0  0  0  0  0  0  0  0
  -21.9930   -9.0770   20.4290 C   0  0  0  0  0  3  0  0  0  0  0  0
  -22.7380  -10.2500   20.2300 C   0  0  0  0  0  3  0  0  0  0  0  0
  -21.6300   -6.9870   21.4770 O   0  0  0  0  0  0  0  0  0  0  0  0
  -21.5910   -6.2480   22.6320 C   0  0  0  0  0  0  0  0  0  0  0  0
  -21.2160   -6.8170   23.8680 C   0  0  0  0  0  3  0  0  0  0  0  0
  -21.1220   -6.0050   25.0170 C   0  0  0  0  0  3  0  0  0  0  0  0
  -21.3920   -4.6270   24.9300 C   0  0  0  0  0  0  0  0  0  0  0  0
  -21.7610   -4.0570   23.6980 C   0  0  0  0  0  3  0  0  0  0  0  0
  -21.8570   -4.8660   22.5520 C   0  0  0  0  0  0  0  0  0  0  0  0
  -22.1940   -4.3090   21.3640 F   0  0  0  0  0  0  0  0  0  0  0  0
  -21.2940   -3.8450   26.0310 F   0  0  0  0  0  0  0  0  0  0  0  0
  -22.8280  -13.6010   21.0730 C   0  0  0  0  0  0  0  0  0  0  0  0
  -22.1000  -12.9310   21.9580 N   0  0  0  0  0  0  0  0  0  0  0  0
  -22.4000  -14.6270   20.5440 O   0  0  0  0  0  0  0  0  0  0  0  0
  -22.4590  -12.1010   22.4090 H   0  0  0  0  0  0  0  0  0  0  0  0
  -21.1700  -13.2500   22.1880 H   0  0  0  0  0  0  0  0  0  0  0  0
  -25.4700  -15.2130   20.2080 N   0  0  0  0  0  0  0  0  0  0  0  0
  -24.7230  -15.8810   20.3530 H   0  0  0  0  0  0  0  0  0  0  0  0
  -26.3430  -15.6540   19.9470 H   0  0  0  0  0  0  0  0  0  0  0  0
  1  6  1  0
  1  2  1  0
  2 10  1  0
  3  1  2  0
  4  2  2  0
  4 51  1  0
  5  3  1  0
  5  7  2  0
  7  4  1  0
  8  3  1  0
  9  5  1  0
 10 12  1  0
 11 22  2  0
 12 17  1  0
 13 21  1  0
 13 23  1  0
 14 20  1  0
 14 16  1  0
 15 21  1  0
 16 15  1  0
 17 16  2  0
 18 19  1  0
 18 12  2  0
 19 14  2  0
 20 13  1  0
 21 11  1  0
 23 25  2  0
 24 23  1  0
 26 24  1  0
 27 36  2  0
 27 32  1  0
 28 24  1  0
 28 32  1  0
 29 28  1  0
 30 31  1  0
 30 29  1  0
 31 27  1  0
 32 33  2  0
 33 34  1  0
 35 34  2  0
 36 35  1  0
 37 11  1  0
 37 42  1  0
 37 38  1  0
 38 41  1  1
 38 39  1  0
 40 38  1  0
 42 45  1  0
 43 47  1  0
 43 42  1  0
 44 43  2  0
 47 46  1  0
 49 47  1  0
 49 50  1  0
 49 48  1  0
 52 51  1  0
 52 56  1  0
 53 54  1  0
 54 57  2  0
 55 58  2  0
 56 53  2  0
 56 55  1  0
 57 60  1  0
 58 57  1  0
 58 59  1  0
 61 69  1  0
 62 67  1  0
 63 64  1  0
 63 62  1  0
 65 64  1  0
 65 74  1  0
 65 66  1  0
 67 61  1  0
 67 66  1  0
 68 61  2  0
 69 70  1  0
 69 60  1  0
 71 72  2  0
 72 91  1  0
 73 72  1  0
 73 76  1  0
 74 71  1  0
 74 75  1  0
 75 73  2  0
 76 77  1  0
 77 78  2  0
 79 82  1  0
 79 78  1  0
 80 79  2  0
 81 80  1  0
 81 76  2  0
 82 83  1  0
 83 84  1  0
 84 85  2  0
 86 85  1  0
 86 90  1  0
 87 86  2  0
 88 83  2  0
 88 87  1  0
 89 88  1  0
 91 92  1  0
 92 95  1  0
 92 94  1  0
 93 91  2  0
 96 97  1  0
 96 71  1  0
 98 96  1  0
M  ISO  4   2 101  10 101  61 100  69 100
M  END
>  <TORSDO>  (64) 
F 20

>  <SCORE>  (64) 
-13.125

>  <name>  (64) 
63

>  <ligand_id>  (64) 
63

>  <original_smiles>  (64) 
[H]c1c([H])c([H])c2c(c1[H])C([H])([H])C([H])([H])C([H])([H])C2([H])N([H])C(=O)C1([H])N(C(=O)C([H])(N([H])C(=O)C([H])(N([H])C([H])([H])[H])C([H])([H])[H])C(C([H])([H])[H])(C([H])([H])[H])C([H])([H])[H])C([H])([H])c2c([H])c(Oc3c(C([H])([H])C([H])([H])c4c([H])c([H])c(C([H])([H])N([H])C(=O)N5C([H])([H])C([H])([H])C([H])([H])C([H])(n6nc(-c7c([H])c([H])c(Oc8c([H])c([H])c(F)c([H])c8F)c([H])c7[H])c(C(=O)N([H])[H])c6N([H])[H])C5([H])[H])c(Cl)c4[H])nc(Cl)c(Cl)c3C([H])([H])[H])c([H])c([H])c2C1([H])[H]

>  <smiles>  (64) 
[H]c1c([H])c([H])c2c(c1[H])C([H])([H])C([H])([H])C([H])([H])C2([H])N([H])C(=O)C1([H])N(C(=O)C([H])(N([H])C(=O)C([H])(N([H])C([H])([H])[H])C([H])([H])[H])C(C([H])([H])[H])(C([H])([H])[H])C([H])([H])[H])C([H])([H])c2c([H])c(Oc3c(C([H])([H])C([H])([H])c4c([H])c([H])c(C([H])([H])N([H])C(=O)N5C([H])([H])C([H])([H])C([H])([H])C([H])(n6nc(-c7c([H])c([H])c(Oc8c([H])c([H])c(F)c([H])c8F)c([H])c7[H])c(C(=O)N([H])[H])c6N([H])[H])C5([H])[H])c(Cl)c4[H])nc(Cl)c(Cl)c3C([H])([H])[H])c([H])c([H])c2C1([H])[H]

$$$$
64:0:0
     RDKit          3D

 90 98  0  0  1  0  0  0  0  0999 V2000
  -30.8750  -21.5310   20.5230 C   0  0  0  0  0  3  0  0  0  0  0  0
  -28.7700  -19.7480   20.5200 C   0  0  0  0  0  3  0  0  0  0  0  0
  -29.5960  -22.1700   20.4390 C   0  0  0  0  0  0  0  0  0  0  0  0
  -30.0640  -19.1220   20.5730 C   0  0  0  0  0  0  0  0  0  0  0  0
  -28.5370  -21.1960   20.4480 C   0  0  0  0  0  0  0  0  0  0  0  0
  -31.1060  -20.1080   20.5970 C   0  0  0  0  0  0  0  0  0  0  0  0
  -26.9030  -21.7560   20.4120 Cl  0  0  0  0  0  0  0  0  0  0  0  0
  -32.7510  -19.6060   20.7920 Cl  0  0  0  0  0  0  0  0  0  0  0  0
  -29.5220  -23.8020   20.2390 C   0  0  0  0  0  3  0  0  0  0  0  0
  -28.3250  -24.8930   20.6040 C   0  0  0  0  0  3  0  0  0  0  0  0
  -28.4400  -26.3950   20.2610 O   0  0  0  0  0  0  0  0  0  0  0  0
  -24.6710  -31.9080   23.2310 C   0  0  0  0  0  0  0  0  0  0  0  0
  -27.3130  -27.2790   20.2270 C   0  0  0  0  0  0  0  0  0  0  0  0
  -23.4760  -30.5060   21.5910 C   0  0  0  0  0  3  0  0  0  0  0  0
  -24.9420  -28.9470   20.1720 C   0  0  0  0  0  0  0  0  0  0  0  0
  -26.0170  -30.8270   21.4000 C   0  0  0  0  0  2  0  0  0  0  0  0
  -26.1170  -29.4360   20.7620 C   0  0  0  0  0  0  0  0  0  0  0  0
  -27.3070  -28.6270   20.7530 C   0  0  0  0  0  3  0  0  0  0  0  0
  -26.1080  -26.8650   19.6140 C   0  0  0  0  0  3  0  0  0  0  0  0
  -24.9430  -27.6670   19.5940 C   0  0  0  0  0  3  0  0  0  0  0  0
  -23.6980  -29.8230   20.2150 C   0  0  0  0  0  2  0  0  0  0  0  0
  -24.7400  -31.1020   22.1280 N   0  0  0  0  0  0  0  0  0  0  0  0
  -23.5860  -32.1800   23.7700 O   0  0  0  0  0  0  0  0  0  0  0  0
  -22.8110  -29.4930   22.5610 C   0  0  0  0  0  0  0  0  0  0  0  0
  -21.4850  -29.3030   22.4310 N   0  0  0  0  0  0  0  0  0  0  0  0
  -23.4930  -28.8750   23.3840 O   0  0  0  0  0  0  0  0  0  0  0  0
  -20.9910  -29.8480   21.7390 H   0  0  0  0  0  0  0  0  0  0  0  0
  -18.1170  -28.0790   22.9560 C   0  0  0  0  0  0  0  0  0  0  0  0
  -20.6760  -28.3560   23.2020 C   0  0  0  0  0  3  0  0  0  0  0  0
  -20.7820  -26.9280   22.6190 C   0  0  0  0  0  2  0  0  0  0  0  0
  -19.6720  -26.6050   21.6110 C   0  0  0  0  0  2  0  0  0  0  0  0
  -18.2960  -26.7370   22.2660 C   0  0  0  0  0  2  0  0  0  0  0  0
  -19.2340  -28.8470   23.3810 C   0  0  0  0  0  0  0  0  0  0  0  0
  -19.0100  -30.1020   23.9860 C   0  0  0  0  0  3  0  0  0  0  0  0
  -17.7030  -30.5940   24.1660 C   0  0  0  0  0  3  0  0  0  0  0  0
  -16.6020  -29.8240   23.7540 C   0  0  0  0  0  3  0  0  0  0  0  0
  -16.8080  -28.5670   23.1580 C   0  0  0  0  0  3  0  0  0  0  0  0
  -25.9470  -32.5550   23.8560 C   0  0  0  0  0  3  0  0  0  0  0  0
  -26.4590  -31.7990   25.1430 C   0  0  1  0  0  0  0  0  0  0  0  0
  -25.3660  -31.5650   26.2100 C   0  0  0  0  0  1  0  0  0  0  0  0
  -27.0550  -30.4220   24.7700 C   0  0  0  0  0  1  0  0  0  0  0  0
  -27.6020  -32.6060   25.8060 C   0  0  0  0  0  1  0  0  0  0  0  0
  -25.6310  -33.9560   24.1800 N   0  0  0  0  0  0  0  0  0  0  0  0
  -25.9460  -35.0080   23.4090 C   0  0  0  0  0  0  0  0  0  0  0  0
  -26.6020  -34.8980   22.3710 O   0  0  0  0  0  0  0  0  0  0  0  0
  -25.0590  -34.1120   24.9950 H   0  0  0  0  0  0  0  0  0  0  0  0
  -24.2090  -36.7880   23.0510 C   0  0  0  0  0  1  0  0  0  0  0  0
  -25.4560  -36.3950   23.8620 C   0  0  0  0  0  3  0  0  0  0  0  0
  -27.5870  -37.2970   24.6820 C   0  0  0  0  0  1  0  0  0  0  0  0
  -26.4840  -37.4520   23.7380 N   0  0  0  0  0  0  0  0  0  0  0  0
  -26.0750  -38.3720   23.8700 H   0  0  0  0  0  0  0  0  0  0  0  0
  -30.3640  -17.5300   20.9150 C   0  0  0  0  0  2  0  0  0  0  0  0
  -30.5990  -15.0080   20.0270 C   0  0  0  0  0  0  0  0  0  0  0  0
  -30.3520  -12.7360   18.9490 C   0  0  0  0  0  2  0  0  0  0  0  0
  -29.3180  -12.7110   17.7940 C   0  0  0  0  0  2  0  0  0  0  0  0
  -27.9010  -12.4820   18.3380 C   0  0  0  0  0  2  0  0  0  0  0  0
  -27.5770  -13.4030   19.5410 C   0  0  0  0  0  3  0  0  0  0  0  0
  -28.7110  -13.4070   20.5910 C   0  0  0  0  0  2  0  0  0  0  0  0
  -29.9420  -13.7950   19.9090 N   0  0  0  0  0  0  0  0  0  0  0  0
  -31.8030  -15.0420   19.7610 O   0  0  0  0  0  0  0  0  0  0  0  0
  -29.8850  -16.2010   20.2720 N   0  0  0  0  0  0  0  0  0  0  0  0
  -28.8790  -16.0670   20.2910 H   0  0  0  0  0  0  0  0  0  0  0  0
  -25.2620  -13.9790   20.4720 C   0  0  0  0  0  0  0  0  0  0  0  0
  -24.2160  -13.1910   20.8740 C   0  0  0  0  0  0  0  0  0  0  0  0
  -24.6690  -11.8430   20.7770 C   0  0  0  0  0  0  0  0  0  0  0  0
  -26.2790  -13.0990   20.1310 N   0  0  0  0  0  0  0  0  0  0  0  0
  -25.9400  -11.8140   20.3910 N   0  0  0  0  0  0  0  0  0  0  0  0
  -23.9510  -10.5750   20.9690 C   0  0  0  0  0  0  0  0  0  0  0  0
  -24.3960   -9.6040   21.8920 C   0  0  0  0  0  3  0  0  0  0  0  0
  -23.6750   -8.4040   22.0740 C   0  0  0  0  0  3  0  0  0  0  0  0
  -22.4970   -8.1640   21.3310 C   0  0  0  0  0  0  0  0  0  0  0  0
  -22.0670   -9.1250   20.3970 C   0  0  0  0  0  3  0  0  0  0  0  0
  -22.7890  -10.3160   20.2120 C   0  0  0  0  0  3  0  0  0  0  0  0
  -21.7470   -7.0160   21.4220 O   0  0  0  0  0  0  0  0  0  0  0  0
  -21.6710   -6.2930   22.5850 C   0  0  0  0  0  0  0  0  0  0  0  0
  -21.1760   -6.8570   23.7800 C   0  0  0  0  0  3  0  0  0  0  0  0
  -21.0500   -6.0580   24.9340 C   0  0  0  0  0  3  0  0  0  0  0  0
  -21.4240   -4.7010   24.8960 C   0  0  0  0  0  0  0  0  0  0  0  0
  -21.9120   -4.1370   23.7040 C   0  0  0  0  0  3  0  0  0  0  0  0
  -22.0400   -4.9330   22.5510 C   0  0  0  0  0  0  0  0  0  0  0  0
  -22.4940   -4.3810   21.3990 F   0  0  0  0  0  0  0  0  0  0  0  0
  -21.2970   -3.9310   26.0010 F   0  0  0  0  0  0  0  0  0  0  0  0
  -22.8360  -13.6640   21.2400 C   0  0  0  0  0  0  0  0  0  0  0  0
  -22.1500  -12.9410   22.1150 N   0  0  0  0  0  0  0  0  0  0  0  0
  -22.3810  -14.7120   20.7830 O   0  0  0  0  0  0  0  0  0  0  0  0
  -22.5380  -12.0910   22.5020 H   0  0  0  0  0  0  0  0  0  0  0  0
  -21.2290  -13.2410   22.4060 H   0  0  0  0  0  0  0  0  0  0  0  0
  -25.4220  -15.3490   20.3350 N   0  0  0  0  0  0  0  0  0  0  0  0
  -24.6710  -16.0020   20.5320 H   0  0  0  0  0  0  0  0  0  0  0  0
  -26.2630  -15.8030   20.0080 H   0  0  0  0  0  0  0  0  0  0  0  0
  1  6  1  0
  2  4  1  0
  3  5  1  0
  3  1  2  0
  4  6  2  0
  4 52  1  0
  5  2  2  0
  6  8  1  0
  7  5  1  0
  9  3  1  0
  9 10  2  0
 11 10  1  0
 12 23  2  0
 13 11  1  0
 13 18  1  0
 14 22  1  0
 14 24  1  0
 15 21  1  0
 15 17  1  0
 16 22  1  0
 17 16  1  0
 18 17  2  0
 19 13  2  0
 20 19  1  0
 20 15  2  0
 21 14  1  0
 22 12  1  0
 24 26  2  0
 25 24  1  0
 27 25  1  0
 28 37  2  0
 28 33  1  0
 29 25  1  0
 29 33  1  0
 30 29  1  0
 31 32  1  0
 31 30  1  0
 32 28  1  0
 33 34  2  0
 34 35  1  0
 36 35  2  0
 37 36  1  0
 38 12  1  0
 38 43  1  0
 38 39  1  0
 39 42  1  1
 39 40  1  0
 41 39  1  0
 43 46  1  0
 44 48  1  0
 44 43  1  0
 45 44  2  0
 48 47  1  0
 50 48  1  0
 50 51  1  0
 50 49  1  0
 53 61  1  0
 54 59  1  0
 55 56  1  0
 55 54  1  0
 57 56  1  0
 57 66  1  0
 57 58  1  0
 59 53  1  0
 59 58  1  0
 60 53  2  0
 61 62  1  0
 61 52  1  0
 63 64  2  0
 64 83  1  0
 65 64  1  0
 65 68  1  0
 66 67  1  0
 66 63  1  0
 67 65  2  0
 68 69  1  0
 69 70  2  0
 71 74  1  0
 71 70  1  0
 72 71  2  0
 73 72  1  0
 73 68  2  0
 74 75  1  0
 75 76  1  0
 76 77  2  0
 78 77  1  0
 78 82  1  0
 79 78  2  0
 80 75  2  0
 80 79  1  0
 81 80  1  0
 83 84  1  0
 84 87  1  0
 84 86  1  0
 85 83  2  0
 88 63  1  0
 88 89  1  0
 90 88  1  0
M  ISO  4  10 101  11 101  53 100  61 100
M  END
>  <TORSDO>  (65) 
F 19

>  <SCORE>  (65) 
-13.913

>  <name>  (65) 
64

>  <ligand_id>  (65) 
64

>  <original_smiles>  (65) 
[H]c1c([H])c([H])c2c(c1[H])C([H])([H])C([H])([H])C([H])([H])C2([H])N([H])C(=O)C1([H])N(C(=O)C([H])(N([H])C(=O)C([H])(N([H])C([H])([H])[H])C([H])([H])[H])C(C([H])([H])[H])(C([H])([H])[H])C([H])([H])[H])C([H])([H])c2c([H])c(OC([H])([H])C([H])([H])c3c([H])c(Cl)c(C([H])([H])N([H])C(=O)N4C([H])([H])C([H])([H])C([H])([H])C([H])(n5nc(-c6c([H])c([H])c(Oc7c([H])c([H])c(F)c([H])c7F)c([H])c6[H])c(C(=O)N([H])[H])c5N([H])[H])C4([H])[H])c([H])c3Cl)c([H])c([H])c2C1([H])[H]

>  <smiles>  (65) 
[H]c1c([H])c([H])c2c(c1[H])C([H])([H])C([H])([H])C([H])([H])C2([H])N([H])C(=O)C1([H])N(C(=O)C([H])(N([H])C(=O)C([H])(N([H])C([H])([H])[H])C([H])([H])[H])C(C([H])([H])[H])(C([H])([H])[H])C([H])([H])[H])C([H])([H])c2c([H])c(OC([H])([H])C([H])([H])c3c([H])c(Cl)c(C([H])([H])N([H])C(=O)N4C([H])([H])C([H])([H])C([H])([H])C([H])(n5nc(-c6c([H])c([H])c(Oc7c([H])c([H])c(F)c([H])c7F)c([H])c6[H])c(C(=O)N([H])[H])c5N([H])[H])C4([H])[H])c([H])c3Cl)c([H])c([H])c2C1([H])[H]

$$$$
65:0:0
     RDKit          3D

 95104  0  0  1  0  0  0  0  0999 V2000
  -27.5740  -19.8950   20.3940 C   0  0  0  0  0  3  0  0  0  0  0  0
  -29.9430  -19.4650   20.6010 C   0  0  0  0  0  3  0  0  0  0  0  0
  -27.3300  -18.5240   20.2190 C   0  0  0  0  0  0  0  0  0  0  0  0
  -29.7190  -18.0400   20.4920 C   0  0  0  0  0  0  0  0  0  0  0  0
  -28.8760  -20.4340   20.5360 C   0  0  0  0  0  0  0  0  0  0  0  0
  -28.3920  -17.6010   20.2700 C   0  0  0  0  0  0  0  0  0  0  0  0
  -28.1150  -16.2850   20.1180 F   0  0  0  0  0  0  0  0  0  0  0  0
  -27.8000  -24.0870   20.6570 C   0  0  0  0  0  2  0  0  0  0  0  0
  -30.1830  -24.0810   21.1700 C   0  0  0  0  0  2  0  0  0  0  0  0
  -27.9680  -22.7100   19.9700 C   0  0  0  0  0  2  0  0  0  0  0  0
  -30.2960  -22.5800   20.6810 C   0  0  0  0  0  2  0  0  0  0  0  0
  -29.0740  -24.9490   20.4860 C   0  0  0  0  0  3  0  0  0  0  0  0
  -29.0020  -21.8730   20.6160 N   0  0  0  0  0  0  0  0  0  0  0  0
  -28.9930  -26.3310   21.0080 O   0  0  0  0  0  0  0  0  0  0  0  0
  -24.8740  -31.6680   23.4640 C   0  0  0  0  0  0  0  0  0  0  0  0
  -27.8600  -27.1240   20.7860 C   0  0  0  0  0  0  0  0  0  0  0  0
  -23.8600  -30.2070   21.7510 C   0  0  0  0  0  3  0  0  0  0  0  0
  -25.4730  -28.6670   20.5000 C   0  0  0  0  0  0  0  0  0  0  0  0
  -26.3960  -30.5870   21.8010 C   0  0  0  0  0  2  0  0  0  0  0  0
  -26.5640  -29.1980   21.1990 C   0  0  0  0  0  0  0  0  0  0  0  0
  -27.7580  -28.4350   21.3380 C   0  0  0  0  0  3  0  0  0  0  0  0
  -26.7590  -26.6560   20.0320 C   0  0  0  0  0  3  0  0  0  0  0  0
  -25.5730  -27.4020   19.9050 C   0  0  0  0  0  3  0  0  0  0  0  0
  -24.2180  -29.5080   20.4130 C   0  0  0  0  0  2  0  0  0  0  0  0
  -25.0560  -30.8380   22.3980 N   0  0  0  0  0  0  0  0  0  0  0  0
  -23.7390  -31.9340   23.8860 O   0  0  0  0  0  0  0  0  0  0  0  0
  -23.1310  -29.1960   22.6670 C   0  0  0  0  0  0  0  0  0  0  0  0
  -21.8220  -29.0000   22.4300 N   0  0  0  0  0  0  0  0  0  0  0  0
  -23.7420  -28.5910   23.5530 O   0  0  0  0  0  0  0  0  0  0  0  0
  -21.3870  -29.5410   21.6950 H   0  0  0  0  0  0  0  0  0  0  0  0
  -18.4090  -27.8360   22.7150 C   0  0  0  0  0  0  0  0  0  0  0  0
  -20.9490  -28.0620   23.1380 C   0  0  0  0  0  3  0  0  0  0  0  0
  -21.0730  -26.6360   22.5540 C   0  0  0  0  0  2  0  0  0  0  0  0
  -20.0230  -26.3280   21.4810 C   0  0  0  0  0  2  0  0  0  0  0  0
  -18.6090  -26.4860   22.0440 C   0  0  0  0  0  2  0  0  0  0  0  0
  -19.5090  -28.5820   23.2150 C   0  0  0  0  0  0  0  0  0  0  0  0
  -19.2710  -29.8430   23.8010 C   0  0  0  0  0  3  0  0  0  0  0  0
  -17.9650  -30.3590   23.8920 C   0  0  0  0  0  3  0  0  0  0  0  0
  -16.8780  -29.6100   23.4100 C   0  0  0  0  0  3  0  0  0  0  0  0
  -17.0990  -28.3490   22.8270 C   0  0  0  0  0  3  0  0  0  0  0  0
  -26.0790  -32.3410   24.1910 C   0  0  0  0  0  3  0  0  0  0  0  0
  -26.4740  -31.6190   25.5380 C   0  0  1  0  0  0  0  0  0  0  0  0
  -25.2720  -31.3470   26.4710 C   0  0  0  0  0  1  0  0  0  0  0  0
  -27.1660  -30.2650   25.2500 C   0  0  0  0  0  1  0  0  0  0  0  0
  -27.4960  -32.4820   26.3140 C   0  0  0  0  0  1  0  0  0  0  0  0
  -25.7190  -33.7430   24.4410 N   0  0  0  0  0  0  0  0  0  0  0  0
  -26.0740  -34.7720   23.6600 C   0  0  0  0  0  0  0  0  0  0  0  0
  -26.8080  -34.6430   22.6760 O   0  0  0  0  0  0  0  0  0  0  0  0
  -25.0760  -33.9160   25.2010 H   0  0  0  0  0  0  0  0  0  0  0  0
  -24.3150  -36.4950   23.1460 C   0  0  0  0  0  1  0  0  0  0  0  0
  -25.5280  -36.1650   24.0300 C   0  0  0  0  0  3  0  0  0  0  0  0
  -27.5970  -37.1510   24.9130 C   0  0  0  0  0  1  0  0  0  0  0  0
  -26.5370  -37.2430   23.9130 N   0  0  0  0  0  0  0  0  0  0  0  0
  -26.0990  -38.1560   23.9990 H   0  0  0  0  0  0  0  0  0  0  0  0
  -25.4930  -18.2010   18.4960 C   0  0  0  0  0  1  0  0  0  0  0  0
  -25.9030  -18.0640   19.9710 C   0  0  0  0  0  2  0  0  0  0  0  0
  -30.8780  -16.9870   20.6160 C   0  0  0  0  0  2  0  0  0  0  0  0
  -31.2990  -14.4410   20.6590 C   0  0  0  0  0  0  0  0  0  0  0  0
  -31.0230  -12.2000   19.6470 C   0  0  0  0  0  2  0  0  0  0  0  0
  -30.0900  -12.3210   18.4220 C   0  0  0  0  0  2  0  0  0  0  0  0
  -28.6140  -12.2100   18.8450 C   0  0  0  0  0  2  0  0  0  0  0  0
  -28.2650  -13.1200   20.0540 C   0  0  0  0  0  3  0  0  0  0  0  0
  -29.3080  -12.9720   21.1850 C   0  0  0  0  0  2  0  0  0  0  0  0
  -30.6330  -13.2480   20.6100 N   0  0  0  0  0  0  0  0  0  0  0  0
  -32.4730  -14.5450   20.2980 O   0  0  0  0  0  0  0  0  0  0  0  0
  -30.5410  -15.5490   20.8920 N   0  0  0  0  0  0  0  0  0  0  0  0
  -29.5900  -15.3860   21.1920 H   0  0  0  0  0  0  0  0  0  0  0  0
  -25.8940  -13.8010   20.7740 C   0  0  0  0  0  0  0  0  0  0  0  0
  -24.7920  -13.0640   21.1090 C   0  0  0  0  0  0  0  0  0  0  0  0
  -25.1960  -11.6960   21.0380 C   0  0  0  0  0  0  0  0  0  0  0  0
  -26.9040  -12.8850   20.5260 N   0  0  0  0  0  0  0  0  0  0  0  0
  -26.4870  -11.6110   20.7420 N   0  0  0  0  0  0  0  0  0  0  0  0
  -24.4130  -10.4610   21.1780 C   0  0  0  0  0  0  0  0  0  0  0  0
  -24.7830   -9.4570   22.0990 C   0  0  0  0  0  3  0  0  0  0  0  0
  -24.0040   -8.2880   22.2310 C   0  0  0  0  0  3  0  0  0  0  0  0
  -22.8420   -8.1160   21.4400 C   0  0  0  0  0  0  0  0  0  0  0  0
  -22.4920   -9.1090   20.5080 C   0  0  0  0  0  3  0  0  0  0  0  0
  -23.2720  -10.2700   20.3740 C   0  0  0  0  0  3  0  0  0  0  0  0
  -22.0390   -7.0020   21.4820 O   0  0  0  0  0  0  0  0  0  0  0  0
  -21.8720   -6.2780   22.6350 C   0  0  0  0  0  0  0  0  0  0  0  0
  -21.3750   -6.8660   23.8190 C   0  0  0  0  0  3  0  0  0  0  0  0
  -21.1520   -6.0700   24.9600 C   0  0  0  0  0  3  0  0  0  0  0  0
  -21.4150   -4.6870   24.9170 C   0  0  0  0  0  0  0  0  0  0  0  0
  -21.9040   -4.1000   23.7370 C   0  0  0  0  0  3  0  0  0  0  0  0
  -22.1280   -4.8930   22.5980 C   0  0  0  0  0  0  0  0  0  0  0  0
  -22.5790   -4.3170   21.4570 F   0  0  0  0  0  0  0  0  0  0  0  0
  -21.1940   -3.9200   26.0100 F   0  0  0  0  0  0  0  0  0  0  0  0
  -23.4160  -13.5940   21.3910 C   0  0  0  0  0  0  0  0  0  0  0  0
  -22.6650  -12.9150   22.2510 N   0  0  0  0  0  0  0  0  0  0  0  0
  -23.0170  -14.6430   20.8870 O   0  0  0  0  0  0  0  0  0  0  0  0
  -23.0010  -12.0650   22.6770 H   0  0  0  0  0  0  0  0  0  0  0  0
  -21.7410  -13.2510   22.4820 H   0  0  0  0  0  0  0  0  0  0  0  0
  -26.1120  -15.1680   20.6470 N   0  0  0  0  0  0  0  0  0  0  0  0
  -25.3870  -15.8400   20.8610 H   0  0  0  0  0  0  0  0  0  0  0  0
  -27.0310  -15.5880   20.5880 H   0  0  0  0  0  0  0  0  0  0  0  0
  1  5  1  0
  3  6  1  0
  3  1  2  0
  4  2  1  0
  4 57  1  0
  5  2  2  0
  5 13  1  0
  6  4  2  0
  7  6  1  0
 10 13  1  0
 10  8  1  0
 11  9  1  0
 12  8  1  0
 12 14  1  0
 12  9  1  0
 13 11  1  0
 15 26  2  0
 16 14  1  0
 16 21  1  0
 17 25  1  0
 17 27  1  0
 18 20  1  0
 19 25  1  0
 20 21  2  0
 20 19  1  0
 22 16  2  0
 23 22  1  0
 23 18  2  0
 24 18  1  0
 24 17  1  0
 25 15  1  0
 27 29  2  0
 28 27  1  0
 30 28  1  0
 31 40  2  0
 31 36  1  0
 32 28  1  0
 32 36  1  0
 33 32  1  0
 34 35  1  0
 34 33  1  0
 35 31  1  0
 36 37  2  0
 37 38  1  0
 39 38  2  0
 40 39  1  0
 41 15  1  0
 41 46  1  0
 41 42  1  0
 42 45  1  1
 42 43  1  0
 44 42  1  0
 46 49  1  0
 47 51  1  0
 47 46  1  0
 48 47  2  0
 51 50  1  0
 53 54  1  0
 53 51  1  0
 53 52  1  0
 55 56  1  0
 56  3  1  0
 57 66  1  0
 58 66  1  0
 59 64  1  0
 60 61  1  0
 60 59  1  0
 62 61  1  0
 62 71  1  0
 62 63  1  0
 64 58  1  0
 64 63  1  0
 65 58  2  0
 66 67  1  0
 68 69  2  0
 69 88  1  0
 70 69  1  0
 70 73  1  0
 71 72  1  0
 71 68  1  0
 72 70  2  0
 73 74  1  0
 74 75  2  0
 76 79  1  0
 76 75  1  0
 77 76  2  0
 78 77  1  0
 78 73  2  0
 79 80  1  0
 80 81  1  0
 81 82  2  0
 83 82  1  0
 83 87  1  0
 84 83  2  0
 85 80  2  0
 85 84  1  0
 86 85  1  0
 88 89  1  0
 89 92  1  0
 89 91  1  0
 90 88  2  0
 93 68  1  0
 93 94  1  0
 95 93  1  0
M  ISO  4  12 101  14 101  58 100  66 100
M  END
>  <TORSDO>  (66) 
F 19

>  <SCORE>  (66) 
-11.524

>  <name>  (66) 
65

>  <ligand_id>  (66) 
65

>  <original_smiles>  (66) 
[H]c1c([H])c([H])c2c(c1[H])C([H])([H])C([H])([H])C([H])([H])C2([H])N([H])C(=O)C1([H])N(C(=O)C([H])(N([H])C(=O)C([H])(N([H])C([H])([H])[H])C([H])([H])[H])C(C([H])([H])[H])(C([H])([H])[H])C([H])([H])[H])C([H])([H])c2c([H])c(OC3([H])C([H])([H])C([H])([H])N(c4c([H])c(C([H])([H])N([H])C(=O)N5C([H])([H])C([H])([H])C([H])([H])C([H])(n6nc(-c7c([H])c([H])c(Oc8c([H])c([H])c(F)c([H])c8F)c([H])c7[H])c(C(=O)N([H])[H])c6N([H])[H])C5([H])[H])c(F)c(C([H])([H])C([H])([H])[H])c4[H])C([H])([H])C3([H])[H])c([H])c([H])c2C1([H])[H]

>  <smiles>  (66) 
[H]c1c([H])c([H])c2c(c1[H])C([H])([H])C([H])([H])C([H])([H])C2([H])N([H])C(=O)C1([H])N(C(=O)C([H])(N([H])C(=O)C([H])(N([H])C([H])([H])[H])C([H])([H])[H])C(C([H])([H])[H])(C([H])([H])[H])C([H])([H])[H])C([H])([H])c2c([H])c(OC3([H])C([H])([H])C([H])([H])N(c4c([H])c(C([H])([H])N([H])C(=O)N5C([H])([H])C([H])([H])C([H])([H])C([H])(n6nc(-c7c([H])c([H])c(Oc8c([H])c([H])c(F)c([H])c8F)c([H])c7[H])c(C(=O)N([H])[H])c6N([H])[H])C5([H])[H])c(F)c(C([H])([H])C([H])([H])[H])c4[H])C([H])([H])C3([H])[H])c([H])c([H])c2C1([H])[H]

$$$$
66:0:0
     RDKit          3D

 92100  0  0  1  0  0  0  0  0999 V2000
  -29.6010  -22.7540   22.5890 C   0  0  0  0  0  3  0  0  0  0  0  0
  -30.0230  -24.2000   20.2310 C   0  0  0  0  0  3  0  0  0  0  0  0
  -29.8120  -24.1500   22.6550 C   0  0  0  0  0  0  0  0  0  0  0  0
  -29.5600  -22.0790   21.3510 C   0  0  0  0  0  0  0  0  0  0  0  0
  -29.9950  -24.8950   21.4640 C   0  0  0  0  0  0  0  0  0  0  0  0
  -29.7930  -22.8110   20.1640 C   0  0  0  0  0  0  0  0  0  0  0  0
  -29.8090  -24.8320   24.0150 C   0  0  0  0  0  1  0  0  0  0  0  0
  -29.7550  -22.0480   18.6130 Cl  0  0  0  0  0  0  0  0  0  0  0  0
  -29.1770  -20.6010   21.3220 C   0  0  0  0  0  2  0  0  0  0  0  0
  -30.3360  -19.6190   21.0540 C   0  0  0  0  0  2  0  0  0  0  0  0
  -29.8790  -18.1610   21.2670 C   0  0  0  0  0  2  0  0  0  0  0  0
  -30.8860  -17.0850   20.8170 C   0  0  0  0  0  2  0  0  0  0  0  0
  -30.3870  -15.6580   21.1550 C   0  0  0  0  0  2  0  0  0  0  0  0
  -31.0180  -14.5290   20.3150 C   0  0  0  0  0  0  0  0  0  0  0  0
  -30.6450  -12.4560   19.0200 C   0  0  0  0  0  2  0  0  0  0  0  0
  -29.6810  -12.7510   17.8520 C   0  0  0  0  0  2  0  0  0  0  0  0
  -28.2100  -12.6330   18.3020 C   0  0  0  0  0  2  0  0  0  0  0  0
  -27.9210  -13.4080   19.6140 C   0  0  0  0  0  3  0  0  0  0  0  0
  -28.9910  -13.0900   20.6840 C   0  0  0  0  0  2  0  0  0  0  0  0
  -30.3150  -13.3820   20.1120 N   0  0  0  0  0  0  0  0  0  0  0  0
  -32.1100  -14.7370   19.7750 O   0  0  0  0  0  0  0  0  0  0  0  0
  -25.5310  -14.0380   20.3450 C   0  0  0  0  0  0  0  0  0  0  0  0
  -24.4600  -13.2740   20.7230 C   0  0  0  0  0  0  0  0  0  0  0  0
  -24.9100  -11.9170   20.6860 C   0  0  0  0  0  0  0  0  0  0  0  0
  -26.5680  -13.1490   20.1050 N   0  0  0  0  0  0  0  0  0  0  0  0
  -26.1970  -11.8690   20.3650 N   0  0  0  0  0  0  0  0  0  0  0  0
  -24.1760  -10.6600   20.8810 C   0  0  0  0  0  0  0  0  0  0  0  0
  -24.5650   -9.7230   21.8630 C   0  0  0  0  0  3  0  0  0  0  0  0
  -23.8320   -8.5300   22.0440 C   0  0  0  0  0  3  0  0  0  0  0  0
  -22.6960   -8.2660   21.2430 C   0  0  0  0  0  0  0  0  0  0  0  0
  -22.3260   -9.1920   20.2500 C   0  0  0  0  0  3  0  0  0  0  0  0
  -23.0610  -10.3750   20.0680 C   0  0  0  0  0  3  0  0  0  0  0  0
  -21.9410   -7.1200   21.3310 O   0  0  0  0  0  0  0  0  0  0  0  0
  -21.7710   -6.4590   22.5210 C   0  0  0  0  0  0  0  0  0  0  0  0
  -21.2000   -7.0880   23.6480 C   0  0  0  0  0  3  0  0  0  0  0  0
  -20.9790   -6.3530   24.8300 C   0  0  0  0  0  3  0  0  0  0  0  0
  -21.3180   -4.9870   24.8840 C   0  0  0  0  0  0  0  0  0  0  0  0
  -21.8820   -4.3570   23.7600 C   0  0  0  0  0  3  0  0  0  0  0  0
  -22.1050   -5.0910   22.5810 C   0  0  0  0  0  0  0  0  0  0  0  0
  -22.6270   -4.4740   21.4940 F   0  0  0  0  0  0  0  0  0  0  0  0
  -21.1000   -4.2770   26.0150 F   0  0  0  0  0  0  0  0  0  0  0  0
  -23.0680  -13.7600   21.0090 C   0  0  0  0  0  0  0  0  0  0  0  0
  -22.3440  -13.0730   21.8870 N   0  0  0  0  0  0  0  0  0  0  0  0
  -22.6280  -14.7860   20.4890 O   0  0  0  0  0  0  0  0  0  0  0  0
  -22.7140  -12.2460   22.3350 H   0  0  0  0  0  0  0  0  0  0  0  0
  -21.4100  -13.3800   22.1160 H   0  0  0  0  0  0  0  0  0  0  0  0
  -25.7080  -15.4070   20.1640 N   0  0  0  0  0  0  0  0  0  0  0  0
  -24.9560  -16.0760   20.2860 H   0  0  0  0  0  0  0  0  0  0  0  0
  -26.5670  -15.8340   19.8400 H   0  0  0  0  0  0  0  0  0  0  0  0
  -30.1410  -26.4250   21.5280 C   0  0  0  0  0  2  0  0  0  0  0  0
  -29.7190  -27.2030   20.2660 C   0  0  0  0  0  2  0  0  0  0  0  0
  -28.4300  -26.7740   19.8370 O   0  0  0  0  0  0  0  0  0  0  0  0
  -24.5770  -31.8430   23.1930 C   0  0  0  0  0  0  0  0  0  0  0  0
  -27.3020  -27.5480   19.9890 C   0  0  0  0  0  0  0  0  0  0  0  0
  -23.3880  -30.4670   21.5130 C   0  0  0  0  0  3  0  0  0  0  0  0
  -24.8650  -28.9820   20.0620 C   0  0  0  0  0  0  0  0  0  0  0  0
  -25.9050  -30.8690   21.3260 C   0  0  0  0  0  2  0  0  0  0  0  0
  -26.0130  -29.5140   20.6640 C   0  0  0  0  0  0  0  0  0  0  0  0
  -27.2320  -28.8020   20.6420 C   0  0  0  0  0  3  0  0  0  0  0  0
  -26.1320  -27.0180   19.4090 C   0  0  0  0  0  3  0  0  0  0  0  0
  -24.9150  -27.7230   19.4400 C   0  0  0  0  0  3  0  0  0  0  0  0
  -23.6090  -29.8210   20.1200 C   0  0  0  0  0  2  0  0  0  0  0  0
  -24.6410  -31.0720   22.0700 N   0  0  0  0  0  0  0  0  0  0  0  0
  -23.4930  -32.0880   23.7400 O   0  0  0  0  0  0  0  0  0  0  0  0
  -22.7510  -29.4150   22.4490 C   0  0  0  0  0  0  0  0  0  0  0  0
  -21.4260  -29.2310   22.3250 N   0  0  0  0  0  0  0  0  0  0  0  0
  -23.4430  -28.7680   23.2390 O   0  0  0  0  0  0  0  0  0  0  0  0
  -20.9280  -29.8060   21.6630 H   0  0  0  0  0  0  0  0  0  0  0  0
  -18.0580  -28.0330   22.8340 C   0  0  0  0  0  0  0  0  0  0  0  0
  -20.6200  -28.2660   23.0730 C   0  0  0  0  0  3  0  0  0  0  0  0
  -20.7040  -26.8580   22.4410 C   0  0  0  0  0  2  0  0  0  0  0  0
  -19.5840  -26.5810   21.4330 C   0  0  0  0  0  2  0  0  0  0  0  0
  -18.2140  -26.7090   22.1050 C   0  0  0  0  0  2  0  0  0  0  0  0
  -19.1870  -28.7710   23.2750 C   0  0  0  0  0  0  0  0  0  0  0  0
  -18.9870  -30.0130   23.9160 C   0  0  0  0  0  3  0  0  0  0  0  0
  -17.6900  -30.5170   24.1220 C   0  0  0  0  0  3  0  0  0  0  0  0
  -16.5740  -29.7750   23.6970 C   0  0  0  0  0  3  0  0  0  0  0  0
  -16.7580  -28.5350   23.0600 C   0  0  0  0  0  3  0  0  0  0  0  0
  -25.8570  -32.4720   23.8250 C   0  0  0  0  0  3  0  0  0  0  0  0
  -25.5420  -33.8670   24.1630 N   0  0  0  0  0  0  0  0  0  0  0  0
  -25.8840  -34.9260   23.4160 C   0  0  0  0  0  0  0  0  0  0  0  0
  -26.5690  -34.8300   22.3930 O   0  0  0  0  0  0  0  0  0  0  0  0
  -24.9330  -34.0130   24.9550 H   0  0  0  0  0  0  0  0  0  0  0  0
  -24.1600  -36.7180   23.0420 C   0  0  0  0  0  1  0  0  0  0  0  0
  -25.3850  -36.3100   23.8740 C   0  0  0  0  0  3  0  0  0  0  0  0
  -27.5020  -37.1870   24.7550 C   0  0  0  0  0  1  0  0  0  0  0  0
  -26.4200  -37.3630   23.7900 N   0  0  0  0  0  0  0  0  0  0  0  0
  -26.0110  -38.2820   23.9360 H   0  0  0  0  0  0  0  0  0  0  0  0
  -26.3740  -31.6910   25.0960 C   0  0  1  0  0  0  0  0  0  0  0  0
  -25.2790  -31.4350   26.1570 C   0  0  0  0  0  1  0  0  0  0  0  0
  -26.9680  -30.3230   24.6900 C   0  0  0  0  0  1  0  0  0  0  0  0
  -27.5160  -32.4870   25.7690 C   0  0  0  0  0  1  0  0  0  0  0  0
  1  3  1  0
  2  5  1  0
  3  7  1  0
  4  1  2  0
  5 50  1  0
  5  3  2  0
  6  2  2  0
  6  4  1  0
  8  6  1  0
  9  4  1  0
 10 11  1  0
 10  9  1  0
 12 13  1  0
 12 11  1  0
 14 13  1  0
 15 20  1  0
 16 17  1  0
 16 15  1  0
 18 17  1  0
 18 25  1  0
 18 19  1  0
 20 14  1  0
 20 19  1  0
 21 14  2  0
 22 23  2  0
 23 42  1  0
 24 23  1  0
 24 27  1  0
 25 22  1  0
 25 26  1  0
 26 24  2  0
 27 28  1  0
 28 29  2  0
 30 33  1  0
 30 29  1  0
 31 30  2  0
 32 31  1  0
 32 27  2  0
 33 34  1  0
 34 39  2  0
 34 35  1  0
 35 36  2  0
 36 37  1  0
 37 41  1  0
 38 37  2  0
 39 38  1  0
 40 39  1  0
 42 43  1  0
 43 46  1  0
 43 45  1  0
 44 42  2  0
 47 48  1  0
 47 22  1  0
 49 47  1  0
 51 50  1  0
 52 54  1  0
 52 51  1  0
 53 64  2  0
 54 59  1  0
 55 63  1  0
 55 65  1  0
 56 62  1  0
 56 58  1  0
 57 63  1  0
 58 57  1  0
 59 58  2  0
 60 61  1  0
 60 54  2  0
 61 56  2  0
 62 55  1  0
 63 53  1  0
 65 67  2  0
 66 65  1  0
 68 66  1  0
 69 78  2  0
 69 74  1  0
 70 66  1  0
 70 74  1  0
 71 70  1  0
 72 73  1  0
 72 71  1  0
 73 69  1  0
 74 75  2  0
 75 76  1  0
 77 76  2  0
 78 77  1  0
 79 53  1  0
 79 80  1  0
 79 89  1  0
 80 83  1  0
 81 85  1  0
 81 80  1  0
 82 81  2  0
 85 84  1  0
 87 85  1  0
 87 88  1  0
 87 86  1  0
 89 92  1  1
 89 90  1  0
 91 89  1  0
M  ISO  4  13 100  14 100  51 101  52 101
M  END
>  <TORSDO>  (67) 
F 23

>  <SCORE>  (67) 
-12.097

>  <name>  (67) 
66

>  <ligand_id>  (67) 
66

>  <original_smiles>  (67) 
[H]c1c([H])c([H])c2c(c1[H])C([H])([H])C([H])([H])C([H])([H])C2([H])N([H])C(=O)C1([H])N(C(=O)C([H])(N([H])C(=O)C([H])(N([H])C([H])([H])[H])C([H])([H])[H])C(C([H])([H])[H])(C([H])([H])[H])C([H])([H])[H])C([H])([H])c2c([H])c(OC([H])([H])C([H])([H])c3c([H])c(Cl)c(C([H])([H])C([H])([H])C([H])([H])C([H])([H])C([H])([H])C(=O)N4C([H])([H])C([H])([H])C([H])([H])C([H])(n5nc(-c6c([H])c([H])c(Oc7c([H])c([H])c(F)c([H])c7F)c([H])c6[H])c(C(=O)N([H])[H])c5N([H])[H])C4([H])[H])c([H])c3C([H])([H])[H])c([H])c([H])c2C1([H])[H]

>  <smiles>  (67) 
[H]c1c([H])c([H])c2c(c1[H])C([H])([H])C([H])([H])C([H])([H])C2([H])N([H])C(=O)C1([H])N(C(=O)C([H])(N([H])C(=O)C([H])(N([H])C([H])([H])[H])C([H])([H])[H])C(C([H])([H])[H])(C([H])([H])[H])C([H])([H])[H])C([H])([H])c2c([H])c(OC([H])([H])C([H])([H])c3c([H])c(Cl)c(C([H])([H])C([H])([H])C([H])([H])C([H])([H])C([H])([H])C(=O)N4C([H])([H])C([H])([H])C([H])([H])C([H])(n5nc(-c6c([H])c([H])c(Oc7c([H])c([H])c(F)c([H])c7F)c([H])c6[H])c(C(=O)N([H])[H])c5N([H])[H])C4([H])[H])c([H])c3C([H])([H])[H])c([H])c([H])c2C1([H])[H]

$$$$
67:0:0
     RDKit          3D

 94102  0  0  1  0  0  0  0  0999 V2000
  -30.9460  -20.3930   22.1270 C   0  0  0  0  0  3  0  0  0  0  0  0
  -30.1300  -20.5290   20.9930 C   0  0  0  0  0  0  0  0  0  0  0  0
  -29.7920  -18.0870   21.1000 C   0  0  0  0  0  0  0  0  0  0  0  0
  -29.5050  -19.3500   20.4990 C   0  0  0  0  0  0  0  0  0  0  0  0
  -30.6520  -18.0980   22.2230 C   0  0  0  0  0  0  0  0  0  0  0  0
  -31.1940  -19.2200   22.7330 N   0  0  0  0  0  0  0  0  0  0  0  0
  -28.4360  -19.4610   19.1430 Cl  0  0  0  0  0  0  0  0  0  0  0  0
  -31.0740  -16.6260   23.0230 Cl  0  0  0  0  0  0  0  0  0  0  0  0
  -30.0930  -21.9040   20.2890 C   0  0  0  0  0  2  0  0  0  0  0  0
  -29.0710  -22.9560   20.8070 C   0  0  0  0  0  2  0  0  0  0  0  0
  -29.4410  -24.4460   20.4900 C   0  0  0  0  0  2  0  0  0  0  0  0
  -28.2100  -25.3660   20.2740 C   0  0  0  0  0  2  0  0  0  0  0  0
  -28.4530  -26.7990   20.2030 O   0  0  0  0  0  0  0  0  0  0  0  0
  -24.5990  -31.9540   23.3340 C   0  0  0  0  0  0  0  0  0  0  0  0
  -27.3090  -27.5900   20.1620 C   0  0  0  0  0  0  0  0  0  0  0  0
  -23.4320  -30.6020   21.6300 C   0  0  0  0  0  3  0  0  0  0  0  0
  -24.9180  -29.1270   20.1750 C   0  0  0  0  0  0  0  0  0  0  0  0
  -25.9650  -30.9710   21.4900 C   0  0  0  0  0  2  0  0  0  0  0  0
  -26.0690  -29.6220   20.8010 C   0  0  0  0  0  0  0  0  0  0  0  0
  -27.2700  -28.8650   20.7870 C   0  0  0  0  0  3  0  0  0  0  0  0
  -26.1350  -27.1350   19.5150 C   0  0  0  0  0  3  0  0  0  0  0  0
  -24.9500  -27.8870   19.5250 C   0  0  0  0  0  3  0  0  0  0  0  0
  -23.6680  -29.9770   20.2310 C   0  0  0  0  0  2  0  0  0  0  0  0
  -24.6830  -31.1890   22.2090 N   0  0  0  0  0  0  0  0  0  0  0  0
  -23.5060  -32.2020   23.8630 O   0  0  0  0  0  0  0  0  0  0  0  0
  -22.7710  -29.5420   22.5420 C   0  0  0  0  0  0  0  0  0  0  0  0
  -21.4580  -29.3240   22.3570 N   0  0  0  0  0  0  0  0  0  0  0  0
  -23.4380  -28.9200   23.3730 O   0  0  0  0  0  0  0  0  0  0  0  0
  -20.9800  -29.8800   21.6600 H   0  0  0  0  0  0  0  0  0  0  0  0
  -18.1020  -28.0210   22.6870 C   0  0  0  0  0  0  0  0  0  0  0  0
  -20.6380  -28.3500   23.0760 C   0  0  0  0  0  3  0  0  0  0  0  0
  -20.8090  -26.9330   22.4820 C   0  0  0  0  0  2  0  0  0  0  0  0
  -19.7610  -26.5940   21.4160 C   0  0  0  0  0  2  0  0  0  0  0  0
  -18.3490  -26.6880   22.0020 C   0  0  0  0  0  2  0  0  0  0  0  0
  -19.1790  -28.8080   23.1780 C   0  0  0  0  0  0  0  0  0  0  0  0
  -18.8960  -30.0560   23.7760 C   0  0  0  0  0  3  0  0  0  0  0  0
  -17.5710  -30.5170   23.8920 C   0  0  0  0  0  3  0  0  0  0  0  0
  -16.5100  -29.7250   23.4190 C   0  0  0  0  0  3  0  0  0  0  0  0
  -16.7770  -28.4800   22.8230 C   0  0  0  0  0  3  0  0  0  0  0  0
  -25.8680  -32.5740   23.9960 C   0  0  0  0  0  3  0  0  0  0  0  0
  -25.5540  -33.9680   24.3330 N   0  0  0  0  0  0  0  0  0  0  0  0
  -25.9220  -35.0290   23.6030 C   0  0  0  0  0  0  0  0  0  0  0  0
  -26.6330  -34.9370   22.5980 O   0  0  0  0  0  0  0  0  0  0  0  0
  -24.9280  -34.1150   25.1120 H   0  0  0  0  0  0  0  0  0  0  0  0
  -24.2340  -36.8470   23.1890 C   0  0  0  0  0  1  0  0  0  0  0  0
  -25.4230  -36.4140   24.0590 C   0  0  0  0  0  3  0  0  0  0  0  0
  -27.5130  -37.2620   25.0300 C   0  0  0  0  0  1  0  0  0  0  0  0
  -26.4710  -37.4570   24.0260 N   0  0  0  0  0  0  0  0  0  0  0  0
  -26.0660  -38.3790   24.1640 H   0  0  0  0  0  0  0  0  0  0  0  0
  -26.3500  -31.7850   25.2750 C   0  0  1  0  0  0  0  0  0  0  0  0
  -25.2240  -31.5120   26.2980 C   0  0  0  0  0  1  0  0  0  0  0  0
  -26.9660  -30.4230   24.8770 C   0  0  0  0  0  1  0  0  0  0  0  0
  -27.4660  -32.5810   25.9920 C   0  0  0  0  0  1  0  0  0  0  0  0
  -29.2080  -16.7360   20.5980 C   0  0  0  0  0  2  0  0  0  0  0  0
  -30.7810  -14.7750   20.1370 C   0  0  0  0  0  0  0  0  0  0  0  0
  -30.4830  -12.5170   19.2010 C   0  0  0  0  0  2  0  0  0  0  0  0
  -29.5390  -12.5760   17.9830 C   0  0  0  0  0  2  0  0  0  0  0  0
  -28.0690  -12.4580   18.4300 C   0  0  0  0  0  2  0  0  0  0  0  0
  -27.7140  -13.3890   19.6220 C   0  0  0  0  0  3  0  0  0  0  0  0
  -28.7840  -13.3230   20.7340 C   0  0  0  0  0  2  0  0  0  0  0  0
  -30.0810  -13.6040   20.1100 N   0  0  0  0  0  0  0  0  0  0  0  0
  -31.9910  -14.7760   19.9260 O   0  0  0  0  0  0  0  0  0  0  0  0
  -30.0850  -15.8880   19.7440 N   0  0  0  0  0  0  0  0  0  0  0  0
  -25.3340  -13.9930   20.3800 C   0  0  0  0  0  0  0  0  0  0  0  0
  -24.2710  -13.2200   20.7630 C   0  0  0  0  0  0  0  0  0  0  0  0
  -24.7300  -11.8680   20.7240 C   0  0  0  0  0  0  0  0  0  0  0  0
  -26.3740  -13.1110   20.1330 N   0  0  0  0  0  0  0  0  0  0  0  0
  -26.0180  -11.8280   20.4040 N   0  0  0  0  0  0  0  0  0  0  0  0
  -24.0040  -10.6050   20.9180 C   0  0  0  0  0  0  0  0  0  0  0  0
  -24.4100   -9.6610   21.8870 C   0  0  0  0  0  3  0  0  0  0  0  0
  -23.6830   -8.4640   22.0690 C   0  0  0  0  0  3  0  0  0  0  0  0
  -22.5370   -8.2040   21.2800 C   0  0  0  0  0  0  0  0  0  0  0  0
  -22.1530   -9.1350   20.2990 C   0  0  0  0  0  3  0  0  0  0  0  0
  -22.8800  -10.3230   20.1170 C   0  0  0  0  0  3  0  0  0  0  0  0
  -21.7860   -7.0560   21.3670 O   0  0  0  0  0  0  0  0  0  0  0  0
  -21.6550   -6.3710   22.5480 C   0  0  0  0  0  0  0  0  0  0  0  0
  -21.1010   -6.9710   23.7020 C   0  0  0  0  0  3  0  0  0  0  0  0
  -20.9220   -6.2090   24.8730 C   0  0  0  0  0  3  0  0  0  0  0  0
  -21.2860   -4.8490   24.8930 C   0  0  0  0  0  0  0  0  0  0  0  0
  -21.8320   -4.2500   23.7440 C   0  0  0  0  0  3  0  0  0  0  0  0
  -22.0130   -5.0080   22.5750 C   0  0  0  0  0  0  0  0  0  0  0  0
  -22.5200   -4.4200   21.4640 F   0  0  0  0  0  0  0  0  0  0  0  0
  -21.1080   -4.1140   26.0160 F   0  0  0  0  0  0  0  0  0  0  0  0
  -22.8770  -13.6980   21.0480 C   0  0  0  0  0  0  0  0  0  0  0  0
  -22.1550  -13.0000   21.9170 N   0  0  0  0  0  0  0  0  0  0  0  0
  -22.4360  -14.7260   20.5360 O   0  0  0  0  0  0  0  0  0  0  0  0
  -22.5250  -12.1670   22.3510 H   0  0  0  0  0  0  0  0  0  0  0  0
  -21.2200  -13.3020   22.1510 H   0  0  0  0  0  0  0  0  0  0  0  0
  -25.4970  -15.3620   20.1980 N   0  0  0  0  0  0  0  0  0  0  0  0
  -24.7260  -16.0110   20.2990 H   0  0  0  0  0  0  0  0  0  0  0  0
  -26.3270  -15.7930   19.8110 H   0  0  0  0  0  0  0  0  0  0  0  0
  -30.2610  -16.3940   18.3630 C   0  0  0  0  0  2  0  0  0  0  0  0
  -32.7730  -16.9430   17.8640 C   0  0  0  0  0  1  0  0  0  0  0  0
  -31.3560  -17.4680   18.1300 C   0  0  0  0  0  2  0  0  0  0  0  0
  1  6  1  0
  2  1  2  0
  3  5  1  0
  4  2  1  0
  4  3  2  0
  5  6  2  0
  5  8  1  0
  7  4  1  0
  9 10  1  0
  9  2  1  0
 11 10  1  0
 12 11  1  0
 13 12  1  0
 14 25  2  0
 15 13  1  0
 15 20  1  0
 16 24  1  0
 16 26  1  0
 17 23  1  0
 17 19  1  0
 18 24  1  0
 19 18  1  0
 20 19  2  0
 21 22  1  0
 21 15  2  0
 22 17  2  0
 23 16  1  0
 24 14  1  0
 26 28  2  0
 27 26  1  0
 29 27  1  0
 30 39  2  0
 30 35  1  0
 31 27  1  0
 31 35  1  0
 32 31  1  0
 33 34  1  0
 33 32  1  0
 34 30  1  0
 35 36  2  0
 36 37  1  0
 38 37  2  0
 39 38  1  0
 40 14  1  0
 40 41  1  0
 40 50  1  0
 41 44  1  0
 42 46  1  0
 42 41  1  0
 43 42  2  0
 46 45  1  0
 48 46  1  0
 48 49  1  0
 48 47  1  0
 50 53  1  1
 50 51  1  0
 52 50  1  0
 54  3  1  0
 56 61  1  0
 57 58  1  0
 57 56  1  0
 59 58  1  0
 59 67  1  0
 59 60  1  0
 61 55  1  0
 61 60  1  0
 62 55  2  0
 63 55  1  0
 63 54  1  0
 64 65  2  0
 65 84  1  0
 66 65  1  0
 66 69  1  0
 67 64  1  0
 67 68  1  0
 68 66  2  0
 69 70  1  0
 70 71  2  0
 72 75  1  0
 72 71  1  0
 73 72  2  0
 74 73  1  0
 74 69  2  0
 75 76  1  0
 76 81  2  0
 76 77  1  0
 77 78  2  0
 78 79  1  0
 79 83  1  0
 80 79  2  0
 81 80  1  0
 82 81  1  0
 84 85  1  0
 85 88  1  0
 85 87  1  0
 86 84  2  0
 89 90  1  0
 89 64  1  0
 91 89  1  0
 92 63  1  0
 93 94  1  0
 94 92  1  0
M  ISO  4  12 101  13 101  55 100  63 100
M  END
>  <TORSDO>  (68) 
F 23

>  <SCORE>  (68) 
-12.255

>  <name>  (68) 
67

>  <ligand_id>  (68) 
67

>  <original_smiles>  (68) 
[H]c1nc(Cl)c(C([H])([H])N(C(=O)N2C([H])([H])C([H])([H])C([H])([H])C([H])(n3nc(-c4c([H])c([H])c(Oc5c([H])c([H])c(F)c([H])c5F)c([H])c4[H])c(C(=O)N([H])[H])c3N([H])[H])C2([H])[H])C([H])([H])C([H])([H])C([H])([H])[H])c(Cl)c1C([H])([H])C([H])([H])C([H])([H])C([H])([H])Oc1c([H])c([H])c2c(c1[H])C([H])([H])N(C(=O)C([H])(N([H])C(=O)C([H])(N([H])C([H])([H])[H])C([H])([H])[H])C(C([H])([H])[H])(C([H])([H])[H])C([H])([H])[H])C([H])(C(=O)N([H])C1([H])c3c([H])c([H])c([H])c([H])c3C([H])([H])C([H])([H])C1([H])[H])C2([H])[H]

>  <smiles>  (68) 
[H]c1nc(Cl)c(C([H])([H])N(C(=O)N2C([H])([H])C([H])([H])C([H])([H])C([H])(n3nc(-c4c([H])c([H])c(Oc5c([H])c([H])c(F)c([H])c5F)c([H])c4[H])c(C(=O)N([H])[H])c3N([H])[H])C2([H])[H])C([H])([H])C([H])([H])C([H])([H])[H])c(Cl)c1C([H])([H])C([H])([H])C([H])([H])C([H])([H])Oc1c([H])c([H])c2c(c1[H])C([H])([H])N(C(=O)C([H])(N([H])C(=O)C([H])(N([H])C([H])([H])[H])C([H])([H])[H])C(C([H])([H])[H])(C([H])([H])[H])C([H])([H])[H])C([H])(C(=O)N([H])C1([H])c3c([H])c([H])c([H])c([H])c3C([H])([H])C([H])([H])C1([H])[H])C2([H])[H]

$$$$
68:0:0
     RDKit          3D

103111  0  0  1  0  0  0  0  0999 V2000
  -25.4520  -24.1290   21.7810 C   0  0  0  0  0  3  0  0  0  0  0  0
  -25.8020  -25.4430   22.1500 C   0  0  0  0  0  0  0  0  0  0  0  0
  -26.7940  -26.1430   21.4030 C   0  0  0  0  0  0  0  0  0  0  0  0
  -27.4160  -25.5080   20.2880 C   0  0  0  0  0  0  0  0  0  0  0  0
  -27.0190  -24.1940   19.9110 C   0  0  0  0  0  0  0  0  0  0  0  0
  -26.0420  -23.5070   20.6730 C   0  0  0  0  0  0  0  0  0  0  0  0
  -27.2090  -27.5610   21.8030 C   0  0  0  0  0  1  0  0  0  0  0  0
  -27.6520  -23.5220   18.6960 C   0  0  0  0  0  1  0  0  0  0  0  0
  -25.5370  -21.8970   20.2880 Cl  0  0  0  0  0  0  0  0  0  0  0  0
  -25.0990  -26.0560   23.3620 C   0  0  0  0  0  2  0  0  0  0  0  0
  -26.0460  -26.8320   24.1860 N   0  0  0  0  0  4  0  0  0  0  0  0
  -25.5270  -27.3890   24.8450 H   0  0  0  0  0  0  0  0  0  0  0  0
  -26.5230  -27.4600   23.5610 H   0  0  0  0  0  0  0  0  0  0  0  0
  -27.0510  -26.0510   24.9320 C   0  0  0  0  0  2  0  0  0  0  0  0
  -28.4550  -26.6870   24.7960 C   0  0  0  0  0  2  0  0  0  0  0  0
  -29.5420  -25.7320   24.2860 C   0  0  0  0  0  2  0  0  0  0  0  0
  -29.4360  -25.3790   22.7880 C   0  0  0  0  0  2  0  0  0  0  0  0
  -30.2980  -24.1620   22.4350 C   0  0  0  0  0  2  0  0  0  0  0  0
  -30.2600  -23.8260   20.9370 C   0  0  0  0  0  2  0  0  0  0  0  0
  -30.9840  -22.5100   20.6190 C   0  0  0  0  0  2  0  0  0  0  0  0
  -32.3310  -22.6790   19.9050 C   0  0  0  0  0  2  0  0  0  0  0  0
  -32.8480  -21.2970   19.4760 C   0  0  0  0  0  2  0  0  0  0  0  0
  -34.5630  -20.9020   17.7280 C   0  0  0  0  0  0  0  0  0  0  0  0
  -35.0070  -18.9820   16.2440 C   0  0  0  0  0  2  0  0  0  0  0  0
  -33.7970  -18.6480   15.3490 C   0  0  0  0  0  2  0  0  0  0  0  0
  -32.7960  -17.7270   16.0770 C   0  0  0  0  0  2  0  0  0  0  0  0
  -32.4670  -18.2150   17.5130 C   0  0  0  0  0  3  0  0  0  0  0  0
  -33.7730  -18.5450   18.2730 C   0  0  0  0  0  2  0  0  0  0  0  0
  -34.5110  -19.5590   17.5030 N   0  0  0  0  0  0  0  0  0  0  0  0
  -35.0740  -21.6910   16.9310 O   0  0  0  0  0  0  0  0  0  0  0  0
  -34.2070  -21.3480   18.9410 N   0  0  0  0  0  0  0  0  0  0  0  0
  -34.6570  -22.2260   19.1580 H   0  0  0  0  0  0  0  0  0  0  0  0
  -30.3490  -17.3700   18.7190 C   0  0  0  0  0  0  0  0  0  0  0  0
  -30.0270  -16.1490   19.2550 C   0  0  0  0  0  0  0  0  0  0  0  0
  -31.1690  -15.3170   19.0560 C   0  0  0  0  0  0  0  0  0  0  0  0
  -31.6450  -17.2440   18.2380 N   0  0  0  0  0  0  0  0  0  0  0  0
  -32.1510  -16.0100   18.4920 N   0  0  0  0  0  0  0  0  0  0  0  0
  -31.3680  -13.8860   19.3220 C   0  0  0  0  0  0  0  0  0  0  0  0
  -32.4380  -13.4270   20.1220 C   0  0  0  0  0  3  0  0  0  0  0  0
  -32.5980  -12.0480   20.3780 C   0  0  0  0  0  3  0  0  0  0  0  0
  -31.6820  -11.1140   19.8400 C   0  0  0  0  0  0  0  0  0  0  0  0
  -30.6300  -11.5760   19.0290 C   0  0  0  0  0  3  0  0  0  0  0  0
  -30.4740  -12.9470   18.7690 C   0  0  0  0  0  3  0  0  0  0  0  0
  -31.7730   -9.7540   20.0150 O   0  0  0  0  0  0  0  0  0  0  0  0
  -32.3740   -9.2120   21.1220 C   0  0  0  0  0  0  0  0  0  0  0  0
  -31.9280   -9.5050   22.4300 C   0  0  0  0  0  3  0  0  0  0  0  0
  -32.5270   -8.8700   23.5370 C   0  0  0  0  0  3  0  0  0  0  0  0
  -33.5600   -7.9340   23.3390 C   0  0  0  0  0  0  0  0  0  0  0  0
  -34.0000   -7.6360   22.0380 C   0  0  0  0  0  3  0  0  0  0  0  0
  -33.4040   -8.2700   20.9320 C   0  0  0  0  0  0  0  0  0  0  0  0
  -33.8180   -7.9640   19.6790 F   0  0  0  0  0  0  0  0  0  0  0  0
  -34.1310   -7.3180   24.4010 F   0  0  0  0  0  0  0  0  0  0  0  0
  -28.6950  -15.7520   19.8250 C   0  0  0  0  0  0  0  0  0  0  0  0
  -28.6880  -14.8530   20.8040 N   0  0  0  0  0  0  0  0  0  0  0  0
  -27.6520  -16.2720   19.4360 O   0  0  0  0  0  0  0  0  0  0  0  0
  -29.5440  -14.4460   21.1490 H   0  0  0  0  0  0  0  0  0  0  0  0
  -27.8090  -14.5760   21.2200 H   0  0  0  0  0  0  0  0  0  0  0  0
  -29.6370  -18.5570   18.5860 N   0  0  0  0  0  0  0  0  0  0  0  0
  -28.6700  -18.6250   18.8800 H   0  0  0  0  0  0  0  0  0  0  0  0
  -29.9640  -19.3810   18.0960 H   0  0  0  0  0  0  0  0  0  0  0  0
  -28.5340  -26.2180   19.5050 C   0  0  0  0  0  2  0  0  0  0  0  0
  -28.1130  -27.5190   18.7940 C   0  0  0  0  0  2  0  0  0  0  0  0
  -26.7950  -27.4100   18.2300 O   0  0  0  0  0  0  0  0  0  0  0  0
  -24.7480  -32.0330   23.2520 C   0  0  0  0  0  0  0  0  0  0  0  0
  -25.8110  -28.2210   18.7530 C   0  0  0  0  0  0  0  0  0  0  0  0
  -22.9380  -31.1540   21.8020 C   0  0  0  0  0  3  0  0  0  0  0  0
  -23.7170  -29.8490   19.7440 C   0  0  0  0  0  0  0  0  0  0  0  0
  -25.3340  -31.3390   20.9380 C   0  0  0  0  0  2  0  0  0  0  0  0
  -25.0450  -30.1380   20.0670 C   0  0  0  0  0  0  0  0  0  0  0  0
  -26.0910  -29.3340   19.5800 C   0  0  0  0  0  3  0  0  0  0  0  0
  -24.4670  -27.9490   18.4150 C   0  0  0  0  0  3  0  0  0  0  0  0
  -23.4170  -28.7520   18.9120 C   0  0  0  0  0  3  0  0  0  0  0  0
  -22.6670  -30.7760   20.3180 C   0  0  0  0  0  2  0  0  0  0  0  0
  -24.3740  -31.5110   22.0500 N   0  0  0  0  0  0  0  0  0  0  0  0
  -23.9130  -32.2620   24.1370 O   0  0  0  0  0  0  0  0  0  0  0  0
  -22.4360  -29.9990   22.6950 C   0  0  0  0  0  0  0  0  0  0  0  0
  -21.1130  -29.7740   22.6830 N   0  0  0  0  0  0  0  0  0  0  0  0
  -23.2240  -29.3140   23.3520 O   0  0  0  0  0  0  0  0  0  0  0  0
  -20.5280  -30.4250   22.1770 H   0  0  0  0  0  0  0  0  0  0  0  0
  -17.9750  -28.0190   22.9250 C   0  0  0  0  0  0  0  0  0  0  0  0
  -20.4170  -28.7070   23.4000 C   0  0  0  0  0  3  0  0  0  0  0  0
  -20.8050  -27.3110   22.8620 C   0  0  0  0  0  2  0  0  0  0  0  0
  -19.8730  -26.8260   21.7490 C   0  0  0  0  0  2  0  0  0  0  0  0
  -18.4340  -26.7280   22.2660 C   0  0  0  0  0  2  0  0  0  0  0  0
  -18.9090  -28.9580   23.4320 C   0  0  0  0  0  0  0  0  0  0  0  0
  -18.4380  -30.1660   23.9860 C   0  0  0  0  0  3  0  0  0  0  0  0
  -17.0600  -30.4380   24.0530 C   0  0  0  0  0  3  0  0  0  0  0  0
  -16.1340  -29.4960   23.5700 C   0  0  0  0  0  3  0  0  0  0  0  0
  -16.5920  -28.2910   23.0100 C   0  0  0  0  0  3  0  0  0  0  0  0
  -26.2360  -32.3870   23.5680 C   0  0  0  0  0  3  0  0  0  0  0  0
  -26.2380  -33.6350   24.3420 N   0  0  0  0  0  0  0  0  0  0  0  0
  -26.5900  -34.8310   23.8490 C   0  0  0  0  0  0  0  0  0  0  0  0
  -27.0220  -34.9840   22.7040 O   0  0  0  0  0  0  0  0  0  0  0  0
  -25.8450  -33.5910   25.2710 H   0  0  0  0  0  0  0  0  0  0  0  0
  -25.1710  -36.8370   24.3890 C   0  0  0  0  0  1  0  0  0  0  0  0
  -26.4360  -36.0530   24.7760 C   0  0  0  0  0  3  0  0  0  0  0  0
  -28.8010  -36.3640   25.3580 C   0  0  0  0  0  1  0  0  0  0  0  0
  -27.6100  -36.9560   24.7570 N   0  0  0  0  0  0  0  0  0  0  0  0
  -27.4070  -37.8230   25.2480 H   0  0  0  0  0  0  0  0  0  0  0  0
  -26.9960  -31.2430   24.3450 C   0  0  1  0  0  0  0  0  0  0  0  0
  -26.2330  -30.7160   25.5820 C   0  0  0  0  0  1  0  0  0  0  0  0
  -27.2700  -30.0370   23.4150 C   0  0  0  0  0  1  0  0  0  0  0  0
  -28.3770  -31.7600   24.8200 C   0  0  0  0  0  1  0  0  0  0  0  0
  1  2  1  0
  2 10  1  0
  3  7  1  0
  3  2  2  0
  4  3  1  0
  5  4  2  0
  5  6  1  0
  6  1  2  0
  8  5  1  0
  9  6  1  0
 10 11  1  0
 11 12  1  0
 11 14  1  0
 13 11  1  0
 15 14  1  0
 16 15  1  0
 17 16  1  0
 18 17  1  0
 19 18  1  0
 20 19  1  0
 21 20  1  0
 22 21  1  0
 23 31  1  0
 24 29  1  0
 25 26  1  0
 25 24  1  0
 27 26  1  0
 27 36  1  0
 27 28  1  0
 29 23  1  0
 29 28  1  0
 30 23  2  0
 31 32  1  0
 31 22  1  0
 33 34  2  0
 34 53  1  0
 35 34  1  0
 35 38  1  0
 36 37  1  0
 36 33  1  0
 37 35  2  0
 38 39  1  0
 39 40  2  0
 41 44  1  0
 41 40  1  0
 42 41  2  0
 43 42  1  0
 43 38  2  0
 44 45  1  0
 45 46  1  0
 46 47  2  0
 48 47  1  0
 48 52  1  0
 49 48  2  0
 50 45  2  0
 50 49  1  0
 51 50  1  0
 53 54  1  0
 54 56  1  0
 54 57  1  0
 55 53  2  0
 58 33  1  0
 58 59  1  0
 60 58  1  0
 61  4  1  0
 62 61  1  0
 63 65  1  0
 63 62  1  0
 64 75  2  0
 65 70  1  0
 66 74  1  0
 66 76  1  0
 67 69  1  0
 67 73  1  0
 68 74  1  0
 69 68  1  0
 70 69  2  0
 71 65  2  0
 71 72  1  0
 72 67  2  0
 73 66  1  0
 74 64  1  0
 76 78  2  0
 77 76  1  0
 79 77  1  0
 80 89  2  0
 80 85  1  0
 81 77  1  0
 81 85  1  0
 82 81  1  0
 83 84  1  0
 83 82  1  0
 84 80  1  0
 85 86  2  0
 86 87  1  0
 88 87  2  0
 89 88  1  0
 90 64  1  0
 90 91  1  0
 90100  1  0
 91 94  1  0
 92 91  1  0
 92 96  1  0
 93 92  2  0
 96 95  1  0
 98 96  1  0
 98 99  1  0
 98 97  1  0
100103  1  1
100101  1  0
102100  1  0
M  ISO  4  23 100  31 100  62 101  63 101
M  END
>  <TORSDO>  (69) 
F 29

>  <SCORE>  (69) 
-5.154

>  <name>  (69) 
68

>  <ligand_id>  (69) 
68

>  <original_smiles>  (69) 
[H]c1c([H])c([H])c2c(c1[H])C([H])([H])C([H])([H])C([H])([H])C2([H])N([H])C(=O)C1([H])N(C(=O)C([H])(N([H])C(=O)C([H])(N([H])C([H])([H])[H])C([H])([H])[H])C(C([H])([H])[H])(C([H])([H])[H])C([H])([H])[H])C([H])([H])c2c([H])c(OC([H])([H])C([H])([H])c3c(C([H])([H])[H])c(Cl)c([H])c(C([H])([H])[N+]([H])([H])C([H])([H])C([H])([H])C([H])([H])C([H])([H])C([H])([H])C([H])([H])C([H])([H])C([H])([H])C([H])([H])N([H])C(=O)N4C([H])([H])C([H])([H])C([H])([H])C([H])(n5nc(-c6c([H])c([H])c(Oc7c([H])c([H])c(F)c([H])c7F)c([H])c6[H])c(C(=O)N([H])[H])c5N([H])[H])C4([H])[H])c3C([H])([H])[H])c([H])c([H])c2C1([H])[H]

>  <smiles>  (69) 
[H]c1c([H])c([H])c2c(c1[H])C([H])([H])C([H])([H])C([H])([H])C2([H])N([H])C(=O)C1([H])N(C(=O)C([H])(N([H])C(=O)C([H])(N([H])C([H])([H])[H])C([H])([H])[H])C(C([H])([H])[H])(C([H])([H])[H])C([H])([H])[H])C([H])([H])c2c([H])c(OC([H])([H])C([H])([H])c3c(C([H])([H])[H])c(Cl)c([H])c(C([H])([H])[N+]([H])([H])C([H])([H])C([H])([H])C([H])([H])C([H])([H])C([H])([H])C([H])([H])C([H])([H])C([H])([H])C([H])([H])N([H])C(=O)N4C([H])([H])C([H])([H])C([H])([H])C([H])(n5nc(-c6c([H])c([H])c(Oc7c([H])c([H])c(F)c([H])c7F)c([H])c6[H])c(C(=O)N([H])[H])c5N([H])[H])C4([H])[H])c3C([H])([H])[H])c([H])c([H])c2C1([H])[H]

$$$$
69:0:0
     RDKit          3D

 98106  0  0  1  0  0  0  0  0999 V2000
  -31.0770  -18.8050   22.3300 C   0  0  0  0  0  3  0  0  0  0  0  0
  -31.9620  -19.8630   20.5080 C   0  0  0  0  0  0  0  0  0  0  0  0
  -32.0280  -19.6800   21.9240 C   0  0  0  0  0  0  0  0  0  0  0  0
  -30.8690  -19.1210   20.0930 C   0  0  0  0  0  0  0  0  0  0  0  0
  -30.3680  -18.4190   21.2120 N   0  0  0  0  0  0  0  0  0  0  0  0
  -33.1570  -20.3740   23.0310 Cl  0  0  0  0  0  0  0  0  0  0  0  0
  -33.8580  -21.6670   20.2610 C   0  0  0  0  0  1  0  0  0  0  0  0
  -32.8860  -20.6710   19.5960 C   0  0  0  0  0  2  0  0  0  0  0  0
  -31.0960  -18.1700   17.7220 C   0  0  0  0  0  1  0  0  0  0  0  0
  -30.2520  -18.9920   18.7070 C   0  0  0  0  0  3  0  0  0  0  0  0
  -29.7930  -20.3350   18.1090 C   0  0  0  0  0  2  0  0  0  0  0  0
  -28.3750  -20.6950   18.5960 C   0  0  0  0  0  2  0  0  0  0  0  0
  -27.9250  -22.1290   18.2810 C   0  0  0  0  0  2  0  0  0  0  0  0
  -26.4040  -22.2950   18.4730 C   0  0  0  0  0  2  0  0  0  0  0  0
  -25.9370  -23.7530   18.6650 C   0  0  0  0  0  2  0  0  0  0  0  0
  -26.3990  -24.7490   17.5650 C   0  0  0  0  0  2  0  0  0  0  0  0
  -26.8680  -25.9800   18.1260 O   0  0  0  0  0  0  0  0  0  0  0  0
  -25.5460  -30.0050   23.8260 C   0  0  0  0  0  0  0  0  0  0  0  0
  -25.9910  -26.8730   18.7070 C   0  0  0  0  0  0  0  0  0  0  0  0
  -23.7150  -29.8590   22.1740 C   0  0  0  0  0  3  0  0  0  0  0  0
  -24.3150  -28.7920   19.9390 C   0  0  0  0  0  0  0  0  0  0  0  0
  -26.1510  -29.5810   21.4450 C   0  0  0  0  0  2  0  0  0  0  0  0
  -25.6510  -28.6730   20.3390 C   0  0  0  0  0  0  0  0  0  0  0  0
  -26.4910  -27.7250   19.7180 C   0  0  0  0  0  3  0  0  0  0  0  0
  -24.6320  -26.9930   18.3280 C   0  0  0  0  0  3  0  0  0  0  0  0
  -23.8000  -27.9530   18.9330 C   0  0  0  0  0  3  0  0  0  0  0  0
  -23.4840  -29.8420   20.6380 C   0  0  0  0  0  2  0  0  0  0  0  0
  -25.1680  -29.7970   22.5330 N   0  0  0  0  0  0  0  0  0  0  0  0
  -24.7160  -30.2870   24.7010 O   0  0  0  0  0  0  0  0  0  0  0  0
  -22.8740  -28.7300   22.8100 C   0  0  0  0  0  0  0  0  0  0  0  0
  -21.5500  -28.7760   22.5930 N   0  0  0  0  0  0  0  0  0  0  0  0
  -23.4130  -27.8260   23.4550 O   0  0  0  0  0  0  0  0  0  0  0  0
  -21.1850  -29.5580   22.0670 H   0  0  0  0  0  0  0  0  0  0  0  0
  -18.0970  -27.7620   22.2870 C   0  0  0  0  0  0  0  0  0  0  0  0
  -20.5630  -27.8040   23.0600 C   0  0  0  0  0  3  0  0  0  0  0  0
  -20.7110  -26.4560   22.3150 C   0  0  0  0  0  2  0  0  0  0  0  0
  -19.8110  -26.3440   21.0810 C   0  0  0  0  0  2  0  0  0  0  0  0
  -18.3400  -26.5010   21.4740 C   0  0  0  0  0  2  0  0  0  0  0  0
  -19.1440  -28.3840   23.0170 C   0  0  0  0  0  0  0  0  0  0  0  0
  -18.8720  -29.5760   23.7230 C   0  0  0  0  0  3  0  0  0  0  0  0
  -17.5830  -30.1430   23.7100 C   0  0  0  0  0  3  0  0  0  0  0  0
  -16.5460  -29.5100   23.0030 C   0  0  0  0  0  3  0  0  0  0  0  0
  -16.8020  -28.3210   22.2960 C   0  0  0  0  0  3  0  0  0  0  0  0
  -27.0430  -29.9220   24.2700 C   0  0  0  0  0  3  0  0  0  0  0  0
  -27.3270  -31.1010   25.0970 N   0  0  0  0  0  0  0  0  0  0  0  0
  -27.9930  -32.1840   24.6750 C   0  0  0  0  0  0  0  0  0  0  0  0
  -28.4970  -32.2630   23.5510 O   0  0  0  0  0  0  0  0  0  0  0  0
  -26.9050  -31.1240   26.0140 H   0  0  0  0  0  0  0  0  0  0  0  0
  -27.0810  -34.4430   25.2840 C   0  0  0  0  0  1  0  0  0  0  0  0
  -28.1150  -33.3670   25.6530 C   0  0  0  0  0  3  0  0  0  0  0  0
  -30.4670  -33.0830   26.2940 C   0  0  0  0  0  1  0  0  0  0  0  0
  -29.4680  -33.9610   25.6930 N   0  0  0  0  0  0  0  0  0  0  0  0
  -29.4640  -34.8360   26.2080 H   0  0  0  0  0  0  0  0  0  0  0  0
  -27.3890  -28.5950   25.0500 C   0  0  1  0  0  0  0  0  0  0  0  0
  -26.4280  -28.2890   26.2240 C   0  0  0  0  0  1  0  0  0  0  0  0
  -27.3630  -27.3850   24.0890 C   0  0  0  0  0  1  0  0  0  0  0  0
  -28.8230  -28.6840   25.6220 C   0  0  0  0  0  1  0  0  0  0  0  0
  -29.2820  -17.4400   21.3170 C   0  0  0  0  0  2  0  0  0  0  0  0
  -29.8040  -15.9930   21.5320 C   0  0  0  0  0  2  0  0  0  0  0  0
  -29.1350  -15.2760   19.1680 C   0  0  0  0  0  1  0  0  0  0  0  0
  -31.4890  -15.8560   19.5790 C   0  0  0  0  0  1  0  0  0  0  0  0
  -30.2300  -15.2080   20.2590 C   0  0  1  0  0  0  0  0  0  0  0  0
  -30.6660  -13.7500   20.6330 C   0  0  0  0  0  0  0  0  0  0  0  0
  -30.2680  -11.4700   19.8800 C   0  0  0  0  0  2  0  0  0  0  0  0
  -29.4420  -11.4860   18.5810 C   0  0  0  0  0  2  0  0  0  0  0  0
  -27.9530  -11.3820   18.9420 C   0  0  0  0  0  2  0  0  0  0  0  0
  -27.5100  -12.3900   20.0270 C   0  0  0  0  0  3  0  0  0  0  0  0
  -28.5150  -12.5040   21.1950 C   0  0  0  0  0  2  0  0  0  0  0  0
  -29.8620  -12.6560   20.6430 N   0  0  0  0  0  0  0  0  0  0  0  0
  -31.8790  -13.5810   20.6540 O   0  0  0  0  0  0  0  0  0  0  0  0
  -25.1160  -13.0190   20.7000 C   0  0  0  0  0  0  0  0  0  0  0  0
  -24.0310  -12.2590   21.0530 C   0  0  0  0  0  0  0  0  0  0  0  0
  -24.4900  -10.9100   21.0590 C   0  0  0  0  0  0  0  0  0  0  0  0
  -26.1580  -12.1260   20.5000 N   0  0  0  0  0  0  0  0  0  0  0  0
  -25.7880  -10.8560   20.7980 N   0  0  0  0  0  0  0  0  0  0  0  0
  -23.7540   -9.6510   21.2400 C   0  0  0  0  0  0  0  0  0  0  0  0
  -24.1270   -8.7230   22.2370 C   0  0  0  0  0  3  0  0  0  0  0  0
  -23.3970   -7.5270   22.4030 C   0  0  0  0  0  3  0  0  0  0  0  0
  -22.2800   -7.2590   21.5770 C   0  0  0  0  0  0  0  0  0  0  0  0
  -21.9300   -8.1780   20.5730 C   0  0  0  0  0  3  0  0  0  0  0  0
  -22.6600   -9.3650   20.4000 C   0  0  0  0  0  3  0  0  0  0  0  0
  -21.5240   -6.1170   21.6540 O   0  0  0  0  0  0  0  0  0  0  0  0
  -21.3680   -5.4350   22.8350 C   0  0  0  0  0  0  0  0  0  0  0  0
  -20.7430   -6.0180   23.9600 C   0  0  0  0  0  3  0  0  0  0  0  0
  -20.5370   -5.2560   25.1250 C   0  0  0  0  0  3  0  0  0  0  0  0
  -20.9610   -3.9130   25.1730 C   0  0  0  0  0  0  0  0  0  0  0  0
  -21.5810   -3.3290   24.0530 C   0  0  0  0  0  3  0  0  0  0  0  0
  -21.7810   -4.0880   22.8890 C   0  0  0  0  0  0  0  0  0  0  0  0
  -22.3600   -3.5140   21.8060 F   0  0  0  0  0  0  0  0  0  0  0  0
  -20.7610   -3.1760   26.2910 F   0  0  0  0  0  0  0  0  0  0  0  0
  -22.6310  -12.7540   21.2550 C   0  0  0  0  0  0  0  0  0  0  0  0
  -21.8590  -12.0700   22.0920 N   0  0  0  0  0  0  0  0  0  0  0  0
  -22.2250  -13.7760   20.7050 O   0  0  0  0  0  0  0  0  0  0  0  0
  -22.1980  -11.2300   22.5390 H   0  0  0  0  0  0  0  0  0  0  0  0
  -20.9210  -12.3960   22.2800 H   0  0  0  0  0  0  0  0  0  0  0  0
  -25.2960  -14.3790   20.5020 N   0  0  0  0  0  0  0  0  0  0  0  0
  -24.5680  -15.0550   20.6980 H   0  0  0  0  0  0  0  0  0  0  0  0
  -26.1250  -14.7840   20.0880 H   0  0  0  0  0  0  0  0  0  0  0  0
  2  3  1  0
  3  1  2  0
  3  6  1  0
  4  2  2  0
  4  5  1  0
  5 58  1  0
  5  1  1  0
  8  7  1  0
  8  2  1  0
 10  9  1  0
 10  4  1  0
 11 12  1  0
 11 10  1  0
 13 14  1  0
 13 12  1  0
 14 15  1  0
 16 17  1  0
 16 15  1  0
 17 19  1  0
 18 29  2  0
 19 24  1  0
 20 28  1  0
 20 30  1  0
 21 23  1  0
 21 27  1  0
 22 28  1  0
 23 22  1  0
 24 23  2  0
 25 19  2  0
 25 26  1  0
 26 21  2  0
 27 20  1  0
 28 18  1  0
 30 32  2  0
 31 30  1  0
 33 31  1  0
 34 43  2  0
 34 39  1  0
 35 31  1  0
 36 35  1  0
 37 38  1  0
 37 36  1  0
 38 34  1  0
 39 35  1  0
 39 40  2  0
 41 40  1  0
 42 41  2  0
 43 42  1  0
 44 18  1  0
 44 54  1  0
 44 45  1  0
 45 48  1  0
 46 45  1  0
 46 50  1  0
 47 46  2  0
 50 49  1  0
 50 52  1  0
 52 53  1  0
 52 51  1  0
 54 57  1  1
 54 55  1  0
 56 54  1  0
 58 59  1  0
 62 60  1  6
 61 62  1  0
 62 63  1  0
 62 59  1  0
 63 69  1  0
 63 70  2  0
 64 69  1  0
 65 66  1  0
 65 64  1  0
 67 66  1  0
 67 74  1  0
 67 68  1  0
 69 68  1  0
 71 72  2  0
 72 73  1  0
 72 91  1  0
 73 76  1  0
 74 71  1  0
 74 75  1  0
 75 73  2  0
 76 77  1  0
 77 78  2  0
 79 82  1  0
 79 78  1  0
 80 79  2  0
 81 80  1  0
 81 76  2  0
 82 83  1  0
 83 88  2  0
 83 84  1  0
 84 85  2  0
 85 86  1  0
 86 90  1  0
 87 86  2  0
 88 87  1  0
 89 88  1  0
 91 92  1  0
 92 95  1  0
 92 94  1  0
 93 91  2  0
 96 97  1  0
 96 71  1  0
 98 96  1  0
M  ISO  4  16 101  17 101  62 100  63 100
M  END
>  <TORSDO>  (70) 
F 27

>  <SCORE>  (70) 
-8.507

>  <name>  (70) 
69

>  <ligand_id>  (70) 
69

>  <original_smiles>  (70) 
[H]c1c([H])c([H])c2c(c1[H])C([H])([H])C([H])([H])C([H])([H])C2([H])N([H])C(=O)C1([H])N(C(=O)C([H])(N([H])C(=O)C([H])(N([H])C([H])([H])[H])C([H])([H])[H])C(C([H])([H])[H])(C([H])([H])[H])C([H])([H])[H])C([H])([H])c2c([H])c(OC([H])([H])C([H])([H])C([H])([H])C([H])([H])C([H])([H])C([H])([H])C([H])(c3c(C([H])([H])C([H])([H])[H])c(Cl)c([H])n3C([H])([H])C([H])([H])C(C(=O)N3C([H])([H])C([H])([H])C([H])([H])C([H])(n4nc(-c5c([H])c([H])c(Oc6c([H])c([H])c(F)c([H])c6F)c([H])c5[H])c(C(=O)N([H])[H])c4N([H])[H])C3([H])[H])(C([H])([H])[H])C([H])([H])[H])C([H])([H])[H])c([H])c([H])c2C1([H])[H]

>  <smiles>  (70) 
[H]c1c([H])c([H])c2c(c1[H])C([H])([H])C([H])([H])C([H])([H])C2([H])N([H])C(=O)C1([H])N(C(=O)C([H])(N([H])C(=O)C([H])(N([H])C([H])([H])[H])C([H])([H])[H])C(C([H])([H])[H])(C([H])([H])[H])C([H])([H])[H])C([H])([H])c2c([H])c(OC([H])([H])C([H])([H])C([H])([H])C([H])([H])C([H])([H])C([H])([H])C([H])(c3c(C([H])([H])C([H])([H])[H])c(Cl)c([H])n3C([H])([H])C([H])([H])C(C(=O)N3C([H])([H])C([H])([H])C([H])([H])C([H])(n4nc(-c5c([H])c([H])c(Oc6c([H])c([H])c(F)c([H])c6F)c([H])c5[H])c(C(=O)N([H])[H])c4N([H])[H])C3([H])[H])(C([H])([H])[H])C([H])([H])[H])C([H])([H])[H])c([H])c([H])c2C1([H])[H]

$$$$
70:0:0
     RDKit          3D

 94102  0  0  1  0  0  0  0  0999 V2000
  -30.7380  -21.0510   21.8600 C   0  0  0  0  0  2  0  0  0  0  0  0
  -29.4380  -18.9630   21.2840 C   0  0  0  0  0  3  0  0  0  0  0  0
  -31.7160  -17.3360   21.3150 C   0  0  0  0  0  3  0  0  0  0  0  0
  -30.6920  -19.5560   21.5280 C   0  0  0  0  0  0  0  0  0  0  0  0
  -29.3060  -17.5760   21.0720 C   0  0  0  0  0  0  0  0  0  0  0  0
  -31.8440  -18.7310   21.5280 C   0  0  0  0  0  0  0  0  0  0  0  0
  -30.4500  -16.7370   21.0900 C   0  0  0  0  0  0  0  0  0  0  0  0
  -27.9090  -17.0350   20.8160 C   0  0  0  0  0  1  0  0  0  0  0  0
  -33.2240  -19.3100   21.7810 C   0  0  0  0  0  1  0  0  0  0  0  0
  -30.8500  -14.4440   20.0820 C   0  0  0  0  0  0  0  0  0  0  0  0
  -30.4370  -12.3840   18.7810 C   0  0  0  0  0  2  0  0  0  0  0  0
  -29.4380  -12.6910   17.6450 C   0  0  0  0  0  2  0  0  0  0  0  0
  -27.9830  -12.5690   18.1420 C   0  0  0  0  0  2  0  0  0  0  0  0
  -27.7380  -13.3240   19.4750 C   0  0  0  0  0  3  0  0  0  0  0  0
  -28.8360  -12.9780   20.5040 C   0  0  0  0  0  2  0  0  0  0  0  0
  -30.1460  -13.2930   19.8990 N   0  0  0  0  0  0  0  0  0  0  0  0
  -31.9140  -14.6670   19.4960 O   0  0  0  0  0  0  0  0  0  0  0  0
  -30.2530  -15.3320   20.8990 N   0  0  0  0  0  0  0  0  0  0  0  0
  -29.4130  -14.9650   21.3180 H   0  0  0  0  0  0  0  0  0  0  0  0
  -25.3700  -13.9530   20.2710 C   0  0  0  0  0  0  0  0  0  0  0  0
  -24.3090  -13.1920   20.6810 C   0  0  0  0  0  0  0  0  0  0  0  0
  -24.7530  -11.8360   20.6200 C   0  0  0  0  0  0  0  0  0  0  0  0
  -26.3970  -13.0630   19.9980 N   0  0  0  0  0  0  0  0  0  0  0  0
  -26.0300  -11.7830   20.2610 N   0  0  0  0  0  0  0  0  0  0  0  0
  -24.0190  -10.5800   20.8290 C   0  0  0  0  0  0  0  0  0  0  0  0
  -24.4350   -9.6360   21.7920 C   0  0  0  0  0  3  0  0  0  0  0  0
  -23.7050   -8.4440   21.9880 C   0  0  0  0  0  3  0  0  0  0  0  0
  -22.5430   -8.1900   21.2200 C   0  0  0  0  0  0  0  0  0  0  0  0
  -22.1470   -9.1240   20.2470 C   0  0  0  0  0  3  0  0  0  0  0  0
  -22.8770  -10.3070   20.0500 C   0  0  0  0  0  3  0  0  0  0  0  0
  -21.7860   -7.0480   21.3230 O   0  0  0  0  0  0  0  0  0  0  0  0
  -21.6440   -6.3850   22.5150 C   0  0  0  0  0  0  0  0  0  0  0  0
  -21.1300   -7.0220   23.6660 C   0  0  0  0  0  3  0  0  0  0  0  0
  -20.9350   -6.2830   24.8510 C   0  0  0  0  0  3  0  0  0  0  0  0
  -21.2430   -4.9100   24.8850 C   0  0  0  0  0  0  0  0  0  0  0  0
  -21.7500   -4.2730   23.7380 C   0  0  0  0  0  3  0  0  0  0  0  0
  -21.9470   -5.0090   22.5560 C   0  0  0  0  0  0  0  0  0  0  0  0
  -22.4160   -4.3860   21.4480 F   0  0  0  0  0  0  0  0  0  0  0  0
  -21.0490   -4.1990   26.0200 F   0  0  0  0  0  0  0  0  0  0  0  0
  -22.9300  -13.6830   21.0120 C   0  0  0  0  0  0  0  0  0  0  0  0
  -22.2440  -13.0080   21.9280 N   0  0  0  0  0  0  0  0  0  0  0  0
  -22.4710  -14.7000   20.4950 O   0  0  0  0  0  0  0  0  0  0  0  0
  -22.6310  -12.1860   22.3680 H   0  0  0  0  0  0  0  0  0  0  0  0
  -21.3200  -13.3180   22.1930 H   0  0  0  0  0  0  0  0  0  0  0  0
  -25.5370  -15.3210   20.0860 N   0  0  0  0  0  0  0  0  0  0  0  0
  -24.7740  -15.9760   20.2150 H   0  0  0  0  0  0  0  0  0  0  0  0
  -26.3610  -15.7450   19.6810 H   0  0  0  0  0  0  0  0  0  0  0  0
  -30.2330  -21.9920   20.7420 C   0  0  0  0  0  2  0  0  0  0  0  0
  -30.0910  -23.4550   21.2330 C   0  0  0  0  0  3  0  0  0  0  0  0
  -29.4150  -24.4250   20.2280 C   0  0  0  0  0  3  0  0  0  0  0  0
  -28.2670  -25.8950   21.9840 C   0  0  0  0  0  1  0  0  0  0  0  0
  -30.4910  -26.6090   21.0260 C   0  0  0  0  0  1  0  0  0  0  0  0
  -29.1690  -25.8820   20.7250 C   0  0  1  0  0  0  0  0  0  0  0  0
  -28.6240  -26.5830   19.5890 O   0  0  0  0  0  0  0  0  0  0  0  0
  -24.6920  -31.5170   22.9510 C   0  0  0  0  0  0  0  0  0  0  0  0
  -27.4430  -27.2810   19.7000 C   0  0  0  0  0  0  0  0  0  0  0  0
  -23.5130  -30.1410   21.2660 C   0  0  0  0  0  3  0  0  0  0  0  0
  -25.0000  -28.6940   19.7820 C   0  0  0  0  0  0  0  0  0  0  0  0
  -26.0230  -30.5850   21.0640 C   0  0  0  0  0  2  0  0  0  0  0  0
  -26.1440  -29.2380   20.3800 C   0  0  0  0  0  0  0  0  0  0  0  0
  -27.3700  -28.5410   20.3370 C   0  0  0  0  0  3  0  0  0  0  0  0
  -26.2880  -26.7480   19.0960 C   0  0  0  0  0  3  0  0  0  0  0  0
  -25.0640  -27.4460   19.1370 C   0  0  0  0  0  3  0  0  0  0  0  0
  -23.7320  -29.5160   19.8620 C   0  0  0  0  0  2  0  0  0  0  0  0
  -24.7610  -30.7610   21.8190 N   0  0  0  0  0  0  0  0  0  0  0  0
  -23.6080  -31.7400   23.5080 O   0  0  0  0  0  0  0  0  0  0  0  0
  -22.8980  -29.0680   22.1940 C   0  0  0  0  0  0  0  0  0  0  0  0
  -21.5720  -28.8840   22.0990 N   0  0  0  0  0  0  0  0  0  0  0  0
  -23.6110  -28.4080   22.9530 O   0  0  0  0  0  0  0  0  0  0  0  0
  -21.0570  -29.4720   21.4570 H   0  0  0  0  0  0  0  0  0  0  0  0
  -18.2150  -27.6770   22.6700 C   0  0  0  0  0  0  0  0  0  0  0  0
  -20.7840  -27.9030   22.8440 C   0  0  0  0  0  3  0  0  0  0  0  0
  -20.8480  -26.5110   22.1740 C   0  0  0  0  0  2  0  0  0  0  0  0
  -19.7010  -26.2580   21.1920 C   0  0  0  0  0  2  0  0  0  0  0  0
  -18.3510  -26.3710   21.9060 C   0  0  0  0  0  2  0  0  0  0  0  0
  -19.3570  -28.4040   23.0960 C   0  0  0  0  0  0  0  0  0  0  0  0
  -19.1760  -29.6290   23.7730 C   0  0  0  0  0  3  0  0  0  0  0  0
  -17.8840  -30.1260   24.0280 C   0  0  0  0  0  3  0  0  0  0  0  0
  -16.7560  -29.3940   23.6180 C   0  0  0  0  0  3  0  0  0  0  0  0
  -16.9230  -28.1710   22.9440 C   0  0  0  0  0  3  0  0  0  0  0  0
  -25.9650  -32.1610   23.5840 C   0  0  0  0  0  3  0  0  0  0  0  0
  -25.6110  -33.5240   24.0020 N   0  0  0  0  0  0  0  0  0  0  0  0
  -25.9080  -34.6310   23.3090 C   0  0  0  0  0  0  0  0  0  0  0  0
  -26.5790  -34.6130   22.2720 O   0  0  0  0  0  0  0  0  0  0  0  0
  -25.0080  -33.6100   24.8070 H   0  0  0  0  0  0  0  0  0  0  0  0
  -24.1170  -36.3810   23.0690 C   0  0  0  0  0  1  0  0  0  0  0  0
  -25.3750  -35.9710   23.8510 C   0  0  0  0  0  3  0  0  0  0  0  0
  -27.4810  -36.8780   24.7280 C   0  0  0  0  0  1  0  0  0  0  0  0
  -26.3700  -37.0630   23.7990 N   0  0  0  0  0  0  0  0  0  0  0  0
  -25.9330  -37.9580   24.0050 H   0  0  0  0  0  0  0  0  0  0  0  0
  -26.5410  -31.3370   24.8000 C   0  0  1  0  0  0  0  0  0  0  0  0
  -25.4820  -30.9880   25.8730 C   0  0  0  0  0  1  0  0  0  0  0  0
  -27.1730  -30.0120   24.3090 C   0  0  0  0  0  1  0  0  0  0  0  0
  -27.6690  -32.1390   25.4900 C   0  0  0  0  0  1  0  0  0  0  0  0
  2  4  1  0
  3  6  1  0
  4  1  1  0
  5  7  1  0
  5  2  2  0
  6  4  2  0
  6  9  1  0
  7  3  2  0
  8  5  1  0
 10 18  1  0
 11 16  1  0
 12 13  1  0
 12 11  1  0
 14 13  1  0
 14 23  1  0
 14 15  1  0
 16 10  1  0
 16 15  1  0
 17 10  2  0
 18  7  1  0
 18 19  1  0
 20 21  2  0
 21 40  1  0
 22 21  1  0
 22 25  1  0
 23 24  1  0
 23 20  1  0
 24 22  2  0
 25 26  1  0
 26 27  2  0
 28 31  1  0
 28 27  1  0
 29 28  2  0
 30 29  1  0
 30 25  2  0
 31 32  1  0
 32 37  2  0
 32 33  1  0
 33 34  2  0
 34 35  1  0
 35 39  1  0
 36 35  2  0
 37 36  1  0
 38 37  1  0
 40 41  1  0
 41 44  1  0
 41 43  1  0
 42 40  2  0
 45 46  1  0
 45 20  1  0
 47 45  1  0
 48 49  1  0
 48  1  1  0
 50 53  1  0
 50 49  2  0
 53 52  1  1
 53 51  1  0
 54 56  1  0
 54 53  1  0
 55 66  2  0
 56 61  1  0
 57 65  1  0
 57 67  1  0
 58 64  1  0
 58 60  1  0
 59 65  1  0
 60 59  1  0
 61 60  2  0
 62 63  1  0
 62 56  2  0
 63 58  2  0
 64 57  1  0
 65 55  1  0
 67 69  2  0
 68 67  1  0
 70 68  1  0
 71 80  2  0
 71 76  1  0
 72 68  1  0
 72 76  1  0
 73 72  1  0
 74 75  1  0
 74 73  1  0
 75 71  1  0
 76 77  2  0
 77 78  1  0
 79 78  2  0
 80 79  1  0
 81 55  1  0
 81 82  1  0
 81 91  1  0
 82 85  1  0
 83 87  1  0
 83 82  1  0
 84 83  2  0
 87 86  1  0
 89 87  1  0
 89 90  1  0
 89 88  1  0
 91 94  1  1
 91 92  1  0
 93 91  1  0
M  ISO  4  10 100  18 100  53 101  54 101
M  END
>  <TORSDO>  (71) 
F 21

>  <SCORE>  (71) 
-11.908

>  <name>  (71) 
70

>  <ligand_id>  (71) 
70

>  <original_smiles>  (71) 
[H]c1c([H])c([H])c2c(c1[H])C([H])([H])C([H])([H])C([H])([H])C2([H])N([H])C(=O)C1([H])N(C(=O)C([H])(N([H])C(=O)C([H])(N([H])C([H])([H])[H])C([H])([H])[H])C(C([H])([H])[H])(C([H])([H])[H])C([H])([H])[H])C([H])([H])c2c([H])c(OC(C([H])([H])[H])(C([H])([H])[H])C([H])([H])C([H])([H])C([H])([H])C([H])([H])c3c([H])c(C([H])([H])[H])c(N([H])C(=O)N4C([H])([H])C([H])([H])C([H])([H])C([H])(n5nc(-c6c([H])c([H])c(Oc7c([H])c([H])c(F)c([H])c7F)c([H])c6[H])c(C(=O)N([H])[H])c5N([H])[H])C4([H])[H])c([H])c3C([H])([H])[H])c([H])c([H])c2C1([H])[H]

>  <smiles>  (71) 
[H]c1c([H])c([H])c2c(c1[H])C([H])([H])C([H])([H])C([H])([H])C2([H])N([H])C(=O)C1([H])N(C(=O)C([H])(N([H])C(=O)C([H])(N([H])C([H])([H])[H])C([H])([H])[H])C(C([H])([H])[H])(C([H])([H])[H])C([H])([H])[H])C([H])([H])c2c([H])c(OC(C([H])([H])[H])(C([H])([H])[H])C([H])([H])C([H])([H])C([H])([H])C([H])([H])c3c([H])c(C([H])([H])[H])c(N([H])C(=O)N4C([H])([H])C([H])([H])C([H])([H])C([H])(n5nc(-c6c([H])c([H])c(Oc7c([H])c([H])c(F)c([H])c7F)c([H])c6[H])c(C(=O)N([H])[H])c5N([H])[H])C4([H])[H])c([H])c3C([H])([H])[H])c([H])c([H])c2C1([H])[H]

$$$$
71:0:0
     RDKit          3D

 91100  0  0  1  0  0  0  0  0999 V2000
  -29.1250  -22.2500   19.0320 C   0  0  0  0  0  2  0  0  0  0  0  0
  -28.3750  -22.1500   21.3910 C   0  0  0  0  0  2  0  0  0  0  0  0
  -29.3000  -23.8340   19.3820 C   0  0  0  0  0  2  0  0  0  0  0  0
  -27.7770  -23.6760   21.2750 C   0  0  0  0  0  2  0  0  0  0  0  0
  -28.5420  -21.2240   20.1060 C   0  0  0  0  0  3  0  0  0  0  0  0
  -28.0990  -24.6430   20.0400 C   0  0  0  0  0  3  0  0  0  0  0  0
  -28.9750  -17.1570   19.3620 C   0  0  0  0  0  3  0  0  0  0  0  0
  -30.0020  -19.0520   21.0920 C   0  0  0  0  0  3  0  0  0  0  0  0
  -29.9060  -16.5860   20.3010 C   0  0  0  0  0  0  0  0  0  0  0  0
  -29.0600  -19.6220   20.1660 C   0  0  0  0  0  0  0  0  0  0  0  0
  -30.4170  -17.6480   21.1410 C   0  0  0  0  0  0  0  0  0  0  0  0
  -28.5850  -18.5670   19.2910 C   0  0  0  0  0  0  0  0  0  0  0  0
  -31.3780  -17.3360   22.0430 F   0  0  0  0  0  0  0  0  0  0  0  0
  -27.4940  -18.9940   18.0220 Cl  0  0  0  0  0  0  0  0  0  0  0  0
  -30.5480  -15.0960   20.2170 C   0  0  0  0  0  0  0  0  0  0  0  0
  -30.3860  -12.7170   19.3450 C   0  0  0  0  0  2  0  0  0  0  0  0
  -29.4470  -12.6210   18.1220 C   0  0  0  0  0  2  0  0  0  0  0  0
  -27.9940  -12.3990   18.5770 C   0  0  0  0  0  2  0  0  0  0  0  0
  -27.5830  -13.3490   19.7330 C   0  0  0  0  0  3  0  0  0  0  0  0
  -28.6520  -13.4450   20.8390 C   0  0  0  0  0  2  0  0  0  0  0  0
  -29.9100  -13.8490   20.1990 N   0  0  0  0  0  0  0  0  0  0  0  0
  -31.7590  -15.0550   19.9700 O   0  0  0  0  0  0  0  0  0  0  0  0
  -25.2210  -13.9030   20.5350 C   0  0  0  0  0  0  0  0  0  0  0  0
  -24.1650  -13.1200   20.9090 C   0  0  0  0  0  0  0  0  0  0  0  0
  -24.6320  -11.7700   20.8510 C   0  0  0  0  0  0  0  0  0  0  0  0
  -26.2620  -13.0330   20.2620 N   0  0  0  0  0  0  0  0  0  0  0  0
  -25.9190  -11.7430   20.5200 N   0  0  0  0  0  0  0  0  0  0  0  0
  -23.9100  -10.5040   21.0340 C   0  0  0  0  0  0  0  0  0  0  0  0
  -24.3390   -9.5350   21.9680 C   0  0  0  0  0  3  0  0  0  0  0  0
  -23.6140   -8.3350   22.1400 C   0  0  0  0  0  3  0  0  0  0  0  0
  -22.4470   -8.0950   21.3770 C   0  0  0  0  0  0  0  0  0  0  0  0
  -22.0370   -9.0520   20.4330 C   0  0  0  0  0  3  0  0  0  0  0  0
  -22.7610  -10.2440   20.2580 C   0  0  0  0  0  3  0  0  0  0  0  0
  -21.6940   -6.9480   21.4580 O   0  0  0  0  0  0  0  0  0  0  0  0
  -21.6180   -6.2160   22.6160 C   0  0  0  0  0  0  0  0  0  0  0  0
  -21.1080   -6.7660   23.8120 C   0  0  0  0  0  3  0  0  0  0  0  0
  -20.9830   -5.9590   24.9610 C   0  0  0  0  0  3  0  0  0  0  0  0
  -21.3580   -4.6030   24.9130 C   0  0  0  0  0  0  0  0  0  0  0  0
  -21.8610   -4.0520   23.7210 C   0  0  0  0  0  3  0  0  0  0  0  0
  -21.9870   -4.8560   22.5760 C   0  0  0  0  0  0  0  0  0  0  0  0
  -22.4520   -4.3160   21.4230 F   0  0  0  0  0  0  0  0  0  0  0  0
  -21.2320   -3.8250   26.0140 F   0  0  0  0  0  0  0  0  0  0  0  0
  -22.7710  -13.5900   21.2060 C   0  0  0  0  0  0  0  0  0  0  0  0
  -22.0580  -12.8820   22.0740 N   0  0  0  0  0  0  0  0  0  0  0  0
  -22.3240  -14.6210   20.7010 O   0  0  0  0  0  0  0  0  0  0  0  0
  -22.4340  -12.0500   22.5020 H   0  0  0  0  0  0  0  0  0  0  0  0
  -21.1210  -13.1760   22.3140 H   0  0  0  0  0  0  0  0  0  0  0  0
  -25.3810  -15.2770   20.3800 N   0  0  0  0  0  0  0  0  0  0  0  0
  -24.6170  -15.9280   20.5220 H   0  0  0  0  0  0  0  0  0  0  0  0
  -26.2350  -15.7270   20.0740 H   0  0  0  0  0  0  0  0  0  0  0  0
  -28.2340  -26.2030   20.2550 O   0  0  0  0  0  0  0  0  0  0  0  0
  -24.6140  -31.9210   23.2540 C   0  0  0  0  0  0  0  0  0  0  0  0
  -27.1680  -27.1850   20.2050 C   0  0  0  0  0  0  0  0  0  0  0  0
  -23.4110  -30.5400   21.6030 C   0  0  0  0  0  3  0  0  0  0  0  0
  -24.8550  -28.9610   20.1760 C   0  0  0  0  0  0  0  0  0  0  0  0
  -25.9680  -30.7870   21.4490 C   0  0  0  0  0  2  0  0  0  0  0  0
  -26.0360  -29.3960   20.7880 C   0  0  0  0  0  0  0  0  0  0  0  0
  -27.1940  -28.5250   20.7820 C   0  0  0  0  0  3  0  0  0  0  0  0
  -25.9560  -26.8610   19.5580 C   0  0  0  0  0  3  0  0  0  0  0  0
  -24.8280  -27.7080   19.5470 C   0  0  0  0  0  3  0  0  0  0  0  0
  -23.6330  -29.8640   20.2240 C   0  0  0  0  0  2  0  0  0  0  0  0
  -24.6840  -31.1050   22.1570 N   0  0  0  0  0  0  0  0  0  0  0  0
  -23.5280  -32.2090   23.7800 O   0  0  0  0  0  0  0  0  0  0  0  0
  -22.7220  -29.5350   22.5610 C   0  0  0  0  0  0  0  0  0  0  0  0
  -21.3950  -29.3680   22.4270 N   0  0  0  0  0  0  0  0  0  0  0  0
  -23.3860  -28.9030   23.3880 O   0  0  0  0  0  0  0  0  0  0  0  0
  -20.9140  -29.9240   21.7340 H   0  0  0  0  0  0  0  0  0  0  0  0
  -18.0040  -28.1900   22.9300 C   0  0  0  0  0  0  0  0  0  0  0  0
  -20.5660  -28.4320   23.1930 C   0  0  0  0  0  3  0  0  0  0  0  0
  -20.6550  -27.0030   22.6080 C   0  0  0  0  0  2  0  0  0  0  0  0
  -19.5490  -26.6980   21.5940 C   0  0  0  0  0  2  0  0  0  0  0  0
  -18.1690  -26.8460   22.2400 C   0  0  0  0  0  2  0  0  0  0  0  0
  -19.1290  -28.9410   23.3630 C   0  0  0  0  0  0  0  0  0  0  0  0
  -18.9190  -30.1990   23.9700 C   0  0  0  0  0  3  0  0  0  0  0  0
  -17.6170  -30.7060   24.1460 C   0  0  0  0  0  3  0  0  0  0  0  0
  -16.5080  -29.9510   23.7270 C   0  0  0  0  0  3  0  0  0  0  0  0
  -16.7020  -28.6950   23.1250 C   0  0  0  0  0  3  0  0  0  0  0  0
  -25.8920  -32.5480   23.8890 C   0  0  0  0  0  3  0  0  0  0  0  0
  -25.5920  -33.9490   24.2270 N   0  0  0  0  0  0  0  0  0  0  0  0
  -25.8910  -35.0010   23.4570 C   0  0  0  0  0  0  0  0  0  0  0  0
  -26.5210  -34.8980   22.4010 O   0  0  0  0  0  0  0  0  0  0  0  0
  -25.0440  -34.1040   25.0600 H   0  0  0  0  0  0  0  0  0  0  0  0
  -24.1350  -36.7800   23.1790 C   0  0  0  0  0  1  0  0  0  0  0  0
  -25.4180  -36.3900   23.9300 C   0  0  0  0  0  3  0  0  0  0  0  0
  -27.5800  -37.3020   24.6540 C   0  0  0  0  0  1  0  0  0  0  0  0
  -26.4370  -37.4500   23.7580 N   0  0  0  0  0  0  0  0  0  0  0  0
  -26.0290  -38.3680   23.9160 H   0  0  0  0  0  0  0  0  0  0  0  0
  -26.3930  -31.7720   25.1700 C   0  0  1  0  0  0  0  0  0  0  0  0
  -25.2910  -31.5400   26.2290 C   0  0  0  0  0  1  0  0  0  0  0  0
  -26.9710  -30.3910   24.7870 C   0  0  0  0  0  1  0  0  0  0  0  0
  -27.5420  -32.5610   25.8420 C   0  0  0  0  0  1  0  0  0  0  0  0
  1  3  1  0
  1  5  1  0
  3  6  1  0
  4  2  1  0
  5 10  1  0
  5  2  1  0
  6 51  1  0
  6  4  1  0
  7  9  1  0
  8 11  1  0
  9 11  2  0
 10  8  2  0
 11 13  1  0
 12  7  2  0
 12 10  1  0
 14 12  1  0
 15  9  1  0
 16 21  1  0
 17 18  1  0
 17 16  1  0
 19 18  1  0
 19 26  1  0
 19 20  1  0
 21 15  1  0
 21 20  1  0
 22 15  2  0
 23 24  2  0
 24 43  1  0
 25 24  1  0
 25 28  1  0
 26 27  1  0
 26 23  1  0
 27 25  2  0
 28 29  1  0
 29 30  2  0
 31 34  1  0
 31 30  1  0
 32 31  2  0
 33 32  1  0
 33 28  2  0
 34 35  1  0
 35 36  1  0
 36 37  2  0
 38 37  1  0
 38 42  1  0
 39 38  2  0
 40 35  2  0
 40 39  1  0
 41 40  1  0
 43 44  1  0
 44 47  1  0
 44 46  1  0
 45 43  2  0
 48 49  1  0
 48 23  1  0
 50 48  1  0
 52 63  2  0
 53 51  1  0
 53 58  1  0
 54 62  1  0
 54 64  1  0
 55 61  1  0
 55 57  1  0
 56 62  1  0
 57 56  1  0
 58 57  2  0
 59 53  2  0
 60 59  1  0
 60 55  2  0
 61 54  1  0
 62 52  1  0
 64 66  2  0
 65 64  1  0
 67 65  1  0
 68 77  2  0
 68 73  1  0
 69 65  1  0
 69 73  1  0
 70 69  1  0
 71 72  1  0
 71 70  1  0
 72 68  1  0
 73 74  2  0
 74 75  1  0
 76 75  2  0
 77 76  1  0
 78 52  1  0
 78 79  1  0
 78 88  1  0
 79 82  1  0
 80 84  1  0
 80 79  1  0
 81 80  2  0
 84 83  1  0
 86 87  1  0
 86 84  1  0
 86 85  1  0
 88 91  1  1
 88 89  1  0
 90 88  1  0
M  ISO  4   6 101   9 100  15 100  51 101
M  END
>  <TORSDO>  (72) 
F 17

>  <SCORE>  (72) 
-15.452

>  <name>  (72) 
71

>  <ligand_id>  (72) 
71

>  <original_smiles>  (72) 
[H]c1c([H])c([H])c2c(c1[H])C([H])([H])C([H])([H])C([H])([H])C2([H])N([H])C(=O)C1([H])N(C(=O)C([H])(N([H])C(=O)C([H])(N([H])C([H])([H])[H])C([H])([H])[H])C(C([H])([H])[H])(C([H])([H])[H])C([H])([H])[H])C([H])([H])c2c([H])c(OC3([H])C([H])([H])C([H])([H])C([H])(c4c([H])c(F)c(C(=O)N5C([H])([H])C([H])([H])C([H])([H])C([H])(n6nc(-c7c([H])c([H])c(Oc8c([H])c([H])c(F)c([H])c8F)c([H])c7[H])c(C(=O)N([H])[H])c6N([H])[H])C5([H])[H])c([H])c4Cl)C([H])([H])C3([H])[H])c([H])c([H])c2C1([H])[H]

>  <smiles>  (72) 
[H]c1c([H])c([H])c2c(c1[H])C([H])([H])C([H])([H])C([H])([H])C2([H])N([H])C(=O)C1([H])N(C(=O)C([H])(N([H])C(=O)C([H])(N([H])C([H])([H])[H])C([H])([H])[H])C(C([H])([H])[H])(C([H])([H])[H])C([H])([H])[H])C([H])([H])c2c([H])c(OC3([H])C([H])([H])C([H])([H])C([H])(c4c([H])c(F)c(C(=O)N5C([H])([H])C([H])([H])C([H])([H])C([H])(n6nc(-c7c([H])c([H])c(Oc8c([H])c([H])c(F)c([H])c8F)c([H])c7[H])c(C(=O)N([H])[H])c6N([H])[H])C5([H])[H])c([H])c4Cl)C([H])([H])C3([H])[H])c([H])c([H])c2C1([H])[H]

$$$$
72:0:0
     RDKit          3D

 93101  0  0  1  0  0  0  0  0999 V2000
  -28.5240  -20.5250   20.9020 C   0  0  0  0  0  3  0  0  0  0  0  0
  -29.9530  -22.2010   19.1650 C   0  0  0  0  0  3  0  0  0  0  0  0
  -28.2460  -21.9090   20.8770 C   0  0  0  0  0  0  0  0  0  0  0  0
  -29.5000  -19.9620   20.0560 C   0  0  0  0  0  0  0  0  0  0  0  0
  -28.9660  -22.7680   20.0050 C   0  0  0  0  0  0  0  0  0  0  0  0
  -30.2150  -20.8130   19.1800 C   0  0  0  0  0  0  0  0  0  0  0  0
  -27.1550  -22.4420   21.7910 C   0  0  0  0  0  1  0  0  0  0  0  0
  -31.4100  -20.1820   18.1020 Cl  0  0  0  0  0  0  0  0  0  0  0  0
  -29.7180  -18.4490   20.0830 C   0  0  0  0  0  2  0  0  0  0  0  0
  -31.1230  -18.0130   20.5550 C   0  0  0  0  0  2  0  0  0  0  0  0
  -31.1540  -16.8540   21.5760 C   0  0  0  0  0  2  0  0  0  0  0  0
  -31.0530  -14.7400   20.2230 C   0  0  0  0  0  0  0  0  0  0  0  0
  -30.6780  -12.6070   19.0360 C   0  0  0  0  0  2  0  0  0  0  0  0
  -29.6850  -12.7870   17.8710 C   0  0  0  0  0  2  0  0  0  0  0  0
  -28.2310  -12.6530   18.3620 C   0  0  0  0  0  2  0  0  0  0  0  0
  -27.9440  -13.5180   19.6180 C   0  0  0  0  0  3  0  0  0  0  0  0
  -29.0350  -13.2970   20.6880 C   0  0  0  0  0  2  0  0  0  0  0  0
  -30.3440  -13.5900   20.0760 N   0  0  0  0  0  0  0  0  0  0  0  0
  -32.0870  -14.9850   19.5970 O   0  0  0  0  0  0  0  0  0  0  0  0
  -30.5410  -15.6100   21.1060 N   0  0  0  0  0  0  0  0  0  0  0  0
  -29.6880  -15.3210   21.5620 H   0  0  0  0  0  0  0  0  0  0  0  0
  -25.5970  -14.1580   20.4650 C   0  0  0  0  0  0  0  0  0  0  0  0
  -24.5280  -13.3980   20.8550 C   0  0  0  0  0  0  0  0  0  0  0  0
  -24.9500  -12.0370   20.7480 C   0  0  0  0  0  0  0  0  0  0  0  0
  -26.6070  -13.2610   20.1480 N   0  0  0  0  0  0  0  0  0  0  0  0
  -26.2210  -11.9780   20.3730 N   0  0  0  0  0  0  0  0  0  0  0  0
  -24.2010  -10.7860   20.9220 C   0  0  0  0  0  0  0  0  0  0  0  0
  -24.6060   -9.8080   21.8580 C   0  0  0  0  0  3  0  0  0  0  0  0
  -23.8590   -8.6220   22.0210 C   0  0  0  0  0  3  0  0  0  0  0  0
  -22.6940   -8.4040   21.2470 C   0  0  0  0  0  0  0  0  0  0  0  0
  -22.3090   -9.3700   20.3020 C   0  0  0  0  0  3  0  0  0  0  0  0
  -23.0560  -10.5490   20.1370 C   0  0  0  0  0  3  0  0  0  0  0  0
  -21.9220   -7.2710   21.3190 O   0  0  0  0  0  0  0  0  0  0  0  0
  -21.7890   -6.5620   22.4870 C   0  0  0  0  0  0  0  0  0  0  0  0
  -21.2630   -7.1490   23.6590 C   0  0  0  0  0  3  0  0  0  0  0  0
  -21.0800   -6.3660   24.8160 C   0  0  0  0  0  3  0  0  0  0  0  0
  -21.4120   -4.9980   24.8030 C   0  0  0  0  0  0  0  0  0  0  0  0
  -21.9300   -4.4110   23.6350 C   0  0  0  0  0  3  0  0  0  0  0  0
  -22.1150   -5.1910   22.4790 C   0  0  0  0  0  0  0  0  0  0  0  0
  -22.5950   -4.6160   21.3510 F   0  0  0  0  0  0  0  0  0  0  0  0
  -21.2290   -4.2450   25.9110 F   0  0  0  0  0  0  0  0  0  0  0  0
  -23.1580  -13.8960   21.2160 C   0  0  0  0  0  0  0  0  0  0  0  0
  -22.4570  -13.1840   22.0920 N   0  0  0  0  0  0  0  0  0  0  0  0
  -22.7210  -14.9530   20.7600 O   0  0  0  0  0  0  0  0  0  0  0  0
  -22.8230  -12.3290   22.4820 H   0  0  0  0  0  0  0  0  0  0  0  0
  -21.5400  -13.4990   22.3730 H   0  0  0  0  0  0  0  0  0  0  0  0
  -25.7910  -15.5300   20.3340 N   0  0  0  0  0  0  0  0  0  0  0  0
  -25.0510  -16.2010   20.5070 H   0  0  0  0  0  0  0  0  0  0  0  0
  -26.6400  -15.9560   19.9830 H   0  0  0  0  0  0  0  0  0  0  0  0
  -28.6360  -24.2670   19.9700 C   0  0  0  0  0  2  0  0  0  0  0  0
  -29.6700  -25.2360   19.3510 C   0  0  0  0  0  2  0  0  0  0  0  0
  -29.3360  -25.7700   17.9430 C   0  0  0  0  0  2  0  0  0  0  0  0
  -29.0180  -27.1690   17.9960 O   0  0  0  0  0  0  0  0  0  0  0  0
  -24.8140  -30.6110   22.5960 C   0  0  0  0  0  0  0  0  0  0  0  0
  -27.7300  -27.5700   18.2940 C   0  0  0  0  0  0  0  0  0  0  0  0
  -23.6500  -29.4010   20.7810 C   0  0  0  0  0  3  0  0  0  0  0  0
  -25.1340  -28.5290   18.9020 C   0  0  0  0  0  0  0  0  0  0  0  0
  -26.0290  -30.2790   20.4460 C   0  0  0  0  0  2  0  0  0  0  0  0
  -26.2560  -29.1280   19.4870 C   0  0  0  0  0  0  0  0  0  0  0  0
  -27.5520  -28.6570   19.1800 C   0  0  0  0  0  3  0  0  0  0  0  0
  -26.5830  -26.9770   17.7130 C   0  0  0  0  0  3  0  0  0  0  0  0
  -25.2920  -27.4510   18.0160 C   0  0  0  0  0  3  0  0  0  0  0  0
  -23.7810  -29.0970   19.2660 C   0  0  0  0  0  2  0  0  0  0  0  0
  -24.8540  -30.1020   21.3330 N   0  0  0  0  0  0  0  0  0  0  0  0
  -23.7850  -30.5410   23.2830 O   0  0  0  0  0  0  0  0  0  0  0  0
  -23.3170  -28.0840   21.5190 C   0  0  0  0  0  0  0  0  0  0  0  0
  -22.0560  -27.6370   21.4050 N   0  0  0  0  0  0  0  0  0  0  0  0
  -24.1860  -27.4760   22.1520 O   0  0  0  0  0  0  0  0  0  0  0  0
  -21.4040  -28.1980   20.8740 H   0  0  0  0  0  0  0  0  0  0  0  0
  -19.0810  -25.6070   21.6990 C   0  0  0  0  0  0  0  0  0  0  0  0
  -21.5240  -26.4020   21.9800 C   0  0  0  0  0  3  0  0  0  0  0  0
  -21.9150  -25.1760   21.1230 C   0  0  0  0  0  2  0  0  0  0  0  0
  -20.8540  -24.8050   20.0820 C   0  0  0  0  0  2  0  0  0  0  0  0
  -19.5180  -24.4930   20.7620 C   0  0  0  0  0  2  0  0  0  0  0  0
  -20.0210  -26.5130   22.2580 C   0  0  0  0  0  0  0  0  0  0  0  0
  -19.5580  -27.5510   23.0950 C   0  0  0  0  0  3  0  0  0  0  0  0
  -18.1870  -27.6910   23.3760 C   0  0  0  0  0  3  0  0  0  0  0  0
  -17.2620  -26.7820   22.8340 C   0  0  0  0  0  3  0  0  0  0  0  0
  -17.7100  -25.7410   22.0010 C   0  0  0  0  0  3  0  0  0  0  0  0
  -26.0480  -31.3260   23.2300 C   0  0  0  0  0  3  0  0  0  0  0  0
  -25.5670  -32.5670   23.8510 N   0  0  0  0  0  0  0  0  0  0  0  0
  -25.6840  -33.7840   23.3050 C   0  0  0  0  0  0  0  0  0  0  0  0
  -26.2790  -33.9880   22.2420 O   0  0  0  0  0  0  0  0  0  0  0  0
  -25.0200  -32.4690   24.6940 H   0  0  0  0  0  0  0  0  0  0  0  0
  -23.6940  -35.3180   23.4000 C   0  0  0  0  0  1  0  0  0  0  0  0
  -25.0370  -34.9640   24.0560 C   0  0  0  0  0  3  0  0  0  0  0  0
  -27.0750  -35.9960   24.9570 C   0  0  0  0  0  1  0  0  0  0  0  0
  -25.8970  -36.1670   24.1110 N   0  0  0  0  0  0  0  0  0  0  0  0
  -25.3740  -36.9680   24.4550 H   0  0  0  0  0  0  0  0  0  0  0  0
  -26.8120  -30.4330   24.2830 C   0  0  1  0  0  0  0  0  0  0  0  0
  -25.8900  -29.8240   25.3660 C   0  0  0  0  0  1  0  0  0  0  0  0
  -27.5480  -29.2680   23.5790 C   0  0  0  0  0  1  0  0  0  0  0  0
  -27.8960  -31.2750   24.9970 C   0  0  0  0  0  1  0  0  0  0  0  0
  2  6  2  0
  2  5  1  0
  3  1  1  0
  3  7  1  0
  4  9  1  0
  4  1  2  0
  5  3  2  0
  6  4  1  0
  8  6  1  0
  9 10  1  0
 10 11  1  0
 12 20  1  0
 13 18  1  0
 14 15  1  0
 14 13  1  0
 16 15  1  0
 16 25  1  0
 16 17  1  0
 18 12  1  0
 18 17  1  0
 19 12  2  0
 20 21  1  0
 20 11  1  0
 22 23  2  0
 23 42  1  0
 24 23  1  0
 24 27  1  0
 25 26  1  0
 25 22  1  0
 26 24  2  0
 27 28  1  0
 28 29  2  0
 30 33  1  0
 30 29  1  0
 31 30  2  0
 32 31  1  0
 32 27  2  0
 33 34  1  0
 34 35  1  0
 35 36  2  0
 37 36  1  0
 37 41  1  0
 38 37  2  0
 39 34  2  0
 39 38  1  0
 40 39  1  0
 42 43  1  0
 43 46  1  0
 43 45  1  0
 44 42  2  0
 47 22  1  0
 47 48  1  0
 49 47  1  0
 50  5  1  0
 51 50  1  0
 52 53  1  0
 52 51  1  0
 53 55  1  0
 54 65  2  0
 55 60  1  0
 56 64  1  0
 56 66  1  0
 57 63  1  0
 57 59  1  0
 58 64  1  0
 59 58  1  0
 60 59  2  0
 61 62  1  0
 61 55  2  0
 62 57  2  0
 63 56  1  0
 64 54  1  0
 66 68  2  0
 67 66  1  0
 69 67  1  0
 70 79  2  0
 70 75  1  0
 71 67  1  0
 71 75  1  0
 72 71  1  0
 73 74  1  0
 73 72  1  0
 74 70  1  0
 75 76  2  0
 76 77  1  0
 78 77  2  0
 79 78  1  0
 80 54  1  0
 80 81  1  0
 80 90  1  0
 81 84  1  0
 82 81  1  0
 82 86  1  0
 83 82  2  0
 86 85  1  0
 86 88  1  0
 88 89  1  0
 88 87  1  0
 90 93  1  1
 90 91  1  0
 92 90  1  0
M  ISO  4  12 100  20 100  52 101  53 101
M  END
>  <TORSDO>  (73) 
F 22

>  <SCORE>  (73) 
-8.900

>  <name>  (73) 
72

>  <ligand_id>  (73) 
72

>  <original_smiles>  (73) 
[H]c1c([H])c([H])c2c(c1[H])C([H])([H])C([H])([H])C([H])([H])C2([H])N([H])C(=O)C1([H])N(C(=O)C([H])(N([H])C(=O)C([H])(N([H])C([H])([H])[H])C([H])([H])[H])C(C([H])([H])[H])(C([H])([H])[H])C([H])([H])[H])C([H])([H])c2c([H])c(OC([H])([H])C([H])([H])C([H])([H])c3c([H])c(Cl)c(C([H])([H])C([H])([H])C([H])([H])N([H])C(=O)N4C([H])([H])C([H])([H])C([H])([H])C([H])(n5nc(-c6c([H])c([H])c(Oc7c([H])c([H])c(F)c([H])c7F)c([H])c6[H])c(C(=O)N([H])[H])c5N([H])[H])C4([H])[H])c([H])c3C([H])([H])[H])c([H])c([H])c2C1([H])[H]

>  <smiles>  (73) 
[H]c1c([H])c([H])c2c(c1[H])C([H])([H])C([H])([H])C([H])([H])C2([H])N([H])C(=O)C1([H])N(C(=O)C([H])(N([H])C(=O)C([H])(N([H])C([H])([H])[H])C([H])([H])[H])C(C([H])([H])[H])(C([H])([H])[H])C([H])([H])[H])C([H])([H])c2c([H])c(OC([H])([H])C([H])([H])C([H])([H])c3c([H])c(Cl)c(C([H])([H])C([H])([H])C([H])([H])N([H])C(=O)N4C([H])([H])C([H])([H])C([H])([H])C([H])(n5nc(-c6c([H])c([H])c(Oc7c([H])c([H])c(F)c([H])c7F)c([H])c6[H])c(C(=O)N([H])[H])c5N([H])[H])C4([H])[H])c([H])c3C([H])([H])[H])c([H])c([H])c2C1([H])[H]

$$$$
73:0:0
     RDKit          3D

 94102  0  0  1  0  0  0  0  0999 V2000
  -29.1710  -19.7980   19.9080 C   0  0  0  0  0  3  0  0  0  0  0  0
  -30.1070  -21.2520   21.6040 C   0  0  0  0  0  3  0  0  0  0  0  0
  -29.2900  -21.1260   20.4630 C   0  0  0  0  0  0  0  0  0  0  0  0
  -29.8230  -18.6290   20.4610 C   0  0  0  0  0  0  0  0  0  0  0  0
  -30.7710  -20.1370   22.1750 C   0  0  0  0  0  0  0  0  0  0  0  0
  -30.6220  -18.8360   21.6150 C   0  0  0  0  0  0  0  0  0  0  0  0
  -31.4730  -17.5000   22.3190 Cl  0  0  0  0  0  0  0  0  0  0  0  0
  -31.6870  -20.3520   23.3810 C   0  0  1  0  0  0  0  0  0  0  0  0
  -31.7170  -21.6290   23.7640 F   0  0  0  0  0  0  0  0  0  0  0  0
  -31.2740  -19.6300   24.4240 F   0  0  0  0  0  0  0  0  0  0  0  0
  -32.9380  -19.9990   23.0800 F   0  0  0  0  0  0  0  0  0  0  0  0
  -28.5580  -22.3940   19.8530 C   0  0  0  0  0  2  0  0  0  0  0  0
  -28.8590  -23.8990   20.3530 C   0  0  0  0  0  3  0  0  0  0  0  0
  -27.8940  -25.0650   19.8170 C   0  0  0  0  0  3  0  0  0  0  0  0
  -28.1230  -26.5150   20.1050 O   0  0  0  0  0  0  0  0  0  0  0  0
  -24.5150  -31.9610   23.2250 C   0  0  0  0  0  0  0  0  0  0  0  0
  -27.0200  -27.3970   20.0650 C   0  0  0  0  0  0  0  0  0  0  0  0
  -23.2650  -30.5900   21.6000 C   0  0  0  0  0  3  0  0  0  0  0  0
  -24.6700  -29.0460   20.1250 C   0  0  0  0  0  0  0  0  0  0  0  0
  -25.8070  -30.8840   21.3670 C   0  0  0  0  0  2  0  0  0  0  0  0
  -25.8590  -29.5130   20.7000 C   0  0  0  0  0  0  0  0  0  0  0  0
  -27.0360  -28.7010   20.6600 C   0  0  0  0  0  3  0  0  0  0  0  0
  -25.8070  -26.9980   19.4570 C   0  0  0  0  0  3  0  0  0  0  0  0
  -24.6460  -27.7940   19.4960 C   0  0  0  0  0  3  0  0  0  0  0  0
  -23.4440  -29.9320   20.2090 C   0  0  0  0  0  2  0  0  0  0  0  0
  -24.5490  -31.1620   22.1190 N   0  0  0  0  0  0  0  0  0  0  0  0
  -23.4460  -32.2430   23.7840 O   0  0  0  0  0  0  0  0  0  0  0  0
  -22.6160  -29.5660   22.5640 C   0  0  0  0  0  0  0  0  0  0  0  0
  -21.2910  -29.3760   22.4430 N   0  0  0  0  0  0  0  0  0  0  0  0
  -23.3040  -28.9470   23.3810 O   0  0  0  0  0  0  0  0  0  0  0  0
  -20.7940  -29.9330   21.7630 H   0  0  0  0  0  0  0  0  0  0  0  0
  -17.9290  -28.1380   22.9480 C   0  0  0  0  0  0  0  0  0  0  0  0
  -20.4830  -28.4330   23.2190 C   0  0  0  0  0  3  0  0  0  0  0  0
  -20.6040  -26.9980   22.6570 C   0  0  0  0  0  2  0  0  0  0  0  0
  -19.5090  -26.6520   21.6430 C   0  0  0  0  0  2  0  0  0  0  0  0
  -18.1240  -26.7850   22.2840 C   0  0  0  0  0  2  0  0  0  0  0  0
  -19.0360  -28.9170   23.3730 C   0  0  0  0  0  0  0  0  0  0  0  0
  -18.8000  -30.1830   23.9550 C   0  0  0  0  0  3  0  0  0  0  0  0
  -17.4880  -30.6670   24.1150 C   0  0  0  0  0  3  0  0  0  0  0  0
  -16.3950  -29.8840   23.7050 C   0  0  0  0  0  3  0  0  0  0  0  0
  -16.6150  -28.6200   23.1290 C   0  0  0  0  0  3  0  0  0  0  0  0
  -25.8160  -32.5790   23.8250 C   0  0  0  0  0  3  0  0  0  0  0  0
  -25.5260  -33.9780   24.1640 N   0  0  0  0  0  0  0  0  0  0  0  0
  -25.8620  -35.0320   23.4070 C   0  0  0  0  0  0  0  0  0  0  0  0
  -26.5160  -34.9260   22.3670 O   0  0  0  0  0  0  0  0  0  0  0  0
  -24.9420  -34.1350   24.9720 H   0  0  0  0  0  0  0  0  0  0  0  0
  -24.1580  -36.8540   23.0830 C   0  0  0  0  0  1  0  0  0  0  0  0
  -25.3990  -36.4230   23.8810 C   0  0  0  0  0  3  0  0  0  0  0  0
  -27.5480  -37.2760   24.7100 C   0  0  0  0  0  1  0  0  0  0  0  0
  -26.4450  -37.4610   23.7690 N   0  0  0  0  0  0  0  0  0  0  0  0
  -26.0530  -38.3860   23.9190 H   0  0  0  0  0  0  0  0  0  0  0  0
  -26.3480  -31.7980   25.0900 C   0  0  1  0  0  0  0  0  0  0  0  0
  -25.2740  -31.5710   26.1780 C   0  0  0  0  0  1  0  0  0  0  0  0
  -26.9120  -30.4160   24.6870 C   0  0  0  0  0  1  0  0  0  0  0  0
  -27.5180  -32.5820   25.7310 C   0  0  0  0  0  1  0  0  0  0  0  0
  -29.8200  -17.2350   19.7030 C   0  0  0  0  0  2  0  0  0  0  0  0
  -30.4870  -14.7620   20.0840 C   0  0  0  0  0  0  0  0  0  0  0  0
  -30.2120  -12.5360   19.0240 C   0  0  0  0  0  2  0  0  0  0  0  0
  -29.2110  -12.6890   17.8570 C   0  0  0  0  0  2  0  0  0  0  0  0
  -27.7660  -12.5060   18.3580 C   0  0  0  0  0  2  0  0  0  0  0  0
  -27.4660  -13.3330   19.6380 C   0  0  0  0  0  3  0  0  0  0  0  0
  -28.5860  -13.1880   20.6930 C   0  0  0  0  0  2  0  0  0  0  0  0
  -29.8570  -13.5420   20.0470 N   0  0  0  0  0  0  0  0  0  0  0  0
  -31.6280  -14.8890   19.6370 O   0  0  0  0  0  0  0  0  0  0  0  0
  -29.7210  -15.8710   20.3690 N   0  0  0  0  0  0  0  0  0  0  0  0
  -28.8230  -15.6640   20.7770 H   0  0  0  0  0  0  0  0  0  0  0  0
  -25.1050  -13.8720   20.4950 C   0  0  0  0  0  0  0  0  0  0  0  0
  -24.0730  -13.0730   20.9030 C   0  0  0  0  0  0  0  0  0  0  0  0
  -24.5550  -11.7300   20.8200 C   0  0  0  0  0  0  0  0  0  0  0  0
  -26.1510  -13.0160   20.1880 N   0  0  0  0  0  0  0  0  0  0  0  0
  -25.8280  -11.7210   20.4450 N   0  0  0  0  0  0  0  0  0  0  0  0
  -23.8590  -10.4520   21.0200 C   0  0  0  0  0  0  0  0  0  0  0  0
  -24.3340   -9.4860   21.9350 C   0  0  0  0  0  3  0  0  0  0  0  0
  -23.6350   -8.2740   22.1250 C   0  0  0  0  0  3  0  0  0  0  0  0
  -22.4480   -8.0180   21.3980 C   0  0  0  0  0  0  0  0  0  0  0  0
  -21.9920   -8.9730   20.4710 C   0  0  0  0  0  3  0  0  0  0  0  0
  -22.6910  -10.1760   20.2800 C   0  0  0  0  0  3  0  0  0  0  0  0
  -21.7190   -6.8580   21.4970 O   0  0  0  0  0  0  0  0  0  0  0  0
  -21.6980   -6.1160   22.6510 C   0  0  0  0  0  0  0  0  0  0  0  0
  -21.2420   -6.6550   23.8740 C   0  0  0  0  0  3  0  0  0  0  0  0
  -21.1710   -5.8380   25.0210 C   0  0  0  0  0  3  0  0  0  0  0  0
  -21.5490   -4.4840   24.9450 C   0  0  0  0  0  0  0  0  0  0  0  0
  -22.0020   -3.9460   23.7270 C   0  0  0  0  0  3  0  0  0  0  0  0
  -22.0720   -4.7590   22.5840 C   0  0  0  0  0  0  0  0  0  0  0  0
  -22.4870   -4.2300   21.4070 F   0  0  0  0  0  0  0  0  0  0  0  0
  -21.4730   -3.6970   26.0430 F   0  0  0  0  0  0  0  0  0  0  0  0
  -22.6830  -13.5200   21.2540 C   0  0  0  0  0  0  0  0  0  0  0  0
  -22.0100  -12.7950   22.1400 N   0  0  0  0  0  0  0  0  0  0  0  0
  -22.2050  -14.5490   20.7770 O   0  0  0  0  0  0  0  0  0  0  0  0
  -22.4090  -11.9630   22.5480 H   0  0  0  0  0  0  0  0  0  0  0  0
  -21.0780  -13.0750   22.4150 H   0  0  0  0  0  0  0  0  0  0  0  0
  -25.2330  -15.2480   20.3360 N   0  0  0  0  0  0  0  0  0  0  0  0
  -24.4540  -15.8780   20.4960 H   0  0  0  0  0  0  0  0  0  0  0  0
  -26.0420  -15.7110   19.9400 H   0  0  0  0  0  0  0  0  0  0  0  0
  1  4  2  0
  1  3  1  0
  2  5  1  0
  3  2  2  0
  4  6  1  0
  5  8  1  0
  6  5  2  0
  6  7  1  0
  8  9  1  1
  8 10  1  0
 11  8  1  0
 12 13  1  0
 12  3  1  0
 14 15  1  0
 14 13  2  0
 16 27  2  0
 17 15  1  0
 17 22  1  0
 18 26  1  0
 18 28  1  0
 19 25  1  0
 19 21  1  0
 20 26  1  0
 21 20  1  0
 22 21  2  0
 23 24  1  0
 23 17  2  0
 24 19  2  0
 25 18  1  0
 26 16  1  0
 28 30  2  0
 29 28  1  0
 31 29  1  0
 32 41  2  0
 32 37  1  0
 33 29  1  0
 33 37  1  0
 34 33  1  0
 35 36  1  0
 35 34  1  0
 36 32  1  0
 37 38  2  0
 38 39  1  0
 40 39  2  0
 41 40  1  0
 42 16  1  0
 42 43  1  0
 42 52  1  0
 43 46  1  0
 44 48  1  0
 44 43  1  0
 45 44  2  0
 48 47  1  0
 50 48  1  0
 50 51  1  0
 50 49  1  0
 52 55  1  1
 52 53  1  0
 54 52  1  0
 56 65  1  0
 56  4  1  0
 57 65  1  0
 58 63  1  0
 59 60  1  0
 59 58  1  0
 61 60  1  0
 61 70  1  0
 61 62  1  0
 63 57  1  0
 63 62  1  0
 64 57  2  0
 65 66  1  0
 67 68  2  0
 68 87  1  0
 69 68  1  0
 69 72  1  0
 70 71  1  0
 70 67  1  0
 71 69  2  0
 72 73  1  0
 73 74  2  0
 75 78  1  0
 75 74  1  0
 76 75  2  0
 77 76  1  0
 77 72  2  0
 78 79  1  0
 79 80  1  0
 80 81  2  0
 82 81  1  0
 82 86  1  0
 83 82  2  0
 84 79  2  0
 84 83  1  0
 85 84  1  0
 87 88  1  0
 88 91  1  0
 88 90  1  0
 89 87  2  0
 92 67  1  0
 92 93  1  0
 94 92  1  0
M  ISO  4  14 101  15 101  57 100  65 100
M  END
>  <TORSDO>  (74) 
F 21

>  <SCORE>  (74) 
-13.798

>  <name>  (74) 
73

>  <ligand_id>  (74) 
73

>  <original_smiles>  (74) 
[H]c1c([H])c([H])c2c(c1[H])C([H])([H])C([H])([H])C([H])([H])C2([H])N([H])C(=O)C1([H])N(C(=O)C([H])(N([H])C(=O)C([H])(N([H])C([H])([H])[H])C([H])([H])[H])C(C([H])([H])[H])(C([H])([H])[H])C([H])([H])[H])C([H])([H])c2c([H])c(OC([H])([H])C([H])([H])C([H])([H])c3c([H])c(C(F)(F)F)c(Cl)c(C([H])([H])N([H])C(=O)N4C([H])([H])C([H])([H])C([H])([H])C([H])(n5nc(-c6c([H])c([H])c(Oc7c([H])c([H])c(F)c([H])c7F)c([H])c6[H])c(C(=O)N([H])[H])c5N([H])[H])C4([H])[H])c3[H])c([H])c([H])c2C1([H])[H]

>  <smiles>  (74) 
[H]c1c([H])c([H])c2c(c1[H])C([H])([H])C([H])([H])C([H])([H])C2([H])N([H])C(=O)C1([H])N(C(=O)C([H])(N([H])C(=O)C([H])(N([H])C([H])([H])[H])C([H])([H])[H])C(C([H])([H])[H])(C([H])([H])[H])C([H])([H])[H])C([H])([H])c2c([H])c(OC([H])([H])C([H])([H])C([H])([H])c3c([H])c(C(F)(F)F)c(Cl)c(C([H])([H])N([H])C(=O)N4C([H])([H])C([H])([H])C([H])([H])C([H])(n5nc(-c6c([H])c([H])c(Oc7c([H])c([H])c(F)c([H])c7F)c([H])c6[H])c(C(=O)N([H])[H])c5N([H])[H])C4([H])[H])c3[H])c([H])c([H])c2C1([H])[H]

$$$$
74:0:0
     RDKit          3D

101110  0  0  1  0  0  0  0  0999 V2000
  -28.9750  -21.3280   21.8420 C   0  0  0  0  0  2  0  0  0  0  0  0
  -31.4370  -21.8600   21.3750 C   0  0  0  0  0  2  0  0  0  0  0  0
  -28.5750  -22.6890   21.2430 C   0  0  0  0  0  2  0  0  0  0  0  0
  -31.0180  -23.2060   20.7500 C   0  0  0  0  0  2  0  0  0  0  0  0
  -30.3030  -20.8230   21.2350 C   0  0  0  0  0  3  0  0  0  0  0  0
  -29.6960  -23.7690   21.3380 C   0  0  2  0  0  0  0  0  0  0  0  0
  -29.9040  -24.1600   22.8200 C   0  0  0  0  0  1  0  0  0  0  0  0
  -30.6630  -19.3770   21.6470 C   0  0  0  0  0  0  0  0  0  0  0  0
  -30.9340  -18.3840   20.6530 C   0  0  0  0  0  0  0  0  0  0  0  0
  -31.3470  -17.0890   21.0690 C   0  0  0  0  0  0  0  0  0  0  0  0
  -30.7520  -18.9760   23.0100 C   0  0  0  0  0  0  0  0  0  0  0  0
  -31.3790  -16.8120   22.4510 C   0  0  0  0  0  0  0  0  0  0  0  0
  -30.8030  -18.6960   19.1590 C   0  0  0  0  0  1  0  0  0  0  0  0
  -30.5190  -19.8900   24.2030 C   0  0  0  0  0  1  0  0  0  0  0  0
  -31.0800  -17.7270   23.3850 N   0  0  0  0  0  0  0  0  0  0  0  0
  -31.8040  -15.2430   23.0360 Cl  0  0  0  0  0  0  0  0  0  0  0  0
  -31.8260  -16.0270   20.0680 C   0  0  0  0  0  2  0  0  0  0  0  0
  -30.9300  -14.1040   18.7640 C   0  0  0  0  0  0  0  0  0  0  0  0
  -30.3620  -11.8160   18.0370 C   0  0  0  0  0  2  0  0  0  0  0  0
  -29.1820  -11.7640   17.0520 C   0  0  0  0  0  2  0  0  0  0  0  0
  -27.8450  -11.7140   17.8110 C   0  0  0  0  0  2  0  0  0  0  0  0
  -27.7400  -12.8160   18.8970 C   0  0  0  0  0  3  0  0  0  0  0  0
  -29.0030  -12.8370   19.7860 C   0  0  0  0  0  2  0  0  0  0  0  0
  -30.1900  -12.9790   18.9200 N   0  0  0  0  0  0  0  0  0  0  0  0
  -31.7180  -14.2750   17.8280 O   0  0  0  0  0  0  0  0  0  0  0  0
  -30.8600  -14.9640   19.7900 N   0  0  0  0  0  0  0  0  0  0  0  0
  -30.2160  -14.7160   20.5250 H   0  0  0  0  0  0  0  0  0  0  0  0
  -25.7240  -13.6340   20.2760 C   0  0  0  0  0  0  0  0  0  0  0  0
  -24.6730  -12.9650   20.8450 C   0  0  0  0  0  0  0  0  0  0  0  0
  -24.8880  -11.5810   20.5640 C   0  0  0  0  0  0  0  0  0  0  0  0
  -26.5230  -12.6620   19.6930 N   0  0  0  0  0  0  0  0  0  0  0  0
  -26.0360  -11.4150   19.9180 N   0  0  0  0  0  0  0  0  0  0  0  0
  -24.0430  -10.4100   20.8230 C   0  0  0  0  0  0  0  0  0  0  0  0
  -24.4900   -9.3360   21.6240 C   0  0  0  0  0  3  0  0  0  0  0  0
  -23.6510   -8.2300   21.8750 C   0  0  0  0  0  3  0  0  0  0  0  0
  -22.3470   -8.1890   21.3250 C   0  0  0  0  0  0  0  0  0  0  0  0
  -21.9150   -9.2500   20.5090 C   0  0  0  0  0  3  0  0  0  0  0  0
  -22.7540  -10.3490   20.2570 C   0  0  0  0  0  3  0  0  0  0  0  0
  -21.4720   -7.1440   21.4920 O   0  0  0  0  0  0  0  0  0  0  0  0
  -21.4330   -6.4160   22.6540 C   0  0  0  0  0  0  0  0  0  0  0  0
  -21.1810   -7.0200   23.9040 C   0  0  0  0  0  3  0  0  0  0  0  0
  -21.0810   -6.2250   25.0640 C   0  0  0  0  0  3  0  0  0  0  0  0
  -21.2240   -4.8270   24.9740 C   0  0  0  0  0  0  0  0  0  0  0  0
  -21.4720   -4.2230   23.7290 C   0  0  0  0  0  3  0  0  0  0  0  0
  -21.5740   -5.0160   22.5710 C   0  0  0  0  0  0  0  0  0  0  0  0
  -21.7890   -4.4260   21.3710 F   0  0  0  0  0  0  0  0  0  0  0  0
  -21.1220   -4.0630   26.0860 F   0  0  0  0  0  0  0  0  0  0  0  0
  -23.4850  -13.5790   21.5270 C   0  0  0  0  0  0  0  0  0  0  0  0
  -22.9150  -12.8860   22.5080 N   0  0  0  0  0  0  0  0  0  0  0  0
  -23.0840  -14.7020   21.2260 O   0  0  0  0  0  0  0  0  0  0  0  0
  -23.2560  -11.9730   22.7680 H   0  0  0  0  0  0  0  0  0  0  0  0
  -22.1270  -13.2750   23.0040 H   0  0  0  0  0  0  0  0  0  0  0  0
  -26.0560  -14.9830   20.1890 N   0  0  0  0  0  0  0  0  0  0  0  0
  -25.4620  -15.7130   20.5660 H   0  0  0  0  0  0  0  0  0  0  0  0
  -26.8670  -15.3440   19.7000 H   0  0  0  0  0  0  0  0  0  0  0  0
  -29.3250  -25.0200   20.6190 N   0  0  0  0  0  4  0  0  0  0  0  0
  -29.9820  -25.7430   20.8730 H   0  0  0  0  0  0  0  0  0  0  0  0
  -28.4310  -25.3310   20.9690 H   0  0  0  0  0  0  0  0  0  0  0  0
  -29.2170  -25.0010   19.1360 C   0  0  0  0  0  2  0  0  0  0  0  0
  -27.8760  -25.6090   18.7050 C   0  0  0  0  0  2  0  0  0  0  0  0
  -28.0210  -27.0050   18.9430 O   0  0  0  0  0  0  0  0  0  0  0  0
  -25.4670  -31.1560   24.0710 C   0  0  0  0  0  0  0  0  0  0  0  0
  -26.9420  -27.7540   19.3460 C   0  0  0  0  0  0  0  0  0  0  0  0
  -23.8420  -30.5210   22.3130 C   0  0  0  0  0  3  0  0  0  0  0  0
  -24.8260  -29.3920   20.2500 C   0  0  0  0  0  0  0  0  0  0  0  0
  -26.3410  -30.6540   21.7950 C   0  0  0  0  0  2  0  0  0  0  0  0
  -26.1180  -29.5730   20.7570 C   0  0  0  0  0  0  0  0  0  0  0  0
  -27.1770  -28.7580   20.3060 C   0  0  0  0  0  3  0  0  0  0  0  0
  -25.6330  -27.5790   18.8400 C   0  0  0  0  0  3  0  0  0  0  0  0
  -24.5760  -28.3930   19.2940 C   0  0  0  0  0  3  0  0  0  0  0  0
  -23.7520  -30.3160   20.7770 C   0  0  0  0  0  2  0  0  0  0  0  0
  -25.2440  -30.7690   22.7820 N   0  0  0  0  0  0  0  0  0  0  0  0
  -24.5260  -31.3470   24.8520 O   0  0  0  0  0  0  0  0  0  0  0  0
  -23.1720  -29.3140   23.0050 C   0  0  0  0  0  0  0  0  0  0  0  0
  -21.8680  -29.1280   22.7430 N   0  0  0  0  0  0  0  0  0  0  0  0
  -23.8230  -28.5580   23.7300 O   0  0  0  0  0  0  0  0  0  0  0  0
  -21.4060  -29.8030   22.1490 H   0  0  0  0  0  0  0  0  0  0  0  0
  -18.6410  -27.5370   22.4180 C   0  0  0  0  0  0  0  0  0  0  0  0
  -21.0350  -28.0380   23.2490 C   0  0  0  0  0  3  0  0  0  0  0  0
  -21.4300  -26.6880   22.6080 C   0  0  0  0  0  2  0  0  0  0  0  0
  -20.6080  -26.3490   21.3610 C   0  0  0  0  0  2  0  0  0  0  0  0
  -19.1170  -26.2860   21.7010 C   0  0  0  0  0  2  0  0  0  0  0  0
  -19.5440  -28.3690   23.1320 C   0  0  0  0  0  0  0  0  0  0  0  0
  -19.0550  -29.5400   23.7510 C   0  0  0  0  0  3  0  0  0  0  0  0
  -17.6930  -29.8860   23.6620 C   0  0  0  0  0  3  0  0  0  0  0  0
  -16.8010  -29.0510   22.9680 C   0  0  0  0  0  3  0  0  0  0  0  0
  -17.2730  -27.8780   22.3540 C   0  0  0  0  0  3  0  0  0  0  0  0
  -26.9100  -31.3970   24.6150 C   0  0  0  0  0  3  0  0  0  0  0  0
  -26.9180  -32.7080   25.2750 N   0  0  0  0  0  0  0  0  0  0  0  0
  -27.4720  -33.8160   24.7620 C   0  0  0  0  0  0  0  0  0  0  0  0
  -28.1000  -33.8200   23.7010 O   0  0  0  0  0  0  0  0  0  0  0  0
  -26.3810  -32.7870   26.1270 H   0  0  0  0  0  0  0  0  0  0  0  0
  -26.2250  -35.9940   24.8770 C   0  0  0  0  0  1  0  0  0  0  0  0
  -27.3000  -35.1270   25.5500 C   0  0  0  0  0  3  0  0  0  0  0  0
  -29.5480  -35.2500   26.5350 C   0  0  0  0  0  1  0  0  0  0  0  0
  -28.5550  -35.9010   25.6830 N   0  0  0  0  0  0  0  0  0  0  0  0
  -28.3710  -36.8250   26.0660 H   0  0  0  0  0  0  0  0  0  0  0  0
  -27.3980  -30.2700   25.6060 C   0  0  1  0  0  0  0  0  0  0  0  0
  -26.3820  -29.9420   26.7250 C   0  0  0  0  0  1  0  0  0  0  0  0
  -27.6950  -28.9600   24.8390 C   0  0  0  0  0  1  0  0  0  0  0  0
  -28.7220  -30.7010   26.2820 C   0  0  0  0  0  1  0  0  0  0  0  0
  3  6  1  0
  3  1  1  0
  4  6  1  0
  4  2  1  0
  5  2  1  0
  5  8  1  0
  5  1  1  0
  6  7  1  1
  8 11  1  0
  9 10  1  0
  9  8  2  0
 10 12  2  0
 11 15  2  0
 11 14  1  0
 12 16  1  0
 12 15  1  0
 13  9  1  0
 17 10  1  0
 18 24  1  0
 18 26  1  0
 19 24  1  0
 20 21  1  0
 20 19  1  0
 22 21  1  0
 22 31  1  0
 22 23  1  0
 24 23  1  0
 25 18  2  0
 26 17  1  0
 26 27  1  0
 28 29  2  0
 29 48  1  0
 30 33  1  0
 30 29  1  0
 31 32  1  0
 31 28  1  0
 32 30  2  0
 33 34  1  0
 34 35  2  0
 36 39  1  0
 36 35  1  0
 37 36  2  0
 38 37  1  0
 38 33  2  0
 39 40  1  0
 40 41  1  0
 41 42  2  0
 43 42  1  0
 43 47  1  0
 44 43  2  0
 45 40  2  0
 45 44  1  0
 46 45  1  0
 48 49  1  0
 49 51  1  0
 49 52  1  0
 50 48  2  0
 53 28  1  0
 53 54  1  0
 55 53  1  0
 56 57  1  0
 56 58  1  0
 56  6  1  0
 59 56  1  0
 60 61  1  0
 60 59  1  0
 61 63  1  0
 62 73  2  0
 63 68  1  0
 64 72  1  0
 64 74  1  0
 65 67  1  0
 65 71  1  0
 66 72  1  0
 67 66  1  0
 68 67  2  0
 69 70  1  0
 69 63  2  0
 70 65  2  0
 71 64  1  0
 72 62  1  0
 74 76  2  0
 75 74  1  0
 77 75  1  0
 78 83  1  0
 79 75  1  0
 80 79  1  0
 81 82  1  0
 81 80  1  0
 82 78  1  0
 83 79  1  0
 83 84  2  0
 85 84  1  0
 86 85  2  0
 87 78  2  0
 87 86  1  0
 88 62  1  0
 88 89  1  0
 88 98  1  0
 89 92  1  0
 90 89  1  0
 90 94  1  0
 91 90  2  0
 94 93  1  0
 94 96  1  0
 96 97  1  0
 96 95  1  0
 98101  1  1
 98 99  1  0
100 98  1  0
M  ISO  4  18 100  26 100  60 101  61 101
M  END
>  <TORSDO>  (75) 
F 21

>  <SCORE>  (75) 
-6.645

>  <name>  (75) 
74

>  <ligand_id>  (75) 
74

>  <original_smiles>  (75) 
[H]c1c([H])c([H])c2c(c1[H])C([H])([H])C([H])([H])C([H])([H])C2([H])N([H])C(=O)C1([H])N(C(=O)C([H])(N([H])C(=O)C([H])(N([H])C([H])([H])[H])C([H])([H])[H])C(C([H])([H])[H])(C([H])([H])[H])C([H])([H])[H])C([H])([H])c2c([H])c(OC([H])([H])C([H])([H])[N+]([H])([H])C3(C([H])([H])[H])C([H])([H])C([H])([H])C([H])(c4c(C([H])([H])[H])nc(Cl)c(C([H])([H])N([H])C(=O)N5C([H])([H])C([H])([H])C([H])([H])C([H])(n6nc(-c7c([H])c([H])c(Oc8c([H])c([H])c(F)c([H])c8F)c([H])c7[H])c(C(=O)N([H])[H])c6N([H])[H])C5([H])[H])c4C([H])([H])[H])C([H])([H])C3([H])[H])c([H])c([H])c2C1([H])[H]

>  <smiles>  (75) 
[H]c1c([H])c([H])c2c(c1[H])C([H])([H])C([H])([H])C([H])([H])C2([H])N([H])C(=O)C1([H])N(C(=O)C([H])(N([H])C(=O)C([H])(N([H])C([H])([H])[H])C([H])([H])[H])C(C([H])([H])[H])(C([H])([H])[H])C([H])([H])[H])C([H])([H])c2c([H])c(OC([H])([H])C([H])([H])[N+]([H])([H])C3(C([H])([H])[H])C([H])([H])C([H])([H])C([H])(c4c(C([H])([H])[H])nc(Cl)c(C([H])([H])N([H])C(=O)N5C([H])([H])C([H])([H])C([H])([H])C([H])(n6nc(-c7c([H])c([H])c(Oc8c([H])c([H])c(F)c([H])c8F)c([H])c7[H])c(C(=O)N([H])[H])c6N([H])[H])C5([H])[H])c4C([H])([H])[H])C([H])([H])C3([H])[H])c([H])c([H])c2C1([H])[H]

$$$$
75:0:0
     RDKit          3D

 93101  0  0  1  0  0  0  0  0999 V2000
  -31.4050  -20.7530   22.8140 C   0  0  0  0  0  2  0  0  0  0  0  0
  -32.0060  -17.1590   21.5100 C   0  0  0  0  0  3  0  0  0  0  0  0
  -29.9050  -19.0070   21.7630 C   0  0  0  0  0  3  0  0  0  0  0  0
  -32.2680  -18.4590   22.0010 C   0  0  0  0  0  0  0  0  0  0  0  0
  -31.2070  -19.3920   22.1430 C   0  0  0  0  0  0  0  0  0  0  0  0
  -30.6900  -16.7650   21.1670 C   0  0  0  0  0  0  0  0  0  0  0  0
  -29.6450  -17.7050   21.2950 C   0  0  0  0  0  0  0  0  0  0  0  0
  -33.6870  -18.8080   22.4190 C   0  0  0  0  0  1  0  0  0  0  0  0
  -28.0180  -17.2590   20.9180 Cl  0  0  0  0  0  0  0  0  0  0  0  0
  -30.8430  -14.6440   19.8220 C   0  0  0  0  0  0  0  0  0  0  0  0
  -30.3990  -12.6150   18.4770 C   0  0  0  0  0  2  0  0  0  0  0  0
  -29.3300  -12.9040   17.4050 C   0  0  0  0  0  2  0  0  0  0  0  0
  -27.9100  -12.7240   17.9740 C   0  0  0  0  0  2  0  0  0  0  0  0
  -27.7100  -13.4600   19.3260 C   0  0  0  0  0  3  0  0  0  0  0  0
  -28.8710  -13.1360   20.2930 C   0  0  0  0  0  2  0  0  0  0  0  0
  -30.1400  -13.4970   19.6260 N   0  0  0  0  0  0  0  0  0  0  0  0
  -31.8360  -14.9440   19.1520 O   0  0  0  0  0  0  0  0  0  0  0  0
  -30.3360  -15.4410   20.7760 N   0  0  0  0  0  0  0  0  0  0  0  0
  -29.4800  -15.1000   21.1870 H   0  0  0  0  0  0  0  0  0  0  0  0
  -25.3770  -14.0050   20.2730 C   0  0  0  0  0  0  0  0  0  0  0  0
  -24.3590  -13.2030   20.7140 C   0  0  0  0  0  0  0  0  0  0  0  0
  -24.8310  -11.8610   20.5880 C   0  0  0  0  0  0  0  0  0  0  0  0
  -26.4090  -13.1500   19.9170 N   0  0  0  0  0  0  0  0  0  0  0  0
  -26.0860  -11.8530   20.1570 N   0  0  0  0  0  0  0  0  0  0  0  0
  -24.1410  -10.5820   20.7980 C   0  0  0  0  0  0  0  0  0  0  0  0
  -24.5930   -9.6480   21.7560 C   0  0  0  0  0  3  0  0  0  0  0  0
  -23.9020   -8.4330   21.9530 C   0  0  0  0  0  3  0  0  0  0  0  0
  -22.7460   -8.1430   21.1900 C   0  0  0  0  0  0  0  0  0  0  0  0
  -22.3140   -9.0660   20.2220 C   0  0  0  0  0  3  0  0  0  0  0  0
  -23.0050  -10.2740   20.0240 C   0  0  0  0  0  3  0  0  0  0  0  0
  -22.0260   -6.9770   21.2940 O   0  0  0  0  0  0  0  0  0  0  0  0
  -21.8610   -6.3380   22.4960 C   0  0  0  0  0  0  0  0  0  0  0  0
  -21.2820   -6.9830   23.6110 C   0  0  0  0  0  3  0  0  0  0  0  0
  -21.0690   -6.2680   24.8050 C   0  0  0  0  0  3  0  0  0  0  0  0
  -21.4240   -4.9080   24.8870 C   0  0  0  0  0  0  0  0  0  0  0  0
  -21.9950   -4.2620   23.7760 C   0  0  0  0  0  3  0  0  0  0  0  0
  -22.2100   -4.9750   22.5830 C   0  0  0  0  0  0  0  0  0  0  0  0
  -22.7420   -4.3420   21.5100 F   0  0  0  0  0  0  0  0  0  0  0  0
  -21.2110   -4.2190   26.0310 F   0  0  0  0  0  0  0  0  0  0  0  0
  -22.9900  -13.6500   21.1410 C   0  0  0  0  0  0  0  0  0  0  0  0
  -22.3690  -12.9220   22.0630 N   0  0  0  0  0  0  0  0  0  0  0  0
  -22.4830  -14.6770   20.6940 O   0  0  0  0  0  0  0  0  0  0  0  0
  -22.7930  -12.0890   22.4450 H   0  0  0  0  0  0  0  0  0  0  0  0
  -21.4550  -13.2000   22.3900 H   0  0  0  0  0  0  0  0  0  0  0  0
  -25.5020  -15.3820   20.1290 N   0  0  0  0  0  0  0  0  0  0  0  0
  -24.7570  -16.0220   20.3760 H   0  0  0  0  0  0  0  0  0  0  0  0
  -26.3480  -15.8550   19.8370 H   0  0  0  0  0  0  0  0  0  0  0  0
  -31.6230  -21.9670   21.8860 C   0  0  0  0  0  2  0  0  0  0  0  0
  -30.3510  -22.5930   21.2680 C   0  0  0  0  0  2  0  0  0  0  0  0
  -30.4250  -24.1380   21.2180 C   0  0  0  0  0  2  0  0  0  0  0  0
  -29.3210  -24.8030   20.3750 C   0  0  0  0  0  2  0  0  0  0  0  0
  -29.2370  -26.3360   20.5560 C   0  0  0  0  0  2  0  0  0  0  0  0
  -28.5530  -26.8820   19.4350 O   0  0  0  0  0  0  0  0  0  0  0  0
  -24.6530  -31.6820   23.0630 C   0  0  0  0  0  0  0  0  0  0  0  0
  -27.3700  -27.5440   19.6520 C   0  0  0  0  0  0  0  0  0  0  0  0
  -23.4480  -30.3330   21.3740 C   0  0  0  0  0  3  0  0  0  0  0  0
  -24.9170  -28.9310   19.8300 C   0  0  0  0  0  0  0  0  0  0  0  0
  -25.9500  -30.7980   21.1290 C   0  0  0  0  0  2  0  0  0  0  0  0
  -26.0690  -29.4640   20.4230 C   0  0  0  0  0  0  0  0  0  0  0  0
  -27.3000  -28.7730   20.3450 C   0  0  0  0  0  3  0  0  0  0  0  0
  -26.2050  -27.0190   19.0590 C   0  0  0  0  0  3  0  0  0  0  0  0
  -24.9760  -27.6990   19.1530 C   0  0  0  0  0  3  0  0  0  0  0  0
  -23.6430  -29.7390   19.9530 C   0  0  0  0  0  2  0  0  0  0  0  0
  -24.7030  -30.9510   21.9140 N   0  0  0  0  0  0  0  0  0  0  0  0
  -23.5790  -31.8810   23.6490 O   0  0  0  0  0  0  0  0  0  0  0  0
  -22.8620  -29.2350   22.2900 C   0  0  0  0  0  0  0  0  0  0  0  0
  -21.5480  -28.9930   22.1700 N   0  0  0  0  0  0  0  0  0  0  0  0
  -23.5880  -28.6060   23.0630 O   0  0  0  0  0  0  0  0  0  0  0  0
  -21.0210  -29.5580   21.5180 H   0  0  0  0  0  0  0  0  0  0  0  0
  -18.2440  -27.6110   22.6450 C   0  0  0  0  0  0  0  0  0  0  0  0
  -20.7900  -27.9790   22.9000 C   0  0  0  0  0  3  0  0  0  0  0  0
  -20.9540  -26.5860   22.2500 C   0  0  0  0  0  2  0  0  0  0  0  0
  -19.8550  -26.2620   21.2340 C   0  0  0  0  0  2  0  0  0  0  0  0
  -18.4770  -26.3070   21.9000 C   0  0  0  0  0  2  0  0  0  0  0  0
  -19.3300  -28.4030   23.1000 C   0  0  0  0  0  0  0  0  0  0  0  0
  -19.0600  -29.6240   23.7550 C   0  0  0  0  0  3  0  0  0  0  0  0
  -17.7350  -30.0540   23.9610 C   0  0  0  0  0  3  0  0  0  0  0  0
  -16.6630  -29.2580   23.5210 C   0  0  0  0  0  3  0  0  0  0  0  0
  -16.9180  -28.0380   22.8680 C   0  0  0  0  0  3  0  0  0  0  0  0
  -25.9340  -32.3210   23.6830 C   0  0  0  0  0  3  0  0  0  0  0  0
  -25.6060  -33.7070   24.0420 N   0  0  0  0  0  0  0  0  0  0  0  0
  -25.9310  -34.7790   23.3080 C   0  0  0  0  0  0  0  0  0  0  0  0
  -26.6090  -34.7050   22.2780 O   0  0  0  0  0  0  0  0  0  0  0  0
  -25.0030  -33.8360   24.8410 H   0  0  0  0  0  0  0  0  0  0  0  0
  -24.1880  -36.5590   22.9690 C   0  0  0  0  0  1  0  0  0  0  0  0
  -25.4210  -36.1500   23.7890 C   0  0  0  0  0  3  0  0  0  0  0  0
  -27.5320  -37.0390   24.6760 C   0  0  0  0  0  1  0  0  0  0  0  0
  -26.4430  -37.2160   23.7170 N   0  0  0  0  0  0  0  0  0  0  0  0
  -26.0250  -38.1280   23.8780 H   0  0  0  0  0  0  0  0  0  0  0  0
  -26.4790  -31.5320   24.9370 C   0  0  1  0  0  0  0  0  0  0  0  0
  -25.4010  -31.2490   26.0090 C   0  0  0  0  0  1  0  0  0  0  0  0
  -27.0870  -30.1780   24.5060 C   0  0  0  0  0  1  0  0  0  0  0  0
  -27.6160  -32.3380   25.6090 C   0  0  0  0  0  1  0  0  0  0  0  0
  2  4  1  0
  3  5  1  0
  4  5  2  0
  4  8  1  0
  5  1  1  0
  6  7  1  0
  6  2  2  0
  7  3  2  0
  9  7  1  0
 10 18  1  0
 11 16  1  0
 12 13  1  0
 12 11  1  0
 14 13  1  0
 14 23  1  0
 14 15  1  0
 16 10  1  0
 16 15  1  0
 17 10  2  0
 18  6  1  0
 18 19  1  0
 20 21  2  0
 21 40  1  0
 22 21  1  0
 22 25  1  0
 23 24  1  0
 23 20  1  0
 24 22  2  0
 25 26  1  0
 26 27  2  0
 28 31  1  0
 28 27  1  0
 29 28  2  0
 30 29  1  0
 30 25  2  0
 31 32  1  0
 32 37  2  0
 32 33  1  0
 33 34  2  0
 34 35  1  0
 35 39  1  0
 36 35  2  0
 37 36  1  0
 38 37  1  0
 40 41  1  0
 41 44  1  0
 41 43  1  0
 42 40  2  0
 45 20  1  0
 45 46  1  0
 47 45  1  0
 48  1  1  0
 49 48  1  0
 50 49  1  0
 51 52  1  0
 51 50  1  0
 53 55  1  0
 53 52  1  0
 54 65  2  0
 55 60  1  0
 56 64  1  0
 56 66  1  0
 57 63  1  0
 57 59  1  0
 58 64  1  0
 59 58  1  0
 60 59  2  0
 61 62  1  0
 61 55  2  0
 62 57  2  0
 63 56  1  0
 64 54  1  0
 66 68  2  0
 67 66  1  0
 69 67  1  0
 70 79  2  0
 70 75  1  0
 71 67  1  0
 71 75  1  0
 72 71  1  0
 73 74  1  0
 73 72  1  0
 74 70  1  0
 75 76  2  0
 76 77  1  0
 78 77  2  0
 79 78  1  0
 80 54  1  0
 80 81  1  0
 80 90  1  0
 81 84  1  0
 82 86  1  0
 82 81  1  0
 83 82  2  0
 86 85  1  0
 88 86  1  0
 88 89  1  0
 88 87  1  0
 90 93  1  1
 90 91  1  0
 92 90  1  0
M  ISO  4  10 100  18 100  52 101  53 101
M  END
>  <TORSDO>  (76) 
F 22

>  <SCORE>  (76) 
-9.069

>  <name>  (76) 
75

>  <ligand_id>  (76) 
75

>  <original_smiles>  (76) 
[H]c1c([H])c([H])c2c(c1[H])C([H])([H])C([H])([H])C([H])([H])C2([H])N([H])C(=O)C1([H])N(C(=O)C([H])(N([H])C(=O)C([H])(N([H])C([H])([H])[H])C([H])([H])[H])C(C([H])([H])[H])(C([H])([H])[H])C([H])([H])[H])C([H])([H])c2c([H])c(OC([H])([H])C([H])([H])C([H])([H])C([H])([H])C([H])([H])C([H])([H])c3c([H])c(Cl)c(N([H])C(=O)N4C([H])([H])C([H])([H])C([H])([H])C([H])(n5nc(-c6c([H])c([H])c(Oc7c([H])c([H])c(F)c([H])c7F)c([H])c6[H])c(C(=O)N([H])[H])c5N([H])[H])C4([H])[H])c([H])c3C([H])([H])[H])c([H])c([H])c2C1([H])[H]

>  <smiles>  (76) 
[H]c1c([H])c([H])c2c(c1[H])C([H])([H])C([H])([H])C([H])([H])C2([H])N([H])C(=O)C1([H])N(C(=O)C([H])(N([H])C(=O)C([H])(N([H])C([H])([H])[H])C([H])([H])[H])C(C([H])([H])[H])(C([H])([H])[H])C([H])([H])[H])C([H])([H])c2c([H])c(OC([H])([H])C([H])([H])C([H])([H])C([H])([H])C([H])([H])C([H])([H])c3c([H])c(Cl)c(N([H])C(=O)N4C([H])([H])C([H])([H])C([H])([H])C([H])(n5nc(-c6c([H])c([H])c(Oc7c([H])c([H])c(F)c([H])c7F)c([H])c6[H])c(C(=O)N([H])[H])c5N([H])[H])C4([H])[H])c([H])c3C([H])([H])[H])c([H])c([H])c2C1([H])[H]

$$$$
76:0:0
     RDKit          3D

 94102  0  0  1  0  0  0  0  0999 V2000
  -27.9270  -21.6260   20.8600 C   0  0  0  0  0  3  0  0  0  0  0  0
  -28.8360  -23.7800   19.3060 C   0  0  0  0  0  3  0  0  0  0  0  0
  -28.5590  -22.7250   21.4790 C   0  0  0  0  0  0  0  0  0  0  0  0
  -27.6970  -21.6140   19.4650 C   0  0  0  0  0  0  0  0  0  0  0  0
  -29.0520  -23.7980   20.6980 C   0  0  0  0  0  0  0  0  0  0  0  0
  -28.1440  -22.7190   18.6950 C   0  0  0  0  0  0  0  0  0  0  0  0
  -28.6380  -22.7760   22.9910 C   0  0  0  0  0  1  0  0  0  0  0  0
  -27.8060  -22.8480   17.0020 Cl  0  0  0  0  0  0  0  0  0  0  0  0
  -26.8970  -20.4800   18.8200 C   0  0  0  0  0  2  0  0  0  0  0  0
  -27.2690  -19.0320   19.2170 C   0  0  0  0  0  2  0  0  0  0  0  0
  -28.7760  -18.6730   19.1910 C   0  0  0  0  0  2  0  0  0  0  0  0
  -29.0440  -17.1960   19.5430 C   0  0  0  0  0  2  0  0  0  0  0  0
  -30.1620  -16.9440   20.5750 C   0  0  0  0  0  2  0  0  0  0  0  0
  -30.9360  -14.5740   20.2760 C   0  0  0  0  0  0  0  0  0  0  0  0
  -30.6500  -12.4370   19.0880 C   0  0  0  0  0  2  0  0  0  0  0  0
  -29.6840  -12.6780   17.9090 C   0  0  0  0  0  2  0  0  0  0  0  0
  -28.2140  -12.5560   18.3560 C   0  0  0  0  0  2  0  0  0  0  0  0
  -27.9080  -13.3710   19.6400 C   0  0  0  0  0  3  0  0  0  0  0  0
  -28.9680  -13.0650   20.7200 C   0  0  0  0  0  2  0  0  0  0  0  0
  -30.2980  -13.3770   20.1600 N   0  0  0  0  0  0  0  0  0  0  0  0
  -32.0160  -14.8310   19.7320 O   0  0  0  0  0  0  0  0  0  0  0  0
  -30.1950  -15.5140   20.8820 N   0  0  0  0  0  0  0  0  0  0  0  0
  -29.3770  -15.1600   21.3570 H   0  0  0  0  0  0  0  0  0  0  0  0
  -25.5170  -14.0190   20.3500 C   0  0  0  0  0  0  0  0  0  0  0  0
  -24.4470  -13.2640   20.7380 C   0  0  0  0  0  0  0  0  0  0  0  0
  -24.8950  -11.9050   20.7160 C   0  0  0  0  0  0  0  0  0  0  0  0
  -26.5550  -13.1240   20.1260 N   0  0  0  0  0  0  0  0  0  0  0  0
  -26.1820  -11.8500   20.4010 N   0  0  0  0  0  0  0  0  0  0  0  0
  -24.1570  -10.6530   20.9170 C   0  0  0  0  0  0  0  0  0  0  0  0
  -24.5650   -9.7010   21.8780 C   0  0  0  0  0  3  0  0  0  0  0  0
  -23.8240   -8.5140   22.0660 C   0  0  0  0  0  3  0  0  0  0  0  0
  -22.6630   -8.2710   21.2940 C   0  0  0  0  0  0  0  0  0  0  0  0
  -22.2780   -9.2110   20.3230 C   0  0  0  0  0  3  0  0  0  0  0  0
  -23.0190  -10.3880   20.1320 C   0  0  0  0  0  3  0  0  0  0  0  0
  -21.9000   -7.1330   21.3880 O   0  0  0  0  0  0  0  0  0  0  0  0
  -21.8030   -6.4310   22.5620 C   0  0  0  0  0  0  0  0  0  0  0  0
  -21.2990   -7.0200   23.7430 C   0  0  0  0  0  3  0  0  0  0  0  0
  -21.1500   -6.2450   24.9100 C   0  0  0  0  0  3  0  0  0  0  0  0
  -21.4930   -4.8780   24.8950 C   0  0  0  0  0  0  0  0  0  0  0  0
  -21.9900   -4.2890   23.7180 C   0  0  0  0  0  3  0  0  0  0  0  0
  -22.1370   -5.0620   22.5550 C   0  0  0  0  0  0  0  0  0  0  0  0
  -22.5950   -4.4850   21.4170 F   0  0  0  0  0  0  0  0  0  0  0  0
  -21.3430   -4.1280   26.0110 F   0  0  0  0  0  0  0  0  0  0  0  0
  -23.0560  -13.7540   21.0170 C   0  0  0  0  0  0  0  0  0  0  0  0
  -22.3330  -13.0760   21.8970 N   0  0  0  0  0  0  0  0  0  0  0  0
  -22.6200  -14.7750   20.4840 O   0  0  0  0  0  0  0  0  0  0  0  0
  -22.6970  -12.2450   22.3440 H   0  0  0  0  0  0  0  0  0  0  0  0
  -21.4020  -13.3890   22.1330 H   0  0  0  0  0  0  0  0  0  0  0  0
  -25.6960  -15.3880   20.1500 N   0  0  0  0  0  0  0  0  0  0  0  0
  -24.9380  -16.0560   20.2450 H   0  0  0  0  0  0  0  0  0  0  0  0
  -26.5460  -15.8020   19.7920 H   0  0  0  0  0  0  0  0  0  0  0  0
  -29.7790  -24.9870   21.3310 C   0  0  0  0  0  2  0  0  0  0  0  0
  -28.9010  -26.2350   21.4770 C   0  0  0  0  0  2  0  0  0  0  0  0
  -28.6320  -26.8040   20.2020 O   0  0  0  0  0  0  0  0  0  0  0  0
  -24.6520  -31.8600   23.2350 C   0  0  0  0  0  0  0  0  0  0  0  0
  -27.4840  -27.5420   20.1840 C   0  0  0  0  0  0  0  0  0  0  0  0
  -23.5270  -30.4440   21.5420 C   0  0  0  0  0  3  0  0  0  0  0  0
  -25.0590  -28.9660   20.1340 C   0  0  0  0  0  0  0  0  0  0  0  0
  -26.0390  -30.8810   21.4130 C   0  0  0  0  0  2  0  0  0  0  0  0
  -26.1800  -29.5180   20.7700 C   0  0  0  0  0  0  0  0  0  0  0  0
  -27.3970  -28.8050   20.8110 C   0  0  0  0  0  3  0  0  0  0  0  0
  -26.3610  -27.0070   19.5260 C   0  0  0  0  0  3  0  0  0  0  0  0
  -25.1430  -27.7070   19.5150 C   0  0  0  0  0  3  0  0  0  0  0  0
  -23.7840  -29.7760   20.1600 C   0  0  0  0  0  2  0  0  0  0  0  0
  -24.7550  -31.0730   22.1250 N   0  0  0  0  0  0  0  0  0  0  0  0
  -23.5520  -32.0920   23.7560 O   0  0  0  0  0  0  0  0  0  0  0  0
  -22.8820  -29.3960   22.4780 C   0  0  0  0  0  0  0  0  0  0  0  0
  -21.5610  -29.2000   22.3310 N   0  0  0  0  0  0  0  0  0  0  0  0
  -23.5640  -28.7620   23.2860 O   0  0  0  0  0  0  0  0  0  0  0  0
  -21.0660  -29.7600   21.6510 H   0  0  0  0  0  0  0  0  0  0  0  0
  -18.2010  -27.9680   22.7820 C   0  0  0  0  0  0  0  0  0  0  0  0
  -20.7540  -28.2340   23.0780 C   0  0  0  0  0  3  0  0  0  0  0  0
  -20.8670  -26.8180   22.4660 C   0  0  0  0  0  2  0  0  0  0  0  0
  -19.7750  -26.5120   21.4360 C   0  0  0  0  0  2  0  0  0  0  0  0
  -18.3900  -26.6350   22.0770 C   0  0  0  0  0  2  0  0  0  0  0  0
  -19.3120  -28.7240   23.2390 C   0  0  0  0  0  0  0  0  0  0  0  0
  -19.0850  -29.9730   23.8610 C   0  0  0  0  0  3  0  0  0  0  0  0
  -17.7760  -30.4630   24.0330 C   0  0  0  0  0  3  0  0  0  0  0  0
  -16.6790  -29.7020   23.5930 C   0  0  0  0  0  3  0  0  0  0  0  0
  -16.8920  -28.4570   22.9720 C   0  0  0  0  0  3  0  0  0  0  0  0
  -25.9110  -32.5150   23.8860 C   0  0  0  0  0  3  0  0  0  0  0  0
  -25.5700  -33.9060   24.2000 N   0  0  0  0  0  0  0  0  0  0  0  0
  -25.8940  -34.9590   23.4370 C   0  0  0  0  0  0  0  0  0  0  0  0
  -26.5870  -34.8620   22.4210 O   0  0  0  0  0  0  0  0  0  0  0  0
  -24.9610  -34.0540   24.9890 H   0  0  0  0  0  0  0  0  0  0  0  0
  -24.1380  -36.7110   23.0280 C   0  0  0  0  0  1  0  0  0  0  0  0
  -25.3680  -36.3370   23.8700 C   0  0  0  0  0  3  0  0  0  0  0  0
  -27.4530  -37.2850   24.7530 C   0  0  0  0  0  1  0  0  0  0  0  0
  -26.3780  -37.4120   23.7750 N   0  0  0  0  0  0  0  0  0  0  0  0
  -25.9450  -38.3220   23.9030 H   0  0  0  0  0  0  0  0  0  0  0  0
  -26.4090  -31.7560   25.1780 C   0  0  1  0  0  0  0  0  0  0  0  0
  -25.2910  -31.4960   26.2130 C   0  0  0  0  0  1  0  0  0  0  0  0
  -27.0350  -30.3920   24.8020 C   0  0  0  0  0  1  0  0  0  0  0  0
  -27.5220  -32.5740   25.8760 C   0  0  0  0  0  1  0  0  0  0  0  0
  1  3  1  0
  2  5  1  0
  3  7  1  0
  4  1  2  0
  5 52  1  0
  5  3  2  0
  6  2  2  0
  6  4  1  0
  8  6  1  0
  9 10  1  0
  9  4  1  0
 11 10  1  0
 11 12  1  0
 12 13  1  0
 13 22  1  0
 14 22  1  0
 15 20  1  0
 16 17  1  0
 16 15  1  0
 18 17  1  0
 18 27  1  0
 18 19  1  0
 20 14  1  0
 20 19  1  0
 21 14  2  0
 22 23  1  0
 24 25  2  0
 25 44  1  0
 26 25  1  0
 26 29  1  0
 27 24  1  0
 27 28  1  0
 28 26  2  0
 29 30  1  0
 30 31  2  0
 32 35  1  0
 32 31  1  0
 33 32  2  0
 34 33  1  0
 34 29  2  0
 35 36  1  0
 36 37  1  0
 37 38  2  0
 39 38  1  0
 39 43  1  0
 40 39  2  0
 41 36  2  0
 41 40  1  0
 42 41  1  0
 44 45  1  0
 45 48  1  0
 45 47  1  0
 46 44  2  0
 49 50  1  0
 49 24  1  0
 51 49  1  0
 52 53  1  0
 54 53  1  0
 55 66  2  0
 56 54  1  0
 56 61  1  0
 57 65  1  0
 57 67  1  0
 58 64  1  0
 58 60  1  0
 59 65  1  0
 60 61  2  0
 60 59  1  0
 62 56  2  0
 63 62  1  0
 63 58  2  0
 64 57  1  0
 65 55  1  0
 67 69  2  0
 68 67  1  0
 70 68  1  0
 71 80  2  0
 71 76  1  0
 72 68  1  0
 72 76  1  0
 73 72  1  0
 74 75  1  0
 74 73  1  0
 75 71  1  0
 76 77  2  0
 77 78  1  0
 79 78  2  0
 80 79  1  0
 81 55  1  0
 81 82  1  0
 81 91  1  0
 82 85  1  0
 83 87  1  0
 83 82  1  0
 84 83  2  0
 87 86  1  0
 89 87  1  0
 89 90  1  0
 89 88  1  0
 91 94  1  1
 91 92  1  0
 93 91  1  0
M  ISO  4  14 100  22 100  53 101  54 101
M  END
>  <TORSDO>  (77) 
F 23

>  <SCORE>  (77) 
-12.036

>  <name>  (77) 
76

>  <ligand_id>  (77) 
76

>  <original_smiles>  (77) 
[H]c1c([H])c([H])c2c(c1[H])C([H])([H])C([H])([H])C([H])([H])C2([H])N([H])C(=O)C1([H])N(C(=O)C([H])(N([H])C(=O)C([H])(N([H])C([H])([H])[H])C([H])([H])[H])C(C([H])([H])[H])(C([H])([H])[H])C([H])([H])[H])C([H])([H])c2c([H])c(OC([H])([H])C([H])([H])c3c([H])c(Cl)c(C([H])([H])C([H])([H])C([H])([H])C([H])([H])C([H])([H])N([H])C(=O)N4C([H])([H])C([H])([H])C([H])([H])C([H])(n5nc(-c6c([H])c([H])c(Oc7c([H])c([H])c(F)c([H])c7F)c([H])c6[H])c(C(=O)N([H])[H])c5N([H])[H])C4([H])[H])c([H])c3C([H])([H])[H])c([H])c([H])c2C1([H])[H]

>  <smiles>  (77) 
[H]c1c([H])c([H])c2c(c1[H])C([H])([H])C([H])([H])C([H])([H])C2([H])N([H])C(=O)C1([H])N(C(=O)C([H])(N([H])C(=O)C([H])(N([H])C([H])([H])[H])C([H])([H])[H])C(C([H])([H])[H])(C([H])([H])[H])C([H])([H])[H])C([H])([H])c2c([H])c(OC([H])([H])C([H])([H])c3c([H])c(Cl)c(C([H])([H])C([H])([H])C([H])([H])C([H])([H])C([H])([H])N([H])C(=O)N4C([H])([H])C([H])([H])C([H])([H])C([H])(n5nc(-c6c([H])c([H])c(Oc7c([H])c([H])c(F)c([H])c7F)c([H])c6[H])c(C(=O)N([H])[H])c5N([H])[H])C4([H])[H])c([H])c3C([H])([H])[H])c([H])c([H])c2C1([H])[H]

$$$$
77:0:0
     RDKit          3D

 89 97  0  0  1  0  0  0  0  0999 V2000
  -30.4870  -15.2510   20.3040 C   0  0  0  0  0  0  0  0  0  0  0  0
  -30.5000  -12.7540   19.6250 C   0  0  0  0  0  2  0  0  0  0  0  0
  -29.6240  -12.4940   18.3730 C   0  0  0  0  0  2  0  0  0  0  0  0
  -28.1530  -12.2720   18.7680 C   0  0  0  0  0  2  0  0  0  0  0  0
  -27.6710  -13.3120   19.8100 C   0  0  0  0  0  3  0  0  0  0  0  0
  -28.6750  -13.5050   20.9670 C   0  0  0  0  0  2  0  0  0  0  0  0
  -29.9440  -13.9430   20.3620 N   0  0  0  0  0  0  0  0  0  0  0  0
  -31.7060  -15.2700   20.0700 O   0  0  0  0  0  0  0  0  0  0  0  0
  -28.4910  -18.8580   20.5970 C   0  0  0  0  0  3  0  0  0  0  0  0
  -28.3090  -20.3230   20.4600 C   0  0  0  0  0  0  0  0  0  0  0  0
  -29.2440  -21.2230   19.8110 C   0  0  0  0  0  0  0  0  0  0  0  0
  -30.3410  -20.3450   19.3780 C   0  0  0  0  0  0  0  0  0  0  0  0
  -29.6200  -18.0520   20.1540 C   0  0  0  0  0  0  0  0  0  0  0  0
  -27.0730  -20.9440   21.0780 C   0  0  0  0  0  1  0  0  0  0  0  0
  -31.5260  -20.9850   18.6830 C   0  0  0  0  0  1  0  0  0  0  0  0
  -30.5020  -18.9340   19.5340 N   0  0  0  0  0  0  0  0  0  0  0  0
  -29.6510  -16.4600   20.3680 N   0  0  0  0  0  0  0  0  0  0  0  0
  -28.7330  -16.1480   20.6400 H   0  0  0  0  0  0  0  0  0  0  0  0
  -25.2900  -13.9490   20.4750 C   0  0  0  0  0  0  0  0  0  0  0  0
  -24.2000  -13.2060   20.8320 C   0  0  0  0  0  0  0  0  0  0  0  0
  -24.6340  -11.8440   20.8440 C   0  0  0  0  0  0  0  0  0  0  0  0
  -26.3190  -13.0430   20.2830 N   0  0  0  0  0  0  0  0  0  0  0  0
  -25.9340  -11.7730   20.5720 N   0  0  0  0  0  0  0  0  0  0  0  0
  -23.8710  -10.6040   21.0390 C   0  0  0  0  0  0  0  0  0  0  0  0
  -24.2750   -9.6290   21.9760 C   0  0  0  0  0  3  0  0  0  0  0  0
  -23.5120   -8.4540   22.1610 C   0  0  0  0  0  3  0  0  0  0  0  0
  -22.3330   -8.2480   21.4090 C   0  0  0  0  0  0  0  0  0  0  0  0
  -21.9470   -9.2130   20.4610 C   0  0  0  0  0  3  0  0  0  0  0  0
  -22.7090  -10.3780   20.2730 C   0  0  0  0  0  3  0  0  0  0  0  0
  -21.5440   -7.1270   21.5030 O   0  0  0  0  0  0  0  0  0  0  0  0
  -21.5010   -6.3710   22.6460 C   0  0  0  0  0  0  0  0  0  0  0  0
  -21.1490   -6.9280   23.8940 C   0  0  0  0  0  3  0  0  0  0  0  0
  -21.0490   -6.1020   25.0320 C   0  0  0  0  0  3  0  0  0  0  0  0
  -21.2900   -4.7190   24.9210 C   0  0  0  0  0  0  0  0  0  0  0  0
  -21.6350   -4.1620   23.6780 C   0  0  0  0  0  3  0  0  0  0  0  0
  -21.7370   -4.9850   22.5430 C   0  0  0  0  0  0  0  0  0  0  0  0
  -22.0480   -4.4390   21.3430 F   0  0  0  0  0  0  0  0  0  0  0  0
  -21.1870   -3.9240   26.0120 F   0  0  0  0  0  0  0  0  0  0  0  0
  -22.8070  -13.7210   21.0480 C   0  0  0  0  0  0  0  0  0  0  0  0
  -22.0390  -13.0690   21.9130 N   0  0  0  0  0  0  0  0  0  0  0  0
  -22.4100  -14.7400   20.4850 O   0  0  0  0  0  0  0  0  0  0  0  0
  -22.3760  -12.2460   22.3910 H   0  0  0  0  0  0  0  0  0  0  0  0
  -21.1030  -13.3960   22.1000 H   0  0  0  0  0  0  0  0  0  0  0  0
  -25.4870  -15.3110   20.2690 N   0  0  0  0  0  0  0  0  0  0  0  0
  -24.7180  -15.9710   20.3200 H   0  0  0  0  0  0  0  0  0  0  0  0
  -26.3260  -15.7170   19.8770 H   0  0  0  0  0  0  0  0  0  0  0  0
  -29.2670  -22.9720   19.7810 C   0  0  0  0  0  3  0  0  0  0  0  0
  -28.1570  -24.3300   19.4890 C   0  0  0  0  0  3  0  0  0  0  0  0
  -28.3610  -25.9460   19.6300 O   0  0  0  0  0  0  0  0  0  0  0  0
  -24.7280  -31.5960   22.9970 C   0  0  0  0  0  0  0  0  0  0  0  0
  -27.3150  -26.9960   19.6430 C   0  0  0  0  0  0  0  0  0  0  0  0
  -23.5300  -30.2900   21.2880 C   0  0  0  0  0  3  0  0  0  0  0  0
  -24.9810  -28.8070   19.7450 C   0  0  0  0  0  0  0  0  0  0  0  0
  -26.0870  -30.5610   21.1170 C   0  0  0  0  0  2  0  0  0  0  0  0
  -26.1690  -29.2020   20.3710 C   0  0  0  0  0  0  0  0  0  0  0  0
  -27.3320  -28.3190   20.2950 C   0  0  0  0  0  3  0  0  0  0  0  0
  -26.0930  -26.7410   18.9830 C   0  0  0  0  0  3  0  0  0  0  0  0
  -24.9640  -27.5980   19.0310 C   0  0  0  0  0  3  0  0  0  0  0  0
  -23.7480  -29.7000   19.8670 C   0  0  0  0  0  2  0  0  0  0  0  0
  -24.8030  -30.8380   21.8560 N   0  0  0  0  0  0  0  0  0  0  0  0
  -23.6440  -31.8340   23.5530 O   0  0  0  0  0  0  0  0  0  0  0  0
  -22.8650  -29.2220   22.1950 C   0  0  0  0  0  0  0  0  0  0  0  0
  -21.5320  -29.0640   22.0950 N   0  0  0  0  0  0  0  0  0  0  0  0
  -23.5530  -28.5400   22.9570 O   0  0  0  0  0  0  0  0  0  0  0  0
  -21.0290  -29.6680   21.4590 H   0  0  0  0  0  0  0  0  0  0  0  0
  -18.1640  -27.8240   22.6120 C   0  0  0  0  0  0  0  0  0  0  0  0
  -20.7310  -28.0700   22.8160 C   0  0  0  0  0  3  0  0  0  0  0  0
  -20.8130  -26.6860   22.1320 C   0  0  0  0  0  2  0  0  0  0  0  0
  -19.6800  -26.4410   21.1300 C   0  0  0  0  0  2  0  0  0  0  0  0
  -18.3180  -26.5320   21.8260 C   0  0  0  0  0  2  0  0  0  0  0  0
  -19.2960  -28.5540   23.0620 C   0  0  0  0  0  0  0  0  0  0  0  0
  -19.0950  -29.7630   23.7630 C   0  0  0  0  0  3  0  0  0  0  0  0
  -17.7960  -30.2430   24.0140 C   0  0  0  0  0  3  0  0  0  0  0  0
  -16.6790  -29.5100   23.5760 C   0  0  0  0  0  3  0  0  0  0  0  0
  -16.8640  -28.3020   22.8810 C   0  0  0  0  0  3  0  0  0  0  0  0
  -26.0020  -32.2130   23.6520 C   0  0  0  0  0  3  0  0  0  0  0  0
  -25.6550  -33.5630   24.1280 N   0  0  0  0  0  0  0  0  0  0  0  0
  -25.9280  -34.7010   23.4760 C   0  0  0  0  0  0  0  0  0  0  0  0
  -26.5610  -34.7240   22.4180 O   0  0  0  0  0  0  0  0  0  0  0  0
  -25.0830  -33.6140   24.9590 H   0  0  0  0  0  0  0  0  0  0  0  0
  -24.1280  -36.4600   23.3880 C   0  0  0  0  0  1  0  0  0  0  0  0
  -25.4220  -36.0200   24.0930 C   0  0  0  0  0  3  0  0  0  0  0  0
  -27.5690  -36.9000   24.9010 C   0  0  0  0  0  1  0  0  0  0  0  0
  -26.4130  -37.1180   24.0350 N   0  0  0  0  0  0  0  0  0  0  0  0
  -25.9850  -38.0030   24.2950 H   0  0  0  0  0  0  0  0  0  0  0  0
  -26.5670  -31.3450   24.8440 C   0  0  1  0  0  0  0  0  0  0  0  0
  -25.5070  -30.9910   25.9140 C   0  0  0  0  0  1  0  0  0  0  0  0
  -27.1670  -30.0170   24.3260 C   0  0  0  0  0  1  0  0  0  0  0  0
  -27.7170  -32.1060   25.5450 C   0  0  0  0  0  1  0  0  0  0  0  0
  1  7  1  0
  1 17  1  0
  2  7  1  0
  3  4  1  0
  3  2  1  0
  5  4  1  0
  5 22  1  0
  5  6  1  0
  7  6  1  0
  8  1  2  0
 10  9  1  0
 10 14  1  0
 11 10  2  0
 12 16  2  0
 12 11  1  0
 13 17  1  0
 13  9  2  0
 15 12  1  0
 16 13  1  0
 17 18  1  0
 19 20  2  0
 20 21  1  0
 20 39  1  0
 21 24  1  0
 22 19  1  0
 22 23  1  0
 23 21  2  0
 24 25  1  0
 25 26  2  0
 27 30  1  0
 27 26  1  0
 28 27  2  0
 29 28  1  0
 29 24  2  0
 30 31  1  0
 31 32  1  0
 32 33  2  0
 34 33  1  0
 34 38  1  0
 35 34  2  0
 36 31  2  0
 36 35  1  0
 37 36  1  0
 39 40  1  0
 40 43  1  0
 40 42  1  0
 41 39  2  0
 44 45  1  0
 44 19  1  0
 46 44  1  0
 47 11  1  0
 48 49  1  0
 48 47  2  0
 49 51  1  0
 50 61  2  0
 51 56  1  0
 52 60  1  0
 52 62  1  0
 53 59  1  0
 53 55  1  0
 54 60  1  0
 55 54  1  0
 56 55  2  0
 57 58  1  0
 57 51  2  0
 58 53  2  0
 59 52  1  0
 60 50  1  0
 62 64  2  0
 63 62  1  0
 65 63  1  0
 66 75  2  0
 66 71  1  0
 67 63  1  0
 67 71  1  0
 68 67  1  0
 69 70  1  0
 69 68  1  0
 70 66  1  0
 71 72  2  0
 72 73  1  0
 74 73  2  0
 75 74  1  0
 76 50  1  0
 76 77  1  0
 76 86  1  0
 77 80  1  0
 78 82  1  0
 78 77  1  0
 79 78  2  0
 82 81  1  0
 84 82  1  0
 84 85  1  0
 84 83  1  0
 86 89  1  1
 86 87  1  0
 88 86  1  0
M  ISO  4   1 100  17 100  48 101  49 101
M  END
>  <TORSDO>  (78) 
F 17

>  <SCORE>  (78) 
-13.688

>  <name>  (78) 
77

>  <ligand_id>  (78) 
77

>  <original_smiles>  (78) 
[H]c1c([H])c([H])c2c(c1[H])C([H])([H])C([H])([H])C([H])([H])C2([H])N([H])C(=O)C1([H])N(C(=O)C([H])(N([H])C(=O)C([H])(N([H])C([H])([H])[H])C([H])([H])[H])C(C([H])([H])[H])(C([H])([H])[H])C([H])([H])[H])C([H])([H])c2c([H])c(OC([H])([H])C([H])([H])c3c(C([H])([H])[H])nc(N([H])C(=O)N4C([H])([H])C([H])([H])C([H])([H])C([H])(n5nc(-c6c([H])c([H])c(Oc7c([H])c([H])c(F)c([H])c7F)c([H])c6[H])c(C(=O)N([H])[H])c5N([H])[H])C4([H])[H])c([H])c3C([H])([H])[H])c([H])c([H])c2C1([H])[H]

>  <smiles>  (78) 
[H]c1c([H])c([H])c2c(c1[H])C([H])([H])C([H])([H])C([H])([H])C2([H])N([H])C(=O)C1([H])N(C(=O)C([H])(N([H])C(=O)C([H])(N([H])C([H])([H])[H])C([H])([H])[H])C(C([H])([H])[H])(C([H])([H])[H])C([H])([H])[H])C([H])([H])c2c([H])c(OC([H])([H])C([H])([H])c3c(C([H])([H])[H])nc(N([H])C(=O)N4C([H])([H])C([H])([H])C([H])([H])C([H])(n5nc(-c6c([H])c([H])c(Oc7c([H])c([H])c(F)c([H])c7F)c([H])c6[H])c(C(=O)N([H])[H])c5N([H])[H])C4([H])[H])c([H])c3C([H])([H])[H])c([H])c([H])c2C1([H])[H]

$$$$
78:0:0
     RDKit          3D

103111  0  0  1  0  0  0  0  0999 V2000
  -25.8020  -23.2960   20.2690 C   0  0  0  0  0  0  0  0  0  0  0  0
  -27.1150  -23.2840   20.8280 C   0  0  0  0  0  0  0  0  0  0  0  0
  -25.4380  -24.4120   19.4730 C   0  0  0  0  0  0  0  0  0  0  0  0
  -27.9600  -24.4030   20.5950 C   0  0  0  0  0  0  0  0  0  0  0  0
  -26.4460  -25.3420   19.1250 C   0  0  0  0  0  0  0  0  0  0  0  0
  -27.5940  -22.1190   21.6910 C   0  0  0  0  0  1  0  0  0  0  0  0
  -27.6920  -25.2910   19.6230 N   0  0  0  0  0  0  0  0  0  0  0  0
  -26.0840  -26.7360   18.1670 Cl  0  0  0  0  0  0  0  0  0  0  0  0
  -29.1860  -24.7510   21.4770 C   0  0  0  0  0  2  0  0  0  0  0  0
  -29.6730  -26.1150   21.4230 O   0  0  0  0  0  0  0  0  0  0  0  0
  -26.6480  -30.4810   26.1990 C   0  0  0  0  0  0  0  0  0  0  0  0
  -28.7460  -27.1040   21.6900 C   0  0  0  0  0  0  0  0  0  0  0  0
  -25.4880  -30.2490   24.0350 C   0  0  0  0  0  3  0  0  0  0  0  0
  -26.8110  -29.1000   22.1920 C   0  0  0  0  0  0  0  0  0  0  0  0
  -28.0260  -29.9300   24.1970 C   0  0  0  0  0  2  0  0  0  0  0  0
  -27.9230  -28.9730   23.0340 C   0  0  0  0  0  0  0  0  0  0  0  0
  -28.8920  -27.9720   22.7940 C   0  0  0  0  0  3  0  0  0  0  0  0
  -27.6490  -27.3010   20.8260 C   0  0  0  0  0  3  0  0  0  0  0  0
  -26.6680  -28.2660   21.0780 C   0  0  0  0  0  3  0  0  0  0  0  0
  -25.7950  -30.1650   22.5190 C   0  0  0  0  0  2  0  0  0  0  0  0
  -26.7330  -30.2030   24.8700 N   0  0  0  0  0  0  0  0  0  0  0  0
  -25.5710  -30.8010   26.7240 O   0  0  0  0  0  0  0  0  0  0  0  0
  -24.4690  -29.1410   24.3950 C   0  0  0  0  0  0  0  0  0  0  0  0
  -23.2300  -29.2850   23.8940 N   0  0  0  0  0  0  0  0  0  0  0  0
  -24.8010  -28.1700   25.0800 O   0  0  0  0  0  0  0  0  0  0  0  0
  -23.0390  -30.1090   23.3440 H   0  0  0  0  0  0  0  0  0  0  0  0
  -19.8080  -28.6390   22.9440 C   0  0  0  0  0  0  0  0  0  0  0  0
  -22.1130  -28.3600   24.0760 C   0  0  0  0  0  3  0  0  0  0  0  0
  -22.2860  -27.1050   23.1920 C   0  0  0  0  0  2  0  0  0  0  0  0
  -21.5960  -27.2320   21.8310 C   0  0  0  0  0  2  0  0  0  0  0  0
  -20.0930  -27.4760   22.0060 C   0  0  0  0  0  2  0  0  0  0  0  0
  -20.7640  -29.0660   23.9010 C   0  0  0  0  0  0  0  0  0  0  0  0
  -20.4650  -30.1800   24.7170 C   0  0  0  0  0  3  0  0  0  0  0  0
  -19.2380  -30.8560   24.5920 C   0  0  0  0  0  3  0  0  0  0  0  0
  -18.2870  -30.4180   23.6530 C   0  0  0  0  0  3  0  0  0  0  0  0
  -18.5720  -29.3100   22.8360 C   0  0  0  0  0  3  0  0  0  0  0  0
  -27.9070  -30.4280   27.1210 C   0  0  0  0  0  3  0  0  0  0  0  0
  -27.7980  -31.5380   28.0760 N   0  0  0  0  0  0  0  0  0  0  0  0
  -28.4440  -32.7050   27.9570 C   0  0  0  0  0  0  0  0  0  0  0  0
  -29.2610  -32.9340   27.0610 O   0  0  0  0  0  0  0  0  0  0  0  0
  -27.1060  -31.4410   28.8030 H   0  0  0  0  0  0  0  0  0  0  0  0
  -27.1450  -34.8100   28.4130 C   0  0  0  0  0  1  0  0  0  0  0  0
  -28.1380  -33.7950   29.0020 C   0  0  0  0  0  3  0  0  0  0  0  0
  -30.2300  -33.6500   30.2810 C   0  0  0  0  0  1  0  0  0  0  0  0
  -29.3450  -34.5010   29.4880 N   0  0  0  0  0  0  0  0  0  0  0  0
  -29.0900  -35.3080   30.0520 H   0  0  0  0  0  0  0  0  0  0  0  0
  -28.0670  -29.0520   27.8740 C   0  0  1  0  0  0  0  0  0  0  0  0
  -26.7970  -28.6110   28.6400 C   0  0  0  0  0  1  0  0  0  0  0  0
  -28.4280  -27.9240   26.8800 C   0  0  0  0  0  1  0  0  0  0  0  0
  -29.2340  -29.1420   28.8830 C   0  0  0  0  0  1  0  0  0  0  0  0
  -24.7590  -22.2010   20.5670 C   0  0  0  0  0  2  0  0  0  0  0  0
  -23.8190  -22.0160   19.4420 N   0  0  0  0  0  4  0  0  0  0  0  0
  -24.3140  -21.5670   18.6940 H   0  0  0  0  0  0  0  0  0  0  0  0
  -23.5340  -22.9250   19.1160 H   0  0  0  0  0  0  0  0  0  0  0  0
  -22.6170  -21.2090   19.7620 C   0  0  0  0  0  2  0  0  0  0  0  0
  -21.4740  -21.3970   18.7410 C   0  0  0  0  0  2  0  0  0  0  0  0
  -21.8440  -21.0230   17.2880 C   0  0  0  0  0  2  0  0  0  0  0  0
  -22.3440  -22.2100   16.4410 C   0  0  0  0  0  2  0  0  0  0  0  0
  -22.5670  -21.8720   14.9590 C   0  0  0  0  0  2  0  0  0  0  0  0
  -22.6730  -23.1600   14.1310 C   0  0  0  0  0  2  0  0  0  0  0  0
  -23.1100  -22.9530   12.6660 C   0  0  0  0  0  2  0  0  0  0  0  0
  -22.4770  -23.9820   11.7120 C   0  0  0  0  0  2  0  0  0  0  0  0
  -20.0760  -24.6750   11.3770 C   0  0  0  0  0  0  0  0  0  0  0  0
  -17.6200  -24.9450   11.3530 C   0  0  0  0  0  2  0  0  0  0  0  0
  -17.1400  -26.2950   11.9130 C   0  0  0  0  0  2  0  0  0  0  0  0
  -17.0200  -26.2530   13.4460 C   0  0  0  0  0  2  0  0  0  0  0  0
  -18.2910  -25.6840   14.1220 C   0  0  0  0  0  3  0  0  0  0  0  0
  -18.6970  -24.3530   13.4630 C   0  0  0  0  0  2  0  0  0  0  0  0
  -18.8820  -24.5790   12.0120 N   0  0  0  0  0  0  0  0  0  0  0  0
  -20.2250  -25.1370   10.2420 O   0  0  0  0  0  0  0  0  0  0  0  0
  -21.0760  -24.1240   12.0680 N   0  0  0  0  0  0  0  0  0  0  0  0
  -20.8170  -23.7620   12.9720 H   0  0  0  0  0  0  0  0  0  0  0  0
  -18.9820  -25.8280   16.6020 C   0  0  0  0  0  0  0  0  0  0  0  0
  -18.2990  -25.5650   17.7580 C   0  0  0  0  0  0  0  0  0  0  0  0
  -17.0020  -25.1200   17.3550 C   0  0  0  0  0  0  0  0  0  0  0  0
  -18.1110  -25.5310   15.5660 N   0  0  0  0  0  0  0  0  0  0  0  0
  -16.9300  -25.0550   16.0320 N   0  0  0  0  0  0  0  0  0  0  0  0
  -15.8060  -24.8100   18.1470 C   0  0  0  0  0  0  0  0  0  0  0  0
  -14.9950  -23.6920   17.8500 C   0  0  0  0  0  3  0  0  0  0  0  0
  -13.8550  -23.4060   18.6340 C   0  0  0  0  0  3  0  0  0  0  0  0
  -13.5220  -24.2370   19.7290 C   0  0  0  0  0  0  0  0  0  0  0  0
  -14.3210  -25.3610   20.0050 C   0  0  0  0  0  3  0  0  0  0  0  0
  -15.4500  -25.6480   19.2220 C   0  0  0  0  0  3  0  0  0  0  0  0
  -12.4220  -24.0460   20.5330 O   0  0  0  0  0  0  0  0  0  0  0  0
  -11.8650  -22.8070   20.7080 C   0  0  0  0  0  0  0  0  0  0  0  0
  -12.6550  -21.6520   20.9020 C   0  0  0  0  0  3  0  0  0  0  0  0
  -12.0390  -20.4090   21.1480 C   0  0  0  0  0  3  0  0  0  0  0  0
  -10.6360  -20.3210   21.2140 C   0  0  0  0  0  0  0  0  0  0  0  0
   -9.8470  -21.4680   21.0300 C   0  0  0  0  0  3  0  0  0  0  0  0
  -10.4600  -22.7100   20.7800 C   0  0  0  0  0  0  0  0  0  0  0  0
   -9.6950  -23.8170   20.6220 F   0  0  0  0  0  0  0  0  0  0  0  0
  -10.0440  -19.1280   21.4610 F   0  0  0  0  0  0  0  0  0  0  0  0
  -18.7870  -25.7980   19.1590 C   0  0  0  0  0  0  0  0  0  0  0  0
  -18.3380  -24.9810   20.1070 N   0  0  0  0  0  0  0  0  0  0  0  0
  -19.6080  -26.6760   19.4160 O   0  0  0  0  0  0  0  0  0  0  0  0
  -17.6700  -24.2530   19.8990 H   0  0  0  0  0  0  0  0  0  0  0  0
  -18.6830  -25.0710   21.0540 H   0  0  0  0  0  0  0  0  0  0  0  0
  -20.2570  -26.3150   16.3360 N   0  0  0  0  0  0  0  0  0  0  0  0
  -20.9180  -26.5400   17.0670 H   0  0  0  0  0  0  0  0  0  0  0  0
  -20.6190  -26.4740   15.4060 H   0  0  0  0  0  0  0  0  0  0  0  0
  -23.9890  -24.6720   19.0720 C   0  0  0  0  0  2  0  0  0  0  0  0
  -21.6790  -25.2700   19.9890 C   0  0  0  0  0  1  0  0  0  0  0  0
  -23.1950  -25.3240   20.2230 C   0  0  0  0  0  2  0  0  0  0  0  0
  1 51  1  0
  1  2  1  0
  2  6  1  0
  3  1  2  0
  4  2  2  0
  4  9  1  0
  5  3  1  0
  5  7  2  0
  7  4  1  0
  8  5  1  0
 10  9  1  0
 10 12  1  0
 11 22  2  0
 12 17  1  0
 13 23  1  0
 13 21  1  0
 14 20  1  0
 14 16  1  0
 15 21  1  0
 16 15  1  0
 17 16  2  0
 18 19  1  0
 18 12  2  0
 19 14  2  0
 20 13  1  0
 21 11  1  0
 23 25  2  0
 24 23  1  0
 26 24  1  0
 27 32  1  0
 28 24  1  0
 29 28  1  0
 30 31  1  0
 30 29  1  0
 31 27  1  0
 32 28  1  0
 32 33  2  0
 34 33  1  0
 35 34  2  0
 36 27  2  0
 36 35  1  0
 37 11  1  0
 37 47  1  0
 37 38  1  0
 38 41  1  0
 39 38  1  0
 39 43  1  0
 40 39  2  0
 43 42  1  0
 43 45  1  0
 45 46  1  0
 45 44  1  0
 47 48  1  1
 47 50  1  0
 49 47  1  0
 52 55  1  0
 52 51  1  0
 53 52  1  0
 54 52  1  0
 56 55  1  0
 57 56  1  0
 58 57  1  0
 59 58  1  0
 60 59  1  0
 61 60  1  0
 62 71  1  0
 62 61  1  0
 63 69  1  0
 63 71  1  0
 64 65  1  0
 64 69  1  0
 65 66  1  0
 67 66  1  0
 67 76  1  0
 68 67  1  0
 69 68  1  0
 70 63  2  0
 71 72  1  0
 73 74  2  0
 74 93  1  0
 75 74  1  0
 75 78  1  0
 76 77  1  0
 76 73  1  0
 77 75  2  0
 78 83  1  0
 79 78  2  0
 79 80  1  0
 80 81  2  0
 81 82  1  0
 81 84  1  0
 83 82  2  0
 84 85  1  0
 85 90  2  0
 85 86  1  0
 86 87  2  0
 87 88  1  0
 88 92  1  0
 89 88  2  0
 90 89  1  0
 91 90  1  0
 93 95  2  0
 93 94  1  0
 94 97  1  0
 96 94  1  0
 98 73  1  0
 98 99  1  0
100 98  1  0
101  3  1  0
101103  1  0
102103  1  0
M  ISO  4   9 101  10 101  63 100  71 100
M  END
>  <TORSDO>  (79) 
F 29

>  <SCORE>  (79) 
8.419

>  <name>  (79) 
78

>  <ligand_id>  (79) 
78

>  <original_smiles>  (79) 
[H]c1c([H])c([H])c2c(c1[H])C([H])([H])C([H])([H])C([H])([H])C2([H])N([H])C(=O)C1([H])N(C(=O)C([H])(N([H])C(=O)C([H])(N([H])C([H])([H])[H])C([H])([H])[H])C(C([H])([H])[H])(C([H])([H])[H])C([H])([H])[H])C([H])([H])c2c([H])c(OC([H])([H])c3nc(Cl)c(C([H])([H])C([H])([H])C([H])([H])[H])c(C([H])([H])[N+]([H])([H])C([H])([H])C([H])([H])C([H])([H])C([H])([H])C([H])([H])C([H])([H])C([H])([H])C([H])([H])N([H])C(=O)N4C([H])([H])C([H])([H])C([H])([H])C([H])(n5nc(-c6c([H])c([H])c(Oc7c([H])c([H])c(F)c([H])c7F)c([H])c6[H])c(C(=O)N([H])[H])c5N([H])[H])C4([H])[H])c3C([H])([H])[H])c([H])c([H])c2C1([H])[H]

>  <smiles>  (79) 
[H]c1c([H])c([H])c2c(c1[H])C([H])([H])C([H])([H])C([H])([H])C2([H])N([H])C(=O)C1([H])N(C(=O)C([H])(N([H])C(=O)C([H])(N([H])C([H])([H])[H])C([H])([H])[H])C(C([H])([H])[H])(C([H])([H])[H])C([H])([H])[H])C([H])([H])c2c([H])c(OC([H])([H])c3nc(Cl)c(C([H])([H])C([H])([H])C([H])([H])[H])c(C([H])([H])[N+]([H])([H])C([H])([H])C([H])([H])C([H])([H])C([H])([H])C([H])([H])C([H])([H])C([H])([H])C([H])([H])N([H])C(=O)N4C([H])([H])C([H])([H])C([H])([H])C([H])(n5nc(-c6c([H])c([H])c(Oc7c([H])c([H])c(F)c([H])c7F)c([H])c6[H])c(C(=O)N([H])[H])c5N([H])[H])C4([H])[H])c3C([H])([H])[H])c([H])c([H])c2C1([H])[H]

$$$$
79:0:0
     RDKit          3D

 96105  0  0  1  0  0  0  0  0999 V2000
  -31.6760  -18.4650   22.4850 C   0  0  0  0  0  3  0  0  0  0  0  0
  -31.4350  -17.0830   22.4300 C   0  0  0  0  0  3  0  0  0  0  0  0
  -30.9830  -19.3440   21.6240 C   0  0  0  0  0  0  0  0  0  0  0  0
  -30.0340  -18.8370   20.7060 C   0  0  0  0  0  0  0  0  0  0  0  0
  -30.4780  -16.5750   21.5330 C   0  0  0  0  0  0  0  0  0  0  0  0
  -29.7540  -17.4490   20.6880 C   0  0  0  0  0  0  0  0  0  0  0  0
  -31.2470  -20.8340   21.7270 C   0  0  0  0  0  2  0  0  0  0  0  0
  -29.3260  -19.7840   19.7440 C   0  0  0  0  0  2  0  0  0  0  0  0
  -30.0000  -21.6230   22.1570 C   0  0  0  0  0  2  0  0  0  0  0  0
  -28.3640  -20.7540   20.4370 C   0  0  0  0  0  2  0  0  0  0  0  0
  -29.0500  -21.9170   21.0520 N   0  0  1  0  0  4  0  0  0  0  0  0
  -28.5220  -16.8170   19.6490 Cl  0  0  0  0  0  0  0  0  0  0  0  0
  -29.6000  -22.3180   20.3070 H   0  0  0  0  0  0  0  0  0  0  0  0
  -30.6510  -14.4260   20.4630 C   0  0  0  0  0  0  0  0  0  0  0  0
  -30.2490  -12.3720   19.1660 C   0  0  0  0  0  2  0  0  0  0  0  0
  -29.2830  -12.6640   18.0010 C   0  0  0  0  0  2  0  0  0  0  0  0
  -27.8250  -12.4870   18.4620 C   0  0  0  0  0  2  0  0  0  0  0  0
  -27.5220  -13.2770   19.7590 C   0  0  0  0  0  3  0  0  0  0  0  0
  -28.6000  -13.0080   20.8360 C   0  0  0  0  0  2  0  0  0  0  0  0
  -29.9310  -13.2920   20.2660 N   0  0  0  0  0  0  0  0  0  0  0  0
  -31.6390  -14.7350   19.7870 O   0  0  0  0  0  0  0  0  0  0  0  0
  -30.2490  -15.1840   21.4880 N   0  0  0  0  0  0  0  0  0  0  0  0
  -29.4890  -14.8230   22.0430 H   0  0  0  0  0  0  0  0  0  0  0  0
  -25.1300  -13.8690   20.5060 C   0  0  0  0  0  0  0  0  0  0  0  0
  -24.0720  -13.0890   20.8800 C   0  0  0  0  0  0  0  0  0  0  0  0
  -24.5390  -11.7400   20.8270 C   0  0  0  0  0  0  0  0  0  0  0  0
  -26.1780  -12.9960   20.2540 N   0  0  0  0  0  0  0  0  0  0  0  0
  -25.8240  -11.7100   20.4980 N   0  0  0  0  0  0  0  0  0  0  0  0
  -23.8260  -10.4730   21.0190 C   0  0  0  0  0  0  0  0  0  0  0  0
  -24.2620   -9.5140   21.9610 C   0  0  0  0  0  3  0  0  0  0  0  0
  -23.5500   -8.3080   22.1370 C   0  0  0  0  0  3  0  0  0  0  0  0
  -22.3860   -8.0530   21.3760 C   0  0  0  0  0  0  0  0  0  0  0  0
  -21.9700   -8.9990   20.4230 C   0  0  0  0  0  3  0  0  0  0  0  0
  -22.6830  -10.1960   20.2430 C   0  0  0  0  0  3  0  0  0  0  0  0
  -21.6450   -6.8980   21.4620 O   0  0  0  0  0  0  0  0  0  0  0  0
  -21.5760   -6.1750   22.6260 C   0  0  0  0  0  0  0  0  0  0  0  0
  -21.0900   -6.7380   23.8270 C   0  0  0  0  0  3  0  0  0  0  0  0
  -20.9720   -5.9360   24.9820 C   0  0  0  0  0  3  0  0  0  0  0  0
  -21.3280   -4.5760   24.9340 C   0  0  0  0  0  0  0  0  0  0  0  0
  -21.8060   -4.0130   23.7390 C   0  0  0  0  0  3  0  0  0  0  0  0
  -21.9290   -4.8110   22.5880 C   0  0  0  0  0  0  0  0  0  0  0  0
  -22.3700   -4.2590   21.4300 F   0  0  0  0  0  0  0  0  0  0  0  0
  -21.2060   -3.8060   26.0410 F   0  0  0  0  0  0  0  0  0  0  0  0
  -22.6760  -13.5550   21.1870 C   0  0  0  0  0  0  0  0  0  0  0  0
  -21.9640  -12.8340   22.0450 N   0  0  0  0  0  0  0  0  0  0  0  0
  -22.2250  -14.5900   20.6960 O   0  0  0  0  0  0  0  0  0  0  0  0
  -22.3380  -11.9930   22.4590 H   0  0  0  0  0  0  0  0  0  0  0  0
  -21.0320  -13.1300   22.2970 H   0  0  0  0  0  0  0  0  0  0  0  0
  -25.2880  -15.2410   20.3410 N   0  0  0  0  0  0  0  0  0  0  0  0
  -24.5300  -15.8990   20.4900 H   0  0  0  0  0  0  0  0  0  0  0  0
  -26.1550  -15.6860   20.0600 H   0  0  0  0  0  0  0  0  0  0  0  0
  -28.1120  -23.0020   21.4220 C   0  0  0  0  0  2  0  0  0  0  0  0
  -28.5780  -24.3150   20.7870 C   0  0  0  0  0  2  0  0  0  0  0  0
  -28.6350  -25.4970   21.7660 C   0  0  0  0  0  2  0  0  0  0  0  0
  -29.1550  -26.7500   21.0580 C   0  0  0  0  0  2  0  0  0  0  0  0
  -28.3550  -26.9180   19.8950 O   0  0  0  0  0  0  0  0  0  0  0  0
  -24.5080  -31.9010   23.2250 C   0  0  0  0  0  0  0  0  0  0  0  0
  -27.1710  -27.5920   20.0420 C   0  0  0  0  0  0  0  0  0  0  0  0
  -23.2860  -30.5090   21.5760 C   0  0  0  0  0  3  0  0  0  0  0  0
  -24.7340  -29.0010   20.1230 C   0  0  0  0  0  0  0  0  0  0  0  0
  -25.7940  -30.9140   21.3440 C   0  0  0  0  0  2  0  0  0  0  0  0
  -25.8850  -29.5520   20.6990 C   0  0  0  0  0  0  0  0  0  0  0  0
  -27.1050  -28.8560   20.6580 C   0  0  0  0  0  3  0  0  0  0  0  0
  -26.0090  -27.0330   19.4720 C   0  0  0  0  0  3  0  0  0  0  0  0
  -24.7890  -27.7340   19.5100 C   0  0  0  0  0  3  0  0  0  0  0  0
  -23.4810  -29.8380   20.1890 C   0  0  0  0  0  2  0  0  0  0  0  0
  -24.5480  -31.1200   22.1090 N   0  0  0  0  0  0  0  0  0  0  0  0
  -23.4310  -32.1590   23.7840 O   0  0  0  0  0  0  0  0  0  0  0  0
  -22.6610  -29.4710   22.5330 C   0  0  0  0  0  0  0  0  0  0  0  0
  -21.3380  -29.2790   22.4170 N   0  0  0  0  0  0  0  0  0  0  0  0
  -23.3610  -28.8460   23.3340 O   0  0  0  0  0  0  0  0  0  0  0  0
  -20.8350  -29.8440   21.7480 H   0  0  0  0  0  0  0  0  0  0  0  0
  -17.9770  -28.0660   22.9390 C   0  0  0  0  0  0  0  0  0  0  0  0
  -20.5350  -28.3290   23.1840 C   0  0  0  0  0  3  0  0  0  0  0  0
  -20.6360  -26.9070   22.5860 C   0  0  0  0  0  2  0  0  0  0  0  0
  -19.5220  -26.5920   21.5820 C   0  0  0  0  0  2  0  0  0  0  0  0
  -18.1500  -26.7250   22.2430 C   0  0  0  0  0  2  0  0  0  0  0  0
  -19.0960  -28.8260   23.3660 C   0  0  0  0  0  0  0  0  0  0  0  0
  -18.8800  -30.0820   23.9710 C   0  0  0  0  0  3  0  0  0  0  0  0
  -17.5760  -30.5760   24.1580 C   0  0  0  0  0  3  0  0  0  0  0  0
  -16.4710  -29.8120   23.7470 C   0  0  0  0  0  3  0  0  0  0  0  0
  -16.6720  -28.5590   23.1440 C   0  0  0  0  0  3  0  0  0  0  0  0
  -25.8010  -32.5290   23.8320 C   0  0  0  0  0  3  0  0  0  0  0  0
  -26.3330  -31.7540   25.1010 C   0  0  1  0  0  0  0  0  0  0  0  0
  -25.2460  -31.5020   26.1730 C   0  0  0  0  0  1  0  0  0  0  0  0
  -26.9210  -30.3810   24.6940 C   0  0  0  0  0  1  0  0  0  0  0  0
  -27.4800  -32.5530   25.7600 C   0  0  0  0  0  1  0  0  0  0  0  0
  -25.5010  -33.9280   24.1620 N   0  0  0  0  0  0  0  0  0  0  0  0
  -25.8490  -34.9780   23.4060 C   0  0  0  0  0  0  0  0  0  0  0  0
  -26.5270  -34.8710   22.3800 O   0  0  0  0  0  0  0  0  0  0  0  0
  -24.8860  -34.0830   24.9460 H   0  0  0  0  0  0  0  0  0  0  0  0
  -24.1400  -36.7880   23.0180 C   0  0  0  0  0  1  0  0  0  0  0  0
  -25.3590  -36.3680   23.8560 C   0  0  0  0  0  3  0  0  0  0  0  0
  -27.4820  -37.2330   24.7400 C   0  0  0  0  0  1  0  0  0  0  0  0
  -26.4030  -37.4130   23.7730 N   0  0  0  0  0  0  0  0  0  0  0  0
  -26.0010  -38.3350   23.9160 H   0  0  0  0  0  0  0  0  0  0  0  0
  2  1  1  0
  3  7  1  0
  3  1  2  0
  4  3  1  0
  5  2  2  0
  6  4  2  0
  6  5  1  0
  7  9  1  0
  8 10  1  0
  8  4  1  0
 10 11  1  0
 11 52  1  0
 11  9  1  0
 12  6  1  0
 11 13  1  6
 14 22  1  0
 15 20  1  0
 16 17  1  0
 16 15  1  0
 18 17  1  0
 18 27  1  0
 18 19  1  0
 20 14  1  0
 20 19  1  0
 21 14  2  0
 22  5  1  0
 22 23  1  0
 24 25  2  0
 25 44  1  0
 26 25  1  0
 26 29  1  0
 27 28  1  0
 27 24  1  0
 28 26  2  0
 29 30  1  0
 30 31  2  0
 32 35  1  0
 32 31  1  0
 33 32  2  0
 34 33  1  0
 34 29  2  0
 35 36  1  0
 36 37  1  0
 37 38  2  0
 39 38  1  0
 39 43  1  0
 40 39  2  0
 41 36  2  0
 41 40  1  0
 42 41  1  0
 44 45  1  0
 45 48  1  0
 45 47  1  0
 46 44  2  0
 49 50  1  0
 49 24  1  0
 51 49  1  0
 53 52  1  0
 53 54  1  0
 55 54  1  0
 56 58  1  0
 56 55  1  0
 57 68  2  0
 58 63  1  0
 59 67  1  0
 59 69  1  0
 60 66  1  0
 60 62  1  0
 61 67  1  0
 62 61  1  0
 63 62  2  0
 64 65  1  0
 64 58  2  0
 65 60  2  0
 66 59  1  0
 67 57  1  0
 69 71  2  0
 70 69  1  0
 72 70  1  0
 73 82  2  0
 73 78  1  0
 74 70  1  0
 74 78  1  0
 75 74  1  0
 76 77  1  0
 76 75  1  0
 77 73  1  0
 78 79  2  0
 79 80  1  0
 81 80  2  0
 82 81  1  0
 83 57  1  0
 83 88  1  0
 83 84  1  0
 84 87  1  1
 84 85  1  0
 86 84  1  0
 88 91  1  0
 89 93  1  0
 89 88  1  0
 90 89  2  0
 93 92  1  0
 95 93  1  0
 95 96  1  0
 95 94  1  0
M  ISO  4  14 100  22 100  55 101  56 101
M  END
>  <TORSDO>  (80) 
F 20

>  <SCORE>  (80) 
-13.764

>  <name>  (80) 
79

>  <ligand_id>  (80) 
79

>  <original_smiles>  (80) 
[H]c1c([H])c([H])c2c(c1[H])C([H])([H])C([H])([H])C([H])([H])C2([H])N([H])C(=O)C1([H])N(C(=O)C([H])(N([H])C(=O)C([H])(N([H])C([H])([H])[H])C([H])([H])[H])C(C([H])([H])[H])(C([H])([H])[H])C([H])([H])[H])C([H])([H])c2c([H])c(OC([H])([H])C([H])([H])C([H])([H])C([H])([H])[N+]3([H])C([H])([H])C([H])([H])c4c([H])c([H])c(N([H])C(=O)N5C([H])([H])C([H])([H])C([H])([H])C([H])(n6nc(-c7c([H])c([H])c(Oc8c([H])c([H])c(F)c([H])c8F)c([H])c7[H])c(C(=O)N([H])[H])c6N([H])[H])C5([H])[H])c(Cl)c4C([H])([H])C3([H])[H])c([H])c([H])c2C1([H])[H]

>  <smiles>  (80) 
[H]c1c([H])c([H])c2c(c1[H])C([H])([H])C([H])([H])C([H])([H])C2([H])N([H])C(=O)C1([H])N(C(=O)C([H])(N([H])C(=O)C([H])(N([H])C([H])([H])[H])C([H])([H])[H])C(C([H])([H])[H])(C([H])([H])[H])C([H])([H])[H])C([H])([H])c2c([H])c(OC([H])([H])C([H])([H])C([H])([H])C([H])([H])[N+]3([H])C([H])([H])C([H])([H])c4c([H])c([H])c(N([H])C(=O)N5C([H])([H])C([H])([H])C([H])([H])C([H])(n6nc(-c7c([H])c([H])c(Oc8c([H])c([H])c(F)c([H])c8F)c([H])c7[H])c(C(=O)N([H])[H])c6N([H])[H])C5([H])[H])c(Cl)c4C([H])([H])C3([H])[H])c([H])c([H])c2C1([H])[H]

$$$$
80:0:0
     RDKit          3D

 90 98  0  0  1  0  0  0  0  0999 V2000
  -30.7500  -18.2610   21.5350 C   0  0  0  0  0  0  0  0  0  0  0  0
  -29.7660  -17.8790   20.5810 C   0  0  0  0  0  0  0  0  0  0  0  0
  -31.0180  -19.6400   21.7410 C   0  0  0  0  0  0  0  0  0  0  0  0
  -29.2880  -20.3540   20.4110 C   0  0  0  0  0  0  0  0  0  0  0  0
  -31.4870  -17.2480   22.4100 C   0  0  0  0  0  1  0  0  0  0  0  0
  -29.0210  -19.0050   20.0950 N   0  0  0  0  0  0  0  0  0  0  0  0
  -30.3070  -20.6420   21.1950 N   0  0  0  0  0  0  0  0  0  0  0  0
  -32.3120  -20.1430   22.7730 Cl  0  0  0  0  0  0  0  0  0  0  0  0
  -30.3250  -15.1870   20.0970 C   0  0  0  0  0  0  0  0  0  0  0  0
  -30.1960  -12.8500   19.0730 C   0  0  0  0  0  2  0  0  0  0  0  0
  -29.2050  -12.8320   17.8870 C   0  0  0  0  0  2  0  0  0  0  0  0
  -27.7630  -12.5890   18.3770 C   0  0  0  0  0  2  0  0  0  0  0  0
  -27.4080  -13.4550   19.6140 C   0  0  0  0  0  3  0  0  0  0  0  0
  -28.5200  -13.4450   20.6790 C   0  0  0  0  0  2  0  0  0  0  0  0
  -29.7460  -13.9150   20.0190 N   0  0  0  0  0  0  0  0  0  0  0  0
  -31.5170  -15.2480   19.7610 O   0  0  0  0  0  0  0  0  0  0  0  0
  -29.5280  -16.3680   20.3060 N   0  0  0  0  0  0  0  0  0  0  0  0
  -28.5470  -16.1480   20.2630 H   0  0  0  0  0  0  0  0  0  0  0  0
  -25.0670  -13.9550   20.5030 C   0  0  0  0  0  0  0  0  0  0  0  0
  -24.0400  -13.1470   20.9070 C   0  0  0  0  0  0  0  0  0  0  0  0
  -24.5250  -11.8080   20.8020 C   0  0  0  0  0  0  0  0  0  0  0  0
  -26.1090  -13.1060   20.1750 N   0  0  0  0  0  0  0  0  0  0  0  0
  -25.7980  -11.8070   20.4180 N   0  0  0  0  0  0  0  0  0  0  0  0
  -23.8310  -10.5270   20.9900 C   0  0  0  0  0  0  0  0  0  0  0  0
  -24.2910   -9.5630   21.9130 C   0  0  0  0  0  3  0  0  0  0  0  0
  -23.5940   -8.3480   22.0870 C   0  0  0  0  0  3  0  0  0  0  0  0
  -22.4190   -8.0920   21.3420 C   0  0  0  0  0  0  0  0  0  0  0  0
  -21.9770   -9.0460   20.4080 C   0  0  0  0  0  3  0  0  0  0  0  0
  -22.6760  -10.2520   20.2320 C   0  0  0  0  0  3  0  0  0  0  0  0
  -21.6880   -6.9330   21.4310 O   0  0  0  0  0  0  0  0  0  0  0  0
  -21.6270   -6.2050   22.5930 C   0  0  0  0  0  0  0  0  0  0  0  0
  -21.0940   -6.7440   23.7850 C   0  0  0  0  0  3  0  0  0  0  0  0
  -20.9890   -5.9380   24.9360 C   0  0  0  0  0  3  0  0  0  0  0  0
  -21.4020   -4.5950   24.8960 C   0  0  0  0  0  0  0  0  0  0  0  0
  -21.9250   -4.0530   23.7090 C   0  0  0  0  0  3  0  0  0  0  0  0
  -22.0340   -4.8550   22.5600 C   0  0  0  0  0  0  0  0  0  0  0  0
  -22.5190   -4.3210   21.4130 F   0  0  0  0  0  0  0  0  0  0  0  0
  -21.2940   -3.8190   26.0000 F   0  0  0  0  0  0  0  0  0  0  0  0
  -22.6520  -13.5880   21.2660 C   0  0  0  0  0  0  0  0  0  0  0  0
  -21.9790  -12.8530   22.1450 N   0  0  0  0  0  0  0  0  0  0  0  0
  -22.1750  -14.6230   20.8030 O   0  0  0  0  0  0  0  0  0  0  0  0
  -22.3790  -12.0170   22.5430 H   0  0  0  0  0  0  0  0  0  0  0  0
  -21.0490  -13.1330   22.4230 H   0  0  0  0  0  0  0  0  0  0  0  0
  -25.1950  -15.3320   20.3610 N   0  0  0  0  0  0  0  0  0  0  0  0
  -24.4020  -15.9520   20.4880 H   0  0  0  0  0  0  0  0  0  0  0  0
  -25.9940  -15.7970   19.9500 H   0  0  0  0  0  0  0  0  0  0  0  0
  -28.3780  -21.6930   20.0210 C   0  0  0  0  0  2  0  0  0  0  0  0
  -28.8020  -23.3430   20.2300 C   0  0  0  0  0  3  0  0  0  0  0  0
  -27.8190  -24.7200   19.9670 C   0  0  0  0  0  3  0  0  0  0  0  0
  -28.1270  -26.2590   20.1600 O   0  0  0  0  0  0  0  0  0  0  0  0
  -24.6500  -31.9990   23.3070 C   0  0  0  0  0  0  0  0  0  0  0  0
  -27.0970  -27.2840   20.1310 C   0  0  0  0  0  0  0  0  0  0  0  0
  -23.4020  -30.6450   21.6710 C   0  0  0  0  0  3  0  0  0  0  0  0
  -24.8000  -29.0820   20.1810 C   0  0  0  0  0  0  0  0  0  0  0  0
  -25.9570  -30.8790   21.4570 C   0  0  0  0  0  2  0  0  0  0  0  0
  -25.9990  -29.4960   20.7740 C   0  0  0  0  0  0  0  0  0  0  0  0
  -27.1480  -28.6140   20.7300 C   0  0  0  0  0  3  0  0  0  0  0  0
  -25.8710  -26.9840   19.5000 C   0  0  0  0  0  3  0  0  0  0  0  0
  -24.7490  -27.8430   19.5270 C   0  0  0  0  0  3  0  0  0  0  0  0
  -23.5870  -29.9960   20.2720 C   0  0  0  0  0  2  0  0  0  0  0  0
  -24.6920  -31.1970   22.2000 N   0  0  0  0  0  0  0  0  0  0  0  0
  -23.5780  -32.2810   23.8660 O   0  0  0  0  0  0  0  0  0  0  0  0
  -22.7360  -29.6270   22.6290 C   0  0  0  0  0  0  0  0  0  0  0  0
  -21.4140  -29.4190   22.4880 N   0  0  0  0  0  0  0  0  0  0  0  0
  -23.4120  -29.0270   23.4680 O   0  0  0  0  0  0  0  0  0  0  0  0
  -20.9220  -29.9580   21.7890 H   0  0  0  0  0  0  0  0  0  0  0  0
  -18.0710  -28.0870   22.9180 C   0  0  0  0  0  0  0  0  0  0  0  0
  -20.6090  -28.4650   23.2540 C   0  0  0  0  0  3  0  0  0  0  0  0
  -20.7870  -27.0270   22.7170 C   0  0  0  0  0  2  0  0  0  0  0  0
  -19.7320  -26.6340   21.6770 C   0  0  0  0  0  2  0  0  0  0  0  0
  -18.3260  -26.7340   22.2750 C   0  0  0  0  0  2  0  0  0  0  0  0
  -19.1440  -28.9070   23.3630 C   0  0  0  0  0  0  0  0  0  0  0  0
  -18.8510  -30.1690   23.9230 C   0  0  0  0  0  3  0  0  0  0  0  0
  -17.5200  -30.6110   24.0470 C   0  0  0  0  0  3  0  0  0  0  0  0
  -16.4630  -29.7920   23.6150 C   0  0  0  0  0  3  0  0  0  0  0  0
  -16.7390  -28.5330   23.0520 C   0  0  0  0  0  3  0  0  0  0  0  0
  -25.9450  -32.6140   23.9180 C   0  0  0  0  0  3  0  0  0  0  0  0
  -26.4510  -31.8460   25.2020 C   0  0  1  0  0  0  0  0  0  0  0  0
  -25.3540  -31.6280   26.2680 C   0  0  0  0  0  1  0  0  0  0  0  0
  -27.0250  -30.4610   24.8230 C   0  0  0  0  0  1  0  0  0  0  0  0
  -27.6050  -32.6370   25.8610 C   0  0  0  0  0  1  0  0  0  0  0  0
  -25.6610  -34.0210   24.2470 N   0  0  0  0  0  0  0  0  0  0  0  0
  -25.9830  -35.0680   23.4760 C   0  0  0  0  0  0  0  0  0  0  0  0
  -26.6190  -34.9530   22.4260 O   0  0  0  0  0  0  0  0  0  0  0  0
  -25.0960  -34.1880   25.0660 H   0  0  0  0  0  0  0  0  0  0  0  0
  -24.2690  -36.8880   23.1820 C   0  0  0  0  0  1  0  0  0  0  0  0
  -25.5350  -36.4650   23.9470 C   0  0  0  0  0  3  0  0  0  0  0  0
  -27.7010  -37.3380   24.7090 C   0  0  0  0  0  1  0  0  0  0  0  0
  -26.5760  -37.5050   23.7930 N   0  0  0  0  0  0  0  0  0  0  0  0
  -26.1820  -38.4310   23.9350 H   0  0  0  0  0  0  0  0  0  0  0  0
  1  3  1  0
  1  5  1  0
  2  1  2  0
  3  8  1  0
  4  7  1  0
  6  4  2  0
  6  2  1  0
  7  3  2  0
  9 17  1  0
 10 15  1  0
 11 12  1  0
 11 10  1  0
 13 12  1  0
 13 22  1  0
 13 14  1  0
 15  9  1  0
 15 14  1  0
 16  9  2  0
 17  2  1  0
 18 17  1  0
 19 20  2  0
 20 39  1  0
 21 20  1  0
 21 24  1  0
 22 23  1  0
 22 19  1  0
 23 21  2  0
 24 25  1  0
 25 26  2  0
 27 30  1  0
 27 26  1  0
 28 27  2  0
 29 28  1  0
 29 24  2  0
 30 31  1  0
 31 32  1  0
 32 33  2  0
 34 33  1  0
 34 38  1  0
 35 34  2  0
 36 31  2  0
 36 35  1  0
 37 36  1  0
 39 40  1  0
 40 43  1  0
 40 42  1  0
 41 39  2  0
 44 45  1  0
 44 19  1  0
 46 44  1  0
 47 48  1  0
 47  4  1  0
 49 50  1  0
 49 48  2  0
 51 62  2  0
 52 50  1  0
 52 57  1  0
 53 61  1  0
 53 63  1  0
 54 60  1  0
 54 56  1  0
 55 61  1  0
 56 55  1  0
 57 56  2  0
 58 59  1  0
 58 52  2  0
 59 54  2  0
 60 53  1  0
 61 51  1  0
 63 65  2  0
 64 63  1  0
 66 64  1  0
 67 76  2  0
 67 72  1  0
 68 64  1  0
 68 72  1  0
 69 68  1  0
 70 71  1  0
 70 69  1  0
 71 67  1  0
 72 73  2  0
 73 74  1  0
 75 74  2  0
 76 75  1  0
 77 51  1  0
 77 82  1  0
 77 78  1  0
 78 81  1  1
 78 79  1  0
 80 78  1  0
 82 85  1  0
 83 87  1  0
 83 82  1  0
 84 83  2  0
 87 86  1  0
 89 90  1  0
 89 87  1  0
 89 88  1  0
M  ISO  4   9 100  17 100  49 101  50 101
M  END
>  <TORSDO>  (81) 
F 19

>  <SCORE>  (81) 
-15.197

>  <name>  (81) 
80

>  <ligand_id>  (81) 
80

>  <original_smiles>  (81) 
[H]c1c([H])c([H])c2c(c1[H])C([H])([H])C([H])([H])C([H])([H])C2([H])N([H])C(=O)C1([H])N(C(=O)C([H])(N([H])C(=O)C([H])(N([H])C([H])([H])[H])C([H])([H])[H])C(C([H])([H])[H])(C([H])([H])[H])C([H])([H])[H])C([H])([H])c2c([H])c(OC([H])([H])C([H])([H])C([H])([H])c3nc(Cl)c(C([H])([H])[H])c(N([H])C(=O)N4C([H])([H])C([H])([H])C([H])([H])C([H])(n5nc(-c6c([H])c([H])c(Oc7c([H])c([H])c(F)c([H])c7F)c([H])c6[H])c(C(=O)N([H])[H])c5N([H])[H])C4([H])[H])n3)c([H])c([H])c2C1([H])[H]

>  <smiles>  (81) 
[H]c1c([H])c([H])c2c(c1[H])C([H])([H])C([H])([H])C([H])([H])C2([H])N([H])C(=O)C1([H])N(C(=O)C([H])(N([H])C(=O)C([H])(N([H])C([H])([H])[H])C([H])([H])[H])C(C([H])([H])[H])(C([H])([H])[H])C([H])([H])[H])C([H])([H])c2c([H])c(OC([H])([H])C([H])([H])C([H])([H])c3nc(Cl)c(C([H])([H])[H])c(N([H])C(=O)N4C([H])([H])C([H])([H])C([H])([H])C([H])(n5nc(-c6c([H])c([H])c(Oc7c([H])c([H])c(F)c([H])c7F)c([H])c6[H])c(C(=O)N([H])[H])c5N([H])[H])C4([H])[H])n3)c([H])c([H])c2C1([H])[H]

$$$$
81:0:0
     RDKit          3D

100109  0  0  1  0  0  0  0  0999 V2000
  -33.1220  -18.6440   21.9050 C   0  0  0  0  0  2  0  0  0  0  0  0
  -30.9820  -19.3190   22.9350 C   0  0  0  0  0  2  0  0  0  0  0  0
  -32.4270  -17.6040   21.0110 C   0  0  0  0  0  2  0  0  0  0  0  0
  -30.2030  -18.2820   22.1120 C   0  0  0  0  0  2  0  0  0  0  0  0
  -32.2150  -19.8500   22.1770 C   0  0  0  0  0  3  0  0  0  0  0  0
  -31.0610  -17.0900   21.5710 C   0  0  0  0  0  3  0  0  0  0  0  0
  -30.9230  -14.9890   20.3020 C   0  0  0  0  0  0  0  0  0  0  0  0
  -30.4620  -12.9390   19.0150 C   0  0  0  0  0  2  0  0  0  0  0  0
  -29.4830  -13.2060   17.8590 C   0  0  0  0  0  2  0  0  0  0  0  0
  -28.0320  -13.0420   18.3440 C   0  0  0  0  0  2  0  0  0  0  0  0
  -27.7410  -13.8000   19.6660 C   0  0  0  0  0  3  0  0  0  0  0  0
  -28.8520  -13.5900   20.7170 C   0  0  0  0  0  2  0  0  0  0  0  0
  -30.1350  -13.9020   20.0770 N   0  0  0  0  0  0  0  0  0  0  0  0
  -32.1150  -14.9620   20.0020 O   0  0  0  0  0  0  0  0  0  0  0  0
  -30.3410  -16.1940   20.5980 N   0  0  0  0  0  0  0  0  0  0  0  0
  -28.0790  -17.0210   20.0710 C   0  0  0  0  0  3  0  0  0  0  0  0
  -27.5370  -18.1830   17.9970 C   0  0  0  0  0  0  0  0  0  0  0  0
  -29.4210  -16.8190   19.6690 C   0  0  0  0  0  0  0  0  0  0  0  0
  -27.1630  -17.7280   19.2710 C   0  0  0  0  0  0  0  0  0  0  0  0
  -28.8540  -17.9560   17.5520 C   0  0  0  0  0  0  0  0  0  0  0  0
  -29.8020  -17.3140   18.3830 C   0  0  0  0  0  0  0  0  0  0  0  0
  -26.5370  -18.9160   17.1190 C   0  0  0  0  0  1  0  0  0  0  0  0
  -25.9080  -17.9560   19.7290 F   0  0  0  0  0  0  0  0  0  0  0  0
  -29.2180  -18.3880   16.3190 F   0  0  0  0  0  0  0  0  0  0  0  0
  -31.4210  -17.2250   17.7790 Cl  0  0  0  0  0  0  0  0  0  0  0  0
  -25.3770  -14.3490   20.5010 C   0  0  0  0  0  0  0  0  0  0  0  0
  -24.3230  -13.5560   20.8480 C   0  0  0  0  0  0  0  0  0  0  0  0
  -24.7910  -12.2140   20.7310 C   0  0  0  0  0  0  0  0  0  0  0  0
  -26.4180  -13.4920   20.1870 N   0  0  0  0  0  0  0  0  0  0  0  0
  -26.0730  -12.1970   20.3900 N   0  0  0  0  0  0  0  0  0  0  0  0
  -24.0750  -10.9450   20.8670 C   0  0  0  0  0  0  0  0  0  0  0  0
  -24.4920   -9.9610   21.7890 C   0  0  0  0  0  3  0  0  0  0  0  0
  -23.7730   -8.7530   21.9140 C   0  0  0  0  0  3  0  0  0  0  0  0
  -22.6260   -8.5250   21.1200 C   0  0  0  0  0  0  0  0  0  0  0  0
  -22.2290   -9.4990   20.1870 C   0  0  0  0  0  3  0  0  0  0  0  0
  -22.9480  -10.6970   20.0590 C   0  0  0  0  0  3  0  0  0  0  0  0
  -21.8810   -7.3730   21.1590 O   0  0  0  0  0  0  0  0  0  0  0  0
  -21.7470   -6.6440   22.3110 C   0  0  0  0  0  0  0  0  0  0  0  0
  -21.2380   -7.2130   23.4990 C   0  0  0  0  0  3  0  0  0  0  0  0
  -21.0550   -6.4090   24.6420 C   0  0  0  0  0  3  0  0  0  0  0  0
  -21.3670   -5.0360   24.5960 C   0  0  0  0  0  0  0  0  0  0  0  0
  -21.8670   -4.4670   23.4120 C   0  0  0  0  0  3  0  0  0  0  0  0
  -22.0540   -5.2700   22.2720 C   0  0  0  0  0  0  0  0  0  0  0  0
  -22.5170   -4.7130   21.1280 F   0  0  0  0  0  0  0  0  0  0  0  0
  -21.1810   -4.2630   25.6910 F   0  0  0  0  0  0  0  0  0  0  0  0
  -22.9340  -14.0180   21.1790 C   0  0  0  0  0  0  0  0  0  0  0  0
  -22.2420  -13.2900   22.0480 N   0  0  0  0  0  0  0  0  0  0  0  0
  -22.4750  -15.0560   20.7070 O   0  0  0  0  0  0  0  0  0  0  0  0
  -22.6320  -12.4490   22.4470 H   0  0  0  0  0  0  0  0  0  0  0  0
  -21.3130  -13.5790   22.3180 H   0  0  0  0  0  0  0  0  0  0  0  0
  -25.5070  -15.7230   20.4100 N   0  0  0  0  0  0  0  0  0  0  0  0
  -24.7260  -16.3420   20.5940 H   0  0  0  0  0  0  0  0  0  0  0  0
  -26.3180  -16.2120   20.0670 H   0  0  0  0  0  0  0  0  0  0  0  0
  -31.9130  -20.6250   20.8670 C   0  0  0  0  0  2  0  0  0  0  0  0
  -31.0060  -21.8510   21.0260 C   0  0  0  0  0  2  0  0  0  0  0  0
  -30.5880  -22.4480   19.6690 C   0  0  0  0  0  2  0  0  0  0  0  0
  -29.4080  -23.4220   19.8040 C   0  0  0  0  0  2  0  0  0  0  0  0
  -29.8290  -24.8740   20.0910 C   0  0  0  0  0  2  0  0  0  0  0  0
  -28.6870  -25.6840   20.7170 C   0  0  0  0  0  2  0  0  0  0  0  0
  -28.7350  -27.0370   20.2630 O   0  0  0  0  0  0  0  0  0  0  0  0
  -24.5830  -31.9190   23.3080 C   0  0  0  0  0  0  0  0  0  0  0  0
  -27.5280  -27.6940   20.2320 C   0  0  0  0  0  0  0  0  0  0  0  0
  -23.4990  -30.5080   21.5890 C   0  0  0  0  0  3  0  0  0  0  0  0
  -25.0700  -29.0750   20.1850 C   0  0  0  0  0  0  0  0  0  0  0  0
  -26.0080  -30.9890   21.4900 C   0  0  0  0  0  2  0  0  0  0  0  0
  -26.1780  -29.6380   20.8310 C   0  0  0  0  0  0  0  0  0  0  0  0
  -27.4120  -28.9540   20.8520 C   0  0  0  0  0  3  0  0  0  0  0  0
  -26.4070  -27.1490   19.5620 C   0  0  0  0  0  3  0  0  0  0  0  0
  -25.1780  -27.8280   19.5470 C   0  0  0  0  0  3  0  0  0  0  0  0
  -23.7880  -29.8780   20.2030 C   0  0  0  0  0  2  0  0  0  0  0  0
  -24.7130  -31.1500   22.1910 N   0  0  0  0  0  0  0  0  0  0  0  0
  -23.4720  -32.1310   23.8130 O   0  0  0  0  0  0  0  0  0  0  0  0
  -22.8620  -29.4330   22.4990 C   0  0  0  0  0  0  0  0  0  0  0  0
  -21.5510  -29.1970   22.3160 N   0  0  0  0  0  0  0  0  0  0  0  0
  -23.5420  -28.8160   23.3240 O   0  0  0  0  0  0  0  0  0  0  0  0
  -21.0630  -29.7530   21.6270 H   0  0  0  0  0  0  0  0  0  0  0  0
  -18.2110  -27.8680   22.6650 C   0  0  0  0  0  0  0  0  0  0  0  0
  -20.7480  -28.2090   23.0320 C   0  0  0  0  0  3  0  0  0  0  0  0
  -20.9220  -26.8000   22.4190 C   0  0  0  0  0  2  0  0  0  0  0  0
  -19.8670  -26.4660   21.3610 C   0  0  0  0  0  2  0  0  0  0  0  0
  -18.4590  -26.5450   21.9600 C   0  0  0  0  0  2  0  0  0  0  0  0
  -19.2870  -28.6560   23.1550 C   0  0  0  0  0  0  0  0  0  0  0  0
  -19.0030  -29.8940   23.7720 C   0  0  0  0  0  3  0  0  0  0  0  0
  -17.6760  -30.3450   23.9030 C   0  0  0  0  0  3  0  0  0  0  0  0
  -16.6140  -29.5540   23.4300 C   0  0  0  0  0  3  0  0  0  0  0  0
  -16.8820  -28.3160   22.8170 C   0  0  0  0  0  3  0  0  0  0  0  0
  -25.8180  -32.5880   23.9900 C   0  0  0  0  0  3  0  0  0  0  0  0
  -25.4590  -33.9810   24.2810 N   0  0  0  0  0  0  0  0  0  0  0  0
  -25.8210  -35.0320   23.5310 C   0  0  0  0  0  0  0  0  0  0  0  0
  -26.5620  -34.9300   22.5490 O   0  0  0  0  0  0  0  0  0  0  0  0
  -24.8090  -34.1350   25.0360 H   0  0  0  0  0  0  0  0  0  0  0  0
  -24.0900  -36.7820   23.0270 C   0  0  0  0  0  1  0  0  0  0  0  0
  -25.2750  -36.4130   23.9340 C   0  0  0  0  0  3  0  0  0  0  0  0
  -27.3350  -37.3360   24.9010 C   0  0  0  0  0  1  0  0  0  0  0  0
  -26.2930  -37.4870   23.8880 N   0  0  0  0  0  0  0  0  0  0  0  0
  -25.8590  -38.3980   24.0140 H   0  0  0  0  0  0  0  0  0  0  0  0
  -26.2820  -31.8450   25.3030 C   0  0  1  0  0  0  0  0  0  0  0  0
  -25.1300  -31.5440   26.2890 C   0  0  0  0  0  1  0  0  0  0  0  0
  -26.9660  -30.5030   24.9510 C   0  0  0  0  0  1  0  0  0  0  0  0
  -27.3340  -32.7020   26.0470 C   0  0  0  0  0  1  0  0  0  0  0  0
  1  5  1  0
  3  6  1  0
  3  1  1  0
  4  2  1  0
  5 54  1  0
  5  2  1  0
  6 15  1  0
  6  4  1  0
  7 15  1  0
  8 13  1  0
  9 10  1  0
  9  8  1  0
 11 10  1  0
 11 29  1  0
 11 12  1  0
 13  7  1  0
 13 12  1  0
 14  7  2  0
 17 19  1  0
 18 16  1  0
 18 15  1  0
 19 23  1  0
 19 16  2  0
 20 17  2  0
 20 21  1  0
 21 18  2  0
 22 17  1  0
 24 20  1  0
 25 21  1  0
 26 27  2  0
 27 46  1  0
 28 27  1  0
 28 31  1  0
 29 30  1  0
 29 26  1  0
 30 28  2  0
 31 32  1  0
 32 33  2  0
 34 37  1  0
 34 33  1  0
 35 34  2  0
 36 35  1  0
 36 31  2  0
 37 38  1  0
 38 39  1  0
 39 40  2  0
 41 40  1  0
 41 45  1  0
 42 41  2  0
 43 38  2  0
 43 42  1  0
 44 43  1  0
 46 47  1  0
 47 50  1  0
 47 49  1  0
 48 46  2  0
 51 26  1  0
 51 52  1  0
 53 51  1  0
 54 55  1  0
 56 57  1  0
 56 55  1  0
 57 58  1  0
 58 59  1  0
 60 59  1  0
 61 72  2  0
 62 60  1  0
 62 67  1  0
 63 71  1  0
 63 73  1  0
 64 70  1  0
 64 66  1  0
 65 71  1  0
 66 67  2  0
 66 65  1  0
 68 62  2  0
 69 68  1  0
 69 64  2  0
 70 63  1  0
 71 61  1  0
 73 75  2  0
 74 73  1  0
 76 74  1  0
 77 86  2  0
 77 82  1  0
 78 74  1  0
 78 82  1  0
 79 78  1  0
 80 81  1  0
 80 79  1  0
 81 77  1  0
 82 83  2  0
 83 84  1  0
 85 84  2  0
 86 85  1  0
 87 61  1  0
 87 88  1  0
 87 97  1  0
 88 91  1  0
 89 93  1  0
 89 88  1  0
 90 89  2  0
 93 92  1  0
 95 93  1  0
 95 96  1  0
 95 94  1  0
 97100  1  1
 97 98  1  0
 99 97  1  0
M  ISO  4   7 100  15 100  59 101  60 101
M  END
>  <TORSDO>  (82) 
F 23

>  <SCORE>  (82) 
-10.514

>  <name>  (82) 
81

>  <ligand_id>  (82) 
81

>  <original_smiles>  (82) 
[H]c1c([H])c([H])c2c(c1[H])C([H])([H])C([H])([H])C([H])([H])C2([H])N([H])C(=O)C1([H])N(C(=O)C([H])(N([H])C(=O)C([H])(N([H])C([H])([H])[H])C([H])([H])[H])C(C([H])([H])[H])(C([H])([H])[H])C([H])([H])[H])C([H])([H])c2c([H])c(OC([H])([H])C([H])([H])C([H])([H])C([H])([H])C([H])([H])C([H])([H])C3([H])C([H])([H])C([H])([H])C([H])(N(C(=O)N4C([H])([H])C([H])([H])C([H])([H])C([H])(n5nc(-c6c([H])c([H])c(Oc7c([H])c([H])c(F)c([H])c7F)c([H])c6[H])c(C(=O)N([H])[H])c5N([H])[H])C4([H])[H])c4c([H])c(F)c(C([H])([H])[H])c(F)c4Cl)C([H])([H])C3([H])[H])c([H])c([H])c2C1([H])[H]

>  <smiles>  (82) 
[H]c1c([H])c([H])c2c(c1[H])C([H])([H])C([H])([H])C([H])([H])C2([H])N([H])C(=O)C1([H])N(C(=O)C([H])(N([H])C(=O)C([H])(N([H])C([H])([H])[H])C([H])([H])[H])C(C([H])([H])[H])(C([H])([H])[H])C([H])([H])[H])C([H])([H])c2c([H])c(OC([H])([H])C([H])([H])C([H])([H])C([H])([H])C([H])([H])C([H])([H])C3([H])C([H])([H])C([H])([H])C([H])(N(C(=O)N4C([H])([H])C([H])([H])C([H])([H])C([H])(n5nc(-c6c([H])c([H])c(Oc7c([H])c([H])c(F)c([H])c7F)c([H])c6[H])c(C(=O)N([H])[H])c5N([H])[H])C4([H])[H])c4c([H])c(F)c(C([H])([H])[H])c(F)c4Cl)C([H])([H])C3([H])[H])c([H])c([H])c2C1([H])[H]

$$$$
82:0:0
     RDKit          3D

 93101  0  0  1  0  0  0  0  0999 V2000
  -30.4960  -19.4490   22.6340 C   0  0  0  0  0  3  0  0  0  0  0  0
  -30.0900  -20.1400   20.3420 C   0  0  0  0  0  3  0  0  0  0  0  0
  -30.5340  -19.1510   21.2620 C   0  0  0  0  0  0  0  0  0  0  0  0
  -29.9680  -20.6720   23.0890 C   0  0  0  0  0  0  0  0  0  0  0  0
  -29.5380  -21.3820   20.7720 C   0  0  0  0  0  0  0  0  0  0  0  0
  -29.4460  -21.6210   22.1710 C   0  0  0  0  0  0  0  0  0  0  0  0
  -29.9490  -20.9160   24.5880 C   0  0  0  0  0  1  0  0  0  0  0  0
  -28.6320  -23.0100   22.8060 Cl  0  0  0  0  0  0  0  0  0  0  0  0
  -31.1320  -17.8070   20.8200 C   0  0  0  0  0  2  0  0  0  0  0  0
  -30.4410  -16.5290   21.3990 C   0  0  0  0  0  2  0  0  0  0  0  0
  -31.6270  -14.5070   20.4590 C   0  0  0  0  0  0  0  0  0  0  0  0
  -31.0880  -12.3930   19.2860 C   0  0  0  0  0  2  0  0  0  0  0  0
  -30.1760  -12.6320   18.0670 C   0  0  0  0  0  2  0  0  0  0  0  0
  -28.6980  -12.6230   18.4990 C   0  0  0  0  0  2  0  0  0  0  0  0
  -28.4350  -13.5430   19.7240 C   0  0  0  0  0  3  0  0  0  0  0  0
  -29.4520  -13.2790   20.8550 C   0  0  0  0  0  2  0  0  0  0  0  0
  -30.8060  -13.4300   20.2970 N   0  0  0  0  0  0  0  0  0  0  0  0
  -32.6880  -14.6320   19.8470 O   0  0  0  0  0  0  0  0  0  0  0  0
  -31.3420  -15.3590   21.4600 N   0  0  0  0  0  0  0  0  0  0  0  0
  -32.2060  -15.6260   21.9090 H   0  0  0  0  0  0  0  0  0  0  0  0
  -26.1540  -14.4120   20.5240 C   0  0  0  0  0  0  0  0  0  0  0  0
  -24.9890  -13.7710   20.8380 C   0  0  0  0  0  0  0  0  0  0  0  0
  -25.2510  -12.3760   20.6740 C   0  0  0  0  0  0  0  0  0  0  0  0
  -27.0610  -13.4180   20.1970 N   0  0  0  0  0  0  0  0  0  0  0  0
  -26.5220  -12.1820   20.3420 N   0  0  0  0  0  0  0  0  0  0  0  0
  -24.3560  -11.2150   20.7610 C   0  0  0  0  0  0  0  0  0  0  0  0
  -24.7030  -10.0680   21.5090 C   0  0  0  0  0  3  0  0  0  0  0  0
  -23.8170   -8.9710   21.5900 C   0  0  0  0  0  3  0  0  0  0  0  0
  -22.5700   -9.0160   20.9250 C   0  0  0  0  0  0  0  0  0  0  0  0
  -22.2380  -10.1510   20.1630 C   0  0  0  0  0  3  0  0  0  0  0  0
  -23.1220  -11.2390   20.0790 C   0  0  0  0  0  3  0  0  0  0  0  0
  -21.6600   -7.9890   20.9250 O   0  0  0  0  0  0  0  0  0  0  0  0
  -21.6310   -7.0490   21.9250 C   0  0  0  0  0  0  0  0  0  0  0  0
  -21.4800   -7.4110   23.2810 C   0  0  0  0  0  3  0  0  0  0  0  0
  -21.3910   -6.4100   24.2690 C   0  0  0  0  0  3  0  0  0  0  0  0
  -21.4420   -5.0520   23.9050 C   0  0  0  0  0  0  0  0  0  0  0  0
  -21.5870   -4.6900   22.5550 C   0  0  0  0  0  3  0  0  0  0  0  0
  -21.6800   -5.6860   21.5670 C   0  0  0  0  0  0  0  0  0  0  0  0
  -21.7990   -5.3340   20.2640 F   0  0  0  0  0  0  0  0  0  0  0  0
  -21.3460   -4.0920   24.8530 F   0  0  0  0  0  0  0  0  0  0  0  0
  -23.6740  -14.4120   21.1790 C   0  0  0  0  0  0  0  0  0  0  0  0
  -22.8770  -13.7660   22.0200 N   0  0  0  0  0  0  0  0  0  0  0  0
  -23.3710  -15.5190   20.7340 O   0  0  0  0  0  0  0  0  0  0  0  0
  -23.1310  -12.8660   22.4000 H   0  0  0  0  0  0  0  0  0  0  0  0
  -21.9970  -14.1790   22.2900 H   0  0  0  0  0  0  0  0  0  0  0  0
  -26.5140  -15.7570   20.4670 N   0  0  0  0  0  0  0  0  0  0  0  0
  -25.8500  -16.5010   20.6490 H   0  0  0  0  0  0  0  0  0  0  0  0
  -27.4190  -16.0960   20.1650 H   0  0  0  0  0  0  0  0  0  0  0  0
  -28.9190  -22.3090   19.6920 C   0  0  0  0  0  2  0  0  0  0  0  0
  -28.6540  -23.8240   19.9520 C   0  0  0  0  0  2  0  0  0  0  0  0
  -29.8920  -24.7260   20.1290 C   0  0  0  0  0  2  0  0  0  0  0  0
  -29.6100  -26.0840   20.8230 C   0  0  0  0  0  2  0  0  0  0  0  0
  -29.4690  -27.1740   19.8980 O   0  0  0  0  0  0  0  0  0  0  0  0
  -24.7200  -31.2530   23.2510 C   0  0  0  0  0  0  0  0  0  0  0  0
  -28.2070  -27.7100   19.8840 C   0  0  0  0  0  0  0  0  0  0  0  0
  -23.8340  -29.8050   21.4470 C   0  0  0  0  0  3  0  0  0  0  0  0
  -25.5750  -28.7180   19.9350 C   0  0  0  0  0  0  0  0  0  0  0  0
  -26.2380  -30.6600   21.3660 C   0  0  0  0  0  2  0  0  0  0  0  0
  -26.5970  -29.4000   20.6090 C   0  0  0  0  0  0  0  0  0  0  0  0
  -27.9180  -28.9020   20.5820 C   0  0  0  0  0  3  0  0  0  0  0  0
  -27.1790  -27.0470   19.1890 C   0  0  0  0  0  3  0  0  0  0  0  0
  -25.8620  -27.5450   19.2160 C   0  0  0  0  0  3  0  0  0  0  0  0
  -24.1880  -29.3110   20.0200 C   0  0  0  0  0  2  0  0  0  0  0  0
  -24.9440  -30.5840   22.0830 N   0  0  0  0  0  0  0  0  0  0  0  0
  -23.6000  -31.2590   23.7780 O   0  0  0  0  0  0  0  0  0  0  0  0
  -23.3780  -28.5930   22.2920 C   0  0  0  0  0  0  0  0  0  0  0  0
  -22.1520  -28.1070   22.0380 N   0  0  0  0  0  0  0  0  0  0  0  0
  -24.1240  -28.0990   23.1410 O   0  0  0  0  0  0  0  0  0  0  0  0
  -21.5980  -28.5630   21.3260 H   0  0  0  0  0  0  0  0  0  0  0  0
  -19.2000  -26.0340   22.0780 C   0  0  0  0  0  0  0  0  0  0  0  0
  -21.5370  -26.9500   22.6880 C   0  0  0  0  0  3  0  0  0  0  0  0
  -22.1010  -25.6310   22.1050 C   0  0  0  0  0  2  0  0  0  0  0  0
  -21.2580  -25.0620   20.9560 C   0  0  0  0  0  2  0  0  0  0  0  0
  -19.8170  -24.8160   21.4080 C   0  0  0  0  0  2  0  0  0  0  0  0
  -20.0060  -27.0430   22.6700 C   0  0  0  0  0  0  0  0  0  0  0  0
  -19.3750  -28.1650   23.2540 C   0  0  0  0  0  3  0  0  0  0  0  0
  -17.9730  -28.2900   23.2490 C   0  0  0  0  0  3  0  0  0  0  0  0
  -17.1820  -27.2800   22.6740 C   0  0  0  0  0  3  0  0  0  0  0  0
  -17.7940  -26.1560   22.0940 C   0  0  0  0  0  3  0  0  0  0  0  0
  -25.8520  -32.0590   23.9590 C   0  0  0  0  0  3  0  0  0  0  0  0
  -25.3650  -33.4300   24.1530 N   0  0  0  0  0  0  0  0  0  0  0  0
  -25.6850  -34.4700   23.3730 C   0  0  0  0  0  0  0  0  0  0  0  0
  -26.4930  -34.3850   22.4420 O   0  0  0  0  0  0  0  0  0  0  0  0
  -24.6570  -33.5620   24.8610 H   0  0  0  0  0  0  0  0  0  0  0  0
  -23.8380  -36.0310   22.6830 C   0  0  0  0  0  1  0  0  0  0  0  0
  -25.0000  -35.8170   23.6670 C   0  0  0  0  0  3  0  0  0  0  0  0
  -26.9140  -36.9730   24.6780 C   0  0  0  0  0  1  0  0  0  0  0  0
  -25.9220  -36.9730   23.6080 N   0  0  0  0  0  0  0  0  0  0  0  0
  -25.4070  -37.8480   23.6470 H   0  0  0  0  0  0  0  0  0  0  0  0
  -26.3010  -31.4250   25.3330 C   0  0  1  0  0  0  0  0  0  0  0  0
  -25.1270  -31.1410   26.2980 C   0  0  0  0  0  1  0  0  0  0  0  0
  -27.0550  -30.0940   25.1040 C   0  0  0  0  0  1  0  0  0  0  0  0
  -27.2890  -32.3770   26.0500 C   0  0  0  0  0  1  0  0  0  0  0  0
  1  4  1  0
  2  5  2  0
  2  3  1  0
  3  1  2  0
  4  7  1  0
  5  6  1  0
  6  8  1  0
  6  4  2  0
  9  3  1  0
  9 10  1  0
 10 19  1  0
 11 19  1  0
 12 17  1  0
 13 14  1  0
 13 12  1  0
 15 14  1  0
 15 24  1  0
 15 16  1  0
 17 11  1  0
 17 16  1  0
 18 11  2  0
 19 20  1  0
 21 22  2  0
 22 41  1  0
 23 26  1  0
 23 22  1  0
 24 25  1  0
 24 21  1  0
 25 23  2  0
 26 27  1  0
 27 28  2  0
 29 32  1  0
 29 28  1  0
 30 29  2  0
 31 30  1  0
 31 26  2  0
 32 33  1  0
 33 34  1  0
 34 35  2  0
 36 35  1  0
 36 40  1  0
 37 36  2  0
 38 33  2  0
 38 37  1  0
 39 38  1  0
 41 42  1  0
 42 45  1  0
 42 44  1  0
 43 41  2  0
 46 21  1  0
 46 47  1  0
 48 46  1  0
 49 50  1  0
 49  5  1  0
 50 51  1  0
 51 52  1  0
 53 52  1  0
 54 65  2  0
 55 53  1  0
 55 60  1  0
 56 64  1  0
 56 66  1  0
 57 63  1  0
 57 59  1  0
 58 64  1  0
 59 58  1  0
 60 59  2  0
 61 62  1  0
 61 55  2  0
 62 57  2  0
 63 56  1  0
 64 54  1  0
 66 68  2  0
 67 66  1  0
 69 67  1  0
 70 79  2  0
 70 75  1  0
 71 67  1  0
 72 71  1  0
 73 74  1  0
 73 72  1  0
 74 70  1  0
 75 71  1  0
 75 76  2  0
 77 76  1  0
 78 77  2  0
 79 78  1  0
 80 54  1  0
 80 81  1  0
 80 90  1  0
 81 84  1  0
 82 86  1  0
 82 81  1  0
 83 82  2  0
 86 85  1  0
 88 89  1  0
 88 86  1  0
 88 87  1  0
 90 93  1  1
 90 91  1  0
 92 90  1  0
M  ISO  4  11 100  19 100  52 101  53 101
M  END
>  <TORSDO>  (83) 
F 22

>  <SCORE>  (83) 
-9.103

>  <name>  (83) 
82

>  <ligand_id>  (83) 
82

>  <original_smiles>  (83) 
[H]c1c([H])c([H])c2c(c1[H])C([H])([H])C([H])([H])C([H])([H])C2([H])N([H])C(=O)C1([H])N(C(=O)C([H])(N([H])C(=O)C([H])(N([H])C([H])([H])[H])C([H])([H])[H])C(C([H])([H])[H])(C([H])([H])[H])C([H])([H])[H])C([H])([H])c2c([H])c(OC([H])([H])C([H])([H])C([H])([H])C([H])([H])c3c([H])c(C([H])([H])C([H])([H])N([H])C(=O)N4C([H])([H])C([H])([H])C([H])([H])C([H])(n5nc(-c6c([H])c([H])c(Oc7c([H])c([H])c(F)c([H])c7F)c([H])c6[H])c(C(=O)N([H])[H])c5N([H])[H])C4([H])[H])c([H])c(C([H])([H])[H])c3Cl)c([H])c([H])c2C1([H])[H]

>  <smiles>  (83) 
[H]c1c([H])c([H])c2c(c1[H])C([H])([H])C([H])([H])C([H])([H])C2([H])N([H])C(=O)C1([H])N(C(=O)C([H])(N([H])C(=O)C([H])(N([H])C([H])([H])[H])C([H])([H])[H])C(C([H])([H])[H])(C([H])([H])[H])C([H])([H])[H])C([H])([H])c2c([H])c(OC([H])([H])C([H])([H])C([H])([H])C([H])([H])c3c([H])c(C([H])([H])C([H])([H])N([H])C(=O)N4C([H])([H])C([H])([H])C([H])([H])C([H])(n5nc(-c6c([H])c([H])c(Oc7c([H])c([H])c(F)c([H])c7F)c([H])c6[H])c(C(=O)N([H])[H])c5N([H])[H])C4([H])[H])c([H])c(C([H])([H])[H])c3Cl)c([H])c([H])c2C1([H])[H]

$$$$
83:0:0
     RDKit          3D

 89 97  0  0  1  0  0  0  0  0999 V2000
  -27.0080  -21.3390   19.4280 C   0  0  0  0  0  1  0  0  0  0  0  0
  -28.3190  -21.3850   20.2340 C   0  0  0  0  0  3  0  0  0  0  0  0
  -28.9500  -17.3210   19.3410 C   0  0  0  0  0  3  0  0  0  0  0  0
  -28.5430  -18.7350   19.3120 C   0  0  0  0  0  3  0  0  0  0  0  0
  -29.9450  -16.7340   20.2080 C   0  0  0  0  0  0  0  0  0  0  0  0
  -29.0450  -19.8260   20.1350 C   0  0  0  0  0  0  0  0  0  0  0  0
  -30.4820  -17.8190   21.0170 C   0  0  0  0  0  0  0  0  0  0  0  0
  -30.0540  -19.2390   21.0010 C   0  0  0  0  0  0  0  0  0  0  0  0
  -31.4740  -17.4960   21.8850 F   0  0  0  0  0  0  0  0  0  0  0  0
  -30.8070  -20.3030   22.1360 Cl  0  0  0  0  0  0  0  0  0  0  0  0
  -30.5880  -15.2190   20.0860 C   0  0  0  0  0  0  0  0  0  0  0  0
  -30.4500  -12.8180   19.2020 C   0  0  0  0  0  2  0  0  0  0  0  0
  -29.4960  -12.6860   17.9910 C   0  0  0  0  0  2  0  0  0  0  0  0
  -28.0560  -12.4360   18.4710 C   0  0  0  0  0  2  0  0  0  0  0  0
  -27.6510  -13.3880   19.6250 C   0  0  0  0  0  3  0  0  0  0  0  0
  -28.7320  -13.5120   20.7150 C   0  0  0  0  0  2  0  0  0  0  0  0
  -29.9670  -13.9530   20.0580 N   0  0  0  0  0  0  0  0  0  0  0  0
  -31.7970  -15.1720   19.8190 O   0  0  0  0  0  0  0  0  0  0  0  0
  -25.3140  -13.9270   20.4890 C   0  0  0  0  0  0  0  0  0  0  0  0
  -24.2660  -13.1400   20.8770 C   0  0  0  0  0  0  0  0  0  0  0  0
  -24.7320  -11.7910   20.7950 C   0  0  0  0  0  0  0  0  0  0  0  0
  -26.3440  -13.0600   20.1790 N   0  0  0  0  0  0  0  0  0  0  0  0
  -26.0100  -11.7670   20.4330 N   0  0  0  0  0  0  0  0  0  0  0  0
  -24.0130  -10.5230   20.9790 C   0  0  0  0  0  0  0  0  0  0  0  0
  -24.4430   -9.5580   21.9160 C   0  0  0  0  0  3  0  0  0  0  0  0
  -23.7220   -8.3560   22.0890 C   0  0  0  0  0  3  0  0  0  0  0  0
  -22.5550   -8.1130   21.3260 C   0  0  0  0  0  0  0  0  0  0  0  0
  -22.1440   -9.0660   20.3790 C   0  0  0  0  0  3  0  0  0  0  0  0
  -22.8670  -10.2590   20.2030 C   0  0  0  0  0  3  0  0  0  0  0  0
  -21.8050   -6.9640   21.4090 O   0  0  0  0  0  0  0  0  0  0  0  0
  -21.6970   -6.2580   22.5800 C   0  0  0  0  0  0  0  0  0  0  0  0
  -21.1770   -6.8410   23.7560 C   0  0  0  0  0  3  0  0  0  0  0  0
  -21.0180   -6.0590   24.9180 C   0  0  0  0  0  3  0  0  0  0  0  0
  -21.3670   -4.6970   24.9040 C   0  0  0  0  0  0  0  0  0  0  0  0
  -21.8800   -4.1130   23.7330 C   0  0  0  0  0  3  0  0  0  0  0  0
  -22.0420   -4.8910   22.5730 C   0  0  0  0  0  0  0  0  0  0  0  0
  -22.5150   -4.3180   21.4410 F   0  0  0  0  0  0  0  0  0  0  0  0
  -21.2070   -3.9440   26.0190 F   0  0  0  0  0  0  0  0  0  0  0  0
  -22.8790  -13.6070   21.2090 C   0  0  0  0  0  0  0  0  0  0  0  0
  -22.1850  -12.8930   22.0860 N   0  0  0  0  0  0  0  0  0  0  0  0
  -22.4220  -14.6430   20.7250 O   0  0  0  0  0  0  0  0  0  0  0  0
  -22.5700  -12.0570   22.4990 H   0  0  0  0  0  0  0  0  0  0  0  0
  -21.2560  -13.1880   22.3520 H   0  0  0  0  0  0  0  0  0  0  0  0
  -25.4700  -15.3030   20.3440 N   0  0  0  0  0  0  0  0  0  0  0  0
  -24.7140  -15.9550   20.5170 H   0  0  0  0  0  0  0  0  0  0  0  0
  -26.3170  -15.7560   20.0260 H   0  0  0  0  0  0  0  0  0  0  0  0
  -28.8820  -23.0320   20.0870 C   0  0  0  0  0  3  0  0  0  0  0  0
  -27.9110  -24.4950   20.0700 C   0  0  0  0  0  3  0  0  0  0  0  0
  -28.2240  -26.0720   20.1310 O   0  0  0  0  0  0  0  0  0  0  0  0
  -24.6750  -31.8680   23.2400 C   0  0  0  0  0  0  0  0  0  0  0  0
  -27.1980  -27.1230   20.1040 C   0  0  0  0  0  0  0  0  0  0  0  0
  -23.4590  -30.5050   21.5880 C   0  0  0  0  0  3  0  0  0  0  0  0
  -24.8900  -28.9430   20.1190 C   0  0  0  0  0  0  0  0  0  0  0  0
  -26.0190  -30.7440   21.4090 C   0  0  0  0  0  2  0  0  0  0  0  0
  -26.0830  -29.3550   20.7280 C   0  0  0  0  0  0  0  0  0  0  0  0
  -27.2360  -28.4650   20.6980 C   0  0  0  0  0  3  0  0  0  0  0  0
  -25.9760  -26.8420   19.4530 C   0  0  0  0  0  3  0  0  0  0  0  0
  -24.8560  -27.7040   19.4640 C   0  0  0  0  0  3  0  0  0  0  0  0
  -23.6690  -29.8520   20.1950 C   0  0  0  0  0  2  0  0  0  0  0  0
  -24.7390  -31.0620   22.1330 N   0  0  0  0  0  0  0  0  0  0  0  0
  -23.5920  -32.1460   23.7800 O   0  0  0  0  0  0  0  0  0  0  0  0
  -22.7830  -29.4840   22.5390 C   0  0  0  0  0  0  0  0  0  0  0  0
  -21.4540  -29.3120   22.4170 N   0  0  0  0  0  0  0  0  0  0  0  0
  -23.4590  -28.8490   23.3540 O   0  0  0  0  0  0  0  0  0  0  0  0
  -20.9640  -29.8750   21.7360 H   0  0  0  0  0  0  0  0  0  0  0  0
  -18.0800  -28.0830   22.9200 C   0  0  0  0  0  0  0  0  0  0  0  0
  -20.6400  -28.3580   23.1780 C   0  0  0  0  0  3  0  0  0  0  0  0
  -20.7470  -26.9350   22.5840 C   0  0  0  0  0  2  0  0  0  0  0  0
  -19.6420  -26.6200   21.5700 C   0  0  0  0  0  2  0  0  0  0  0  0
  -18.2620  -26.7460   22.2220 C   0  0  0  0  0  2  0  0  0  0  0  0
  -19.1950  -28.8480   23.3550 C   0  0  0  0  0  0  0  0  0  0  0  0
  -18.9700  -30.0970   23.9710 C   0  0  0  0  0  3  0  0  0  0  0  0
  -17.6620  -30.5840   24.1550 C   0  0  0  0  0  3  0  0  0  0  0  0
  -16.5620  -29.8180   23.7340 C   0  0  0  0  0  3  0  0  0  0  0  0
  -16.7710  -28.5690   23.1230 C   0  0  0  0  0  3  0  0  0  0  0  0
  -25.9550  -32.4950   23.8670 C   0  0  0  0  0  3  0  0  0  0  0  0
  -26.4660  -31.7140   25.1410 C   0  0  1  0  0  0  0  0  0  0  0  0
  -25.3710  -31.4800   26.2080 C   0  0  0  0  0  1  0  0  0  0  0  0
  -27.0390  -30.3330   24.7500 C   0  0  0  0  0  1  0  0  0  0  0  0
  -27.6230  -32.4970   25.8060 C   0  0  0  0  0  1  0  0  0  0  0  0
  -25.6490  -33.8920   24.2160 N   0  0  0  0  0  0  0  0  0  0  0  0
  -25.9480  -34.9550   23.4560 C   0  0  0  0  0  0  0  0  0  0  0  0
  -26.5760  -34.8620   22.3980 O   0  0  0  0  0  0  0  0  0  0  0  0
  -25.0860  -34.0380   25.0400 H   0  0  0  0  0  0  0  0  0  0  0  0
  -24.1850  -36.7370   23.2170 C   0  0  0  0  0  1  0  0  0  0  0  0
  -25.4790  -36.3400   23.9470 C   0  0  0  0  0  3  0  0  0  0  0  0
  -27.6490  -37.2500   24.6490 C   0  0  0  0  0  1  0  0  0  0  0  0
  -26.4930  -37.4030   23.7700 N   0  0  0  0  0  0  0  0  0  0  0  0
  -26.0870  -38.3200   23.9370 H   0  0  0  0  0  0  0  0  0  0  0  0
  2  1  1  0
  3  5  1  0
  4  3  2  0
  4  6  1  0
  5  7  2  0
  6  2  1  0
  6  8  2  0
  7  9  1  0
  8  7  1  0
  8 10  1  0
 11  5  1  0
 12 17  1  0
 13 14  1  0
 13 12  1  0
 15 14  1  0
 15 22  1  0
 15 16  1  0
 17 11  1  0
 17 16  1  0
 18 11  2  0
 19 20  2  0
 20 39  1  0
 21 20  1  0
 21 24  1  0
 22 23  1  0
 22 19  1  0
 23 21  2  0
 24 25  1  0
 25 26  2  0
 27 30  1  0
 27 26  1  0
 28 27  2  0
 29 28  1  0
 29 24  2  0
 30 31  1  0
 31 32  1  0
 32 33  2  0
 34 33  1  0
 34 38  1  0
 35 34  2  0
 36 31  2  0
 36 35  1  0
 37 36  1  0
 39 40  1  0
 40 43  1  0
 40 42  1  0
 41 39  2  0
 44 19  1  0
 44 45  1  0
 46 44  1  0
 47  2  1  0
 48 47  2  0
 48 49  1  0
 50 61  2  0
 51 49  1  0
 51 56  1  0
 52 60  1  0
 52 62  1  0
 53 59  1  0
 53 55  1  0
 54 60  1  0
 55 54  1  0
 56 55  2  0
 57 58  1  0
 57 51  2  0
 58 53  2  0
 59 52  1  0
 60 50  1  0
 62 64  2  0
 63 62  1  0
 65 63  1  0
 66 75  2  0
 66 71  1  0
 67 63  1  0
 67 71  1  0
 68 67  1  0
 69 70  1  0
 69 68  1  0
 70 66  1  0
 71 72  2  0
 72 73  1  0
 74 73  2  0
 75 74  1  0
 76 50  1  0
 76 81  1  0
 76 77  1  0
 77 80  1  1
 77 78  1  0
 79 77  1  0
 81 84  1  0
 82 86  1  0
 82 81  1  0
 83 82  2  0
 86 85  1  0
 88 89  1  0
 88 86  1  0
 88 87  1  0
M  ISO  4   5 100  11 100  48 101  49 101
M  END
>  <TORSDO>  (84) 
F 19

>  <SCORE>  (84) 
-15.803

>  <name>  (84) 
83

>  <ligand_id>  (84) 
83

>  <original_smiles>  (84) 
[H]c1c([H])c([H])c2c(c1[H])C([H])([H])C([H])([H])C([H])([H])C2([H])N([H])C(=O)C1([H])N(C(=O)C([H])(N([H])C(=O)C([H])(N([H])C([H])([H])[H])C([H])([H])[H])C(C([H])([H])[H])(C([H])([H])[H])C([H])([H])[H])C([H])([H])c2c([H])c(OC([H])([H])C([H])([H])C([H])(c3c([H])c([H])c(C(=O)N4C([H])([H])C([H])([H])C([H])([H])C([H])(n5nc(-c6c([H])c([H])c(Oc7c([H])c([H])c(F)c([H])c7F)c([H])c6[H])c(C(=O)N([H])[H])c5N([H])[H])C4([H])[H])c(F)c3Cl)C([H])([H])[H])c([H])c([H])c2C1([H])[H]

>  <smiles>  (84) 
[H]c1c([H])c([H])c2c(c1[H])C([H])([H])C([H])([H])C([H])([H])C2([H])N([H])C(=O)C1([H])N(C(=O)C([H])(N([H])C(=O)C([H])(N([H])C([H])([H])[H])C([H])([H])[H])C(C([H])([H])[H])(C([H])([H])[H])C([H])([H])[H])C([H])([H])c2c([H])c(OC([H])([H])C([H])([H])C([H])(c3c([H])c([H])c(C(=O)N4C([H])([H])C([H])([H])C([H])([H])C([H])(n5nc(-c6c([H])c([H])c(Oc7c([H])c([H])c(F)c([H])c7F)c([H])c6[H])c(C(=O)N([H])[H])c5N([H])[H])C4([H])[H])c(F)c3Cl)C([H])([H])[H])c([H])c([H])c2C1([H])[H]

$$$$
84:0:0
     RDKit          3D

 90 98  0  0  1  0  0  0  0  0999 V2000
  -28.4120  -20.0440   20.6990 C   0  0  0  0  0  3  0  0  0  0  0  0
  -29.0060  -18.7590   20.8090 C   0  0  0  0  0  3  0  0  0  0  0  0
  -30.4750  -20.9600   19.8630 C   0  0  0  0  0  3  0  0  0  0  0  0
  -29.1280  -21.1800   20.2370 C   0  0  0  0  0  0  0  0  0  0  0  0
  -30.3490  -18.5310   20.4410 C   0  0  0  0  0  0  0  0  0  0  0  0
  -31.0770  -19.6720   19.9750 C   0  0  0  0  0  0  0  0  0  0  0  0
  -32.7440  -19.5450   19.5440 Cl  0  0  0  0  0  0  0  0  0  0  0  0
  -28.3760  -22.5420   20.0870 C   0  0  0  0  0  2  0  0  0  0  0  0
  -29.0840  -23.9550   20.2260 C   0  0  0  0  0  2  0  0  0  0  0  0
  -28.1040  -25.1340   19.8480 C   0  0  0  0  0  2  0  0  0  0  0  0
  -28.3660  -26.5520   20.1590 O   0  0  0  0  0  0  0  0  0  0  0  0
  -24.6220  -31.9200   23.2130 C   0  0  0  0  0  0  0  0  0  0  0  0
  -27.2520  -27.4080   20.1140 C   0  0  0  0  0  0  0  0  0  0  0  0
  -23.4260  -30.5290   21.5630 C   0  0  0  0  0  3  0  0  0  0  0  0
  -24.8810  -29.0120   20.1220 C   0  0  0  0  0  0  0  0  0  0  0  0
  -25.9660  -30.8620   21.3890 C   0  0  0  0  0  2  0  0  0  0  0  0
  -26.0480  -29.4930   20.7300 C   0  0  0  0  0  0  0  0  0  0  0  0
  -27.2350  -28.7000   20.7200 C   0  0  0  0  0  3  0  0  0  0  0  0
  -26.0590  -26.9900   19.4710 C   0  0  0  0  0  3  0  0  0  0  0  0
  -24.8920  -27.7680   19.4780 C   0  0  0  0  0  3  0  0  0  0  0  0
  -23.6430  -29.8790   20.1730 C   0  0  0  0  0  2  0  0  0  0  0  0
  -24.6900  -31.1220   22.1090 N   0  0  0  0  0  0  0  0  0  0  0  0
  -23.5360  -32.1880   23.7470 O   0  0  0  0  0  0  0  0  0  0  0  0
  -22.7730  -29.4940   22.5120 C   0  0  0  0  0  0  0  0  0  0  0  0
  -21.4490  -29.3020   22.3790 N   0  0  0  0  0  0  0  0  0  0  0  0
  -23.4500  -28.8740   23.3350 O   0  0  0  0  0  0  0  0  0  0  0  0
  -20.9650  -29.8610   21.6950 H   0  0  0  0  0  0  0  0  0  0  0  0
  -18.0690  -28.1090   22.8780 C   0  0  0  0  0  0  0  0  0  0  0  0
  -20.6320  -28.3580   23.1370 C   0  0  0  0  0  3  0  0  0  0  0  0
  -20.7240  -26.9340   22.5370 C   0  0  0  0  0  2  0  0  0  0  0  0
  -19.6140  -26.6290   21.5270 C   0  0  0  0  0  2  0  0  0  0  0  0
  -18.2360  -26.7680   22.1820 C   0  0  0  0  0  2  0  0  0  0  0  0
  -19.1930  -28.8630   23.3100 C   0  0  0  0  0  0  0  0  0  0  0  0
  -18.9810  -30.1170   23.9220 C   0  0  0  0  0  3  0  0  0  0  0  0
  -17.6790  -30.6170   24.1070 C   0  0  0  0  0  3  0  0  0  0  0  0
  -16.5700  -29.8640   23.6860 C   0  0  0  0  0  3  0  0  0  0  0  0
  -16.7650  -28.6120   23.0770 C   0  0  0  0  0  3  0  0  0  0  0  0
  -25.9000  -32.5540   23.8420 C   0  0  0  0  0  3  0  0  0  0  0  0
  -26.4090  -31.7800   25.1210 C   0  0  1  0  0  0  0  0  0  0  0  0
  -25.3020  -31.5260   26.1710 C   0  0  0  0  0  1  0  0  0  0  0  0
  -27.0130  -30.4120   24.7260 C   0  0  0  0  0  1  0  0  0  0  0  0
  -27.5430  -32.5840   25.7970 C   0  0  0  0  0  1  0  0  0  0  0  0
  -25.5820  -33.9510   24.1760 N   0  0  0  0  0  0  0  0  0  0  0  0
  -25.8950  -35.0050   23.4150 C   0  0  0  0  0  0  0  0  0  0  0  0
  -26.5490  -34.9070   22.3730 O   0  0  0  0  0  0  0  0  0  0  0  0
  -24.9960  -34.0980   24.9850 H   0  0  0  0  0  0  0  0  0  0  0  0
  -24.1470  -36.7830   23.0830 C   0  0  0  0  0  1  0  0  0  0  0  0
  -25.4010  -36.3890   23.8800 C   0  0  0  0  0  3  0  0  0  0  0  0
  -27.5270  -37.2960   24.7050 C   0  0  0  0  0  1  0  0  0  0  0  0
  -26.4250  -37.4510   23.7610 N   0  0  0  0  0  0  0  0  0  0  0  0
  -26.0110  -38.3700   23.9000 H   0  0  0  0  0  0  0  0  0  0  0  0
  -31.0220  -17.1290   20.6460 C   0  0  0  0  0  2  0  0  0  0  0  0
  -30.7990  -14.6580   20.1580 C   0  0  0  0  0  0  0  0  0  0  0  0
  -30.3540  -12.4550   19.1090 C   0  0  0  0  0  2  0  0  0  0  0  0
  -29.3840  -12.6260   17.9270 C   0  0  0  0  0  2  0  0  0  0  0  0
  -27.9320  -12.4770   18.4170 C   0  0  0  0  0  2  0  0  0  0  0  0
  -27.6330  -13.3560   19.6660 C   0  0  0  0  0  3  0  0  0  0  0  0
  -28.7440  -13.2430   20.7370 C   0  0  0  0  0  2  0  0  0  0  0  0
  -30.0330  -13.5210   20.0850 N   0  0  0  0  0  0  0  0  0  0  0  0
  -31.9470  -14.6660   19.7250 O   0  0  0  0  0  0  0  0  0  0  0  0
  -30.2420  -15.8460   20.5440 N   0  0  0  0  0  0  0  0  0  0  0  0
  -29.2620  -15.8640   20.7700 H   0  0  0  0  0  0  0  0  0  0  0  0
  -25.2890  -13.9570   20.5200 C   0  0  0  0  0  0  0  0  0  0  0  0
  -24.2250  -13.1890   20.9110 C   0  0  0  0  0  0  0  0  0  0  0  0
  -24.6630  -11.8320   20.8190 C   0  0  0  0  0  0  0  0  0  0  0  0
  -26.3060  -13.0710   20.2110 N   0  0  0  0  0  0  0  0  0  0  0  0
  -25.9380  -11.7850   20.4490 N   0  0  0  0  0  0  0  0  0  0  0  0
  -23.9200  -10.5780   21.0000 C   0  0  0  0  0  0  0  0  0  0  0  0
  -24.3460   -9.5900   21.9150 C   0  0  0  0  0  3  0  0  0  0  0  0
  -23.6010   -8.4020   22.0860 C   0  0  0  0  0  3  0  0  0  0  0  0
  -22.4150   -8.1950   21.3440 C   0  0  0  0  0  0  0  0  0  0  0  0
  -22.0060   -9.1720   20.4190 C   0  0  0  0  0  3  0  0  0  0  0  0
  -22.7510  -10.3500   20.2450 C   0  0  0  0  0  3  0  0  0  0  0  0
  -21.6420   -7.0610   21.4280 O   0  0  0  0  0  0  0  0  0  0  0  0
  -21.5570   -6.3320   22.5870 C   0  0  0  0  0  0  0  0  0  0  0  0
  -21.0410   -6.8800   23.7820 C   0  0  0  0  0  3  0  0  0  0  0  0
  -20.9120   -6.0730   24.9290 C   0  0  0  0  0  3  0  0  0  0  0  0
  -21.2840   -4.7160   24.8820 C   0  0  0  0  0  0  0  0  0  0  0  0
  -21.7920   -4.1660   23.6920 C   0  0  0  0  0  3  0  0  0  0  0  0
  -21.9250   -4.9710   22.5480 C   0  0  0  0  0  0  0  0  0  0  0  0
  -22.3960   -4.4320   21.3970 F   0  0  0  0  0  0  0  0  0  0  0  0
  -21.1530   -3.9390   25.9810 F   0  0  0  0  0  0  0  0  0  0  0  0
  -22.8510  -13.6830   21.2570 C   0  0  0  0  0  0  0  0  0  0  0  0
  -22.1470  -12.9790   22.1380 N   0  0  0  0  0  0  0  0  0  0  0  0
  -22.4110  -14.7310   20.7870 O   0  0  0  0  0  0  0  0  0  0  0  0
  -22.5110  -12.1300   22.5430 H   0  0  0  0  0  0  0  0  0  0  0  0
  -21.2280  -13.2960   22.4120 H   0  0  0  0  0  0  0  0  0  0  0  0
  -25.4610  -15.3290   20.3790 N   0  0  0  0  0  0  0  0  0  0  0  0
  -24.7030  -15.9810   20.5490 H   0  0  0  0  0  0  0  0  0  0  0  0
  -26.2920  -15.7770   20.0130 H   0  0  0  0  0  0  0  0  0  0  0  0
  1  2  1  0
  3  6  2  0
  3  4  1  0
  4  1  2  0
  5 52  1  0
  5  2  2  0
  6  5  1  0
  7  6  1  0
  8  9  1  0
  8  4  1  0
 10 11  1  0
 10  9  1  0
 12 23  2  0
 13 11  1  0
 13 18  1  0
 14 22  1  0
 14 24  1  0
 15 21  1  0
 15 17  1  0
 16 22  1  0
 17 16  1  0
 18 17  2  0
 19 20  1  0
 19 13  2  0
 20 15  2  0
 21 14  1  0
 22 12  1  0
 24 26  2  0
 25 24  1  0
 27 25  1  0
 28 37  2  0
 28 33  1  0
 29 25  1  0
 29 33  1  0
 30 29  1  0
 31 32  1  0
 31 30  1  0
 32 28  1  0
 33 34  2  0
 34 35  1  0
 36 35  2  0
 37 36  1  0
 38 12  1  0
 38 43  1  0
 38 39  1  0
 39 42  1  1
 39 40  1  0
 41 39  1  0
 43 46  1  0
 44 48  1  0
 44 43  1  0
 45 44  2  0
 48 47  1  0
 50 48  1  0
 50 51  1  0
 50 49  1  0
 53 61  1  0
 54 59  1  0
 55 56  1  0
 55 54  1  0
 57 56  1  0
 57 66  1  0
 57 58  1  0
 59 53  1  0
 59 58  1  0
 60 53  2  0
 61 52  1  0
 61 62  1  0
 63 64  2  0
 64 83  1  0
 65 64  1  0
 65 68  1  0
 66 67  1  0
 66 63  1  0
 67 65  2  0
 68 69  1  0
 69 70  2  0
 71 74  1  0
 71 70  1  0
 72 71  2  0
 73 72  1  0
 73 68  2  0
 74 75  1  0
 75 76  1  0
 76 77  2  0
 78 77  1  0
 78 82  1  0
 79 78  2  0
 80 75  2  0
 80 79  1  0
 81 80  1  0
 83 84  1  0
 84 87  1  0
 84 86  1  0
 85 83  2  0
 88 63  1  0
 88 89  1  0
 90 88  1  0
M  ISO  4  10 101  11 101  53 100  61 100
M  END
>  <TORSDO>  (85) 
F 20

>  <SCORE>  (85) 
-13.661

>  <name>  (85) 
84

>  <ligand_id>  (85) 
84

>  <original_smiles>  (85) 
[H]c1c([H])c([H])c2c(c1[H])C([H])([H])C([H])([H])C([H])([H])C2([H])N([H])C(=O)C1([H])N(C(=O)C([H])(N([H])C(=O)C([H])(N([H])C([H])([H])[H])C([H])([H])[H])C(C([H])([H])[H])(C([H])([H])[H])C([H])([H])[H])C([H])([H])c2c([H])c(OC([H])([H])C([H])([H])C([H])([H])c3c([H])c([H])c(C([H])([H])N([H])C(=O)N4C([H])([H])C([H])([H])C([H])([H])C([H])(n5nc(-c6c([H])c([H])c(Oc7c([H])c([H])c(F)c([H])c7F)c([H])c6[H])c(C(=O)N([H])[H])c5N([H])[H])C4([H])[H])c(Cl)c3[H])c([H])c([H])c2C1([H])[H]

>  <smiles>  (85) 
[H]c1c([H])c([H])c2c(c1[H])C([H])([H])C([H])([H])C([H])([H])C2([H])N([H])C(=O)C1([H])N(C(=O)C([H])(N([H])C(=O)C([H])(N([H])C([H])([H])[H])C([H])([H])[H])C(C([H])([H])[H])(C([H])([H])[H])C([H])([H])[H])C([H])([H])c2c([H])c(OC([H])([H])C([H])([H])C([H])([H])c3c([H])c([H])c(C([H])([H])N([H])C(=O)N4C([H])([H])C([H])([H])C([H])([H])C([H])(n5nc(-c6c([H])c([H])c(Oc7c([H])c([H])c(F)c([H])c7F)c([H])c6[H])c(C(=O)N([H])[H])c5N([H])[H])C4([H])[H])c(Cl)c3[H])c([H])c([H])c2C1([H])[H]

$$$$
85:0:0
     RDKit          3D

 89 97  0  0  1  0  0  0  0  0999 V2000
  -29.4390  -20.1760   20.0350 C   0  0  0  0  0  0  0  0  0  0  0  0
  -28.9600  -18.7450   20.2200 C   0  0  0  0  0  0  0  0  0  0  0  0
  -30.8050  -20.0660   19.8200 C   0  0  0  0  0  0  0  0  0  0  0  0
  -29.8830  -17.6390   20.1940 C   0  0  0  0  0  0  0  0  0  0  0  0
  -27.4930  -18.4890   20.3860 C   0  0  0  0  0  1  0  0  0  0  0  0
  -31.7770  -21.1460   19.4770 C   0  0  0  0  0  1  0  0  0  0  0  0
  -31.4330  -18.4010   19.9140 S   0  0  0  0  0  0  0  0  0  0  0  0
  -30.5020  -15.0340   20.1170 C   0  0  0  0  0  0  0  0  0  0  0  0
  -30.3450  -12.7010   19.1280 C   0  0  0  0  0  2  0  0  0  0  0  0
  -29.3600  -12.6940   17.9360 C   0  0  0  0  0  2  0  0  0  0  0  0
  -27.9090  -12.4860   18.4140 C   0  0  0  0  0  2  0  0  0  0  0  0
  -27.5600  -13.3620   19.6460 C   0  0  0  0  0  3  0  0  0  0  0  0
  -28.6670  -13.3360   20.7220 C   0  0  0  0  0  2  0  0  0  0  0  0
  -29.9090  -13.7690   20.0720 N   0  0  0  0  0  0  0  0  0  0  0  0
  -31.6940  -15.0950   19.7980 O   0  0  0  0  0  0  0  0  0  0  0  0
  -29.7100  -16.2040   20.3280 N   0  0  0  0  0  0  0  0  0  0  0  0
  -28.7720  -15.9470   20.5930 H   0  0  0  0  0  0  0  0  0  0  0  0
  -25.2180  -13.9270   20.5060 C   0  0  0  0  0  0  0  0  0  0  0  0
  -24.1700  -13.1430   20.9080 C   0  0  0  0  0  0  0  0  0  0  0  0
  -24.6290  -11.7940   20.8200 C   0  0  0  0  0  0  0  0  0  0  0  0
  -26.2470  -13.0520   20.1970 N   0  0  0  0  0  0  0  0  0  0  0  0
  -25.9040  -11.7630   20.4570 N   0  0  0  0  0  0  0  0  0  0  0  0
  -23.9050  -10.5290   21.0070 C   0  0  0  0  0  0  0  0  0  0  0  0
  -24.3560   -9.5540   21.9240 C   0  0  0  0  0  3  0  0  0  0  0  0
  -23.6330   -8.3540   22.1030 C   0  0  0  0  0  3  0  0  0  0  0  0
  -22.4460   -8.1210   21.3680 C   0  0  0  0  0  0  0  0  0  0  0  0
  -22.0180   -9.0870   20.4410 C   0  0  0  0  0  3  0  0  0  0  0  0
  -22.7390  -10.2780   20.2590 C   0  0  0  0  0  3  0  0  0  0  0  0
  -21.6960   -6.9740   21.4560 O   0  0  0  0  0  0  0  0  0  0  0  0
  -21.6390   -6.2370   22.6110 C   0  0  0  0  0  0  0  0  0  0  0  0
  -21.1660   -6.7850   23.8240 C   0  0  0  0  0  3  0  0  0  0  0  0
  -21.0600   -5.9730   24.9680 C   0  0  0  0  0  3  0  0  0  0  0  0
  -21.4140   -4.6130   24.9040 C   0  0  0  0  0  0  0  0  0  0  0  0
  -21.8840   -4.0650   23.6990 C   0  0  0  0  0  3  0  0  0  0  0  0
  -21.9910   -4.8740   22.5550 C   0  0  0  0  0  0  0  0  0  0  0  0
  -22.4200   -4.3340   21.3890 F   0  0  0  0  0  0  0  0  0  0  0  0
  -21.3090   -3.8310   26.0050 F   0  0  0  0  0  0  0  0  0  0  0  0
  -22.7870  -13.6160   21.2450 C   0  0  0  0  0  0  0  0  0  0  0  0
  -22.0950  -12.9030   22.1290 N   0  0  0  0  0  0  0  0  0  0  0  0
  -22.3290  -14.6490   20.7590 O   0  0  0  0  0  0  0  0  0  0  0  0
  -22.4750  -12.0680   22.5480 H   0  0  0  0  0  0  0  0  0  0  0  0
  -21.1630  -13.1990   22.3880 H   0  0  0  0  0  0  0  0  0  0  0  0
  -25.3730  -15.3000   20.3500 N   0  0  0  0  0  0  0  0  0  0  0  0
  -24.6060  -15.9470   20.4950 H   0  0  0  0  0  0  0  0  0  0  0  0
  -26.1560  -15.7280   19.8760 H   0  0  0  0  0  0  0  0  0  0  0  0
  -28.5430  -21.5870   19.9650 C   0  0  0  0  0  2  0  0  0  0  0  0
  -28.9920  -23.2290   20.1460 C   0  0  0  0  0  3  0  0  0  0  0  0
  -27.9560  -24.5900   20.0030 C   0  0  0  0  0  3  0  0  0  0  0  0
  -28.2340  -26.1340   20.1930 O   0  0  0  0  0  0  0  0  0  0  0  0
  -24.6210  -31.8730   23.2300 C   0  0  0  0  0  0  0  0  0  0  0  0
  -27.1840  -27.1400   20.1570 C   0  0  0  0  0  0  0  0  0  0  0  0
  -23.4170  -30.4830   21.5900 C   0  0  0  0  0  3  0  0  0  0  0  0
  -24.8590  -28.9120   20.1550 C   0  0  0  0  0  0  0  0  0  0  0  0
  -25.9740  -30.7380   21.4220 C   0  0  0  0  0  2  0  0  0  0  0  0
  -26.0450  -29.3460   20.7590 C   0  0  0  0  0  0  0  0  0  0  0  0
  -27.2070  -28.4770   20.7440 C   0  0  0  0  0  3  0  0  0  0  0  0
  -25.9650  -26.8170   19.5220 C   0  0  0  0  0  3  0  0  0  0  0  0
  -24.8350  -27.6620   19.5200 C   0  0  0  0  0  3  0  0  0  0  0  0
  -23.6350  -29.8150   20.2060 C   0  0  0  0  0  2  0  0  0  0  0  0
  -24.6910  -31.0540   22.1350 N   0  0  0  0  0  0  0  0  0  0  0  0
  -23.5350  -32.1560   23.7620 O   0  0  0  0  0  0  0  0  0  0  0  0
  -22.7410  -29.4720   22.5510 C   0  0  0  0  0  0  0  0  0  0  0  0
  -21.4150  -29.2940   22.4200 N   0  0  0  0  0  0  0  0  0  0  0  0
  -23.4130  -28.8500   23.3760 O   0  0  0  0  0  0  0  0  0  0  0  0
  -20.9280  -29.8490   21.7320 H   0  0  0  0  0  0  0  0  0  0  0  0
  -18.0370  -28.0770   22.9220 C   0  0  0  0  0  0  0  0  0  0  0  0
  -20.5960  -28.3520   23.1890 C   0  0  0  0  0  3  0  0  0  0  0  0
  -20.7020  -26.9210   22.6110 C   0  0  0  0  0  2  0  0  0  0  0  0
  -19.6030  -26.5940   21.5970 C   0  0  0  0  0  2  0  0  0  0  0  0
  -18.2200  -26.7300   22.2400 C   0  0  0  0  0  2  0  0  0  0  0  0
  -19.1530  -28.8440   23.3530 C   0  0  0  0  0  0  0  0  0  0  0  0
  -18.9280  -30.1020   23.9520 C   0  0  0  0  0  3  0  0  0  0  0  0
  -17.6210  -30.5950   24.1230 C   0  0  0  0  0  3  0  0  0  0  0  0
  -16.5200  -29.8260   23.7110 C   0  0  0  0  0  3  0  0  0  0  0  0
  -16.7290  -28.5690   23.1150 C   0  0  0  0  0  3  0  0  0  0  0  0
  -25.9010  -32.5080   23.8580 C   0  0  0  0  0  3  0  0  0  0  0  0
  -26.4160  -31.7330   25.1340 C   0  0  1  0  0  0  0  0  0  0  0  0
  -25.3220  -31.4890   26.2000 C   0  0  0  0  0  1  0  0  0  0  0  0
  -27.0050  -30.3560   24.7470 C   0  0  0  0  0  1  0  0  0  0  0  0
  -27.5600  -32.5280   25.8020 C   0  0  0  0  0  1  0  0  0  0  0  0
  -25.5880  -33.9040   24.1990 N   0  0  0  0  0  0  0  0  0  0  0  0
  -25.8890  -34.9650   23.4400 C   0  0  0  0  0  0  0  0  0  0  0  0
  -26.5330  -34.8730   22.3920 O   0  0  0  0  0  0  0  0  0  0  0  0
  -25.0150  -34.0490   25.0180 H   0  0  0  0  0  0  0  0  0  0  0  0
  -24.1360  -36.7490   23.1520 C   0  0  0  0  0  1  0  0  0  0  0  0
  -25.4070  -36.3500   23.9180 C   0  0  0  0  0  3  0  0  0  0  0  0
  -27.5570  -37.2580   24.6860 C   0  0  0  0  0  1  0  0  0  0  0  0
  -26.4260  -37.4130   23.7740 N   0  0  0  0  0  0  0  0  0  0  0  0
  -26.0150  -38.3290   23.9310 H   0  0  0  0  0  0  0  0  0  0  0  0
  1  2  1  0
  2  5  1  0
  3  7  1  0
  3  1  2  0
  4  2  2  0
  4 16  1  0
  6  3  1  0
  7  4  1  0
  8 16  1  0
  9 14  1  0
 10 11  1  0
 10  9  1  0
 12 11  1  0
 12 21  1  0
 12 13  1  0
 14  8  1  0
 14 13  1  0
 15  8  2  0
 16 17  1  0
 18 19  2  0
 19 38  1  0
 20 19  1  0
 20 23  1  0
 21 22  1  0
 21 18  1  0
 22 20  2  0
 23 24  1  0
 24 25  2  0
 26 29  1  0
 26 25  1  0
 27 26  2  0
 28 27  1  0
 28 23  2  0
 29 30  1  0
 30 31  1  0
 31 32  2  0
 33 32  1  0
 33 37  1  0
 34 33  2  0
 35 30  2  0
 35 34  1  0
 36 35  1  0
 38 39  1  0
 39 42  1  0
 39 41  1  0
 40 38  2  0
 43 44  1  0
 43 18  1  0
 45 43  1  0
 46  1  1  0
 46 47  1  0
 48 47  2  0
 48 49  1  0
 50 61  2  0
 51 49  1  0
 51 56  1  0
 52 60  1  0
 52 62  1  0
 53 59  1  0
 53 55  1  0
 54 60  1  0
 55 54  1  0
 56 55  2  0
 57 51  2  0
 58 57  1  0
 58 53  2  0
 59 52  1  0
 60 50  1  0
 62 64  2  0
 63 62  1  0
 65 63  1  0
 66 75  2  0
 66 71  1  0
 67 63  1  0
 67 71  1  0
 68 67  1  0
 69 70  1  0
 69 68  1  0
 70 66  1  0
 71 72  2  0
 72 73  1  0
 74 73  2  0
 75 74  1  0
 76 50  1  0
 76 81  1  0
 76 77  1  0
 77 80  1  1
 77 78  1  0
 79 77  1  0
 81 84  1  0
 82 86  1  0
 82 81  1  0
 83 82  2  0
 86 85  1  0
 88 86  1  0
 88 89  1  0
 88 87  1  0
M  ISO  4   8 100  16 100  48 101  49 101
M  END
>  <TORSDO>  (86) 
F 19

>  <SCORE>  (86) 
-15.464

>  <name>  (86) 
85

>  <ligand_id>  (86) 
85

>  <original_smiles>  (86) 
[H]c1c([H])c([H])c2c(c1[H])C([H])([H])C([H])([H])C([H])([H])C2([H])N([H])C(=O)C1([H])N(C(=O)C([H])(N([H])C(=O)C([H])(N([H])C([H])([H])[H])C([H])([H])[H])C(C([H])([H])[H])(C([H])([H])[H])C([H])([H])[H])C([H])([H])c2c([H])c(OC([H])([H])C([H])([H])C([H])([H])c3c(C([H])([H])[H])sc(N([H])C(=O)N4C([H])([H])C([H])([H])C([H])([H])C([H])(n5nc(-c6c([H])c([H])c(Oc7c([H])c([H])c(F)c([H])c7F)c([H])c6[H])c(C(=O)N([H])[H])c5N([H])[H])C4([H])[H])c3C([H])([H])[H])c([H])c([H])c2C1([H])[H]

>  <smiles>  (86) 
[H]c1c([H])c([H])c2c(c1[H])C([H])([H])C([H])([H])C([H])([H])C2([H])N([H])C(=O)C1([H])N(C(=O)C([H])(N([H])C(=O)C([H])(N([H])C([H])([H])[H])C([H])([H])[H])C(C([H])([H])[H])(C([H])([H])[H])C([H])([H])[H])C([H])([H])c2c([H])c(OC([H])([H])C([H])([H])C([H])([H])c3c(C([H])([H])[H])sc(N([H])C(=O)N4C([H])([H])C([H])([H])C([H])([H])C([H])(n5nc(-c6c([H])c([H])c(Oc7c([H])c([H])c(F)c([H])c7F)c([H])c6[H])c(C(=O)N([H])[H])c5N([H])[H])C4([H])[H])c3C([H])([H])[H])c([H])c([H])c2C1([H])[H]

$$$$
86:0:0
     RDKit          3D

102110  0  0  1  0  0  0  0  0999 V2000
  -27.5860  -23.0930   24.1950 C   0  0  0  0  0  3  0  0  0  0  0  0
  -27.4340  -22.9350   25.5870 C   0  0  0  0  0  0  0  0  0  0  0  0
  -25.2160  -23.9550   25.4650 C   0  0  0  0  0  0  0  0  0  0  0  0
  -26.5710  -23.6920   23.4290 C   0  0  0  0  0  0  0  0  0  0  0  0
  -26.2540  -23.3690   26.2180 C   0  0  0  0  0  0  0  0  0  0  0  0
  -25.3760  -24.1380   24.0680 C   0  0  0  0  0  0  0  0  0  0  0  0
  -23.9470  -24.3960   26.1810 C   0  0  0  0  0  1  0  0  0  0  0  0
  -26.1190  -23.2150   27.5580 F   0  0  0  0  0  0  0  0  0  0  0  0
  -24.1260  -24.9500   23.1780 Cl  0  0  0  0  0  0  0  0  0  0  0  0
  -25.8640  -23.3100   21.1360 C   0  0  0  0  0  1  0  0  0  0  0  0
  -26.8530  -23.8590   22.0610 N   0  0  0  0  0  0  0  0  0  0  0  0
  -27.3780  -25.1980   21.8040 C   0  0  0  0  0  2  0  0  0  0  0  0
  -28.1550  -25.3350   20.4650 C   0  0  0  0  0  2  0  0  0  0  0  0
  -28.3730  -26.7140   20.1380 O   0  0  0  0  0  0  0  0  0  0  0  0
  -24.6080  -31.8700   23.2180 C   0  0  0  0  0  0  0  0  0  0  0  0
  -27.2280  -27.4750   20.0710 C   0  0  0  0  0  0  0  0  0  0  0  0
  -23.3970  -30.4940   21.5590 C   0  0  0  0  0  3  0  0  0  0  0  0
  -24.8430  -28.9800   20.1030 C   0  0  0  0  0  0  0  0  0  0  0  0
  -25.9210  -30.8430   21.3690 C   0  0  0  0  0  2  0  0  0  0  0  0
  -26.0000  -29.4880   20.7070 C   0  0  0  0  0  0  0  0  0  0  0  0
  -27.1970  -28.7380   20.6980 C   0  0  0  0  0  3  0  0  0  0  0  0
  -26.0600  -26.9910   19.4380 C   0  0  0  0  0  3  0  0  0  0  0  0
  -24.8650  -27.7270   19.4700 C   0  0  0  0  0  3  0  0  0  0  0  0
  -23.6000  -29.8350   20.1710 C   0  0  0  0  0  2  0  0  0  0  0  0
  -24.6610  -31.0790   22.1100 N   0  0  0  0  0  0  0  0  0  0  0  0
  -23.5260  -32.1430   23.7570 O   0  0  0  0  0  0  0  0  0  0  0  0
  -22.7340  -29.4640   22.5010 C   0  0  0  0  0  0  0  0  0  0  0  0
  -21.4070  -29.2960   22.3660 N   0  0  0  0  0  0  0  0  0  0  0  0
  -23.4100  -28.8260   23.3110 O   0  0  0  0  0  0  0  0  0  0  0  0
  -20.9150  -29.8630   21.6890 H   0  0  0  0  0  0  0  0  0  0  0  0
  -18.0240  -28.1390   22.8500 C   0  0  0  0  0  0  0  0  0  0  0  0
  -20.5820  -28.3650   23.1330 C   0  0  0  0  0  3  0  0  0  0  0  0
  -20.6730  -26.9360   22.5540 C   0  0  0  0  0  2  0  0  0  0  0  0
  -19.5820  -26.6400   21.5230 C   0  0  0  0  0  2  0  0  0  0  0  0
  -18.1920  -26.8000   22.1480 C   0  0  0  0  0  2  0  0  0  0  0  0
  -19.1490  -28.8820   23.2930 C   0  0  0  0  0  0  0  0  0  0  0  0
  -18.9440  -30.1410   23.8990 C   0  0  0  0  0  3  0  0  0  0  0  0
  -17.6470  -30.6610   24.0600 C   0  0  0  0  0  3  0  0  0  0  0  0
  -16.5340  -29.9140   23.6370 C   0  0  0  0  0  3  0  0  0  0  0  0
  -16.7240  -28.6530   23.0420 C   0  0  0  0  0  3  0  0  0  0  0  0
  -25.8970  -32.4880   23.8440 C   0  0  0  0  0  3  0  0  0  0  0  0
  -25.5840  -33.8690   24.2380 N   0  0  0  0  0  0  0  0  0  0  0  0
  -25.9020  -34.9520   23.5160 C   0  0  0  0  0  0  0  0  0  0  0  0
  -26.5610  -34.8970   22.4740 O   0  0  0  0  0  0  0  0  0  0  0  0
  -25.0020  -33.9930   25.0530 H   0  0  0  0  0  0  0  0  0  0  0  0
  -24.1460  -36.7330   23.2640 C   0  0  0  0  0  1  0  0  0  0  0  0
  -25.4110  -36.3170   24.0340 C   0  0  0  0  0  3  0  0  0  0  0  0
  -27.5590  -37.1830   24.8490 C   0  0  0  0  0  1  0  0  0  0  0  0
  -26.4330  -37.3840   23.9400 N   0  0  0  0  0  0  0  0  0  0  0  0
  -26.0220  -38.2920   24.1380 H   0  0  0  0  0  0  0  0  0  0  0  0
  -26.4430  -31.6650   25.0740 C   0  0  1  0  0  0  0  0  0  0  0  0
  -25.3700  -31.3760   26.1500 C   0  0  0  0  0  1  0  0  0  0  0  0
  -27.0250  -30.3090   24.6100 C   0  0  0  0  0  1  0  0  0  0  0  0
  -27.6030  -32.4340   25.7480 C   0  0  0  0  0  1  0  0  0  0  0  0
  -28.5370  -22.2800   26.3910 C   0  0  0  0  0  2  0  0  0  0  0  0
  -28.4710  -20.8190   26.2080 N   0  0  0  0  0  4  0  0  0  0  0  0
  -27.8600  -20.6510   25.4270 H   0  0  0  0  0  0  0  0  0  0  0  0
  -28.0430  -20.4060   27.0200 H   0  0  0  0  0  0  0  0  0  0  0  0
  -29.7610  -20.1650   25.9190 C   0  0  0  0  0  2  0  0  0  0  0  0
  -29.5610  -18.7400   25.3700 C   0  0  0  0  0  2  0  0  0  0  0  0
  -30.8520  -18.1600   24.7800 C   0  0  0  0  0  2  0  0  0  0  0  0
  -30.6470  -16.8270   24.0430 C   0  0  0  0  0  2  0  0  0  0  0  0
  -31.9160  -16.4170   23.2780 C   0  0  0  0  0  2  0  0  0  0  0  0
  -31.9720  -14.9330   22.8950 C   0  0  0  0  0  2  0  0  0  0  0  0
  -30.8640  -14.2340   20.7880 C   0  0  0  0  0  0  0  0  0  0  0  0
  -30.4050  -12.2910   19.3540 C   0  0  0  0  0  2  0  0  0  0  0  0
  -29.4630  -12.5460   18.1710 C   0  0  0  0  0  2  0  0  0  0  0  0
  -28.0000  -12.3700   18.6080 C   0  0  0  0  0  2  0  0  0  0  0  0
  -27.6650  -13.2020   19.8720 C   0  0  0  0  0  3  0  0  0  0  0  0
  -28.7060  -12.9690   20.9890 C   0  0  0  0  0  2  0  0  0  0  0  0
  -30.0560  -13.2060   20.4470 N   0  0  0  0  0  0  0  0  0  0  0  0
  -31.7570  -14.6840   20.0620 O   0  0  0  0  0  0  0  0  0  0  0  0
  -30.8280  -14.4900   22.1010 N   0  0  0  0  0  0  0  0  0  0  0  0
  -30.0730  -14.0480   22.6060 H   0  0  0  0  0  0  0  0  0  0  0  0
  -25.2630  -13.8170   20.5680 C   0  0  0  0  0  0  0  0  0  0  0  0
  -24.1850  -13.0430   20.9170 C   0  0  0  0  0  0  0  0  0  0  0  0
  -24.6410  -11.6910   20.8740 C   0  0  0  0  0  0  0  0  0  0  0  0
  -26.3050  -12.9330   20.3360 N   0  0  0  0  0  0  0  0  0  0  0  0
  -25.9330  -11.6490   20.5760 N   0  0  0  0  0  0  0  0  0  0  0  0
  -23.9080  -10.4290   21.0420 C   0  0  0  0  0  0  0  0  0  0  0  0
  -24.3630   -9.4210   21.9190 C   0  0  0  0  0  3  0  0  0  0  0  0
  -23.6300   -8.2250   22.0770 C   0  0  0  0  0  3  0  0  0  0  0  0
  -22.4280   -8.0280   21.3550 C   0  0  0  0  0  0  0  0  0  0  0  0
  -21.9930   -9.0260   20.4650 C   0  0  0  0  0  3  0  0  0  0  0  0
  -22.7260  -10.2150   20.3070 C   0  0  0  0  0  3  0  0  0  0  0  0
  -21.6640   -6.8890   21.4240 O   0  0  0  0  0  0  0  0  0  0  0  0
  -21.6850   -6.0740   22.5280 C   0  0  0  0  0  0  0  0  0  0  0  0
  -21.4020   -6.5640   23.8220 C   0  0  0  0  0  3  0  0  0  0  0  0
  -21.3650   -5.6790   24.9180 C   0  0  0  0  0  3  0  0  0  0  0  0
  -21.6050   -4.3060   24.7230 C   0  0  0  0  0  0  0  0  0  0  0  0
  -21.8820   -3.8150   23.4350 C   0  0  0  0  0  3  0  0  0  0  0  0
  -21.9200   -4.6970   22.3400 C   0  0  0  0  0  0  0  0  0  0  0  0
  -22.1660   -4.2150   21.0990 F   0  0  0  0  0  0  0  0  0  0  0  0
  -21.5630   -3.4540   25.7740 F   0  0  0  0  0  0  0  0  0  0  0  0
  -22.7880  -13.5250   21.1820 C   0  0  0  0  0  0  0  0  0  0  0  0
  -22.0520  -12.8230   22.0370 N   0  0  0  0  0  0  0  0  0  0  0  0
  -22.3570  -14.5550   20.6660 O   0  0  0  0  0  0  0  0  0  0  0  0
  -22.4130  -11.9890   22.4740 H   0  0  0  0  0  0  0  0  0  0  0  0
  -21.1160  -13.1290   22.2600 H   0  0  0  0  0  0  0  0  0  0  0  0
  -25.4340  -15.1880   20.4090 N   0  0  0  0  0  0  0  0  0  0  0  0
  -24.6690  -15.8460   20.5170 H   0  0  0  0  0  0  0  0  0  0  0  0
  -26.2980  -15.6290   20.1130 H   0  0  0  0  0  0  0  0  0  0  0  0
  1  2  1  0
  2  5  2  0
  2 55  1  0
  3  7  1  0
  3  5  1  0
  4  6  1  0
  4  1  2  0
  5  8  1  0
  6  3  2  0
  9  6  1  0
 10 11  1  0
 11  4  1  0
 12 11  1  0
 13 12  1  0
 14 13  1  0
 15 26  2  0
 16 14  1  0
 16 21  1  0
 17 25  1  0
 17 27  1  0
 18 24  1  0
 18 20  1  0
 19 25  1  0
 20 19  1  0
 21 20  2  0
 22 23  1  0
 22 16  2  0
 23 18  2  0
 24 17  1  0
 25 15  1  0
 27 29  2  0
 28 27  1  0
 30 28  1  0
 31 40  2  0
 31 36  1  0
 32 28  1  0
 32 36  1  0
 33 32  1  0
 34 35  1  0
 34 33  1  0
 35 31  1  0
 36 37  2  0
 37 38  1  0
 39 38  2  0
 40 39  1  0
 41 15  1  0
 41 42  1  0
 41 51  1  0
 42 45  1  0
 43 47  1  0
 43 42  1  0
 44 43  2  0
 47 46  1  0
 49 47  1  0
 49 50  1  0
 49 48  1  0
 51 54  1  1
 51 52  1  0
 53 51  1  0
 56 55  1  0
 56 58  1  0
 57 56  1  0
 59 56  1  0
 60 59  1  0
 61 60  1  0
 62 61  1  0
 63 62  1  0
 64 63  1  0
 65 73  1  0
 66 71  1  0
 67 68  1  0
 67 66  1  0
 69 68  1  0
 69 78  1  0
 69 70  1  0
 71 65  1  0
 71 70  1  0
 72 65  2  0
 73 74  1  0
 73 64  1  0
 75 76  2  0
 76 95  1  0
 77 76  1  0
 77 80  1  0
 78 75  1  0
 78 79  1  0
 79 77  2  0
 80 81  1  0
 81 82  2  0
 83 86  1  0
 83 82  1  0
 84 83  2  0
 85 84  1  0
 85 80  2  0
 86 87  1  0
 87 88  1  0
 88 89  2  0
 90 89  1  0
 90 94  1  0
 91 90  2  0
 92 87  2  0
 92 91  1  0
 93 92  1  0
 95 96  1  0
 96 99  1  0
 96 98  1  0
 97 95  2  0
100101  1  0
100 75  1  0
102100  1  0
M  ISO  4  13 101  14 101  65 100  73 100
M  END
>  <TORSDO>  (87) 
F 27

>  <SCORE>  (87) 
33.082

>  <name>  (87) 
86

>  <ligand_id>  (87) 
86

>  <original_smiles>  (87) 
[H]c1c([H])c([H])c2c(c1[H])C([H])([H])C([H])([H])C([H])([H])C2([H])N([H])C(=O)C1([H])N(C(=O)C([H])(N([H])C(=O)C([H])(N([H])C([H])([H])[H])C([H])([H])[H])C(C([H])([H])[H])(C([H])([H])[H])C([H])([H])[H])C([H])([H])c2c([H])c(OC([H])([H])C([H])([H])N(c3c([H])c(C([H])([H])[N+]([H])([H])C([H])([H])C([H])([H])C([H])([H])C([H])([H])C([H])([H])C([H])([H])N([H])C(=O)N4C([H])([H])C([H])([H])C([H])([H])C([H])(n5nc(-c6c([H])c([H])c(Oc7c([H])c([H])c(F)c([H])c7F)c([H])c6[H])c(C(=O)N([H])[H])c5N([H])[H])C4([H])[H])c(F)c(C([H])([H])[H])c3Cl)C([H])([H])[H])c([H])c([H])c2C1([H])[H]

>  <smiles>  (87) 
[H]c1c([H])c([H])c2c(c1[H])C([H])([H])C([H])([H])C([H])([H])C2([H])N([H])C(=O)C1([H])N(C(=O)C([H])(N([H])C(=O)C([H])(N([H])C([H])([H])[H])C([H])([H])[H])C(C([H])([H])[H])(C([H])([H])[H])C([H])([H])[H])C([H])([H])c2c([H])c(OC([H])([H])C([H])([H])N(c3c([H])c(C([H])([H])[N+]([H])([H])C([H])([H])C([H])([H])C([H])([H])C([H])([H])C([H])([H])C([H])([H])N([H])C(=O)N4C([H])([H])C([H])([H])C([H])([H])C([H])(n5nc(-c6c([H])c([H])c(Oc7c([H])c([H])c(F)c([H])c7F)c([H])c6[H])c(C(=O)N([H])[H])c5N([H])[H])C4([H])[H])c(F)c(C([H])([H])[H])c3Cl)C([H])([H])[H])c([H])c([H])c2C1([H])[H]

$$$$
87:0:0
     RDKit          3D

 91 99  0  0  1  0  0  0  0  0999 V2000
  -29.2010  -18.0490   20.7640 C   0  0  0  0  0  3  0  0  0  0  0  0
  -31.4670  -17.9640   19.9630 C   0  0  0  0  0  3  0  0  0  0  0  0
  -30.3420  -20.1820   20.2060 C   0  0  0  0  0  0  0  0  0  0  0  0
  -30.3340  -17.2590   20.4470 C   0  0  0  0  0  0  0  0  0  0  0  0
  -29.1970  -19.4690   20.6580 C   0  0  0  0  0  0  0  0  0  0  0  0
  -31.4710  -19.3860   19.8430 C   0  0  0  0  0  0  0  0  0  0  0  0
  -27.7700  -20.3120   21.1480 Cl  0  0  0  0  0  0  0  0  0  0  0  0
  -32.9280  -20.1270   19.2750 Cl  0  0  0  0  0  0  0  0  0  0  0  0
  -31.0130  -14.7620   20.2250 C   0  0  0  0  0  0  0  0  0  0  0  0
  -30.7640  -12.4930   19.2460 C   0  0  0  0  0  2  0  0  0  0  0  0
  -29.8250  -12.5880   18.0210 C   0  0  0  0  0  2  0  0  0  0  0  0
  -28.3460  -12.4910   18.4470 C   0  0  0  0  0  2  0  0  0  0  0  0
  -28.0040  -13.4200   19.6410 C   0  0  0  0  0  3  0  0  0  0  0  0
  -29.0500  -13.2650   20.7700 C   0  0  0  0  0  2  0  0  0  0  0  0
  -30.3740  -13.5520   20.1950 N   0  0  0  0  0  0  0  0  0  0  0  0
  -32.1610  -14.9000   19.7910 O   0  0  0  0  0  0  0  0  0  0  0  0
  -30.2410  -15.8130   20.6300 N   0  0  0  0  0  0  0  0  0  0  0  0
  -29.3710  -15.5020   21.0330 H   0  0  0  0  0  0  0  0  0  0  0  0
  -25.6550  -14.1330   20.4120 C   0  0  0  0  0  0  0  0  0  0  0  0
  -24.5430  -13.4080   20.7480 C   0  0  0  0  0  0  0  0  0  0  0  0
  -24.9180  -12.0330   20.6320 C   0  0  0  0  0  0  0  0  0  0  0  0
  -26.6410  -13.2020   20.1200 N   0  0  0  0  0  0  0  0  0  0  0  0
  -26.2010  -11.9320   20.3090 N   0  0  0  0  0  0  0  0  0  0  0  0
  -24.1140  -10.8100   20.7530 C   0  0  0  0  0  0  0  0  0  0  0  0
  -24.5280   -9.7330   21.5650 C   0  0  0  0  0  3  0  0  0  0  0  0
  -23.7300   -8.5740   21.6800 C   0  0  0  0  0  3  0  0  0  0  0  0
  -22.5010   -8.4870   20.9820 C   0  0  0  0  0  0  0  0  0  0  0  0
  -22.1050   -9.5540   20.1570 C   0  0  0  0  0  3  0  0  0  0  0  0
  -22.9030  -10.7040   20.0400 C   0  0  0  0  0  3  0  0  0  0  0  0
  -21.6720   -7.3920   21.0150 O   0  0  0  0  0  0  0  0  0  0  0  0
  -21.6970   -6.5030   22.0570 C   0  0  0  0  0  0  0  0  0  0  0  0
  -21.4240   -6.9020   23.3850 C   0  0  0  0  0  3  0  0  0  0  0  0
  -21.3910   -5.9420   24.4160 C   0  0  0  0  0  3  0  0  0  0  0  0
  -21.6210   -4.5850   24.1230 C   0  0  0  0  0  0  0  0  0  0  0  0
  -21.8870   -4.1840   22.8020 C   0  0  0  0  0  3  0  0  0  0  0  0
  -21.9220   -5.1410   21.7720 C   0  0  0  0  0  0  0  0  0  0  0  0
  -22.1580   -4.7480   20.4970 F   0  0  0  0  0  0  0  0  0  0  0  0
  -21.5810   -3.6610   25.1130 F   0  0  0  0  0  0  0  0  0  0  0  0
  -23.1800  -13.9550   21.0630 C   0  0  0  0  0  0  0  0  0  0  0  0
  -22.4180  -13.2570   21.8970 N   0  0  0  0  0  0  0  0  0  0  0  0
  -22.8020  -15.0340   20.6070 O   0  0  0  0  0  0  0  0  0  0  0  0
  -22.7350  -12.3820   22.2880 H   0  0  0  0  0  0  0  0  0  0  0  0
  -21.5040  -13.6040   22.1500 H   0  0  0  0  0  0  0  0  0  0  0  0
  -25.9050  -15.4990   20.3110 N   0  0  0  0  0  0  0  0  0  0  0  0
  -25.1750  -16.1880   20.4500 H   0  0  0  0  0  0  0  0  0  0  0  0
  -26.7620  -15.9000   19.9520 H   0  0  0  0  0  0  0  0  0  0  0  0
  -30.4200  -21.7520   20.2900 C   0  0  0  0  0  3  0  0  0  0  0  0
  -29.4390  -22.6820   19.4740 C   0  0  0  0  0  3  0  0  0  0  0  0
  -29.6900  -24.2420   19.6330 C   0  0  0  0  0  3  0  0  0  0  0  0
  -28.4720  -25.1970   19.3490 C   0  0  0  0  0  3  0  0  0  0  0  0
  -28.6110  -26.6310   19.6440 O   0  0  0  0  0  0  0  0  0  0  0  0
  -24.5860  -31.6070   22.9520 C   0  0  0  0  0  0  0  0  0  0  0  0
  -27.4410  -27.4040   19.6400 C   0  0  0  0  0  0  0  0  0  0  0  0
  -23.4610  -30.2560   21.2200 C   0  0  0  0  0  3  0  0  0  0  0  0
  -24.9940  -28.8750   19.7150 C   0  0  0  0  0  0  0  0  0  0  0  0
  -25.9830  -30.7120   21.0810 C   0  0  0  0  0  2  0  0  0  0  0  0
  -26.1320  -29.3860   20.3520 C   0  0  0  0  0  0  0  0  0  0  0  0
  -27.3580  -28.6620   20.3070 C   0  0  0  0  0  3  0  0  0  0  0  0
  -26.2760  -26.9430   18.9820 C   0  0  0  0  0  3  0  0  0  0  0  0
  -25.0670  -27.6580   19.0230 C   0  0  0  0  0  3  0  0  0  0  0  0
  -23.7150  -29.6810   19.8030 C   0  0  0  0  0  2  0  0  0  0  0  0
  -24.6950  -30.8720   21.8080 N   0  0  0  0  0  0  0  0  0  0  0  0
  -23.4880  -31.7980   23.4920 O   0  0  0  0  0  0  0  0  0  0  0  0
  -22.8470  -29.1480   22.1090 C   0  0  0  0  0  0  0  0  0  0  0  0
  -21.5180  -28.9670   22.0160 N   0  0  0  0  0  0  0  0  0  0  0  0
  -23.5610  -28.4600   22.8420 O   0  0  0  0  0  0  0  0  0  0  0  0
  -20.9980  -29.5790   21.4020 H   0  0  0  0  0  0  0  0  0  0  0  0
  -18.1570  -27.7640   22.5950 C   0  0  0  0  0  0  0  0  0  0  0  0
  -20.7330  -27.9600   22.7300 C   0  0  0  0  0  3  0  0  0  0  0  0
  -20.7710  -26.5990   21.9960 C   0  0  0  0  0  2  0  0  0  0  0  0
  -19.6010  -26.4030   21.0270 C   0  0  0  0  0  2  0  0  0  0  0  0
  -18.2650  -26.4930   21.7680 C   0  0  0  0  0  2  0  0  0  0  0  0
  -19.3150  -28.4600   23.0340 C   0  0  0  0  0  0  0  0  0  0  0  0
  -19.1580  -29.6550   23.7680 C   0  0  0  0  0  3  0  0  0  0  0  0
  -17.8750  -30.1510   24.0710 C   0  0  0  0  0  3  0  0  0  0  0  0
  -16.7330  -29.4470   23.6520 C   0  0  0  0  0  3  0  0  0  0  0  0
  -16.8750  -28.2570   22.9160 C   0  0  0  0  0  3  0  0  0  0  0  0
  -25.8330  -32.2620   23.6220 C   0  0  0  0  0  3  0  0  0  0  0  0
  -26.3620  -31.4530   24.8710 C   0  0  1  0  0  0  0  0  0  0  0  0
  -25.2690  -31.1320   25.9180 C   0  0  0  0  0  1  0  0  0  0  0  0
  -26.9930  -30.1140   24.4230 C   0  0  0  0  0  1  0  0  0  0  0  0
  -27.4790  -32.2560   25.5760 C   0  0  0  0  0  1  0  0  0  0  0  0
  -25.4610  -33.6280   24.0100 N   0  0  0  0  0  0  0  0  0  0  0  0
  -25.7840  -34.7300   23.3200 C   0  0  0  0  0  0  0  0  0  0  0  0
  -26.4940  -34.7050   22.3110 O   0  0  0  0  0  0  0  0  0  0  0  0
  -24.8340  -33.7220   24.7960 H   0  0  0  0  0  0  0  0  0  0  0  0
  -24.0050  -36.4770   22.9950 C   0  0  0  0  0  1  0  0  0  0  0  0
  -25.2290  -36.0740   23.8320 C   0  0  0  0  0  3  0  0  0  0  0  0
  -27.2920  -36.9890   24.7980 C   0  0  0  0  0  1  0  0  0  0  0  0
  -26.2230  -37.1680   23.8170 N   0  0  0  0  0  0  0  0  0  0  0  0
  -25.7770  -38.0620   24.0000 H   0  0  0  0  0  0  0  0  0  0  0  0
  2  4  1  0
  3 47  1  0
  3  5  2  0
  4 17  1  0
  4  1  2  0
  5  1  1  0
  5  7  1  0
  6  2  2  0
  6  3  1  0
  8  6  1  0
  9 17  1  0
 10 15  1  0
 11 12  1  0
 11 10  1  0
 13 12  1  0
 13 22  1  0
 13 14  1  0
 15  9  1  0
 15 14  1  0
 16  9  2  0
 17 18  1  0
 19 20  2  0
 20 39  1  0
 21 20  1  0
 21 24  1  0
 22 23  1  0
 22 19  1  0
 23 21  2  0
 24 25  1  0
 25 26  2  0
 27 30  1  0
 27 26  1  0
 28 27  2  0
 29 28  1  0
 29 24  2  0
 30 31  1  0
 31 32  1  0
 32 33  2  0
 34 33  1  0
 34 38  1  0
 35 34  2  0
 36 31  2  0
 36 35  1  0
 37 36  1  0
 39 40  1  0
 40 43  1  0
 40 42  1  0
 41 39  2  0
 44 19  1  0
 44 45  1  0
 46 44  1  0
 48 49  1  0
 48 47  2  0
 50 49  2  0
 50 51  1  0
 52 63  2  0
 53 51  1  0
 53 58  1  0
 54 62  1  0
 54 64  1  0
 55 61  1  0
 55 57  1  0
 56 62  1  0
 57 56  1  0
 58 57  2  0
 59 60  1  0
 59 53  2  0
 60 55  2  0
 61 54  1  0
 62 52  1  0
 64 66  2  0
 65 64  1  0
 67 65  1  0
 68 77  2  0
 68 73  1  0
 69 65  1  0
 69 73  1  0
 70 69  1  0
 71 72  1  0
 71 70  1  0
 72 68  1  0
 73 74  2  0
 74 75  1  0
 76 75  2  0
 77 76  1  0
 78 52  1  0
 78 83  1  0
 78 79  1  0
 79 82  1  1
 79 80  1  0
 81 79  1  0
 83 86  1  0
 84 88  1  0
 84 83  1  0
 85 84  2  0
 88 87  1  0
 90 88  1  0
 90 91  1  0
 90 89  1  0
M  ISO  4   9 100  17 100  50 101  51 101
M  END
>  <TORSDO>  (88) 
F 20

>  <SCORE>  (88) 
-12.181

>  <name>  (88) 
87

>  <ligand_id>  (88) 
87

>  <original_smiles>  (88) 
[H]c1c([H])c([H])c2c(c1[H])C([H])([H])C([H])([H])C([H])([H])C2([H])N([H])C(=O)C1([H])N(C(=O)C([H])(N([H])C(=O)C([H])(N([H])C([H])([H])[H])C([H])([H])[H])C(C([H])([H])[H])(C([H])([H])[H])C([H])([H])[H])C([H])([H])c2c([H])c(OC([H])([H])C([H])([H])C([H])([H])C([H])([H])c3c(Cl)c([H])c(N([H])C(=O)N4C([H])([H])C([H])([H])C([H])([H])C([H])(n5nc(-c6c([H])c([H])c(Oc7c([H])c([H])c(F)c([H])c7F)c([H])c6[H])c(C(=O)N([H])[H])c5N([H])[H])C4([H])[H])c([H])c3Cl)c([H])c([H])c2C1([H])[H]

>  <smiles>  (88) 
[H]c1c([H])c([H])c2c(c1[H])C([H])([H])C([H])([H])C([H])([H])C2([H])N([H])C(=O)C1([H])N(C(=O)C([H])(N([H])C(=O)C([H])(N([H])C([H])([H])[H])C([H])([H])[H])C(C([H])([H])[H])(C([H])([H])[H])C([H])([H])[H])C([H])([H])c2c([H])c(OC([H])([H])C([H])([H])C([H])([H])C([H])([H])c3c(Cl)c([H])c(N([H])C(=O)N4C([H])([H])C([H])([H])C([H])([H])C([H])(n5nc(-c6c([H])c([H])c(Oc7c([H])c([H])c(F)c([H])c7F)c([H])c6[H])c(C(=O)N([H])[H])c5N([H])[H])C4([H])[H])c([H])c3Cl)c([H])c([H])c2C1([H])[H]

$$$$
88:0:0
     RDKit          3D

 98106  0  0  1  0  0  0  0  0999 V2000
  -31.6550  -20.7640   21.5720 C   0  0  0  0  0  2  0  0  0  0  0  0
  -33.4530  -20.0130   22.9920 C   0  0  0  0  0  2  0  0  0  0  0  0
  -32.5990  -19.5820   21.7900 C   0  0  0  0  0  3  0  0  0  0  0  0
  -31.2920  -21.1810   23.0010 C   0  0  0  0  0  3  0  0  0  0  0  0
  -32.6290  -21.0710   23.7480 C   0  0  0  0  0  3  0  0  0  0  0  0
  -33.2740  -22.2410   23.6650 F   0  0  0  0  0  0  0  0  0  0  0  0
  -30.7000  -22.5320   23.1120 N   0  0  0  0  0  4  0  0  0  0  0  0
  -31.4700  -23.1710   22.9860 H   0  0  0  0  0  0  0  0  0  0  0  0
  -30.3680  -22.6650   24.0540 H   0  0  0  0  0  0  0  0  0  0  0  0
  -28.4100  -21.9240   22.2840 C   0  0  0  0  0  1  0  0  0  0  0  0
  -29.6260  -22.8600   22.1410 C   0  0  0  0  0  3  0  0  0  0  0  0
  -29.2160  -24.3390   22.2510 C   0  0  0  0  0  2  0  0  0  0  0  0
  -30.3360  -25.3240   21.8520 C   0  0  0  0  0  2  0  0  0  0  0  0
  -29.7820  -26.7140   21.5340 C   0  0  0  0  0  2  0  0  0  0  0  0
  -28.9350  -26.5870   20.3960 O   0  0  0  0  0  0  0  0  0  0  0  0
  -24.7770  -31.6120   23.2960 C   0  0  0  0  0  0  0  0  0  0  0  0
  -27.7740  -27.3230   20.3720 C   0  0  0  0  0  0  0  0  0  0  0  0
  -23.7280  -30.1960   21.5550 C   0  0  0  0  0  3  0  0  0  0  0  0
  -25.3240  -28.7180   20.2240 C   0  0  0  0  0  0  0  0  0  0  0  0
  -26.2420  -30.6440   21.5340 C   0  0  0  0  0  2  0  0  0  0  0  0
  -26.4130  -29.2840   20.8960 C   0  0  0  0  0  0  0  0  0  0  0  0
  -27.6400  -28.5980   20.9690 C   0  0  0  0  0  3  0  0  0  0  0  0
  -26.6730  -26.7660   19.6920 C   0  0  0  0  0  3  0  0  0  0  0  0
  -25.4460  -27.4550   19.6180 C   0  0  0  0  0  3  0  0  0  0  0  0
  -24.0500  -29.5310   20.1890 C   0  0  0  0  0  2  0  0  0  0  0  0
  -24.9280  -30.8310   22.1900 N   0  0  0  0  0  0  0  0  0  0  0  0
  -23.6540  -31.8470   23.7610 O   0  0  0  0  0  0  0  0  0  0  0  0
  -23.0420  -29.1470   22.4580 C   0  0  0  0  0  0  0  0  0  0  0  0
  -21.7310  -28.9480   22.2470 N   0  0  0  0  0  0  0  0  0  0  0  0
  -23.6870  -28.5160   23.3000 O   0  0  0  0  0  0  0  0  0  0  0  0
  -21.2760  -29.5090   21.5400 H   0  0  0  0  0  0  0  0  0  0  0  0
  -18.3420  -27.7350   22.5440 C   0  0  0  0  0  0  0  0  0  0  0  0
  -20.8830  -27.9840   22.9460 C   0  0  0  0  0  3  0  0  0  0  0  0
  -21.0160  -26.5730   22.3260 C   0  0  0  0  0  2  0  0  0  0  0  0
  -19.9630  -26.2840   21.2510 C   0  0  0  0  0  2  0  0  0  0  0  0
  -18.5530  -26.4080   21.8330 C   0  0  0  0  0  2  0  0  0  0  0  0
  -19.4380  -28.4820   23.0510 C   0  0  0  0  0  0  0  0  0  0  0  0
  -19.1900  -29.7280   23.6690 C   0  0  0  0  0  3  0  0  0  0  0  0
  -17.8790  -30.2230   23.7890 C   0  0  0  0  0  3  0  0  0  0  0  0
  -16.7960  -29.4700   23.3010 C   0  0  0  0  0  3  0  0  0  0  0  0
  -17.0290  -28.2280   22.6840 C   0  0  0  0  0  3  0  0  0  0  0  0
  -26.0000  -32.2660   24.0120 C   0  0  0  0  0  3  0  0  0  0  0  0
  -26.4070  -31.5290   25.3460 C   0  0  1  0  0  0  0  0  0  0  0  0
  -25.2250  -31.3010   26.3180 C   0  0  0  0  0  1  0  0  0  0  0  0
  -27.0350  -30.1510   25.0340 C   0  0  0  0  0  1  0  0  0  0  0  0
  -27.4840  -32.3520   26.0930 C   0  0  0  0  0  1  0  0  0  0  0  0
  -25.6570  -33.6700   24.2760 N   0  0  0  0  0  0  0  0  0  0  0  0
  -26.0330  -34.7010   23.5080 C   0  0  0  0  0  0  0  0  0  0  0  0
  -26.7770  -34.5720   22.5300 O   0  0  0  0  0  0  0  0  0  0  0  0
  -25.0080  -33.8440   25.0300 H   0  0  0  0  0  0  0  0  0  0  0  0
  -24.3050  -36.4490   22.9850 C   0  0  0  0  0  1  0  0  0  0  0  0
  -25.5020  -36.0970   23.8830 C   0  0  0  0  0  3  0  0  0  0  0  0
  -27.5700  -37.0450   24.8040 C   0  0  0  0  0  1  0  0  0  0  0  0
  -26.5240  -37.1610   23.7910 N   0  0  0  0  0  0  0  0  0  0  0  0
  -26.0980  -38.0800   23.8810 H   0  0  0  0  0  0  0  0  0  0  0  0
  -33.4370  -19.1740   20.5650 C   0  0  0  0  0  2  0  0  0  0  0  0
  -32.6370  -18.6320   19.3680 C   0  0  0  0  0  2  0  0  0  0  0  0
  -32.0480  -17.2200   19.5520 C   0  0  0  0  0  2  0  0  0  0  0  0
  -30.9710  -17.0880   20.6480 C   0  0  0  0  0  2  0  0  0  0  0  0
  -29.7850  -16.1880   20.2740 C   0  0  0  0  0  2  0  0  0  0  0  0
  -30.5320  -13.8370   19.8960 C   0  0  0  0  0  0  0  0  0  0  0  0
  -30.0770  -11.7130   18.7510 C   0  0  0  0  0  2  0  0  0  0  0  0
  -29.0500  -12.0170   17.6440 C   0  0  0  0  0  2  0  0  0  0  0  0
  -27.6110  -11.9210   18.1910 C   0  0  0  0  0  2  0  0  0  0  0  0
  -27.4220  -12.7210   19.5080 C   0  0  0  0  0  3  0  0  0  0  0  0
  -28.5550  -12.4040   20.5120 C   0  0  0  0  0  2  0  0  0  0  0  0
  -29.8450  -12.6680   19.8420 N   0  0  0  0  0  0  0  0  0  0  0  0
  -31.5400  -14.0640   19.2240 O   0  0  0  0  0  0  0  0  0  0  0  0
  -29.9240  -14.7790   20.6260 N   0  0  0  0  0  0  0  0  0  0  0  0
  -29.1840  -14.4220   21.2110 H   0  0  0  0  0  0  0  0  0  0  0  0
  -25.1010  -13.3980   20.3940 C   0  0  0  0  0  0  0  0  0  0  0  0
  -24.0530  -12.6520   20.8640 C   0  0  0  0  0  0  0  0  0  0  0  0
  -24.4810  -11.2880   20.8110 C   0  0  0  0  0  0  0  0  0  0  0  0
  -26.1070  -12.4890   20.0940 N   0  0  0  0  0  0  0  0  0  0  0  0
  -25.7390  -11.2170   20.3940 N   0  0  0  0  0  0  0  0  0  0  0  0
  -23.7480  -10.0450   21.0840 C   0  0  0  0  0  0  0  0  0  0  0  0
  -24.2340   -9.0850   22.0010 C   0  0  0  0  0  3  0  0  0  0  0  0
  -23.5010   -7.9060   22.2570 C   0  0  0  0  0  3  0  0  0  0  0  0
  -22.2700   -7.6780   21.5950 C   0  0  0  0  0  0  0  0  0  0  0  0
  -21.8030   -8.6230   20.6660 C   0  0  0  0  0  3  0  0  0  0  0  0
  -22.5350   -9.7950   20.4090 C   0  0  0  0  0  3  0  0  0  0  0  0
  -21.5070   -6.5480   21.7590 O   0  0  0  0  0  0  0  0  0  0  0  0
  -21.5310   -5.8260   22.9260 C   0  0  0  0  0  0  0  0  0  0  0  0
  -21.1980   -6.4080   24.1670 C   0  0  0  0  0  3  0  0  0  0  0  0
  -21.1720   -5.6160   25.3320 C   0  0  0  0  0  3  0  0  0  0  0  0
  -21.4650   -4.2410   25.2580 C   0  0  0  0  0  0  0  0  0  0  0  0
  -21.7900   -3.6580   24.0190 C   0  0  0  0  0  3  0  0  0  0  0  0
  -21.8210   -4.4490   22.8570 C   0  0  0  0  0  0  0  0  0  0  0  0
  -22.1160   -3.8790   21.6650 F   0  0  0  0  0  0  0  0  0  0  0  0
  -21.4290   -3.4770   26.3750 F   0  0  0  0  0  0  0  0  0  0  0  0
  -22.6980  -13.1610   21.2570 C   0  0  0  0  0  0  0  0  0  0  0  0
  -22.0440  -12.4900   22.1970 N   0  0  0  0  0  0  0  0  0  0  0  0
  -22.2310  -14.1900   20.7640 O   0  0  0  0  0  0  0  0  0  0  0  0
  -22.4350  -11.6540   22.6080 H   0  0  0  0  0  0  0  0  0  0  0  0
  -21.1390  -12.8090   22.5080 H   0  0  0  0  0  0  0  0  0  0  0  0
  -25.2740  -14.7650   20.1840 N   0  0  0  0  0  0  0  0  0  0  0  0
  -24.5270  -15.4340   20.3460 H   0  0  0  0  0  0  0  0  0  0  0  0
  -26.1050  -15.1950   19.7940 H   0  0  0  0  0  0  0  0  0  0  0  0
  1  3  1  0
  1  4  1  0
  2  5  1  0
  3 56  1  0
  3  2  1  0
  4  7  1  0
  4  5  1  0
  5  6  1  0
  7  9  1  0
  8  7  1  0
 11 12  1  0
 11 10  1  0
 11  7  1  0
 13 12  1  0
 14 13  1  0
 15 14  1  0
 16 27  2  0
 17 15  1  0
 17 22  1  0
 18 26  1  0
 18 28  1  0
 19 21  1  0
 20 26  1  0
 21 22  2  0
 21 20  1  0
 23 17  2  0
 24 23  1  0
 24 19  2  0
 25 19  1  0
 25 18  1  0
 26 16  1  0
 28 30  2  0
 29 28  1  0
 31 29  1  0
 32 41  2  0
 32 37  1  0
 33 29  1  0
 33 37  1  0
 34 33  1  0
 35 36  1  0
 35 34  1  0
 36 32  1  0
 37 38  2  0
 38 39  1  0
 40 39  2  0
 41 40  1  0
 42 16  1  0
 42 47  1  0
 42 43  1  0
 43 46  1  1
 43 44  1  0
 45 43  1  0
 47 50  1  0
 48 52  1  0
 48 47  1  0
 49 48  2  0
 52 51  1  0
 54 55  1  0
 54 52  1  0
 54 53  1  0
 57 58  1  0
 57 56  1  0
 58 59  1  0
 60 69  1  0
 60 59  1  0
 61 69  1  0
 62 67  1  0
 63 64  1  0
 63 62  1  0
 65 64  1  0
 65 74  1  0
 65 66  1  0
 67 61  1  0
 67 66  1  0
 68 61  2  0
 69 70  1  0
 71 72  2  0
 72 91  1  0
 73 72  1  0
 73 76  1  0
 74 71  1  0
 74 75  1  0
 75 73  2  0
 76 77  1  0
 77 78  2  0
 79 82  1  0
 79 78  1  0
 80 79  2  0
 81 80  1  0
 81 76  2  0
 82 83  1  0
 83 84  1  0
 84 85  2  0
 86 85  1  0
 86 90  1  0
 87 86  2  0
 88 83  2  0
 88 87  1  0
 89 88  1  0
 91 92  1  0
 92 95  1  0
 92 94  1  0
 93 91  2  0
 96 97  1  0
 96 71  1  0
 98 96  1  0
M  ISO  4  14 101  15 101  61 100  69 100
M  END
>  <TORSDO>  (89) 
F 26

>  <SCORE>  (89) 
-9.634

>  <name>  (89) 
88

>  <ligand_id>  (89) 
88

>  <original_smiles>  (89) 
[H]c1c([H])c([H])c2c(c1[H])C([H])([H])C([H])([H])C([H])([H])C2([H])N([H])C(=O)C1([H])N(C(=O)C([H])(N([H])C(=O)C([H])(N([H])C([H])([H])[H])C([H])([H])[H])C(C([H])([H])[H])(C([H])([H])[H])C([H])([H])[H])C([H])([H])c2c([H])c(OC([H])([H])C([H])([H])C([H])([H])C([H])(C([H])([H])[H])[N+]([H])([H])C3([H])C([H])([H])C([H])(C([H])([H])C([H])([H])C([H])([H])C([H])([H])C([H])([H])N([H])C(=O)N4C([H])([H])C([H])([H])C([H])([H])C([H])(n5nc(-c6c([H])c([H])c(Oc7c([H])c([H])c(F)c([H])c7F)c([H])c6[H])c(C(=O)N([H])[H])c5N([H])[H])C4([H])[H])C([H])([H])C3([H])F)c([H])c([H])c2C1([H])[H]

>  <smiles>  (89) 
[H]c1c([H])c([H])c2c(c1[H])C([H])([H])C([H])([H])C([H])([H])C2([H])N([H])C(=O)C1([H])N(C(=O)C([H])(N([H])C(=O)C([H])(N([H])C([H])([H])[H])C([H])([H])[H])C(C([H])([H])[H])(C([H])([H])[H])C([H])([H])[H])C([H])([H])c2c([H])c(OC([H])([H])C([H])([H])C([H])([H])C([H])(C([H])([H])[H])[N+]([H])([H])C3([H])C([H])([H])C([H])(C([H])([H])C([H])([H])C([H])([H])C([H])([H])C([H])([H])N([H])C(=O)N4C([H])([H])C([H])([H])C([H])([H])C([H])(n5nc(-c6c([H])c([H])c(Oc7c([H])c([H])c(F)c([H])c7F)c([H])c6[H])c(C(=O)N([H])[H])c5N([H])[H])C4([H])[H])C([H])([H])C3([H])F)c([H])c([H])c2C1([H])[H]

$$$$
89:0:0
     RDKit          3D

 95103  0  0  1  0  0  0  0  0999 V2000
  -30.8940  -22.0930   20.5700 C   0  0  0  0  0  2  0  0  0  0  0  0
  -30.5870  -20.3340   22.4200 C   0  0  0  0  0  3  0  0  0  0  0  0
  -30.8790  -19.5550   20.1330 C   0  0  0  0  0  3  0  0  0  0  0  0
  -30.7280  -20.6330   21.0450 C   0  0  0  0  0  0  0  0  0  0  0  0
  -30.6430  -18.9970   22.8770 C   0  0  0  0  0  0  0  0  0  0  0  0
  -30.9340  -18.2010   20.5630 C   0  0  0  0  0  0  0  0  0  0  0  0
  -30.8210  -17.9330   21.9560 C   0  0  0  0  0  0  0  0  0  0  0  0
  -30.5620  -18.7160   24.3740 C   0  0  0  0  0  1  0  0  0  0  0  0
  -30.9710  -16.3180   22.5710 Cl  0  0  0  0  0  0  0  0  0  0  0  0
  -31.2660  -17.1160   19.5080 C   0  0  0  0  0  2  0  0  0  0  0  0
  -31.2740  -14.6410   19.2110 C   0  0  0  0  0  0  0  0  0  0  0  0
  -30.9050  -12.2860   18.5620 C   0  0  0  0  0  2  0  0  0  0  0  0
  -29.8470  -12.2040   17.4390 C   0  0  0  0  0  2  0  0  0  0  0  0
  -28.4320  -12.1390   18.0410 C   0  0  0  0  0  2  0  0  0  0  0  0
  -28.1870  -13.2270   19.1220 C   0  0  0  0  0  3  0  0  0  0  0  0
  -29.3510  -13.2870   20.1390 C   0  0  0  0  0  2  0  0  0  0  0  0
  -30.5990  -13.4700   19.3830 N   0  0  0  0  0  0  0  0  0  0  0  0
  -32.3410  -14.6970   18.5950 O   0  0  0  0  0  0  0  0  0  0  0  0
  -30.6710  -15.7710   19.6380 N   0  0  0  0  0  0  0  0  0  0  0  0
  -29.7790  -15.6980   20.1050 H   0  0  0  0  0  0  0  0  0  0  0  0
  -25.9720  -13.9860   20.1830 C   0  0  0  0  0  0  0  0  0  0  0  0
  -24.9040  -13.2830   20.6770 C   0  0  0  0  0  0  0  0  0  0  0  0
  -25.2420  -11.9040   20.5410 C   0  0  0  0  0  0  0  0  0  0  0  0
  -26.8980  -13.0360   19.7830 N   0  0  0  0  0  0  0  0  0  0  0  0
  -26.4710  -11.7760   20.0530 N   0  0  0  0  0  0  0  0  0  0  0  0
  -24.4430  -10.6960   20.7920 C   0  0  0  0  0  0  0  0  0  0  0  0
  -24.8210   -9.7580   21.7780 C   0  0  0  0  0  3  0  0  0  0  0  0
  -24.0290   -8.6130   22.0180 C   0  0  0  0  0  3  0  0  0  0  0  0
  -22.8460   -8.4010   21.2700 C   0  0  0  0  0  0  0  0  0  0  0  0
  -22.4860   -9.3280   20.2770 C   0  0  0  0  0  3  0  0  0  0  0  0
  -23.2770  -10.4640   20.0370 C   0  0  0  0  0  3  0  0  0  0  0  0
  -22.0290   -7.3060   21.4130 O   0  0  0  0  0  0  0  0  0  0  0  0
  -21.7850   -6.7450   22.6420 C   0  0  0  0  0  0  0  0  0  0  0  0
  -21.2520   -7.4980   23.7120 C   0  0  0  0  0  3  0  0  0  0  0  0
  -20.9520   -6.8670   24.9360 C   0  0  0  0  0  3  0  0  0  0  0  0
  -21.1750   -5.4860   25.0910 C   0  0  0  0  0  0  0  0  0  0  0  0
  -21.7000   -4.7330   24.0250 C   0  0  0  0  0  3  0  0  0  0  0  0
  -22.0020   -5.3610   22.8030 C   0  0  0  0  0  0  0  0  0  0  0  0
  -22.4880   -4.6280   21.7730 F   0  0  0  0  0  0  0  0  0  0  0  0
  -20.8810   -4.8780   26.2640 F   0  0  0  0  0  0  0  0  0  0  0  0
  -23.6060  -13.8590   21.1630 C   0  0  0  0  0  0  0  0  0  0  0  0
  -22.9700  -13.2040   22.1290 N   0  0  0  0  0  0  0  0  0  0  0  0
  -23.1710  -14.9200   20.7190 O   0  0  0  0  0  0  0  0  0  0  0  0
  -23.3380  -12.3410   22.5010 H   0  0  0  0  0  0  0  0  0  0  0  0
  -22.1060  -13.5700   22.5010 H   0  0  0  0  0  0  0  0  0  0  0  0
  -26.2230  -15.3450   20.0260 N   0  0  0  0  0  0  0  0  0  0  0  0
  -25.5330  -16.0480   20.2720 H   0  0  0  0  0  0  0  0  0  0  0  0
  -27.0630  -15.7390   19.6180 H   0  0  0  0  0  0  0  0  0  0  0  0
  -29.6330  -22.8660   20.3650 N   0  0  0  0  0  4  0  0  0  0  0  0
  -28.9080  -22.4460   20.9220 H   0  0  0  0  0  0  0  0  0  0  0  0
  -29.3750  -22.7140   19.4020 H   0  0  0  0  0  0  0  0  0  0  0  0
  -29.6100  -24.6910   22.1210 C   0  0  0  0  0  1  0  0  0  0  0  0
  -29.6940  -24.3560   20.6120 C   0  0  0  0  0  3  0  0  0  0  0  0
  -28.5550  -25.1210   19.8510 C   0  0  0  0  0  2  0  0  0  0  0  0
  -28.5810  -26.5610   20.0420 O   0  0  0  0  0  0  0  0  0  0  0  0
  -24.7330  -31.7260   23.1530 C   0  0  0  0  0  0  0  0  0  0  0  0
  -27.3920  -27.2810   20.0250 C   0  0  0  0  0  0  0  0  0  0  0  0
  -23.5180  -30.2930   21.5470 C   0  0  0  0  0  3  0  0  0  0  0  0
  -24.9670  -28.7700   20.0950 C   0  0  0  0  0  0  0  0  0  0  0  0
  -26.0380  -30.6770   21.3000 C   0  0  0  0  0  2  0  0  0  0  0  0
  -26.1280  -29.2990   20.6680 C   0  0  0  0  0  0  0  0  0  0  0  0
  -27.3380  -28.5600   20.6380 C   0  0  0  0  0  3  0  0  0  0  0  0
  -26.2080  -26.7900   19.4180 C   0  0  0  0  0  3  0  0  0  0  0  0
  -25.0020  -27.5140   19.4720 C   0  0  0  0  0  3  0  0  0  0  0  0
  -23.7080  -29.6080   20.1700 C   0  0  0  0  0  2  0  0  0  0  0  0
  -24.7830  -30.9170   22.0560 N   0  0  0  0  0  0  0  0  0  0  0  0
  -23.6560  -31.9850   23.7100 O   0  0  0  0  0  0  0  0  0  0  0  0
  -22.9040  -29.2670   22.5270 C   0  0  0  0  0  0  0  0  0  0  0  0
  -21.5990  -28.9970   22.3690 N   0  0  0  0  0  0  0  0  0  0  0  0
  -23.6030  -28.7120   23.3790 O   0  0  0  0  0  0  0  0  0  0  0  0
  -21.0970  -29.5100   21.6580 H   0  0  0  0  0  0  0  0  0  0  0  0
  -18.3150  -27.5320   22.7470 C   0  0  0  0  0  0  0  0  0  0  0  0
  -20.8190  -28.0320   23.1440 C   0  0  0  0  0  3  0  0  0  0  0  0
  -21.0810  -26.5870   22.6650 C   0  0  0  0  0  2  0  0  0  0  0  0
  -20.0750  -26.1080   21.6120 C   0  0  0  0  0  2  0  0  0  0  0  0
  -18.6480  -26.1670   22.1670 C   0  0  0  0  0  2  0  0  0  0  0  0
  -19.3380  -28.4130   23.1890 C   0  0  0  0  0  0  0  0  0  0  0  0
  -18.9790  -29.6820   23.6900 C   0  0  0  0  0  3  0  0  0  0  0  0
  -17.6300  -30.0770   23.7540 C   0  0  0  0  0  3  0  0  0  0  0  0
  -16.6200  -29.1960   23.3270 C   0  0  0  0  0  3  0  0  0  0  0  0
  -16.9630  -27.9250   22.8290 C   0  0  0  0  0  3  0  0  0  0  0  0
  -26.0170  -32.3810   23.7470 C   0  0  0  0  0  3  0  0  0  0  0  0
  -25.6770  -33.7650   24.1040 N   0  0  0  0  0  0  0  0  0  0  0  0
  -25.9950  -34.8400   23.3710 C   0  0  0  0  0  0  0  0  0  0  0  0
  -26.6700  -34.7720   22.3390 O   0  0  0  0  0  0  0  0  0  0  0  0
  -25.0590  -33.8860   24.8940 H   0  0  0  0  0  0  0  0  0  0  0  0
  -24.2310  -36.6100   23.0610 C   0  0  0  0  0  1  0  0  0  0  0  0
  -25.4840  -36.2100   23.8560 C   0  0  0  0  0  3  0  0  0  0  0  0
  -27.6030  -37.1210   24.6940 C   0  0  0  0  0  1  0  0  0  0  0  0
  -26.4960  -37.2820   23.7560 N   0  0  0  0  0  0  0  0  0  0  0  0
  -26.0740  -38.1930   23.9180 H   0  0  0  0  0  0  0  0  0  0  0  0
  -26.5920  -31.6080   24.9960 C   0  0  1  0  0  0  0  0  0  0  0  0
  -25.5370  -31.3180   26.0890 C   0  0  0  0  0  1  0  0  0  0  0  0
  -27.2190  -30.2640   24.5600 C   0  0  0  0  0  1  0  0  0  0  0  0
  -27.7260  -32.4360   25.6500 C   0  0  0  0  0  1  0  0  0  0  0  0
  1  4  1  0
  2  5  1  0
  3  6  2  0
  3  4  1  0
  4  2  2  0
  5  8  1  0
  6  7  1  0
  7  9  1  0
  7  5  2  0
 10 19  1  0
 10  6  1  0
 11 17  1  0
 11 19  1  0
 12 17  1  0
 13 14  1  0
 13 12  1  0
 15 14  1  0
 15 24  1  0
 15 16  1  0
 17 16  1  0
 18 11  2  0
 19 20  1  0
 21 22  2  0
 22 41  1  0
 23 22  1  0
 23 26  1  0
 24 25  1  0
 24 21  1  0
 25 23  2  0
 26 27  1  0
 27 28  2  0
 29 32  1  0
 29 28  1  0
 30 29  2  0
 31 30  1  0
 31 26  2  0
 32 33  1  0
 33 38  2  0
 33 34  1  0
 34 35  2  0
 35 36  1  0
 36 40  1  0
 37 36  2  0
 38 37  1  0
 39 38  1  0
 41 42  1  0
 42 45  1  0
 42 44  1  0
 43 41  2  0
 46 21  1  0
 46 47  1  0
 48 46  1  0
 49  1  1  0
 49 53  1  0
 49 50  1  0
 51 49  1  0
 53 52  1  0
 54 55  1  0
 54 53  1  0
 56 67  2  0
 57 55  1  0
 57 62  1  0
 58 66  1  0
 58 68  1  0
 59 65  1  0
 59 61  1  0
 60 66  1  0
 61 60  1  0
 62 61  2  0
 63 64  1  0
 63 57  2  0
 64 59  2  0
 65 58  1  0
 66 56  1  0
 68 70  2  0
 69 68  1  0
 71 69  1  0
 72 81  2  0
 72 77  1  0
 73 69  1  0
 73 77  1  0
 74 73  1  0
 75 76  1  0
 75 74  1  0
 76 72  1  0
 77 78  2  0
 78 79  1  0
 80 79  2  0
 81 80  1  0
 82 56  1  0
 82 83  1  0
 82 92  1  0
 83 86  1  0
 84 88  1  0
 84 83  1  0
 85 84  2  0
 88 87  1  0
 90 88  1  0
 90 91  1  0
 90 89  1  0
 92 95  1  1
 92 93  1  0
 94 92  1  0
M  ISO  4  11 100  19 100  54 101  55 101
M  END
>  <TORSDO>  (90) 
F 21

>  <SCORE>  (90) 
-10.829

>  <name>  (90) 
89

>  <ligand_id>  (90) 
89

>  <original_smiles>  (90) 
[H]c1c([H])c([H])c2c(c1[H])C([H])([H])C([H])([H])C([H])([H])C2([H])N([H])C(=O)C1([H])N(C(=O)C([H])(N([H])C(=O)C([H])(N([H])C([H])([H])[H])C([H])([H])[H])C(C([H])([H])[H])(C([H])([H])[H])C([H])([H])[H])C([H])([H])c2c([H])c(OC([H])([H])C([H])(C([H])([H])[H])[N+]([H])([H])C([H])([H])c3c([H])c(C([H])([H])[H])c(Cl)c(C([H])([H])N([H])C(=O)N4C([H])([H])C([H])([H])C([H])([H])C([H])(n5nc(-c6c([H])c([H])c(Oc7c([H])c([H])c(F)c([H])c7F)c([H])c6[H])c(C(=O)N([H])[H])c5N([H])[H])C4([H])[H])c3[H])c([H])c([H])c2C1([H])[H]

>  <smiles>  (90) 
[H]c1c([H])c([H])c2c(c1[H])C([H])([H])C([H])([H])C([H])([H])C2([H])N([H])C(=O)C1([H])N(C(=O)C([H])(N([H])C(=O)C([H])(N([H])C([H])([H])[H])C([H])([H])[H])C(C([H])([H])[H])(C([H])([H])[H])C([H])([H])[H])C([H])([H])c2c([H])c(OC([H])([H])C([H])(C([H])([H])[H])[N+]([H])([H])C([H])([H])c3c([H])c(C([H])([H])[H])c(Cl)c(C([H])([H])N([H])C(=O)N4C([H])([H])C([H])([H])C([H])([H])C([H])(n5nc(-c6c([H])c([H])c(Oc7c([H])c([H])c(F)c([H])c7F)c([H])c6[H])c(C(=O)N([H])[H])c5N([H])[H])C4([H])[H])c3[H])c([H])c([H])c2C1([H])[H]

$$$$
90:0:0
     RDKit          3D

 97105  0  0  1  0  0  0  0  0999 V2000
  -28.1800  -18.3130   20.0220 C   0  0  0  0  0  0  0  0  0  0  0  0
  -30.5360  -17.6310   19.8730 C   0  0  0  0  0  0  0  0  0  0  0  0
  -29.8690  -19.9530   19.3270 C   0  0  0  0  0  0  0  0  0  0  0  0
  -29.1820  -17.3240   20.1350 C   0  0  0  0  0  0  0  0  0  0  0  0
  -28.5200  -19.6290   19.6310 C   0  0  0  0  0  0  0  0  0  0  0  0
  -30.8670  -18.9530   19.4800 C   0  0  0  0  0  0  0  0  0  0  0  0
  -26.7400  -17.9640   20.3610 C   0  0  0  0  0  1  0  0  0  0  0  0
  -28.8260  -16.0760   20.5280 F   0  0  0  0  0  0  0  0  0  0  0  0
  -27.2710  -20.8330   19.5990 Cl  0  0  0  0  0  0  0  0  0  0  0  0
  -32.5250  -19.3880   19.1930 Cl  0  0  0  0  0  0  0  0  0  0  0  0
  -30.2970  -21.2370   18.9120 N   0  0  0  0  0  0  0  0  0  0  0  0
  -31.3090  -21.3300   18.9240 H   0  0  0  0  0  0  0  0  0  0  0  0
  -29.6750  -21.1310   16.4900 C   0  0  0  0  0  1  0  0  0  0  0  0
  -29.6640  -21.9490   17.7970 C   0  0  0  0  0  3  0  0  0  0  0  0
  -30.3470  -23.3180   17.5830 C   0  0  0  0  0  2  0  0  0  0  0  0
  -30.2960  -24.2520   18.8120 C   0  0  0  0  0  2  0  0  0  0  0  0
  -30.8550  -25.6540   18.5060 C   0  0  0  0  0  2  0  0  0  0  0  0
  -30.5810  -26.5710   19.5660 O   0  0  0  0  0  0  0  0  0  0  0  0
  -26.0420  -29.9290   23.8790 C   0  0  0  0  0  0  0  0  0  0  0  0
  -29.3080  -27.0860   19.7000 C   0  0  0  0  0  0  0  0  0  0  0  0
  -25.0760  -29.0730   21.7690 C   0  0  0  0  0  3  0  0  0  0  0  0
  -26.7540  -28.2530   20.0390 C   0  0  0  0  0  0  0  0  0  0  0  0
  -27.5510  -29.7070   21.9080 C   0  0  0  0  0  2  0  0  0  0  0  0
  -27.8160  -28.6490   20.8580 C   0  0  0  0  0  0  0  0  0  0  0  0
  -29.0910  -28.0670   20.6940 C   0  0  0  0  0  3  0  0  0  0  0  0
  -28.2150  -26.6900   18.8880 C   0  0  0  0  0  3  0  0  0  0  0  0
  -26.9450  -27.2650   19.0570 C   0  0  0  0  0  3  0  0  0  0  0  0
  -25.4290  -28.9390   20.2650 C   0  0  0  0  0  2  0  0  0  0  0  0
  -26.2380  -29.5640   22.5820 N   0  0  0  0  0  0  0  0  0  0  0  0
  -24.9140  -29.9010   24.3900 O   0  0  0  0  0  0  0  0  0  0  0  0
  -24.5010  -27.7290   22.2680 C   0  0  0  0  0  0  0  0  0  0  0  0
  -23.2510  -27.4290   21.8750 N   0  0  0  0  0  0  0  0  0  0  0  0
  -25.1820  -26.9710   22.9640 O   0  0  0  0  0  0  0  0  0  0  0  0
  -22.7550  -28.1040   21.3120 H   0  0  0  0  0  0  0  0  0  0  0  0
  -20.1280  -25.6840   21.3600 C   0  0  0  0  0  0  0  0  0  0  0  0
  -22.5200  -26.2000   22.1860 C   0  0  0  0  0  3  0  0  0  0  0  0
  -22.9810  -25.0240   21.2880 C   0  0  0  0  0  2  0  0  0  0  0  0
  -22.1170  -24.8380   20.0350 C   0  0  0  0  0  2  0  0  0  0  0  0
  -20.6480  -24.6180   20.4080 C   0  0  0  0  0  2  0  0  0  0  0  0
  -21.0050  -26.4340   22.1830 C   0  0  0  0  0  0  0  0  0  0  0  0
  -20.4680  -27.4280   23.0340 C   0  0  0  0  0  3  0  0  0  0  0  0
  -19.0820  -27.6800   23.0630 C   0  0  0  0  0  3  0  0  0  0  0  0
  -18.2160  -26.9250   22.2520 C   0  0  0  0  0  3  0  0  0  0  0  0
  -18.7400  -25.9280   21.4070 C   0  0  0  0  0  3  0  0  0  0  0  0
  -27.2210  -30.4180   24.7750 C   0  0  0  0  0  3  0  0  0  0  0  0
  -26.8600  -31.7380   25.3020 N   0  0  0  0  0  0  0  0  0  0  0  0
  -27.3470  -32.8980   24.8400 C   0  0  0  0  0  0  0  0  0  0  0  0
  -28.2130  -32.9620   23.9630 O   0  0  0  0  0  0  0  0  0  0  0  0
  -26.1160  -31.7700   25.9820 H   0  0  0  0  0  0  0  0  0  0  0  0
  -25.7470  -34.8050   24.4910 C   0  0  0  0  0  1  0  0  0  0  0  0
  -26.7820  -34.1950   25.4490 C   0  0  0  0  0  3  0  0  0  0  0  0
  -28.6900  -34.7990   26.8720 C   0  0  0  0  0  1  0  0  0  0  0  0
  -27.8210  -35.1970   25.7680 N   0  0  0  0  0  0  0  0  0  0  0  0
  -27.3980  -36.0900   26.0080 H   0  0  0  0  0  0  0  0  0  0  0  0
  -27.5660  -29.4210   25.9500 C   0  0  1  0  0  0  0  0  0  0  0  0
  -26.3410  -29.0230   26.8000 C   0  0  0  0  0  1  0  0  0  0  0  0
  -28.2010  -28.1240   25.3980 C   0  0  0  0  0  1  0  0  0  0  0  0
  -28.6160  -30.0590   26.8930 C   0  0  0  0  0  1  0  0  0  0  0  0
  -31.6480  -16.5900   20.0780 C   0  0  0  0  0  2  0  0  0  0  0  0
  -31.8310  -14.1230   19.8510 C   0  0  0  0  0  0  0  0  0  0  0  0
  -31.3690  -11.8490   19.0390 C   0  0  0  0  0  2  0  0  0  0  0  0
  -30.4280  -11.9570   17.8210 C   0  0  0  0  0  2  0  0  0  0  0  0
  -28.9550  -12.0140   18.2770 C   0  0  0  0  0  2  0  0  0  0  0  0
  -28.7090  -13.0700   19.3860 C   0  0  0  0  0  3  0  0  0  0  0  0
  -29.7490  -12.8890   20.5140 C   0  0  0  0  0  2  0  0  0  0  0  0
  -31.0890  -12.9930   19.9160 N   0  0  0  0  0  0  0  0  0  0  0  0
  -32.9330  -14.1870   19.2930 O   0  0  0  0  0  0  0  0  0  0  0  0
  -31.2140  -15.2170   20.3200 N   0  0  0  0  0  0  0  0  0  0  0  0
  -30.3230  -15.0950   20.7870 H   0  0  0  0  0  0  0  0  0  0  0  0
  -26.4460  -14.0260   20.1590 C   0  0  0  0  0  0  0  0  0  0  0  0
  -25.2820  -13.4190   20.5540 C   0  0  0  0  0  0  0  0  0  0  0  0
  -25.5400  -12.0130   20.5080 C   0  0  0  0  0  0  0  0  0  0  0  0
  -27.3400  -13.0010   19.8950 N   0  0  0  0  0  0  0  0  0  0  0  0
  -26.8000  -11.7860   20.1650 N   0  0  0  0  0  0  0  0  0  0  0  0
  -24.6420  -10.8710   20.7210 C   0  0  0  0  0  0  0  0  0  0  0  0
  -24.9330   -9.8710   21.6780 C   0  0  0  0  0  3  0  0  0  0  0  0
  -24.0470   -8.7940   21.8770 C   0  0  0  0  0  3  0  0  0  0  0  0
  -22.8540   -8.7050   21.1200 C   0  0  0  0  0  0  0  0  0  0  0  0
  -22.5840   -9.6850   20.1500 C   0  0  0  0  0  3  0  0  0  0  0  0
  -23.4710  -10.7560   19.9480 C   0  0  0  0  0  3  0  0  0  0  0  0
  -21.9480   -7.6790   21.2260 O   0  0  0  0  0  0  0  0  0  0  0  0
  -21.7770   -6.9910   22.4010 C   0  0  0  0  0  0  0  0  0  0  0  0
  -21.3780   -7.6360   23.5920 C   0  0  0  0  0  3  0  0  0  0  0  0
  -21.1440   -6.8770   24.7580 C   0  0  0  0  0  3  0  0  0  0  0  0
  -21.3020   -5.4790   24.7350 C   0  0  0  0  0  0  0  0  0  0  0  0
  -21.6950   -4.8350   23.5470 C   0  0  0  0  0  3  0  0  0  0  0  0
  -21.9330   -5.5910   22.3850 C   0  0  0  0  0  0  0  0  0  0  0  0
  -22.2890   -4.9640   21.2390 F   0  0  0  0  0  0  0  0  0  0  0  0
  -21.0730   -4.7490   25.8510 F   0  0  0  0  0  0  0  0  0  0  0  0
  -23.9780  -14.0920   20.8660 C   0  0  0  0  0  0  0  0  0  0  0  0
  -23.1910  -13.5180   21.7710 N   0  0  0  0  0  0  0  0  0  0  0  0
  -23.6700  -15.1630   20.3410 O   0  0  0  0  0  0  0  0  0  0  0  0
  -23.4550  -12.6520   22.2170 H   0  0  0  0  0  0  0  0  0  0  0  0
  -22.3130  -13.9460   22.0210 H   0  0  0  0  0  0  0  0  0  0  0  0
  -26.8090  -15.3600   19.9980 N   0  0  0  0  0  0  0  0  0  0  0  0
  -26.1660  -16.1120   20.2140 H   0  0  0  0  0  0  0  0  0  0  0  0
  -27.7280  -15.6830   19.7160 H   0  0  0  0  0  0  0  0  0  0  0  0
  1  4  1  0
  1  7  1  0
  2 59  1  0
  2  4  2  0
  3  6  2  0
  3  5  1  0
  4  8  1  0
  5  1  2  0
  6  2  1  0
  9  5  1  0
 10  6  1  0
 11 12  1  0
 11  3  1  0
 14 13  1  0
 14 11  1  0
 15 14  1  0
 15 16  1  0
 17 16  1  0
 17 18  1  0
 18 20  1  0
 19 30  2  0
 20 25  1  0
 21 31  1  0
 21 29  1  0
 22 28  1  0
 22 24  1  0
 23 29  1  0
 24 23  1  0
 25 24  2  0
 26 27  1  0
 26 20  2  0
 27 22  2  0
 28 21  1  0
 29 19  1  0
 31 33  2  0
 32 31  1  0
 34 32  1  0
 35 44  2  0
 35 40  1  0
 36 32  1  0
 37 36  1  0
 38 39  1  0
 38 37  1  0
 39 35  1  0
 40 36  1  0
 40 41  2  0
 41 42  1  0
 43 42  2  0
 44 43  1  0
 45 19  1  0
 45 46  1  0
 45 55  1  0
 46 49  1  0
 47 46  1  0
 47 51  1  0
 48 47  2  0
 51 50  1  0
 51 53  1  0
 53 54  1  0
 53 52  1  0
 55 56  1  1
 55 58  1  0
 57 55  1  0
 59 68  1  0
 60 66  1  0
 60 68  1  0
 61 66  1  0
 62 63  1  0
 62 61  1  0
 64 63  1  0
 64 73  1  0
 64 65  1  0
 66 65  1  0
 67 60  2  0
 68 69  1  0
 70 71  2  0
 71 90  1  0
 72 71  1  0
 72 75  1  0
 73 70  1  0
 73 74  1  0
 74 72  2  0
 75 76  1  0
 76 77  2  0
 78 81  1  0
 78 77  1  0
 79 78  2  0
 80 79  1  0
 80 75  2  0
 81 82  1  0
 82 83  1  0
 83 84  2  0
 85 84  1  0
 85 89  1  0
 86 85  2  0
 87 82  2  0
 87 86  1  0
 88 87  1  0
 90 91  1  0
 91 94  1  0
 91 93  1  0
 92 90  2  0
 95 70  1  0
 95 96  1  0
 97 95  1  0
M  ISO  4  17 101  18 101  60 100  68 100
M  END
>  <TORSDO>  (91) 
F 22

>  <SCORE>  (91) 
-9.753

>  <name>  (91) 
90

>  <ligand_id>  (91) 
90

>  <original_smiles>  (91) 
[H]c1c([H])c([H])c2c(c1[H])C([H])([H])C([H])([H])C([H])([H])C2([H])N([H])C(=O)C1([H])N(C(=O)C([H])(N([H])C(=O)C([H])(N([H])C([H])([H])[H])C([H])([H])[H])C(C([H])([H])[H])(C([H])([H])[H])C([H])([H])[H])C([H])([H])c2c([H])c(OC([H])([H])C([H])([H])C([H])([H])C([H])(N([H])c3c(Cl)c(C([H])([H])[H])c(F)c(C([H])([H])N([H])C(=O)N4C([H])([H])C([H])([H])C([H])([H])C([H])(n5nc(-c6c([H])c([H])c(Oc7c([H])c([H])c(F)c([H])c7F)c([H])c6[H])c(C(=O)N([H])[H])c5N([H])[H])C4([H])[H])c3Cl)C([H])([H])[H])c([H])c([H])c2C1([H])[H]

>  <smiles>  (91) 
[H]c1c([H])c([H])c2c(c1[H])C([H])([H])C([H])([H])C([H])([H])C2([H])N([H])C(=O)C1([H])N(C(=O)C([H])(N([H])C(=O)C([H])(N([H])C([H])([H])[H])C([H])([H])[H])C(C([H])([H])[H])(C([H])([H])[H])C([H])([H])[H])C([H])([H])c2c([H])c(OC([H])([H])C([H])([H])C([H])([H])C([H])(N([H])c3c(Cl)c(C([H])([H])[H])c(F)c(C([H])([H])N([H])C(=O)N4C([H])([H])C([H])([H])C([H])([H])C([H])(n5nc(-c6c([H])c([H])c(Oc7c([H])c([H])c(F)c([H])c7F)c([H])c6[H])c(C(=O)N([H])[H])c5N([H])[H])C4([H])[H])c3Cl)C([H])([H])[H])c([H])c([H])c2C1([H])[H]

$$$$
91:0:0
     RDKit          3D

101110  0  0  1  0  0  0  0  0999 V2000
  -28.5040  -23.3320   23.8410 C   0  0  0  0  0  1  0  0  0  0  0  0
  -29.4160  -23.4410   22.6810 N   0  0  2  0  0  4  0  0  0  0  0  0
  -29.7910  -24.3810   22.7120 H   0  0  0  0  0  0  0  0  0  0  0  0
  -27.8410  -22.0840   21.3050 C   0  0  0  0  0  1  0  0  0  0  0  0
  -28.6930  -23.3450   21.3490 C   0  0  0  0  0  3  0  0  0  0  0  0
  -25.3600  -23.7680   20.5320 C   0  0  0  0  0  2  0  0  0  0  0  0
  -26.2610  -24.7120   21.3500 C   0  0  0  0  0  2  0  0  0  0  0  0
  -26.0350  -23.7490   19.1490 C   0  0  0  0  0  2  0  0  0  0  0  0
  -27.7540  -24.5770   20.8370 C   0  0  0  0  0  3  0  0  0  0  0  0
  -27.4380  -24.4570   19.2930 C   0  0  0  0  0  3  0  0  0  0  0  0
  -28.5260  -25.3790   17.1990 C   0  0  0  0  0  1  0  0  0  0  0  0
  -27.5820  -25.7500   18.3760 C   0  0  0  0  0  3  0  0  0  0  0  0
  -27.9480  -27.0380   19.0090 O   0  0  0  0  0  0  0  0  0  0  0  0
  -25.5300  -31.2210   24.3920 C   0  0  0  0  0  0  0  0  0  0  0  0
  -26.9540  -27.8770   19.5260 C   0  0  0  0  0  0  0  0  0  0  0  0
  -23.9360  -30.6860   22.5940 C   0  0  0  0  0  3  0  0  0  0  0  0
  -24.9040  -29.6160   20.5130 C   0  0  0  0  0  0  0  0  0  0  0  0
  -26.4490  -30.7750   22.0850 C   0  0  0  0  0  2  0  0  0  0  0  0
  -26.2060  -29.7120   21.0210 C   0  0  0  0  0  0  0  0  0  0  0  0
  -27.2340  -28.8570   20.5230 C   0  0  0  0  0  3  0  0  0  0  0  0
  -25.6080  -27.7890   19.0900 C   0  0  0  0  0  3  0  0  0  0  0  0
  -24.6030  -28.6600   19.5330 C   0  0  0  0  0  3  0  0  0  0  0  0
  -23.8650  -30.5750   21.0450 C   0  0  0  0  0  2  0  0  0  0  0  0
  -25.3400  -30.8890   23.0810 N   0  0  0  0  0  0  0  0  0  0  0  0
  -24.5710  -31.3830   25.1600 O   0  0  0  0  0  0  0  0  0  0  0  0
  -23.2450  -29.4460   23.2300 C   0  0  0  0  0  0  0  0  0  0  0  0
  -21.9440  -29.2750   22.9470 N   0  0  0  0  0  0  0  0  0  0  0  0
  -23.8740  -28.6590   23.9380 O   0  0  0  0  0  0  0  0  0  0  0  0
  -21.5070  -29.9840   22.3780 H   0  0  0  0  0  0  0  0  0  0  0  0
  -18.7160  -27.6990   22.4640 C   0  0  0  0  0  0  0  0  0  0  0  0
  -21.0940  -28.1590   23.3800 C   0  0  0  0  0  3  0  0  0  0  0  0
  -21.5150  -26.8470   22.6800 C   0  0  0  0  0  2  0  0  0  0  0  0
  -20.7170  -26.5590   21.4060 C   0  0  0  0  0  2  0  0  0  0  0  0
  -19.2180  -26.4880   21.7070 C   0  0  0  0  0  2  0  0  0  0  0  0
  -19.6020  -28.4920   23.2410 C   0  0  0  0  0  0  0  0  0  0  0  0
  -19.1020  -29.6320   23.8980 C   0  0  0  0  0  3  0  0  0  0  0  0
  -17.7460  -29.9890   23.7890 C   0  0  0  0  0  3  0  0  0  0  0  0
  -16.8680  -29.2010   23.0270 C   0  0  0  0  0  3  0  0  0  0  0  0
  -17.3500  -28.0480   22.3740 C   0  0  0  0  0  3  0  0  0  0  0  0
  -26.9550  -31.4410   24.9850 C   0  0  0  0  0  3  0  0  0  0  0  0
  -27.0120  -32.8120   25.5160 N   0  0  0  0  0  0  0  0  0  0  0  0
  -27.6010  -33.8460   24.9060 C   0  0  0  0  0  0  0  0  0  0  0  0
  -28.2290  -33.7270   23.8510 O   0  0  0  0  0  0  0  0  0  0  0  0
  -26.4830  -32.9940   26.3570 H   0  0  0  0  0  0  0  0  0  0  0  0
  -26.4060  -36.0640   24.8530 C   0  0  0  0  0  1  0  0  0  0  0  0
  -27.4820  -35.2350   25.5720 C   0  0  0  0  0  3  0  0  0  0  0  0
  -29.7670  -35.3930   26.4660 C   0  0  0  0  0  1  0  0  0  0  0  0
  -28.7610  -35.9810   25.5890 N   0  0  0  0  0  0  0  0  0  0  0  0
  -28.6140  -36.9470   25.8740 H   0  0  0  0  0  0  0  0  0  0  0  0
  -27.3180  -30.4040   26.1160 C   0  0  1  0  0  0  0  0  0  0  0  0
  -26.2160  -30.2590   27.1910 C   0  0  0  0  0  1  0  0  0  0  0  0
  -27.5780  -29.0170   25.4880 C   0  0  0  0  0  1  0  0  0  0  0  0
  -28.6370  -30.7950   26.8230 C   0  0  0  0  0  1  0  0  0  0  0  0
  -30.6780  -22.6200   22.9440 C   0  0  0  0  0  2  0  0  0  0  0  0
  -31.2490  -20.0420   20.1070 C   0  0  0  0  0  3  0  0  0  0  0  0
  -30.9950  -21.2410   20.8080 C   0  0  0  0  0  3  0  0  0  0  0  0
  -31.3890  -18.8480   22.2120 C   0  0  0  0  0  3  0  0  0  0  0  0
  -31.4260  -18.8200   20.7950 C   0  0  0  0  0  0  0  0  0  0  0  0
  -30.9230  -21.2730   22.2190 C   0  0  0  0  0  0  0  0  0  0  0  0
  -31.1500  -20.0540   22.9220 C   0  0  0  0  0  0  0  0  0  0  0  0
  -31.1200  -19.9960   24.6530 Cl  0  0  0  0  0  0  0  0  0  0  0  0
  -31.6430  -17.5280   19.9620 C   0  0  0  0  0  2  0  0  0  0  0  0
  -30.6390  -16.3590   20.1810 C   0  0  0  0  0  2  0  0  0  0  0  0
  -31.2710  -14.3560   18.8650 C   0  0  0  0  0  0  0  0  0  0  0  0
  -31.0330  -11.8970   18.6660 C   0  0  0  0  0  2  0  0  0  0  0  0
  -30.0000  -11.6050   17.5540 C   0  0  0  0  0  2  0  0  0  0  0  0
  -28.5680  -11.6190   18.1220 C   0  0  0  0  0  2  0  0  0  0  0  0
  -28.2720  -12.8640   19.0030 C   0  0  0  0  0  3  0  0  0  0  0  0
  -29.4090  -13.0930   20.0210 C   0  0  0  0  0  2  0  0  0  0  0  0
  -30.6700  -13.1980   19.2620 N   0  0  0  0  0  0  0  0  0  0  0  0
  -32.2990  -14.3770   18.1820 O   0  0  0  0  0  0  0  0  0  0  0  0
  -30.5560  -15.4820   19.0060 N   0  0  0  0  0  0  0  0  0  0  0  0
  -30.6450  -16.0650   18.1780 H   0  0  0  0  0  0  0  0  0  0  0  0
  -26.0760  -13.7550   20.0180 C   0  0  0  0  0  0  0  0  0  0  0  0
  -24.9780  -13.1240   20.5230 C   0  0  0  0  0  0  0  0  0  0  0  0
  -25.2560  -11.7220   20.4330 C   0  0  0  0  0  0  0  0  0  0  0  0
  -26.9670  -12.7600   19.6510 N   0  0  0  0  0  0  0  0  0  0  0  0
  -26.4780  -11.5260   19.9520 N   0  0  0  0  0  0  0  0  0  0  0  0
  -24.4060  -10.5680   20.7350 C   0  0  0  0  0  0  0  0  0  0  0  0
  -24.8080   -9.5730   21.6580 C   0  0  0  0  0  3  0  0  0  0  0  0
  -23.9720   -8.4730   21.9370 C   0  0  0  0  0  3  0  0  0  0  0  0
  -22.7140   -8.3580   21.2970 C   0  0  0  0  0  0  0  0  0  0  0  0
  -22.3260   -9.3400   20.3640 C   0  0  0  0  0  3  0  0  0  0  0  0
  -23.1610  -10.4340   20.0890 C   0  0  0  0  0  3  0  0  0  0  0  0
  -21.8520   -7.3090   21.4910 O   0  0  0  0  0  0  0  0  0  0  0  0
  -21.6550   -6.7580   22.7340 C   0  0  0  0  0  0  0  0  0  0  0  0
  -21.2180   -7.5340   23.8260 C   0  0  0  0  0  3  0  0  0  0  0  0
  -20.9530   -6.9160   25.0660 C   0  0  0  0  0  3  0  0  0  0  0  0
  -21.1140   -5.5270   25.2100 C   0  0  0  0  0  0  0  0  0  0  0  0
  -21.5380   -4.7480   24.1190 C   0  0  0  0  0  3  0  0  0  0  0  0
  -21.8040   -5.3640   22.8790 C   0  0  0  0  0  0  0  0  0  0  0  0
  -22.1960   -4.6050   21.8300 F   0  0  0  0  0  0  0  0  0  0  0  0
  -20.8500   -4.9340   26.3990 F   0  0  0  0  0  0  0  0  0  0  0  0
  -23.7050  -13.7730   20.9830 C   0  0  0  0  0  0  0  0  0  0  0  0
  -23.0430  -13.2040   21.9770 N   0  0  0  0  0  0  0  0  0  0  0  0
  -23.3140  -14.8340   20.4880 O   0  0  0  0  0  0  0  0  0  0  0  0
  -23.3780  -12.3520   22.4030 H   0  0  0  0  0  0  0  0  0  0  0  0
  -22.1980  -13.6290   22.3250 H   0  0  0  0  0  0  0  0  0  0  0  0
  -26.3800  -15.1050   19.8190 N   0  0  0  0  0  0  0  0  0  0  0  0
  -25.7160  -15.8380   20.0370 H   0  0  0  0  0  0  0  0  0  0  0  0
  -27.2320  -15.4520   19.3970 H   0  0  0  0  0  0  0  0  0  0  0  0
  2  3  1  6
  2 54  1  0
  2  1  1  0
  5  4  1  0
  5  2  1  0
  6  7  1  0
  8 10  1  0
  8  6  1  0
  9  5  1  0
  9  7  1  0
 10 12  1  0
 10  9  1  0
 12 11  1  0
 12 13  1  0
 13 15  1  0
 14 25  2  0
 15 20  1  0
 16 24  1  0
 16 26  1  0
 17 19  1  0
 17 23  1  0
 18 24  1  0
 19 18  1  0
 20 19  2  0
 21 15  2  0
 21 22  1  0
 22 17  2  0
 23 16  1  0
 24 14  1  0
 26 28  2  0
 27 26  1  0
 29 27  1  0
 30 35  1  0
 31 27  1  0
 32 31  1  0
 33 34  1  0
 33 32  1  0
 34 30  1  0
 35 31  1  0
 35 36  2  0
 37 36  1  0
 38 37  2  0
 39 30  2  0
 39 38  1  0
 40 14  1  0
 40 41  1  0
 40 50  1  0
 41 44  1  0
 42 41  1  0
 42 46  1  0
 43 42  2  0
 46 45  1  0
 46 48  1  0
 48 49  1  0
 48 47  1  0
 50 53  1  1
 50 51  1  0
 52 50  1  0
 55 58  2  0
 55 56  1  0
 56 59  2  0
 57 60  2  0
 58 57  1  0
 59 60  1  0
 59 54  1  0
 60 61  1  0
 62 63  1  0
 62 58  1  0
 64 72  1  0
 64 70  1  0
 65 70  1  0
 66 67  1  0
 66 65  1  0
 68 67  1  0
 68 77  1  0
 68 69  1  0
 70 69  1  0
 71 64  2  0
 72 63  1  0
 73 72  1  0
 74 75  2  0
 75 94  1  0
 76 75  1  0
 76 79  1  0
 77 78  1  0
 77 74  1  0
 78 76  2  0
 79 80  1  0
 80 81  2  0
 82 85  1  0
 82 81  1  0
 83 82  2  0
 84 83  1  0
 84 79  2  0
 85 86  1  0
 86 91  2  0
 86 87  1  0
 87 88  2  0
 88 89  1  0
 89 93  1  0
 90 89  2  0
 91 90  1  0
 92 91  1  0
 94 95  1  0
 95 98  1  0
 95 97  1  0
 96 94  2  0
 99 74  1  0
 99100  1  0
101 99  1  0
M  ISO  4  12 101  13 101  64 100  72 100
M  END
>  <TORSDO>  (92) 
F 23

>  <SCORE>  (92) 
-8.607

>  <name>  (92) 
91

>  <ligand_id>  (92) 
91

>  <original_smiles>  (92) 
[H]c1c([H])c([H])c2c(c1[H])C([H])([H])C([H])([H])C([H])([H])C2([H])N([H])C(=O)C1([H])N(C(=O)C([H])(N([H])C(=O)C([H])(N([H])C([H])([H])[H])C([H])([H])[H])C(C([H])([H])[H])(C([H])([H])[H])C([H])([H])[H])C([H])([H])c2c([H])c(OC([H])(C([H])([H])[H])C3([H])C([H])([H])C([H])([H])C([H])([H])C3([H])C([H])(C([H])([H])[H])[N+]([H])(C([H])([H])[H])C([H])([H])c3c([H])c([H])c(C([H])([H])C([H])([H])N([H])C(=O)N4C([H])([H])C([H])([H])C([H])([H])C([H])(n5nc(-c6c([H])c([H])c(Oc7c([H])c([H])c(F)c([H])c7F)c([H])c6[H])c(C(=O)N([H])[H])c5N([H])[H])C4([H])[H])c([H])c3Cl)c([H])c([H])c2C1([H])[H]

>  <smiles>  (92) 
[H]c1c([H])c([H])c2c(c1[H])C([H])([H])C([H])([H])C([H])([H])C2([H])N([H])C(=O)C1([H])N(C(=O)C([H])(N([H])C(=O)C([H])(N([H])C([H])([H])[H])C([H])([H])[H])C(C([H])([H])[H])(C([H])([H])[H])C([H])([H])[H])C([H])([H])c2c([H])c(OC([H])(C([H])([H])[H])C3([H])C([H])([H])C([H])([H])C([H])([H])C3([H])C([H])(C([H])([H])[H])[N+]([H])(C([H])([H])[H])C([H])([H])c3c([H])c([H])c(C([H])([H])C([H])([H])N([H])C(=O)N4C([H])([H])C([H])([H])C([H])([H])C([H])(n5nc(-c6c([H])c([H])c(Oc7c([H])c([H])c(F)c([H])c7F)c([H])c6[H])c(C(=O)N([H])[H])c5N([H])[H])C4([H])[H])c([H])c3Cl)c([H])c([H])c2C1([H])[H]

$$$$
92:0:0
     RDKit          3D

106114  0  0  1  0  0  0  0  0999 V2000
  -24.7460  -22.9620   20.5500 C   0  0  0  0  0  3  0  0  0  0  0  0
  -26.7980  -24.0200   19.7890 C   0  0  0  0  0  0  0  0  0  0  0  0
  -26.1790  -24.1570   18.5040 C   0  0  0  0  0  0  0  0  0  0  0  0
  -26.0560  -23.3900   20.8180 C   0  0  0  0  0  0  0  0  0  0  0  0
  -24.8520  -23.6760   18.3470 C   0  0  0  0  0  0  0  0  0  0  0  0
  -24.1600  -23.0980   19.3460 N   0  0  0  0  0  0  0  0  0  0  0  0
  -24.2070  -23.7620   17.1050 N   0  0  0  0  0  0  0  0  0  0  0  0
  -26.7140  -23.1130   22.3930 Cl  0  0  0  0  0  0  0  0  0  0  0  0
  -24.5790  -24.4230   16.4390 H   0  0  0  0  0  0  0  0  0  0  0  0
  -26.8880  -24.8450   17.3190 C   0  0  0  0  0  2  0  0  0  0  0  0
  -27.5400  -23.9180   16.3590 N   0  0  0  0  0  4  0  0  0  0  0  0
  -27.8900  -24.4880   15.6040 H   0  0  0  0  0  0  0  0  0  0  0  0
  -26.8760  -23.2840   15.9420 H   0  0  0  0  0  0  0  0  0  0  0  0
  -28.7050  -23.1650   16.8610 C   0  0  0  0  0  2  0  0  0  0  0  0
  -28.3190  -21.8720   17.6080 C   0  0  0  0  0  2  0  0  0  0  0  0
  -29.5170  -21.2720   18.3460 C   0  0  0  0  0  2  0  0  0  0  0  0
  -29.1180  -20.1860   19.3520 C   0  0  0  0  0  2  0  0  0  0  0  0
  -30.3430  -19.6790   20.1180 C   0  0  0  0  0  2  0  0  0  0  0  0
  -30.0500  -18.4570   20.9940 C   0  0  0  0  0  2  0  0  0  0  0  0
  -31.3430  -17.8720   21.5860 C   0  0  0  0  0  2  0  0  0  0  0  0
  -31.1390  -16.5940   22.4180 C   0  0  0  0  0  2  0  0  0  0  0  0
  -30.8010  -14.8820   20.5940 C   0  0  0  0  0  0  0  0  0  0  0  0
  -30.5030  -12.7900   19.3180 C   0  0  0  0  0  2  0  0  0  0  0  0
  -29.5780  -12.9430   18.0980 C   0  0  0  0  0  2  0  0  0  0  0  0
  -28.1030  -12.7650   18.5020 C   0  0  0  0  0  2  0  0  0  0  0  0
  -27.7170  -13.6360   19.7260 C   0  0  0  0  0  3  0  0  0  0  0  0
  -28.7420  -13.4500   20.8640 C   0  0  0  0  0  2  0  0  0  0  0  0
  -30.0890  -13.7550   20.3430 N   0  0  0  0  0  0  0  0  0  0  0  0
  -31.7780  -15.2290   19.9230 O   0  0  0  0  0  0  0  0  0  0  0  0
  -30.4360  -15.5190   21.7160 N   0  0  0  0  0  0  0  0  0  0  0  0
  -29.6430  -15.1200   22.1980 H   0  0  0  0  0  0  0  0  0  0  0  0
  -25.2990  -14.2170   20.4060 C   0  0  0  0  0  0  0  0  0  0  0  0
  -24.2330  -13.4320   20.7510 C   0  0  0  0  0  0  0  0  0  0  0  0
  -24.7050  -12.0840   20.7090 C   0  0  0  0  0  0  0  0  0  0  0  0
  -26.3570  -13.3480   20.1780 N   0  0  0  0  0  0  0  0  0  0  0  0
  -25.9980  -12.0600   20.4150 N   0  0  0  0  0  0  0  0  0  0  0  0
  -23.9880  -10.8150   20.8730 C   0  0  0  0  0  0  0  0  0  0  0  0
  -24.3890   -9.8610   21.8350 C   0  0  0  0  0  3  0  0  0  0  0  0
  -23.6730   -8.6540   21.9870 C   0  0  0  0  0  3  0  0  0  0  0  0
  -22.5440   -8.3910   21.1770 C   0  0  0  0  0  0  0  0  0  0  0  0
  -22.1620   -9.3360   20.2060 C   0  0  0  0  0  3  0  0  0  0  0  0
  -22.8780  -10.5330   20.0520 C   0  0  0  0  0  3  0  0  0  0  0  0
  -21.8030   -7.2360   21.2350 O   0  0  0  0  0  0  0  0  0  0  0  0
  -21.6780   -6.5220   22.4000 C   0  0  0  0  0  0  0  0  0  0  0  0
  -21.1560   -7.0990   23.5780 C   0  0  0  0  0  3  0  0  0  0  0  0
  -20.9800   -6.3070   24.7310 C   0  0  0  0  0  3  0  0  0  0  0  0
  -21.3170   -4.9410   24.7070 C   0  0  0  0  0  0  0  0  0  0  0  0
  -21.8320   -4.3640   23.5330 C   0  0  0  0  0  3  0  0  0  0  0  0
  -22.0090   -5.1520   22.3830 C   0  0  0  0  0  0  0  0  0  0  0  0
  -22.4860   -4.5850   21.2480 F   0  0  0  0  0  0  0  0  0  0  0  0
  -21.1400   -4.1800   25.8120 F   0  0  0  0  0  0  0  0  0  0  0  0
  -22.8270  -13.8930   21.0130 C   0  0  0  0  0  0  0  0  0  0  0  0
  -22.0950  -13.1830   21.8640 N   0  0  0  0  0  0  0  0  0  0  0  0
  -22.3860  -14.9200   20.4980 O   0  0  0  0  0  0  0  0  0  0  0  0
  -22.4610  -12.3510   22.3060 H   0  0  0  0  0  0  0  0  0  0  0  0
  -21.1510  -13.4730   22.0790 H   0  0  0  0  0  0  0  0  0  0  0  0
  -25.4530  -15.5920   20.2490 N   0  0  0  0  0  0  0  0  0  0  0  0
  -24.6810  -16.2400   20.3680 H   0  0  0  0  0  0  0  0  0  0  0  0
  -26.3120  -16.0470   19.9610 H   0  0  0  0  0  0  0  0  0  0  0  0
  -22.7740  -23.5130   16.9670 C   0  0  0  0  0  2  0  0  0  0  0  0
  -22.4500  -22.8030   15.6430 C   0  0  0  0  0  2  0  0  0  0  0  0
  -22.3270  -20.5360   14.4570 C   0  0  0  0  0  1  0  0  0  0  0  0
  -22.8120  -21.3100   15.6880 C   0  0  0  0  0  2  0  0  0  0  0  0
  -28.2310  -24.4900   20.0950 C   0  0  0  0  0  2  0  0  0  0  0  0
  -28.3420  -25.8040   20.9050 C   0  0  0  0  0  2  0  0  0  0  0  0
  -28.3870  -26.9930   20.1130 O   0  0  0  0  0  0  0  0  0  0  0  0
  -24.6990  -32.0680   23.5060 C   0  0  0  0  0  0  0  0  0  0  0  0
  -27.2510  -27.7530   20.1930 C   0  0  0  0  0  0  0  0  0  0  0  0
  -23.4650  -30.7620   21.8070 C   0  0  0  0  0  3  0  0  0  0  0  0
  -24.8840  -29.2690   20.3190 C   0  0  0  0  0  0  0  0  0  0  0  0
  -25.9960  -31.0990   21.6100 C   0  0  0  0  0  2  0  0  0  0  0  0
  -26.0570  -29.7560   20.9120 C   0  0  0  0  0  0  0  0  0  0  0  0
  -27.2500  -29.0010   20.8550 C   0  0  0  0  0  3  0  0  0  0  0  0
  -26.0650  -27.2880   19.5970 C   0  0  0  0  0  3  0  0  0  0  0  0
  -24.8770  -28.0260   19.6660 C   0  0  0  0  0  3  0  0  0  0  0  0
  -23.6600  -30.1430   20.3990 C   0  0  0  0  0  2  0  0  0  0  0  0
  -24.7400  -31.3170   22.3700 N   0  0  0  0  0  0  0  0  0  0  0  0
  -23.6220  -32.3360   24.0580 O   0  0  0  0  0  0  0  0  0  0  0  0
  -22.8030  -29.7070   22.7220 C   0  0  0  0  0  0  0  0  0  0  0  0
  -21.4800  -29.5300   22.5700 N   0  0  0  0  0  0  0  0  0  0  0  0
  -23.4740  -29.0550   23.5270 O   0  0  0  0  0  0  0  0  0  0  0  0
  -20.9990  -30.1100   21.8950 H   0  0  0  0  0  0  0  0  0  0  0  0
  -18.1030  -28.2880   22.9440 C   0  0  0  0  0  0  0  0  0  0  0  0
  -20.6510  -28.5690   23.2950 C   0  0  0  0  0  3  0  0  0  0  0  0
  -20.7850  -27.1500   22.6940 C   0  0  0  0  0  2  0  0  0  0  0  0
  -19.7210  -26.8330   21.6410 C   0  0  0  0  0  2  0  0  0  0  0  0
  -18.3180  -26.9540   22.2460 C   0  0  0  0  0  2  0  0  0  0  0  0
  -19.2020  -29.0540   23.4220 C   0  0  0  0  0  0  0  0  0  0  0  0
  -18.9550  -30.3010   24.0340 C   0  0  0  0  0  3  0  0  0  0  0  0
  -17.6420  -30.7920   24.1600 C   0  0  0  0  0  3  0  0  0  0  0  0
  -16.5570  -30.0260   23.6980 C   0  0  0  0  0  3  0  0  0  0  0  0
  -16.7870  -28.7710   23.1050 C   0  0  0  0  0  3  0  0  0  0  0  0
  -25.9940  -32.6530   24.1490 C   0  0  0  0  0  3  0  0  0  0  0  0
  -25.7220  -34.0510   24.5090 N   0  0  0  0  0  0  0  0  0  0  0  0
  -26.0760  -35.1060   23.7640 C   0  0  0  0  0  0  0  0  0  0  0  0
  -26.7380  -35.0010   22.7280 O   0  0  0  0  0  0  0  0  0  0  0  0
  -25.1360  -34.2050   25.3170 H   0  0  0  0  0  0  0  0  0  0  0  0
  -24.3870  -36.9360   23.4420 C   0  0  0  0  0  1  0  0  0  0  0  0
  -25.6230  -36.4980   24.2430 C   0  0  0  0  0  3  0  0  0  0  0  0
  -27.7850  -37.3160   25.0670 C   0  0  0  0  0  1  0  0  0  0  0  0
  -26.6790  -37.5280   24.1390 N   0  0  0  0  0  0  0  0  0  0  0  0
  -26.2980  -38.4570   24.3030 H   0  0  0  0  0  0  0  0  0  0  0  0
  -26.4850  -31.8400   25.4100 C   0  0  1  0  0  0  0  0  0  0  0  0
  -25.3800  -31.6050   26.4680 C   0  0  0  0  0  1  0  0  0  0  0  0
  -27.0390  -30.4620   24.9830 C   0  0  0  0  0  1  0  0  0  0  0  0
  -27.6640  -32.5820   26.0880 C   0  0  0  0  0  1  0  0  0  0  0  0
  1  4  1  0
  2 64  1  0
  2  4  2  0
  3  2  1  0
  4  8  1  0
  5  3  2  0
  5  6  1  0
  6  1  2  0
  7  5  1  0
  9  7  1  0
 10  3  1  0
 11 14  1  0
 11 10  1  0
 12 11  1  0
 13 11  1  0
 14 15  1  0
 15 16  1  0
 16 17  1  0
 17 18  1  0
 18 19  1  0
 19 20  1  0
 20 21  1  0
 22 30  1  0
 23 28  1  0
 24 25  1  0
 24 23  1  0
 26 25  1  0
 26 35  1  0
 26 27  1  0
 28 22  1  0
 28 27  1  0
 29 22  2  0
 30 31  1  0
 30 21  1  0
 32 33  2  0
 33 52  1  0
 34 33  1  0
 34 37  1  0
 35 32  1  0
 35 36  1  0
 36 34  2  0
 37 38  1  0
 38 39  2  0
 40 43  1  0
 40 39  1  0
 41 40  2  0
 42 41  1  0
 42 37  2  0
 43 44  1  0
 44 45  1  0
 45 46  2  0
 47 46  1  0
 47 51  1  0
 48 47  2  0
 49 44  2  0
 49 48  1  0
 50 49  1  0
 52 53  1  0
 53 56  1  0
 53 55  1  0
 54 52  2  0
 57 58  1  0
 57 32  1  0
 59 57  1  0
 60  7  1  0
 61 63  1  0
 61 60  1  0
 62 63  1  0
 64 65  1  0
 66 68  1  0
 66 65  1  0
 67 78  2  0
 68 73  1  0
 69 77  1  0
 69 79  1  0
 70 76  1  0
 70 72  1  0
 71 77  1  0
 72 71  1  0
 73 72  2  0
 74 75  1  0
 74 68  2  0
 75 70  2  0
 76 69  1  0
 77 67  1  0
 79 81  2  0
 80 79  1  0
 82 80  1  0
 83 92  2  0
 83 88  1  0
 84 80  1  0
 84 88  1  0
 85 84  1  0
 86 87  1  0
 86 85  1  0
 87 83  1  0
 88 89  2  0
 89 90  1  0
 91 90  2  0
 92 91  1  0
 93 67  1  0
 93 94  1  0
 93103  1  0
 94 97  1  0
 95 99  1  0
 95 94  1  0
 96 95  2  0
 99 98  1  0
101 99  1  0
101102  1  0
101100  1  0
103106  1  1
103104  1  0
105103  1  0
M  ISO  4  22 100  30 100  65 101  66 101
M  END
>  <TORSDO>  (93) 
F 31

>  <SCORE>  (93) 
-8.727

>  <name>  (93) 
92

>  <ligand_id>  (93) 
92

>  <original_smiles>  (93) 
[H]c1nc(N([H])C([H])([H])C([H])([H])C([H])([H])C([H])([H])[H])c(C([H])([H])[N+]([H])([H])C([H])([H])C([H])([H])C([H])([H])C([H])([H])C([H])([H])C([H])([H])C([H])([H])C([H])([H])N([H])C(=O)N2C([H])([H])C([H])([H])C([H])([H])C([H])(n3nc(-c4c([H])c([H])c(Oc5c([H])c([H])c(F)c([H])c5F)c([H])c4[H])c(C(=O)N([H])[H])c3N([H])[H])C2([H])[H])c(C([H])([H])C([H])([H])Oc2c([H])c([H])c3c(c2[H])C([H])([H])N(C(=O)C([H])(N([H])C(=O)C([H])(N([H])C([H])([H])[H])C([H])([H])[H])C(C([H])([H])[H])(C([H])([H])[H])C([H])([H])[H])C([H])(C(=O)N([H])C2([H])c4c([H])c([H])c([H])c([H])c4C([H])([H])C([H])([H])C2([H])[H])C3([H])[H])c1Cl

>  <smiles>  (93) 
[H]c1nc(N([H])C([H])([H])C([H])([H])C([H])([H])C([H])([H])[H])c(C([H])([H])[N+]([H])([H])C([H])([H])C([H])([H])C([H])([H])C([H])([H])C([H])([H])C([H])([H])C([H])([H])C([H])([H])N([H])C(=O)N2C([H])([H])C([H])([H])C([H])([H])C([H])(n3nc(-c4c([H])c([H])c(Oc5c([H])c([H])c(F)c([H])c5F)c([H])c4[H])c(C(=O)N([H])[H])c3N([H])[H])C2([H])[H])c(C([H])([H])C([H])([H])Oc2c([H])c([H])c3c(c2[H])C([H])([H])N(C(=O)C([H])(N([H])C(=O)C([H])(N([H])C([H])([H])[H])C([H])([H])[H])C(C([H])([H])[H])(C([H])([H])[H])C([H])([H])[H])C([H])(C(=O)N([H])C2([H])c4c([H])c([H])c([H])c([H])c4C([H])([H])C([H])([H])C2([H])[H])C3([H])[H])c1Cl

$$$$
93:0:0
     RDKit          3D

 93101  0  0  1  0  0  0  0  0999 V2000
  -28.9360  -20.4540   19.2460 C   0  0  0  0  0  0  0  0  0  0  0  0
  -29.4120  -21.6970   19.4610 N   0  0  0  0  0  0  0  0  0  0  0  0
  -27.7410  -20.2390   19.0340 O   0  0  0  0  0  0  0  0  0  0  0  0
  -30.4020  -21.7690   19.6630 H   0  0  0  0  0  0  0  0  0  0  0  0
  -30.2450  -19.1690   17.5800 C   0  0  0  0  0  1  0  0  0  0  0  0
  -29.9740  -19.3100   19.0960 C   0  0  0  0  0  3  0  0  0  0  0  0
  -31.0160  -14.3990   19.4810 C   0  0  0  0  0  0  0  0  0  0  0  0
  -30.4730  -12.2910   18.3220 C   0  0  0  0  0  2  0  0  0  0  0  0
  -29.3920  -12.5530   17.2530 C   0  0  0  0  0  2  0  0  0  0  0  0
  -27.9810  -12.4380   17.8670 C   0  0  0  0  0  2  0  0  0  0  0  0
  -27.8370  -13.2390   19.1890 C   0  0  0  0  0  3  0  0  0  0  0  0
  -29.0230  -12.9730   20.1410 C   0  0  0  0  0  2  0  0  0  0  0  0
  -30.2670  -13.2630   19.4090 N   0  0  0  0  0  0  0  0  0  0  0  0
  -32.0660  -14.5260   18.8420 O   0  0  0  0  0  0  0  0  0  0  0  0
  -29.4030  -16.6210   21.9600 C   0  0  0  0  0  2  0  0  0  0  0  0
  -30.5220  -15.6780   21.4890 C   0  0  0  0  0  2  0  0  0  0  0  0
  -30.6070  -16.7980   19.3400 C   0  0  0  0  0  2  0  0  0  0  0  0
  -29.6080  -17.9290   19.7640 C   0  0  0  0  0  3  0  0  0  0  0  0
  -29.5590  -18.0090   21.3110 C   0  0  0  0  0  3  0  0  0  0  0  0
  -30.4330  -15.4980   20.0360 N   0  0  0  0  0  0  0  0  0  0  0  0
  -28.5540  -18.7810   21.7240 F   0  0  0  0  0  0  0  0  0  0  0  0
  -25.5880  -13.8690   20.2630 C   0  0  0  0  0  0  0  0  0  0  0  0
  -24.5540  -13.1070   20.7370 C   0  0  0  0  0  0  0  0  0  0  0  0
  -24.9590  -11.7460   20.5730 C   0  0  0  0  0  0  0  0  0  0  0  0
  -26.5570  -12.9730   19.8400 N   0  0  0  0  0  0  0  0  0  0  0  0
  -26.1920  -11.6880   20.0840 N   0  0  0  0  0  0  0  0  0  0  0  0
  -24.2220  -10.4950   20.7950 C   0  0  0  0  0  0  0  0  0  0  0  0
  -24.6580   -9.5410   21.7410 C   0  0  0  0  0  3  0  0  0  0  0  0
  -23.9220   -8.3540   21.9500 C   0  0  0  0  0  3  0  0  0  0  0  0
  -22.7360   -8.1130   21.2140 C   0  0  0  0  0  0  0  0  0  0  0  0
  -22.3210   -9.0570   20.2580 C   0  0  0  0  0  3  0  0  0  0  0  0
  -23.0570  -10.2350   20.0460 C   0  0  0  0  0  3  0  0  0  0  0  0
  -21.9730   -6.9760   21.3320 O   0  0  0  0  0  0  0  0  0  0  0  0
  -21.8350   -6.3210   22.5290 C   0  0  0  0  0  0  0  0  0  0  0  0
  -21.3200   -6.9660   23.6760 C   0  0  0  0  0  3  0  0  0  0  0  0
  -21.1290   -6.2360   24.8670 C   0  0  0  0  0  3  0  0  0  0  0  0
  -21.4420   -4.8640   24.9120 C   0  0  0  0  0  0  0  0  0  0  0  0
  -21.9500   -4.2200   23.7700 C   0  0  0  0  0  3  0  0  0  0  0  0
  -22.1420   -4.9470   22.5810 C   0  0  0  0  0  0  0  0  0  0  0  0
  -22.6090   -4.3170   21.4770 F   0  0  0  0  0  0  0  0  0  0  0  0
  -21.2530   -4.1630   26.0530 F   0  0  0  0  0  0  0  0  0  0  0  0
  -23.2250  -13.6050   21.2240 C   0  0  0  0  0  0  0  0  0  0  0  0
  -22.6270  -12.9100   22.1850 N   0  0  0  0  0  0  0  0  0  0  0  0
  -22.7310  -14.6430   20.7870 O   0  0  0  0  0  0  0  0  0  0  0  0
  -23.0450  -12.0710   22.5570 H   0  0  0  0  0  0  0  0  0  0  0  0
  -21.7390  -13.2220   22.5520 H   0  0  0  0  0  0  0  0  0  0  0  0
  -25.7800  -15.2420   20.1400 N   0  0  0  0  0  0  0  0  0  0  0  0
  -25.0730  -15.9170   20.4060 H   0  0  0  0  0  0  0  0  0  0  0  0
  -26.6120  -15.6690   19.7560 H   0  0  0  0  0  0  0  0  0  0  0  0
  -28.7430  -22.9350   19.0280 C   0  0  0  0  0  2  0  0  0  0  0  0
  -29.0080  -24.1700   19.9310 C   0  0  0  0  0  2  0  0  0  0  0  0
  -29.0330  -25.5030   19.1350 C   0  0  0  0  0  2  0  0  0  0  0  0
  -28.7920  -26.6740   19.9370 O   0  0  0  0  0  0  0  0  0  0  0  0
  -24.6730  -31.6070   23.0020 C   0  0  0  0  0  0  0  0  0  0  0  0
  -27.5630  -27.3110   19.9140 C   0  0  0  0  0  0  0  0  0  0  0  0
  -23.5560  -30.1730   21.3250 C   0  0  0  0  0  3  0  0  0  0  0  0
  -25.0970  -28.7140   19.9100 C   0  0  0  0  0  0  0  0  0  0  0  0
  -26.0680  -30.6420   21.1720 C   0  0  0  0  0  2  0  0  0  0  0  0
  -26.2210  -29.2820   20.5210 C   0  0  0  0  0  0  0  0  0  0  0  0
  -27.4530  -28.5850   20.5190 C   0  0  0  0  0  3  0  0  0  0  0  0
  -26.4070  -26.7480   19.3220 C   0  0  0  0  0  3  0  0  0  0  0  0
  -25.1840  -27.4460   19.3120 C   0  0  0  0  0  3  0  0  0  0  0  0
  -23.8140  -29.5130   19.9440 C   0  0  0  0  0  2  0  0  0  0  0  0
  -24.7820  -30.8240   21.8910 N   0  0  0  0  0  0  0  0  0  0  0  0
  -23.5720  -31.8260   23.5260 O   0  0  0  0  0  0  0  0  0  0  0  0
  -22.9370  -29.1150   22.2650 C   0  0  0  0  0  0  0  0  0  0  0  0
  -21.6220  -28.8840   22.1220 N   0  0  0  0  0  0  0  0  0  0  0  0
  -23.6370  -28.5020   23.0750 O   0  0  0  0  0  0  0  0  0  0  0  0
  -21.1180  -29.4290   21.4360 H   0  0  0  0  0  0  0  0  0  0  0  0
  -18.2880  -27.5710   22.5900 C   0  0  0  0  0  0  0  0  0  0  0  0
  -20.8360  -27.9030   22.8690 C   0  0  0  0  0  3  0  0  0  0  0  0
  -20.9830  -26.4910   22.2570 C   0  0  0  0  0  2  0  0  0  0  0  0
  -19.8920  -26.1570   21.2360 C   0  0  0  0  0  2  0  0  0  0  0  0
  -18.5070  -26.2450   21.8820 C   0  0  0  0  0  2  0  0  0  0  0  0
  -19.3820  -28.3580   23.0380 C   0  0  0  0  0  0  0  0  0  0  0  0
  -19.1250  -29.6010   23.6570 C   0  0  0  0  0  3  0  0  0  0  0  0
  -17.8060  -30.0580   23.8320 C   0  0  0  0  0  3  0  0  0  0  0  0
  -16.7250  -29.2690   23.3980 C   0  0  0  0  0  3  0  0  0  0  0  0
  -16.9680  -28.0280   22.7850 C   0  0  0  0  0  3  0  0  0  0  0  0
  -25.9200  -32.2870   23.6500 C   0  0  0  0  0  3  0  0  0  0  0  0
  -26.4830  -31.4990   24.8960 C   0  0  1  0  0  0  0  0  0  0  0  0
  -25.4040  -31.1420   25.9430 C   0  0  0  0  0  1  0  0  0  0  0  0
  -27.1620  -30.1850   24.4480 C   0  0  0  0  0  1  0  0  0  0  0  0
  -27.5710  -32.3430   25.6020 C   0  0  0  0  0  1  0  0  0  0  0  0
  -25.5310  -33.6510   24.0350 N   0  0  0  0  0  0  0  0  0  0  0  0
  -25.8010  -34.7510   23.3200 C   0  0  0  0  0  0  0  0  0  0  0  0
  -26.4770  -34.7280   22.2870 O   0  0  0  0  0  0  0  0  0  0  0  0
  -24.9330  -33.7380   24.8440 H   0  0  0  0  0  0  0  0  0  0  0  0
  -23.9920  -36.4680   23.0060 C   0  0  0  0  0  1  0  0  0  0  0  0
  -25.2310  -36.0870   23.8300 C   0  0  0  0  0  3  0  0  0  0  0  0
  -27.2910  -37.0420   24.7670 C   0  0  0  0  0  1  0  0  0  0  0  0
  -26.2100  -37.1960   23.7980 N   0  0  0  0  0  0  0  0  0  0  0  0
  -25.7520  -38.0860   23.9700 H   0  0  0  0  0  0  0  0  0  0  0  0
  1  2  1  0
  2  4  1  0
  3  1  2  0
  6  5  1  0
  6  1  1  0
  7 20  1  0
  8 13  1  0
  9 10  1  0
  9  8  1  0
 11 10  1  0
 11 25  1  0
 11 12  1  0
 13  7  1  0
 13 12  1  0
 14  7  2  0
 16 15  1  0
 17 18  1  0
 17 20  1  0
 18  6  1  0
 18 19  1  0
 19 21  1  0
 19 15  1  0
 20 16  1  0
 22 23  2  0
 23 42  1  0
 24 23  1  0
 24 27  1  0
 25 26  1  0
 25 22  1  0
 26 24  2  0
 27 28  1  0
 28 29  2  0
 30 33  1  0
 30 29  1  0
 31 30  2  0
 32 31  1  0
 32 27  2  0
 33 34  1  0
 34 39  2  0
 34 35  1  0
 35 36  2  0
 36 37  1  0
 37 41  1  0
 38 37  2  0
 39 38  1  0
 40 39  1  0
 42 43  1  0
 43 46  1  0
 43 45  1  0
 44 42  2  0
 47 22  1  0
 47 48  1  0
 49 47  1  0
 50  2  1  0
 50 51  1  0
 52 51  1  0
 52 53  1  0
 54 65  2  0
 55 53  1  0
 55 60  1  0
 56 64  1  0
 56 66  1  0
 57 63  1  0
 57 59  1  0
 58 64  1  0
 59 58  1  0
 60 59  2  0
 61 55  2  0
 62 61  1  0
 62 57  2  0
 63 56  1  0
 64 54  1  0
 66 68  2  0
 67 66  1  0
 69 67  1  0
 70 79  2  0
 70 75  1  0
 71 67  1  0
 71 75  1  0
 72 71  1  0
 73 74  1  0
 73 72  1  0
 74 70  1  0
 75 76  2  0
 76 77  1  0
 78 77  2  0
 79 78  1  0
 80 54  1  0
 80 85  1  0
 80 81  1  0
 81 84  1  1
 81 82  1  0
 83 81  1  0
 85 88  1  0
 86 90  1  0
 86 85  1  0
 87 86  2  0
 90 89  1  0
 92 90  1  0
 92 93  1  0
 92 91  1  0
M  ISO  4   7 100  20 100  52 101  53 101
M  END
>  <TORSDO>  (94) 
F 20

>  <SCORE>  (94) 
-10.814

>  <name>  (94) 
93

>  <ligand_id>  (94) 
93

>  <original_smiles>  (94) 
[H]c1c([H])c([H])c2c(c1[H])C([H])([H])C([H])([H])C([H])([H])C2([H])N([H])C(=O)C1([H])N(C(=O)C([H])(N([H])C(=O)C([H])(N([H])C([H])([H])[H])C([H])([H])[H])C(C([H])([H])[H])(C([H])([H])[H])C([H])([H])[H])C([H])([H])c2c([H])c(OC([H])([H])C([H])([H])C([H])([H])N([H])C(=O)C([H])(C([H])([H])[H])C3([H])C([H])([H])N(C(=O)N4C([H])([H])C([H])([H])C([H])([H])C([H])(n5nc(-c6c([H])c([H])c(Oc7c([H])c([H])c(F)c([H])c7F)c([H])c6[H])c(C(=O)N([H])[H])c5N([H])[H])C4([H])[H])C([H])([H])C([H])([H])C3([H])F)c([H])c([H])c2C1([H])[H]

>  <smiles>  (94) 
[H]c1c([H])c([H])c2c(c1[H])C([H])([H])C([H])([H])C([H])([H])C2([H])N([H])C(=O)C1([H])N(C(=O)C([H])(N([H])C(=O)C([H])(N([H])C([H])([H])[H])C([H])([H])[H])C(C([H])([H])[H])(C([H])([H])[H])C([H])([H])[H])C([H])([H])c2c([H])c(OC([H])([H])C([H])([H])C([H])([H])N([H])C(=O)C([H])(C([H])([H])[H])C3([H])C([H])([H])N(C(=O)N4C([H])([H])C([H])([H])C([H])([H])C([H])(n5nc(-c6c([H])c([H])c(Oc7c([H])c([H])c(F)c([H])c7F)c([H])c6[H])c(C(=O)N([H])[H])c5N([H])[H])C4([H])[H])C([H])([H])C([H])([H])C3([H])F)c([H])c([H])c2C1([H])[H]

$$$$
94:0:0
     RDKit          3D

101105  0  0  1  0  0  0  0  0999 V2000
  -21.2040  -25.3450   23.3730 C   0  0  0  0  0  3  0  0  0  0  0  0
  -21.9220  -24.2140   23.7150 C   0  0  0  0  0  0  0  0  0  0  0  0
  -22.1380  -25.4220   21.0590 C   0  0  0  0  0  2  0  0  0  0  0  0
  -23.4510  -24.5470   21.7900 C   0  0  0  0  0  0  0  0  0  0  0  0
  -21.4600  -26.0520   22.2000 C   0  0  0  0  0  3  0  0  0  0  0  0
  -23.1180  -23.9460   23.0380 C   0  0  0  0  0  0  0  0  0  0  0  0
  -21.6100  -25.6820   18.3940 C   0  0  0  0  0 15  0  0  0  0  0  0
  -20.9750  -27.7100   22.4530 Cl  0  0  0  0  0  0  0  0  0  0  0  0
  -24.1490  -22.7400   23.7400 Cl  0  0  0  0  0  0  0  0  0  0  0  0
  -21.4410  -23.3740   24.8860 C   0  0  0  0  0  2  0  0  0  0  0  0
  -20.8450  -24.2690   25.8930 N   0  0  0  0  0  4  0  0  0  0  0  0
  -21.5620  -24.4770   26.5680 H   0  0  0  0  0  0  0  0  0  0  0  0
  -20.0920  -23.7940   26.3680 H   0  0  0  0  0  0  0  0  0  0  0  0
  -20.3540  -25.5500   25.3710 C   0  0  0  0  0  2  0  0  0  0  0  0
  -19.2990  -26.1380   26.3210 C   0  0  0  0  0  2  0  0  0  0  0  0
  -18.0730  -26.6410   25.5660 C   0  0  0  0  0  2  0  0  0  0  0  0
  -16.7700  -26.4810   26.3570 C   0  0  0  0  0  2  0  0  0  0  0  0
  -15.6170  -26.3320   25.3660 C   0  0  0  0  0  2  0  0  0  0  0  0
  -14.3880  -25.5790   25.8870 C   0  0  0  0  0  2  0  0  0  0  0  0
  -13.7750  -24.8050   24.7230 C   0  0  0  0  0  2  0  0  0  0  0  0
  -12.9330  -23.5770   25.0730 C   0  0  0  0  0  2  0  0  0  0  0  0
  -13.7010  -21.5660   23.8130 C   0  0  0  0  0  0  0  0  0  0  0  0
  -15.1780  -20.2180   22.3540 C   0  0  0  0  0  2  0  0  0  0  0  0
  -16.6570  -20.5700   22.5990 C   0  0  0  0  0  2  0  0  0  0  0  0
  -17.0840  -21.7720   21.7350 C   0  0  0  0  0  2  0  0  0  0  0  0
  -16.1010  -22.9630   21.8500 C   0  0  0  0  0  3  0  0  0  0  0  0
  -14.6430  -22.4840   21.6660 C   0  0  0  0  0  2  0  0  0  0  0  0
  -14.3590  -21.4040   22.6340 N   0  0  0  0  0  0  0  0  0  0  0  0
  -13.7210  -20.7440   24.7320 O   0  0  0  0  0  0  0  0  0  0  0  0
  -13.0250  -22.7140   23.9010 N   0  0  0  0  0  0  0  0  0  0  0  0
  -12.9320  -23.1990   23.0230 H   0  0  0  0  0  0  0  0  0  0  0  0
  -16.6280  -25.3860   21.1370 C   0  0  0  0  0  0  0  0  0  0  0  0
  -17.0100  -25.9220   19.9340 C   0  0  0  0  0  0  0  0  0  0  0  0
  -17.0490  -24.8310   19.0120 C   0  0  0  0  0  0  0  0  0  0  0  0
  -16.4460  -24.0290   20.9080 N   0  0  0  0  0  0  0  0  0  0  0  0
  -16.6560  -23.7120   19.6040 N   0  0  0  0  0  0  0  0  0  0  0  0
  -17.5020  -24.7750   17.6160 C   0  0  0  0  0  0  0  0  0  0  0  0
  -16.6410  -24.3840   16.5670 C   0  0  0  0  0  3  0  0  0  0  0  0
  -17.1020  -24.3510   15.2340 C   0  0  0  0  0  3  0  0  0  0  0  0
  -18.4350  -24.7200   14.9340 C   0  0  0  0  0  0  0  0  0  0  0  0
  -19.2940  -25.0910   15.9820 C   0  0  0  0  0  3  0  0  0  0  0  0
  -18.8360  -25.1170   17.3110 C   0  0  0  0  0  3  0  0  0  0  0  0
  -18.9740  -24.7090   13.6700 O   0  0  0  0  0  0  0  0  0  0  0  0
  -18.2280  -25.0460   12.5700 C   0  0  0  0  0  0  0  0  0  0  0  0
  -17.5580  -26.2850   12.4710 C   0  0  0  0  0  3  0  0  0  0  0  0
  -16.8660  -26.6160   11.2890 C   0  0  0  0  0  3  0  0  0  0  0  0
  -16.8420  -25.7190   10.2060 C   0  0  0  0  0  0  0  0  0  0  0  0
  -17.5110  -24.4870   10.3040 C   0  0  0  0  0  3  0  0  0  0  0  0
  -18.2050  -24.1550   11.4790 C   0  0  0  0  0  0  0  0  0  0  0  0
  -18.8630  -22.9720   11.5600 F   0  0  0  0  0  0  0  0  0  0  0  0
  -16.1840  -26.0430    9.0680 F   0  0  0  0  0  0  0  0  0  0  0  0
  -17.4150  -27.3480   19.6760 C   0  0  0  0  0  0  0  0  0  0  0  0
  -17.2190  -27.8400   18.4560 N   0  0  0  0  0  0  0  0  0  0  0  0
  -17.8720  -28.0530   20.5750 O   0  0  0  0  0  0  0  0  0  0  0  0
  -16.8520  -27.2700   17.7050 H   0  0  0  0  0  0  0  0  0  0  0  0
  -17.4720  -28.8010   18.2620 H   0  0  0  0  0  0  0  0  0  0  0  0
  -16.4390  -25.9350   22.4010 N   0  0  0  0  0  0  0  0  0  0  0  0
  -16.6550  -26.9040   22.5980 H   0  0  0  0  0  0  0  0  0  0  0  0
  -16.2160  -25.4040   23.2340 H   0  0  0  0  0  0  0  0  0  0  0  0
  -25.1210  -23.7870   21.3320 C   0  0  0  0  0  2  0  0  0  0  0  0
  -26.5840  -23.0390   21.9290 O   0  0  0  0  0  0  0  0  0  0  0  0
  -29.8500  -27.7700   21.0410 C   0  0  0  0  0  0  0  0  0  0  0  0
  -27.6300  -22.5030   21.1110 C   0  0  0  0  0  3  0  0  0  0  0  0
  -28.1540  -26.8920   19.5300 C   0  0  0  0  0  3  0  0  0  0  0  0
  -27.9310  -24.3620   19.2400 C   0  0  0  0  0  0  0  0  0  0  0  0
  -29.9840  -25.3680   20.2830 C   0  0  0  0  0  2  0  0  0  0  0  0
  -28.9630  -24.2470   20.1820 C   0  0  0  0  0  3  0  0  0  0  0  0
  -28.8790  -23.1900   21.1100 C   0  0  0  0  0  2  0  0  0  0  0  0
  -27.0840  -22.1840   19.8750 C   0  0  0  0  0  2  0  0  0  0  0  0
  -27.0550  -23.2810   19.0040 C   0  0  0  0  0  3  0  0  0  0  0  0
  -27.7630  -25.7050   18.5950 C   0  0  0  0  0  2  0  0  0  0  0  0
  -29.3720  -26.7070   20.3210 N   0  0  0  0  0  0  0  0  0  0  0  0
  -29.2900  -28.8810   21.0410 O   0  0  0  0  0  0  0  0  0  0  0  0
  -27.0600  -27.2070   20.4990 C   0  0  0  0  0  0  0  0  0  0  0  0
  -26.7060  -28.4660   20.3880 N   0  0  0  0  0  0  0  0  0  0  0  0
  -26.6200  -26.3810   21.3230 O   0  0  0  0  0  0  0  0  0  0  0  0
  -27.1740  -29.1020   19.7560 H   0  0  0  0  0  0  0  0  0  0  0  0
  -23.4400  -30.7140   21.7440 C   0  0  0  0  0  0  0  0  0  0  0  0
  -25.4070  -28.6130   20.6600 C   0  0  0  0  0  2  0  0  0  0  0  0
  -24.3020  -28.2110   18.8540 C   0  0  0  0  0 15  0  0  0  0  0  0
  -22.3920  -29.1010   18.9110 C   0  0  0  0  0 15  0  0  0  0  0  0
  -22.0710  -30.3010   20.5210 C   0  0  0  0  0  1  0  0  0  0  0  0
  -24.8620  -29.9360   21.8200 C   0  0  0  0  0  0  0  0  0  0  0  0
  -25.9500  -30.6130   22.4220 C   0  0  0  0  0  3  0  0  0  0  0  0
  -25.9060  -31.9690   22.7860 C   0  0  0  0  0  3  0  0  0  0  0  0
  -24.7430  -32.7210   22.5650 C   0  0  0  0  0  3  0  0  0  0  0  0
  -23.5620  -32.1120   22.0680 C   0  0  0  0  0  3  0  0  0  0  0  0
  -31.1500  -27.6420   21.8530 C   0  0  0  0  0  3  0  0  0  0  0  0
  -31.9830  -28.7820   21.4580 N   0  0  0  0  0  0  0  0  0  0  0  0
  -32.9110  -28.7260   20.4980 C   0  0  0  0  0  0  0  0  0  0  0  0
  -33.2200  -27.6750   19.9310 O   0  0  0  0  0  0  0  0  0  0  0  0
  -31.7390  -29.6840   21.8430 H   0  0  0  0  0  0  0  0  0  0  0  0
  -33.0510  -30.5700   18.7940 C   0  0  0  0  0  1  0  0  0  0  0  0
  -33.6170  -30.0390   20.1200 C   0  0  0  0  0  3  0  0  0  0  0  0
  -35.7310  -29.6520   21.3040 C   0  0  0  0  0  1  0  0  0  0  0  0
  -35.0840  -29.9000   20.0180 N   0  0  0  0  0  0  0  0  0  0  0  0
  -35.5000  -30.7350   19.6110 H   0  0  0  0  0  0  0  0  0  0  0  0
  -30.9160  -27.6300   23.4100 C   0  0  1  0  0  0  0  0  0  0  0  0
  -30.0380  -28.7930   23.9310 C   0  0  0  0  0  1  0  0  0  0  0  0
  -30.2540  -26.3060   23.8560 C   0  0  0  0  0  1  0  0  0  0  0  0
  -32.2860  -27.7060   24.1200 C   0  0  0  0  0  1  0  0  0  0  0  0
  1  2  2  0
  2 10  1  0
  3  4  1  0
  3  5  1  0
  4  6  2  0
  5  8  1  0
  5  1  1  0
  6  2  1  0
  6  9  1  0
 10 11  1  0
 11 13  1  0
 11 12  1  0
 14 11  1  0
 14 15  1  0
 16 15  1  0
 16 17  1  0
 18 19  1  0
 18 17  1  0
 20 21  1  0
 20 19  1  0
 22 30  1  0
 22 29  2  0
 23 24  1  0
 23 28  1  0
 25 26  1  0
 25 24  1  0
 26 35  1  0
 27 26  1  0
 27 28  1  0
 28 22  1  0
 30 21  1  0
 31 30  1  0
 32 57  1  0
 33 32  2  0
 34 36  2  0
 34 33  1  0
 35 32  1  0
 36 35  1  0
 37 34  1  0
 38 37  2  0
 39 38  1  0
 40 39  2  0
 40 41  1  0
 41 42  2  0
 42 37  1  0
 43 40  1  0
 44 43  1  0
 45 44  1  0
 46 45  2  0
 47 48  2  0
 47 46  1  0
 48 49  1  0
 49 50  1  0
 49 44  2  0
 51 47  1  0
 52 33  1  0
 52 54  2  0
 53 52  1  0
 55 53  1  0
 56 53  1  0
 57 58  1  0
 57 59  1  0
 60  4  1  0
 60 61  1  0
 63 61  1  0
 64 72  1  0
 64 74  1  0
 65 67  1  0
 66 72  1  0
 67 66  1  0
 67 68  1  0
 68 63  1  0
 69 63  1  0
 70 65  2  0
 70 69  1  0
 71 65  1  0
 71 64  1  0
 72 62  1  0
 73 62  2  0
 74 76  2  0
 75 74  1  0
 75 79  1  0
 77 75  1  0
 78 83  2  0
 78 87  1  0
 79 83  1  0
 82 78  1  0
 83 84  1  0
 84 85  2  0
 86 85  1  0
 87 86  2  0
 88 62  1  0
 88 98  1  0
 89 92  1  0
 89 88  1  0
 90 89  1  0
 91 90  2  0
 94 93  1  0
 94 90  1  0
 96 94  1  0
 96 95  1  0
 97 96  1  0
 98100  1  1
 98 99  1  0
 98101  1  0
M  ISO  4  22 100  30 100  60 101  61 101
M  END
>  <TORSDO>  (95) 
F 27

>  <SCORE>  (95) 
34.562

>  <name>  (95) 
94

>  <ligand_id>  (95) 
94

>  <original_smiles>  (95) 
[H]c1c([H])c([H])c2c(c1[H])C([H])([H])C([H])([H])C([H])([H])C2([H])N([H])C(=O)C1([H])N(C(=O)C([H])(N([H])C(=O)C([H])(N([H])C([H])([H])[H])C([H])([H])[H])C(C([H])([H])[H])(C([H])([H])[H])C([H])([H])[H])C([H])([H])c2c([H])c(OC([H])([H])c3c(Cl)c(C([H])([H])[N+]([H])([H])C([H])([H])C([H])([H])C([H])([H])C([H])([H])C([H])([H])C([H])([H])C([H])([H])C([H])([H])N([H])C(=O)N4C([H])([H])C([H])([H])C([H])([H])C([H])(n5nc(-c6c([H])c([H])c(Oc7c([H])c([H])c(F)c([H])c7F)c([H])c6[H])c(C(=O)N([H])[H])c5N([H])[H])C4([H])[H])c([H])c(Cl)c3C([H])([H])[H])c([H])c([H])c2C1([H])[H]

>  <smiles>  (95) 
[H]c1c([H])c([H])c2c(c1[H])C([H])([H])C([H])([H])C([H])([H])C2([H])N([H])C(=O)C1([H])N(C(=O)C([H])(N([H])C(=O)C([H])(N([H])C([H])([H])[H])C([H])([H])[H])C(C([H])([H])[H])(C([H])([H])[H])C([H])([H])[H])C([H])([H])c2c([H])c(OC([H])([H])c3c(Cl)c(C([H])([H])[N+]([H])([H])C([H])([H])C([H])([H])C([H])([H])C([H])([H])C([H])([H])C([H])([H])C([H])([H])C([H])([H])N([H])C(=O)N4C([H])([H])C([H])([H])C([H])([H])C([H])(n5nc(-c6c([H])c([H])c(Oc7c([H])c([H])c(F)c([H])c7F)c([H])c6[H])c(C(=O)N([H])[H])c5N([H])[H])C4([H])[H])c([H])c(Cl)c3C([H])([H])[H])c([H])c([H])c2C1([H])[H]

$$$$
