0:0:0
     RDKit          3D

 93101  0  0  1  0  0  0  0  0999 V2000
  -30.0850  -20.3230   18.3190 C   0  0  0  0  0  3  0  0  0  0  0  0
  -30.4960  -17.8790   18.3310 C   0  0  0  0  0  3  0  0  0  0  0  0
  -30.4680  -19.1250   17.6610 C   0  0  0  0  0  0  0  0  0  0  0  0
  -29.7480  -20.3730   19.6880 C   0  0  0  0  0  0  0  0  0  0  0  0
  -29.7630  -19.0210   20.3460 C   0  0  0  0  0  0  0  0  0  0  0  0
  -30.1340  -17.7230   19.6820 C   0  0  0  0  0  0  0  0  0  0  0  0
  -29.3970  -18.9830   21.8150 C   0  0  0  0  0  1  0  0  0  0  0  0
  -30.8200  -15.0760   19.8620 C   0  0  0  0  0  0  0  0  0  0  0  0
  -30.6280  -12.7270   18.9240 C   0  0  0  0  0  2  0  0  0  0  0  0
  -29.6070  -12.7120   17.7620 C   0  0  0  0  0  2  0  0  0  0  0  0
  -28.1810  -12.4970   18.2980 C   0  0  0  0  0  2  0  0  0  0  0  0
  -27.8710  -13.3930   19.5250 C   0  0  0  0  0  3  0  0  0  0  0  0
  -29.0080  -13.3780   20.5680 C   0  0  0  0  0  2  0  0  0  0  0  0
  -30.2300  -13.8080   19.8780 N   0  0  0  0  0  0  0  0  0  0  0  0
  -31.9750  -15.1360   19.4250 O   0  0  0  0  0  0  0  0  0  0  0  0
  -30.1030  -16.2670   20.2090 N   0  0  0  0  0  0  0  0  0  0  0  0
  -29.3120  -16.0720   20.8050 H   0  0  0  0  0  0  0  0  0  0  0  0
  -25.5740  -13.9560   20.4960 C   0  0  0  0  0  0  0  0  0  0  0  0
  -24.5290  -13.1760   20.9060 C   0  0  0  0  0  0  0  0  0  0  0  0
  -24.9610  -11.8220   20.7510 C   0  0  0  0  0  0  0  0  0  0  0  0
  -26.5740  -13.0790   20.1140 N   0  0  0  0  0  0  0  0  0  0  0  0
  -26.2200  -11.7850   20.3330 N   0  0  0  0  0  0  0  0  0  0  0  0
  -24.2250  -10.5610   20.9250 C   0  0  0  0  0  0  0  0  0  0  0  0
  -24.6670   -9.5650   21.8230 C   0  0  0  0  0  3  0  0  0  0  0  0
  -23.9310   -8.3720   21.9880 C   0  0  0  0  0  3  0  0  0  0  0  0
  -22.7380   -8.1650   21.2540 C   0  0  0  0  0  0  0  0  0  0  0  0
  -22.3130   -9.1520   20.3470 C   0  0  0  0  0  3  0  0  0  0  0  0
  -23.0510  -10.3360   20.1790 C   0  0  0  0  0  3  0  0  0  0  0  0
  -21.9710   -7.0260   21.3300 O   0  0  0  0  0  0  0  0  0  0  0  0
  -21.8880   -6.2930   22.4860 C   0  0  0  0  0  0  0  0  0  0  0  0
  -21.3630   -6.8370   23.6780 C   0  0  0  0  0  3  0  0  0  0  0  0
  -21.2290   -6.0270   24.8220 C   0  0  0  0  0  3  0  0  0  0  0  0
  -21.6080   -4.6720   24.7760 C   0  0  0  0  0  0  0  0  0  0  0  0
  -22.1280   -4.1270   23.5880 C   0  0  0  0  0  3  0  0  0  0  0  0
  -22.2630   -4.9350   22.4450 C   0  0  0  0  0  0  0  0  0  0  0  0
  -22.7440   -4.4000   21.2970 F   0  0  0  0  0  0  0  0  0  0  0  0
  -21.4740   -3.8920   25.8730 F   0  0  0  0  0  0  0  0  0  0  0  0
  -23.1700  -13.6580   21.3240 C   0  0  0  0  0  0  0  0  0  0  0  0
  -22.5070  -12.9240   22.2090 N   0  0  0  0  0  0  0  0  0  0  0  0
  -22.7100  -14.7170   20.9000 O   0  0  0  0  0  0  0  0  0  0  0  0
  -22.8950  -12.0660   22.5720 H   0  0  0  0  0  0  0  0  0  0  0  0
  -21.5990  -13.2280   22.5330 H   0  0  0  0  0  0  0  0  0  0  0  0
  -25.7500  -15.3330   20.3890 N   0  0  0  0  0  0  0  0  0  0  0  0
  -25.0040  -15.9880   20.5940 H   0  0  0  0  0  0  0  0  0  0  0  0
  -26.5710  -15.7770   20.0010 H   0  0  0  0  0  0  0  0  0  0  0  0
  -30.8750  -19.1430   16.1920 C   0  0  1  0  0  0  0  0  0  0  0  0
  -30.9950  -20.3830   15.7140 F   0  0  0  0  0  0  0  0  0  0  0  0
  -32.0490  -18.5250   16.0320 F   0  0  0  0  0  0  0  0  0  0  0  0
  -29.9610  -18.4990   15.4680 F   0  0  0  0  0  0  0  0  0  0  0  0
  -29.6550  -21.9140   20.3350 C   0  0  0  0  0  2  0  0  0  0  0  0
  -28.5550  -23.1880   20.0590 C   0  0  0  0  0  2  0  0  0  0  0  0
  -28.7790  -24.8470   19.6830 C   0  0  0  0  0  2  0  0  0  0  0  0
  -28.5210  -26.2360   20.3730 O   0  0  0  0  0  0  0  0  0  0  0  0
  -24.5740  -31.7870   23.1880 C   0  0  0  0  0  0  0  0  0  0  0  0
  -27.4250  -27.1700   20.2110 C   0  0  0  0  0  0  0  0  0  0  0  0
  -23.4810  -30.3600   21.4980 C   0  0  0  0  0  3  0  0  0  0  0  0
  -25.0330  -28.8430   20.1080 C   0  0  0  0  0  0  0  0  0  0  0  0
  -26.0270  -30.7080   21.4270 C   0  0  0  0  0  2  0  0  0  0  0  0
  -26.1690  -29.3220   20.7680 C   0  0  0  0  0  0  0  0  0  0  0  0
  -27.3560  -28.4970   20.8120 C   0  0  0  0  0  3  0  0  0  0  0  0
  -26.2640  -26.7940   19.5060 C   0  0  0  0  0  3  0  0  0  0  0  0
  -25.0940  -27.5920   19.4640 C   0  0  0  0  0  3  0  0  0  0  0  0
  -23.7730  -29.6980   20.1210 C   0  0  0  0  0  2  0  0  0  0  0  0
  -24.7100  -30.9760   22.0920 N   0  0  0  0  0  0  0  0  0  0  0  0
  -23.4610  -32.0300   23.6800 O   0  0  0  0  0  0  0  0  0  0  0  0
  -22.8070  -29.3260   22.4360 C   0  0  0  0  0  0  0  0  0  0  0  0
  -21.4860  -29.1190   22.2780 N   0  0  0  0  0  0  0  0  0  0  0  0
  -23.4740  -28.7100   23.2710 O   0  0  0  0  0  0  0  0  0  0  0  0
  -21.0020  -29.6720   21.5830 H   0  0  0  0  0  0  0  0  0  0  0  0
  -18.1250  -27.8320   22.7080 C   0  0  0  0  0  0  0  0  0  0  0  0
  -20.6730  -28.1520   23.0210 C   0  0  0  0  0  3  0  0  0  0  0  0
  -20.8140  -26.7300   22.4260 C   0  0  0  0  0  2  0  0  0  0  0  0
  -19.7380  -26.4000   21.3880 C   0  0  0  0  0  2  0  0  0  0  0  0
  -18.3420  -26.5000   22.0100 C   0  0  0  0  0  2  0  0  0  0  0  0
  -19.2180  -28.6140   23.1680 C   0  0  0  0  0  0  0  0  0  0  0  0
  -18.9590  -29.8570   23.7850 C   0  0  0  0  0  3  0  0  0  0  0  0
  -17.6390  -30.3200   23.9420 C   0  0  0  0  0  3  0  0  0  0  0  0
  -16.5600  -29.5370   23.4940 C   0  0  0  0  0  3  0  0  0  0  0  0
  -16.8030  -28.2940   22.8840 C   0  0  0  0  0  3  0  0  0  0  0  0
  -25.8050  -32.4640   23.8640 C   0  0  0  0  0  3  0  0  0  0  0  0
  -26.2980  -31.7090   25.1620 C   0  0  1  0  0  0  0  0  0  0  0  0
  -25.1700  -31.4270   26.1840 C   0  0  0  0  0  1  0  0  0  0  0  0
  -26.9500  -30.3550   24.7970 C   0  0  0  0  0  1  0  0  0  0  0  0
  -27.3920  -32.5440   25.8670 C   0  0  0  0  0  1  0  0  0  0  0  0
  -25.4300  -33.8490   24.1910 N   0  0  0  0  0  0  0  0  0  0  0  0
  -25.7280  -34.9220   23.4420 C   0  0  0  0  0  0  0  0  0  0  0  0
  -26.4120  -34.8500   22.4180 O   0  0  0  0  0  0  0  0  0  0  0  0
  -24.8160  -33.9740   24.9810 H   0  0  0  0  0  0  0  0  0  0  0  0
  -23.9260  -36.6480   23.0900 C   0  0  0  0  0  1  0  0  0  0  0  0
  -25.1810  -36.2890   23.9020 C   0  0  0  0  0  3  0  0  0  0  0  0
  -27.2680  -37.2710   24.7500 C   0  0  0  0  0  1  0  0  0  0  0  0
  -26.1700  -37.3860   23.7940 N   0  0  0  0  0  0  0  0  0  0  0  0
  -25.7260  -38.2910   23.9300 H   0  0  0  0  0  0  0  0  0  0  0  0
  1  4  1  0
  2  6  2  0
  3  1  2  0
  3  2  1  0
  4 50  1  0
  4  5  2  0
  5  7  1  0
  6 16  1  0
  6  5  1  0
  8 14  1  0
  8 16  1  0
  9 14  1  0
 10 11  1  0
 10  9  1  0
 12 11  1  0
 12 21  1  0
 12 13  1  0
 14 13  1  0
 15  8  2  0
 16 17  1  0
 18 19  2  0
 19 38  1  0
 20 19  1  0
 20 23  1  0
 21 22  1  0
 21 18  1  0
 22 20  2  0
 23 24  1  0
 24 25  2  0
 26 29  1  0
 26 25  1  0
 27 26  2  0
 28 27  1  0
 28 23  2  0
 29 30  1  0
 30 31  1  0
 31 32  2  0
 33 32  1  0
 33 37  1  0
 34 33  2  0
 35 30  2  0
 35 34  1  0
 36 35  1  0
 38 39  1  0
 39 42  1  0
 39 41  1  0
 40 38  2  0
 43 18  1  0
 43 44  1  0
 45 43  1  0
 46  3  1  0
 46 47  1  6
 48 46  1  0
 49 46  1  0
 51 50  1  0
 52 51  1  0
 52 53  1  0
 54 65  2  0
 55 53  1  0
 55 60  1  0
 56 64  1  0
 56 66  1  0
 57 63  1  0
 57 59  1  0
 58 64  1  0
 59 60  2  0
 59 58  1  0
 61 55  2  0
 62 61  1  0
 62 57  2  0
 63 56  1  0
 64 54  1  0
 66 68  2  0
 67 66  1  0
 69 67  1  0
 70 79  2  0
 70 75  1  0
 71 67  1  0
 71 75  1  0
 72 71  1  0
 73 74  1  0
 73 72  1  0
 74 70  1  0
 75 76  2  0
 76 77  1  0
 78 77  2  0
 79 78  1  0
 80 54  1  0
 80 85  1  0
 80 81  1  0
 81 84  1  1
 81 82  1  0
 83 81  1  0
 85 88  1  0
 86 90  1  0
 86 85  1  0
 87 86  2  0
 90 89  1  0
 92 90  1  0
 92 93  1  0
 92 91  1  0
M  ISO  4   8 100  16 100  52 101  53 101
M  END
>  <TORSDO>  (1) 
F 20

>  <SCORE>  (1) 
-13.712

>  <name>  (1) 
0

>  <ligand_id>  (1) 
0

>  <original_smiles>  (1) 
[H]c1c([H])c([H])c2c(c1[H])C([H])([H])C([H])([H])C([H])([H])C2([H])N([H])C(=O)C1([H])N(C(=O)C([H])(N([H])C(=O)C([H])(N([H])C([H])([H])[H])C([H])([H])[H])C(C([H])([H])[H])(C([H])([H])[H])C([H])([H])[H])C([H])([H])c2c([H])c(OC([H])([H])C([H])([H])C([H])([H])c3c([H])c(C(F)(F)F)c([H])c(N([H])C(=O)N4C([H])([H])C([H])([H])C([H])([H])C([H])(n5nc(-c6c([H])c([H])c(Oc7c([H])c([H])c(F)c([H])c7F)c([H])c6[H])c(C(=O)N([H])[H])c5N([H])[H])C4([H])[H])c3C([H])([H])[H])c([H])c([H])c2C1([H])[H]

>  <smiles>  (1) 
[H]c1c([H])c([H])c2c(c1[H])C([H])([H])C([H])([H])C([H])([H])C2([H])N([H])C(=O)C1([H])N(C(=O)C([H])(N([H])C(=O)C([H])(N([H])C([H])([H])[H])C([H])([H])[H])C(C([H])([H])[H])(C([H])([H])[H])C([H])([H])[H])C([H])([H])c2c([H])c(OC([H])([H])C([H])([H])C([H])([H])c3c([H])c(C(F)(F)F)c([H])c(N([H])C(=O)N4C([H])([H])C([H])([H])C([H])([H])C([H])(n5nc(-c6c([H])c([H])c(Oc7c([H])c([H])c(F)c([H])c7F)c([H])c6[H])c(C(=O)N([H])[H])c5N([H])[H])C4([H])[H])c3C([H])([H])[H])c([H])c([H])c2C1([H])[H]

$$$$
1:0:0
     RDKit          3D

 94102  0  0  1  0  0  0  0  0999 V2000
  -29.5340  -24.1380   21.9340 C   0  0  0  0  0  2  0  0  0  0  0  0
  -30.7780  -23.8190   19.7490 C   0  0  0  0  0  2  0  0  0  0  0  0
  -30.2830  -22.8540   22.4140 C   0  0  0  0  0  2  0  0  0  0  0  0
  -31.1370  -22.3240   20.1160 C   0  0  0  0  0  2  0  0  0  0  0  0
  -29.4240  -24.2410   20.3850 C   0  0  0  0  0  3  0  0  0  0  0  0
  -30.3070  -21.7590   21.3150 C   0  0  0  0  0  3  0  0  0  0  0  0
  -31.4600  -19.4550   21.3680 C   0  0  0  0  0  0  0  0  0  0  0  0
  -29.4480  -19.9340   22.6940 C   0  0  0  0  0  1  0  0  0  0  0  0
  -30.5300  -20.3600   21.7900 N   0  0  0  0  0  0  0  0  0  0  0  0
  -32.4760  -19.7840   20.7530 O   0  0  0  0  0  0  0  0  0  0  0  0
  -31.2350  -17.9380   21.6610 C   0  0  0  0  0  2  0  0  0  0  0  0
  -31.7250  -16.9520   20.5700 C   0  0  0  0  0  2  0  0  0  0  0  0
  -31.3580  -14.6440   19.7820 C   0  0  0  0  0  0  0  0  0  0  0  0
  -30.8670  -12.4390   18.8000 C   0  0  0  0  0  2  0  0  0  0  0  0
  -29.8790  -12.5700   17.6270 C   0  0  0  0  0  2  0  0  0  0  0  0
  -28.4370  -12.4320   18.1490 C   0  0  0  0  0  2  0  0  0  0  0  0
  -28.1590  -13.3900   19.3360 C   0  0  0  0  0  3  0  0  0  0  0  0
  -29.2740  -13.3250   20.4090 C   0  0  0  0  0  2  0  0  0  0  0  0
  -30.5830  -13.5210   19.7620 N   0  0  0  0  0  0  0  0  0  0  0  0
  -32.3470  -14.7750   19.0620 O   0  0  0  0  0  0  0  0  0  0  0  0
  -31.0220  -15.6470   20.6040 N   0  0  0  0  0  0  0  0  0  0  0  0
  -30.2630  -15.5110   21.2550 H   0  0  0  0  0  0  0  0  0  0  0  0
  -25.8380  -14.0460   20.2370 C   0  0  0  0  0  0  0  0  0  0  0  0
  -24.7780  -13.2970   20.6600 C   0  0  0  0  0  0  0  0  0  0  0  0
  -25.1900  -11.9300   20.5750 C   0  0  0  0  0  0  0  0  0  0  0  0
  -26.8360  -13.1420   19.9090 N   0  0  0  0  0  0  0  0  0  0  0  0
  -26.4550  -11.8640   20.1800 N   0  0  0  0  0  0  0  0  0  0  0  0
  -24.4390  -10.6800   20.7880 C   0  0  0  0  0  0  0  0  0  0  0  0
  -24.8420   -9.7250   21.7520 C   0  0  0  0  0  3  0  0  0  0  0  0
  -24.0980   -8.5380   21.9370 C   0  0  0  0  0  3  0  0  0  0  0  0
  -22.9300   -8.3090   21.1710 C   0  0  0  0  0  0  0  0  0  0  0  0
  -22.5500   -9.2450   20.1970 C   0  0  0  0  0  3  0  0  0  0  0  0
  -23.2960  -10.4210   20.0060 C   0  0  0  0  0  3  0  0  0  0  0  0
  -22.1390   -7.1920   21.2810 O   0  0  0  0  0  0  0  0  0  0  0  0
  -21.9440   -6.5710   22.4870 C   0  0  0  0  0  0  0  0  0  0  0  0
  -21.3760   -7.2370   23.5970 C   0  0  0  0  0  3  0  0  0  0  0  0
  -21.1360   -6.5270   24.7930 C   0  0  0  0  0  3  0  0  0  0  0  0
  -21.4480   -5.1570   24.8780 C   0  0  0  0  0  0  0  0  0  0  0  0
  -22.0210   -4.4990   23.7750 C   0  0  0  0  0  3  0  0  0  0  0  0
  -22.2590   -5.2030   22.5830 C   0  0  0  0  0  0  0  0  0  0  0  0
  -22.7820   -4.5540   21.5140 F   0  0  0  0  0  0  0  0  0  0  0  0
  -21.2040   -4.4730   26.0190 F   0  0  0  0  0  0  0  0  0  0  0  0
  -23.4200  -13.8120   21.0340 C   0  0  0  0  0  0  0  0  0  0  0  0
  -22.7580  -13.1360   21.9590 N   0  0  0  0  0  0  0  0  0  0  0  0
  -22.9590  -14.8370   20.5350 O   0  0  0  0  0  0  0  0  0  0  0  0
  -23.1450  -12.3010   22.3730 H   0  0  0  0  0  0  0  0  0  0  0  0
  -21.8310  -13.4360   22.2250 H   0  0  0  0  0  0  0  0  0  0  0  0
  -26.0310  -15.4180   20.0850 N   0  0  0  0  0  0  0  0  0  0  0  0
  -25.2740  -16.0770   20.2350 H   0  0  0  0  0  0  0  0  0  0  0  0
  -26.8670  -15.8450   19.7100 H   0  0  0  0  0  0  0  0  0  0  0  0
  -28.4110  -25.0950   18.2290 C   0  0  0  0  0  1  0  0  0  0  0  0
  -27.0150  -24.7260   20.4350 C   0  0  0  0  0  1  0  0  0  0  0  0
  -28.3590  -25.2560   19.7740 C   0  0  1  0  0  0  0  0  0  0  0  0
  -28.5220  -26.7160   19.9960 O   0  0  0  0  0  0  0  0  0  0  0  0
  -24.6290  -31.8340   23.1960 C   0  0  0  0  0  0  0  0  0  0  0  0
  -27.3990  -27.5640   19.9130 C   0  0  0  0  0  0  0  0  0  0  0  0
  -23.4700  -30.4550   21.5190 C   0  0  0  0  0  3  0  0  0  0  0  0
  -24.9680  -29.0660   20.0100 C   0  0  0  0  0  0  0  0  0  0  0  0
  -25.9970  -30.8940   21.3400 C   0  0  0  0  0  2  0  0  0  0  0  0
  -26.1210  -29.5590   20.6350 C   0  0  0  0  0  0  0  0  0  0  0  0
  -27.3340  -28.8090   20.6030 C   0  0  0  0  0  3  0  0  0  0  0  0
  -26.2370  -27.1990   19.1860 C   0  0  0  0  0  3  0  0  0  0  0  0
  -25.0220  -27.8780   19.2850 C   0  0  0  0  0  3  0  0  0  0  0  0
  -23.6970  -29.8680   20.1080 C   0  0  0  0  0  2  0  0  0  0  0  0
  -24.7170  -31.0750   22.0710 N   0  0  0  0  0  0  0  0  0  0  0  0
  -23.5390  -32.0400   23.7490 O   0  0  0  0  0  0  0  0  0  0  0  0
  -22.8690  -29.3600   22.4320 C   0  0  0  0  0  0  0  0  0  0  0  0
  -21.5570  -29.0990   22.2830 N   0  0  0  0  0  0  0  0  0  0  0  0
  -23.5790  -28.7520   23.2380 O   0  0  0  0  0  0  0  0  0  0  0  0
  -21.0370  -29.6500   21.6140 H   0  0  0  0  0  0  0  0  0  0  0  0
  -18.2570  -27.6800   22.7020 C   0  0  0  0  0  0  0  0  0  0  0  0
  -20.7900  -28.0970   23.0240 C   0  0  0  0  0  3  0  0  0  0  0  0
  -20.9920  -26.6840   22.4280 C   0  0  0  0  0  2  0  0  0  0  0  0
  -19.9300  -26.3090   21.3880 C   0  0  0  0  0  2  0  0  0  0  0  0
  -18.5320  -26.3560   22.0100 C   0  0  0  0  0  2  0  0  0  0  0  0
  -19.3200  -28.5030   23.1670 C   0  0  0  0  0  0  0  0  0  0  0  0
  -19.0080  -29.7370   23.7750 C   0  0  0  0  0  3  0  0  0  0  0  0
  -17.6710  -30.1540   23.9210 C   0  0  0  0  0  3  0  0  0  0  0  0
  -16.6250  -29.3270   23.4740 C   0  0  0  0  0  3  0  0  0  0  0  0
  -16.9200  -28.0930   22.8700 C   0  0  0  0  0  3  0  0  0  0  0  0
  -25.8900  -32.4950   23.8280 C   0  0  0  0  0  3  0  0  0  0  0  0
  -26.4320  -31.7220   25.0910 C   0  0  1  0  0  0  0  0  0  0  0  0
  -25.3460  -31.4290   26.1520 C   0  0  0  0  0  1  0  0  0  0  0  0
  -27.0730  -30.3750   24.6830 C   0  0  0  0  0  1  0  0  0  0  0  0
  -27.5470  -32.5510   25.7690 C   0  0  0  0  0  1  0  0  0  0  0  0
  -25.5320  -33.8760   24.1740 N   0  0  0  0  0  0  0  0  0  0  0  0
  -25.8720  -34.9520   23.4530 C   0  0  0  0  0  0  0  0  0  0  0  0
  -26.5870  -34.8890   22.4490 O   0  0  0  0  0  0  0  0  0  0  0  0
  -24.8990  -34.0000   24.9500 H   0  0  0  0  0  0  0  0  0  0  0  0
  -24.1440  -36.7300   23.0390 C   0  0  0  0  0  1  0  0  0  0  0  0
  -25.3300  -36.3150   23.9240 C   0  0  0  0  0  3  0  0  0  0  0  0
  -27.3850  -37.1980   24.9400 C   0  0  0  0  0  1  0  0  0  0  0  0
  -26.3500  -37.3860   23.9260 N   0  0  0  0  0  0  0  0  0  0  0  0
  -25.9190  -38.2950   24.0680 H   0  0  0  0  0  0  0  0  0  0  0  0
  1  3  1  0
  2  4  1  0
  2  5  1  0
  4  6  1  0
  5 53  1  0
  5  1  1  0
  6  9  1  0
  6  3  1  0
  7 11  1  0
  7  9  1  0
  9  8  1  0
 10  7  2  0
 12 21  1  0
 12 11  1  0
 13 21  1  0
 14 19  1  0
 15 16  1  0
 15 14  1  0
 17 16  1  0
 17 26  1  0
 17 18  1  0
 19 13  1  0
 19 18  1  0
 20 13  2  0
 21 22  1  0
 23 24  2  0
 24 43  1  0
 25 24  1  0
 25 28  1  0
 26 27  1  0
 26 23  1  0
 27 25  2  0
 28 29  1  0
 29 30  2  0
 31 34  1  0
 31 30  1  0
 32 31  2  0
 33 32  1  0
 33 28  2  0
 34 35  1  0
 35 40  2  0
 35 36  1  0
 36 37  2  0
 37 38  1  0
 38 42  1  0
 39 38  2  0
 40 39  1  0
 41 40  1  0
 43 44  1  0
 44 47  1  0
 44 46  1  0
 45 43  2  0
 48 49  1  0
 48 23  1  0
 50 48  1  0
 53 51  1  6
 53 54  1  0
 53 52  1  0
 55 66  2  0
 56 54  1  0
 56 61  1  0
 57 65  1  0
 57 67  1  0
 58 64  1  0
 58 60  1  0
 59 65  1  0
 60 59  1  0
 61 60  2  0
 62 63  1  0
 62 56  2  0
 63 58  2  0
 64 57  1  0
 65 55  1  0
 67 69  2  0
 68 67  1  0
 70 68  1  0
 71 80  2  0
 71 76  1  0
 72 68  1  0
 72 76  1  0
 73 72  1  0
 74 75  1  0
 74 73  1  0
 75 71  1  0
 76 77  2  0
 77 78  1  0
 79 78  2  0
 80 79  1  0
 81 55  1  0
 81 86  1  0
 81 82  1  0
 82 85  1  1
 82 83  1  0
 84 82  1  0
 86 89  1  0
 87 91  1  0
 87 86  1  0
 88 87  2  0
 91 90  1  0
 91 93  1  0
 93 94  1  0
 93 92  1  0
M  ISO  4  13 100  21 100  53 101  54 101
M  END
>  <TORSDO>  (2) 
F 20

>  <SCORE>  (2) 
-11.778

>  <name>  (2) 
1

>  <ligand_id>  (2) 
1

>  <original_smiles>  (2) 
[H]c1c([H])c([H])c2c(c1[H])C([H])([H])C([H])([H])C([H])([H])C2([H])N([H])C(=O)C1([H])N(C(=O)C([H])(N([H])C(=O)C([H])(N([H])C([H])([H])[H])C([H])([H])[H])C(C([H])([H])[H])(C([H])([H])[H])C([H])([H])[H])C([H])([H])c2c([H])c(OC(C([H])([H])[H])(C([H])([H])[H])C3([H])C([H])([H])C([H])([H])C([H])(N(C(=O)C([H])([H])C([H])([H])N([H])C(=O)N4C([H])([H])C([H])([H])C([H])([H])C([H])(n5nc(-c6c([H])c([H])c(Oc7c([H])c([H])c(F)c([H])c7F)c([H])c6[H])c(C(=O)N([H])[H])c5N([H])[H])C4([H])[H])C([H])([H])[H])C([H])([H])C3([H])[H])c([H])c([H])c2C1([H])[H]

>  <smiles>  (2) 
[H]c1c([H])c([H])c2c(c1[H])C([H])([H])C([H])([H])C([H])([H])C2([H])N([H])C(=O)C1([H])N(C(=O)C([H])(N([H])C(=O)C([H])(N([H])C([H])([H])[H])C([H])([H])[H])C(C([H])([H])[H])(C([H])([H])[H])C([H])([H])[H])C([H])([H])c2c([H])c(OC(C([H])([H])[H])(C([H])([H])[H])C3([H])C([H])([H])C([H])([H])C([H])(N(C(=O)C([H])([H])C([H])([H])N([H])C(=O)N4C([H])([H])C([H])([H])C([H])([H])C([H])(n5nc(-c6c([H])c([H])c(Oc7c([H])c([H])c(F)c([H])c7F)c([H])c6[H])c(C(=O)N([H])[H])c5N([H])[H])C4([H])[H])C([H])([H])[H])C([H])([H])C3([H])[H])c([H])c([H])c2C1([H])[H]

$$$$
2:0:0
     RDKit          3D

 93101  0  0  1  0  0  0  0  0999 V2000
  -31.7260  -21.6750   20.0430 C   0  0  0  0  0  1  0  0  0  0  0  0
  -30.3310  -21.2920   21.9980 C   0  0  0  0  0  1  0  0  0  0  0  0
  -30.3190  -21.1510   20.4560 C   0  0  2  0  0  0  0  0  0  0  0  0
  -31.0330  -17.8710   18.9840 C   0  0  0  0  0  3  0  0  0  0  0  0
  -30.3430  -17.3090   20.0920 C   0  0  0  0  0  0  0  0  0  0  0  0
  -29.8460  -18.4340   20.7560 C   0  0  0  0  0  0  0  0  0  0  0  0
  -29.0280  -18.4470   22.0050 C   0  0  0  0  0  1  0  0  0  0  0  0
  -30.9750  -19.2060   18.9830 N   0  0  0  0  0  0  0  0  0  0  0  0
  -30.3010  -19.6280   20.1000 N   0  0  0  0  0  0  0  0  0  0  0  0
  -30.8510  -14.7690   19.9120 C   0  0  0  0  0  0  0  0  0  0  0  0
  -30.5460  -12.5370   18.8400 C   0  0  0  0  0  2  0  0  0  0  0  0
  -29.5250  -12.6800   17.6890 C   0  0  0  0  0  2  0  0  0  0  0  0
  -28.0880  -12.5020   18.2130 C   0  0  0  0  0  2  0  0  0  0  0  0
  -27.8120  -13.3480   19.4850 C   0  0  0  0  0  3  0  0  0  0  0  0
  -28.9440  -13.1980   20.5270 C   0  0  0  0  0  2  0  0  0  0  0  0
  -30.2100  -13.5510   19.8690 N   0  0  0  0  0  0  0  0  0  0  0  0
  -31.9760  -14.8930   19.4240 O   0  0  0  0  0  0  0  0  0  0  0  0
  -30.1590  -15.8670   20.3890 N   0  0  0  0  0  0  0  0  0  0  0  0
  -29.3340  -15.6360   20.9220 H   0  0  0  0  0  0  0  0  0  0  0  0
  -25.4830  -13.9350   20.3930 C   0  0  0  0  0  0  0  0  0  0  0  0
  -24.4360  -13.1580   20.8080 C   0  0  0  0  0  0  0  0  0  0  0  0
  -24.8800  -11.8050   20.6990 C   0  0  0  0  0  0  0  0  0  0  0  0
  -26.5000  -13.0560   20.0560 N   0  0  0  0  0  0  0  0  0  0  0  0
  -26.1470  -11.7670   20.3010 N   0  0  0  0  0  0  0  0  0  0  0  0
  -24.1530  -10.5430   20.8960 C   0  0  0  0  0  0  0  0  0  0  0  0
  -24.5740   -9.5880   21.8480 C   0  0  0  0  0  3  0  0  0  0  0  0
  -23.8470   -8.3930   22.0330 C   0  0  0  0  0  3  0  0  0  0  0  0
  -22.6850   -8.1420   21.2650 C   0  0  0  0  0  0  0  0  0  0  0  0
  -22.2830   -9.0850   20.3030 C   0  0  0  0  0  3  0  0  0  0  0  0
  -23.0090  -10.2720   20.1170 C   0  0  0  0  0  3  0  0  0  0  0  0
  -21.9310   -6.9980   21.3580 O   0  0  0  0  0  0  0  0  0  0  0  0
  -21.7800   -6.3290   22.5460 C   0  0  0  0  0  0  0  0  0  0  0  0
  -21.2110   -6.9460   23.6820 C   0  0  0  0  0  3  0  0  0  0  0  0
  -21.0120   -6.2030   24.8620 C   0  0  0  0  0  3  0  0  0  0  0  0
  -21.3700   -4.8420   24.9060 C   0  0  0  0  0  0  0  0  0  0  0  0
  -21.9310   -4.2250   23.7750 C   0  0  0  0  0  3  0  0  0  0  0  0
  -22.1320   -4.9660   22.5980 C   0  0  0  0  0  0  0  0  0  0  0  0
  -22.6540   -4.3600   21.5040 F   0  0  0  0  0  0  0  0  0  0  0  0
  -21.1700   -4.1250   26.0360 F   0  0  0  0  0  0  0  0  0  0  0  0
  -23.0660  -13.6390   21.1920 C   0  0  0  0  0  0  0  0  0  0  0  0
  -22.3960  -12.9280   22.0900 N   0  0  0  0  0  0  0  0  0  0  0  0
  -22.6020  -14.6790   20.7270 O   0  0  0  0  0  0  0  0  0  0  0  0
  -22.7840  -12.0840   22.4860 H   0  0  0  0  0  0  0  0  0  0  0  0
  -21.4790  -13.2330   22.3890 H   0  0  0  0  0  0  0  0  0  0  0  0
  -25.6500  -15.3100   20.2530 N   0  0  0  0  0  0  0  0  0  0  0  0
  -24.8930  -15.9610   20.4250 H   0  0  0  0  0  0  0  0  0  0  0  0
  -26.4770  -15.7570   19.8790 H   0  0  0  0  0  0  0  0  0  0  0  0
  -29.2260  -22.0520   18.2780 C   0  0  0  0  0  1  0  0  0  0  0  0
  -27.7920  -21.7400   20.2570 C   0  0  0  0  0  1  0  0  0  0  0  0
  -29.2020  -22.1910   19.8180 C   0  0  1  0  0  0  0  0  0  0  0  0
  -29.3610  -23.7920   20.1780 C   0  0  0  0  0  3  0  0  0  0  0  0
  -28.2350  -24.9020   19.8060 C   0  0  0  0  0  3  0  0  0  0  0  0
  -28.4010  -26.3740   20.0880 O   0  0  0  0  0  0  0  0  0  0  0  0
  -24.4730  -31.6830   23.1230 C   0  0  0  0  0  0  0  0  0  0  0  0
  -27.2730  -27.2290   20.0220 C   0  0  0  0  0  0  0  0  0  0  0  0
  -23.3440  -30.2920   21.4290 C   0  0  0  0  0  3  0  0  0  0  0  0
  -24.8660  -28.8120   19.9970 C   0  0  0  0  0  0  0  0  0  0  0  0
  -25.8810  -30.6730   21.3060 C   0  0  0  0  0  2  0  0  0  0  0  0
  -26.0140  -29.3100   20.6290 C   0  0  0  0  0  0  0  0  0  0  0  0
  -27.2170  -28.5320   20.6260 C   0  0  0  0  0  3  0  0  0  0  0  0
  -26.0950  -26.8010   19.3650 C   0  0  0  0  0  3  0  0  0  0  0  0
  -24.9130  -27.5670   19.3550 C   0  0  0  0  0  3  0  0  0  0  0  0
  -23.6040  -29.6540   20.0390 C   0  0  0  0  0  2  0  0  0  0  0  0
  -24.5850  -30.8980   22.0110 N   0  0  0  0  0  0  0  0  0  0  0  0
  -23.3700  -31.9210   23.6380 O   0  0  0  0  0  0  0  0  0  0  0  0
  -22.6850  -29.2360   22.3510 C   0  0  0  0  0  0  0  0  0  0  0  0
  -21.3630  -29.0410   22.2070 N   0  0  0  0  0  0  0  0  0  0  0  0
  -23.3650  -28.5990   23.1600 O   0  0  0  0  0  0  0  0  0  0  0  0
  -20.8730  -29.6120   21.5320 H   0  0  0  0  0  0  0  0  0  0  0  0
  -17.9950  -27.7970   22.6640 C   0  0  0  0  0  0  0  0  0  0  0  0
  -20.5530  -28.0650   22.9370 C   0  0  0  0  0  3  0  0  0  0  0  0
  -20.6630  -26.6590   22.3040 C   0  0  0  0  0  2  0  0  0  0  0  0
  -19.5610  -26.3700   21.2800 C   0  0  0  0  0  2  0  0  0  0  0  0
  -18.1790  -26.4780   21.9330 C   0  0  0  0  0  2  0  0  0  0  0  0
  -19.1090  -28.5500   23.1210 C   0  0  0  0  0  0  0  0  0  0  0  0
  -18.8840  -29.7860   23.7650 C   0  0  0  0  0  3  0  0  0  0  0  0
  -17.5760  -30.2690   23.9570 C   0  0  0  0  0  3  0  0  0  0  0  0
  -16.4750  -29.5120   23.5180 C   0  0  0  0  0  3  0  0  0  0  0  0
  -16.6860  -28.2780   22.8740 C   0  0  0  0  0  3  0  0  0  0  0  0
  -25.7220  -32.3400   23.7880 C   0  0  0  0  0  3  0  0  0  0  0  0
  -26.2100  -31.5740   25.0780 C   0  0  1  0  0  0  0  0  0  0  0  0
  -25.0860  -31.3040   26.1050 C   0  0  0  0  0  1  0  0  0  0  0  0
  -26.8410  -30.2130   24.7000 C   0  0  0  0  0  1  0  0  0  0  0  0
  -27.3220  -32.3900   25.7810 C   0  0  0  0  0  1  0  0  0  0  0  0
  -25.3750  -33.7310   24.1130 N   0  0  0  0  0  0  0  0  0  0  0  0
  -25.6950  -34.7930   23.3610 C   0  0  0  0  0  0  0  0  0  0  0  0
  -26.3810  -34.7060   22.3390 O   0  0  0  0  0  0  0  0  0  0  0  0
  -24.7700  -33.8710   24.9090 H   0  0  0  0  0  0  0  0  0  0  0  0
  -23.9250  -36.5440   22.9970 C   0  0  0  0  0  1  0  0  0  0  0  0
  -25.1720  -36.1710   23.8150 C   0  0  0  0  0  3  0  0  0  0  0  0
  -27.2730  -37.1140   24.6630 C   0  0  0  0  0  1  0  0  0  0  0  0
  -26.1780  -37.2480   23.7060 N   0  0  0  0  0  0  0  0  0  0  0  0
  -25.7490  -38.1590   23.8450 H   0  0  0  0  0  0  0  0  0  0  0  0
  3  1  1  6
  3  2  1  0
  4  5  1  0
  5 18  1  0
  5  6  2  0
  6  7  1  0
  8  4  2  0
  8  9  1  0
  9  3  1  0
  9  6  1  0
 10 18  1  0
 11 16  1  0
 12 13  1  0
 12 11  1  0
 14 13  1  0
 14 23  1  0
 14 15  1  0
 16 10  1  0
 16 15  1  0
 17 10  2  0
 18 19  1  0
 20 21  2  0
 21 40  1  0
 22 21  1  0
 22 25  1  0
 23 24  1  0
 23 20  1  0
 24 22  2  0
 25 26  1  0
 26 27  2  0
 28 31  1  0
 28 27  1  0
 29 28  2  0
 30 29  1  0
 30 25  2  0
 31 32  1  0
 32 37  2  0
 32 33  1  0
 33 34  2  0
 34 35  1  0
 35 39  1  0
 36 35  2  0
 37 36  1  0
 38 37  1  0
 40 41  1  0
 41 44  1  0
 41 43  1  0
 42 40  2  0
 45 20  1  0
 45 46  1  0
 47 45  1  0
 50 48  1  6
 50 51  1  0
 50 49  1  0
 50  3  1  0
 52 53  1  0
 52 51  2  0
 54 65  2  0
 55 53  1  0
 55 60  1  0
 56 64  1  0
 56 66  1  0
 57 63  1  0
 57 59  1  0
 58 64  1  0
 59 58  1  0
 60 59  2  0
 61 55  2  0
 62 61  1  0
 62 57  2  0
 63 56  1  0
 64 54  1  0
 66 68  2  0
 67 66  1  0
 69 67  1  0
 70 79  2  0
 70 75  1  0
 71 67  1  0
 71 75  1  0
 72 71  1  0
 73 74  1  0
 73 72  1  0
 74 70  1  0
 75 76  2  0
 76 77  1  0
 78 77  2  0
 79 78  1  0
 80 54  1  0
 80 85  1  0
 80 81  1  0
 81 84  1  1
 81 82  1  0
 83 81  1  0
 85 88  1  0
 86 90  1  0
 86 85  1  0
 87 86  2  0
 90 89  1  0
 92 90  1  0
 92 93  1  0
 92 91  1  0
M  ISO  4  10 100  18 100  52 101  53 101
M  END
>  <TORSDO>  (3) 
F 20

>  <SCORE>  (3) 
-11.860

>  <name>  (3) 
2

>  <ligand_id>  (3) 
2

>  <original_smiles>  (3) 
[H]c1nn(C(C([H])([H])[H])(C([H])([H])[H])C(C([H])([H])[H])(C([H])([H])[H])C([H])([H])C([H])([H])Oc2c([H])c([H])c3c(c2[H])C([H])([H])N(C(=O)C([H])(N([H])C(=O)C([H])(N([H])C([H])([H])[H])C([H])([H])[H])C(C([H])([H])[H])(C([H])([H])[H])C([H])([H])[H])C([H])(C(=O)N([H])C2([H])c4c([H])c([H])c([H])c([H])c4C([H])([H])C([H])([H])C2([H])[H])C3([H])[H])c(C([H])([H])[H])c1N([H])C(=O)N1C([H])([H])C([H])([H])C([H])([H])C([H])(n2nc(-c3c([H])c([H])c(Oc4c([H])c([H])c(F)c([H])c4F)c([H])c3[H])c(C(=O)N([H])[H])c2N([H])[H])C1([H])[H]

>  <smiles>  (3) 
[H]c1nn(C(C([H])([H])[H])(C([H])([H])[H])C(C([H])([H])[H])(C([H])([H])[H])C([H])([H])C([H])([H])Oc2c([H])c([H])c3c(c2[H])C([H])([H])N(C(=O)C([H])(N([H])C(=O)C([H])(N([H])C([H])([H])[H])C([H])([H])[H])C(C([H])([H])[H])(C([H])([H])[H])C([H])([H])[H])C([H])(C(=O)N([H])C2([H])c4c([H])c([H])c([H])c([H])c4C([H])([H])C([H])([H])C2([H])[H])C3([H])[H])c(C([H])([H])[H])c1N([H])C(=O)N1C([H])([H])C([H])([H])C([H])([H])C([H])(n2nc(-c3c([H])c([H])c(Oc4c([H])c([H])c(F)c([H])c4F)c([H])c3[H])c(C(=O)N([H])[H])c2N([H])[H])C1([H])[H]

$$$$
3:0:0
     RDKit          3D

 96104  0  0  1  0  0  0  0  0999 V2000
  -30.0220  -20.4640   23.6960 C   0  0  0  0  0  1  0  0  0  0  0  0
  -31.0730  -20.7300   22.6060 C   0  0  0  0  0  3  0  0  0  0  0  0
  -30.5410  -18.5470   19.4980 C   0  0  0  0  0  3  0  0  0  0  0  0
  -30.4410  -19.5910   20.4330 C   0  0  0  0  0  3  0  0  0  0  0  0
  -31.3610  -17.4330   19.7610 C   0  0  0  0  0  0  0  0  0  0  0  0
  -31.1560  -19.5390   21.6500 C   0  0  0  0  0  0  0  0  0  0  0  0
  -32.0400  -17.3400   20.9990 C   0  0  0  0  0  0  0  0  0  0  0  0
  -31.9350  -18.3890   21.9450 C   0  0  0  0  0  0  0  0  0  0  0  0
  -33.0110  -15.9510   21.3690 Cl  0  0  0  0  0  0  0  0  0  0  0  0
  -32.7840  -18.2490   23.4510 Cl  0  0  0  0  0  0  0  0  0  0  0  0
  -31.5350  -16.3910   18.6670 C   0  0  0  0  0  2  0  0  0  0  0  0
  -31.2370  -14.0000   18.2800 C   0  0  0  0  0  0  0  0  0  0  0  0
  -30.6020  -11.6950   17.7060 C   0  0  0  0  0  2  0  0  0  0  0  0
  -29.4010  -11.7080   16.7400 C   0  0  0  0  0  2  0  0  0  0  0  0
  -28.0740  -11.7600   17.5210 C   0  0  0  0  0  2  0  0  0  0  0  0
  -28.0630  -12.8680   18.6100 C   0  0  0  0  0  3  0  0  0  0  0  0
  -29.3490  -12.8190   19.4650 C   0  0  0  0  0  2  0  0  0  0  0  0
  -30.5090  -12.8890   18.5580 N   0  0  0  0  0  0  0  0  0  0  0  0
  -32.1160  -14.0310   17.4120 O   0  0  0  0  0  0  0  0  0  0  0  0
  -30.9200  -15.1030   18.9630 N   0  0  0  0  0  0  0  0  0  0  0  0
  -30.1880  -15.0560   19.6560 H   0  0  0  0  0  0  0  0  0  0  0  0
  -26.0840  -13.8020   19.9670 C   0  0  0  0  0  0  0  0  0  0  0  0
  -25.0390  -13.1880   20.6030 C   0  0  0  0  0  0  0  0  0  0  0  0
  -25.2320  -11.7850   20.4120 C   0  0  0  0  0  0  0  0  0  0  0  0
  -26.8600  -12.7820   19.4370 N   0  0  0  0  0  0  0  0  0  0  0  0
  -26.3640  -11.5600   19.7560 N   0  0  0  0  0  0  0  0  0  0  0  0
  -24.3750  -10.6460   20.7690 C   0  0  0  0  0  0  0  0  0  0  0  0
  -24.7310   -9.7510   21.8030 C   0  0  0  0  0  3  0  0  0  0  0  0
  -23.8850   -8.6720   22.1390 C   0  0  0  0  0  3  0  0  0  0  0  0
  -22.6670   -8.4830   21.4450 C   0  0  0  0  0  0  0  0  0  0  0  0
  -22.3280   -9.3630   20.4010 C   0  0  0  0  0  3  0  0  0  0  0  0
  -23.1740  -10.4330   20.0640 C   0  0  0  0  0  3  0  0  0  0  0  0
  -21.7940   -7.4500   21.6860 O   0  0  0  0  0  0  0  0  0  0  0  0
  -21.4790   -7.0570   22.9620 C   0  0  0  0  0  0  0  0  0  0  0  0
  -20.8720   -7.9370   23.8860 C   0  0  0  0  0  3  0  0  0  0  0  0
  -20.5010   -7.4720   25.1630 C   0  0  0  0  0  3  0  0  0  0  0  0
  -20.7280   -6.1280   25.5170 C   0  0  0  0  0  0  0  0  0  0  0  0
  -21.3280   -5.2490   24.5980 C   0  0  0  0  0  3  0  0  0  0  0  0
  -21.7000   -5.7120   23.3240 C   0  0  0  0  0  0  0  0  0  0  0  0
  -22.2570   -4.8550   22.4350 F   0  0  0  0  0  0  0  0  0  0  0  0
  -20.3650   -5.6790   26.7410 F   0  0  0  0  0  0  0  0  0  0  0  0
  -23.8750  -13.8630   21.2680 C   0  0  0  0  0  0  0  0  0  0  0  0
  -23.3460  -13.2670   22.3320 N   0  0  0  0  0  0  0  0  0  0  0  0
  -23.4550  -14.9490   20.8730 O   0  0  0  0  0  0  0  0  0  0  0  0
  -23.7010  -12.3860   22.6700 H   0  0  0  0  0  0  0  0  0  0  0  0
  -22.5730  -13.7010   22.8160 H   0  0  0  0  0  0  0  0  0  0  0  0
  -26.4320  -15.1370   19.7780 N   0  0  0  0  0  0  0  0  0  0  0  0
  -25.8550  -15.9030   20.1100 H   0  0  0  0  0  0  0  0  0  0  0  0
  -27.2310  -15.4480   19.2420 H   0  0  0  0  0  0  0  0  0  0  0  0
  -30.8180  -22.0830   21.8920 C   0  0  0  0  0  2  0  0  0  0  0  0
  -31.4580  -22.2430   20.4900 C   0  0  0  0  0  2  0  0  0  0  0  0
  -32.2200  -23.5690   20.2980 C   0  0  0  0  0  2  0  0  0  0  0  0
  -32.5770  -23.8680   18.8260 C   0  0  0  0  0  2  0  0  0  0  0  0
  -31.3940  -24.3450   17.9530 C   0  0  0  0  0  2  0  0  0  0  0  0
  -30.7250  -25.6450   18.4340 C   0  0  0  0  0  2  0  0  0  0  0  0
  -29.8530  -26.1230   17.4070 O   0  0  0  0  0  0  0  0  0  0  0  0
  -25.8480  -28.1930   22.9150 C   0  0  0  0  0  0  0  0  0  0  0  0
  -28.6420  -26.5830   17.8600 C   0  0  0  0  0  0  0  0  0  0  0  0
  -24.6400  -27.7310   20.8040 C   0  0  0  0  0  3  0  0  0  0  0  0
  -26.1040  -27.4500   18.7320 C   0  0  0  0  0  0  0  0  0  0  0  0
  -27.0680  -28.5320   20.7720 C   0  0  0  0  0  2  0  0  0  0  0  0
  -27.2440  -27.7460   19.4900 C   0  0  0  0  0  0  0  0  0  0  0  0
  -28.5160  -27.3120   19.0620 C   0  0  0  0  0  3  0  0  0  0  0  0
  -27.4910  -26.3090   17.0930 C   0  0  0  0  0  3  0  0  0  0  0  0
  -26.2200  -26.7280   17.5310 C   0  0  0  0  0  3  0  0  0  0  0  0
  -24.7780  -27.9420   19.2720 C   0  0  0  0  0  2  0  0  0  0  0  0
  -25.8750  -28.1330   21.5540 N   0  0  0  0  0  0  0  0  0  0  0  0
  -24.8080  -27.9590   23.5470 O   0  0  0  0  0  0  0  0  0  0  0  0
  -24.2160  -26.2680   21.0650 C   0  0  0  0  0  0  0  0  0  0  0  0
  -22.9650  -25.9350   20.7110 N   0  0  0  0  0  0  0  0  0  0  0  0
  -25.0120  -25.4570   21.5460 O   0  0  0  0  0  0  0  0  0  0  0  0
  -22.3760  -26.6610   20.3270 H   0  0  0  0  0  0  0  0  0  0  0  0
  -19.9760  -24.0310   20.0130 C   0  0  0  0  0  0  0  0  0  0  0  0
  -22.3600  -24.6090   20.8270 C   0  0  0  0  0  3  0  0  0  0  0  0
  -22.8620  -23.6700   19.7060 C   0  0  0  0  0  2  0  0  0  0  0  0
  -21.9500  -23.6630   18.4750 C   0  0  0  0  0  2  0  0  0  0  0  0
  -20.5350  -23.2200   18.8570 C   0  0  0  0  0  2  0  0  0  0  0  0
  -20.8320  -24.6950   20.9310 C   0  0  0  0  0  0  0  0  0  0  0  0
  -20.2620  -25.4640   21.9690 C   0  0  0  0  0  3  0  0  0  0  0  0
  -18.8650  -25.5720   22.0990 C   0  0  0  0  0  3  0  0  0  0  0  0
  -18.0210  -24.8980   21.1990 C   0  0  0  0  0  3  0  0  0  0  0  0
  -18.5770  -24.1260   20.1630 C   0  0  0  0  0  3  0  0  0  0  0  0
  -27.1150  -28.5770   23.7420 C   0  0  0  0  0  3  0  0  0  0  0  0
  -26.7290  -29.6480   24.6690 N   0  0  0  0  0  0  0  0  0  0  0  0
  -27.0470  -30.9410   24.5110 C   0  0  0  0  0  0  0  0  0  0  0  0
  -27.7660  -31.3460   23.5940 O   0  0  0  0  0  0  0  0  0  0  0  0
  -26.0920  -29.3960   25.4110 H   0  0  0  0  0  0  0  0  0  0  0  0
  -25.2970  -32.7040   24.9010 C   0  0  0  0  0  1  0  0  0  0  0  0
  -26.4750  -31.9440   25.5310 C   0  0  0  0  0  3  0  0  0  0  0  0
  -28.4860  -32.2930   26.8980 C   0  0  0  0  0  1  0  0  0  0  0  0
  -27.4790  -32.9070   26.0360 N   0  0  0  0  0  0  0  0  0  0  0  0
  -27.0300  -33.6570   26.5570 H   0  0  0  0  0  0  0  0  0  0  0  0
  -27.7420  -27.3580   24.5220 C   0  0  1  0  0  0  0  0  0  0  0  0
  -26.7170  -26.5720   25.3700 C   0  0  0  0  0  1  0  0  0  0  0  0
  -28.4060  -26.3640   23.5390 C   0  0  0  0  0  1  0  0  0  0  0  0
  -28.8640  -27.8590   25.4620 C   0  0  0  0  0  1  0  0  0  0  0  0
  2  1  1  0
  3  5  2  0
  3  4  1  0
  4  6  2  0
  5  7  1  0
  6  8  1  0
  6  2  1  0
  7  9  1  0
  7  8  2  0
  8 10  1  0
 11 20  1  0
 11  5  1  0
 12 18  1  0
 12 20  1  0
 13 18  1  0
 14 15  1  0
 14 13  1  0
 16 15  1  0
 16 25  1  0
 16 17  1  0
 18 17  1  0
 19 12  2  0
 20 21  1  0
 22 23  2  0
 23 42  1  0
 24 23  1  0
 24 27  1  0
 25 26  1  0
 25 22  1  0
 26 24  2  0
 27 28  1  0
 28 29  2  0
 30 33  1  0
 30 29  1  0
 31 30  2  0
 32 31  1  0
 32 27  2  0
 33 34  1  0
 34 39  2  0
 34 35  1  0
 35 36  2  0
 36 37  1  0
 37 41  1  0
 38 37  2  0
 39 38  1  0
 40 39  1  0
 42 43  1  0
 43 45  1  0
 43 46  1  0
 44 42  2  0
 47 22  1  0
 47 48  1  0
 49 47  1  0
 50  2  1  0
 51 50  1  0
 52 51  1  0
 53 52  1  0
 54 55  1  0
 54 53  1  0
 56 58  1  0
 56 55  1  0
 57 68  2  0
 58 63  1  0
 59 69  1  0
 59 67  1  0
 60 66  1  0
 60 62  1  0
 61 67  1  0
 62 61  1  0
 63 62  2  0
 64 65  1  0
 64 58  2  0
 65 60  2  0
 66 59  1  0
 67 57  1  0
 69 71  2  0
 70 69  1  0
 72 70  1  0
 73 82  2  0
 73 78  1  0
 74 70  1  0
 74 78  1  0
 75 74  1  0
 76 77  1  0
 76 75  1  0
 77 73  1  0
 78 79  2  0
 79 80  1  0
 81 80  2  0
 82 81  1  0
 83 57  1  0
 83 93  1  0
 83 84  1  0
 84 87  1  0
 85 84  1  0
 85 89  1  0
 86 85  2  0
 89 88  1  0
 89 91  1  0
 91 92  1  0
 91 90  1  0
 93 94  1  1
 93 96  1  0
 95 93  1  0
M  ISO  4  12 100  20 100  55 101  56 101
M  END
>  <TORSDO>  (4) 
F 24

>  <SCORE>  (4) 
0.217

>  <name>  (4) 
3

>  <ligand_id>  (4) 
3

>  <original_smiles>  (4) 
[H]c1c([H])c([H])c2c(c1[H])C([H])([H])C([H])([H])C([H])([H])C2([H])N([H])C(=O)C1([H])N(C(=O)C([H])(N([H])C(=O)C([H])(N([H])C([H])([H])[H])C([H])([H])[H])C(C([H])([H])[H])(C([H])([H])[H])C([H])([H])[H])C([H])([H])c2c([H])c(OC([H])([H])C([H])([H])C([H])([H])C([H])([H])C([H])([H])C([H])([H])C([H])(c3c([H])c([H])c(C([H])([H])N([H])C(=O)N4C([H])([H])C([H])([H])C([H])([H])C([H])(n5nc(-c6c([H])c([H])c(Oc7c([H])c([H])c(F)c([H])c7F)c([H])c6[H])c(C(=O)N([H])[H])c5N([H])[H])C4([H])[H])c(Cl)c3Cl)C([H])([H])[H])c([H])c([H])c2C1([H])[H]

>  <smiles>  (4) 
[H]c1c([H])c([H])c2c(c1[H])C([H])([H])C([H])([H])C([H])([H])C2([H])N([H])C(=O)C1([H])N(C(=O)C([H])(N([H])C(=O)C([H])(N([H])C([H])([H])[H])C([H])([H])[H])C(C([H])([H])[H])(C([H])([H])[H])C([H])([H])[H])C([H])([H])c2c([H])c(OC([H])([H])C([H])([H])C([H])([H])C([H])([H])C([H])([H])C([H])([H])C([H])(c3c([H])c([H])c(C([H])([H])N([H])C(=O)N4C([H])([H])C([H])([H])C([H])([H])C([H])(n5nc(-c6c([H])c([H])c(Oc7c([H])c([H])c(F)c([H])c7F)c([H])c6[H])c(C(=O)N([H])[H])c5N([H])[H])C4([H])[H])c(Cl)c3Cl)C([H])([H])[H])c([H])c([H])c2C1([H])[H]

$$$$
4:0:0
     RDKit          3D

 94102  0  0  1  0  0  0  0  0999 V2000
  -28.5410  -18.3420   20.7020 C   0  0  0  0  0  3  0  0  0  0  0  0
  -31.2640  -17.6750   20.8030 C   0  0  0  0  0  3  0  0  0  0  0  0
  -29.5040  -19.2950   20.3180 C   0  0  0  0  0  0  0  0  0  0  0  0
  -30.2920  -16.6760   21.0570 C   0  0  0  0  0  0  0  0  0  0  0  0
  -30.8870  -18.9830   20.4450 C   0  0  0  0  0  0  0  0  0  0  0  0
  -28.9200  -17.0380   21.0750 C   0  0  0  0  0  0  0  0  0  0  0  0
  -32.1250  -20.1520   20.1400 Cl  0  0  0  0  0  0  0  0  0  0  0  0
  -27.6830  -15.9040   21.5040 Cl  0  0  0  0  0  0  0  0  0  0  0  0
  -28.9970  -20.5950   19.7060 C   0  0  0  0  0  2  0  0  0  0  0  0
  -29.0220  -20.5080   18.1710 C   0  0  0  0  0  2  0  0  0  0  0  0
  -30.3980  -20.8590   17.5550 C   0  0  0  0  0  2  0  0  0  0  0  0
  -30.6730  -22.3620   17.2790 C   0  0  0  0  0  2  0  0  0  0  0  0
  -31.0290  -23.3640   18.4320 C   0  0  0  0  0  2  0  0  0  0  0  0
  -30.1830  -24.6500   18.2290 C   0  0  0  0  0  2  0  0  0  0  0  0
  -30.3280  -25.9520   18.9060 O   0  0  0  0  0  0  0  0  0  0  0  0
  -25.7020  -29.5650   23.0490 C   0  0  0  0  0  0  0  0  0  0  0  0
  -29.1190  -26.6550   18.9860 C   0  0  0  0  0  0  0  0  0  0  0  0
  -24.7950  -28.5030   21.0250 C   0  0  0  0  0  3  0  0  0  0  0  0
  -26.5160  -27.7530   19.3070 C   0  0  0  0  0  0  0  0  0  0  0  0
  -27.2290  -29.3210   21.0860 C   0  0  0  0  0  2  0  0  0  0  0  0
  -27.5710  -28.2280   20.0920 C   0  0  0  0  0  0  0  0  0  0  0  0
  -28.8820  -27.6910   19.9380 C   0  0  0  0  0  3  0  0  0  0  0  0
  -28.0340  -26.2940   18.1420 C   0  0  0  0  0  3  0  0  0  0  0  0
  -26.7480  -26.7940   18.3190 C   0  0  0  0  0  3  0  0  0  0  0  0
  -25.1370  -28.3270   19.5300 C   0  0  0  0  0  2  0  0  0  0  0  0
  -25.9270  -29.1300   21.7790 N   0  0  0  0  0  0  0  0  0  0  0  0
  -24.5840  -29.4720   23.5800 O   0  0  0  0  0  0  0  0  0  0  0  0
  -24.3470  -27.1380   21.6060 C   0  0  0  0  0  0  0  0  0  0  0  0
  -23.1260  -26.6990   21.2600 N   0  0  0  0  0  0  0  0  0  0  0  0
  -25.0980  -26.4880   22.3370 O   0  0  0  0  0  0  0  0  0  0  0  0
  -22.5750  -27.2820   20.6380 H   0  0  0  0  0  0  0  0  0  0  0  0
  -20.1660  -24.6390   20.9040 C   0  0  0  0  0  0  0  0  0  0  0  0
  -22.5090  -25.4330   21.6700 C   0  0  0  0  0  3  0  0  0  0  0  0
  -23.0650  -24.2700   20.8280 C   0  0  0  0  0  2  0  0  0  0  0  0
  -22.2110  -23.9320   19.6030 C   0  0  0  0  0  2  0  0  0  0  0  0
  -20.7810  -23.5740   20.0190 C   0  0  0  0  0  2  0  0  0  0  0  0
  -20.9740  -25.5110   21.6790 C   0  0  0  0  0  0  0  0  0  0  0  0
  -20.3550  -26.4880   22.4800 C   0  0  0  0  0  3  0  0  0  0  0  0
  -18.9540  -26.6000   22.5240 C   0  0  0  0  0  3  0  0  0  0  0  0
  -18.1540  -25.7410   21.7500 C   0  0  0  0  0  3  0  0  0  0  0  0
  -18.7580  -24.7530   20.9510 C   0  0  0  0  0  3  0  0  0  0  0  0
  -26.8310  -30.2280   23.8920 C   0  0  0  0  0  3  0  0  0  0  0  0
  -26.2860  -31.4620   24.4770 N   0  0  0  0  0  0  0  0  0  0  0  0
  -26.5010  -32.6940   23.9930 C   0  0  0  0  0  0  0  0  0  0  0  0
  -27.2600  -32.9230   23.0480 O   0  0  0  0  0  0  0  0  0  0  0  0
  -25.6100  -31.3470   25.2190 H   0  0  0  0  0  0  0  0  0  0  0  0
  -24.5530  -34.2800   23.8310 C   0  0  0  0  0  1  0  0  0  0  0  0
  -25.7680  -33.8650   24.6770 C   0  0  0  0  0  3  0  0  0  0  0  0
  -27.6550  -34.8100   25.9330 C   0  0  0  0  0  1  0  0  0  0  0  0
  -26.6320  -35.0440   24.9160 N   0  0  0  0  0  0  0  0  0  0  0  0
  -26.0740  -35.8420   25.2100 H   0  0  0  0  0  0  0  0  0  0  0  0
  -27.3970  -29.2820   25.0210 C   0  0  1  0  0  0  0  0  0  0  0  0
  -26.3000  -28.6590   25.9130 C   0  0  0  0  0  1  0  0  0  0  0  0
  -28.2190  -28.1290   24.4030 C   0  0  0  0  0  1  0  0  0  0  0  0
  -28.3640  -30.0740   25.9340 C   0  0  0  0  0  1  0  0  0  0  0  0
  -30.7600  -15.2340   21.2160 C   0  0  0  0  0  2  0  0  0  0  0  0
  -31.4780  -13.4980   19.5520 C   0  0  0  0  0  0  0  0  0  0  0  0
  -31.1100  -11.1460   18.8730 C   0  0  0  0  0  2  0  0  0  0  0  0
  -30.0860  -11.0730   17.7200 C   0  0  0  0  0  2  0  0  0  0  0  0
  -28.6480  -11.0280   18.2700 C   0  0  0  0  0  2  0  0  0  0  0  0
  -28.3770  -12.1490   19.3100 C   0  0  0  0  0  3  0  0  0  0  0  0
  -29.4980  -12.1640   20.3710 C   0  0  0  0  0  2  0  0  0  0  0  0
  -30.7880  -12.3320   19.6860 N   0  0  0  0  0  0  0  0  0  0  0  0
  -32.5220  -13.5920   18.9070 O   0  0  0  0  0  0  0  0  0  0  0  0
  -30.8210  -14.6150   19.8880 N   0  0  0  0  0  0  0  0  0  0  0  0
  -31.0240  -15.3410   19.2180 H   0  0  0  0  0  0  0  0  0  0  0  0
  -26.1410  -13.0020   20.2790 C   0  0  0  0  0  0  0  0  0  0  0  0
  -25.0470  -12.3410   20.7570 C   0  0  0  0  0  0  0  0  0  0  0  0
  -25.3500  -10.9470   20.6500 C   0  0  0  0  0  0  0  0  0  0  0  0
  -27.0570  -12.0210   19.9260 N   0  0  0  0  0  0  0  0  0  0  0  0
  -26.5860  -10.7790   20.2050 N   0  0  0  0  0  0  0  0  0  0  0  0
  -24.5230   -9.7620   20.9000 C   0  0  0  0  0  0  0  0  0  0  0  0
  -24.8450   -8.8340   21.9180 C   0  0  0  0  0  3  0  0  0  0  0  0
  -24.0210   -7.7120   22.1470 C   0  0  0  0  0  3  0  0  0  0  0  0
  -22.8630   -7.5130   21.3600 C   0  0  0  0  0  0  0  0  0  0  0  0
  -22.5600   -8.4250   20.3360 C   0  0  0  0  0  3  0  0  0  0  0  0
  -23.3820   -9.5380   20.1040 C   0  0  0  0  0  3  0  0  0  0  0  0
  -22.0200   -6.4380   21.4870 O   0  0  0  0  0  0  0  0  0  0  0  0
  -21.7450   -5.8810   22.7090 C   0  0  0  0  0  0  0  0  0  0  0  0
  -21.1400   -6.6250   23.7450 C   0  0  0  0  0  3  0  0  0  0  0  0
  -20.8040   -5.9970   24.9620 C   0  0  0  0  0  3  0  0  0  0  0  0
  -21.0690   -4.6240   25.1430 C   0  0  0  0  0  0  0  0  0  0  0  0
  -21.6660   -3.8810   24.1090 C   0  0  0  0  0  3  0  0  0  0  0  0
  -21.9980   -4.5070   22.8950 C   0  0  0  0  0  0  0  0  0  0  0  0
  -22.5530   -3.7820   21.8940 F   0  0  0  0  0  0  0  0  0  0  0  0
  -20.7440   -4.0150   26.3070 F   0  0  0  0  0  0  0  0  0  0  0  0
  -23.7430  -12.9520   21.1930 C   0  0  0  0  0  0  0  0  0  0  0  0
  -23.0600  -12.3290   22.1420 N   0  0  0  0  0  0  0  0  0  0  0  0
  -23.3500  -14.0240   20.7310 O   0  0  0  0  0  0  0  0  0  0  0  0
  -23.3870  -11.4580   22.5330 H   0  0  0  0  0  0  0  0  0  0  0  0
  -22.1910  -12.7130   22.4820 H   0  0  0  0  0  0  0  0  0  0  0  0
  -26.4260  -14.3520   20.0960 N   0  0  0  0  0  0  0  0  0  0  0  0
  -25.7950  -15.0600   20.4570 H   0  0  0  0  0  0  0  0  0  0  0  0
  -27.3690  -14.6860   19.9390 H   0  0  0  0  0  0  0  0  0  0  0  0
  1  6  1  0
  2  4  1  0
  3  5  1  0
  3  1  2  0
  4  6  2  0
  4 56  1  0
  5  2  2  0
  6  8  1  0
  7  5  1  0
  9  3  1  0
 10  9  1  0
 11 10  1  0
 12 11  1  0
 12 13  1  0
 14 13  1  0
 14 15  1  0
 15 17  1  0
 16 27  2  0
 17 22  1  0
 18 28  1  0
 18 26  1  0
 19 25  1  0
 19 21  1  0
 20 26  1  0
 21 20  1  0
 22 21  2  0
 23 24  1  0
 23 17  2  0
 24 19  2  0
 25 18  1  0
 26 16  1  0
 28 30  2  0
 29 28  1  0
 31 29  1  0
 32 41  2  0
 32 37  1  0
 33 29  1  0
 33 37  1  0
 34 33  1  0
 35 36  1  0
 35 34  1  0
 36 32  1  0
 37 38  2  0
 38 39  1  0
 40 39  2  0
 41 40  1  0
 42 16  1  0
 42 43  1  0
 42 52  1  0
 43 46  1  0
 44 43  1  0
 44 48  1  0
 45 44  2  0
 48 47  1  0
 48 50  1  0
 50 51  1  0
 50 49  1  0
 52 53  1  1
 52 55  1  0
 54 52  1  0
 57 63  1  0
 57 65  1  0
 58 63  1  0
 59 60  1  0
 59 58  1  0
 61 60  1  0
 61 70  1  0
 61 62  1  0
 63 62  1  0
 64 57  2  0
 65 56  1  0
 66 65  1  0
 67 68  2  0
 68 87  1  0
 69 68  1  0
 69 72  1  0
 70 71  1  0
 70 67  1  0
 71 69  2  0
 72 73  1  0
 73 74  2  0
 75 78  1  0
 75 74  1  0
 76 75  2  0
 77 76  1  0
 77 72  2  0
 78 79  1  0
 79 84  2  0
 79 80  1  0
 80 81  2  0
 81 82  1  0
 82 86  1  0
 83 82  2  0
 84 83  1  0
 85 84  1  0
 87 88  1  0
 88 91  1  0
 88 90  1  0
 89 87  2  0
 92 67  1  0
 92 93  1  0
 94 92  1  0
M  ISO  4  14 101  15 101  57 100  65 100
M  END
>  <TORSDO>  (5) 
F 23

>  <SCORE>  (5) 
-6.142

>  <name>  (5) 
4

>  <ligand_id>  (5) 
4

>  <original_smiles>  (5) 
[H]c1c([H])c([H])c2c(c1[H])C([H])([H])C([H])([H])C([H])([H])C2([H])N([H])C(=O)C1([H])N(C(=O)C([H])(N([H])C(=O)C([H])(N([H])C([H])([H])[H])C([H])([H])[H])C(C([H])([H])[H])(C([H])([H])[H])C([H])([H])[H])C([H])([H])c2c([H])c(OC([H])([H])C([H])([H])C([H])([H])C([H])([H])C([H])([H])C([H])([H])c3c([H])c(Cl)c(C([H])([H])N([H])C(=O)N4C([H])([H])C([H])([H])C([H])([H])C([H])(n5nc(-c6c([H])c([H])c(Oc7c([H])c([H])c(F)c([H])c7F)c([H])c6[H])c(C(=O)N([H])[H])c5N([H])[H])C4([H])[H])c([H])c3Cl)c([H])c([H])c2C1([H])[H]

>  <smiles>  (5) 
[H]c1c([H])c([H])c2c(c1[H])C([H])([H])C([H])([H])C([H])([H])C2([H])N([H])C(=O)C1([H])N(C(=O)C([H])(N([H])C(=O)C([H])(N([H])C([H])([H])[H])C([H])([H])[H])C(C([H])([H])[H])(C([H])([H])[H])C([H])([H])[H])C([H])([H])c2c([H])c(OC([H])([H])C([H])([H])C([H])([H])C([H])([H])C([H])([H])C([H])([H])c3c([H])c(Cl)c(C([H])([H])N([H])C(=O)N4C([H])([H])C([H])([H])C([H])([H])C([H])(n5nc(-c6c([H])c([H])c(Oc7c([H])c([H])c(F)c([H])c7F)c([H])c6[H])c(C(=O)N([H])[H])c5N([H])[H])C4([H])[H])c([H])c3Cl)c([H])c([H])c2C1([H])[H]

$$$$
5:0:0
     RDKit          3D

 94102  0  0  1  0  0  0  0  0999 V2000
  -31.3090  -19.8350   18.9870 C   0  0  0  0  0  3  0  0  0  0  0  0
  -30.6410  -18.7550   19.6180 C   0  0  0  0  0  0  0  0  0  0  0  0
  -29.2900  -20.4630   20.8080 C   0  0  0  0  0  0  0  0  0  0  0  0
  -30.0460  -21.5320   20.2380 C   0  0  0  0  0  0  0  0  0  0  0  0
  -31.0410  -21.1900   19.2890 C   0  0  0  0  0  0  0  0  0  0  0  0
  -29.5870  -19.0900   20.5110 C   0  0  0  0  0  0  0  0  0  0  0  0
  -28.2020  -20.7910   21.8280 C   0  0  0  0  0  1  0  0  0  0  0  0
  -32.0470  -22.3990   18.5690 Cl  0  0  0  0  0  0  0  0  0  0  0  0
  -28.7110  -17.8300   21.3150 Cl  0  0  0  0  0  0  0  0  0  0  0  0
  -29.5410  -23.9580   20.4750 C   0  0  0  0  0  0  0  0  0  0  0  0
  -29.7190  -25.1160   21.4350 C   0  0  0  0  0  1  0  0  0  0  0  0
  -30.0100  -22.8150   20.8560 N   0  0  0  0  0  0  0  0  0  0  0  0
  -28.7450  -24.3570   19.2160 C   0  0  0  0  0  2  0  0  0  0  0  0
  -29.0910  -25.7470   18.5560 C   0  0  0  0  0  2  0  0  0  0  0  0
  -28.8400  -26.9990   19.2590 O   0  0  0  0  0  0  0  0  0  0  0  0
  -24.5800  -31.3730   22.9550 C   0  0  0  0  0  0  0  0  0  0  0  0
  -27.5870  -27.5990   19.3120 C   0  0  0  0  0  0  0  0  0  0  0  0
  -23.4780  -30.0390   21.1890 C   0  0  0  0  0  3  0  0  0  0  0  0
  -25.0400  -28.8480   19.5510 C   0  0  0  0  0  0  0  0  0  0  0  0
  -25.9430  -30.6960   20.9730 C   0  0  0  0  0  2  0  0  0  0  0  0
  -26.1560  -29.4210   20.1720 C   0  0  0  0  0  0  0  0  0  0  0  0
  -27.4260  -28.8030   20.0500 C   0  0  0  0  0  3  0  0  0  0  0  0
  -26.4470  -27.0520   18.6820 C   0  0  0  0  0  3  0  0  0  0  0  0
  -25.1840  -27.6680   18.8000 C   0  0  0  0  0  3  0  0  0  0  0  0
  -23.7110  -29.5500   19.7330 C   0  0  0  0  0  2  0  0  0  0  0  0
  -24.6850  -30.7160   21.7640 N   0  0  0  0  0  0  0  0  0  0  0  0
  -23.4970  -31.4550   23.5510 O   0  0  0  0  0  0  0  0  0  0  0  0
  -22.9790  -28.8480   22.0380 C   0  0  0  0  0  0  0  0  0  0  0  0
  -21.6920  -28.4960   21.8810 N   0  0  0  0  0  0  0  0  0  0  0  0
  -23.7460  -28.2480   22.7950 O   0  0  0  0  0  0  0  0  0  0  0  0
  -21.1250  -29.0400   21.2480 H   0  0  0  0  0  0  0  0  0  0  0  0
  -18.5380  -26.7570   22.1900 C   0  0  0  0  0  0  0  0  0  0  0  0
  -21.0220  -27.3790   22.5470 C   0  0  0  0  0  3  0  0  0  0  0  0
  -21.3510  -26.0380   21.8510 C   0  0  0  0  0  2  0  0  0  0  0  0
  -20.3230  -25.6420   20.7860 C   0  0  0  0  0  2  0  0  0  0  0  0
  -18.9300  -25.5140   21.4080 C   0  0  0  0  0  2  0  0  0  0  0  0
  -19.5200  -27.6400   22.7130 C   0  0  0  0  0  0  0  0  0  0  0  0
  -19.1020  -28.7980   23.4010 C   0  0  0  0  0  3  0  0  0  0  0  0
  -17.7330  -29.0780   23.5740 C   0  0  0  0  0  3  0  0  0  0  0  0
  -16.7660  -28.1930   23.0690 C   0  0  0  0  0  3  0  0  0  0  0  0
  -17.1680  -27.0340   22.3820 C   0  0  0  0  0  3  0  0  0  0  0  0
  -25.8100  -32.0740   23.6130 C   0  0  0  0  0  3  0  0  0  0  0  0
  -26.3850  -31.2860   24.8550 C   0  0  1  0  0  0  0  0  0  0  0  0
  -25.3130  -30.9180   25.9070 C   0  0  0  0  0  1  0  0  0  0  0  0
  -27.0680  -29.9750   24.4000 C   0  0  0  0  0  1  0  0  0  0  0  0
  -27.4720  -32.1320   25.5570 C   0  0  0  0  0  1  0  0  0  0  0  0
  -25.3920  -33.4270   24.0070 N   0  0  0  0  0  0  0  0  0  0  0  0
  -25.6760  -34.5410   23.3190 C   0  0  0  0  0  0  0  0  0  0  0  0
  -26.3880  -34.5410   22.3110 O   0  0  0  0  0  0  0  0  0  0  0  0
  -24.7620  -33.4950   24.7920 H   0  0  0  0  0  0  0  0  0  0  0  0
  -23.8400  -36.2270   22.9910 C   0  0  0  0  0  1  0  0  0  0  0  0
  -25.0770  -35.8650   23.8290 C   0  0  0  0  0  3  0  0  0  0  0  0
  -27.1070  -36.8500   24.7950 C   0  0  0  0  0  1  0  0  0  0  0  0
  -26.0350  -36.9910   23.8130 N   0  0  0  0  0  0  0  0  0  0  0  0
  -25.5590  -37.8720   23.9880 H   0  0  0  0  0  0  0  0  0  0  0  0
  -31.2350  -17.3390   19.3360 C   0  0  0  0  0  2  0  0  0  0  0  0
  -31.3590  -14.8720   19.6140 C   0  0  0  0  0  0  0  0  0  0  0  0
  -30.9330  -12.6080   18.7340 C   0  0  0  0  0  2  0  0  0  0  0  0
  -29.9200  -12.7170   17.5760 C   0  0  0  0  0  2  0  0  0  0  0  0
  -28.4800  -12.6410   18.1190 C   0  0  0  0  0  2  0  0  0  0  0  0
  -28.2420  -13.5950   19.3220 C   0  0  0  0  0  3  0  0  0  0  0  0
  -29.3740  -13.4930   20.3700 C   0  0  0  0  0  2  0  0  0  0  0  0
  -30.6460  -13.7110   19.6720 N   0  0  0  0  0  0  0  0  0  0  0  0
  -32.4930  -14.9000   19.1320 O   0  0  0  0  0  0  0  0  0  0  0  0
  -30.7050  -16.0410   19.8570 N   0  0  0  0  0  0  0  0  0  0  0  0
  -29.7720  -16.0180   20.2410 H   0  0  0  0  0  0  0  0  0  0  0  0
  -25.9840  -14.3180   20.3090 C   0  0  0  0  0  0  0  0  0  0  0  0
  -24.8980  -13.6010   20.7360 C   0  0  0  0  0  0  0  0  0  0  0  0
  -25.2480  -12.2250   20.5800 C   0  0  0  0  0  0  0  0  0  0  0  0
  -26.9280  -13.3810   19.9220 N   0  0  0  0  0  0  0  0  0  0  0  0
  -26.4950  -12.1130   20.1430 N   0  0  0  0  0  0  0  0  0  0  0  0
  -24.4460  -11.0090   20.7670 C   0  0  0  0  0  0  0  0  0  0  0  0
  -24.8560   -9.9800   21.6410 C   0  0  0  0  0  3  0  0  0  0  0  0
  -24.0580   -8.8300   21.8190 C   0  0  0  0  0  3  0  0  0  0  0  0
  -22.8330   -8.7010   21.1200 C   0  0  0  0  0  0  0  0  0  0  0  0
  -22.4400   -9.7190   20.2340 C   0  0  0  0  0  3  0  0  0  0  0  0
  -23.2390  -10.8610   20.0550 C   0  0  0  0  0  3  0  0  0  0  0  0
  -22.0050   -7.6090   21.2080 O   0  0  0  0  0  0  0  0  0  0  0  0
  -21.9220   -6.8590   22.3550 C   0  0  0  0  0  0  0  0  0  0  0  0
  -21.5280   -7.4230   23.5880 C   0  0  0  0  0  3  0  0  0  0  0  0
  -21.3900   -6.6030   24.7250 C   0  0  0  0  0  3  0  0  0  0  0  0
  -21.6350   -5.2200   24.6310 C   0  0  0  0  0  0  0  0  0  0  0  0
  -22.0240   -4.6560   23.4040 C   0  0  0  0  0  3  0  0  0  0  0  0
  -22.1630   -5.4730   22.2680 C   0  0  0  0  0  0  0  0  0  0  0  0
  -22.5160   -4.9200   21.0830 F   0  0  0  0  0  0  0  0  0  0  0  0
  -21.4960   -4.4300   25.7220 F   0  0  0  0  0  0  0  0  0  0  0  0
  -23.5770  -14.1610   21.1730 C   0  0  0  0  0  0  0  0  0  0  0  0
  -22.8870  -13.4710   22.0750 N   0  0  0  0  0  0  0  0  0  0  0  0
  -23.1700  -15.2440   20.7550 O   0  0  0  0  0  0  0  0  0  0  0  0
  -23.2300  -12.5920   22.4360 H   0  0  0  0  0  0  0  0  0  0  0  0
  -22.0040  -13.8260   22.4120 H   0  0  0  0  0  0  0  0  0  0  0  0
  -26.2370  -15.6800   20.1990 N   0  0  0  0  0  0  0  0  0  0  0  0
  -25.5400  -16.3770   20.4420 H   0  0  0  0  0  0  0  0  0  0  0  0
  -27.0890  -16.0860   19.8350 H   0  0  0  0  0  0  0  0  0  0  0  0
  1  5  2  0
  1  2  1  0
  2  6  2  0
  3  7  1  0
  4  3  2  0
  4 12  1  0
  5  4  1  0
  6  3  1  0
  6  9  1  0
  8  5  1  0
 10 12  2  0
 10 11  1  0
 13 10  1  0
 14 13  1  0
 14 15  1  0
 15 17  1  0
 16 27  2  0
 17 22  1  0
 18 26  1  0
 18 28  1  0
 19 25  1  0
 19 21  1  0
 20 26  1  0
 21 20  1  0
 22 21  2  0
 23 24  1  0
 23 17  2  0
 24 19  2  0
 25 18  1  0
 26 16  1  0
 28 30  2  0
 29 28  1  0
 31 29  1  0
 32 41  2  0
 32 37  1  0
 33 29  1  0
 33 37  1  0
 34 33  1  0
 35 36  1  0
 35 34  1  0
 36 32  1  0
 37 38  2  0
 38 39  1  0
 40 39  2  0
 41 40  1  0
 42 16  1  0
 42 47  1  0
 42 43  1  0
 43 46  1  1
 43 44  1  0
 45 43  1  0
 47 50  1  0
 48 52  1  0
 48 47  1  0
 49 48  2  0
 52 51  1  0
 54 52  1  0
 54 55  1  0
 54 53  1  0
 56  2  1  0
 56 65  1  0
 57 63  1  0
 57 65  1  0
 58 63  1  0
 59 60  1  0
 59 58  1  0
 61 60  1  0
 61 70  1  0
 61 62  1  0
 63 62  1  0
 64 57  2  0
 65 66  1  0
 67 68  2  0
 68 87  1  0
 69 68  1  0
 69 72  1  0
 70 71  1  0
 70 67  1  0
 71 69  2  0
 72 73  1  0
 73 74  2  0
 75 78  1  0
 75 74  1  0
 76 75  2  0
 77 76  1  0
 77 72  2  0
 78 79  1  0
 79 80  1  0
 80 81  2  0
 82 81  1  0
 82 86  1  0
 83 82  2  0
 84 79  2  0
 84 83  1  0
 85 84  1  0
 87 88  1  0
 88 91  1  0
 88 90  1  0
 89 87  2  0
 92 67  1  0
 92 93  1  0
 94 92  1  0
M  ISO  4  14 101  15 101  57 100  65 100
M  END
>  <TORSDO>  (6) 
F 20

>  <SCORE>  (6) 
-9.869

>  <name>  (6) 
5

>  <ligand_id>  (6) 
5

>  <original_smiles>  (6) 
[H]c1c([H])c([H])c2c(c1[H])C([H])([H])C([H])([H])C([H])([H])C2([H])N([H])C(=O)C1([H])N(C(=O)C([H])(N([H])C(=O)C([H])(N([H])C([H])([H])[H])C([H])([H])[H])C(C([H])([H])[H])(C([H])([H])[H])C([H])([H])[H])C([H])([H])c2c([H])c(OC([H])([H])C([H])([H])C(=Nc3c(Cl)c([H])c(C([H])([H])N([H])C(=O)N4C([H])([H])C([H])([H])C([H])([H])C([H])(n5nc(-c6c([H])c([H])c(Oc7c([H])c([H])c(F)c([H])c7F)c([H])c6[H])c(C(=O)N([H])[H])c5N([H])[H])C4([H])[H])c(Cl)c3C([H])([H])[H])C([H])([H])[H])c([H])c([H])c2C1([H])[H]

>  <smiles>  (6) 
[H]c1c([H])c([H])c2c(c1[H])C([H])([H])C([H])([H])C([H])([H])C2([H])N([H])C(=O)C1([H])N(C(=O)C([H])(N([H])C(=O)C([H])(N([H])C([H])([H])[H])C([H])([H])[H])C(C([H])([H])[H])(C([H])([H])[H])C([H])([H])[H])C([H])([H])c2c([H])c(OC([H])([H])C([H])([H])C(=Nc3c(Cl)c([H])c(C([H])([H])N([H])C(=O)N4C([H])([H])C([H])([H])C([H])([H])C([H])(n5nc(-c6c([H])c([H])c(Oc7c([H])c([H])c(F)c([H])c7F)c([H])c6[H])c(C(=O)N([H])[H])c5N([H])[H])C4([H])[H])c(Cl)c3C([H])([H])[H])C([H])([H])[H])c([H])c([H])c2C1([H])[H]

$$$$
6:0:0
     RDKit          3D

 92100  0  0  1  0  0  0  0  0999 V2000
  -29.1340  -19.3170   20.8840 C   0  0  0  0  0  3  0  0  0  0  0  0
  -29.6950  -20.0310   19.7990 C   0  0  0  0  0  0  0  0  0  0  0  0
  -30.5170  -19.2700   18.9070 C   0  0  0  0  0  0  0  0  0  0  0  0
  -30.0830  -17.1360   20.1420 C   0  0  0  0  0  0  0  0  0  0  0  0
  -29.3290  -17.9190   21.0530 C   0  0  0  0  0  0  0  0  0  0  0  0
  -30.6640  -17.8430   19.0410 C   0  0  0  0  0  0  0  0  0  0  0  0
  -31.2120  -19.9870   17.7520 C   0  0  0  0  0  1  0  0  0  0  0  0
  -28.7240  -17.2970   22.0950 F   0  0  0  0  0  0  0  0  0  0  0  0
  -31.4470  -16.9790   17.7580 Cl  0  0  0  0  0  0  0  0  0  0  0  0
  -30.8410  -14.6390   19.9810 C   0  0  0  0  0  0  0  0  0  0  0  0
  -30.5780  -12.4150   18.9170 C   0  0  0  0  0  2  0  0  0  0  0  0
  -29.5760  -12.5660   17.7500 C   0  0  0  0  0  2  0  0  0  0  0  0
  -28.1250  -12.4060   18.2480 C   0  0  0  0  0  2  0  0  0  0  0  0
  -27.8280  -13.2540   19.5130 C   0  0  0  0  0  3  0  0  0  0  0  0
  -28.9390  -13.0800   20.5740 C   0  0  0  0  0  2  0  0  0  0  0  0
  -30.2210  -13.4190   19.9380 N   0  0  0  0  0  0  0  0  0  0  0  0
  -32.0000  -14.7800   19.5850 O   0  0  0  0  0  0  0  0  0  0  0  0
  -30.0510  -15.6870   20.3610 N   0  0  0  0  0  0  0  0  0  0  0  0
  -29.2250  -15.3900   20.8570 H   0  0  0  0  0  0  0  0  0  0  0  0
  -25.4690  -13.8480   20.3440 C   0  0  0  0  0  0  0  0  0  0  0  0
  -24.4210  -13.0720   20.7590 C   0  0  0  0  0  0  0  0  0  0  0  0
  -24.8820  -11.7210   20.6980 C   0  0  0  0  0  0  0  0  0  0  0  0
  -26.5020  -12.9690   20.0570 N   0  0  0  0  0  0  0  0  0  0  0  0
  -26.1560  -11.6850   20.3290 N   0  0  0  0  0  0  0  0  0  0  0  0
  -24.1650  -10.4570   20.9140 C   0  0  0  0  0  0  0  0  0  0  0  0
  -24.5740   -9.5360   21.9040 C   0  0  0  0  0  3  0  0  0  0  0  0
  -23.8580   -8.3370   22.1060 C   0  0  0  0  0  3  0  0  0  0  0  0
  -22.7200   -8.0490   21.3160 C   0  0  0  0  0  0  0  0  0  0  0  0
  -22.3310   -8.9590   20.3170 C   0  0  0  0  0  3  0  0  0  0  0  0
  -23.0470  -10.1500   20.1150 C   0  0  0  0  0  3  0  0  0  0  0  0
  -21.9790   -6.8970   21.4230 O   0  0  0  0  0  0  0  0  0  0  0  0
  -21.8000   -6.2640   22.6270 C   0  0  0  0  0  0  0  0  0  0  0  0
  -21.1850   -6.9090   23.7230 C   0  0  0  0  0  3  0  0  0  0  0  0
  -20.9600   -6.2000   24.9200 C   0  0  0  0  0  3  0  0  0  0  0  0
  -21.3370   -4.8470   25.0210 C   0  0  0  0  0  0  0  0  0  0  0  0
  -21.9450   -4.2030   23.9280 C   0  0  0  0  0  3  0  0  0  0  0  0
  -22.1730   -4.9090   22.7340 C   0  0  0  0  0  0  0  0  0  0  0  0
  -22.7390   -4.2780   21.6780 F   0  0  0  0  0  0  0  0  0  0  0  0
  -21.1140   -4.1640   26.1670 F   0  0  0  0  0  0  0  0  0  0  0  0
  -23.0370  -13.5470   21.0980 C   0  0  0  0  0  0  0  0  0  0  0  0
  -22.3490  -12.8440   21.9910 N   0  0  0  0  0  0  0  0  0  0  0  0
  -22.5760  -14.5760   20.6060 O   0  0  0  0  0  0  0  0  0  0  0  0
  -22.7360  -12.0130   22.4130 H   0  0  0  0  0  0  0  0  0  0  0  0
  -21.4230  -13.1440   22.2600 H   0  0  0  0  0  0  0  0  0  0  0  0
  -25.6240  -15.2190   20.1670 N   0  0  0  0  0  0  0  0  0  0  0  0
  -24.8620  -15.8690   20.3220 H   0  0  0  0  0  0  0  0  0  0  0  0
  -26.4530  -15.6650   19.7980 H   0  0  0  0  0  0  0  0  0  0  0  0
  -29.2800  -21.5280   19.5190 C   0  0  0  0  0  2  0  0  0  0  0  0
  -29.5780  -22.6460   20.5870 C   0  0  0  0  0  2  0  0  0  0  0  0
  -29.6290  -24.1800   20.1500 C   0  0  0  0  0  3  0  0  0  0  0  0
  -28.3140  -25.0360   19.9950 C   0  0  0  0  0  3  0  0  0  0  0  0
  -28.4810  -26.5030   19.9780 O   0  0  0  0  0  0  0  0  0  0  0  0
  -24.6100  -31.7220   23.0880 C   0  0  0  0  0  0  0  0  0  0  0  0
  -27.3270  -27.2970   19.9550 C   0  0  0  0  0  0  0  0  0  0  0  0
  -23.4360  -30.3270   21.4230 C   0  0  0  0  0  3  0  0  0  0  0  0
  -24.9200  -28.8370   19.9730 C   0  0  0  0  0  0  0  0  0  0  0  0
  -25.9660  -30.7120   21.2430 C   0  0  0  0  0  2  0  0  0  0  0  0
  -26.0780  -29.3490   20.5740 C   0  0  0  0  0  0  0  0  0  0  0  0
  -27.2840  -28.5920   20.5510 C   0  0  0  0  0  3  0  0  0  0  0  0
  -26.1430  -26.8300   19.3380 C   0  0  0  0  0  3  0  0  0  0  0  0
  -24.9540  -27.5820   19.3470 C   0  0  0  0  0  3  0  0  0  0  0  0
  -23.6650  -29.6810   20.0310 C   0  0  0  0  0  2  0  0  0  0  0  0
  -24.6900  -30.9360   21.9760 N   0  0  0  0  0  0  0  0  0  0  0  0
  -23.5210  -31.9670   23.6270 O   0  0  0  0  0  0  0  0  0  0  0  0
  -22.7980  -29.2780   22.3630 C   0  0  0  0  0  0  0  0  0  0  0  0
  -21.4770  -29.0730   22.2300 N   0  0  0  0  0  0  0  0  0  0  0  0
  -23.4890  -28.6530   23.1730 O   0  0  0  0  0  0  0  0  0  0  0  0
  -20.9770  -29.6320   21.5510 H   0  0  0  0  0  0  0  0  0  0  0  0
  -18.1200  -27.8190   22.7210 C   0  0  0  0  0  0  0  0  0  0  0  0
  -20.6750  -28.1070   22.9840 C   0  0  0  0  0  3  0  0  0  0  0  0
  -20.7950  -26.6900   22.3740 C   0  0  0  0  0  2  0  0  0  0  0  0
  -19.6910  -26.3760   21.3590 C   0  0  0  0  0  2  0  0  0  0  0  0
  -18.3110  -26.4870   22.0140 C   0  0  0  0  0  2  0  0  0  0  0  0
  -19.2300  -28.5860   23.1620 C   0  0  0  0  0  0  0  0  0  0  0  0
  -18.9970  -29.8320   23.7840 C   0  0  0  0  0  3  0  0  0  0  0  0
  -17.6860  -30.3110   23.9680 C   0  0  0  0  0  3  0  0  0  0  0  0
  -16.5900  -29.5400   23.5420 C   0  0  0  0  0  3  0  0  0  0  0  0
  -16.8080  -28.2960   22.9240 C   0  0  0  0  0  3  0  0  0  0  0  0
  -25.8790  -32.3700   23.7230 C   0  0  0  0  0  3  0  0  0  0  0  0
  -26.4180  -31.5800   24.9780 C   0  0  1  0  0  0  0  0  0  0  0  0
  -25.3330  -31.2830   26.0390 C   0  0  0  0  0  1  0  0  0  0  0  0
  -27.0410  -30.2310   24.5500 C   0  0  0  0  0  1  0  0  0  0  0  0
  -27.5470  -32.3890   25.6610 C   0  0  0  0  0  1  0  0  0  0  0  0
  -25.5370  -33.7510   24.0880 N   0  0  0  0  0  0  0  0  0  0  0  0
  -25.8500  -34.8310   23.3600 C   0  0  0  0  0  0  0  0  0  0  0  0
  -26.5280  -34.7700   22.3310 O   0  0  0  0  0  0  0  0  0  0  0  0
  -24.9340  -33.8710   24.8900 H   0  0  0  0  0  0  0  0  0  0  0  0
  -24.0920  -36.6020   23.0330 C   0  0  0  0  0  1  0  0  0  0  0  0
  -25.3290  -36.1960   23.8520 C   0  0  0  0  0  3  0  0  0  0  0  0
  -27.4290  -37.0990   24.7490 C   0  0  0  0  0  1  0  0  0  0  0  0
  -26.3430  -37.2700   23.7870 N   0  0  0  0  0  0  0  0  0  0  0  0
  -25.9170  -38.1790   23.9500 H   0  0  0  0  0  0  0  0  0  0  0  0
  1  5  1  0
  2  1  2  0
  3  6  2  0
  3  2  1  0
  4 18  1  0
  4  5  2  0
  5  8  1  0
  6  4  1  0
  7  3  1  0
  9  6  1  0
 10 18  1  0
 11 16  1  0
 12 13  1  0
 12 11  1  0
 14 13  1  0
 14 23  1  0
 14 15  1  0
 16 10  1  0
 16 15  1  0
 17 10  2  0
 18 19  1  0
 20 21  2  0
 21 40  1  0
 22 21  1  0
 22 25  1  0
 23 24  1  0
 23 20  1  0
 24 22  2  0
 25 26  1  0
 26 27  2  0
 28 31  1  0
 28 27  1  0
 29 28  2  0
 30 29  1  0
 30 25  2  0
 31 32  1  0
 32 37  2  0
 32 33  1  0
 33 34  2  0
 34 35  1  0
 35 39  1  0
 36 35  2  0
 37 36  1  0
 38 37  1  0
 40 41  1  0
 41 44  1  0
 41 43  1  0
 42 40  2  0
 45 46  1  0
 45 20  1  0
 47 45  1  0
 48  2  1  0
 48 49  1  0
 50 49  1  0
 51 50  2  0
 52 51  1  0
 53 64  2  0
 54 52  1  0
 54 59  1  0
 55 63  1  0
 55 65  1  0
 56 62  1  0
 56 58  1  0
 57 63  1  0
 58 57  1  0
 59 58  2  0
 60 61  1  0
 60 54  2  0
 61 56  2  0
 62 55  1  0
 63 53  1  0
 65 67  2  0
 66 65  1  0
 68 66  1  0
 69 78  2  0
 69 74  1  0
 70 66  1  0
 70 74  1  0
 71 70  1  0
 72 73  1  0
 72 71  1  0
 73 69  1  0
 74 75  2  0
 75 76  1  0
 77 76  2  0
 78 77  1  0
 79 53  1  0
 79 84  1  0
 79 80  1  0
 80 83  1  1
 80 81  1  0
 82 80  1  0
 84 87  1  0
 85 89  1  0
 85 84  1  0
 86 85  2  0
 89 88  1  0
 91 89  1  0
 91 92  1  0
 91 90  1  0
M  ISO  4  10 100  18 100  51 101  52 101
M  END
>  <TORSDO>  (7) 
F 20

>  <SCORE>  (7) 
-12.393

>  <name>  (7) 
6

>  <ligand_id>  (7) 
6

>  <original_smiles>  (7) 
[H]c1c([H])c([H])c2c(c1[H])C([H])([H])C([H])([H])C([H])([H])C2([H])N([H])C(=O)C1([H])N(C(=O)C([H])(N([H])C(=O)C([H])(N([H])C([H])([H])[H])C([H])([H])[H])C(C([H])([H])[H])(C([H])([H])[H])C([H])([H])[H])C([H])([H])c2c([H])c(OC([H])([H])C([H])([H])C([H])([H])C([H])([H])c3c([H])c(F)c(N([H])C(=O)N4C([H])([H])C([H])([H])C([H])([H])C([H])(n5nc(-c6c([H])c([H])c(Oc7c([H])c([H])c(F)c([H])c7F)c([H])c6[H])c(C(=O)N([H])[H])c5N([H])[H])C4([H])[H])c(Cl)c3C([H])([H])[H])c([H])c([H])c2C1([H])[H]

>  <smiles>  (7) 
[H]c1c([H])c([H])c2c(c1[H])C([H])([H])C([H])([H])C([H])([H])C2([H])N([H])C(=O)C1([H])N(C(=O)C([H])(N([H])C(=O)C([H])(N([H])C([H])([H])[H])C([H])([H])[H])C(C([H])([H])[H])(C([H])([H])[H])C([H])([H])[H])C([H])([H])c2c([H])c(OC([H])([H])C([H])([H])C([H])([H])C([H])([H])c3c([H])c(F)c(N([H])C(=O)N4C([H])([H])C([H])([H])C([H])([H])C([H])(n5nc(-c6c([H])c([H])c(Oc7c([H])c([H])c(F)c([H])c7F)c([H])c6[H])c(C(=O)N([H])[H])c5N([H])[H])C4([H])[H])c(Cl)c3C([H])([H])[H])c([H])c([H])c2C1([H])[H]

$$$$
7:0:0
     RDKit          3D

 90 98  0  0  1  0  0  0  0  0999 V2000
  -28.1290  -20.2740   20.1290 C   0  0  0  0  0  3  0  0  0  0  0  0
  -30.5390  -19.0250   20.6440 C   0  0  0  0  0  3  0  0  0  0  0  0
  -29.1540  -21.2700   20.3890 C   0  0  0  0  0  0  0  0  0  0  0  0
  -29.5140  -18.0330   20.4050 C   0  0  0  0  0  0  0  0  0  0  0  0
  -28.2890  -18.7840   20.1290 C   0  0  0  0  0  0  0  0  0  0  0  0
  -30.3730  -20.4980   20.6390 C   0  0  0  0  0  0  0  0  0  0  0  0
  -31.8030  -21.4030   20.9860 Cl  0  0  0  0  0  0  0  0  0  0  0  0
  -30.4230  -15.2510   20.3990 C   0  0  0  0  0  0  0  0  0  0  0  0
  -30.4500  -12.8200   19.5210 C   0  0  0  0  0  2  0  0  0  0  0  0
  -29.5400  -12.6520   18.2780 C   0  0  0  0  0  2  0  0  0  0  0  0
  -28.0830  -12.3810   18.6980 C   0  0  0  0  0  2  0  0  0  0  0  0
  -27.6180  -13.3290   19.8320 C   0  0  0  0  0  3  0  0  0  0  0  0
  -28.6540  -13.4420   20.9700 C   0  0  0  0  0  2  0  0  0  0  0  0
  -29.8970  -13.9360   20.3600 N   0  0  0  0  0  0  0  0  0  0  0  0
  -31.6420  -15.3160   20.1840 O   0  0  0  0  0  0  0  0  0  0  0  0
  -29.5530  -16.4290   20.4590 N   0  0  0  0  0  0  0  0  0  0  0  0
  -28.6060  -16.0870   20.5160 H   0  0  0  0  0  0  0  0  0  0  0  0
  -25.2330  -13.8760   20.5620 C   0  0  0  0  0  0  0  0  0  0  0  0
  -24.1710  -13.0930   20.9150 C   0  0  0  0  0  0  0  0  0  0  0  0
  -24.6450  -11.7460   20.8830 C   0  0  0  0  0  0  0  0  0  0  0  0
  -26.2840  -13.0070   20.3220 N   0  0  0  0  0  0  0  0  0  0  0  0
  -25.9390  -11.7200   20.5830 N   0  0  0  0  0  0  0  0  0  0  0  0
  -23.9230  -10.4800   21.0590 C   0  0  0  0  0  0  0  0  0  0  0  0
  -24.3360   -9.5170   22.0060 C   0  0  0  0  0  3  0  0  0  0  0  0
  -23.6090   -8.3170   22.1700 C   0  0  0  0  0  3  0  0  0  0  0  0
  -22.4560   -8.0720   21.3880 C   0  0  0  0  0  0  0  0  0  0  0  0
  -22.0620   -9.0240   20.4300 C   0  0  0  0  0  3  0  0  0  0  0  0
  -22.7900  -10.2150   20.2630 C   0  0  0  0  0  3  0  0  0  0  0  0
  -21.7050   -6.9240   21.4590 O   0  0  0  0  0  0  0  0  0  0  0  0
  -21.6120   -6.1960   22.6190 C   0  0  0  0  0  0  0  0  0  0  0  0
  -21.1050   -6.7580   23.8120 C   0  0  0  0  0  3  0  0  0  0  0  0
  -20.9610   -5.9550   24.9610 C   0  0  0  0  0  3  0  0  0  0  0  0
  -21.3140   -4.5930   24.9190 C   0  0  0  0  0  0  0  0  0  0  0  0
  -21.8140   -4.0320   23.7310 C   0  0  0  0  0  3  0  0  0  0  0  0
  -21.9600   -4.8310   22.5840 C   0  0  0  0  0  0  0  0  0  0  0  0
  -22.4230   -4.2800   21.4360 F   0  0  0  0  0  0  0  0  0  0  0  0
  -21.1680   -3.8200   26.0210 F   0  0  0  0  0  0  0  0  0  0  0  0
  -22.7680  -13.5630   21.1670 C   0  0  0  0  0  0  0  0  0  0  0  0
  -22.0330  -12.8680   22.0280 N   0  0  0  0  0  0  0  0  0  0  0  0
  -22.3320  -14.5850   20.6370 O   0  0  0  0  0  0  0  0  0  0  0  0
  -22.3980  -12.0450   22.4830 H   0  0  0  0  0  0  0  0  0  0  0  0
  -21.0920  -13.1700   22.2380 H   0  0  0  0  0  0  0  0  0  0  0  0
  -25.3850  -15.2490   20.3990 N   0  0  0  0  0  0  0  0  0  0  0  0
  -24.6000  -15.8810   20.5130 H   0  0  0  0  0  0  0  0  0  0  0  0
  -26.2220  -15.7190   20.0840 H   0  0  0  0  0  0  0  0  0  0  0  0
  -26.0610  -18.5200   19.2460 C   0  0  0  0  0  1  0  0  0  0  0  0
  -27.2220  -17.9550   19.8490 O   0  0  0  0  0  0  0  0  0  0  0  0
  -29.1180  -23.0110   20.4600 C   0  0  0  0  0  3  0  0  0  0  0  0
  -27.9960  -24.3590   20.2080 C   0  0  0  0  0  3  0  0  0  0  0  0
  -28.2180  -25.9700   20.3430 O   0  0  0  0  0  0  0  0  0  0  0  0
  -24.6380  -31.8890   23.2620 C   0  0  0  0  0  0  0  0  0  0  0  0
  -27.1900  -27.0330   20.2740 C   0  0  0  0  0  0  0  0  0  0  0  0
  -23.4430  -30.4920   21.6260 C   0  0  0  0  0  3  0  0  0  0  0  0
  -24.8890  -28.8840   20.2140 C   0  0  0  0  0  0  0  0  0  0  0  0
  -26.0070  -30.7100   21.4790 C   0  0  0  0  0  2  0  0  0  0  0  0
  -26.0750  -29.3010   20.8310 C   0  0  0  0  0  0  0  0  0  0  0  0
  -27.2220  -28.3970   20.8340 C   0  0  0  0  0  3  0  0  0  0  0  0
  -25.9730  -26.7500   19.6170 C   0  0  0  0  0  3  0  0  0  0  0  0
  -24.8600  -27.6280   19.5870 C   0  0  0  0  0  3  0  0  0  0  0  0
  -23.6720  -29.8050   20.2510 C   0  0  0  0  0  2  0  0  0  0  0  0
  -24.7170  -31.0570   22.1770 N   0  0  0  0  0  0  0  0  0  0  0  0
  -23.5490  -32.1820   23.7830 O   0  0  0  0  0  0  0  0  0  0  0  0
  -22.7470  -29.4990   22.5930 C   0  0  0  0  0  0  0  0  0  0  0  0
  -21.4170  -29.3330   22.4620 N   0  0  0  0  0  0  0  0  0  0  0  0
  -23.4090  -28.8780   23.4290 O   0  0  0  0  0  0  0  0  0  0  0  0
  -20.9380  -29.8820   21.7630 H   0  0  0  0  0  0  0  0  0  0  0  0
  -18.0320  -28.1300   22.9570 C   0  0  0  0  0  0  0  0  0  0  0  0
  -20.5900  -28.4010   23.2350 C   0  0  0  0  0  3  0  0  0  0  0  0
  -20.6970  -26.9650   22.6710 C   0  0  0  0  0  2  0  0  0  0  0  0
  -19.6010  -26.6330   21.6530 C   0  0  0  0  0  2  0  0  0  0  0  0
  -18.2150  -26.7780   22.2880 C   0  0  0  0  0  2  0  0  0  0  0  0
  -19.1460  -28.8980   23.3870 C   0  0  0  0  0  0  0  0  0  0  0  0
  -18.9190  -30.1610   23.9760 C   0  0  0  0  0  3  0  0  0  0  0  0
  -17.6110  -30.6560   24.1380 C   0  0  0  0  0  3  0  0  0  0  0  0
  -16.5110  -29.8850   23.7210 C   0  0  0  0  0  3  0  0  0  0  0  0
  -16.7230  -28.6240   23.1370 C   0  0  0  0  0  3  0  0  0  0  0  0
  -25.9110  -32.5290   23.8940 C   0  0  0  0  0  3  0  0  0  0  0  0
  -26.4020  -31.7760   25.1920 C   0  0  1  0  0  0  0  0  0  0  0  0
  -25.2930  -31.5650   26.2500 C   0  0  0  0  0  1  0  0  0  0  0  0
  -26.9780  -30.3860   24.8370 C   0  0  0  0  0  1  0  0  0  0  0  0
  -27.5500  -32.5720   25.8570 C   0  0  0  0  0  1  0  0  0  0  0  0
  -25.6010  -33.9350   24.2130 N   0  0  0  0  0  0  0  0  0  0  0  0
  -25.9250  -34.9840   23.4450 C   0  0  0  0  0  0  0  0  0  0  0  0
  -26.5800  -34.8720   22.4060 O   0  0  0  0  0  0  0  0  0  0  0  0
  -25.0170  -34.0950   25.0190 H   0  0  0  0  0  0  0  0  0  0  0  0
  -24.1930  -36.7840   23.1150 C   0  0  0  0  0  1  0  0  0  0  0  0
  -25.4510  -36.3800   23.9020 C   0  0  0  0  0  3  0  0  0  0  0  0
  -27.6020  -37.2790   24.6790 C   0  0  0  0  0  1  0  0  0  0  0  0
  -26.4820  -37.4310   23.7530 N   0  0  0  0  0  0  0  0  0  0  0  0
  -26.0790  -38.3540   23.8920 H   0  0  0  0  0  0  0  0  0  0  0  0
  1  5  2  0
  1  3  1  0
  3 48  1  0
  3  6  2  0
  4 16  1  0
  4  2  2  0
  5  4  1  0
  6  2  1  0
  6  7  1  0
  8 16  1  0
  9 14  1  0
 10 11  1  0
 10  9  1  0
 12 11  1  0
 12 21  1  0
 12 13  1  0
 14  8  1  0
 14 13  1  0
 15  8  2  0
 16 17  1  0
 18 19  2  0
 19 38  1  0
 20 19  1  0
 20 23  1  0
 21 18  1  0
 21 22  1  0
 22 20  2  0
 23 24  1  0
 24 25  2  0
 26 29  1  0
 26 25  1  0
 27 26  2  0
 28 27  1  0
 28 23  2  0
 29 30  1  0
 30 31  1  0
 31 32  2  0
 33 32  1  0
 33 37  1  0
 34 33  2  0
 35 30  2  0
 35 34  1  0
 36 35  1  0
 38 39  1  0
 39 42  1  0
 39 41  1  0
 40 38  2  0
 43 44  1  0
 43 18  1  0
 45 43  1  0
 46 47  1  0
 47  5  1  0
 49 50  1  0
 49 48  2  0
 51 62  2  0
 52 50  1  0
 52 57  1  0
 53 61  1  0
 53 63  1  0
 54 60  1  0
 54 56  1  0
 55 61  1  0
 56 57  2  0
 56 55  1  0
 58 52  2  0
 59 58  1  0
 59 54  2  0
 60 53  1  0
 61 51  1  0
 63 65  2  0
 64 63  1  0
 66 64  1  0
 67 76  2  0
 67 72  1  0
 68 64  1  0
 68 72  1  0
 69 68  1  0
 70 71  1  0
 70 69  1  0
 71 67  1  0
 72 73  2  0
 73 74  1  0
 75 74  2  0
 76 75  1  0
 77 51  1  0
 77 82  1  0
 77 78  1  0
 78 81  1  1
 78 79  1  0
 80 78  1  0
 82 85  1  0
 83 87  1  0
 83 82  1  0
 84 83  2  0
 87 86  1  0
 89 90  1  0
 89 87  1  0
 89 88  1  0
M  ISO  4   8 100  16 100  49 101  50 101
M  END
>  <TORSDO>  (8) 
F 19

>  <SCORE>  (8) 
-15.013

>  <name>  (8) 
7

>  <ligand_id>  (8) 
7

>  <original_smiles>  (8) 
[H]c1c([H])c([H])c2c(c1[H])C([H])([H])C([H])([H])C([H])([H])C2([H])N([H])C(=O)C1([H])N(C(=O)C([H])(N([H])C(=O)C([H])(N([H])C([H])([H])[H])C([H])([H])[H])C(C([H])([H])[H])(C([H])([H])[H])C([H])([H])[H])C([H])([H])c2c([H])c(OC([H])([H])C([H])([H])c3c([H])c(OC([H])([H])[H])c(N([H])C(=O)N4C([H])([H])C([H])([H])C([H])([H])C([H])(n5nc(-c6c([H])c([H])c(Oc7c([H])c([H])c(F)c([H])c7F)c([H])c6[H])c(C(=O)N([H])[H])c5N([H])[H])C4([H])[H])c([H])c3Cl)c([H])c([H])c2C1([H])[H]

>  <smiles>  (8) 
[H]c1c([H])c([H])c2c(c1[H])C([H])([H])C([H])([H])C([H])([H])C2([H])N([H])C(=O)C1([H])N(C(=O)C([H])(N([H])C(=O)C([H])(N([H])C([H])([H])[H])C([H])([H])[H])C(C([H])([H])[H])(C([H])([H])[H])C([H])([H])[H])C([H])([H])c2c([H])c(OC([H])([H])C([H])([H])c3c([H])c(OC([H])([H])[H])c(N([H])C(=O)N4C([H])([H])C([H])([H])C([H])([H])C([H])(n5nc(-c6c([H])c([H])c(Oc7c([H])c([H])c(F)c([H])c7F)c([H])c6[H])c(C(=O)N([H])[H])c5N([H])[H])C4([H])[H])c([H])c3Cl)c([H])c([H])c2C1([H])[H]

$$$$
8:0:0
     RDKit          3D

 98106  0  0  1  0  0  0  0  0999 V2000
  -28.2970  -19.1730   20.5280 C   0  0  0  0  0  2  0  0  0  0  0  0
  -29.4270  -17.7840   18.5140 C   0  0  0  0  0  2  0  0  0  0  0  0
  -29.4660  -18.6310   21.3850 C   0  0  0  0  0  2  0  0  0  0  0  0
  -28.1730  -18.5790   19.0750 C   0  0  0  0  0  3  0  0  0  0  0  0
  -30.3580  -17.2080   19.5960 C   0  0  0  0  0  3  0  0  0  0  0  0
  -30.5870  -18.5060   20.4360 N   0  0  2  0  0  4  0  0  0  0  0  0
  -29.9980  -18.9570   19.7480 H   0  0  0  0  0  0  0  0  0  0  0  0
  -31.6610  -14.8420   19.8080 C   0  0  0  0  0  0  0  0  0  0  0  0
  -31.2560  -12.4920   19.0770 C   0  0  0  0  0  2  0  0  0  0  0  0
  -30.3160  -12.3500   17.8690 C   0  0  0  0  0  2  0  0  0  0  0  0
  -28.8580  -12.2480   18.3420 C   0  0  0  0  0  2  0  0  0  0  0  0
  -28.4950  -13.3300   19.3860 C   0  0  0  0  0  3  0  0  0  0  0  0
  -29.5730  -13.5000   20.4800 C   0  0  0  0  0  2  0  0  0  0  0  0
  -30.8440  -13.7280   19.7800 N   0  0  0  0  0  0  0  0  0  0  0  0
  -32.8610  -14.6040   19.9000 O   0  0  0  0  0  0  0  0  0  0  0  0
  -31.2990  -16.0490   19.1470 N   0  0  0  0  0  0  0  0  0  0  0  0
  -26.1830  -14.0990   20.1700 C   0  0  0  0  0  0  0  0  0  0  0  0
  -25.0720  -13.4350   20.5820 C   0  0  0  0  0  0  0  0  0  0  0  0
  -25.4330  -12.0570   20.5650 C   0  0  0  0  0  0  0  0  0  0  0  0
  -27.1580  -13.1490   19.9320 N   0  0  0  0  0  0  0  0  0  0  0  0
  -26.7130  -11.9080   20.2410 N   0  0  0  0  0  0  0  0  0  0  0  0
  -24.6100  -10.8680   20.7730 C   0  0  0  0  0  0  0  0  0  0  0  0
  -24.9880   -9.8700   21.6970 C   0  0  0  0  0  3  0  0  0  0  0  0
  -24.1690   -8.7410   21.8940 C   0  0  0  0  0  3  0  0  0  0  0  0
  -22.9600   -8.6080   21.1700 C   0  0  0  0  0  0  0  0  0  0  0  0
  -22.6050   -9.5930   20.2310 C   0  0  0  0  0  3  0  0  0  0  0  0
  -23.4240  -10.7150   20.0310 C   0  0  0  0  0  3  0  0  0  0  0  0
  -22.1150   -7.5310   21.2810 O   0  0  0  0  0  0  0  0  0  0  0  0
  -21.9240   -6.8890   22.4770 C   0  0  0  0  0  0  0  0  0  0  0  0
  -21.4070   -7.5570   23.6080 C   0  0  0  0  0  3  0  0  0  0  0  0
  -21.1680   -6.8440   24.8000 C   0  0  0  0  0  3  0  0  0  0  0  0
  -21.4280   -5.4610   24.8570 C   0  0  0  0  0  0  0  0  0  0  0  0
  -21.9340   -4.7920   23.7290 C   0  0  0  0  0  3  0  0  0  0  0  0
  -22.1810   -5.5040   22.5410 C   0  0  0  0  0  0  0  0  0  0  0  0
  -22.6500   -4.8510   21.4510 F   0  0  0  0  0  0  0  0  0  0  0  0
  -21.1880   -4.7720   25.9960 F   0  0  0  0  0  0  0  0  0  0  0  0
  -23.7260  -14.0410   20.8530 C   0  0  0  0  0  0  0  0  0  0  0  0
  -22.9820  -13.4720   21.7910 N   0  0  0  0  0  0  0  0  0  0  0  0
  -23.3520  -15.0580   20.2670 O   0  0  0  0  0  0  0  0  0  0  0  0
  -23.3000  -12.6520   22.2870 H   0  0  0  0  0  0  0  0  0  0  0  0
  -22.0780  -13.8640   22.0150 H   0  0  0  0  0  0  0  0  0  0  0  0
  -26.4170  -15.4280   19.9360 N   0  0  0  0  0  0  0  0  0  0  0  0
  -25.6680  -16.1060   20.0040 H   0  0  0  0  0  0  0  0  0  0  0  0
  -27.2150  -15.7740   19.4280 H   0  0  0  0  0  0  0  0  0  0  0  0
  -33.6080  -16.7430   18.0880 C   0  0  0  0  0  1  0  0  0  0  0  0
  -31.8080  -15.5430   16.7510 C   0  0  0  0  0  1  0  0  0  0  0  0
  -32.0900  -16.4620   17.9490 C   0  0  0  0  0  3  0  0  0  0  0  0
  -31.9080  -20.0530   18.7860 C   0  0  0  0  0  1  0  0  0  0  0  0
  -32.7690  -19.5620   21.1400 C   0  0  0  0  0  1  0  0  0  0  0  0
  -31.5130  -19.7670   20.2710 C   0  0  2  0  0  0  0  0  0  0  0  0
  -30.8550  -21.2150   20.6870 C   0  0  0  0  0  2  0  0  0  0  0  0
  -31.7290  -22.5570   20.6840 C   0  0  0  0  0  2  0  0  0  0  0  0
  -31.1440  -24.0010   20.2920 C   0  0  0  0  0  2  0  0  0  0  0  0
  -30.3190  -24.9090   21.3050 C   0  0  0  0  0  2  0  0  0  0  0  0
  -30.2870  -26.3720   21.0830 O   0  0  0  0  0  0  0  0  0  0  0  0
  -25.4230  -31.1900   23.3770 C   0  0  0  0  0  0  0  0  0  0  0  0
  -29.0650  -27.0240   20.8920 C   0  0  0  0  0  0  0  0  0  0  0  0
  -24.6990  -29.6720   21.5670 C   0  0  0  0  0  3  0  0  0  0  0  0
  -26.5520  -28.3110   20.4450 C   0  0  0  0  0  0  0  0  0  0  0  0
  -27.1700  -30.3010   21.8230 C   0  0  0  0  0  2  0  0  0  0  0  0
  -27.5280  -28.9460   21.2220 C   0  0  0  0  0  0  0  0  0  0  0  0
  -28.7890  -28.3180   21.4300 C   0  0  0  0  0  3  0  0  0  0  0  0
  -28.0600  -26.4210   20.1070 C   0  0  0  0  0  3  0  0  0  0  0  0
  -26.8200  -27.0510   19.8790 C   0  0  0  0  0  3  0  0  0  0  0  0
  -25.2310  -29.0310   20.2560 C   0  0  0  0  0  2  0  0  0  0  0  0
  -25.7710  -30.4060   22.3150 N   0  0  0  0  0  0  0  0  0  0  0  0
  -24.2380  -31.3320   23.7110 O   0  0  0  0  0  0  0  0  0  0  0  0
  -24.0010  -28.5790   22.4090 C   0  0  0  0  0  0  0  0  0  0  0  0
  -22.7160  -28.3180   22.1150 N   0  0  0  0  0  0  0  0  0  0  0  0
  -24.6230  -27.9660   23.2820 O   0  0  0  0  0  0  0  0  0  0  0  0
  -22.2740  -28.8640   21.3890 H   0  0  0  0  0  0  0  0  0  0  0  0
  -19.3610  -26.9810   22.2650 C   0  0  0  0  0  0  0  0  0  0  0  0
  -21.8800  -27.2970   22.7490 C   0  0  0  0  0  3  0  0  0  0  0  0
  -22.0800  -25.9180   22.0810 C   0  0  0  0  0  2  0  0  0  0  0  0
  -21.0690  -25.6390   20.9660 C   0  0  0  0  0  2  0  0  0  0  0  0
  -19.6380  -25.6920   21.5090 C   0  0  0  0  0  2  0  0  0  0  0  0
  -20.4160  -27.7410   22.8350 C   0  0  0  0  0  0  0  0  0  0  0  0
  -20.1070  -28.9480   23.4980 C   0  0  0  0  0  3  0  0  0  0  0  0
  -18.7760  -29.3960   23.6000 C   0  0  0  0  0  3  0  0  0  0  0  0
  -17.7350  -28.6300   23.0480 C   0  0  0  0  0  3  0  0  0  0  0  0
  -18.0280  -27.4250   22.3870 C   0  0  0  0  0  3  0  0  0  0  0  0
  -26.4950  -31.9630   24.2060 C   0  0  0  0  0  3  0  0  0  0  0  0
  -26.0290  -33.3490   24.3550 N   0  0  0  0  0  0  0  0  0  0  0  0
  -26.4360  -34.3740   23.5970 C   0  0  0  0  0  0  0  0  0  0  0  0
  -27.3110  -34.2630   22.7320 O   0  0  0  0  0  0  0  0  0  0  0  0
  -25.2790  -33.5060   25.0120 H   0  0  0  0  0  0  0  0  0  0  0  0
  -24.7050  -35.9900   22.7580 C   0  0  0  0  0  1  0  0  0  0  0  0
  -25.7710  -35.7430   23.8360 C   0  0  0  0  0  3  0  0  0  0  0  0
  -27.6060  -36.8590   25.0240 C   0  0  0  0  0  1  0  0  0  0  0  0
  -26.7300  -36.8690   23.8560 N   0  0  0  0  0  0  0  0  0  0  0  0
  -26.2400  -37.7600   23.8350 H   0  0  0  0  0  0  0  0  0  0  0  0
  -26.7720  -31.3160   25.6180 C   0  0  1  0  0  0  0  0  0  0  0  0
  -25.4900  -31.0580   26.4420 C   0  0  0  0  0  1  0  0  0  0  0  0
  -27.5190  -29.9700   25.4660 C   0  0  0  0  0  1  0  0  0  0  0  0
  -27.6970  -32.2370   26.4460 C   0  0  0  0  0  1  0  0  0  0  0  0
  -28.4620  -19.8530   16.7550 C   0  0  0  0  0  1  0  0  0  0  0  0
  -26.1690  -19.5110   17.7280 C   0  0  0  0  0  1  0  0  0  0  0  0
  -27.6630  -19.6760   18.0710 C   0  0  0  0  0  3  0  0  0  0  0  0
  1  3  1  0
  2  4  1  0
  2  5  1  0
  4 98  1  0
  4  1  1  0
  5 16  1  0
  5  6  1  0
  6  3  1  0
  6  7  1  6
  8 15  2  0
  9 14  1  0
 10 11  1  0
 10  9  1  0
 12 11  1  0
 12 20  1  0
 12 13  1  0
 14  8  1  0
 14 13  1  0
 16  8  1  0
 17 18  2  0
 18 37  1  0
 19 18  1  0
 19 22  1  0
 20 17  1  0
 20 21  1  0
 21 19  2  0
 22 23  1  0
 23 24  2  0
 25 28  1  0
 25 24  1  0
 26 25  2  0
 27 26  1  0
 27 22  2  0
 28 29  1  0
 29 34  2  0
 29 30  1  0
 30 31  2  0
 31 32  1  0
 32 36  1  0
 33 32  2  0
 34 33  1  0
 35 34  1  0
 37 38  1  0
 38 41  1  0
 38 40  1  0
 39 37  2  0
 42 43  1  0
 42 17  1  0
 44 42  1  0
 46 47  1  0
 47 45  1  0
 47 16  1  0
 50 48  1  6
 50  6  1  0
 50 51  1  0
 50 49  1  0
 52 51  1  0
 53 52  1  0
 53 54  1  0
 55 54  1  0
 56 67  2  0
 57 55  1  0
 57 62  1  0
 58 66  1  0
 58 68  1  0
 59 61  1  0
 60 66  1  0
 61 62  2  0
 61 60  1  0
 63 57  2  0
 64 63  1  0
 64 59  2  0
 65 59  1  0
 65 58  1  0
 66 56  1  0
 68 70  2  0
 69 68  1  0
 71 69  1  0
 72 81  2  0
 72 77  1  0
 73 69  1  0
 73 77  1  0
 74 73  1  0
 75 76  1  0
 75 74  1  0
 76 72  1  0
 77 78  2  0
 78 79  1  0
 80 79  2  0
 81 80  1  0
 82 56  1  0
 82 83  1  0
 82 92  1  0
 83 86  1  0
 84 88  1  0
 84 83  1  0
 85 84  2  0
 88 87  1  0
 88 90  1  0
 90 89  1  0
 91 90  1  0
 92 93  1  1
 92 95  1  0
 94 92  1  0
 96 98  1  0
 97 98  1  0
M  ISO  4   8 100  16 100  54 101  55 101
M  END
>  <TORSDO>  (9) 
F 23

>  <SCORE>  (9) 
-9.891

>  <name>  (9) 
8

>  <ligand_id>  (9) 
8

>  <original_smiles>  (9) 
[H]c1c([H])c([H])c2c(c1[H])C([H])([H])C([H])([H])C([H])([H])C2([H])N([H])C(=O)C1([H])N(C(=O)C([H])(N([H])C(=O)C([H])(N([H])C([H])([H])[H])C([H])([H])[H])C(C([H])([H])[H])(C([H])([H])[H])C([H])([H])[H])C([H])([H])c2c([H])c(OC([H])([H])C([H])([H])C([H])([H])C([H])([H])C(C([H])([H])[H])(C([H])([H])[H])[N+]3([H])C([H])([H])C([H])([H])C([H])(C([H])(C([H])([H])[H])C([H])([H])[H])C([H])([H])C3([H])N(C(=O)N3C([H])([H])C([H])([H])C([H])([H])C([H])(n4nc(-c5c([H])c([H])c(Oc6c([H])c([H])c(F)c([H])c6F)c([H])c5[H])c(C(=O)N([H])[H])c4N([H])[H])C3([H])[H])C([H])(C([H])([H])[H])C([H])([H])[H])c([H])c([H])c2C1([H])[H]

>  <smiles>  (9) 
[H]c1c([H])c([H])c2c(c1[H])C([H])([H])C([H])([H])C([H])([H])C2([H])N([H])C(=O)C1([H])N(C(=O)C([H])(N([H])C(=O)C([H])(N([H])C([H])([H])[H])C([H])([H])[H])C(C([H])([H])[H])(C([H])([H])[H])C([H])([H])[H])C([H])([H])c2c([H])c(OC([H])([H])C([H])([H])C([H])([H])C([H])([H])C(C([H])([H])[H])(C([H])([H])[H])[N+]3([H])C([H])([H])C([H])([H])C([H])(C([H])(C([H])([H])[H])C([H])([H])[H])C([H])([H])C3([H])N(C(=O)N3C([H])([H])C([H])([H])C([H])([H])C([H])(n4nc(-c5c([H])c([H])c(Oc6c([H])c([H])c(F)c([H])c6F)c([H])c5[H])c(C(=O)N([H])[H])c4N([H])[H])C3([H])[H])C([H])(C([H])([H])[H])C([H])([H])[H])c([H])c([H])c2C1([H])[H]

$$$$
9:0:0
     RDKit          3D

 93101  0  0  1  0  0  0  0  0999 V2000
  -29.4410  -24.2460   17.9200 C   0  0  0  0  0  3  0  0  0  0  0  0
  -29.3680  -24.2760   19.3190 C   0  0  0  0  0  0  0  0  0  0  0  0
  -29.6880  -23.0290   19.9930 C   0  0  0  0  0  0  0  0  0  0  0  0
  -30.1030  -21.8470   19.2500 C   0  0  0  0  0  0  0  0  0  0  0  0
  -30.1530  -22.0210   17.8430 C   0  0  0  0  0  0  0  0  0  0  0  0
  -29.8140  -23.1630   17.2100 N   0  0  0  0  0  0  0  0  0  0  0  0
  -30.7480  -20.7690   16.8140 Cl  0  0  0  0  0  0  0  0  0  0  0  0
  -29.5720  -22.9680   21.5140 C   0  0  0  0  0  2  0  0  0  0  0  0
  -27.9710  -23.5550   23.4180 C   0  0  0  0  0  1  0  0  0  0  0  0
  -28.1100  -23.0620   21.9740 C   0  0  0  0  0  2  0  0  0  0  0  0
  -30.6910  -20.4990   19.8880 C   0  0  0  0  0  2  0  0  0  0  0  0
  -30.1110  -19.0110   19.6410 C   0  0  0  0  0  3  0  0  0  0  0  0
  -31.0810  -17.7800   20.0270 C   0  0  0  0  0  3  0  0  0  0  0  0
  -31.3040  -15.1840   19.7830 C   0  0  0  0  0  0  0  0  0  0  0  0
  -31.0030  -12.8690   18.9050 C   0  0  0  0  0  2  0  0  0  0  0  0
  -30.0100  -12.8970   17.7230 C   0  0  0  0  0  2  0  0  0  0  0  0
  -28.5590  -12.7800   18.2300 C   0  0  0  0  0  2  0  0  0  0  0  0
  -28.2570  -13.7480   19.4050 C   0  0  0  0  0  3  0  0  0  0  0  0
  -29.3640  -13.7020   20.4800 C   0  0  0  0  0  2  0  0  0  0  0  0
  -30.6390  -13.9830   19.8090 N   0  0  0  0  0  0  0  0  0  0  0  0
  -32.4740  -15.2430   19.3960 O   0  0  0  0  0  0  0  0  0  0  0  0
  -30.5820  -16.3410   20.0070 N   0  0  0  0  0  0  0  0  0  0  0  0
  -29.6130  -16.2020   20.2500 H   0  0  0  0  0  0  0  0  0  0  0  0
  -25.9560  -14.4360   20.3090 C   0  0  0  0  0  0  0  0  0  0  0  0
  -24.8740  -13.7060   20.7160 C   0  0  0  0  0  0  0  0  0  0  0  0
  -25.2580  -12.3340   20.6030 C   0  0  0  0  0  0  0  0  0  0  0  0
  -26.9320  -13.5130   19.9720 N   0  0  0  0  0  0  0  0  0  0  0  0
  -26.5220  -12.2410   20.2110 N   0  0  0  0  0  0  0  0  0  0  0  0
  -24.4740  -11.1070   20.7870 C   0  0  0  0  0  0  0  0  0  0  0  0
  -24.8480  -10.1250   21.7320 C   0  0  0  0  0  3  0  0  0  0  0  0
  -24.0650   -8.9620   21.9050 C   0  0  0  0  0  3  0  0  0  0  0  0
  -22.8950   -8.7730   21.1310 C   0  0  0  0  0  0  0  0  0  0  0  0
  -22.5400   -9.7410   20.1770 C   0  0  0  0  0  3  0  0  0  0  0  0
  -23.3230  -10.8950   20.0020 C   0  0  0  0  0  3  0  0  0  0  0  0
  -22.0880   -7.6630   21.2140 O   0  0  0  0  0  0  0  0  0  0  0  0
  -21.9140   -6.9850   22.3940 C   0  0  0  0  0  0  0  0  0  0  0  0
  -21.3460   -7.6020   23.5300 C   0  0  0  0  0  3  0  0  0  0  0  0
  -21.1210   -6.8500   24.7000 C   0  0  0  0  0  3  0  0  0  0  0  0
  -21.4540   -5.4830   24.7350 C   0  0  0  0  0  0  0  0  0  0  0  0
  -22.0140   -4.8660   23.6020 C   0  0  0  0  0  3  0  0  0  0  0  0
  -22.2410   -5.6150   22.4340 C   0  0  0  0  0  0  0  0  0  0  0  0
  -22.7620   -5.0110   21.3390 F   0  0  0  0  0  0  0  0  0  0  0  0
  -21.2300   -4.7580   25.8550 F   0  0  0  0  0  0  0  0  0  0  0  0
  -23.5250  -14.2450   21.0950 C   0  0  0  0  0  0  0  0  0  0  0  0
  -22.8180  -13.5570   21.9850 N   0  0  0  0  0  0  0  0  0  0  0  0
  -23.1120  -15.3110   20.6390 O   0  0  0  0  0  0  0  0  0  0  0  0
  -23.1670  -12.6920   22.3710 H   0  0  0  0  0  0  0  0  0  0  0  0
  -21.9170  -13.8990   22.2850 H   0  0  0  0  0  0  0  0  0  0  0  0
  -26.1840  -15.8030   20.1730 N   0  0  0  0  0  0  0  0  0  0  0  0
  -25.4560  -16.4880   20.3470 H   0  0  0  0  0  0  0  0  0  0  0  0
  -27.0220  -16.2120   19.7810 H   0  0  0  0  0  0  0  0  0  0  0  0
  -28.9000  -25.6160   20.0310 C   0  0  0  0  0  2  0  0  0  0  0  0
  -28.7910  -26.8910   19.2760 O   0  0  0  0  0  0  0  0  0  0  0  0
  -24.6310  -31.5500   22.9570 C   0  0  0  0  0  0  0  0  0  0  0  0
  -27.5950  -27.6110   19.4040 C   0  0  0  0  0  0  0  0  0  0  0  0
  -23.5180  -30.1760   21.2330 C   0  0  0  0  0  3  0  0  0  0  0  0
  -25.0680  -28.9320   19.6220 C   0  0  0  0  0  0  0  0  0  0  0  0
  -25.9960  -30.7980   20.9940 C   0  0  0  0  0  2  0  0  0  0  0  0
  -26.2010  -29.5000   20.2200 C   0  0  0  0  0  0  0  0  0  0  0  0
  -27.4690  -28.8570   20.0960 C   0  0  0  0  0  3  0  0  0  0  0  0
  -26.4360  -27.0890   18.7950 C   0  0  0  0  0  3  0  0  0  0  0  0
  -25.1860  -27.7340   18.8990 C   0  0  0  0  0  3  0  0  0  0  0  0
  -23.7450  -29.6530   19.7900 C   0  0  0  0  0  2  0  0  0  0  0  0
  -24.7340  -30.8560   21.7840 N   0  0  0  0  0  0  0  0  0  0  0  0
  -23.5480  -31.6540   23.5510 O   0  0  0  0  0  0  0  0  0  0  0  0
  -23.0120  -29.0100   22.1160 C   0  0  0  0  0  0  0  0  0  0  0  0
  -21.7240  -28.6600   21.9740 N   0  0  0  0  0  0  0  0  0  0  0  0
  -23.7790  -28.4280   22.8880 O   0  0  0  0  0  0  0  0  0  0  0  0
  -21.1570  -29.1910   21.3280 H   0  0  0  0  0  0  0  0  0  0  0  0
  -18.5580  -26.9480   22.3540 C   0  0  0  0  0  0  0  0  0  0  0  0
  -21.0490  -27.5620   22.6710 C   0  0  0  0  0  3  0  0  0  0  0  0
  -21.3630  -26.2020   22.0050 C   0  0  0  0  0  2  0  0  0  0  0  0
  -20.3220  -25.7890   20.9580 C   0  0  0  0  0  2  0  0  0  0  0  0
  -18.9330  -25.6880   21.5930 C   0  0  0  0  0  2  0  0  0  0  0  0
  -19.5500  -27.8370   22.8460 C   0  0  0  0  0  0  0  0  0  0  0  0
  -19.1470  -29.0120   23.5150 C   0  0  0  0  0  3  0  0  0  0  0  0
  -17.7820  -29.3040   23.6990 C   0  0  0  0  0  3  0  0  0  0  0  0
  -16.8040  -28.4130   23.2240 C   0  0  0  0  0  3  0  0  0  0  0  0
  -17.1920  -27.2370   22.5560 C   0  0  0  0  0  3  0  0  0  0  0  0
  -25.8630  -32.2640   23.5940 C   0  0  0  0  0  3  0  0  0  0  0  0
  -25.4340  -33.6110   24.0010 N   0  0  0  0  0  0  0  0  0  0  0  0
  -25.6610  -34.7270   23.2980 C   0  0  0  0  0  0  0  0  0  0  0  0
  -26.3230  -34.7400   22.2560 O   0  0  0  0  0  0  0  0  0  0  0  0
  -24.8420  -33.6690   24.8160 H   0  0  0  0  0  0  0  0  0  0  0  0
  -23.7670  -36.3680   23.0690 C   0  0  0  0  0  1  0  0  0  0  0  0
  -25.0580  -36.0400   23.8350 C   0  0  0  0  0  3  0  0  0  0  0  0
  -27.1110  -37.0850   24.6840 C   0  0  0  0  0  1  0  0  0  0  0  0
  -25.9860  -37.1890   23.7600 N   0  0  0  0  0  0  0  0  0  0  0  0
  -25.4970  -38.0590   23.9530 H   0  0  0  0  0  0  0  0  0  0  0  0
  -26.4700  -31.4810   24.8220 C   0  0  1  0  0  0  0  0  0  0  0  0
  -25.4230  -31.0920   25.8920 C   0  0  0  0  0  1  0  0  0  0  0  0
  -27.1660  -30.1840   24.3520 C   0  0  0  0  0  1  0  0  0  0  0  0
  -27.5580  -32.3430   25.5060 C   0  0  0  0  0  1  0  0  0  0  0  0
  1  2  1  0
  2  3  2  0
  2 52  1  0
  3  8  1  0
  4 11  1  0
  4  3  1  0
  5  4  2  0
  6  5  1  0
  6  1  2  0
  7  5  1  0
  8 10  1  0
 10  9  1  0
 12 11  1  0
 12 13  2  0
 14 20  1  0
 14 22  1  0
 15 20  1  0
 16 17  1  0
 16 15  1  0
 18 17  1  0
 18 27  1  0
 18 19  1  0
 20 19  1  0
 21 14  2  0
 22 13  1  0
 22 23  1  0
 24 25  2  0
 25 44  1  0
 26 25  1  0
 26 29  1  0
 27 28  1  0
 27 24  1  0
 28 26  2  0
 29 30  1  0
 30 31  2  0
 32 35  1  0
 32 31  1  0
 33 32  2  0
 34 33  1  0
 34 29  2  0
 35 36  1  0
 36 41  2  0
 36 37  1  0
 37 38  2  0
 38 39  1  0
 39 43  1  0
 40 39  2  0
 41 40  1  0
 42 41  1  0
 44 45  1  0
 45 48  1  0
 45 47  1  0
 46 44  2  0
 49 24  1  0
 49 50  1  0
 51 49  1  0
 53 55  1  0
 53 52  1  0
 54 65  2  0
 55 60  1  0
 56 64  1  0
 56 66  1  0
 57 63  1  0
 57 59  1  0
 58 64  1  0
 59 58  1  0
 60 59  2  0
 61 62  1  0
 61 55  2  0
 62 57  2  0
 63 56  1  0
 64 54  1  0
 66 68  2  0
 67 66  1  0
 69 67  1  0
 70 79  2  0
 70 75  1  0
 71 67  1  0
 71 75  1  0
 72 71  1  0
 73 74  1  0
 73 72  1  0
 74 70  1  0
 75 76  2  0
 76 77  1  0
 78 77  2  0
 79 78  1  0
 80 54  1  0
 80 81  1  0
 80 90  1  0
 81 84  1  0
 82 86  1  0
 82 81  1  0
 83 82  2  0
 86 85  1  0
 88 86  1  0
 88 89  1  0
 88 87  1  0
 90 93  1  1
 90 91  1  0
 92 90  1  0
M  ISO  4  14 100  22 100  52 101  53 101
M  END
>  <TORSDO>  (10) 
F 22

>  <SCORE>  (10) 
-9.005

>  <name>  (10) 
9

>  <ligand_id>  (10) 
9

>  <original_smiles>  (10) 
[H]c1nc(Cl)c(C([H])([H])C([H])([H])C([H])([H])N([H])C(=O)N2C([H])([H])C([H])([H])C([H])([H])C([H])(n3nc(-c4c([H])c([H])c(Oc5c([H])c([H])c(F)c([H])c5F)c([H])c4[H])c(C(=O)N([H])[H])c3N([H])[H])C2([H])[H])c(C([H])([H])C([H])([H])C([H])([H])[H])c1C([H])([H])Oc1c([H])c([H])c2c(c1[H])C([H])([H])N(C(=O)C([H])(N([H])C(=O)C([H])(N([H])C([H])([H])[H])C([H])([H])[H])C(C([H])([H])[H])(C([H])([H])[H])C([H])([H])[H])C([H])(C(=O)N([H])C1([H])c3c([H])c([H])c([H])c([H])c3C([H])([H])C([H])([H])C1([H])[H])C2([H])[H]

>  <smiles>  (10) 
[H]c1nc(Cl)c(C([H])([H])C([H])([H])C([H])([H])N([H])C(=O)N2C([H])([H])C([H])([H])C([H])([H])C([H])(n3nc(-c4c([H])c([H])c(Oc5c([H])c([H])c(F)c([H])c5F)c([H])c4[H])c(C(=O)N([H])[H])c3N([H])[H])C2([H])[H])c(C([H])([H])C([H])([H])C([H])([H])[H])c1C([H])([H])Oc1c([H])c([H])c2c(c1[H])C([H])([H])N(C(=O)C([H])(N([H])C(=O)C([H])(N([H])C([H])([H])[H])C([H])([H])[H])C(C([H])([H])[H])(C([H])([H])[H])C([H])([H])[H])C([H])(C(=O)N([H])C1([H])c3c([H])c([H])c([H])c([H])c3C([H])([H])C([H])([H])C1([H])[H])C2([H])[H]

$$$$
10:0:0
     RDKit          3D

 89 97  0  0  1  0  0  0  0  0999 V2000
  -29.0070  -20.4870   19.1000 C   0  0  0  0  0  3  0  0  0  0  0  0
  -29.9820  -19.1580   21.2820 C   0  0  0  0  0  3  0  0  0  0  0  0
  -29.2490  -21.4390   20.1770 C   0  0  0  0  0  0  0  0  0  0  0  0
  -29.2190  -19.0120   19.1070 C   0  0  0  0  0  0  0  0  0  0  0  0
  -29.7650  -20.6280   21.2780 C   0  0  0  0  0  0  0  0  0  0  0  0
  -29.7610  -18.2110   20.2010 C   0  0  0  0  0  0  0  0  0  0  0  0
  -28.8130  -18.2540   17.8570 C   0  0  0  0  0  1  0  0  0  0  0  0
  -30.1530  -21.3650   22.5480 C   0  0  0  0  0  1  0  0  0  0  0  0
  -30.6440  -15.4310   20.1570 C   0  0  0  0  0  0  0  0  0  0  0  0
  -30.6710  -12.9870   19.3160 C   0  0  0  0  0  2  0  0  0  0  0  0
  -29.7270  -12.7790   18.1050 C   0  0  0  0  0  2  0  0  0  0  0  0
  -28.2860  -12.4990   18.5720 C   0  0  0  0  0  2  0  0  0  0  0  0
  -27.8460  -13.4580   19.7070 C   0  0  0  0  0  3  0  0  0  0  0  0
  -28.9150  -13.6040   20.8120 C   0  0  0  0  0  2  0  0  0  0  0  0
  -30.1320  -14.1090   20.1600 N   0  0  0  0  0  0  0  0  0  0  0  0
  -31.8460  -15.5050   19.8630 O   0  0  0  0  0  0  0  0  0  0  0  0
  -29.7840  -16.6100   20.3190 N   0  0  0  0  0  0  0  0  0  0  0  0
  -28.8680  -16.2720   20.5670 H   0  0  0  0  0  0  0  0  0  0  0  0
  -25.4950  -13.9900   20.5470 C   0  0  0  0  0  0  0  0  0  0  0  0
  -24.4470  -13.1980   20.9270 C   0  0  0  0  0  0  0  0  0  0  0  0
  -24.9150  -11.8510   20.8360 C   0  0  0  0  0  0  0  0  0  0  0  0
  -26.5320  -13.1260   20.2420 N   0  0  0  0  0  0  0  0  0  0  0  0
  -26.1970  -11.8310   20.4830 N   0  0  0  0  0  0  0  0  0  0  0  0
  -24.1970  -10.5810   21.0080 C   0  0  0  0  0  0  0  0  0  0  0  0
  -24.6190   -9.6130   21.9450 C   0  0  0  0  0  3  0  0  0  0  0  0
  -23.8970   -8.4090   22.1060 C   0  0  0  0  0  3  0  0  0  0  0  0
  -22.7410   -8.1650   21.3270 C   0  0  0  0  0  0  0  0  0  0  0  0
  -22.3380   -9.1230   20.3790 C   0  0  0  0  0  3  0  0  0  0  0  0
  -23.0600  -10.3170   20.2180 C   0  0  0  0  0  3  0  0  0  0  0  0
  -21.9930   -7.0150   21.3950 O   0  0  0  0  0  0  0  0  0  0  0  0
  -21.8490   -6.3190   22.5690 C   0  0  0  0  0  0  0  0  0  0  0  0
  -21.2550   -6.9010   23.7100 C   0  0  0  0  0  3  0  0  0  0  0  0
  -21.0620   -6.1290   24.8740 C   0  0  0  0  0  3  0  0  0  0  0  0
  -21.4530   -4.7760   24.8940 C   0  0  0  0  0  0  0  0  0  0  0  0
  -22.0380   -4.1940   23.7560 C   0  0  0  0  0  3  0  0  0  0  0  0
  -22.2320   -4.9630   22.5960 C   0  0  0  0  0  0  0  0  0  0  0  0
  -22.7780   -4.3920   21.4950 F   0  0  0  0  0  0  0  0  0  0  0  0
  -21.2610   -4.0330   26.0100 F   0  0  0  0  0  0  0  0  0  0  0  0
  -23.0580  -13.6630   21.2530 C   0  0  0  0  0  0  0  0  0  0  0  0
  -22.3620  -12.9490   22.1290 N   0  0  0  0  0  0  0  0  0  0  0  0
  -22.6010  -14.6960   20.7660 O   0  0  0  0  0  0  0  0  0  0  0  0
  -22.7460  -12.1140   22.5480 H   0  0  0  0  0  0  0  0  0  0  0  0
  -21.4310  -13.2440   22.3870 H   0  0  0  0  0  0  0  0  0  0  0  0
  -25.6440  -15.3660   20.4080 N   0  0  0  0  0  0  0  0  0  0  0  0
  -24.8690  -16.0030   20.5530 H   0  0  0  0  0  0  0  0  0  0  0  0
  -26.4590  -15.8190   20.0160 H   0  0  0  0  0  0  0  0  0  0  0  0
  -29.2690  -23.1770   20.0780 C   0  0  0  0  0  3  0  0  0  0  0  0
  -28.1140  -24.5190   20.0730 C   0  0  0  0  0  3  0  0  0  0  0  0
  -28.3340  -26.1330   20.1500 O   0  0  0  0  0  0  0  0  0  0  0  0
  -24.6830  -31.9170   23.2610 C   0  0  0  0  0  0  0  0  0  0  0  0
  -27.2930  -27.1850   20.1230 C   0  0  0  0  0  0  0  0  0  0  0  0
  -23.5070  -30.5630   21.5740 C   0  0  0  0  0  3  0  0  0  0  0  0
  -24.9740  -29.0150   20.1160 C   0  0  0  0  0  0  0  0  0  0  0  0
  -26.0700  -30.8080   21.4470 C   0  0  0  0  0  2  0  0  0  0  0  0
  -26.1530  -29.4220   20.7520 C   0  0  0  0  0  0  0  0  0  0  0  0
  -27.3100  -28.5280   20.7290 C   0  0  0  0  0  3  0  0  0  0  0  0
  -26.0800  -26.9140   19.4510 C   0  0  0  0  0  3  0  0  0  0  0  0
  -24.9590  -27.7800   19.4480 C   0  0  0  0  0  3  0  0  0  0  0  0
  -23.7470  -29.9220   20.1810 C   0  0  0  0  0  2  0  0  0  0  0  0
  -24.7740  -31.1200   22.1490 N   0  0  0  0  0  0  0  0  0  0  0  0
  -23.5900  -32.1860   23.7830 O   0  0  0  0  0  0  0  0  0  0  0  0
  -22.8140  -29.5340   22.5060 C   0  0  0  0  0  0  0  0  0  0  0  0
  -21.4880  -29.3580   22.3580 N   0  0  0  0  0  0  0  0  0  0  0  0
  -23.4760  -28.8960   23.3270 O   0  0  0  0  0  0  0  0  0  0  0  0
  -21.0070  -29.9240   21.6730 H   0  0  0  0  0  0  0  0  0  0  0  0
  -18.1070  -28.1260   22.8100 C   0  0  0  0  0  0  0  0  0  0  0  0
  -20.6650  -28.3950   23.0950 C   0  0  0  0  0  3  0  0  0  0  0  0
  -20.7750  -26.9820   22.4760 C   0  0  0  0  0  2  0  0  0  0  0  0
  -19.6790  -26.6860   21.4470 C   0  0  0  0  0  2  0  0  0  0  0  0
  -18.2940  -26.8010   22.0880 C   0  0  0  0  0  2  0  0  0  0  0  0
  -19.2200  -28.8810   23.2690 C   0  0  0  0  0  0  0  0  0  0  0  0
  -18.9880  -30.1190   23.9050 C   0  0  0  0  0  3  0  0  0  0  0  0
  -17.6790  -30.6040   24.0870 C   0  0  0  0  0  3  0  0  0  0  0  0
  -16.5820  -29.8450   23.6430 C   0  0  0  0  0  3  0  0  0  0  0  0
  -16.7970  -28.6090   23.0100 C   0  0  0  0  0  3  0  0  0  0  0  0
  -25.9490  -32.5460   23.9210 C   0  0  0  0  0  3  0  0  0  0  0  0
  -25.6360  -33.9450   24.2570 N   0  0  0  0  0  0  0  0  0  0  0  0
  -25.9350  -35.0040   23.4920 C   0  0  0  0  0  0  0  0  0  0  0  0
  -26.5660  -34.9040   22.4370 O   0  0  0  0  0  0  0  0  0  0  0  0
  -25.0690  -34.0950   25.0790 H   0  0  0  0  0  0  0  0  0  0  0  0
  -24.1610  -36.7740   23.2460 C   0  0  0  0  0  1  0  0  0  0  0  0
  -25.4610  -36.3900   23.9710 C   0  0  0  0  0  3  0  0  0  0  0  0
  -27.6270  -37.3260   24.6550 C   0  0  0  0  0  1  0  0  0  0  0  0
  -26.4670  -37.4580   23.7760 N   0  0  0  0  0  0  0  0  0  0  0  0
  -26.0560  -38.3750   23.9310 H   0  0  0  0  0  0  0  0  0  0  0  0
  -26.4250  -31.7690   25.2120 C   0  0  1  0  0  0  0  0  0  0  0  0
  -25.3010  -31.5360   26.2490 C   0  0  0  0  0  1  0  0  0  0  0  0
  -27.0100  -30.3880   24.8400 C   0  0  0  0  0  1  0  0  0  0  0  0
  -27.5610  -32.5550   25.9060 C   0  0  0  0  0  1  0  0  0  0  0  0
  1  4  2  0
  1  3  1  0
  3  5  2  0
  4  6  1  0
  5  2  1  0
  5  8  1  0
  6 17  1  0
  6  2  2  0
  7  4  1  0
  9 15  1  0
  9 17  1  0
 10 15  1  0
 11 12  1  0
 11 10  1  0
 13 12  1  0
 13 22  1  0
 13 14  1  0
 15 14  1  0
 16  9  2  0
 17 18  1  0
 19 20  2  0
 20 39  1  0
 21 20  1  0
 21 24  1  0
 22 23  1  0
 22 19  1  0
 23 21  2  0
 24 25  1  0
 25 26  2  0
 27 30  1  0
 27 26  1  0
 28 27  2  0
 29 28  1  0
 29 24  2  0
 30 31  1  0
 31 36  2  0
 31 32  1  0
 32 33  2  0
 33 34  1  0
 34 38  1  0
 35 34  2  0
 36 35  1  0
 37 36  1  0
 39 40  1  0
 40 43  1  0
 40 42  1  0
 41 39  2  0
 44 19  1  0
 44 45  1  0
 46 44  1  0
 47  3  1  0
 48 47  2  0
 48 49  1  0
 50 61  2  0
 51 49  1  0
 51 56  1  0
 52 60  1  0
 52 62  1  0
 53 59  1  0
 53 55  1  0
 54 60  1  0
 55 54  1  0
 56 55  2  0
 57 51  2  0
 58 57  1  0
 58 53  2  0
 59 52  1  0
 60 50  1  0
 62 64  2  0
 63 62  1  0
 65 63  1  0
 66 75  2  0
 66 71  1  0
 67 63  1  0
 67 71  1  0
 68 67  1  0
 69 70  1  0
 69 68  1  0
 70 66  1  0
 71 72  2  0
 72 73  1  0
 74 73  2  0
 75 74  1  0
 76 50  1  0
 76 77  1  0
 76 86  1  0
 77 80  1  0
 78 82  1  0
 78 77  1  0
 79 78  2  0
 82 81  1  0
 84 85  1  0
 84 82  1  0
 84 83  1  0
 86 89  1  1
 86 87  1  0
 88 86  1  0
M  ISO  4   9 100  17 100  48 101  49 101
M  END
>  <TORSDO>  (11) 
F 18

>  <SCORE>  (11) 
-15.527

>  <name>  (11) 
10

>  <ligand_id>  (11) 
10

>  <original_smiles>  (11) 
[H]c1c([H])c([H])c2c(c1[H])C([H])([H])C([H])([H])C([H])([H])C2([H])N([H])C(=O)C1([H])N(C(=O)C([H])(N([H])C(=O)C([H])(N([H])C([H])([H])[H])C([H])([H])[H])C(C([H])([H])[H])(C([H])([H])[H])C([H])([H])[H])C([H])([H])c2c([H])c(OC([H])([H])C([H])([H])c3c([H])c(C([H])([H])[H])c(N([H])C(=O)N4C([H])([H])C([H])([H])C([H])([H])C([H])(n5nc(-c6c([H])c([H])c(Oc7c([H])c([H])c(F)c([H])c7F)c([H])c6[H])c(C(=O)N([H])[H])c5N([H])[H])C4([H])[H])c([H])c3C([H])([H])[H])c([H])c([H])c2C1([H])[H]

>  <smiles>  (11) 
[H]c1c([H])c([H])c2c(c1[H])C([H])([H])C([H])([H])C([H])([H])C2([H])N([H])C(=O)C1([H])N(C(=O)C([H])(N([H])C(=O)C([H])(N([H])C([H])([H])[H])C([H])([H])[H])C(C([H])([H])[H])(C([H])([H])[H])C([H])([H])[H])C([H])([H])c2c([H])c(OC([H])([H])C([H])([H])c3c([H])c(C([H])([H])[H])c(N([H])C(=O)N4C([H])([H])C([H])([H])C([H])([H])C([H])(n5nc(-c6c([H])c([H])c(Oc7c([H])c([H])c(F)c([H])c7F)c([H])c6[H])c(C(=O)N([H])[H])c5N([H])[H])C4([H])[H])c([H])c3C([H])([H])[H])c([H])c([H])c2C1([H])[H]

$$$$
11:0:0
     RDKit          3D

104112  0  0  1  0  0  0  0  0999 V2000
  -29.8230  -22.2930   18.3770 C   0  0  0  0  0  3  0  0  0  0  0  0
  -29.8870  -22.2660   19.7800 C   0  0  0  0  0  0  0  0  0  0  0  0
  -29.8570  -21.0090   20.4530 C   0  0  0  0  0  0  0  0  0  0  0  0
  -29.8460  -19.7890   19.7030 C   0  0  0  0  0  0  0  0  0  0  0  0
  -29.8650  -19.8490   18.2760 C   0  0  0  0  0  0  0  0  0  0  0  0
  -29.8120  -21.1080   17.6300 C   0  0  0  0  0  0  0  0  0  0  0  0
  -29.8570  -20.9560   21.9790 C   0  0  0  0  0  1  0  0  0  0  0  0
  -29.8060  -21.2330   15.9040 Cl  0  0  0  0  0  0  0  0  0  0  0  0
  -30.0940  -23.6100   20.4900 C   0  0  0  0  0  2  0  0  0  0  0  0
  -28.8250  -24.3350   20.9920 C   0  0  0  0  0  2  0  0  0  0  0  0
  -28.0130  -25.0930   19.9180 C   0  0  0  0  0  2  0  0  0  0  0  0
  -28.0630  -26.5080   20.1750 O   0  0  0  0  0  0  0  0  0  0  0  0
  -24.4910  -31.8560   23.1960 C   0  0  0  0  0  0  0  0  0  0  0  0
  -26.9020  -27.2550   20.1500 C   0  0  0  0  0  0  0  0  0  0  0  0
  -23.2010  -30.4780   21.5980 C   0  0  0  0  0  3  0  0  0  0  0  0
  -24.5660  -28.8600   20.1750 C   0  0  0  0  0  0  0  0  0  0  0  0
  -25.7350  -30.7280   21.3540 C   0  0  0  0  0  2  0  0  0  0  0  0
  -25.7520  -29.3440   20.7370 C   0  0  0  0  0  0  0  0  0  0  0  0
  -26.9200  -28.5480   20.7220 C   0  0  0  0  0  3  0  0  0  0  0  0
  -25.6970  -26.7920   19.5690 C   0  0  0  0  0  3  0  0  0  0  0  0
  -24.5330  -27.5820   19.5900 C   0  0  0  0  0  3  0  0  0  0  0  0
  -23.3590  -29.7680   20.2270 C   0  0  0  0  0  2  0  0  0  0  0  0
  -24.4960  -31.0360   22.1070 N   0  0  0  0  0  0  0  0  0  0  0  0
  -23.4310  -32.1820   23.7490 O   0  0  0  0  0  0  0  0  0  0  0  0
  -22.5260  -29.4990   22.5860 C   0  0  0  0  0  0  0  0  0  0  0  0
  -21.1970  -29.3490   22.4650 N   0  0  0  0  0  0  0  0  0  0  0  0
  -23.1960  -28.8780   23.4160 O   0  0  0  0  0  0  0  0  0  0  0  0
  -20.7210  -29.8990   21.7650 H   0  0  0  0  0  0  0  0  0  0  0  0
  -17.7960  -28.2510   22.9870 C   0  0  0  0  0  0  0  0  0  0  0  0
  -20.3580  -28.4550   23.2610 C   0  0  0  0  0  3  0  0  0  0  0  0
  -20.4270  -27.0050   22.7270 C   0  0  0  0  0  2  0  0  0  0  0  0
  -19.3210  -26.6800   21.7190 C   0  0  0  0  0  2  0  0  0  0  0  0
  -17.9410  -26.8780   22.3540 C   0  0  0  0  0  2  0  0  0  0  0  0
  -18.9310  -28.9980   23.3990 C   0  0  0  0  0  0  0  0  0  0  0  0
  -18.7420  -30.2840   23.9500 C   0  0  0  0  0  3  0  0  0  0  0  0
  -17.4490  -30.8230   24.0950 C   0  0  0  0  0  3  0  0  0  0  0  0
  -16.3280  -30.0720   23.7010 C   0  0  0  0  0  3  0  0  0  0  0  0
  -16.5020  -28.7880   23.1530 C   0  0  0  0  0  3  0  0  0  0  0  0
  -25.8130  -32.4430   23.7840 C   0  0  0  0  0  3  0  0  0  0  0  0
  -25.5510  -33.8420   24.1470 N   0  0  0  0  0  0  0  0  0  0  0  0
  -25.8940  -34.8990   23.4000 C   0  0  0  0  0  0  0  0  0  0  0  0
  -26.5350  -34.7970   22.3500 O   0  0  0  0  0  0  0  0  0  0  0  0
  -24.9790  -33.9970   24.9640 H   0  0  0  0  0  0  0  0  0  0  0  0
  -24.2040  -36.7410   23.1210 C   0  0  0  0  0  1  0  0  0  0  0  0
  -25.4540  -36.2910   23.8930 C   0  0  0  0  0  3  0  0  0  0  0  0
  -27.6340  -37.1030   24.6820 C   0  0  0  0  0  1  0  0  0  0  0  0
  -26.5120  -37.3190   23.7720 N   0  0  0  0  0  0  0  0  0  0  0  0
  -26.1350  -38.2460   23.9480 H   0  0  0  0  0  0  0  0  0  0  0  0
  -26.3560  -31.6350   25.0250 C   0  0  1  0  0  0  0  0  0  0  0  0
  -25.2930  -31.3940   26.1230 C   0  0  0  0  0  1  0  0  0  0  0  0
  -26.8980  -30.2560   24.5830 C   0  0  0  0  0  1  0  0  0  0  0  0
  -27.5430  -32.3920   25.6660 C   0  0  0  0  0  1  0  0  0  0  0  0
  -29.8170  -18.4220   20.4240 C   0  0  0  0  0  2  0  0  0  0  0  0
  -31.1940  -17.7270   20.4970 C   0  0  0  0  0  2  0  0  0  0  0  0
  -31.2950  -16.5650   21.5180 C   0  0  0  0  0  2  0  0  0  0  0  0
  -31.1750  -14.3250   20.4080 C   0  0  0  0  0  0  0  0  0  0  0  0
  -30.8030  -12.1320   19.3370 C   0  0  0  0  0  2  0  0  0  0  0  0
  -29.8840  -12.2780   18.1090 C   0  0  0  0  0  2  0  0  0  0  0  0
  -28.4030  -12.2000   18.5240 C   0  0  0  0  0  2  0  0  0  0  0  0
  -28.0690  -13.1320   19.7190 C   0  0  0  0  0  3  0  0  0  0  0  0
  -29.0970  -12.9590   20.8580 C   0  0  0  0  0  2  0  0  0  0  0  0
  -30.4420  -13.1850   20.2990 N   0  0  0  0  0  0  0  0  0  0  0  0
  -32.2670  -14.4740   19.8580 O   0  0  0  0  0  0  0  0  0  0  0  0
  -30.6200  -15.3210   21.1200 N   0  0  0  0  0  0  0  0  0  0  0  0
  -29.7160  -15.1330   21.5280 H   0  0  0  0  0  0  0  0  0  0  0  0
  -25.6980  -13.8590   20.4070 C   0  0  0  0  0  0  0  0  0  0  0  0
  -24.5910  -13.1430   20.7720 C   0  0  0  0  0  0  0  0  0  0  0  0
  -24.9840  -11.7700   20.7500 C   0  0  0  0  0  0  0  0  0  0  0  0
  -26.7010  -12.9280   20.1880 N   0  0  0  0  0  0  0  0  0  0  0  0
  -26.2730  -11.6650   20.4500 N   0  0  0  0  0  0  0  0  0  0  0  0
  -24.1960  -10.5450   20.9400 C   0  0  0  0  0  0  0  0  0  0  0  0
  -24.5600   -9.5740   21.8980 C   0  0  0  0  0  3  0  0  0  0  0  0
  -23.7760   -8.4140   22.0760 C   0  0  0  0  0  3  0  0  0  0  0  0
  -22.6120   -8.2180   21.2940 C   0  0  0  0  0  0  0  0  0  0  0  0
  -22.2670   -9.1780   20.3260 C   0  0  0  0  0  3  0  0  0  0  0  0
  -23.0520  -10.3280   20.1470 C   0  0  0  0  0  3  0  0  0  0  0  0
  -21.8040   -7.1100   21.3790 O   0  0  0  0  0  0  0  0  0  0  0  0
  -21.6710   -6.4040   22.5480 C   0  0  0  0  0  0  0  0  0  0  0  0
  -21.2290   -7.0150   23.7410 C   0  0  0  0  0  3  0  0  0  0  0  0
  -21.0400   -6.2380   24.9030 C   0  0  0  0  0  3  0  0  0  0  0  0
  -21.2820   -4.8520   24.8690 C   0  0  0  0  0  0  0  0  0  0  0  0
  -21.7170   -4.2410   23.6800 C   0  0  0  0  0  3  0  0  0  0  0  0
  -21.9080   -5.0140   22.5210 C   0  0  0  0  0  0  0  0  0  0  0  0
  -22.3060   -4.4170   21.3730 F   0  0  0  0  0  0  0  0  0  0  0  0
  -21.0940   -4.1030   25.9810 F   0  0  0  0  0  0  0  0  0  0  0  0
  -23.2170  -13.6890   21.0340 C   0  0  0  0  0  0  0  0  0  0  0  0
  -22.4560  -13.0410   21.9100 N   0  0  0  0  0  0  0  0  0  0  0  0
  -22.8280  -14.7250   20.4970 O   0  0  0  0  0  0  0  0  0  0  0  0
  -22.7840  -12.2020   22.3660 H   0  0  0  0  0  0  0  0  0  0  0  0
  -21.5340  -13.3900   22.1280 H   0  0  0  0  0  0  0  0  0  0  0  0
  -25.9320  -15.2190   20.2250 N   0  0  0  0  0  0  0  0  0  0  0  0
  -25.1980  -15.9120   20.3300 H   0  0  0  0  0  0  0  0  0  0  0  0
  -26.8110  -15.6160   19.9190 H   0  0  0  0  0  0  0  0  0  0  0  0
  -29.9900  -18.6020   17.3940 C   0  0  0  0  0  2  0  0  0  0  0  0
  -31.3630  -18.5030   16.8490 N   0  0  0  0  0  4  0  0  0  0  0  0
  -31.9950  -18.4280   17.6300 H   0  0  0  0  0  0  0  0  0  0  0  0
  -31.5780  -19.3660   16.3700 H   0  0  0  0  0  0  0  0  0  0  0  0
  -31.6630  -17.3520   15.9640 C   0  0  0  0  0  3  0  0  0  0  0  0
  -33.3730  -15.4320   15.7580 C   0  0  0  0  0  1  0  0  0  0  0  0
  -33.5310  -16.9480   17.6920 C   0  0  0  0  0  1  0  0  0  0  0  0
  -34.1480  -17.8000   15.4210 C   0  0  0  0  0  1  0  0  0  0  0  0
  -33.1550  -16.9010   16.1880 C   0  0  2  0  0  0  0  0  0  0  0  0
  -31.4070  -16.6170   13.4390 C   0  0  0  0  0  1  0  0  0  0  0  0
  -31.2470  -17.7090   14.5060 C   0  0  0  0  0  2  0  0  0  0  0  0
  1  2  1  0
  2  3  2  0
  2  9  1  0
  3  7  1  0
  4 53  1  0
  4  3  1  0
  5  4  2  0
  6  5  1  0
  6  1  2  0
  8  6  1  0
  9 10  1  0
 11 12  1  0
 11 10  1  0
 13 24  2  0
 14 12  1  0
 14 19  1  0
 15 23  1  0
 15 25  1  0
 16 22  1  0
 16 18  1  0
 17 23  1  0
 18 17  1  0
 19 18  2  0
 20 21  1  0
 20 14  2  0
 21 16  2  0
 22 15  1  0
 23 13  1  0
 25 27  2  0
 26 25  1  0
 28 26  1  0
 29 38  2  0
 29 34  1  0
 30 26  1  0
 30 34  1  0
 31 30  1  0
 32 33  1  0
 32 31  1  0
 33 29  1  0
 34 35  2  0
 35 36  1  0
 37 36  2  0
 38 37  1  0
 39 13  1  0
 39 40  1  0
 39 49  1  0
 40 43  1  0
 41 45  1  0
 41 40  1  0
 42 41  2  0
 45 44  1  0
 47 45  1  0
 47 48  1  0
 47 46  1  0
 49 52  1  1
 49 50  1  0
 51 49  1  0
 53 54  1  0
 54 55  1  0
 56 64  1  0
 57 62  1  0
 58 59  1  0
 58 57  1  0
 60 59  1  0
 60 69  1  0
 60 61  1  0
 62 56  1  0
 62 61  1  0
 63 56  2  0
 64 55  1  0
 64 65  1  0
 66 67  2  0
 67 86  1  0
 68 67  1  0
 68 71  1  0
 69 66  1  0
 69 70  1  0
 70 68  2  0
 71 72  1  0
 72 73  2  0
 74 77  1  0
 74 73  1  0
 75 74  2  0
 76 75  1  0
 76 71  2  0
 77 78  1  0
 78 79  1  0
 79 80  2  0
 81 80  1  0
 81 85  1  0
 82 81  2  0
 83 78  2  0
 83 82  1  0
 84 83  1  0
 86 87  1  0
 87 90  1  0
 87 89  1  0
 88 86  2  0
 91 92  1  0
 91 66  1  0
 93 91  1  0
 94  5  1  0
 95 94  1  0
 95 96  1  0
 97 95  1  0
 98104  1  0
 98102  1  0
 98 95  1  0
102 99  1  6
101102  1  0
102100  1  0
103104  1  0
M  ISO  4  11 101  12 101  56 100  64 100
M  END
>  <TORSDO>  (12) 
F 27

>  <SCORE>  (12) 
-11.824

>  <name>  (12) 
11

>  <ligand_id>  (12) 
11

>  <original_smiles>  (12) 
[H]c1c([H])c([H])c2c(c1[H])C([H])([H])C([H])([H])C([H])([H])C2([H])N([H])C(=O)C1([H])N(C(=O)C([H])(N([H])C(=O)C([H])(N([H])C([H])([H])[H])C([H])([H])[H])C(C([H])([H])[H])(C([H])([H])[H])C([H])([H])[H])C([H])([H])c2c([H])c(OC([H])([H])C([H])([H])C([H])([H])c3c([H])c(Cl)c(C([H])([H])[N+]([H])([H])C([H])(C([H])([H])C([H])([H])[H])C(C([H])([H])[H])(C([H])([H])[H])C([H])([H])[H])c(C([H])([H])C([H])([H])C([H])([H])N([H])C(=O)N4C([H])([H])C([H])([H])C([H])([H])C([H])(n5nc(-c6c([H])c([H])c(Oc7c([H])c([H])c(F)c([H])c7F)c([H])c6[H])c(C(=O)N([H])[H])c5N([H])[H])C4([H])[H])c3C([H])([H])[H])c([H])c([H])c2C1([H])[H]

>  <smiles>  (12) 
[H]c1c([H])c([H])c2c(c1[H])C([H])([H])C([H])([H])C([H])([H])C2([H])N([H])C(=O)C1([H])N(C(=O)C([H])(N([H])C(=O)C([H])(N([H])C([H])([H])[H])C([H])([H])[H])C(C([H])([H])[H])(C([H])([H])[H])C([H])([H])[H])C([H])([H])c2c([H])c(OC([H])([H])C([H])([H])C([H])([H])c3c([H])c(Cl)c(C([H])([H])[N+]([H])([H])C([H])(C([H])([H])C([H])([H])[H])C(C([H])([H])[H])(C([H])([H])[H])C([H])([H])[H])c(C([H])([H])C([H])([H])C([H])([H])N([H])C(=O)N4C([H])([H])C([H])([H])C([H])([H])C([H])(n5nc(-c6c([H])c([H])c(Oc7c([H])c([H])c(F)c([H])c7F)c([H])c6[H])c(C(=O)N([H])[H])c5N([H])[H])C4([H])[H])c3C([H])([H])[H])c([H])c([H])c2C1([H])[H]

$$$$
12:0:0
     RDKit          3D

 91 99  0  0  1  0  0  0  0  0999 V2000
  -27.3570  -21.4270   19.3250 C   0  0  0  0  0  0  0  0  0  0  0  0
  -27.3190  -20.0980   18.7380 C   0  0  0  0  0  0  0  0  0  0  0  0
  -28.4080  -21.9060   20.1700 C   0  0  0  0  0  0  0  0  0  0  0  0
  -28.2370  -19.0130   19.0230 C   0  0  0  0  0  0  0  0  0  0  0  0
  -29.1740  -20.5250   20.6310 C   0  0  0  0  0  0  0  0  0  0  0  0
  -29.0970  -18.9640   20.1510 C   0  0  0  0  0  0  0  0  0  0  0  0
  -26.2340  -22.4030   18.9770 C   0  0  0  0  0  1  0  0  0  0  0  0
  -26.2370  -19.8300   17.6770 C   0  0  0  0  0  1  0  0  0  0  0  0
  -28.3890  -17.8520   18.0450 C   0  0  0  0  0  1  0  0  0  0  0  0
  -30.1660  -20.7340   21.7550 C   0  0  0  0  0  1  0  0  0  0  0  0
  -30.2350  -15.9280   20.3000 C   0  0  0  0  0  0  0  0  0  0  0  0
  -30.4130  -13.3350   19.5660 C   0  0  0  0  0  2  0  0  0  0  0  0
  -29.5720  -12.9420   18.3120 C   0  0  0  0  0  2  0  0  0  0  0  0
  -28.1210  -12.5950   18.6740 C   0  0  0  0  0  2  0  0  0  0  0  0
  -27.5900  -13.5410   19.7730 C   0  0  0  0  0  3  0  0  0  0  0  0
  -28.5820  -13.8610   20.9180 C   0  0  0  0  0  2  0  0  0  0  0  0
  -29.7690  -14.5230   20.3180 N   0  0  0  0  0  0  0  0  0  0  0  0
  -31.4380  -15.8700   19.9680 O   0  0  0  0  0  0  0  0  0  0  0  0
  -29.5150  -17.3070   20.6190 N   0  0  0  0  0  0  0  0  0  0  0  0
  -28.7650  -17.0010   21.2240 H   0  0  0  0  0  0  0  0  0  0  0  0
  -25.2120  -14.0400   20.4920 C   0  0  0  0  0  0  0  0  0  0  0  0
  -24.1530  -13.2500   20.8450 C   0  0  0  0  0  0  0  0  0  0  0  0
  -24.6340  -11.9030   20.8210 C   0  0  0  0  0  0  0  0  0  0  0  0
  -26.2650  -13.1750   20.2610 N   0  0  0  0  0  0  0  0  0  0  0  0
  -25.9330  -11.8840   20.5230 N   0  0  0  0  0  0  0  0  0  0  0  0
  -23.9080  -10.6380   21.0040 C   0  0  0  0  0  0  0  0  0  0  0  0
  -24.3200   -9.6780   21.9530 C   0  0  0  0  0  3  0  0  0  0  0  0
  -23.5880   -8.4830   22.1260 C   0  0  0  0  0  3  0  0  0  0  0  0
  -22.4300   -8.2380   21.3520 C   0  0  0  0  0  0  0  0  0  0  0  0
  -22.0390   -9.1860   20.3900 C   0  0  0  0  0  3  0  0  0  0  0  0
  -22.7700  -10.3730   20.2130 C   0  0  0  0  0  3  0  0  0  0  0  0
  -21.6730   -7.0930   21.4330 O   0  0  0  0  0  0  0  0  0  0  0  0
  -21.5870   -6.3630   22.5920 C   0  0  0  0  0  0  0  0  0  0  0  0
  -21.0980   -6.9240   23.7930 C   0  0  0  0  0  3  0  0  0  0  0  0
  -20.9630   -6.1210   24.9440 C   0  0  0  0  0  3  0  0  0  0  0  0
  -21.3100   -4.7580   24.8950 C   0  0  0  0  0  0  0  0  0  0  0  0
  -21.7920   -4.1940   23.6990 C   0  0  0  0  0  3  0  0  0  0  0  0
  -21.9300   -4.9950   22.5520 C   0  0  0  0  0  0  0  0  0  0  0  0
  -22.3740   -4.4450   21.3960 F   0  0  0  0  0  0  0  0  0  0  0  0
  -21.1770   -3.9820   25.9980 F   0  0  0  0  0  0  0  0  0  0  0  0
  -22.7490  -13.7190   21.0850 C   0  0  0  0  0  0  0  0  0  0  0  0
  -22.0110  -13.0300   21.9510 N   0  0  0  0  0  0  0  0  0  0  0  0
  -22.3130  -14.7290   20.5370 O   0  0  0  0  0  0  0  0  0  0  0  0
  -22.3700  -12.2160   22.4240 H   0  0  0  0  0  0  0  0  0  0  0  0
  -21.0630  -13.3250   22.1430 H   0  0  0  0  0  0  0  0  0  0  0  0
  -25.3680  -15.4110   20.3190 N   0  0  0  0  0  0  0  0  0  0  0  0
  -24.6050  -16.0720   20.4550 H   0  0  0  0  0  0  0  0  0  0  0  0
  -26.2060  -15.8510   19.9610 H   0  0  0  0  0  0  0  0  0  0  0  0
  -30.0040  -24.0270   20.9150 C   0  0  0  0  0  1  0  0  0  0  0  0
  -28.6790  -23.8170   20.1690 C   0  0  0  0  0  3  0  0  0  0  0  0
  -28.1240  -25.5080   20.5360 O   0  0  0  0  0  0  0  0  0  0  0  0
  -24.6510  -31.9220   23.2130 C   0  0  0  0  0  0  0  0  0  0  0  0
  -27.1910  -26.7550   20.2740 C   0  0  0  0  0  0  0  0  0  0  0  0
  -23.4810  -30.5040   21.5830 C   0  0  0  0  0  3  0  0  0  0  0  0
  -24.9400  -28.8490   20.1640 C   0  0  0  0  0  0  0  0  0  0  0  0
  -26.0580  -30.6350   21.4810 C   0  0  0  0  0  2  0  0  0  0  0  0
  -26.1240  -29.1900   20.8240 C   0  0  0  0  0  0  0  0  0  0  0  0
  -27.2190  -28.1650   20.8560 C   0  0  0  0  0  3  0  0  0  0  0  0
  -25.9930  -26.6570   19.5140 C   0  0  0  0  0  3  0  0  0  0  0  0
  -24.9220  -27.6150   19.4810 C   0  0  0  0  0  3  0  0  0  0  0  0
  -23.7270  -29.8030   20.2100 C   0  0  0  0  0  2  0  0  0  0  0  0
  -24.7550  -31.0550   22.1450 N   0  0  0  0  0  0  0  0  0  0  0  0
  -23.5540  -32.2230   23.7140 O   0  0  0  0  0  0  0  0  0  0  0  0
  -22.7650  -29.5300   22.5570 C   0  0  0  0  0  0  0  0  0  0  0  0
  -21.4330  -29.3730   22.4330 N   0  0  0  0  0  0  0  0  0  0  0  0
  -23.4240  -28.9150   23.3990 O   0  0  0  0  0  0  0  0  0  0  0  0
  -20.9500  -29.9140   21.7300 H   0  0  0  0  0  0  0  0  0  0  0  0
  -18.0560  -28.1430   22.9500 C   0  0  0  0  0  0  0  0  0  0  0  0
  -20.6140  -28.4350   23.2110 C   0  0  0  0  0  3  0  0  0  0  0  0
  -20.7300  -27.0010   22.6450 C   0  0  0  0  0  2  0  0  0  0  0  0
  -19.6320  -26.6660   21.6310 C   0  0  0  0  0  2  0  0  0  0  0  0
  -18.2450  -26.7980   22.2690 C   0  0  0  0  0  2  0  0  0  0  0  0
  -19.1660  -28.9200   23.3760 C   0  0  0  0  0  0  0  0  0  0  0  0
  -18.9300  -30.1770   23.9740 C   0  0  0  0  0  3  0  0  0  0  0  0
  -17.6190  -30.6590   24.1470 C   0  0  0  0  0  3  0  0  0  0  0  0
  -16.5240  -29.8780   23.7340 C   0  0  0  0  0  3  0  0  0  0  0  0
  -16.7450  -28.6220   23.1420 C   0  0  0  0  0  3  0  0  0  0  0  0
  -25.9050  -32.5910   23.8560 C   0  0  0  0  0  3  0  0  0  0  0  0
  -25.5700  -33.9940   24.1830 N   0  0  0  0  0  0  0  0  0  0  0  0
  -25.9040  -35.0610   23.4480 C   0  0  0  0  0  0  0  0  0  0  0  0
  -26.5840  -34.9700   22.4220 O   0  0  0  0  0  0  0  0  0  0  0  0
  -24.9650  -34.1370   24.9800 H   0  0  0  0  0  0  0  0  0  0  0  0
  -24.1730  -36.8580   23.1020 C   0  0  0  0  0  1  0  0  0  0  0  0
  -25.4120  -36.4480   23.9160 C   0  0  0  0  0  3  0  0  0  0  0  0
  -27.5350  -37.3400   24.7710 C   0  0  0  0  0  1  0  0  0  0  0  0
  -26.4420  -37.5070   23.8160 N   0  0  0  0  0  0  0  0  0  0  0  0
  -26.0340  -38.4250   23.9620 H   0  0  0  0  0  0  0  0  0  0  0  0
  -26.3980  -31.8460   25.1590 C   0  0  1  0  0  0  0  0  0  0  0  0
  -25.2850  -31.6170   26.2090 C   0  0  0  0  0  1  0  0  0  0  0  0
  -27.0010  -30.4660   24.8160 C   0  0  0  0  0  1  0  0  0  0  0  0
  -27.5330  -32.6580   25.8280 C   0  0  0  0  0  1  0  0  0  0  0  0
  1  3  1  0
  2  4  1  0
  2  1  2  0
  3  5  2  0
  4  6  2  0
  5 10  1  0
  6 19  1  0
  6  5  1  0
  7  1  1  0
  8  2  1  0
  9  4  1  0
 11 17  1  0
 11 19  1  0
 12 17  1  0
 13 14  1  0
 13 12  1  0
 15 14  1  0
 15 24  1  0
 15 16  1  0
 17 16  1  0
 18 11  2  0
 19 20  1  0
 21 22  2  0
 22 41  1  0
 23 22  1  0
 23 26  1  0
 24 21  1  0
 24 25  1  0
 25 23  2  0
 26 27  1  0
 27 28  2  0
 29 32  1  0
 29 28  1  0
 30 29  2  0
 31 30  1  0
 31 26  2  0
 32 33  1  0
 33 34  1  0
 34 35  2  0
 36 35  1  0
 36 40  1  0
 37 36  2  0
 38 33  2  0
 38 37  1  0
 39 38  1  0
 41 42  1  0
 42 45  1  0
 42 44  1  0
 43 41  2  0
 46 47  1  0
 46 21  1  0
 48 46  1  0
 50  3  1  0
 50 51  1  0
 50 49  1  0
 52 63  2  0
 53 51  1  0
 53 58  1  0
 54 62  1  0
 54 64  1  0
 55 61  1  0
 55 57  1  0
 56 62  1  0
 57 58  2  0
 57 56  1  0
 59 53  2  0
 60 59  1  0
 60 55  2  0
 61 54  1  0
 62 52  1  0
 64 66  2  0
 65 64  1  0
 67 65  1  0
 68 77  2  0
 68 73  1  0
 69 65  1  0
 69 73  1  0
 70 69  1  0
 71 72  1  0
 71 70  1  0
 72 68  1  0
 73 74  2  0
 74 75  1  0
 76 75  2  0
 77 76  1  0
 78 52  1  0
 78 79  1  0
 78 88  1  0
 79 82  1  0
 80 84  1  0
 80 79  1  0
 81 80  2  0
 84 83  1  0
 86 84  1  0
 86 87  1  0
 86 85  1  0
 88 91  1  1
 88 89  1  0
 90 88  1  0
M  ISO  4  11 100  19 100  50 101  51 101
M  END
>  <TORSDO>  (13) 
F 17

>  <SCORE>  (13) 
-16.807

>  <name>  (13) 
12

>  <ligand_id>  (13) 
12

>  <original_smiles>  (13) 
[H]c1c([H])c([H])c2c(c1[H])C([H])([H])C([H])([H])C([H])([H])C2([H])N([H])C(=O)C1([H])N(C(=O)C([H])(N([H])C(=O)C([H])(N([H])C([H])([H])[H])C([H])([H])[H])C(C([H])([H])[H])(C([H])([H])[H])C([H])([H])[H])C([H])([H])c2c([H])c(OC([H])(c3c(C([H])([H])[H])c(N([H])C(=O)N4C([H])([H])C([H])([H])C([H])([H])C([H])(n5nc(-c6c([H])c([H])c(Oc7c([H])c([H])c(F)c([H])c7F)c([H])c6[H])c(C(=O)N([H])[H])c5N([H])[H])C4([H])[H])c(C([H])([H])[H])c(C([H])([H])[H])c3C([H])([H])[H])C([H])([H])[H])c([H])c([H])c2C1([H])[H]

>  <smiles>  (13) 
[H]c1c([H])c([H])c2c(c1[H])C([H])([H])C([H])([H])C([H])([H])C2([H])N([H])C(=O)C1([H])N(C(=O)C([H])(N([H])C(=O)C([H])(N([H])C([H])([H])[H])C([H])([H])[H])C(C([H])([H])[H])(C([H])([H])[H])C([H])([H])[H])C([H])([H])c2c([H])c(OC([H])(c3c(C([H])([H])[H])c(N([H])C(=O)N4C([H])([H])C([H])([H])C([H])([H])C([H])(n5nc(-c6c([H])c([H])c(Oc7c([H])c([H])c(F)c([H])c7F)c([H])c6[H])c(C(=O)N([H])[H])c5N([H])[H])C4([H])[H])c(C([H])([H])[H])c(C([H])([H])[H])c3C([H])([H])[H])C([H])([H])[H])c([H])c([H])c2C1([H])[H]

$$$$
13:0:0
     RDKit          3D

 91 99  0  0  1  0  0  0  0  0999 V2000
  -29.9630  -19.0640   19.8160 C   0  0  0  0  0  3  0  0  0  0  0  0
  -29.7960  -20.3420   20.5720 C   0  0  0  0  0  0  0  0  0  0  0  0
  -30.6010  -18.9950   22.4950 C   0  0  0  0  0  0  0  0  0  0  0  0
  -30.4390  -17.7400   20.3510 C   0  0  0  0  0  0  0  0  0  0  0  0
  -30.1310  -20.2130   21.9340 C   0  0  0  0  0  0  0  0  0  0  0  0
  -30.7610  -17.7980   21.7350 C   0  0  0  0  0  0  0  0  0  0  0  0
  -30.9580  -18.9760   23.9770 C   0  0  0  0  0  1  0  0  0  0  0  0
  -30.0430  -21.3140   22.7190 F   0  0  0  0  0  0  0  0  0  0  0  0
  -31.3170  -16.3810   22.5650 Cl  0  0  0  0  0  0  0  0  0  0  0  0
  -31.1530  -15.1100   19.8400 C   0  0  0  0  0  0  0  0  0  0  0  0
  -30.8510  -12.7620   18.8900 C   0  0  0  0  0  2  0  0  0  0  0  0
  -29.8520  -12.7100   17.7090 C   0  0  0  0  0  2  0  0  0  0  0  0
  -28.3980  -12.6170   18.2150 C   0  0  0  0  0  2  0  0  0  0  0  0
  -28.1040  -13.5660   19.4080 C   0  0  0  0  0  3  0  0  0  0  0  0
  -29.2170  -13.5320   20.4710 C   0  0  0  0  0  2  0  0  0  0  0  0
  -30.4600  -13.8940   19.7810 N   0  0  0  0  0  0  0  0  0  0  0  0
  -32.3710  -15.0400   19.6370 O   0  0  0  0  0  0  0  0  0  0  0  0
  -30.1460  -16.5370   18.1920 C   0  0  0  0  0  1  0  0  0  0  0  0
  -30.4790  -16.3720   19.6110 N   0  0  0  0  0  0  0  0  0  0  0  0
  -25.8160  -14.2780   20.2980 C   0  0  0  0  0  0  0  0  0  0  0  0
  -24.7220  -13.5640   20.7050 C   0  0  0  0  0  0  0  0  0  0  0  0
  -25.0950  -12.1870   20.6230 C   0  0  0  0  0  0  0  0  0  0  0  0
  -26.7830  -13.3400   19.9820 N   0  0  0  0  0  0  0  0  0  0  0  0
  -26.3640  -12.0750   20.2470 N   0  0  0  0  0  0  0  0  0  0  0  0
  -24.2980  -10.9700   20.8230 C   0  0  0  0  0  0  0  0  0  0  0  0
  -24.7030   -9.9590   21.7210 C   0  0  0  0  0  3  0  0  0  0  0  0
  -23.9080   -8.8080   21.9100 C   0  0  0  0  0  3  0  0  0  0  0  0
  -22.6920   -8.6600   21.2000 C   0  0  0  0  0  0  0  0  0  0  0  0
  -22.3060   -9.6590   20.2880 C   0  0  0  0  0  3  0  0  0  0  0  0
  -23.1010  -10.8020   20.0970 C   0  0  0  0  0  3  0  0  0  0  0  0
  -21.8680   -7.5660   21.3000 O   0  0  0  0  0  0  0  0  0  0  0  0
  -21.8090   -6.8120   22.4440 C   0  0  0  0  0  0  0  0  0  0  0  0
  -21.4770   -7.3790   23.6950 C   0  0  0  0  0  3  0  0  0  0  0  0
  -21.3600   -6.5550   24.8320 C   0  0  0  0  0  3  0  0  0  0  0  0
  -21.5650   -5.1680   24.7220 C   0  0  0  0  0  0  0  0  0  0  0  0
  -21.8910   -4.6000   23.4770 C   0  0  0  0  0  3  0  0  0  0  0  0
  -22.0090   -5.4210   22.3410 C   0  0  0  0  0  0  0  0  0  0  0  0
  -22.3020   -4.8660   21.1400 F   0  0  0  0  0  0  0  0  0  0  0  0
  -21.4450   -4.3750   25.8130 F   0  0  0  0  0  0  0  0  0  0  0  0
  -23.3740  -14.1240   21.0540 C   0  0  0  0  0  0  0  0  0  0  0  0
  -22.6500  -13.4650   21.9510 N   0  0  0  0  0  0  0  0  0  0  0  0
  -22.9760  -15.1810   20.5650 O   0  0  0  0  0  0  0  0  0  0  0  0
  -22.9860  -12.6100   22.3680 H   0  0  0  0  0  0  0  0  0  0  0  0
  -21.7470  -13.8230   22.2270 H   0  0  0  0  0  0  0  0  0  0  0  0
  -26.0620  -15.6380   20.1440 N   0  0  0  0  0  0  0  0  0  0  0  0
  -25.3520  -16.3410   20.3200 H   0  0  0  0  0  0  0  0  0  0  0  0
  -26.9310  -16.0310   19.8030 H   0  0  0  0  0  0  0  0  0  0  0  0
  -29.5110  -21.8970   20.0340 C   0  0  0  0  0  2  0  0  0  0  0  0
  -28.3100  -23.0290   20.4670 C   0  0  0  0  0  2  0  0  0  0  0  0
  -28.4330  -24.6480   21.0090 C   0  0  0  0  0  2  0  0  0  0  0  0
  -28.4240  -26.0680   20.3440 O   0  0  0  0  0  0  0  0  0  0  0  0
  -24.6170  -31.7600   23.2180 C   0  0  0  0  0  0  0  0  0  0  0  0
  -27.3290  -27.0100   20.3540 C   0  0  0  0  0  0  0  0  0  0  0  0
  -23.4800  -30.3230   21.5690 C   0  0  0  0  0  3  0  0  0  0  0  0
  -24.9840  -28.7310   20.2200 C   0  0  0  0  0  0  0  0  0  0  0  0
  -26.0340  -30.6140   21.4690 C   0  0  0  0  0  2  0  0  0  0  0  0
  -26.1420  -29.2060   20.8500 C   0  0  0  0  0  0  0  0  0  0  0  0
  -27.3190  -28.3650   20.8900 C   0  0  0  0  0  3  0  0  0  0  0  0
  -26.1420  -26.6310   19.6990 C   0  0  0  0  0  3  0  0  0  0  0  0
  -24.9970  -27.4580   19.6300 C   0  0  0  0  0  3  0  0  0  0  0  0
  -23.7480  -29.6210   20.2100 C   0  0  0  0  0  2  0  0  0  0  0  0
  -24.7290  -30.9230   22.1400 N   0  0  0  0  0  0  0  0  0  0  0  0
  -23.5140  -32.0400   23.7110 O   0  0  0  0  0  0  0  0  0  0  0  0
  -22.7830  -29.3270   22.5290 C   0  0  0  0  0  0  0  0  0  0  0  0
  -21.4660  -29.1220   22.3540 N   0  0  0  0  0  0  0  0  0  0  0  0
  -23.4340  -28.7380   23.3960 O   0  0  0  0  0  0  0  0  0  0  0  0
  -20.9970  -29.6500   21.6300 H   0  0  0  0  0  0  0  0  0  0  0  0
  -18.1070  -27.8120   22.7110 C   0  0  0  0  0  0  0  0  0  0  0  0
  -20.6350  -28.1840   23.1130 C   0  0  0  0  0  3  0  0  0  0  0  0
  -20.8230  -26.7360   22.6060 C   0  0  0  0  0  2  0  0  0  0  0  0
  -19.7950  -26.3310   21.5430 C   0  0  0  0  0  2  0  0  0  0  0  0
  -18.3730  -26.4450   22.1000 C   0  0  0  0  0  2  0  0  0  0  0  0
  -19.1690  -28.6340   23.1720 C   0  0  0  0  0  0  0  0  0  0  0  0
  -18.8680  -29.9070   23.7010 C   0  0  0  0  0  3  0  0  0  0  0  0
  -17.5360  -30.3600   23.7740 C   0  0  0  0  0  3  0  0  0  0  0  0
  -16.4890  -29.5360   23.3280 C   0  0  0  0  0  3  0  0  0  0  0  0
  -16.7740  -28.2640   22.8030 C   0  0  0  0  0  3  0  0  0  0  0  0
  -25.8690  -32.4200   23.8720 C   0  0  0  0  0  3  0  0  0  0  0  0
  -26.3540  -31.6750   25.1760 C   0  0  1  0  0  0  0  0  0  0  0  0
  -25.2320  -31.4450   26.2150 C   0  0  0  0  0  1  0  0  0  0  0  0
  -26.9610  -30.2970   24.8290 C   0  0  0  0  0  1  0  0  0  0  0  0
  -27.4770  -32.4910   25.8600 C   0  0  0  0  0  1  0  0  0  0  0  0
  -25.5310  -33.8190   24.1780 N   0  0  0  0  0  0  0  0  0  0  0  0
  -25.8840  -34.8740   23.4320 C   0  0  0  0  0  0  0  0  0  0  0  0
  -26.5960  -34.7710   22.4280 O   0  0  0  0  0  0  0  0  0  0  0  0
  -24.9020  -33.9700   24.9540 H   0  0  0  0  0  0  0  0  0  0  0  0
  -24.1490  -36.6490   23.0140 C   0  0  0  0  0  1  0  0  0  0  0  0
  -25.3700  -36.2610   23.8650 C   0  0  0  0  0  3  0  0  0  0  0  0
  -27.4730  -37.1720   24.7480 C   0  0  0  0  0  1  0  0  0  0  0  0
  -26.3950  -37.3250   23.7750 N   0  0  0  0  0  0  0  0  0  0  0  0
  -25.9760  -38.2410   23.9080 H   0  0  0  0  0  0  0  0  0  0  0  0
  1  4  2  0
  1  2  1  0
  2  5  2  0
  3  7  1  0
  4  6  1  0
  5  3  1  0
  5  8  1  0
  6  3  2  0
  6  9  1  0
 11 16  1  0
 12 13  1  0
 12 11  1  0
 14 13  1  0
 14 23  1  0
 14 15  1  0
 16 10  1  0
 16 15  1  0
 17 10  2  0
 18 19  1  0
 19 10  1  0
 19  4  1  0
 20 21  2  0
 21 40  1  0
 22 21  1  0
 22 25  1  0
 23 24  1  0
 23 20  1  0
 24 22  2  0
 25 26  1  0
 26 27  2  0
 28 31  1  0
 28 27  1  0
 29 28  2  0
 30 29  1  0
 30 25  2  0
 31 32  1  0
 32 33  1  0
 33 34  2  0
 35 34  1  0
 35 39  1  0
 36 35  2  0
 37 32  2  0
 37 36  1  0
 38 37  1  0
 40 41  1  0
 41 44  1  0
 41 43  1  0
 42 40  2  0
 45 20  1  0
 45 46  1  0
 47 45  1  0
 48 49  1  0
 48  2  1  0
 49 50  1  0
 51 53  1  0
 51 50  1  0
 52 63  2  0
 53 58  1  0
 54 62  1  0
 54 64  1  0
 55 57  1  0
 56 62  1  0
 57 58  2  0
 57 56  1  0
 59 53  2  0
 60 59  1  0
 60 55  2  0
 61 55  1  0
 61 54  1  0
 62 52  1  0
 64 66  2  0
 65 64  1  0
 67 65  1  0
 68 77  2  0
 68 73  1  0
 69 65  1  0
 69 73  1  0
 70 69  1  0
 71 72  1  0
 71 70  1  0
 72 68  1  0
 73 74  2  0
 74 75  1  0
 76 75  2  0
 77 76  1  0
 78 52  1  0
 78 83  1  0
 78 79  1  0
 79 82  1  1
 79 80  1  0
 81 79  1  0
 83 86  1  0
 84 88  1  0
 84 83  1  0
 85 84  2  0
 88 87  1  0
 90 88  1  0
 90 91  1  0
 90 89  1  0
M  ISO  4  10 100  19 100  50 101  51 101
M  END
>  <TORSDO>  (14) 
F 19

>  <SCORE>  (14) 
-13.202

>  <name>  (14) 
13

>  <ligand_id>  (14) 
13

>  <original_smiles>  (14) 
[H]c1c([H])c([H])c2c(c1[H])C([H])([H])C([H])([H])C([H])([H])C2([H])N([H])C(=O)C1([H])N(C(=O)C([H])(N([H])C(=O)C([H])(N([H])C([H])([H])[H])C([H])([H])[H])C(C([H])([H])[H])(C([H])([H])[H])C([H])([H])[H])C([H])([H])c2c([H])c(OC([H])([H])C([H])([H])C([H])([H])c3c([H])c(N(C(=O)N4C([H])([H])C([H])([H])C([H])([H])C([H])(n5nc(-c6c([H])c([H])c(Oc7c([H])c([H])c(F)c([H])c7F)c([H])c6[H])c(C(=O)N([H])[H])c5N([H])[H])C4([H])[H])C([H])([H])[H])c(Cl)c(C([H])([H])[H])c3F)c([H])c([H])c2C1([H])[H]

>  <smiles>  (14) 
[H]c1c([H])c([H])c2c(c1[H])C([H])([H])C([H])([H])C([H])([H])C2([H])N([H])C(=O)C1([H])N(C(=O)C([H])(N([H])C(=O)C([H])(N([H])C([H])([H])[H])C([H])([H])[H])C(C([H])([H])[H])(C([H])([H])[H])C([H])([H])[H])C([H])([H])c2c([H])c(OC([H])([H])C([H])([H])C([H])([H])c3c([H])c(N(C(=O)N4C([H])([H])C([H])([H])C([H])([H])C([H])(n5nc(-c6c([H])c([H])c(Oc7c([H])c([H])c(F)c([H])c7F)c([H])c6[H])c(C(=O)N([H])[H])c5N([H])[H])C4([H])[H])C([H])([H])[H])c(Cl)c(C([H])([H])[H])c3F)c([H])c([H])c2C1([H])[H]

$$$$
14:0:0
     RDKit          3D

 85 89  0  0  1  0  0  0  0  0999 V2000
  -28.8840  -23.5710   18.5340 C   0  0  0  0  0  1  0  0  0  0  0  0
  -28.2110  -23.3260   19.8940 C   0  0  0  0  0  2  0  0  0  0  0  0
  -26.7140  -23.0030   19.7180 C   0  0  0  0  0  2  0  0  0  0  0  0
  -26.4180  -21.5920   18.6520 Cl  0  0  0  0  0  0  0  0  0  0  0  0
  -28.1030  -25.1770   20.3220 O   0  0  0  0  0  1  0  0  0  0  0  0
  -24.6020  -31.8170   23.0900 C   0  0  0  0  0  0  0  0  0  0  0  0
  -27.1810  -26.5200   20.1720 C   0  0  0  0  0  0  0  0  0  0  0  0
  -23.4480  -30.3970   21.4520 C   0  0  0  0  0  3  0  0  0  0  0  0
  -24.9280  -28.7110   20.0620 C   0  0  0  0  0  0  0  0  0  0  0  0
  -26.0330  -30.4760   21.3940 C   0  0  0  0  0  2  0  0  0  0  0  0
  -26.1070  -29.0130   20.7500 C   0  0  0  0  0  0  0  0  0  0  0  0
  -27.1960  -27.9490   20.7790 C   0  0  0  0  0  3  0  0  0  0  0  0
  -25.9940  -26.5310   19.3720 C   0  0  0  0  0  3  0  0  0  0  0  0
  -24.9360  -27.5080   19.3340 C   0  0  0  0  0  3  0  0  0  0  0  0
  -23.7180  -29.6800   20.0910 C   0  0  0  0  0  2  0  0  0  0  0  0
  -24.7210  -30.9350   22.0310 N   0  0  0  0  0  0  0  0  0  0  0  0
  -23.4990  -32.1260   23.5760 O   0  0  0  0  0  0  0  0  0  0  0  0
  -22.7050  -29.4430   22.4270 C   0  0  0  0  0  0  0  0  0  0  0  0
  -21.3680  -29.3140   22.3100 N   0  0  0  0  0  0  0  0  0  0  0  0
  -23.3490  -28.8110   23.2680 O   0  0  0  0  0  0  0  0  0  0  0  0
  -20.8940  -29.8760   21.6160 H   0  0  0  0  0  0  0  0  0  0  0  0
  -17.9630  -28.1650   22.8750 C   0  0  0  0  0  0  0  0  0  0  0  0
  -20.5340  -28.3840   23.0840 C   0  0  0  0  0  3  0  0  0  0  0  0
  -20.5920  -26.9560   22.4890 C   0  0  0  0  0  2  0  0  0  0  0  0
  -19.4660  -26.6710   21.4910 C   0  0  0  0  0  2  0  0  0  0  0  0
  -18.1010  -26.8280   22.1650 C   0  0  0  0  0  2  0  0  0  0  0  0
  -19.1040  -28.9030   23.2920 C   0  0  0  0  0  0  0  0  0  0  0  0
  -18.9150  -30.1510   23.9210 C   0  0  0  0  0  3  0  0  0  0  0  0
  -17.6210  -30.6630   24.1350 C   0  0  0  0  0  3  0  0  0  0  0  0
  -16.4960  -29.9250   23.7290 C   0  0  0  0  0  3  0  0  0  0  0  0
  -16.6680  -28.6770   23.1050 C   0  0  0  0  0  3  0  0  0  0  0  0
  -25.8470  -32.4900   23.7450 C   0  0  0  0  0  3  0  0  0  0  0  0
  -26.3180  -31.7600   25.0650 C   0  0  1  0  0  0  0  0  0  0  0  0
  -25.1890  -31.5510   26.1010 C   0  0  0  0  0  1  0  0  0  0  0  0
  -26.9170  -30.3730   24.7480 C   0  0  0  0  0  1  0  0  0  0  0  0
  -27.4460  -32.5740   25.7430 C   0  0  0  0  0  1  0  0  0  0  0  0
  -25.5120  -33.8970   24.0550 N   0  0  0  0  0  0  0  0  0  0  0  0
  -25.8620  -34.9590   23.3160 C   0  0  0  0  0  0  0  0  0  0  0  0
  -26.5530  -34.8570   22.3000 O   0  0  0  0  0  0  0  0  0  0  0  0
  -24.9020  -34.0500   24.8440 H   0  0  0  0  0  0  0  0  0  0  0  0
  -24.1510  -36.7740   22.9370 C   0  0  0  0  0  1  0  0  0  0  0  0
  -25.3730  -36.3530   23.7700 C   0  0  0  0  0  3  0  0  0  0  0  0
  -27.4870  -37.2410   24.6550 C   0  0  0  0  0  1  0  0  0  0  0  0
  -26.4120  -37.4050   23.6800 N   0  0  0  0  0  0  0  0  0  0  0  0
  -26.0050  -38.3260   23.8120 H   0  0  0  0  0  0  0  0  0  0  0  0
  -28.8580  -21.3940   20.4410 C   0  0  0  0  0 15  0  0  0  0  0  0
  -29.3820  -19.4480   19.8330 C   0  0  0  0  0  1  0  0  0  0  0  0
  -30.1950  -16.0990   20.0900 C   0  0  0  0  0  0  0  0  0  0  0  0
  -30.3780  -13.4540   19.3260 C   0  0  0  0  0  2  0  0  0  0  0  0
  -29.5150  -12.8850   18.1500 C   0  0  0  0  0  2  0  0  0  0  0  0
  -28.1230  -12.4580   18.6250 C   0  0  0  0  0  2  0  0  0  0  0  0
  -27.5740  -13.4690   19.6530 C   0  0  0  0  0  3  0  0  0  0  0  0
  -28.5950  -13.9370   20.7320 C   0  0  0  0  0  2  0  0  0  0  0  0
  -29.7060  -14.6670   20.0450 N   0  0  0  0  0  0  0  0  0  0  0  0
  -31.4220  -15.9730   19.8710 O   0  0  0  0  0  0  0  0  0  0  0  0
  -29.4580  -17.5700   20.1980 N   0  0  0  0  0  0  0  0  0  0  0  0
  -28.5130  -17.3230   20.4560 H   0  0  0  0  0  0  0  0  0  0  0  0
  -25.2260  -13.9440   20.4670 C   0  0  0  0  0  0  0  0  0  0  0  0
  -24.1800  -13.1490   20.8410 C   0  0  0  0  0  0  0  0  0  0  0  0
  -24.6640  -11.8060   20.7900 C   0  0  0  0  0  0  0  0  0  0  0  0
  -26.2770  -13.0910   20.2010 N   0  0  0  0  0  0  0  0  0  0  0  0
  -25.9550  -11.7930   20.4590 N   0  0  0  0  0  0  0  0  0  0  0  0
  -23.9440  -10.5350   20.9800 C   0  0  0  0  0  0  0  0  0  0  0  0
  -24.3700   -9.5740   21.9210 C   0  0  0  0  0  3  0  0  0  0  0  0
  -23.6440   -8.3760   22.1020 C   0  0  0  0  0  3  0  0  0  0  0  0
  -22.4760   -8.1320   21.3430 C   0  0  0  0  0  0  0  0  0  0  0  0
  -22.0670   -9.0820   20.3910 C   0  0  0  0  0  3  0  0  0  0  0  0
  -22.7950  -10.2700   20.2080 C   0  0  0  0  0  3  0  0  0  0  0  0
  -21.7210   -6.9870   21.4340 O   0  0  0  0  0  0  0  0  0  0  0  0
  -21.6450   -6.2650   22.5980 C   0  0  0  0  0  0  0  0  0  0  0  0
  -21.1540   -6.8290   23.7960 C   0  0  0  0  0  3  0  0  0  0  0  0
  -21.0270   -6.0320   24.9510 C   0  0  0  0  0  3  0  0  0  0  0  0
  -21.3810   -4.6710   24.9090 C   0  0  0  0  0  0  0  0  0  0  0  0
  -21.8620   -4.1040   23.7160 C   0  0  0  0  0  3  0  0  0  0  0  0
  -21.9910   -4.8980   22.5630 C   0  0  0  0  0  0  0  0  0  0  0  0
  -22.4360   -4.3420   21.4100 F   0  0  0  0  0  0  0  0  0  0  0  0
  -21.2520   -3.9020   26.0150 F   0  0  0  0  0  0  0  0  0  0  0  0
  -22.7820  -13.6130   21.1240 C   0  0  0  0  0  0  0  0  0  0  0  0
  -22.0630  -12.9040   21.9870 N   0  0  0  0  0  0  0  0  0  0  0  0
  -22.3370  -14.6410   20.6160 O   0  0  0  0  0  0  0  0  0  0  0  0
  -22.4360  -12.0710   22.4170 H   0  0  0  0  0  0  0  0  0  0  0  0
  -21.1270  -13.2000   22.2240 H   0  0  0  0  0  0  0  0  0  0  0  0
  -25.3670  -15.3180   20.2960 N   0  0  0  0  0  0  0  0  0  0  0  0
  -24.5950  -15.9620   20.4280 H   0  0  0  0  0  0  0  0  0  0  0  0
  -26.1950  -15.7640   19.9250 H   0  0  0  0  0  0  0  0  0  0  0  0
  1  2  1  0
  3  2  1  0
  4  3  1  0
  6 17  2  0
  7  5  1  0
  7 12  1  0
  8 16  1  0
  8 18  1  0
  9 15  1  0
  9 11  1  0
 10 16  1  0
 11 12  2  0
 11 10  1  0
 13  7  2  0
 14 13  1  0
 14  9  2  0
 15  8  1  0
 16  6  1  0
 18 20  2  0
 19 18  1  0
 21 19  1  0
 22 31  2  0
 22 27  1  0
 23 19  1  0
 23 27  1  0
 24 23  1  0
 25 26  1  0
 25 24  1  0
 26 22  1  0
 27 28  2  0
 28 29  1  0
 30 29  2  0
 31 30  1  0
 32  6  1  0
 32 37  1  0
 32 33  1  0
 33 36  1  1
 33 34  1  0
 35 33  1  0
 37 40  1  0
 38 42  1  0
 38 37  1  0
 39 38  2  0
 42 41  1  0
 44 42  1  0
 44 45  1  0
 44 43  1  0
 47 56  1  0
 48 56  1  0
 49 54  1  0
 50 51  1  0
 50 49  1  0
 52 51  1  0
 52 61  1  0
 52 53  1  0
 54 48  1  0
 54 53  1  0
 55 48  2  0
 56 57  1  0
 58 59  2  0
 59 78  1  0
 60 59  1  0
 60 63  1  0
 61 62  1  0
 61 58  1  0
 62 60  2  0
 63 64  1  0
 64 65  2  0
 66 69  1  0
 66 65  1  0
 67 66  2  0
 68 67  1  0
 68 63  2  0
 69 70  1  0
 70 71  1  0
 71 72  2  0
 73 72  1  0
 73 77  1  0
 74 73  2  0
 75 70  2  0
 75 74  1  0
 76 75  1  0
 78 79  1  0
 79 82  1  0
 79 81  1  0
 80 78  2  0
 83 84  1  0
 83 58  1  0
 85 83  1  0
M  ISO  4   2 101   5 101  48 100  56 100
M  END
>  <TORSDO>  (15) 
F 19

>  <SCORE>  (15) 
-15.810

>  <name>  (15) 
14

>  <ligand_id>  (15) 
14

>  <original_smiles>  (15) 
[H]c1c([H])c([H])c2c(c1[H])C([H])([H])C([H])([H])C([H])([H])C2([H])N([H])C(=O)C1([H])N(C(=O)C([H])(N([H])C(=O)C([H])(N([H])C([H])([H])[H])C([H])([H])[H])C(C([H])([H])[H])(C([H])([H])[H])C([H])([H])[H])C([H])([H])c2c([H])c(OC(C([H])([H])[H])(C([H])([H])Cl)C([H])([H])C([H])([H])N([H])C(=O)N3C([H])([H])C([H])([H])C([H])([H])C([H])(n4nc(-c5c([H])c([H])c(Oc6c([H])c([H])c(F)c([H])c6F)c([H])c5[H])c(C(=O)N([H])[H])c4N([H])[H])C3([H])[H])c([H])c([H])c2C1([H])[H]

>  <smiles>  (15) 
[H]c1c([H])c([H])c2c(c1[H])C([H])([H])C([H])([H])C([H])([H])C2([H])N([H])C(=O)C1([H])N(C(=O)C([H])(N([H])C(=O)C([H])(N([H])C([H])([H])[H])C([H])([H])[H])C(C([H])([H])[H])(C([H])([H])[H])C([H])([H])[H])C([H])([H])c2c([H])c(OC(C([H])([H])[H])(C([H])([H])Cl)C([H])([H])C([H])([H])N([H])C(=O)N3C([H])([H])C([H])([H])C([H])([H])C([H])(n4nc(-c5c([H])c([H])c(Oc6c([H])c([H])c(F)c([H])c6F)c([H])c5[H])c(C(=O)N([H])[H])c4N([H])[H])C3([H])[H])c([H])c([H])c2C1([H])[H]

$$$$
15:0:0
     RDKit          3D

 89 97  0  0  1  0  0  0  0  0999 V2000
  -30.9000  -19.5250   20.3370 C   0  0  0  0  0  3  0  0  0  0  0  0
  -28.9620  -21.9800   20.1700 C   0  0  0  0  0  0  0  0  0  0  0  0
  -28.6670  -20.3640   20.1110 C   0  0  0  0  0  0  0  0  0  0  0  0
  -30.3820  -22.0600   20.3250 C   0  0  0  0  0  0  0  0  0  0  0  0
  -29.5940  -19.0140   20.1870 C   0  0  0  0  0  0  0  0  0  0  0  0
  -31.2600  -20.9120   20.4040 C   0  0  0  0  0  0  0  0  0  0  0  0
  -27.1980  -20.0360   19.9510 C   0  0  0  0  0  1  0  0  0  0  0  0
  -31.0470  -23.4310   20.4110 C   0  0  0  0  0  1  0  0  0  0  0  0
  -32.9570  -21.1920   20.6040 Cl  0  0  0  0  0  0  0  0  0  0  0  0
  -30.2430  -15.8640   20.0410 C   0  0  0  0  0  0  0  0  0  0  0  0
  -30.3630  -13.3040   19.1710 C   0  0  0  0  0  2  0  0  0  0  0  0
  -29.4330  -12.8480   18.0050 C   0  0  0  0  0  2  0  0  0  0  0  0
  -28.0470  -12.4470   18.5250 C   0  0  0  0  0  2  0  0  0  0  0  0
  -27.5590  -13.4310   19.6100 C   0  0  0  0  0  3  0  0  0  0  0  0
  -28.6300  -13.7860   20.6720 C   0  0  0  0  0  2  0  0  0  0  0  0
  -29.7400  -14.4740   19.9620 N   0  0  0  0  0  0  0  0  0  0  0  0
  -31.4740  -15.7890   19.8320 O   0  0  0  0  0  0  0  0  0  0  0  0
  -29.4670  -17.2520   20.1520 N   0  0  0  0  0  0  0  0  0  0  0  0
  -28.4940  -16.9980   20.2310 H   0  0  0  0  0  0  0  0  0  0  0  0
  -25.2420  -13.9110   20.5190 C   0  0  0  0  0  0  0  0  0  0  0  0
  -24.2060  -13.1110   20.9090 C   0  0  0  0  0  0  0  0  0  0  0  0
  -24.6800  -11.7670   20.8030 C   0  0  0  0  0  0  0  0  0  0  0  0
  -26.2760  -13.0580   20.1880 N   0  0  0  0  0  0  0  0  0  0  0  0
  -25.9570  -11.7570   20.4240 N   0  0  0  0  0  0  0  0  0  0  0  0
  -23.9670  -10.4940   20.9790 C   0  0  0  0  0  0  0  0  0  0  0  0
  -24.4280   -9.5050   21.8750 C   0  0  0  0  0  3  0  0  0  0  0  0
  -23.7070   -8.3020   22.0440 C   0  0  0  0  0  3  0  0  0  0  0  0
  -22.5140   -8.0790   21.3190 C   0  0  0  0  0  0  0  0  0  0  0  0
  -22.0700   -9.0580   20.4120 C   0  0  0  0  0  3  0  0  0  0  0  0
  -22.7910  -10.2520   20.2410 C   0  0  0  0  0  3  0  0  0  0  0  0
  -21.7630   -6.9310   21.4010 O   0  0  0  0  0  0  0  0  0  0  0  0
  -21.7330   -6.1700   22.5430 C   0  0  0  0  0  0  0  0  0  0  0  0
  -21.2660   -6.6870   23.7700 C   0  0  0  0  0  3  0  0  0  0  0  0
  -21.1860   -5.8510   24.9020 C   0  0  0  0  0  3  0  0  0  0  0  0
  -21.5620   -4.4990   24.8060 C   0  0  0  0  0  0  0  0  0  0  0  0
  -22.0230   -3.9800   23.5830 C   0  0  0  0  0  3  0  0  0  0  0  0
  -22.1040   -4.8130   22.4540 C   0  0  0  0  0  0  0  0  0  0  0  0
  -22.5270   -4.3020   21.2730 F   0  0  0  0  0  0  0  0  0  0  0  0
  -21.4790   -3.6930   25.8910 F   0  0  0  0  0  0  0  0  0  0  0  0
  -22.8210  -13.5700   21.2580 C   0  0  0  0  0  0  0  0  0  0  0  0
  -22.1420  -12.8510   22.1420 N   0  0  0  0  0  0  0  0  0  0  0  0
  -22.3540  -14.6050   20.7830 O   0  0  0  0  0  0  0  0  0  0  0  0
  -22.5360  -12.0140   22.5470 H   0  0  0  0  0  0  0  0  0  0  0  0
  -21.2150  -13.1390   22.4200 H   0  0  0  0  0  0  0  0  0  0  0  0
  -25.3840  -15.2890   20.3820 N   0  0  0  0  0  0  0  0  0  0  0  0
  -24.6110  -15.9260   20.5440 H   0  0  0  0  0  0  0  0  0  0  0  0
  -26.1950  -15.7420   19.9850 H   0  0  0  0  0  0  0  0  0  0  0  0
  -27.9820  -23.6310   20.0610 C   0  0  0  0  0  2  0  0  0  0  0  0
  -28.1870  -25.4270   20.2080 O   0  0  0  0  0  0  0  0  0  0  0  0
  -24.6930  -31.8230   23.1800 C   0  0  0  0  0  0  0  0  0  0  0  0
  -27.2320  -26.6910   20.1680 C   0  0  0  0  0  0  0  0  0  0  0  0
  -23.5210  -30.4470   21.5170 C   0  0  0  0  0  3  0  0  0  0  0  0
  -24.9790  -28.7920   20.1060 C   0  0  0  0  0  0  0  0  0  0  0  0
  -26.1070  -30.5550   21.4330 C   0  0  0  0  0  2  0  0  0  0  0  0
  -26.1730  -29.1200   20.7610 C   0  0  0  0  0  0  0  0  0  0  0  0
  -27.2790  -28.1020   20.7550 C   0  0  0  0  0  3  0  0  0  0  0  0
  -26.0030  -26.5990   19.4570 C   0  0  0  0  0  3  0  0  0  0  0  0
  -24.9400  -27.5590   19.4300 C   0  0  0  0  0  3  0  0  0  0  0  0
  -23.7790  -29.7580   20.1440 C   0  0  0  0  0  2  0  0  0  0  0  0
  -24.7990  -30.9760   22.0960 N   0  0  0  0  0  0  0  0  0  0  0  0
  -23.5930  -32.1240   23.6780 O   0  0  0  0  0  0  0  0  0  0  0  0
  -22.7840  -29.4680   22.4710 C   0  0  0  0  0  0  0  0  0  0  0  0
  -21.4530  -29.3140   22.3220 N   0  0  0  0  0  0  0  0  0  0  0  0
  -23.4230  -28.8440   23.3210 O   0  0  0  0  0  0  0  0  0  0  0  0
  -20.9850  -29.8670   21.6190 H   0  0  0  0  0  0  0  0  0  0  0  0
  -18.0570  -28.1000   22.7870 C   0  0  0  0  0  0  0  0  0  0  0  0
  -20.6150  -28.3700   23.0760 C   0  0  0  0  0  3  0  0  0  0  0  0
  -20.7230  -26.9430   22.4900 C   0  0  0  0  0  2  0  0  0  0  0  0
  -19.6320  -26.6310   21.4600 C   0  0  0  0  0  2  0  0  0  0  0  0
  -18.2440  -26.7630   22.0920 C   0  0  0  0  0  2  0  0  0  0  0  0
  -19.1700  -28.8630   23.2350 C   0  0  0  0  0  0  0  0  0  0  0  0
  -18.9370  -30.1110   23.8520 C   0  0  0  0  0  3  0  0  0  0  0  0
  -17.6280  -30.5990   24.0210 C   0  0  0  0  0  3  0  0  0  0  0  0
  -16.5310  -29.8350   23.5860 C   0  0  0  0  0  3  0  0  0  0  0  0
  -16.7460  -28.5870   22.9750 C   0  0  0  0  0  3  0  0  0  0  0  0
  -25.9470  -32.4680   23.8450 C   0  0  0  0  0  3  0  0  0  0  0  0
  -25.6230  -33.8690   24.1860 N   0  0  0  0  0  0  0  0  0  0  0  0
  -25.9290  -34.9390   23.4390 C   0  0  0  0  0  0  0  0  0  0  0  0
  -26.5670  -34.8500   22.3870 O   0  0  0  0  0  0  0  0  0  0  0  0
  -25.0510  -34.0090   25.0050 H   0  0  0  0  0  0  0  0  0  0  0  0
  -24.1680  -36.7260   23.1960 C   0  0  0  0  0  1  0  0  0  0  0  0
  -25.4570  -36.3240   23.9320 C   0  0  0  0  0  3  0  0  0  0  0  0
  -27.6190  -37.2430   24.6550 C   0  0  0  0  0  1  0  0  0  0  0  0
  -26.4710  -37.3900   23.7640 N   0  0  0  0  0  0  0  0  0  0  0  0
  -26.0610  -38.3060   23.9240 H   0  0  0  0  0  0  0  0  0  0  0  0
  -26.4180  -31.7020   25.1450 C   0  0  1  0  0  0  0  0  0  0  0  0
  -25.2920  -31.4810   26.1830 C   0  0  0  0  0  1  0  0  0  0  0  0
  -27.0020  -30.3170   24.7920 C   0  0  0  0  0  1  0  0  0  0  0  0
  -27.5550  -32.4920   25.8350 C   0  0  0  0  0  1  0  0  0  0  0  0
  1  6  1  0
  2  4  1  0
  3  2  2  0
  3  5  1  0
  4  6  2  0
  4  8  1  0
  5  1  2  0
  6  9  1  0
  7  3  1  0
 10 18  1  0
 11 16  1  0
 12 13  1  0
 12 11  1  0
 14 13  1  0
 14 23  1  0
 14 15  1  0
 16 10  1  0
 16 15  1  0
 17 10  2  0
 18  5  1  0
 18 19  1  0
 20 21  2  0
 21 40  1  0
 22 21  1  0
 22 25  1  0
 23 24  1  0
 23 20  1  0
 24 22  2  0
 25 26  1  0
 26 27  2  0
 28 31  1  0
 28 27  1  0
 29 28  2  0
 30 29  1  0
 30 25  2  0
 31 32  1  0
 32 33  1  0
 33 34  2  0
 35 34  1  0
 35 39  1  0
 36 35  2  0
 37 32  2  0
 37 36  1  0
 38 37  1  0
 40 41  1  0
 41 44  1  0
 41 43  1  0
 42 40  2  0
 45 20  1  0
 45 46  1  0
 47 45  1  0
 48  2  1  0
 48 49  1  0
 50 61  2  0
 51 49  1  0
 51 56  1  0
 52 60  1  0
 52 62  1  0
 53 59  1  0
 53 55  1  0
 54 60  1  0
 55 54  1  0
 56 55  2  0
 57 51  2  0
 58 57  1  0
 58 53  2  0
 59 52  1  0
 60 50  1  0
 62 64  2  0
 63 62  1  0
 65 63  1  0
 66 75  2  0
 66 71  1  0
 67 63  1  0
 67 71  1  0
 68 67  1  0
 69 70  1  0
 69 68  1  0
 70 66  1  0
 71 72  2  0
 72 73  1  0
 74 73  2  0
 75 74  1  0
 76 50  1  0
 76 77  1  0
 76 86  1  0
 77 80  1  0
 78 82  1  0
 78 77  1  0
 79 78  2  0
 82 81  1  0
 84 85  1  0
 84 82  1  0
 84 83  1  0
 86 89  1  1
 86 87  1  0
 88 86  1  0
M  ISO  4  10 100  18 100  48 101  49 101
M  END
>  <TORSDO>  (16) 
F 17

>  <SCORE>  (16) 
-16.276

>  <name>  (16) 
15

>  <ligand_id>  (16) 
15

>  <original_smiles>  (16) 
[H]c1c([H])c([H])c2c(c1[H])C([H])([H])C([H])([H])C([H])([H])C2([H])N([H])C(=O)C1([H])N(C(=O)C([H])(N([H])C(=O)C([H])(N([H])C([H])([H])[H])C([H])([H])[H])C(C([H])([H])[H])(C([H])([H])[H])C([H])([H])[H])C([H])([H])c2c([H])c(OC([H])([H])c3c(C([H])([H])[H])c(Cl)c([H])c(N([H])C(=O)N4C([H])([H])C([H])([H])C([H])([H])C([H])(n5nc(-c6c([H])c([H])c(Oc7c([H])c([H])c(F)c([H])c7F)c([H])c6[H])c(C(=O)N([H])[H])c5N([H])[H])C4([H])[H])c3C([H])([H])[H])c([H])c([H])c2C1([H])[H]

>  <smiles>  (16) 
[H]c1c([H])c([H])c2c(c1[H])C([H])([H])C([H])([H])C([H])([H])C2([H])N([H])C(=O)C1([H])N(C(=O)C([H])(N([H])C(=O)C([H])(N([H])C([H])([H])[H])C([H])([H])[H])C(C([H])([H])[H])(C([H])([H])[H])C([H])([H])[H])C([H])([H])c2c([H])c(OC([H])([H])c3c(C([H])([H])[H])c(Cl)c([H])c(N([H])C(=O)N4C([H])([H])C([H])([H])C([H])([H])C([H])(n5nc(-c6c([H])c([H])c(Oc7c([H])c([H])c(F)c([H])c7F)c([H])c6[H])c(C(=O)N([H])[H])c5N([H])[H])C4([H])[H])c3C([H])([H])[H])c([H])c([H])c2C1([H])[H]

$$$$
16:0:0
     RDKit          3D

109110  0  0  1  0  0  0  0  0999 V2000
  -27.2040  -14.2300   20.6330 C   0  0  0  0  0  3  0  0  0  0  0  0
  -27.9250  -13.3070   21.4410 C   0  0  0  0  0  0  0  0  0  0  0  0
  -29.9690  -14.4930   20.5410 C   0  0  0  0  0  0  0  0  0  0  0  0
  -29.2150  -15.4280   19.7460 C   0  0  0  0  0  0  0  0  0  0  0  0
  -27.8040  -15.2470   19.8260 C   0  0  0  0  0  0  0  0  0  0  0  0
  -29.3440  -13.4380   21.3140 C   0  0  0  0  0  0  0  0  0  0  0  0
  -31.4940  -14.5640   20.5220 C   0  0  0  0  0  1  0  0  0  0  0  0
  -26.7560  -16.2470   18.8850 Cl  0  0  0  0  0  0  0  0  0  0  0  0
  -30.3380  -12.2450   22.0790 Cl  0  0  0  0  0  0  0  0  0  0  0  0
  -27.1320  -12.1580   22.2530 C   0  0  0  0  0  2  0  0  0  0  0  0
  -24.6350  -11.8780   22.0630 C   0  0  0  0  0  1  0  0  0  0  0  0
  -25.9490  -11.2720   21.7310 N   0  0  2  0  0  4  0  0  0  0  0  0
  -26.0430  -11.4360   20.7240 H   0  0  0  0  0  0  0  0  0  0  0  0
  -26.7110   -9.0550   23.5140 C   0  0  0  0  0 15  0  0  0  0  0  0
  -28.2050   -7.4450   23.4120 C   0  0  0  0  0 15  0  0  0  0  0  0
  -28.1580   -7.3150   19.8810 C   0  0  0  0  0 15  0  0  0  0  0  0
  -25.8690   -9.7060   21.7150 C   0  0  0  0  0  1  0  0  0  0  0  0
  -29.3680   -6.9370   21.5840 C   0  0  0  0  0  1  0  0  0  0  0  0
  -26.4220   -8.6680   19.8250 C   0  0  0  0  0  2  0  0  0  0  0  0
  -29.3490   -5.3960   21.4420 C   0  0  0  0  0  1  0  0  0  0  0  0
  -24.9840   -8.5690   19.1300 C   0  0  0  0  0  1  0  0  0  0  0  0
  -26.5920   -8.9040   18.5100 F   0  0  0  0  0  0  0  0  0  0  0  0
  -32.6280   -7.9520   22.2910 C   0  0  0  0  0  0  0  0  0  0  0  0
  -32.9770   -7.0820   24.4370 C   0  0  0  0  0  2  0  0  0  0  0  0
  -32.0350   -6.0310   23.9360 C   0  0  0  0  0  2  0  0  0  0  0  0
  -30.6970   -6.8570   23.9390 C   0  0  0  0  0  2  0  0  0  0  0  0
  -30.5460   -8.6090   23.5410 C   0  0  0  0  0  3  0  0  0  0  0  0
  -31.7440   -9.2320   24.0160 C   0  0  0  0  0  2  0  0  0  0  0  0
  -32.6380   -8.2390   23.6030 N   0  0  0  0  0  0  0  0  0  0  0  0
  -33.8810   -8.1220   22.1690 O   0  0  0  0  0  0  0  0  0  0  0  0
  -31.3030   -7.3160   21.4910 N   0  0  0  0  0  2  0  0  0  0  0  0
  -31.6290   -7.0620   20.5690 H   0  0  0  0  0  0  0  0  0  0  0  0
  -29.9400   -9.8010   20.9090 C   0  0  0  0  0  3  0  0  0  0  0  0
  -28.6000   -9.9070   20.5610 C   0  0  0  0  0  3  0  0  0  0  0  0
  -28.0450   -8.9240   21.5120 C   0  0  0  0  0  2  0  0  0  0  0  0
  -29.9440   -9.3190   22.2470 N   0  0  0  0  0  0  0  0  0  0  0  0
  -28.7660   -9.6070   22.3840 N   0  0  0  0  0  2  0  0  0  0  0  0
  -26.5120   -7.3550   21.7590 C   0  0  0  0  0  2  0  0  0  0  0  0
  -25.6370   -6.9860   22.9160 C   0  0  0  0  0  2  0  0  0  0  0  0
  -24.2530   -7.0960   22.9970 C   0  0  0  0  0  3  0  0  0  0  0  0
  -23.5710   -6.7290   21.8600 C   0  0  0  0  0  0  0  0  0  0  0  0
  -24.3600   -6.3280   20.7910 C   0  0  0  0  0  2  0  0  0  0  0  0
  -25.7720   -6.4770   20.8350 C   0  0  0  0  0  2  0  0  0  0  0  0
  -22.2380   -6.4560   21.8350 O   0  0  0  0  0  0  0  0  0  0  0  0
  -21.4760   -6.6010   22.9590 C   0  0  0  0  0  0  0  0  0  0  0  0
  -21.0980   -7.8880   23.3930 C   0  0  0  0  0  3  0  0  0  0  0  0
  -20.1840   -8.0280   24.4510 C   0  0  0  0  0  3  0  0  0  0  0  0
  -19.6460   -6.8840   25.0700 C   0  0  0  0  0  0  0  0  0  0  0  0
  -20.0550   -5.6000   24.6650 C   0  0  0  0  0  3  0  0  0  0  0  0
  -20.9780   -5.4570   23.6150 C   0  0  0  0  0  0  0  0  0  0  0  0
  -21.3560   -4.2190   23.2110 F   0  0  0  0  0  0  0  0  0  0  0  0
  -18.7320   -7.0210   26.0580 F   0  0  0  0  0  0  0  0  0  0  0  0
  -28.0490  -10.6930   19.3350 C   0  0  0  0  0  0  0  0  0  0  0  0
  -26.8270  -11.2620   19.3290 N   0  0  0  0  0  0  0  0  0  0  0  0
  -28.5610  -10.6220   18.2410 O   0  0  0  0  0  0  0  0  0  0  0  0
  -26.2030  -10.6040   18.8650 H   0  0  0  0  0  0  0  0  0  0  0  0
  -26.8220  -12.1130   18.7730 H   0  0  0  0  0  0  0  0  0  0  0  0
  -31.0430  -10.1670   20.1830 N   0  0  0  0  0  0  0  0  0  0  0  0
  -30.9800  -10.4870   19.2250 H   0  0  0  0  0  0  0  0  0  0  0  0
  -31.9920  -10.1400   20.5320 H   0  0  0  0  0  0  0  0  0  0  0  0
  -29.8720  -16.3900   18.6350 C   0  0  0  0  0  2  0  0  0  0  0  0
  -29.1750  -17.5950   17.9930 N   0  0  0  0  0  4  0  0  0  0  0  0
  -28.3250  -17.7730   18.5030 H   0  0  0  0  0  0  0  0  0  0  0  0
  -28.9090  -17.3250   17.0600 H   0  0  0  0  0  0  0  0  0  0  0  0
  -29.9780  -18.9110   17.9170 C   0  0  0  0  0  2  0  0  0  0  0  0
  -29.5540  -20.0840   16.8810 C   0  0  0  0  0  2  0  0  0  0  0  0
  -29.7710  -21.6520   17.2520 C   0  0  0  0  0  3  0  0  0  0  0  0
  -30.0620  -22.7210   16.0740 C   0  0  0  0  0  3  0  0  0  0  0  0
  -30.1650  -24.2070   16.2700 O   0  0  0  0  0  0  0  0  0  0  0  0
  -24.3600  -27.3480   18.9930 C   0  0  0  0  0  0  0  0  0  0  0  0
  -29.0780  -25.0410   16.0090 C   0  0  0  0  0  0  0  0  0  0  0  0
  -24.3680  -26.9240   16.5630 C   0  0  0  0  0  3  0  0  0  0  0  0
  -26.6400  -26.4180   15.5170 C   0  0  0  0  0  0  0  0  0  0  0  0
  -26.5600  -27.4220   17.7980 C   0  0  0  0  0  2  0  0  0  0  0  0
  -27.2750  -26.5710   16.7560 C   0  0  0  0  0  0  0  0  0  0  0  0
  -28.5100  -25.9030   17.0000 C   0  0  0  0  0  3  0  0  0  0  0  0
  -28.4500  -24.9900   14.7510 C   0  0  0  0  0  3  0  0  0  0  0  0
  -27.2380  -25.6550   14.5070 C   0  0  0  0  0  3  0  0  0  0  0  0
  -25.2920  -27.0790   15.3290 C   0  0  0  0  0  2  0  0  0  0  0  0
  -25.0860  -27.2200   17.8450 N   0  0  0  0  0  0  0  0  0  0  0  0
  -23.1240  -27.2530   18.9880 O   0  0  0  0  0  0  0  0  0  0  0  0
  -23.7150  -25.5210   16.5370 C   0  0  0  0  0  0  0  0  0  0  0  0
  -22.6200  -25.3770   15.7710 N   0  0  0  0  0  0  0  0  0  0  0  0
  -24.2030  -24.5860   17.1780 O   0  0  0  0  0  0  0  0  0  0  0  0
  -22.2750  -26.1930   15.2830 H   0  0  0  0  0  0  0  0  0  0  0  0
  -19.6540  -23.9860   14.2400 C   0  0  0  0  0  0  0  0  0  0  0  0
  -21.8650  -24.1400   15.5710 C   0  0  0  0  0  3  0  0  0  0  0  0
  -22.4850  -23.2840   14.4420 C   0  0  0  0  0  2  0  0  0  0  0  0
  -21.8550  -23.5480   13.0700 C   0  0  0  0  0  2  0  0  0  0  0  0
  -20.3520  -23.2580   13.1040 C   0  0  0  0  0  2  0  0  0  0  0  0
  -20.3670  -24.4140   15.3910 C   0  0  0  0  0  0  0  0  0  0  0  0
  -19.6760  -25.1170   16.4020 C   0  0  0  0  0  3  0  0  0  0  0  0
  -18.3010  -25.3910   16.2780 C   0  0  0  0  0  3  0  0  0  0  0  0
  -17.5960  -24.9520   15.1430 C   0  0  0  0  0  3  0  0  0  0  0  0
  -18.2710  -24.2470   14.1300 C   0  0  0  0  0  3  0  0  0  0  0  0
  -25.0450  -27.6430   20.3620 C   0  0  0  0  0  3  0  0  0  0  0  0
  -25.2000  -26.3600   21.2690 C   0  0  1  0  0  0  0  0  0  0  0  0
  -23.8800  -25.5830   21.4780 C   0  0  0  0  0  1  0  0  0  0  0  0
  -26.2310  -25.3830   20.6590 C   0  0  0  0  0  1  0  0  0  0  0  0
  -25.7420  -26.7650   22.6600 C   0  0  0  0  0  1  0  0  0  0  0  0
  -24.2420  -28.6660   21.0480 N   0  0  0  0  0  0  0  0  0  0  0  0
  -24.5460  -29.9690   21.0940 C   0  0  0  0  0  0  0  0  0  0  0  0
  -25.5870  -30.4300   20.6160 O   0  0  0  0  0  0  0  0  0  0  0  0
  -23.3500  -28.3690   21.4140 H   0  0  0  0  0  0  0  0  0  0  0  0
  -22.6540  -31.5840   20.7200 C   0  0  0  0  0  1  0  0  0  0  0  0
  -23.5400  -30.9120   21.7820 C   0  0  0  0  0  3  0  0  0  0  0  0
  -24.7800  -31.4110   23.8420 C   0  0  0  0  0  1  0  0  0  0  0  0
  -24.1810  -31.9460   22.6210 N   0  0  0  0  0  0  0  0  0  0  0  0
  -23.5090  -32.6630   22.8850 H   0  0  0  0  0  0  0  0  0  0  0  0
  1  2  1  0
  2 10  1  0
  3  6  1  0
  4  5  1  0
  4  3  2  0
  5  1  2  0
  6  2  2  0
  6  9  1  0
  7  3  1  0
  8  5  1  0
 12 11  1  0
 12 10  1  0
 12 13  1  6
 17 12  1  0
 20 18  1  0
 21 19  1  0
 22 19  1  0
 23 29  1  0
 25 26  1  0
 25 24  1  0
 27 26  1  0
 27 28  1  0
 29 28  1  0
 29 24  1  0
 30 23  2  0
 31 23  1  0
 32 31  1  0
 33 58  1  0
 33 36  1  0
 34 53  1  0
 34 33  1  0
 34 35  1  0
 35 37  1  0
 36 37  1  0
 36 27  1  0
 38 39  1  0
 39 40  1  0
 41 40  2  0
 42 43  1  0
 42 41  1  0
 43 38  1  0
 44 41  1  0
 44 45  1  0
 45 46  2  0
 45 50  1  0
 46 47  1  0
 47 48  2  0
 48 52  1  0
 49 48  1  0
 50 49  2  0
 51 50  1  0
 54 53  1  0
 55 53  2  0
 56 54  1  0
 57 54  1  0
 58 60  1  0
 59 58  1  0
 61  4  1  0
 62 63  1  0
 62 61  1  0
 64 62  1  0
 65 62  1  0
 66 67  1  0
 66 65  1  0
 68 69  1  0
 68 67  2  0
 71 69  1  0
 71 76  1  0
 72 82  1  0
 72 80  1  0
 73 75  1  0
 74 80  1  0
 75 76  2  0
 75 74  1  0
 77 71  2  0
 78 77  1  0
 78 73  2  0
 79 73  1  0
 79 72  1  0
 80 70  1  0
 81 70  2  0
 82 84  2  0
 83 82  1  0
 85 83  1  0
 86 91  1  0
 87 83  1  0
 88 87  1  0
 89 90  1  0
 89 88  1  0
 90 86  1  0
 91 87  1  0
 91 92  2  0
 93 92  1  0
 94 93  2  0
 95 86  2  0
 95 94  1  0
 96 70  1  0
 96101  1  0
 96 97  1  0
 97 98  1  1
 97100  1  0
 99 97  1  0
101102  1  0
101104  1  0
102106  1  0
103102  2  0
106105  1  0
106108  1  0
108109  1  0
108107  1  0
M  ISO  4  23 100  31 100  68 101  69 101
M  END
>  <TORSDO>  (17) 
F 25

>  <SCORE>  (17) 
12.695

>  <name>  (17) 
16

>  <ligand_id>  (17) 
16

>  <original_smiles>  (17) 
[H]c1c([H])c([H])c2c(c1[H])C([H])([H])C([H])([H])C([H])([H])C2([H])N([H])C(=O)C1([H])N(C(=O)C([H])(N([H])C(=O)C([H])(N([H])C([H])([H])[H])C([H])([H])[H])C(C([H])([H])[H])(C([H])([H])[H])C([H])([H])[H])C([H])([H])c2c([H])c(OC([H])([H])C([H])([H])C([H])([H])C([H])([H])[N+]([H])([H])C([H])([H])c3c(Cl)c([H])c(C([H])([H])[N+]([H])(C([H])([H])[H])C4([H])C([H])([H])C([H])([H])C(N([H])C(=O)N5C([H])([H])C([H])([H])C([H])([H])C([H])(n6nc(-c7c([H])c([H])c(Oc8c([H])c([H])c(F)c([H])c8F)c([H])c7[H])c(C(=O)N([H])[H])c6N([H])[H])C5([H])[H])(C([H])([H])[H])C([H])([H])C4(F)C([H])([H])[H])c(Cl)c3C([H])([H])[H])c([H])c([H])c2C1([H])[H]

>  <smiles>  (17) 
[H]c1c([H])c([H])c2c(c1[H])C([H])([H])C([H])([H])C([H])([H])C2([H])N([H])C(=O)C1([H])N(C(=O)C([H])(N([H])C(=O)C([H])(N([H])C([H])([H])[H])C([H])([H])[H])C(C([H])([H])[H])(C([H])([H])[H])C([H])([H])[H])C([H])([H])c2c([H])c(OC([H])([H])C([H])([H])C([H])([H])C([H])([H])[N+]([H])([H])C([H])([H])c3c(Cl)c([H])c(C([H])([H])[N+]([H])(C([H])([H])[H])C4([H])C([H])([H])C([H])([H])C(N([H])C(=O)N5C([H])([H])C([H])([H])C([H])([H])C([H])(n6nc(-c7c([H])c([H])c(Oc8c([H])c([H])c(F)c([H])c8F)c([H])c7[H])c(C(=O)N([H])[H])c6N([H])[H])C5([H])[H])(C([H])([H])[H])C([H])([H])C4(F)C([H])([H])[H])c(Cl)c3C([H])([H])[H])c([H])c([H])c2C1([H])[H]

$$$$
17:0:0
     RDKit          3D

 97105  0  0  1  0  0  0  0  0999 V2000
  -29.7730  -22.3290   21.8380 N   0  0  0  0  0  0  0  0  0  0  0  0
  -29.5140  -20.5620   20.1860 C   0  0  0  0  0  3  0  0  0  0  0  0
  -29.7400  -19.2500   19.7220 C   0  0  0  0  0  0  0  0  0  0  0  0
  -30.3730  -18.2910   20.5620 C   0  0  0  0  0  0  0  0  0  0  0  0
  -30.6100  -18.6310   21.9210 C   0  0  0  0  0  0  0  0  0  0  0  0
  -29.8640  -20.9550   21.4910 C   0  0  0  0  0  0  0  0  0  0  0  0
  -30.3370  -19.9510   22.3860 C   0  0  0  0  0  0  0  0  0  0  0  0
  -29.3160  -18.9300   18.2950 C   0  0  0  0  0  1  0  0  0  0  0  0
  -31.1800  -17.5760   22.8710 C   0  0  0  0  0  1  0  0  0  0  0  0
  -30.5830  -20.3420   24.0580 Cl  0  0  0  0  0  0  0  0  0  0  0  0
  -30.9630  -17.0030   19.9510 C   0  0  0  0  0  2  0  0  0  0  0  0
  -30.8640  -14.5690   19.7210 C   0  0  0  0  0  0  0  0  0  0  0  0
  -30.5460  -12.2530   18.9630 C   0  0  0  0  0  2  0  0  0  0  0  0
  -29.5710  -12.2280   17.7700 C   0  0  0  0  0  2  0  0  0  0  0  0
  -28.1220  -12.1050   18.2750 C   0  0  0  0  0  2  0  0  0  0  0  0
  -27.7860  -13.1230   19.4000 C   0  0  0  0  0  3  0  0  0  0  0  0
  -28.8880  -13.1730   20.4830 C   0  0  0  0  0  2  0  0  0  0  0  0
  -30.1760  -13.3990   19.8110 N   0  0  0  0  0  0  0  0  0  0  0  0
  -31.9840  -14.6210   19.2090 O   0  0  0  0  0  0  0  0  0  0  0  0
  -30.2470  -15.7150   20.0720 N   0  0  0  0  0  0  0  0  0  0  0  0
  -29.3090  -15.6930   20.4390 H   0  0  0  0  0  0  0  0  0  0  0  0
  -25.4520  -13.7460   20.2780 C   0  0  0  0  0  0  0  0  0  0  0  0
  -24.4050  -12.9850   20.7170 C   0  0  0  0  0  0  0  0  0  0  0  0
  -24.8490  -11.6290   20.6560 C   0  0  0  0  0  0  0  0  0  0  0  0
  -26.4710  -12.8570   19.9770 N   0  0  0  0  0  0  0  0  0  0  0  0
  -26.1150  -11.5780   20.2630 N   0  0  0  0  0  0  0  0  0  0  0  0
  -24.1240  -10.3730   20.8930 C   0  0  0  0  0  0  0  0  0  0  0  0
  -24.5350   -9.4560   21.8860 C   0  0  0  0  0  3  0  0  0  0  0  0
  -23.8080   -8.2670   22.1070 C   0  0  0  0  0  3  0  0  0  0  0  0
  -22.6560   -7.9840   21.3350 C   0  0  0  0  0  0  0  0  0  0  0  0
  -22.2660   -8.8890   20.3320 C   0  0  0  0  0  3  0  0  0  0  0  0
  -22.9920  -10.0690   20.1090 C   0  0  0  0  0  3  0  0  0  0  0  0
  -21.9030   -6.8420   21.4630 O   0  0  0  0  0  0  0  0  0  0  0  0
  -21.7190   -6.2330   22.6790 C   0  0  0  0  0  0  0  0  0  0  0  0
  -21.1490   -6.9160   23.7760 C   0  0  0  0  0  3  0  0  0  0  0  0
  -20.9120   -6.2310   24.9850 C   0  0  0  0  0  3  0  0  0  0  0  0
  -21.2380   -4.8670   25.0980 C   0  0  0  0  0  0  0  0  0  0  0  0
  -21.8030   -4.1850   24.0060 C   0  0  0  0  0  3  0  0  0  0  0  0
  -22.0400   -4.8660   22.7990 C   0  0  0  0  0  0  0  0  0  0  0  0
  -22.5630   -4.1990   21.7430 F   0  0  0  0  0  0  0  0  0  0  0  0
  -21.0050   -4.2080   26.2570 F   0  0  0  0  0  0  0  0  0  0  0  0
  -23.0330  -13.4760   21.0820 C   0  0  0  0  0  0  0  0  0  0  0  0
  -22.3660  -12.7980   22.0090 N   0  0  0  0  0  0  0  0  0  0  0  0
  -22.5650  -14.4960   20.5790 O   0  0  0  0  0  0  0  0  0  0  0  0
  -22.7610  -11.9740   22.4370 H   0  0  0  0  0  0  0  0  0  0  0  0
  -21.4480  -13.1070   22.2930 H   0  0  0  0  0  0  0  0  0  0  0  0
  -25.6210  -15.1160   20.0890 N   0  0  0  0  0  0  0  0  0  0  0  0
  -24.8730  -15.7810   20.2530 H   0  0  0  0  0  0  0  0  0  0  0  0
  -26.4530  -15.5430   19.7020 H   0  0  0  0  0  0  0  0  0  0  0  0
  -30.1840  -23.6580   23.9470 C   0  0  0  0  0  1  0  0  0  0  0  0
  -31.9710  -23.4990   22.1510 C   0  0  0  0  0  1  0  0  0  0  0  0
  -30.7730  -22.8040   22.8160 C   0  0  0  0  0  3  0  0  0  0  0  0
  -27.4690  -23.1850   22.1170 C   0  0  0  0  0  1  0  0  0  0  0  0
  -28.7090  -23.1370   21.2030 C   0  0  0  0  0  3  0  0  0  0  0  0
  -29.1710  -24.5540   20.7370 C   0  0  0  0  0  2  0  0  0  0  0  0
  -28.2240  -25.2450   19.7290 C   0  0  0  0  0  2  0  0  0  0  0  0
  -28.3110  -26.6850   19.7950 O   0  0  0  0  0  0  0  0  0  0  0  0
  -24.6410  -31.8080   23.1280 C   0  0  0  0  0  0  0  0  0  0  0  0
  -27.1390  -27.4240   19.8260 C   0  0  0  0  0  0  0  0  0  0  0  0
  -23.3730  -30.4690   21.4840 C   0  0  0  0  0  3  0  0  0  0  0  0
  -24.7630  -28.9690   19.9650 C   0  0  0  0  0  0  0  0  0  0  0  0
  -25.9000  -30.7990   21.2280 C   0  0  0  0  0  2  0  0  0  0  0  0
  -25.9470  -29.4500   20.5380 C   0  0  0  0  0  0  0  0  0  0  0  0
  -27.1340  -28.6840   20.4690 C   0  0  0  0  0  3  0  0  0  0  0  0
  -25.9370  -26.9800   19.2200 C   0  0  0  0  0  3  0  0  0  0  0  0
  -24.7530  -27.7330   19.3040 C   0  0  0  0  0  3  0  0  0  0  0  0
  -23.5320  -29.8390   20.0770 C   0  0  0  0  0  2  0  0  0  0  0  0
  -24.6570  -31.0390   22.0020 N   0  0  0  0  0  0  0  0  0  0  0  0
  -23.5790  -32.0750   23.7050 O   0  0  0  0  0  0  0  0  0  0  0  0
  -22.7420  -29.4220   22.4290 C   0  0  0  0  0  0  0  0  0  0  0  0
  -21.4190  -29.2200   22.3010 N   0  0  0  0  0  0  0  0  0  0  0  0
  -23.4360  -28.7950   23.2330 O   0  0  0  0  0  0  0  0  0  0  0  0
  -20.9200  -29.7760   21.6210 H   0  0  0  0  0  0  0  0  0  0  0  0
  -18.0710  -27.9440   22.7600 C   0  0  0  0  0  0  0  0  0  0  0  0
  -20.6170  -28.2620   23.0610 C   0  0  0  0  0  3  0  0  0  0  0  0
  -20.7640  -26.8350   22.4830 C   0  0  0  0  0  2  0  0  0  0  0  0
  -19.6810  -26.4880   21.4570 C   0  0  0  0  0  2  0  0  0  0  0  0
  -18.2880  -26.5990   22.0850 C   0  0  0  0  0  2  0  0  0  0  0  0
  -19.1660  -28.7310   23.2040 C   0  0  0  0  0  0  0  0  0  0  0  0
  -18.9120  -29.9880   23.7940 C   0  0  0  0  0  3  0  0  0  0  0  0
  -17.5950  -30.4590   23.9450 C   0  0  0  0  0  3  0  0  0  0  0  0
  -16.5130  -29.6680   23.5220 C   0  0  0  0  0  3  0  0  0  0  0  0
  -16.7520  -28.4120   22.9330 C   0  0  0  0  0  3  0  0  0  0  0  0
  -25.9500  -32.4100   23.7250 C   0  0  0  0  0  3  0  0  0  0  0  0
  -25.6570  -33.7930   24.1250 N   0  0  0  0  0  0  0  0  0  0  0  0
  -25.9860  -34.8770   23.4100 C   0  0  0  0  0  0  0  0  0  0  0  0
  -26.6410  -34.8190   22.3660 O   0  0  0  0  0  0  0  0  0  0  0  0
  -25.0750  -33.9110   24.9420 H   0  0  0  0  0  0  0  0  0  0  0  0
  -24.2680  -36.6930   23.1660 C   0  0  0  0  0  1  0  0  0  0  0  0
  -25.5170  -36.2440   23.9390 C   0  0  0  0  0  3  0  0  0  0  0  0
  -27.6700  -37.0700   24.7810 C   0  0  0  0  0  1  0  0  0  0  0  0
  -26.5560  -37.2940   23.8610 N   0  0  0  0  0  0  0  0  0  0  0  0
  -26.1600  -38.2090   24.0630 H   0  0  0  0  0  0  0  0  0  0  0  0
  -26.5140  -31.5830   24.9450 C   0  0  1  0  0  0  0  0  0  0  0  0
  -25.4580  -31.2890   26.0360 C   0  0  0  0  0  1  0  0  0  0  0  0
  -27.0880  -30.2290   24.4670 C   0  0  0  0  0  1  0  0  0  0  0  0
  -27.6860  -32.3510   25.6020 C   0  0  0  0  0  1  0  0  0  0  0  0
  1 52  1  0
  2  6  1  0
  3  2  2  0
  3  4  1  0
  4  5  2  0
  5  7  1  0
  5  9  1  0
  6  1  1  0
  6  7  2  0
  7 10  1  0
  8  3  1  0
 11 20  1  0
 11  4  1  0
 12 18  1  0
 12 20  1  0
 13 18  1  0
 14 15  1  0
 14 13  1  0
 16 15  1  0
 16 25  1  0
 16 17  1  0
 18 17  1  0
 19 12  2  0
 20 21  1  0
 22 23  2  0
 23 42  1  0
 24 23  1  0
 24 27  1  0
 25 26  1  0
 25 22  1  0
 26 24  2  0
 27 28  1  0
 28 29  2  0
 30 33  1  0
 30 29  1  0
 31 30  2  0
 32 31  1  0
 32 27  2  0
 33 34  1  0
 34 39  2  0
 34 35  1  0
 35 36  2  0
 36 37  1  0
 37 41  1  0
 38 37  2  0
 39 38  1  0
 40 39  1  0
 42 43  1  0
 43 46  1  0
 43 45  1  0
 44 42  2  0
 47 48  1  0
 47 22  1  0
 49 47  1  0
 51 52  1  0
 52 50  1  0
 54  1  1  0
 54 53  1  0
 55 54  1  0
 56 57  1  0
 56 55  1  0
 57 59  1  0
 58 69  2  0
 59 64  1  0
 60 68  1  0
 60 70  1  0
 61 67  1  0
 61 63  1  0
 62 68  1  0
 63 62  1  0
 64 63  2  0
 65 66  1  0
 65 59  2  0
 66 61  2  0
 67 60  1  0
 68 58  1  0
 70 72  2  0
 71 70  1  0
 73 71  1  0
 74 83  2  0
 74 79  1  0
 75 71  1  0
 75 79  1  0
 76 75  1  0
 77 78  1  0
 77 76  1  0
 78 74  1  0
 79 80  2  0
 80 81  1  0
 82 81  2  0
 83 82  1  0
 84 58  1  0
 84 85  1  0
 84 94  1  0
 85 88  1  0
 86 90  1  0
 86 85  1  0
 87 86  2  0
 90 89  1  0
 92 90  1  0
 92 93  1  0
 92 91  1  0
 94 97  1  1
 94 95  1  0
 96 94  1  0
M  ISO  4  12 100  20 100  56 101  57 101
M  END
>  <TORSDO>  (18) 
F 22

>  <SCORE>  (18) 
-9.323

>  <name>  (18) 
17

>  <ligand_id>  (18) 
17

>  <original_smiles>  (18) 
[H]c1c([H])c([H])c2c(c1[H])C([H])([H])C([H])([H])C([H])([H])C2([H])N([H])C(=O)C1([H])N(C(=O)C([H])(N([H])C(=O)C([H])(N([H])C([H])([H])[H])C([H])([H])[H])C(C([H])([H])[H])(C([H])([H])[H])C([H])([H])[H])C([H])([H])c2c([H])c(OC([H])([H])C([H])([H])C([H])(N(c3c([H])c(C([H])([H])[H])c(C([H])([H])N([H])C(=O)N4C([H])([H])C([H])([H])C([H])([H])C([H])(n5nc(-c6c([H])c([H])c(Oc7c([H])c([H])c(F)c([H])c7F)c([H])c6[H])c(C(=O)N([H])[H])c5N([H])[H])C4([H])[H])c(C([H])([H])[H])c3Cl)C([H])(C([H])([H])[H])C([H])([H])[H])C([H])([H])[H])c([H])c([H])c2C1([H])[H]

>  <smiles>  (18) 
[H]c1c([H])c([H])c2c(c1[H])C([H])([H])C([H])([H])C([H])([H])C2([H])N([H])C(=O)C1([H])N(C(=O)C([H])(N([H])C(=O)C([H])(N([H])C([H])([H])[H])C([H])([H])[H])C(C([H])([H])[H])(C([H])([H])[H])C([H])([H])[H])C([H])([H])c2c([H])c(OC([H])([H])C([H])([H])C([H])(N(c3c([H])c(C([H])([H])[H])c(C([H])([H])N([H])C(=O)N4C([H])([H])C([H])([H])C([H])([H])C([H])(n5nc(-c6c([H])c([H])c(Oc7c([H])c([H])c(F)c([H])c7F)c([H])c6[H])c(C(=O)N([H])[H])c5N([H])[H])C4([H])[H])c(C([H])([H])[H])c3Cl)C([H])(C([H])([H])[H])C([H])([H])[H])C([H])([H])[H])c([H])c([H])c2C1([H])[H]

$$$$
18:0:0
     RDKit          3D

 98106  0  0  1  0  0  0  0  0999 V2000
  -31.8070  -21.1070   21.0220 C   0  0  0  0  0  2  0  0  0  0  0  0
  -31.3030  -19.6580   21.0430 C   0  0  0  0  0  0  0  0  0  0  0  0
  -30.9370  -19.0340   19.8190 C   0  0  0  0  0  0  0  0  0  0  0  0
  -31.2290  -18.9130   22.2560 C   0  0  0  0  0  0  0  0  0  0  0  0
  -30.5910  -16.9070   20.9910 C   0  0  0  0  0  0  0  0  0  0  0  0
  -30.5540  -17.6770   19.8080 C   0  0  0  0  0  0  0  0  0  0  0  0
  -30.8960  -17.5330   22.2170 C   0  0  0  0  0  0  0  0  0  0  0  0
  -30.9480  -19.7930   18.4960 C   0  0  0  0  0  1  0  0  0  0  0  0
  -31.5250  -19.5740   23.6010 C   0  0  0  0  0  1  0  0  0  0  0  0
  -30.1310  -17.1200   18.6460 F   0  0  0  0  0  0  0  0  0  0  0  0
  -30.8790  -16.5780   23.6660 Cl  0  0  0  0  0  0  0  0  0  0  0  0
  -30.8850  -14.5930   20.2130 C   0  0  0  0  0  0  0  0  0  0  0  0
  -30.5130  -12.5230   18.9370 C   0  0  0  0  0  2  0  0  0  0  0  0
  -29.5380  -12.8190   17.7790 C   0  0  0  0  0  2  0  0  0  0  0  0
  -28.0770  -12.6750   18.2450 C   0  0  0  0  0  2  0  0  0  0  0  0
  -27.7900  -13.4400   19.5650 C   0  0  0  0  0  3  0  0  0  0  0  0
  -28.8730  -13.1290   20.6250 C   0  0  0  0  0  2  0  0  0  0  0  0
  -30.1900  -13.4390   20.0410 N   0  0  0  0  0  0  0  0  0  0  0  0
  -31.9720  -14.8100   19.6710 O   0  0  0  0  0  0  0  0  0  0  0  0
  -30.2770  -15.5190   20.9700 N   0  0  0  0  0  0  0  0  0  0  0  0
  -29.5040  -15.2180   21.5410 H   0  0  0  0  0  0  0  0  0  0  0  0
  -25.4000  -14.0260   20.3230 C   0  0  0  0  0  0  0  0  0  0  0  0
  -24.3480  -13.2440   20.7160 C   0  0  0  0  0  0  0  0  0  0  0  0
  -24.8200  -11.8960   20.6740 C   0  0  0  0  0  0  0  0  0  0  0  0
  -26.4490  -13.1560   20.0700 N   0  0  0  0  0  0  0  0  0  0  0  0
  -26.1040  -11.8690   20.3340 N   0  0  0  0  0  0  0  0  0  0  0  0
  -24.1110  -10.6270   20.8790 C   0  0  0  0  0  0  0  0  0  0  0  0
  -24.5230   -9.7030   21.8650 C   0  0  0  0  0  3  0  0  0  0  0  0
  -23.8150   -8.4980   22.0560 C   0  0  0  0  0  3  0  0  0  0  0  0
  -22.6800   -8.2070   21.2610 C   0  0  0  0  0  0  0  0  0  0  0  0
  -22.2870   -9.1210   20.2680 C   0  0  0  0  0  3  0  0  0  0  0  0
  -22.9960  -10.3180   20.0750 C   0  0  0  0  0  3  0  0  0  0  0  0
  -21.9450   -7.0510   21.3590 O   0  0  0  0  0  0  0  0  0  0  0  0
  -21.7880   -6.3960   22.5550 C   0  0  0  0  0  0  0  0  0  0  0  0
  -21.2180   -7.0280   23.6810 C   0  0  0  0  0  3  0  0  0  0  0  0
  -21.0110   -6.2970   24.8690 C   0  0  0  0  0  3  0  0  0  0  0  0
  -21.3650   -4.9370   24.9300 C   0  0  0  0  0  0  0  0  0  0  0  0
  -21.9290   -4.3050   23.8070 C   0  0  0  0  0  3  0  0  0  0  0  0
  -22.1370   -5.0330   22.6220 C   0  0  0  0  0  0  0  0  0  0  0  0
  -22.6610   -4.4130   21.5370 F   0  0  0  0  0  0  0  0  0  0  0  0
  -21.1590   -4.2320   26.0670 F   0  0  0  0  0  0  0  0  0  0  0  0
  -22.9520  -13.7080   21.0220 C   0  0  0  0  0  0  0  0  0  0  0  0
  -22.2550  -13.0100   21.9110 N   0  0  0  0  0  0  0  0  0  0  0  0
  -22.4890  -14.7250   20.5060 O   0  0  0  0  0  0  0  0  0  0  0  0
  -22.6420  -12.1880   22.3500 H   0  0  0  0  0  0  0  0  0  0  0  0
  -21.3200  -13.3030   22.1570 H   0  0  0  0  0  0  0  0  0  0  0  0
  -25.5470  -15.3980   20.1430 N   0  0  0  0  0  0  0  0  0  0  0  0
  -24.7760  -16.0460   20.2670 H   0  0  0  0  0  0  0  0  0  0  0  0
  -26.3890  -15.8460   19.8030 H   0  0  0  0  0  0  0  0  0  0  0  0
  -30.7530  -22.0650   20.6310 N   0  0  0  0  0  4  0  0  0  0  0  0
  -30.3460  -22.4490   21.4680 H   0  0  0  0  0  0  0  0  0  0  0  0
  -30.0300  -21.5600   20.1460 H   0  0  0  0  0  0  0  0  0  0  0  0
  -31.2440  -23.1580   19.7620 C   0  0  0  0  0  2  0  0  0  0  0  0
  -30.1470  -24.1760   19.3940 C   0  0  0  0  0  2  0  0  0  0  0  0
  -30.6690  -25.2470   18.4180 C   0  0  0  0  0  2  0  0  0  0  0  0
  -29.6450  -26.3290   18.0210 C   0  0  0  0  0  2  0  0  0  0  0  0
  -29.3620  -27.3760   19.1130 C   0  0  0  0  0  2  0  0  0  0  0  0
  -28.4080  -26.8620   20.0370 O   0  0  0  0  0  0  0  0  0  0  0  0
  -24.5560  -31.9270   23.2420 C   0  0  0  0  0  0  0  0  0  0  0  0
  -27.2400  -27.5770   20.0940 C   0  0  0  0  0  0  0  0  0  0  0  0
  -23.3590  -30.5320   21.5840 C   0  0  0  0  0  3  0  0  0  0  0  0
  -24.8250  -29.0210   20.1430 C   0  0  0  0  0  0  0  0  0  0  0  0
  -25.8770  -30.9230   21.3860 C   0  0  0  0  0  2  0  0  0  0  0  0
  -25.9740  -29.5620   20.7320 C   0  0  0  0  0  0  0  0  0  0  0  0
  -27.1880  -28.8440   20.7100 C   0  0  0  0  0  3  0  0  0  0  0  0
  -26.0760  -27.0280   19.5270 C   0  0  0  0  0  3  0  0  0  0  0  0
  -24.8660  -27.7490   19.5440 C   0  0  0  0  0  3  0  0  0  0  0  0
  -23.5710  -29.8650   20.1990 C   0  0  0  0  0  2  0  0  0  0  0  0
  -24.6150  -31.1420   22.1290 N   0  0  0  0  0  0  0  0  0  0  0  0
  -23.4740  -32.1850   23.7870 O   0  0  0  0  0  0  0  0  0  0  0  0
  -22.7170  -29.4970   22.5340 C   0  0  0  0  0  0  0  0  0  0  0  0
  -21.4000  -29.2820   22.3780 N   0  0  0  0  0  0  0  0  0  0  0  0
  -23.3990  -28.8890   23.3630 O   0  0  0  0  0  0  0  0  0  0  0  0
  -20.9110  -29.8240   21.6790 H   0  0  0  0  0  0  0  0  0  0  0  0
  -18.0570  -27.9720   22.7670 C   0  0  0  0  0  0  0  0  0  0  0  0
  -20.5910  -28.3250   23.1300 C   0  0  0  0  0  3  0  0  0  0  0  0
  -20.7670  -26.8900   22.5760 C   0  0  0  0  0  2  0  0  0  0  0  0
  -19.7150  -26.5150   21.5270 C   0  0  0  0  0  2  0  0  0  0  0  0
  -18.3070  -26.6200   22.1200 C   0  0  0  0  0  2  0  0  0  0  0  0
  -19.1310  -28.7790   23.2270 C   0  0  0  0  0  0  0  0  0  0  0  0
  -18.8450  -30.0440   23.7880 C   0  0  0  0  0  3  0  0  0  0  0  0
  -17.5190  -30.4980   23.8990 C   0  0  0  0  0  3  0  0  0  0  0  0
  -16.4580  -29.6870   23.4580 C   0  0  0  0  0  3  0  0  0  0  0  0
  -16.7280  -28.4270   22.8980 C   0  0  0  0  0  3  0  0  0  0  0  0
  -25.8400  -32.5580   23.8690 C   0  0  0  0  0  3  0  0  0  0  0  0
  -25.5340  -33.9590   24.1870 N   0  0  0  0  0  0  0  0  0  0  0  0
  -25.8850  -35.0030   23.4260 C   0  0  0  0  0  0  0  0  0  0  0  0
  -26.5700  -34.8900   22.4050 O   0  0  0  0  0  0  0  0  0  0  0  0
  -24.9250  -34.1210   24.9760 H   0  0  0  0  0  0  0  0  0  0  0  0
  -24.1740  -36.8040   23.0280 C   0  0  0  0  0  1  0  0  0  0  0  0
  -25.3970  -36.3970   23.8650 C   0  0  0  0  0  3  0  0  0  0  0  0
  -27.5240  -37.2770   24.7250 C   0  0  0  0  0  1  0  0  0  0  0  0
  -26.4370  -37.4450   23.7650 N   0  0  0  0  0  0  0  0  0  0  0  0
  -26.0320  -38.3670   23.8990 H   0  0  0  0  0  0  0  0  0  0  0  0
  -26.3470  -31.7910   25.1500 C   0  0  1  0  0  0  0  0  0  0  0  0
  -25.2450  -31.5500   26.2090 C   0  0  0  0  0  1  0  0  0  0  0  0
  -26.9380  -30.4150   24.7630 C   0  0  0  0  0  1  0  0  0  0  0  0
  -27.4910  -32.5890   25.8200 C   0  0  0  0  0  1  0  0  0  0  0  0
  1  2  1  0
  2  4  1  0
  3  2  2  0
  4  9  1  0
  5  7  1  0
  6  3  1  0
  6  5  2  0
  7  4  2  0
  7 11  1  0
  8  3  1  0
 10  6  1  0
 12 20  1  0
 13 18  1  0
 14 15  1  0
 14 13  1  0
 16 15  1  0
 16 25  1  0
 16 17  1  0
 18 12  1  0
 18 17  1  0
 19 12  2  0
 20  5  1  0
 20 21  1  0
 22 23  2  0
 23 42  1  0
 24 23  1  0
 24 27  1  0
 25 22  1  0
 25 26  1  0
 26 24  2  0
 27 28  1  0
 28 29  2  0
 30 33  1  0
 30 29  1  0
 31 30  2  0
 32 31  1  0
 32 27  2  0
 33 34  1  0
 34 39  2  0
 34 35  1  0
 35 36  2  0
 36 37  1  0
 37 41  1  0
 38 37  2  0
 39 38  1  0
 40 39  1  0
 42 43  1  0
 43 46  1  0
 43 45  1  0
 44 42  2  0
 47 48  1  0
 47 22  1  0
 49 47  1  0
 50  1  1  0
 50 51  1  0
 52 50  1  0
 53 50  1  0
 54 53  1  0
 55 54  1  0
 56 55  1  0
 56 57  1  0
 57 58  1  0
 58 60  1  0
 59 70  2  0
 60 65  1  0
 61 69  1  0
 61 71  1  0
 62 68  1  0
 62 64  1  0
 63 69  1  0
 64 63  1  0
 65 64  2  0
 66 67  1  0
 66 60  2  0
 67 62  2  0
 68 61  1  0
 69 59  1  0
 71 73  2  0
 72 71  1  0
 74 72  1  0
 75 84  2  0
 75 80  1  0
 76 72  1  0
 76 80  1  0
 77 76  1  0
 78 79  1  0
 78 77  1  0
 79 75  1  0
 80 81  2  0
 81 82  1  0
 83 82  2  0
 84 83  1  0
 85 59  1  0
 85 86  1  0
 85 95  1  0
 86 89  1  0
 87 91  1  0
 87 86  1  0
 88 87  2  0
 91 90  1  0
 93 91  1  0
 93 94  1  0
 93 92  1  0
 95 98  1  1
 95 96  1  0
 97 95  1  0
M  ISO  4  12 100  20 100  57 101  58 101
M  END
>  <TORSDO>  (19) 
F 23

>  <SCORE>  (19) 
-11.605

>  <name>  (19) 
18

>  <ligand_id>  (19) 
18

>  <original_smiles>  (19) 
[H]c1c([H])c([H])c2c(c1[H])C([H])([H])C([H])([H])C([H])([H])C2([H])N([H])C(=O)C1([H])N(C(=O)C([H])(N([H])C(=O)C([H])(N([H])C([H])([H])[H])C([H])([H])[H])C(C([H])([H])[H])(C([H])([H])[H])C([H])([H])[H])C([H])([H])c2c([H])c(OC([H])([H])C([H])([H])C([H])([H])C([H])([H])C([H])([H])[N+]([H])([H])C([H])([H])c3c(C([H])([H])[H])c(F)c(N([H])C(=O)N4C([H])([H])C([H])([H])C([H])([H])C([H])(n5nc(-c6c([H])c([H])c(Oc7c([H])c([H])c(F)c([H])c7F)c([H])c6[H])c(C(=O)N([H])[H])c5N([H])[H])C4([H])[H])c(Cl)c3C([H])([H])[H])c([H])c([H])c2C1([H])[H]

>  <smiles>  (19) 
[H]c1c([H])c([H])c2c(c1[H])C([H])([H])C([H])([H])C([H])([H])C2([H])N([H])C(=O)C1([H])N(C(=O)C([H])(N([H])C(=O)C([H])(N([H])C([H])([H])[H])C([H])([H])[H])C(C([H])([H])[H])(C([H])([H])[H])C([H])([H])[H])C([H])([H])c2c([H])c(OC([H])([H])C([H])([H])C([H])([H])C([H])([H])C([H])([H])[N+]([H])([H])C([H])([H])c3c(C([H])([H])[H])c(F)c(N([H])C(=O)N4C([H])([H])C([H])([H])C([H])([H])C([H])(n5nc(-c6c([H])c([H])c(Oc7c([H])c([H])c(F)c([H])c7F)c([H])c6[H])c(C(=O)N([H])[H])c5N([H])[H])C4([H])[H])c(Cl)c3C([H])([H])[H])c([H])c([H])c2C1([H])[H]

$$$$
19:0:0
     RDKit          3D

 91 99  0  0  1  0  0  0  0  0999 V2000
  -30.2130  -18.4910   21.3480 C   0  0  0  0  0  3  0  0  0  0  0  0
  -29.9080  -19.9140   21.3100 C   0  0  0  0  0  0  0  0  0  0  0  0
  -28.9870  -20.5070   20.3810 C   0  0  0  0  0  0  0  0  0  0  0  0
  -28.4680  -19.5370   19.4430 C   0  0  0  0  0  0  0  0  0  0  0  0
  -29.6280  -17.5160   20.4750 C   0  0  0  0  0  0  0  0  0  0  0  0
  -28.7540  -18.1110   19.5110 C   0  0  0  0  0  0  0  0  0  0  0  0
  -30.5370  -20.8150   22.3550 C   0  0  0  0  0  1  0  0  0  0  0  0
  -27.4970  -20.0120   18.3660 C   0  0  0  0  0  1  0  0  0  0  0  0
  -27.9340  -17.0220   18.4390 Cl  0  0  0  0  0  0  0  0  0  0  0  0
  -30.4970  -14.9430   20.4240 C   0  0  0  0  0  0  0  0  0  0  0  0
  -30.4000  -12.6290   19.4330 C   0  0  0  0  0  2  0  0  0  0  0  0
  -29.4660  -12.6600   18.2010 C   0  0  0  0  0  2  0  0  0  0  0  0
  -27.9980  -12.4480   18.6220 C   0  0  0  0  0  2  0  0  0  0  0  0
  -27.5960  -13.3360   19.8310 C   0  0  0  0  0  3  0  0  0  0  0  0
  -28.6470  -13.2680   20.9600 C   0  0  0  0  0  2  0  0  0  0  0  0
  -29.9360  -13.6760   20.3780 N   0  0  0  0  0  0  0  0  0  0  0  0
  -31.6780  -15.0880   20.0960 O   0  0  0  0  0  0  0  0  0  0  0  0
  -29.6440  -16.0190   20.7030 N   0  0  0  0  0  0  0  0  0  0  0  0
  -28.7210  -15.6640   20.8970 H   0  0  0  0  0  0  0  0  0  0  0  0
  -25.2050  -13.9090   20.5580 C   0  0  0  0  0  0  0  0  0  0  0  0
  -24.1410  -13.1280   20.9170 C   0  0  0  0  0  0  0  0  0  0  0  0
  -24.6090  -11.7780   20.8720 C   0  0  0  0  0  0  0  0  0  0  0  0
  -26.2510  -13.0360   20.3110 N   0  0  0  0  0  0  0  0  0  0  0  0
  -25.8990  -11.7490   20.5640 N   0  0  0  0  0  0  0  0  0  0  0  0
  -23.8860  -10.5100   21.0400 C   0  0  0  0  0  0  0  0  0  0  0  0
  -24.2980   -9.5420   21.9810 C   0  0  0  0  0  3  0  0  0  0  0  0
  -23.5730   -8.3420   22.1370 C   0  0  0  0  0  3  0  0  0  0  0  0
  -22.4220   -8.1010   21.3510 C   0  0  0  0  0  0  0  0  0  0  0  0
  -22.0300   -9.0570   20.3980 C   0  0  0  0  0  3  0  0  0  0  0  0
  -22.7560  -10.2490   20.2390 C   0  0  0  0  0  3  0  0  0  0  0  0
  -21.6710   -6.9520   21.4150 O   0  0  0  0  0  0  0  0  0  0  0  0
  -21.5650   -6.2260   22.5750 C   0  0  0  0  0  0  0  0  0  0  0  0
  -21.0340   -6.7840   23.7580 C   0  0  0  0  0  3  0  0  0  0  0  0
  -20.8800   -5.9830   24.9070 C   0  0  0  0  0  3  0  0  0  0  0  0
  -21.2470   -4.6240   24.8730 C   0  0  0  0  0  0  0  0  0  0  0  0
  -21.7720   -4.0660   23.6950 C   0  0  0  0  0  3  0  0  0  0  0  0
  -21.9260   -4.8630   22.5480 C   0  0  0  0  0  0  0  0  0  0  0  0
  -22.4120   -4.3150   21.4080 F   0  0  0  0  0  0  0  0  0  0  0  0
  -21.0930   -3.8520   25.9740 F   0  0  0  0  0  0  0  0  0  0  0  0
  -22.7400  -13.5970   21.1860 C   0  0  0  0  0  0  0  0  0  0  0  0
  -22.0060  -12.8810   22.0310 N   0  0  0  0  0  0  0  0  0  0  0  0
  -22.3050  -14.6340   20.6840 O   0  0  0  0  0  0  0  0  0  0  0  0
  -22.3720  -12.0420   22.4570 H   0  0  0  0  0  0  0  0  0  0  0  0
  -21.0640  -13.1710   22.2550 H   0  0  0  0  0  0  0  0  0  0  0  0
  -25.3620  -15.2830   20.3940 N   0  0  0  0  0  0  0  0  0  0  0  0
  -24.5810  -15.9190   20.4970 H   0  0  0  0  0  0  0  0  0  0  0  0
  -26.1770  -15.7230   19.9870 H   0  0  0  0  0  0  0  0  0  0  0  0
  -28.3320  -22.0100   20.5470 C   0  0  0  0  0  2  0  0  0  0  0  0
  -28.9830  -23.5220   20.3680 C   0  0  0  0  0  3  0  0  0  0  0  0
  -27.9740  -24.8290   20.1530 C   0  0  0  0  0  3  0  0  0  0  0  0
  -28.2750  -26.3350   20.2780 O   0  0  0  0  0  0  0  0  0  0  0  0
  -24.6100  -31.9570   23.2670 C   0  0  0  0  0  0  0  0  0  0  0  0
  -27.2010  -27.2860   20.2250 C   0  0  0  0  0  0  0  0  0  0  0  0
  -23.4090  -30.5640   21.6270 C   0  0  0  0  0  3  0  0  0  0  0  0
  -24.8590  -28.9950   20.2080 C   0  0  0  0  0  0  0  0  0  0  0  0
  -25.9620  -30.8410   21.4590 C   0  0  0  0  0  2  0  0  0  0  0  0
  -26.0380  -29.4540   20.8080 C   0  0  0  0  0  0  0  0  0  0  0  0
  -27.2100  -28.6160   20.7980 C   0  0  0  0  0  3  0  0  0  0  0  0
  -25.9880  -26.9170   19.5970 C   0  0  0  0  0  3  0  0  0  0  0  0
  -24.8420  -27.7360   19.5910 C   0  0  0  0  0  3  0  0  0  0  0  0
  -23.6310  -29.8870   20.2490 C   0  0  0  0  0  2  0  0  0  0  0  0
  -24.6810  -31.1400   22.1730 N   0  0  0  0  0  0  0  0  0  0  0  0
  -23.5220  -32.2430   23.7930 O   0  0  0  0  0  0  0  0  0  0  0  0
  -22.7300  -29.5550   22.5870 C   0  0  0  0  0  0  0  0  0  0  0  0
  -21.4070  -29.3610   22.4350 N   0  0  0  0  0  0  0  0  0  0  0  0
  -23.3950  -28.9490   23.4310 O   0  0  0  0  0  0  0  0  0  0  0  0
  -20.9350  -29.8790   21.7060 H   0  0  0  0  0  0  0  0  0  0  0  0
  -18.0250  -28.1620   22.9280 C   0  0  0  0  0  0  0  0  0  0  0  0
  -20.5830  -28.4260   23.2060 C   0  0  0  0  0  3  0  0  0  0  0  0
  -20.6870  -26.9930   22.6330 C   0  0  0  0  0  2  0  0  0  0  0  0
  -19.5890  -26.6700   21.6150 C   0  0  0  0  0  2  0  0  0  0  0  0
  -18.2060  -26.8100   22.2570 C   0  0  0  0  0  2  0  0  0  0  0  0
  -19.1420  -28.9270   23.3600 C   0  0  0  0  0  0  0  0  0  0  0  0
  -18.9180  -30.1920   23.9440 C   0  0  0  0  0  3  0  0  0  0  0  0
  -17.6090  -30.6890   24.1040 C   0  0  0  0  0  3  0  0  0  0  0  0
  -16.5090  -29.9200   23.6930 C   0  0  0  0  0  3  0  0  0  0  0  0
  -16.7170  -28.6580   23.1090 C   0  0  0  0  0  3  0  0  0  0  0  0
  -25.8870  -32.5890   23.8970 C   0  0  0  0  0  3  0  0  0  0  0  0
  -26.3950  -31.8160   25.1750 C   0  0  1  0  0  0  0  0  0  0  0  0
  -25.2880  -31.5610   26.2260 C   0  0  0  0  0  1  0  0  0  0  0  0
  -27.0010  -30.4480   24.7870 C   0  0  0  0  0  1  0  0  0  0  0  0
  -27.5250  -32.6210   25.8590 C   0  0  0  0  0  1  0  0  0  0  0  0
  -25.5750  -33.9880   24.2300 N   0  0  0  0  0  0  0  0  0  0  0  0
  -25.8900  -35.0430   23.4690 C   0  0  0  0  0  0  0  0  0  0  0  0
  -26.5410  -34.9440   22.4250 O   0  0  0  0  0  0  0  0  0  0  0  0
  -24.9890  -34.1400   25.0380 H   0  0  0  0  0  0  0  0  0  0  0  0
  -24.1390  -36.8250   23.1700 C   0  0  0  0  0  1  0  0  0  0  0  0
  -25.4080  -36.4290   23.9400 C   0  0  0  0  0  3  0  0  0  0  0  0
  -27.5550  -37.3380   24.7110 C   0  0  0  0  0  1  0  0  0  0  0  0
  -26.4290  -37.4890   23.7940 N   0  0  0  0  0  0  0  0  0  0  0  0
  -26.0170  -38.4060   23.9410 H   0  0  0  0  0  0  0  0  0  0  0  0
  2  1  1  0
  2  7  1  0
  3 48  1  0
  3  2  2  0
  4  6  2  0
  4  3  1  0
  5 18  1  0
  5  1  2  0
  6  5  1  0
  8  4  1  0
  9  6  1  0
 10 18  1  0
 11 16  1  0
 12 13  1  0
 12 11  1  0
 14 13  1  0
 14 23  1  0
 14 15  1  0
 16 10  1  0
 16 15  1  0
 17 10  2  0
 18 19  1  0
 20 21  2  0
 21 40  1  0
 22 21  1  0
 22 25  1  0
 23 20  1  0
 23 24  1  0
 24 22  2  0
 25 26  1  0
 26 27  2  0
 28 31  1  0
 28 27  1  0
 29 28  2  0
 30 29  1  0
 30 25  2  0
 31 32  1  0
 32 33  1  0
 33 34  2  0
 35 34  1  0
 35 39  1  0
 36 35  2  0
 37 32  2  0
 37 36  1  0
 38 37  1  0
 40 41  1  0
 41 44  1  0
 41 43  1  0
 42 40  2  0
 45 46  1  0
 45 20  1  0
 47 45  1  0
 49 48  1  0
 50 51  1  0
 50 49  2  0
 52 63  2  0
 53 51  1  0
 53 58  1  0
 54 62  1  0
 54 64  1  0
 55 61  1  0
 55 57  1  0
 56 62  1  0
 57 56  1  0
 58 57  2  0
 59 53  2  0
 60 59  1  0
 60 55  2  0
 61 54  1  0
 62 52  1  0
 64 66  2  0
 65 64  1  0
 67 65  1  0
 68 77  2  0
 68 73  1  0
 69 65  1  0
 69 73  1  0
 70 69  1  0
 71 72  1  0
 71 70  1  0
 72 68  1  0
 73 74  2  0
 74 75  1  0
 76 75  2  0
 77 76  1  0
 78 52  1  0
 78 83  1  0
 78 79  1  0
 79 82  1  1
 79 80  1  0
 81 79  1  0
 83 86  1  0
 84 88  1  0
 84 83  1  0
 85 84  2  0
 88 87  1  0
 90 88  1  0
 90 91  1  0
 90 89  1  0
M  ISO  4  10 100  18 100  50 101  51 101
M  END
>  <TORSDO>  (20) 
F 19

>  <SCORE>  (20) 
-14.383

>  <name>  (20) 
19

>  <ligand_id>  (20) 
19

>  <original_smiles>  (20) 
[H]c1c([H])c([H])c2c(c1[H])C([H])([H])C([H])([H])C([H])([H])C2([H])N([H])C(=O)C1([H])N(C(=O)C([H])(N([H])C(=O)C([H])(N([H])C([H])([H])[H])C([H])([H])[H])C(C([H])([H])[H])(C([H])([H])[H])C([H])([H])[H])C([H])([H])c2c([H])c(OC([H])([H])C([H])([H])C([H])([H])c3c(C([H])([H])[H])c([H])c(N([H])C(=O)N4C([H])([H])C([H])([H])C([H])([H])C([H])(n5nc(-c6c([H])c([H])c(Oc7c([H])c([H])c(F)c([H])c7F)c([H])c6[H])c(C(=O)N([H])[H])c5N([H])[H])C4([H])[H])c(Cl)c3C([H])([H])[H])c([H])c([H])c2C1([H])[H]

>  <smiles>  (20) 
[H]c1c([H])c([H])c2c(c1[H])C([H])([H])C([H])([H])C([H])([H])C2([H])N([H])C(=O)C1([H])N(C(=O)C([H])(N([H])C(=O)C([H])(N([H])C([H])([H])[H])C([H])([H])[H])C(C([H])([H])[H])(C([H])([H])[H])C([H])([H])[H])C([H])([H])c2c([H])c(OC([H])([H])C([H])([H])C([H])([H])c3c(C([H])([H])[H])c([H])c(N([H])C(=O)N4C([H])([H])C([H])([H])C([H])([H])C([H])(n5nc(-c6c([H])c([H])c(Oc7c([H])c([H])c(F)c([H])c7F)c([H])c6[H])c(C(=O)N([H])[H])c5N([H])[H])C4([H])[H])c(Cl)c3C([H])([H])[H])c([H])c([H])c2C1([H])[H]

$$$$
20:0:0
     RDKit          3D

 94102  0  0  1  0  0  0  0  0999 V2000
  -29.5540  -18.5430   19.9560 C   0  0  0  0  0  3  0  0  0  0  0  0
  -29.6680  -19.9160   20.4310 C   0  0  0  0  0  0  0  0  0  0  0  0
  -30.9120  -19.0030   22.3540 C   0  0  0  0  0  0  0  0  0  0  0  0
  -30.1290  -17.3960   20.6440 C   0  0  0  0  0  0  0  0  0  0  0  0
  -30.3740  -20.0950   21.6360 C   0  0  0  0  0  0  0  0  0  0  0  0
  -30.7900  -17.6700   21.8740 C   0  0  0  0  0  0  0  0  0  0  0  0
  -31.5900  -19.2920   23.6880 C   0  0  0  0  0  1  0  0  0  0  0  0
  -30.5320  -21.3510   22.1240 F   0  0  0  0  0  0  0  0  0  0  0  0
  -31.3820  -16.3710   22.8600 Cl  0  0  0  0  0  0  0  0  0  0  0  0
  -30.7450  -14.8850   20.1570 C   0  0  0  0  0  0  0  0  0  0  0  0
  -30.5590  -12.5860   19.1910 C   0  0  0  0  0  2  0  0  0  0  0  0
  -29.5770  -12.6000   17.9970 C   0  0  0  0  0  2  0  0  0  0  0  0
  -28.1220  -12.4290   18.4800 C   0  0  0  0  0  2  0  0  0  0  0  0
  -27.7740  -13.3600   19.6720 C   0  0  0  0  0  3  0  0  0  0  0  0
  -28.8620  -13.3080   20.7650 C   0  0  0  0  0  2  0  0  0  0  0  0
  -30.1370  -13.6540   20.1200 N   0  0  0  0  0  0  0  0  0  0  0  0
  -31.9360  -15.0010   19.8510 O   0  0  0  0  0  0  0  0  0  0  0  0
  -29.9070  -15.9860   20.2410 N   0  0  0  0  0  0  0  0  0  0  0  0
  -28.9330  -15.7370   20.1670 H   0  0  0  0  0  0  0  0  0  0  0  0
  -25.4300  -13.9860   20.5090 C   0  0  0  0  0  0  0  0  0  0  0  0
  -24.3610  -13.2270   20.8960 C   0  0  0  0  0  0  0  0  0  0  0  0
  -24.7900  -11.8660   20.8090 C   0  0  0  0  0  0  0  0  0  0  0  0
  -26.4430  -13.0890   20.2070 N   0  0  0  0  0  0  0  0  0  0  0  0
  -26.0660  -11.8080   20.4530 N   0  0  0  0  0  0  0  0  0  0  0  0
  -24.0430  -10.6160   20.9900 C   0  0  0  0  0  0  0  0  0  0  0  0
  -24.4860   -9.6160   21.8840 C   0  0  0  0  0  3  0  0  0  0  0  0
  -23.7410   -8.4290   22.0520 C   0  0  0  0  0  3  0  0  0  0  0  0
  -22.5430   -8.2340   21.3260 C   0  0  0  0  0  0  0  0  0  0  0  0
  -22.1200   -9.2210   20.4190 C   0  0  0  0  0  3  0  0  0  0  0  0
  -22.8630  -10.4000   20.2490 C   0  0  0  0  0  3  0  0  0  0  0  0
  -21.7670   -7.1020   21.4080 O   0  0  0  0  0  0  0  0  0  0  0  0
  -21.7290   -6.3360   22.5460 C   0  0  0  0  0  0  0  0  0  0  0  0
  -21.3300   -6.8700   23.7900 C   0  0  0  0  0  3  0  0  0  0  0  0
  -21.2370   -6.0320   24.9190 C   0  0  0  0  0  3  0  0  0  0  0  0
  -21.5330   -4.6610   24.8050 C   0  0  0  0  0  0  0  0  0  0  0  0
  -21.9260   -4.1250   23.5660 C   0  0  0  0  0  3  0  0  0  0  0  0
  -22.0210   -4.9600   22.4400 C   0  0  0  0  0  0  0  0  0  0  0  0
  -22.3790   -4.4360   21.2430 F   0  0  0  0  0  0  0  0  0  0  0  0
  -21.4370   -3.8530   25.8880 F   0  0  0  0  0  0  0  0  0  0  0  0
  -22.9850  -13.7260   21.2310 C   0  0  0  0  0  0  0  0  0  0  0  0
  -22.2750  -13.0230   22.1080 N   0  0  0  0  0  0  0  0  0  0  0  0
  -22.5500  -14.7720   20.7520 O   0  0  0  0  0  0  0  0  0  0  0  0
  -22.6410  -12.1760   22.5170 H   0  0  0  0  0  0  0  0  0  0  0  0
  -21.3540  -13.3360   22.3770 H   0  0  0  0  0  0  0  0  0  0  0  0
  -25.6160  -15.3590   20.3600 N   0  0  0  0  0  0  0  0  0  0  0  0
  -24.8540  -16.0160   20.4940 H   0  0  0  0  0  0  0  0  0  0  0  0
  -26.4410  -15.7890   19.9620 H   0  0  0  0  0  0  0  0  0  0  0  0
  -29.1400  -21.2160   19.6670 C   0  0  0  0  0  2  0  0  0  0  0  0
  -28.6950  -22.4530   20.4620 N   0  0  0  0  0  4  0  0  0  0  0  0
  -27.8130  -22.2190   20.8900 H   0  0  0  0  0  0  0  0  0  0  0  0
  -29.3610  -22.5450   21.2180 H   0  0  0  0  0  0  0  0  0  0  0  0
  -28.5560  -23.8240   19.7620 C   0  0  0  0  0  3  0  0  0  0  0  0
  -28.0850  -25.0980   20.6350 C   0  0  0  0  0  3  0  0  0  0  0  0
  -28.2710  -26.5090   20.1560 O   0  0  0  0  0  0  0  0  0  0  0  0
  -24.5880  -31.9470   23.2340 C   0  0  0  0  0  0  0  0  0  0  0  0
  -27.1670  -27.3810   20.1500 C   0  0  0  0  0  0  0  0  0  0  0  0
  -23.3780  -30.5590   21.5890 C   0  0  0  0  0  3  0  0  0  0  0  0
  -24.8190  -29.0170   20.1420 C   0  0  0  0  0  0  0  0  0  0  0  0
  -25.9150  -30.8770   21.3940 C   0  0  0  0  0  2  0  0  0  0  0  0
  -25.9920  -29.4980   20.7420 C   0  0  0  0  0  0  0  0  0  0  0  0
  -27.1730  -28.6920   20.7310 C   0  0  0  0  0  3  0  0  0  0  0  0
  -25.9760  -26.9600   19.5260 C   0  0  0  0  0  3  0  0  0  0  0  0
  -24.8140  -27.7580   19.5230 C   0  0  0  0  0  3  0  0  0  0  0  0
  -23.5880  -29.8990   20.1970 C   0  0  0  0  0  2  0  0  0  0  0  0
  -24.6460  -31.1460   22.1300 N   0  0  0  0  0  0  0  0  0  0  0  0
  -23.5060  -32.2200   23.7750 O   0  0  0  0  0  0  0  0  0  0  0  0
  -22.7170  -29.5340   22.5440 C   0  0  0  0  0  0  0  0  0  0  0  0
  -21.3890  -29.3610   22.4250 N   0  0  0  0  0  0  0  0  0  0  0  0
  -23.3970  -28.8970   23.3540 O   0  0  0  0  0  0  0  0  0  0  0  0
  -20.8940  -29.9280   21.7510 H   0  0  0  0  0  0  0  0  0  0  0  0
  -18.0140  -28.1570   22.9310 C   0  0  0  0  0  0  0  0  0  0  0  0
  -20.5750  -28.4200   23.1940 C   0  0  0  0  0  3  0  0  0  0  0  0
  -20.6750  -26.9900   22.6120 C   0  0  0  0  0  2  0  0  0  0  0  0
  -19.5710  -26.6720   21.5990 C   0  0  0  0  0  2  0  0  0  0  0  0
  -18.1910  -26.8110   22.2480 C   0  0  0  0  0  2  0  0  0  0  0  0
  -19.1340  -28.9190   23.3620 C   0  0  0  0  0  0  0  0  0  0  0  0
  -18.9160  -30.1770   23.9600 C   0  0  0  0  0  3  0  0  0  0  0  0
  -17.6090  -30.6760   24.1330 C   0  0  0  0  0  3  0  0  0  0  0  0
  -16.5040  -29.9140   23.7180 C   0  0  0  0  0  3  0  0  0  0  0  0
  -16.7070  -28.6550   23.1250 C   0  0  0  0  0  3  0  0  0  0  0  0
  -25.8740  -32.5750   23.8530 C   0  0  0  0  0  3  0  0  0  0  0  0
  -26.3900  -31.8010   25.1280 C   0  0  1  0  0  0  0  0  0  0  0  0
  -25.2980  -31.5660   26.1990 C   0  0  0  0  0  1  0  0  0  0  0  0
  -26.9730  -30.4250   24.7320 C   0  0  0  0  0  1  0  0  0  0  0  0
  -27.5470  -32.5920   25.7830 C   0  0  0  0  0  1  0  0  0  0  0  0
  -25.5700  -33.9750   24.1880 N   0  0  0  0  0  0  0  0  0  0  0  0
  -25.8980  -35.0260   23.4270 C   0  0  0  0  0  0  0  0  0  0  0  0
  -26.5580  -34.9200   22.3910 O   0  0  0  0  0  0  0  0  0  0  0  0
  -24.9890  -34.1290   24.9970 H   0  0  0  0  0  0  0  0  0  0  0  0
  -24.1770  -36.8310   23.0860 C   0  0  0  0  0  1  0  0  0  0  0  0
  -25.4210  -36.4170   23.8920 C   0  0  0  0  0  3  0  0  0  0  0  0
  -27.5580  -37.2950   24.7180 C   0  0  0  0  0  1  0  0  0  0  0  0
  -26.4560  -37.4660   23.7760 N   0  0  0  0  0  0  0  0  0  0  0  0
  -26.0520  -38.3860   23.9260 H   0  0  0  0  0  0  0  0  0  0  0  0
  1  2  2  0
  1  4  1  0
  2  5  1  0
  3  7  1  0
  4  6  2  0
  5  8  1  0
  5  3  2  0
  6  3  1  0
  6  9  1  0
 10 18  1  0
 11 16  1  0
 12 13  1  0
 12 11  1  0
 14 13  1  0
 14 23  1  0
 14 15  1  0
 16 10  1  0
 16 15  1  0
 17 10  2  0
 18  4  1  0
 19 18  1  0
 20 21  2  0
 21 40  1  0
 22 21  1  0
 22 25  1  0
 23 24  1  0
 23 20  1  0
 24 22  2  0
 25 26  1  0
 26 27  2  0
 28 31  1  0
 28 27  1  0
 29 28  2  0
 30 29  1  0
 30 25  2  0
 31 32  1  0
 32 33  1  0
 33 34  2  0
 35 34  1  0
 35 39  1  0
 36 35  2  0
 37 32  2  0
 37 36  1  0
 38 37  1  0
 40 41  1  0
 41 44  1  0
 41 43  1  0
 42 40  2  0
 45 46  1  0
 45 20  1  0
 47 45  1  0
 48  2  1  0
 48 49  1  0
 49 50  1  0
 49 51  1  0
 52 49  1  0
 52 53  2  0
 54 53  1  0
 55 66  2  0
 56 54  1  0
 56 61  1  0
 57 65  1  0
 57 67  1  0
 58 64  1  0
 58 60  1  0
 59 65  1  0
 60 59  1  0
 61 60  2  0
 62 56  2  0
 63 62  1  0
 63 58  2  0
 64 57  1  0
 65 55  1  0
 67 69  2  0
 68 67  1  0
 70 68  1  0
 71 80  2  0
 71 76  1  0
 72 68  1  0
 72 76  1  0
 73 72  1  0
 74 75  1  0
 74 73  1  0
 75 71  1  0
 76 77  2  0
 77 78  1  0
 79 78  2  0
 80 79  1  0
 81 55  1  0
 81 86  1  0
 81 82  1  0
 82 85  1  1
 82 83  1  0
 84 82  1  0
 86 89  1  0
 87 91  1  0
 87 86  1  0
 88 87  2  0
 91 90  1  0
 93 91  1  0
 93 94  1  0
 93 92  1  0
M  ISO  4  10 100  18 100  53 101  54 101
M  END
>  <TORSDO>  (21) 
F 20

>  <SCORE>  (21) 
-12.898

>  <name>  (21) 
20

>  <ligand_id>  (21) 
20

>  <original_smiles>  (21) 
[H]c1c([H])c([H])c2c(c1[H])C([H])([H])C([H])([H])C([H])([H])C2([H])N([H])C(=O)C1([H])N(C(=O)C([H])(N([H])C(=O)C([H])(N([H])C([H])([H])[H])C([H])([H])[H])C(C([H])([H])[H])(C([H])([H])[H])C([H])([H])[H])C([H])([H])c2c([H])c(OC([H])([H])C([H])([H])[N+]([H])([H])C([H])([H])c3c([H])c(N([H])C(=O)N4C([H])([H])C([H])([H])C([H])([H])C([H])(n5nc(-c6c([H])c([H])c(Oc7c([H])c([H])c(F)c([H])c7F)c([H])c6[H])c(C(=O)N([H])[H])c5N([H])[H])C4([H])[H])c(Cl)c(C([H])([H])[H])c3F)c([H])c([H])c2C1([H])[H]

>  <smiles>  (21) 
[H]c1c([H])c([H])c2c(c1[H])C([H])([H])C([H])([H])C([H])([H])C2([H])N([H])C(=O)C1([H])N(C(=O)C([H])(N([H])C(=O)C([H])(N([H])C([H])([H])[H])C([H])([H])[H])C(C([H])([H])[H])(C([H])([H])[H])C([H])([H])[H])C([H])([H])c2c([H])c(OC([H])([H])C([H])([H])[N+]([H])([H])C([H])([H])c3c([H])c(N([H])C(=O)N4C([H])([H])C([H])([H])C([H])([H])C([H])(n5nc(-c6c([H])c([H])c(Oc7c([H])c([H])c(F)c([H])c7F)c([H])c6[H])c(C(=O)N([H])[H])c5N([H])[H])C4([H])[H])c(Cl)c(C([H])([H])[H])c3F)c([H])c([H])c2C1([H])[H]

$$$$
21:0:0
     RDKit          3D

 97105  0  0  1  0  0  0  0  0999 V2000
  -33.1360  -19.9800   21.1670 C   0  0  0  0  0  3  0  0  0  0  0  0
  -33.4380  -17.6280   20.6710 C   0  0  0  0  0  3  0  0  0  0  0  0
  -33.9900  -18.9110   20.8420 C   0  0  0  0  0  0  0  0  0  0  0  0
  -31.7490  -19.7840   21.3470 C   0  0  0  0  0  0  0  0  0  0  0  0
  -31.2010  -18.4790   21.2230 C   0  0  0  0  0  0  0  0  0  0  0  0
  -32.0540  -17.4060   20.8490 C   0  0  0  0  0  0  0  0  0  0  0  0
  -29.7100  -18.2370   21.4640 C   0  0  0  0  0  1  0  0  0  0  0  0
  -32.0530  -15.0850   20.0130 C   0  0  0  0  0  0  0  0  0  0  0  0
  -31.8350  -12.6930   19.4550 C   0  0  0  0  0  2  0  0  0  0  0  0
  -30.9620  -12.4700   18.2080 C   0  0  0  0  0  2  0  0  0  0  0  0
  -29.4700  -12.4020   18.5890 C   0  0  0  0  0  2  0  0  0  0  0  0
  -29.0320  -13.5850   19.4920 C   0  0  0  0  0  3  0  0  0  0  0  0
  -30.0120  -13.7560   20.6730 C   0  0  0  0  0  2  0  0  0  0  0  0
  -31.3750  -13.9150   20.1290 N   0  0  0  0  0  0  0  0  0  0  0  0
  -33.0880  -15.2070   19.3500 O   0  0  0  0  0  0  0  0  0  0  0  0
  -31.5290  -16.0970   20.7170 N   0  0  0  0  0  0  0  0  0  0  0  0
  -30.6250  -15.9220   21.1270 H   0  0  0  0  0  0  0  0  0  0  0  0
  -26.6330  -14.3520   20.0430 C   0  0  0  0  0  0  0  0  0  0  0  0
  -25.5310  -13.6630   20.4720 C   0  0  0  0  0  0  0  0  0  0  0  0
  -25.9470  -12.3040   20.6200 C   0  0  0  0  0  0  0  0  0  0  0  0
  -27.6560  -13.4170   19.9550 N   0  0  0  0  0  0  0  0  0  0  0  0
  -27.2410  -12.1880   20.3560 N   0  0  0  0  0  0  0  0  0  0  0  0
  -25.1740  -11.0970   20.9410 C   0  0  0  0  0  0  0  0  0  0  0  0
  -25.3340  -10.4230   22.1710 C   0  0  0  0  0  3  0  0  0  0  0  0
  -24.5670   -9.2750   22.4640 C   0  0  0  0  0  3  0  0  0  0  0  0
  -23.6260   -8.7930   21.5230 C   0  0  0  0  0  0  0  0  0  0  0  0
  -23.4870   -9.4540   20.2900 C   0  0  0  0  0  3  0  0  0  0  0  0
  -24.2540  -10.5930   19.9990 C   0  0  0  0  0  3  0  0  0  0  0  0
  -22.8560   -7.6700   21.7110 O   0  0  0  0  0  0  0  0  0  0  0  0
  -22.1850   -7.4450   22.8860 C   0  0  0  0  0  0  0  0  0  0  0  0
  -21.2350   -8.3600   23.3890 C   0  0  0  0  0  3  0  0  0  0  0  0
  -20.5180   -8.0570   24.5650 C   0  0  0  0  0  3  0  0  0  0  0  0
  -20.7430   -6.8380   25.2310 C   0  0  0  0  0  0  0  0  0  0  0  0
  -21.6840   -5.9220   24.7300 C   0  0  0  0  0  3  0  0  0  0  0  0
  -22.4000   -6.2240   23.5590 C   0  0  0  0  0  0  0  0  0  0  0  0
  -23.2920   -5.3300   23.0660 F   0  0  0  0  0  0  0  0  0  0  0  0
  -20.0490   -6.5420   26.3550 F   0  0  0  0  0  0  0  0  0  0  0  0
  -24.1430  -14.2120   20.6450 C   0  0  0  0  0  0  0  0  0  0  0  0
  -23.3850  -13.6740   21.5940 N   0  0  0  0  0  0  0  0  0  0  0  0
  -23.7400  -15.1570   19.9680 O   0  0  0  0  0  0  0  0  0  0  0  0
  -23.7210  -12.9120   22.1630 H   0  0  0  0  0  0  0  0  0  0  0  0
  -22.4520  -14.0290   21.7540 H   0  0  0  0  0  0  0  0  0  0  0  0
  -26.8480  -15.6850   19.7030 N   0  0  0  0  0  0  0  0  0  0  0  0
  -26.0960  -16.3650   19.6980 H   0  0  0  0  0  0  0  0  0  0  0  0
  -27.7180  -16.0530   19.3410 H   0  0  0  0  0  0  0  0  0  0  0  0
  -35.4840  -19.1480   20.6690 C   0  0  1  0  0  0  0  0  0  0  0  0
  -35.8310  -20.3540   21.1220 F   0  0  0  0  0  0  0  0  0  0  0  0
  -36.1960  -18.2380   21.3350 F   0  0  0  0  0  0  0  0  0  0  0  0
  -35.8020  -19.0750   19.3750 F   0  0  0  0  0  0  0  0  0  0  0  0
  -30.8990  -21.0120   21.6510 C   0  0  0  0  0  2  0  0  0  0  0  0
  -31.2920  -22.2090   20.7740 C   0  0  0  0  0  2  0  0  0  0  0  0
  -30.3870  -23.4180   21.0110 C   0  0  0  0  0  2  0  0  0  0  0  0
  -30.8970  -24.6580   20.2680 C   0  0  0  0  0  2  0  0  0  0  0  0
  -29.8890  -25.8050   20.3290 C   0  0  0  0  0  2  0  0  0  0  0  0
  -30.3350  -27.0150   19.5010 C   0  0  0  0  0  2  0  0  0  0  0  0
  -29.3030  -28.1440   19.5540 C   0  0  0  0  0  2  0  0  0  0  0  0
  -28.1360  -27.6910   18.8770 O   0  0  0  0  0  0  0  0  0  0  0  0
  -24.2310  -31.8440   23.1710 C   0  0  0  0  0  0  0  0  0  0  0  0
  -26.9380  -28.2960   19.1760 C   0  0  0  0  0  0  0  0  0  0  0  0
  -22.9780  -30.5400   21.4780 C   0  0  0  0  0  3  0  0  0  0  0  0
  -24.3940  -29.4180   19.6800 C   0  0  0  0  0  0  0  0  0  0  0  0
  -25.3880  -31.2620   21.0490 C   0  0  0  0  0  2  0  0  0  0  0  0
  -25.5450  -30.0150   20.2090 C   0  0  0  0  0  0  0  0  0  0  0  0
  -26.8150  -29.4630   19.9630 C   0  0  0  0  0  3  0  0  0  0  0  0
  -25.7730  -27.7040   18.6460 C   0  0  0  0  0  3  0  0  0  0  0  0
  -24.5010  -28.2540   18.8970 C   0  0  0  0  0  3  0  0  0  0  0  0
  -23.0780  -30.0860   19.9960 C   0  0  0  0  0  2  0  0  0  0  0  0
  -24.2230  -31.2220   21.9580 N   0  0  0  0  0  0  0  0  0  0  0  0
  -23.2090  -31.8980   23.8680 O   0  0  0  0  0  0  0  0  0  0  0  0
  -22.5780  -29.3210   22.3370 C   0  0  0  0  0  0  0  0  0  0  0  0
  -21.3410  -28.8350   22.1420 N   0  0  0  0  0  0  0  0  0  0  0  0
  -23.3770  -28.8180   23.1310 O   0  0  0  0  0  0  0  0  0  0  0  0
  -20.7480  -29.3100   21.4770 H   0  0  0  0  0  0  0  0  0  0  0  0
  -18.4290  -26.7040   22.2510 C   0  0  0  0  0  0  0  0  0  0  0  0
  -20.7590  -27.6700   22.8080 C   0  0  0  0  0  3  0  0  0  0  0  0
  -21.3320  -26.3560   22.2290 C   0  0  0  0  0  2  0  0  0  0  0  0
  -20.4800  -25.7760   21.0960 C   0  0  0  0  0  2  0  0  0  0  0  0
  -19.0570  -25.4920   21.5840 C   0  0  0  0  0  2  0  0  0  0  0  0
  -19.2290  -27.7340   22.8110 C   0  0  0  0  0  0  0  0  0  0  0  0
  -18.5970  -28.8580   23.3860 C   0  0  0  0  0  3  0  0  0  0  0  0
  -17.1930  -28.9600   23.4110 C   0  0  0  0  0  3  0  0  0  0  0  0
  -16.4050  -27.9300   22.8710 C   0  0  0  0  0  3  0  0  0  0  0  0
  -17.0230  -26.8040   22.2960 C   0  0  0  0  0  3  0  0  0  0  0  0
  -25.5140  -32.5390   23.7300 C   0  0  0  0  0  3  0  0  0  0  0  0
  -26.1620  -31.7670   24.9440 C   0  0  1  0  0  0  0  0  0  0  0  0
  -25.1420  -31.3450   26.0270 C   0  0  0  0  0  1  0  0  0  0  0  0
  -26.8850  -30.4920   24.4510 C   0  0  0  0  0  1  0  0  0  0  0  0
  -27.2380  -32.6510   25.6200 C   0  0  0  0  0  1  0  0  0  0  0  0
  -25.1440  -33.9050   24.1220 N   0  0  0  0  0  0  0  0  0  0  0  0
  -25.4710  -35.0070   23.4360 C   0  0  0  0  0  0  0  0  0  0  0  0
  -26.1910  -34.9820   22.4340 O   0  0  0  0  0  0  0  0  0  0  0  0
  -24.5220  -33.9940   24.9110 H   0  0  0  0  0  0  0  0  0  0  0  0
  -23.7370  -36.7830   23.0520 C   0  0  0  0  0  1  0  0  0  0  0  0
  -24.9120  -36.3500   23.9420 C   0  0  0  0  0  3  0  0  0  0  0  0
  -26.9550  -37.2030   25.0030 C   0  0  0  0  0  1  0  0  0  0  0  0
  -25.9240  -37.4290   23.9930 N   0  0  0  0  0  0  0  0  0  0  0  0
  -25.4850  -38.3260   24.1810 H   0  0  0  0  0  0  0  0  0  0  0  0
  1  4  1  0
  2  3  1  0
  2  6  2  0
  3  1  2  0
  4 50  1  0
  5  4  2  0
  5  7  1  0
  6  5  1  0
  8 14  1  0
  8 16  1  0
  9 14  1  0
 10 11  1  0
 10  9  1  0
 12 11  1  0
 12 21  1  0
 12 13  1  0
 14 13  1  0
 15  8  2  0
 16  6  1  0
 16 17  1  0
 18 19  2  0
 19 20  1  0
 19 38  1  0
 20 23  1  0
 21 18  1  0
 21 22  1  0
 22 20  2  0
 23 24  1  0
 24 25  2  0
 26 29  1  0
 26 25  1  0
 27 26  2  0
 28 27  1  0
 28 23  2  0
 29 30  1  0
 30 31  2  0
 30 35  1  0
 31 32  1  0
 32 33  2  0
 33 37  1  0
 34 33  1  0
 35 34  2  0
 36 35  1  0
 38 39  1  0
 39 42  1  0
 39 41  1  0
 40 38  2  0
 43 18  1  0
 44 43  1  0
 45 43  1  0
 46  3  1  0
 46 47  1  1
 46 48  1  0
 49 46  1  0
 51 52  1  0
 51 50  1  0
 53 54  1  0
 53 52  1  0
 55 56  1  0
 55 54  1  0
 57 59  1  0
 57 56  1  0
 58 69  2  0
 59 64  1  0
 60 68  1  0
 60 70  1  0
 61 67  1  0
 61 63  1  0
 62 68  1  0
 63 62  1  0
 64 63  2  0
 65 66  1  0
 65 59  2  0
 66 61  2  0
 67 60  1  0
 68 58  1  0
 70 72  2  0
 71 70  1  0
 73 71  1  0
 74 83  2  0
 74 79  1  0
 75 71  1  0
 75 79  1  0
 76 75  1  0
 77 78  1  0
 77 76  1  0
 78 74  1  0
 79 80  2  0
 80 81  1  0
 82 81  2  0
 83 82  1  0
 84 58  1  0
 84 89  1  0
 84 85  1  0
 85 88  1  1
 85 86  1  0
 87 85  1  0
 89 92  1  0
 90 94  1  0
 90 89  1  0
 91 90  2  0
 94 93  1  0
 94 96  1  0
 96 97  1  0
 96 95  1  0
M  ISO  4   8 100  16 100  56 101  57 101
M  END
>  <TORSDO>  (22) 
F 24

>  <SCORE>  (22) 
-6.534

>  <name>  (22) 
21

>  <ligand_id>  (22) 
21

>  <original_smiles>  (22) 
[H]c1c([H])c([H])c2c(c1[H])C([H])([H])C([H])([H])C([H])([H])C2([H])N([H])C(=O)C1([H])N(C(=O)C([H])(N([H])C(=O)C([H])(N([H])C([H])([H])[H])C([H])([H])[H])C(C([H])([H])[H])(C([H])([H])[H])C([H])([H])[H])C([H])([H])c2c([H])c(OC([H])([H])C([H])([H])C([H])([H])C([H])([H])C([H])([H])C([H])([H])C([H])([H])c3c([H])c(C(F)(F)F)c([H])c(N([H])C(=O)N4C([H])([H])C([H])([H])C([H])([H])C([H])(n5nc(-c6c([H])c([H])c(Oc7c([H])c([H])c(F)c([H])c7F)c([H])c6[H])c(C(=O)N([H])[H])c5N([H])[H])C4([H])[H])c3C([H])([H])[H])c([H])c([H])c2C1([H])[H]

>  <smiles>  (22) 
[H]c1c([H])c([H])c2c(c1[H])C([H])([H])C([H])([H])C([H])([H])C2([H])N([H])C(=O)C1([H])N(C(=O)C([H])(N([H])C(=O)C([H])(N([H])C([H])([H])[H])C([H])([H])[H])C(C([H])([H])[H])(C([H])([H])[H])C([H])([H])[H])C([H])([H])c2c([H])c(OC([H])([H])C([H])([H])C([H])([H])C([H])([H])C([H])([H])C([H])([H])C([H])([H])c3c([H])c(C(F)(F)F)c([H])c(N([H])C(=O)N4C([H])([H])C([H])([H])C([H])([H])C([H])(n5nc(-c6c([H])c([H])c(Oc7c([H])c([H])c(F)c([H])c7F)c([H])c6[H])c(C(=O)N([H])[H])c5N([H])[H])C4([H])[H])c3C([H])([H])[H])c([H])c([H])c2C1([H])[H]

$$$$
22:0:0
     RDKit          3D

 91 99  0  0  1  0  0  0  0  0999 V2000
  -28.6160  -19.4640   20.3480 C   0  0  0  0  0  3  0  0  0  0  0  0
  -30.4990  -19.1500   21.7830 C   0  0  0  0  0  3  0  0  0  0  0  0
  -29.5940  -20.0500   21.1700 C   0  0  0  0  0  0  0  0  0  0  0  0
  -28.6130  -18.0720   20.0530 C   0  0  0  0  0  0  0  0  0  0  0  0
  -29.6320  -17.1700   20.5410 C   0  0  0  0  0  0  0  0  0  0  0  0
  -30.5200  -17.7520   21.5060 C   0  0  0  0  0  0  0  0  0  0  0  0
  -27.4530  -17.6330   19.1720 C   0  0  0  0  0  1  0  0  0  0  0  0
  -31.6980  -16.8480   22.3940 Cl  0  0  0  0  0  0  0  0  0  0  0  0
  -30.5430  -14.7330   20.3690 C   0  0  0  0  0  0  0  0  0  0  0  0
  -30.3400  -12.4390   19.4460 C   0  0  0  0  0  2  0  0  0  0  0  0
  -29.4090  -12.4530   18.2140 C   0  0  0  0  0  2  0  0  0  0  0  0
  -27.9270  -12.3620   18.6280 C   0  0  0  0  0  2  0  0  0  0  0  0
  -27.5500  -13.2640   19.8370 C   0  0  0  0  0  3  0  0  0  0  0  0
  -28.6070  -13.2100   20.9590 C   0  0  0  0  0  2  0  0  0  0  0  0
  -29.9020  -13.5220   20.3480 N   0  0  0  0  0  0  0  0  0  0  0  0
  -31.7620  -14.7830   20.1820 O   0  0  0  0  0  0  0  0  0  0  0  0
  -29.7070  -15.8460   18.4620 C   0  0  0  0  0  1  0  0  0  0  0  0
  -29.7830  -15.8140   19.9440 N   0  0  0  0  0  0  0  0  0  0  0  0
  -25.1560  -13.8530   20.5470 C   0  0  0  0  0  0  0  0  0  0  0  0
  -24.0880  -13.0730   20.8990 C   0  0  0  0  0  0  0  0  0  0  0  0
  -24.5610  -11.7280   20.8770 C   0  0  0  0  0  0  0  0  0  0  0  0
  -26.2060  -12.9770   20.3230 N   0  0  0  0  0  0  0  0  0  0  0  0
  -25.8540  -11.6950   20.5880 N   0  0  0  0  0  0  0  0  0  0  0  0
  -23.8420  -10.4630   21.0580 C   0  0  0  0  0  0  0  0  0  0  0  0
  -24.2720   -9.4990   21.9980 C   0  0  0  0  0  3  0  0  0  0  0  0
  -23.5500   -8.2980   22.1690 C   0  0  0  0  0  3  0  0  0  0  0  0
  -22.3890   -8.0530   21.4000 C   0  0  0  0  0  0  0  0  0  0  0  0
  -21.9790   -9.0060   20.4510 C   0  0  0  0  0  3  0  0  0  0  0  0
  -22.6990  -10.1980   20.2780 C   0  0  0  0  0  3  0  0  0  0  0  0
  -21.6380   -6.9050   21.4820 O   0  0  0  0  0  0  0  0  0  0  0  0
  -21.5830   -6.1650   22.6360 C   0  0  0  0  0  0  0  0  0  0  0  0
  -21.1280   -6.7160   23.8530 C   0  0  0  0  0  3  0  0  0  0  0  0
  -21.0220   -5.9020   24.9980 C   0  0  0  0  0  3  0  0  0  0  0  0
  -21.3590   -4.5380   24.9250 C   0  0  0  0  0  0  0  0  0  0  0  0
  -21.8080   -3.9860   23.7130 C   0  0  0  0  0  3  0  0  0  0  0  0
  -21.9180   -4.7980   22.5710 C   0  0  0  0  0  0  0  0  0  0  0  0
  -22.3320   -4.2570   21.4000 F   0  0  0  0  0  0  0  0  0  0  0  0
  -21.2490   -3.7530   26.0230 F   0  0  0  0  0  0  0  0  0  0  0  0
  -22.6870  -13.5470   21.1530 C   0  0  0  0  0  0  0  0  0  0  0  0
  -21.9500  -12.8420   22.0050 N   0  0  0  0  0  0  0  0  0  0  0  0
  -22.2560  -14.5750   20.6350 O   0  0  0  0  0  0  0  0  0  0  0  0
  -22.3090  -12.0070   22.4400 H   0  0  0  0  0  0  0  0  0  0  0  0
  -21.0110  -13.1450   22.2250 H   0  0  0  0  0  0  0  0  0  0  0  0
  -25.3060  -15.2230   20.3870 N   0  0  0  0  0  0  0  0  0  0  0  0
  -24.5380  -15.8680   20.5360 H   0  0  0  0  0  0  0  0  0  0  0  0
  -26.1810  -15.6820   20.1780 H   0  0  0  0  0  0  0  0  0  0  0  0
  -29.7160  -21.5880   21.4170 C   0  0  0  0  0  3  0  0  0  0  0  0
  -28.7070  -22.5950   20.7380 C   0  0  0  0  0  3  0  0  0  0  0  0
  -29.0350  -24.1430   20.8820 C   0  0  0  0  0  3  0  0  0  0  0  0
  -28.0410  -25.1390   20.1730 C   0  0  0  0  0  3  0  0  0  0  0  0
  -28.2670  -26.5870   20.3170 O   0  0  0  0  0  0  0  0  0  0  0  0
  -24.5530  -31.9390   23.3020 C   0  0  0  0  0  0  0  0  0  0  0  0
  -27.1510  -27.4250   20.2260 C   0  0  0  0  0  0  0  0  0  0  0  0
  -23.3400  -30.5530   21.6560 C   0  0  0  0  0  3  0  0  0  0  0  0
  -24.7860  -29.0220   20.2090 C   0  0  0  0  0  0  0  0  0  0  0  0
  -25.8750  -30.8820   21.4610 C   0  0  0  0  0  2  0  0  0  0  0  0
  -25.9530  -29.5090   20.8110 C   0  0  0  0  0  0  0  0  0  0  0  0
  -27.1380  -28.7220   20.8140 C   0  0  0  0  0  3  0  0  0  0  0  0
  -25.9690  -26.9920   19.5790 C   0  0  0  0  0  3  0  0  0  0  0  0
  -24.7960  -27.7670   19.5830 C   0  0  0  0  0  3  0  0  0  0  0  0
  -23.5480  -29.8900   20.2680 C   0  0  0  0  0  2  0  0  0  0  0  0
  -24.6090  -31.1400   22.1970 N   0  0  0  0  0  0  0  0  0  0  0  0
  -23.4720  -32.2150   23.8420 O   0  0  0  0  0  0  0  0  0  0  0  0
  -22.6830  -29.5290   22.6100 C   0  0  0  0  0  0  0  0  0  0  0  0
  -21.3620  -29.3350   22.4670 N   0  0  0  0  0  0  0  0  0  0  0  0
  -23.3600  -28.9100   23.4350 O   0  0  0  0  0  0  0  0  0  0  0  0
  -20.8740  -29.8860   21.7740 H   0  0  0  0  0  0  0  0  0  0  0  0
  -17.9920  -28.1080   22.9260 C   0  0  0  0  0  0  0  0  0  0  0  0
  -20.5430  -28.3930   23.2320 C   0  0  0  0  0  3  0  0  0  0  0  0
  -20.6690  -26.9600   22.6650 C   0  0  0  0  0  2  0  0  0  0  0  0
  -19.5840  -26.6220   21.6380 C   0  0  0  0  0  2  0  0  0  0  0  0
  -18.1920  -26.7570   22.2600 C   0  0  0  0  0  2  0  0  0  0  0  0
  -19.0960  -28.8830   23.3680 C   0  0  0  0  0  0  0  0  0  0  0  0
  -18.8570  -30.1470   23.9490 C   0  0  0  0  0  3  0  0  0  0  0  0
  -17.5450  -30.6350   24.0950 C   0  0  0  0  0  3  0  0  0  0  0  0
  -16.4540  -29.8570   23.6690 C   0  0  0  0  0  3  0  0  0  0  0  0
  -16.6790  -28.5950   23.0910 C   0  0  0  0  0  3  0  0  0  0  0  0
  -25.8400  -32.5630   23.9220 C   0  0  0  0  0  3  0  0  0  0  0  0
  -26.3370  -31.8040   25.2130 C   0  0  1  0  0  0  0  0  0  0  0  0
  -25.2310  -31.5930   26.2740 C   0  0  0  0  0  1  0  0  0  0  0  0
  -26.9080  -30.4140   24.8460 C   0  0  0  0  0  1  0  0  0  0  0  0
  -27.4930  -32.5930   25.8730 C   0  0  0  0  0  1  0  0  0  0  0  0
  -25.5470  -33.9710   24.2270 N   0  0  0  0  0  0  0  0  0  0  0  0
  -25.8970  -35.0050   23.4520 C   0  0  0  0  0  0  0  0  0  0  0  0
  -26.5720  -34.8760   22.4270 O   0  0  0  0  0  0  0  0  0  0  0  0
  -24.9460  -34.1440   25.0200 H   0  0  0  0  0  0  0  0  0  0  0  0
  -24.2020  -36.8190   23.0490 C   0  0  0  0  0  1  0  0  0  0  0  0
  -25.4250  -36.4070   23.8830 C   0  0  0  0  0  3  0  0  0  0  0  0
  -27.5580  -37.2760   24.7350 C   0  0  0  0  0  1  0  0  0  0  0  0
  -26.4750  -37.4430   23.7690 N   0  0  0  0  0  0  0  0  0  0  0  0
  -26.0790  -38.3710   23.8940 H   0  0  0  0  0  0  0  0  0  0  0  0
  1  3  1  0
  3 47  1  0
  3  2  2  0
  4  1  2  0
  4  5  1  0
  5  6  2  0
  6  2  1  0
  6  8  1  0
  7  4  1  0
 10 15  1  0
 11 12  1  0
 11 10  1  0
 13 12  1  0
 13 22  1  0
 13 14  1  0
 15  9  1  0
 15 14  1  0
 16  9  2  0
 17 18  1  0
 18  9  1  0
 18  5  1  0
 19 20  2  0
 20 39  1  0
 21 20  1  0
 21 24  1  0
 22 19  1  0
 22 23  1  0
 23 21  2  0
 24 25  1  0
 25 26  2  0
 27 30  1  0
 27 26  1  0
 28 27  2  0
 29 28  1  0
 29 24  2  0
 30 31  1  0
 31 32  1  0
 32 33  2  0
 34 33  1  0
 34 38  1  0
 35 34  2  0
 36 31  2  0
 36 35  1  0
 37 36  1  0
 39 40  1  0
 40 43  1  0
 40 42  1  0
 41 39  2  0
 44 45  1  0
 44 19  1  0
 46 44  1  0
 48 49  1  0
 48 47  2  0
 50 51  1  0
 50 49  2  0
 52 63  2  0
 53 51  1  0
 53 58  1  0
 54 62  1  0
 54 64  1  0
 55 61  1  0
 55 57  1  0
 56 62  1  0
 57 58  2  0
 57 56  1  0
 59 60  1  0
 59 53  2  0
 60 55  2  0
 61 54  1  0
 62 52  1  0
 64 66  2  0
 65 64  1  0
 67 65  1  0
 68 77  2  0
 68 73  1  0
 69 65  1  0
 69 73  1  0
 70 69  1  0
 71 72  1  0
 71 70  1  0
 72 68  1  0
 73 74  2  0
 74 75  1  0
 76 75  2  0
 77 76  1  0
 78 52  1  0
 78 83  1  0
 78 79  1  0
 79 82  1  1
 79 80  1  0
 81 79  1  0
 83 86  1  0
 84 88  1  0
 84 83  1  0
 85 84  2  0
 88 87  1  0
 90 88  1  0
 90 91  1  0
 90 89  1  0
M  ISO  4   9 100  18 100  50 101  51 101
M  END
>  <TORSDO>  (23) 
F 20

>  <SCORE>  (23) 
-12.772

>  <name>  (23) 
22

>  <ligand_id>  (23) 
22

>  <original_smiles>  (23) 
[H]c1c([H])c([H])c2c(c1[H])C([H])([H])C([H])([H])C([H])([H])C2([H])N([H])C(=O)C1([H])N(C(=O)C([H])(N([H])C(=O)C([H])(N([H])C([H])([H])[H])C([H])([H])[H])C(C([H])([H])[H])(C([H])([H])[H])C([H])([H])[H])C([H])([H])c2c([H])c(OC([H])([H])C([H])([H])C([H])([H])C([H])([H])c3c([H])c(Cl)c(N(C(=O)N4C([H])([H])C([H])([H])C([H])([H])C([H])(n5nc(-c6c([H])c([H])c(Oc7c([H])c([H])c(F)c([H])c7F)c([H])c6[H])c(C(=O)N([H])[H])c5N([H])[H])C4([H])[H])C([H])([H])[H])c(C([H])([H])[H])c3[H])c([H])c([H])c2C1([H])[H]

>  <smiles>  (23) 
[H]c1c([H])c([H])c2c(c1[H])C([H])([H])C([H])([H])C([H])([H])C2([H])N([H])C(=O)C1([H])N(C(=O)C([H])(N([H])C(=O)C([H])(N([H])C([H])([H])[H])C([H])([H])[H])C(C([H])([H])[H])(C([H])([H])[H])C([H])([H])[H])C([H])([H])c2c([H])c(OC([H])([H])C([H])([H])C([H])([H])C([H])([H])c3c([H])c(Cl)c(N(C(=O)N4C([H])([H])C([H])([H])C([H])([H])C([H])(n5nc(-c6c([H])c([H])c(Oc7c([H])c([H])c(F)c([H])c7F)c([H])c6[H])c(C(=O)N([H])[H])c5N([H])[H])C4([H])[H])C([H])([H])[H])c(C([H])([H])[H])c3[H])c([H])c([H])c2C1([H])[H]

$$$$
23:0:0
     RDKit          3D

 93101  0  0  1  0  0  0  0  0999 V2000
  -29.7910  -19.0160   20.3470 C   0  0  0  0  0  3  0  0  0  0  0  0
  -30.3300  -19.6200   21.5040 C   0  0  0  0  0  0  0  0  0  0  0  0
  -30.9270  -18.7930   22.4950 C   0  0  0  0  0  0  0  0  0  0  0  0
  -30.4100  -16.7920   21.1580 C   0  0  0  0  0  0  0  0  0  0  0  0
  -29.8150  -17.6180   20.1720 C   0  0  0  0  0  0  0  0  0  0  0  0
  -30.9490  -17.3820   22.3240 C   0  0  0  0  0  0  0  0  0  0  0  0
  -31.5140  -19.4260   23.7540 C   0  0  0  0  0  1  0  0  0  0  0  0
  -29.0090  -16.9610   18.7870 Cl  0  0  0  0  0  0  0  0  0  0  0  0
  -31.6010  -16.3500   23.5570 Cl  0  0  0  0  0  0  0  0  0  0  0  0
  -30.9480  -14.5250   20.2650 C   0  0  0  0  0  0  0  0  0  0  0  0
  -30.6340  -12.4050   19.0340 C   0  0  0  0  0  2  0  0  0  0  0  0
  -29.6660  -12.6420   17.8550 C   0  0  0  0  0  2  0  0  0  0  0  0
  -28.1950  -12.5240   18.3050 C   0  0  0  0  0  2  0  0  0  0  0  0
  -27.8960  -13.3530   19.5810 C   0  0  0  0  0  3  0  0  0  0  0  0
  -28.9520  -13.0460   20.6660 C   0  0  0  0  0  2  0  0  0  0  0  0
  -30.2850  -13.3490   20.1070 N   0  0  0  0  0  0  0  0  0  0  0  0
  -32.0050  -14.8000   19.6860 O   0  0  0  0  0  0  0  0  0  0  0  0
  -30.3360  -15.3730   21.1040 N   0  0  0  0  0  0  0  0  0  0  0  0
  -29.6220  -14.9610   21.6840 H   0  0  0  0  0  0  0  0  0  0  0  0
  -25.5120  -14.0210   20.2960 C   0  0  0  0  0  0  0  0  0  0  0  0
  -24.4330  -13.2730   20.6850 C   0  0  0  0  0  0  0  0  0  0  0  0
  -24.8680  -11.9130   20.6660 C   0  0  0  0  0  0  0  0  0  0  0  0
  -26.5380  -13.1160   20.0690 N   0  0  0  0  0  0  0  0  0  0  0  0
  -26.1530  -11.8450   20.3440 N   0  0  0  0  0  0  0  0  0  0  0  0
  -24.1230  -10.6660   20.8790 C   0  0  0  0  0  0  0  0  0  0  0  0
  -24.5350   -9.7130   21.8350 C   0  0  0  0  0  3  0  0  0  0  0  0
  -23.7920   -8.5290   22.0330 C   0  0  0  0  0  3  0  0  0  0  0  0
  -22.6200   -8.2920   21.2750 C   0  0  0  0  0  0  0  0  0  0  0  0
  -22.2290   -9.2340   20.3070 C   0  0  0  0  0  3  0  0  0  0  0  0
  -22.9730  -10.4090   20.1070 C   0  0  0  0  0  3  0  0  0  0  0  0
  -21.8490   -7.1600   21.3810 O   0  0  0  0  0  0  0  0  0  0  0  0
  -21.7540   -6.4630   22.5590 C   0  0  0  0  0  0  0  0  0  0  0  0
  -21.3040   -7.0710   23.7520 C   0  0  0  0  0  3  0  0  0  0  0  0
  -21.1530   -6.3010   24.9210 C   0  0  0  0  0  3  0  0  0  0  0  0
  -21.4430   -4.9230   24.9010 C   0  0  0  0  0  0  0  0  0  0  0  0
  -21.8860   -4.3150   23.7130 C   0  0  0  0  0  3  0  0  0  0  0  0
  -22.0380   -5.0830   22.5450 C   0  0  0  0  0  0  0  0  0  0  0  0
  -22.4450   -4.4880   21.3980 F   0  0  0  0  0  0  0  0  0  0  0  0
  -21.2910   -4.1810   26.0220 F   0  0  0  0  0  0  0  0  0  0  0  0
  -23.0470  -13.7790   20.9670 C   0  0  0  0  0  0  0  0  0  0  0  0
  -22.3200  -13.1120   21.8560 N   0  0  0  0  0  0  0  0  0  0  0  0
  -22.6170  -14.8010   20.4340 O   0  0  0  0  0  0  0  0  0  0  0  0
  -22.6790  -12.2840   22.3100 H   0  0  0  0  0  0  0  0  0  0  0  0
  -21.3910  -13.4330   22.0880 H   0  0  0  0  0  0  0  0  0  0  0  0
  -25.7020  -15.3870   20.1020 N   0  0  0  0  0  0  0  0  0  0  0  0
  -24.9540  -16.0610   20.2180 H   0  0  0  0  0  0  0  0  0  0  0  0
  -26.5610  -15.8030   19.7640 H   0  0  0  0  0  0  0  0  0  0  0  0
  -30.2880  -21.1430   21.7030 C   0  0  0  0  0  2  0  0  0  0  0  0
  -29.3390  -21.9750   20.8080 C   0  0  0  0  0  2  0  0  0  0  0  0
  -29.4440  -23.4850   21.1490 C   0  0  0  0  0  2  0  0  0  0  0  0
  -28.4460  -24.4560   20.4300 C   0  0  0  0  0  2  0  0  0  0  0  0
  -28.7930  -25.6880   19.5270 C   0  0  0  0  0  2  0  0  0  0  0  0
  -28.6050  -26.9780   20.1270 O   0  0  0  0  0  0  0  0  0  0  0  0
  -24.6330  -31.9600   23.2340 C   0  0  0  0  0  0  0  0  0  0  0  0
  -27.3780  -27.6060   20.1190 C   0  0  0  0  0  0  0  0  0  0  0  0
  -23.4600  -30.5590   21.5630 C   0  0  0  0  0  3  0  0  0  0  0  0
  -24.9480  -29.0520   20.1380 C   0  0  0  0  0  0  0  0  0  0  0  0
  -25.9790  -30.9590   21.3910 C   0  0  0  0  0  2  0  0  0  0  0  0
  -26.0880  -29.5940   20.7420 C   0  0  0  0  0  0  0  0  0  0  0  0
  -27.3000  -28.8730   20.7350 C   0  0  0  0  0  3  0  0  0  0  0  0
  -26.2150  -27.0630   19.5240 C   0  0  0  0  0  3  0  0  0  0  0  0
  -25.0040  -27.7850   19.5310 C   0  0  0  0  0  3  0  0  0  0  0  0
  -23.6910  -29.8920   20.1790 C   0  0  0  0  0  2  0  0  0  0  0  0
  -24.7080  -31.1740   22.1210 N   0  0  0  0  0  0  0  0  0  0  0  0
  -23.5440  -32.2120   23.7670 O   0  0  0  0  0  0  0  0  0  0  0  0
  -22.8140  -29.5210   22.5070 C   0  0  0  0  0  0  0  0  0  0  0  0
  -21.4990  -29.3040   22.3460 N   0  0  0  0  0  0  0  0  0  0  0  0
  -23.4940  -28.9110   23.3380 O   0  0  0  0  0  0  0  0  0  0  0  0
  -21.0130  -29.8480   21.6460 H   0  0  0  0  0  0  0  0  0  0  0  0
  -18.1550  -28.0010   22.7310 C   0  0  0  0  0  0  0  0  0  0  0  0
  -20.6900  -28.3450   23.0960 C   0  0  0  0  0  3  0  0  0  0  0  0
  -20.8620  -26.9150   22.5330 C   0  0  0  0  0  2  0  0  0  0  0  0
  -19.8090  -26.5510   21.4820 C   0  0  0  0  0  2  0  0  0  0  0  0
  -18.4010  -26.6540   22.0740 C   0  0  0  0  0  2  0  0  0  0  0  0
  -19.2310  -28.8020   23.1970 C   0  0  0  0  0  0  0  0  0  0  0  0
  -18.9490  -30.0620   23.7690 C   0  0  0  0  0  3  0  0  0  0  0  0
  -17.6230  -30.5200   23.8820 C   0  0  0  0  0  3  0  0  0  0  0  0
  -16.5600  -29.7160   23.4330 C   0  0  0  0  0  3  0  0  0  0  0  0
  -16.8270  -28.4580   22.8630 C   0  0  0  0  0  3  0  0  0  0  0  0
  -25.9060  -32.5980   23.8740 C   0  0  0  0  0  3  0  0  0  0  0  0
  -25.5820  -33.9910   24.2060 N   0  0  0  0  0  0  0  0  0  0  0  0
  -25.9160  -35.0490   23.4540 C   0  0  0  0  0  0  0  0  0  0  0  0
  -26.6010  -34.9550   22.4320 O   0  0  0  0  0  0  0  0  0  0  0  0
  -24.9770  -34.1380   25.0000 H   0  0  0  0  0  0  0  0  0  0  0  0
  -24.1730  -36.8220   23.0850 C   0  0  0  0  0  1  0  0  0  0  0  0
  -25.4090  -36.4300   23.9110 C   0  0  0  0  0  3  0  0  0  0  0  0
  -27.5260  -37.3310   24.7660 C   0  0  0  0  0  1  0  0  0  0  0  0
  -26.4320  -37.4950   23.8130 N   0  0  0  0  0  0  0  0  0  0  0  0
  -26.0150  -38.4090   23.9610 H   0  0  0  0  0  0  0  0  0  0  0  0
  -26.4180  -31.8220   25.1500 C   0  0  1  0  0  0  0  0  0  0  0  0
  -25.3160  -31.5660   26.2020 C   0  0  0  0  0  1  0  0  0  0  0  0
  -27.0190  -30.4540   24.7510 C   0  0  0  0  0  1  0  0  0  0  0  0
  -27.5550  -32.6220   25.8290 C   0  0  0  0  0  1  0  0  0  0  0  0
  1  2  1  0
  2 48  1  0
  2  3  2  0
  3  7  1  0
  4  6  2  0
  5  1  2  0
  5  4  1  0
  6  3  1  0
  6  9  1  0
  8  5  1  0
 10 18  1  0
 11 16  1  0
 12 13  1  0
 12 11  1  0
 14 13  1  0
 14 23  1  0
 14 15  1  0
 16 10  1  0
 16 15  1  0
 17 10  2  0
 18  4  1  0
 18 19  1  0
 20 21  2  0
 21 40  1  0
 22 21  1  0
 22 25  1  0
 23 20  1  0
 23 24  1  0
 24 22  2  0
 25 26  1  0
 26 27  2  0
 28 31  1  0
 28 27  1  0
 29 28  2  0
 30 29  1  0
 30 25  2  0
 31 32  1  0
 32 33  1  0
 33 34  2  0
 35 34  1  0
 35 39  1  0
 36 35  2  0
 37 32  2  0
 37 36  1  0
 38 37  1  0
 40 41  1  0
 41 44  1  0
 41 43  1  0
 42 40  2  0
 45 46  1  0
 45 20  1  0
 47 45  1  0
 49 50  1  0
 49 48  1  0
 51 50  1  0
 52 53  1  0
 52 51  1  0
 54 65  2  0
 55 53  1  0
 55 60  1  0
 56 64  1  0
 56 66  1  0
 57 63  1  0
 57 59  1  0
 58 64  1  0
 59 58  1  0
 60 59  2  0
 61 62  1  0
 61 55  2  0
 62 57  2  0
 63 56  1  0
 64 54  1  0
 66 68  2  0
 67 66  1  0
 69 67  1  0
 70 79  2  0
 70 75  1  0
 71 67  1  0
 71 75  1  0
 72 71  1  0
 73 74  1  0
 73 72  1  0
 74 70  1  0
 75 76  2  0
 76 77  1  0
 78 77  2  0
 79 78  1  0
 80 54  1  0
 80 81  1  0
 80 90  1  0
 81 84  1  0
 82 86  1  0
 82 81  1  0
 83 82  2  0
 86 85  1  0
 88 86  1  0
 88 89  1  0
 88 87  1  0
 90 93  1  1
 90 91  1  0
 92 90  1  0
M  ISO  4  10 100  18 100  52 101  53 101
M  END
>  <TORSDO>  (24) 
F 21

>  <SCORE>  (24) 
-11.335

>  <name>  (24) 
23

>  <ligand_id>  (24) 
23

>  <original_smiles>  (24) 
[H]c1c([H])c([H])c2c(c1[H])C([H])([H])C([H])([H])C([H])([H])C2([H])N([H])C(=O)C1([H])N(C(=O)C([H])(N([H])C(=O)C([H])(N([H])C([H])([H])[H])C([H])([H])[H])C(C([H])([H])[H])(C([H])([H])[H])C([H])([H])[H])C([H])([H])c2c([H])c(OC([H])([H])C([H])([H])C([H])([H])C([H])([H])C([H])([H])c3c([H])c(Cl)c(N([H])C(=O)N4C([H])([H])C([H])([H])C([H])([H])C([H])(n5nc(-c6c([H])c([H])c(Oc7c([H])c([H])c(F)c([H])c7F)c([H])c6[H])c(C(=O)N([H])[H])c5N([H])[H])C4([H])[H])c(Cl)c3C([H])([H])[H])c([H])c([H])c2C1([H])[H]

>  <smiles>  (24) 
[H]c1c([H])c([H])c2c(c1[H])C([H])([H])C([H])([H])C([H])([H])C2([H])N([H])C(=O)C1([H])N(C(=O)C([H])(N([H])C(=O)C([H])(N([H])C([H])([H])[H])C([H])([H])[H])C(C([H])([H])[H])(C([H])([H])[H])C([H])([H])[H])C([H])([H])c2c([H])c(OC([H])([H])C([H])([H])C([H])([H])C([H])([H])C([H])([H])c3c([H])c(Cl)c(N([H])C(=O)N4C([H])([H])C([H])([H])C([H])([H])C([H])(n5nc(-c6c([H])c([H])c(Oc7c([H])c([H])c(F)c([H])c7F)c([H])c6[H])c(C(=O)N([H])[H])c5N([H])[H])C4([H])[H])c(Cl)c3C([H])([H])[H])c([H])c([H])c2C1([H])[H]

$$$$
24:0:0
     RDKit          3D

 98106  0  0  1  0  0  0  0  0999 V2000
  -30.8780  -25.2390   21.6120 C   0  0  0  0  0  3  0  0  0  0  0  0
  -29.7110  -25.8850   22.0820 C   0  0  0  0  0  0  0  0  0  0  0  0
  -28.5390  -25.1020   22.3020 C   0  0  0  0  0  0  0  0  0  0  0  0
  -29.7470  -23.0790   21.5940 C   0  0  0  0  0  0  0  0  0  0  0  0
  -30.9110  -23.8560   21.3820 C   0  0  0  0  0  0  0  0  0  0  0  0
  -28.5650  -23.7100   22.0410 C   0  0  0  0  0  0  0  0  0  0  0  0
  -27.2430  -25.7220   22.8190 C   0  0  0  0  0  1  0  0  0  0  0  0
  -32.4220  -23.1580   20.9010 Cl  0  0  0  0  0  0  0  0  0  0  0  0
  -27.1420  -22.7390   22.2750 Cl  0  0  0  0  0  0  0  0  0  0  0  0
  -29.7070  -21.6910   21.3980 N   0  0  0  0  0  0  0  0  0  0  0  0
  -29.1240  -21.2530   22.1060 H   0  0  0  0  0  0  0  0  0  0  0  0
  -29.3920  -21.2450   20.0550 C   0  0  0  0  0  2  0  0  0  0  0  0
  -27.9610  -20.7210   19.9930 C   0  0  0  0  0  2  0  0  0  0  0  0
  -27.5160  -20.5340   18.5460 C   0  0  0  0  0  2  0  0  0  0  0  0
  -26.0030  -20.6880   18.4050 C   0  0  0  0  0  2  0  0  0  0  0  0
  -25.5850  -20.7820   16.9380 C   0  0  0  0  0  2  0  0  0  0  0  0
  -24.0900  -21.0770   16.7810 C   0  0  0  0  0  2  0  0  0  0  0  0
  -23.6100  -23.4800   16.4040 C   0  0  0  0  0  0  0  0  0  0  0  0
  -21.7410  -24.8580   15.6210 C   0  0  0  0  0  2  0  0  0  0  0  0
  -21.9490  -26.3760   15.6660 C   0  0  0  0  0  2  0  0  0  0  0  0
  -21.5900  -26.9330   17.0520 C   0  0  0  0  0  2  0  0  0  0  0  0
  -22.2780  -26.1530   18.2020 C   0  0  0  0  0  3  0  0  0  0  0  0
  -22.0920  -24.6290   18.0410 C   0  0  0  0  0  2  0  0  0  0  0  0
  -22.5270  -24.2350   16.6910 N   0  0  0  0  0  0  0  0  0  0  0  0
  -24.2300  -23.5390   15.3380 O   0  0  0  0  0  0  0  0  0  0  0  0
  -23.7020  -22.4190   17.2160 N   0  0  0  0  0  0  0  0  0  0  0  0
  -23.1360  -22.4650   18.0490 H   0  0  0  0  0  0  0  0  0  0  0  0
  -22.4740  -27.3540   20.4730 C   0  0  0  0  0  0  0  0  0  0  0  0
  -21.5610  -27.5850   21.4660 C   0  0  0  0  0  0  0  0  0  0  0  0
  -20.3480  -26.9620   21.0400 C   0  0  0  0  0  0  0  0  0  0  0  0
  -21.8090  -26.6150   19.5070 N   0  0  0  0  0  0  0  0  0  0  0  0
  -20.5330  -26.3380   19.8820 N   0  0  0  0  0  0  0  0  0  0  0  0
  -19.0070  -26.9740   21.6360 C   0  0  0  0  0  0  0  0  0  0  0  0
  -18.3700  -25.7810   22.0490 C   0  0  0  0  0  3  0  0  0  0  0  0
  -17.0860  -25.8200   22.6360 C   0  0  0  0  0  3  0  0  0  0  0  0
  -16.4290  -27.0600   22.8200 C   0  0  0  0  0  0  0  0  0  0  0  0
  -17.0560  -28.2420   22.3890 C   0  0  0  0  0  3  0  0  0  0  0  0
  -18.3310  -28.1990   21.7990 C   0  0  0  0  0  3  0  0  0  0  0  0
  -15.1710  -27.1930   23.3590 O   0  0  0  0  0  0  0  0  0  0  0  0
  -14.7050  -26.3330   24.3190 C   0  0  0  0  0  0  0  0  0  0  0  0
  -15.4040  -26.1110   25.5260 C   0  0  0  0  0  3  0  0  0  0  0  0
  -14.8550  -25.2730   26.5150 C   0  0  0  0  0  3  0  0  0  0  0  0
  -13.6050  -24.6590   26.3050 C   0  0  0  0  0  0  0  0  0  0  0  0
  -12.9060  -24.8800   25.1060 C   0  0  0  0  0  3  0  0  0  0  0  0
  -13.4530  -25.7150   24.1170 C   0  0  0  0  0  0  0  0  0  0  0  0
  -12.7650  -25.9440   22.9720 F   0  0  0  0  0  0  0  0  0  0  0  0
  -13.0730  -23.8580   27.2580 F   0  0  0  0  0  0  0  0  0  0  0  0
  -21.7690  -28.4180   22.6970 C   0  0  0  0  0  0  0  0  0  0  0  0
  -21.0750  -28.0970   23.7830 N   0  0  0  0  0  0  0  0  0  0  0  0
  -22.5910  -29.3350   22.7160 O   0  0  0  0  0  0  0  0  0  0  0  0
  -20.4160  -27.3330   23.7770 H   0  0  0  0  0  0  0  0  0  0  0  0
  -21.2070  -28.6220   24.6350 H   0  0  0  0  0  0  0  0  0  0  0  0
  -23.8040  -27.7240   20.2990 N   0  0  0  0  0  0  0  0  0  0  0  0
  -24.3030  -28.2910   20.9770 H   0  0  0  0  0  0  0  0  0  0  0  0
  -24.3580  -27.5100   19.4800 H   0  0  0  0  0  0  0  0  0  0  0  0
  -30.8820  -28.1960   21.7970 C   0  0  0  0  0  1  0  0  0  0  0  0
  -29.7640  -27.3730   22.4600 C   0  0  0  0  0  3  0  0  0  0  0  0
  -28.5570  -28.0510   22.1260 O   0  0  0  0  0  0  0  0  0  0  0  0
  -28.8160  -33.0400   27.2490 C   0  0  0  0  0  0  0  0  0  0  0  0
  -27.9230  -28.7890   23.1020 C   0  0  0  0  0  0  0  0  0  0  0  0
  -26.8420  -31.5450   27.2600 C   0  0  0  0  0  3  0  0  0  0  0  0
  -26.5410  -30.1000   25.1850 C   0  0  0  0  0  0  0  0  0  0  0  0
  -28.0560  -32.0880   25.0780 C   0  0  0  0  0  2  0  0  0  0  0  0
  -27.6380  -30.7210   24.5760 C   0  0  0  0  0  0  0  0  0  0  0  0
  -28.3280  -30.0770   23.5300 C   0  0  0  0  0  3  0  0  0  0  0  0
  -26.8200  -28.1760   23.7270 C   0  0  0  0  0  3  0  0  0  0  0  0
  -26.1320  -28.8200   24.7700 C   0  0  0  0  0  3  0  0  0  0  0  0
  -25.8440  -30.8690   26.2820 C   0  0  0  0  0  2  0  0  0  0  0  0
  -27.9650  -32.2390   26.5480 N   0  0  0  0  0  0  0  0  0  0  0  0
  -28.6510  -33.2500   28.4600 O   0  0  0  0  0  0  0  0  0  0  0  0
  -27.3190  -30.4930   28.2860 C   0  0  0  0  0  0  0  0  0  0  0  0
  -26.6600  -30.4570   29.4550 N   0  0  0  0  0  0  0  0  0  0  0  0
  -28.2400  -29.7190   28.0170 O   0  0  0  0  0  0  0  0  0  0  0  0
  -25.9190  -31.1280   29.5980 H   0  0  0  0  0  0  0  0  0  0  0  0
  -25.9700  -29.8350   32.9460 C   0  0  0  0  0  0  0  0  0  0  0  0
  -26.9110  -29.5280   30.5570 C   0  0  0  0  0  3  0  0  0  0  0  0
  -25.9850  -28.2930   30.4620 C   0  0  0  0  0  2  0  0  0  0  0  0
  -24.6890  -28.4480   31.2630 C   0  0  0  0  0  2  0  0  0  0  0  0
  -24.9970  -28.6860   32.7440 C   0  0  0  0  0  2  0  0  0  0  0  0
  -26.8580  -30.2410   31.9140 C   0  0  0  0  0  0  0  0  0  0  0  0
  -27.7180  -31.3360   32.1440 C   0  0  0  0  0  3  0  0  0  0  0  0
  -27.7000  -32.0200   33.3740 C   0  0  0  0  0  3  0  0  0  0  0  0
  -26.8310  -31.6040   34.3970 C   0  0  0  0  0  3  0  0  0  0  0  0
  -25.9730  -30.5110   34.1820 C   0  0  0  0  0  3  0  0  0  0  0  0
  -30.0220  -33.7550   26.5620 C   0  0  0  0  0  3  0  0  0  0  0  0
  -29.9540  -35.1780   26.9150 N   0  0  0  0  0  0  0  0  0  0  0  0
  -29.3530  -36.1180   26.1710 C   0  0  0  0  0  0  0  0  0  0  0  0
  -28.8580  -35.8800   25.0650 O   0  0  0  0  0  0  0  0  0  0  0  0
  -30.2870  -35.4310   27.8330 H   0  0  0  0  0  0  0  0  0  0  0  0
  -27.9300  -37.7620   27.4320 C   0  0  0  0  0  1  0  0  0  0  0  0
  -29.2880  -37.5440   26.7470 C   0  0  0  0  0  3  0  0  0  0  0  0
  -30.8590  -38.5900   25.1770 C   0  0  0  0  0  1  0  0  0  0  0  0
  -29.5090  -38.5970   25.7320 N   0  0  0  0  0  0  0  0  0  0  0  0
  -29.3300  -39.5180   26.1200 H   0  0  0  0  0  0  0  0  0  0  0  0
  -31.4190  -33.1450   26.9670 C   0  0  1  0  0  0  0  0  0  0  0  0
  -31.6080  -32.9880   28.4940 C   0  0  0  0  0  1  0  0  0  0  0  0
  -31.6100  -31.7540   26.3170 C   0  0  0  0  0  1  0  0  0  0  0  0
  -32.5600  -34.0410   26.4290 C   0  0  0  0  0  1  0  0  0  0  0  0
  1  2  1  0
  2  3  2  0
  2 57  1  0
  3  7  1  0
  4  6  2  0
  5  4  1  0
  5  1  2  0
  6  9  1  0
  6  3  1  0
  8  5  1  0
 10  4  1  0
 10 11  1  0
 12 10  1  0
 13 12  1  0
 14 13  1  0
 15 14  1  0
 16 15  1  0
 17 16  1  0
 17 26  1  0
 18 24  1  0
 18 26  1  0
 19 20  1  0
 19 24  1  0
 20 21  1  0
 22 21  1  0
 22 31  1  0
 23 22  1  0
 24 23  1  0
 25 18  2  0
 26 27  1  0
 28 29  2  0
 29 48  1  0
 30 29  1  0
 30 33  1  0
 31 32  1  0
 31 28  1  0
 32 30  2  0
 33 38  2  0
 33 34  1  0
 34 35  2  0
 35 36  1  0
 36 39  1  0
 37 36  2  0
 38 37  1  0
 39 40  1  0
 40 41  1  0
 41 42  2  0
 43 42  1  0
 43 47  1  0
 44 43  2  0
 45 40  2  0
 45 44  1  0
 46 45  1  0
 48 50  2  0
 48 49  1  0
 49 52  1  0
 51 49  1  0
 53 28  1  0
 53 54  1  0
 55 53  1  0
 57 56  1  0
 58 57  1  0
 58 60  1  0
 59 70  2  0
 60 65  2  0
 60 66  1  0
 61 71  1  0
 62 68  1  0
 63 69  1  0
 64 63  1  0
 64 62  2  0
 65 64  1  0
 66 67  2  0
 67 62  1  0
 68 61  1  0
 69 59  1  0
 69 61  1  0
 71 72  1  0
 72 74  1  0
 73 71  2  0
 75 84  1  0
 76 72  1  0
 76 80  1  0
 77 76  1  0
 77 78  1  0
 78 79  1  0
 79 75  1  0
 80 81  1  0
 80 75  2  0
 81 82  2  0
 82 83  1  0
 84 83  2  0
 85 86  1  0
 85 95  1  0
 85 59  1  0
 86 89  1  0
 87 91  1  0
 87 86  1  0
 88 87  2  0
 91 90  1  0
 92 93  1  0
 93 94  1  0
 93 91  1  0
 95 96  1  1
 97 95  1  0
 98 95  1  0
M  ISO  4  18 100  26 100  57 101  58 101
M  END
>  <TORSDO>  (25) 
F 24

>  <SCORE>  (25) 
-4.491

>  <name>  (25) 
24

>  <ligand_id>  (25) 
24

>  <original_smiles>  (25) 
[H]c1c([H])c([H])c2c(c1[H])C([H])([H])C([H])([H])C([H])([H])C2([H])N([H])C(=O)C1([H])N(C(=O)C([H])(N([H])C(=O)C([H])(N([H])C([H])([H])[H])C([H])([H])[H])C(C([H])([H])[H])(C([H])([H])[H])C([H])([H])[H])C([H])([H])c2c([H])c(OC([H])(c3c([H])c(Cl)c(N([H])C([H])([H])C([H])([H])C([H])([H])C([H])([H])C([H])([H])C([H])([H])N([H])C(=O)N4C([H])([H])C([H])([H])C([H])([H])C([H])(n5nc(-c6c([H])c([H])c(Oc7c([H])c([H])c(F)c([H])c7F)c([H])c6[H])c(C(=O)N([H])[H])c5N([H])[H])C4([H])[H])c(Cl)c3C([H])([H])[H])C([H])([H])[H])c([H])c([H])c2C1([H])[H]

>  <smiles>  (25) 
[H]c1c([H])c([H])c2c(c1[H])C([H])([H])C([H])([H])C([H])([H])C2([H])N([H])C(=O)C1([H])N(C(=O)C([H])(N([H])C(=O)C([H])(N([H])C([H])([H])[H])C([H])([H])[H])C(C([H])([H])[H])(C([H])([H])[H])C([H])([H])[H])C([H])([H])c2c([H])c(OC([H])(c3c([H])c(Cl)c(N([H])C([H])([H])C([H])([H])C([H])([H])C([H])([H])C([H])([H])C([H])([H])N([H])C(=O)N4C([H])([H])C([H])([H])C([H])([H])C([H])(n5nc(-c6c([H])c([H])c(Oc7c([H])c([H])c(F)c([H])c7F)c([H])c6[H])c(C(=O)N([H])[H])c5N([H])[H])C4([H])[H])c(Cl)c3C([H])([H])[H])C([H])([H])[H])c([H])c([H])c2C1([H])[H]

$$$$
25:0:0
     RDKit          3D

 95103  0  0  1  0  0  0  0  0999 V2000
  -28.5720  -21.5550   20.4230 C   0  0  0  0  0  2  0  0  0  0  0  0
  -29.9430  -19.4940   21.2910 C   0  0  0  0  0  3  0  0  0  0  0  0
  -29.1320  -20.0730   20.2770 C   0  0  0  0  0  0  0  0  0  0  0  0
  -28.6950  -19.1730   19.2500 C   0  0  0  0  0  0  0  0  0  0  0  0
  -29.7310  -17.1880   20.3770 C   0  0  0  0  0  0  0  0  0  0  0  0
  -30.2280  -18.0960   21.3480 C   0  0  0  0  0  0  0  0  0  0  0  0
  -28.9780  -17.7600   19.3110 C   0  0  0  0  0  0  0  0  0  0  0  0
  -27.8300  -19.7170   18.1150 C   0  0  0  0  0  1  0  0  0  0  0  0
  -31.1260  -17.4950   22.6980 Cl  0  0  0  0  0  0  0  0  0  0  0  0
  -28.3160  -16.6860   18.1210 Cl  0  0  0  0  0  0  0  0  0  0  0  0
  -30.5470  -14.7320   20.1590 C   0  0  0  0  0  0  0  0  0  0  0  0
  -30.3530  -12.4840   19.1080 C   0  0  0  0  0  2  0  0  0  0  0  0
  -29.3770  -12.6020   17.9160 C   0  0  0  0  0  2  0  0  0  0  0  0
  -27.9130  -12.4430   18.3790 C   0  0  0  0  0  2  0  0  0  0  0  0
  -27.5810  -13.2930   19.6360 C   0  0  0  0  0  3  0  0  0  0  0  0
  -28.6700  -13.1320   20.7190 C   0  0  0  0  0  2  0  0  0  0  0  0
  -29.9630  -13.4930   20.1120 N   0  0  0  0  0  0  0  0  0  0  0  0
  -31.6800  -14.9270   19.7110 O   0  0  0  0  0  0  0  0  0  0  0  0
  -29.7440  -15.7410   20.6180 N   0  0  0  0  0  0  0  0  0  0  0  0
  -28.8890  -15.3940   21.0240 H   0  0  0  0  0  0  0  0  0  0  0  0
  -25.2060  -13.8750   20.4280 C   0  0  0  0  0  0  0  0  0  0  0  0
  -24.1530  -13.0950   20.8210 C   0  0  0  0  0  0  0  0  0  0  0  0
  -24.6190  -11.7470   20.7610 C   0  0  0  0  0  0  0  0  0  0  0  0
  -26.2460  -13.0010   20.1520 N   0  0  0  0  0  0  0  0  0  0  0  0
  -25.9000  -11.7140   20.4140 N   0  0  0  0  0  0  0  0  0  0  0  0
  -23.9040  -10.4800   20.9600 C   0  0  0  0  0  0  0  0  0  0  0  0
  -24.3360   -9.5250   21.9080 C   0  0  0  0  0  3  0  0  0  0  0  0
  -23.6190   -8.3240   22.0930 C   0  0  0  0  0  3  0  0  0  0  0  0
  -22.4560   -8.0660   21.3310 C   0  0  0  0  0  0  0  0  0  0  0  0
  -22.0430   -9.0080   20.3710 C   0  0  0  0  0  3  0  0  0  0  0  0
  -22.7620  -10.2000   20.1840 C   0  0  0  0  0  3  0  0  0  0  0  0
  -21.7150   -6.9130   21.4200 O   0  0  0  0  0  0  0  0  0  0  0  0
  -21.6220   -6.2080   22.5930 C   0  0  0  0  0  0  0  0  0  0  0  0
  -21.1010   -6.7870   23.7710 C   0  0  0  0  0  3  0  0  0  0  0  0
  -20.9580   -6.0080   24.9360 C   0  0  0  0  0  3  0  0  0  0  0  0
  -21.3270   -4.6490   24.9240 C   0  0  0  0  0  0  0  0  0  0  0  0
  -21.8410   -4.0690   23.7530 C   0  0  0  0  0  3  0  0  0  0  0  0
  -21.9870   -4.8470   22.5890 C   0  0  0  0  0  0  0  0  0  0  0  0
  -22.4630   -4.2790   21.4550 F   0  0  0  0  0  0  0  0  0  0  0  0
  -21.1830   -3.8960   26.0400 F   0  0  0  0  0  0  0  0  0  0  0  0
  -22.7630  -13.5650   21.1370 C   0  0  0  0  0  0  0  0  0  0  0  0
  -22.0660  -12.8560   22.0200 N   0  0  0  0  0  0  0  0  0  0  0  0
  -22.3070  -14.5930   20.6420 O   0  0  0  0  0  0  0  0  0  0  0  0
  -22.4510  -12.0260   22.4410 H   0  0  0  0  0  0  0  0  0  0  0  0
  -21.1370  -13.1510   22.2830 H   0  0  0  0  0  0  0  0  0  0  0  0
  -25.3580  -15.2470   20.2540 N   0  0  0  0  0  0  0  0  0  0  0  0
  -24.5880  -15.8920   20.3980 H   0  0  0  0  0  0  0  0  0  0  0  0
  -26.1530  -15.6790   19.8010 H   0  0  0  0  0  0  0  0  0  0  0  0
  -29.4690  -22.7530   20.2100 N   0  0  0  0  0  4  0  0  0  0  0  0
  -30.1390  -22.4580   19.5170 H   0  0  0  0  0  0  0  0  0  0  0  0
  -29.9970  -22.9190   21.0510 H   0  0  0  0  0  0  0  0  0  0  0  0
  -28.8880  -24.0720   19.6860 C   0  0  0  0  0  2  0  0  0  0  0  0
  -29.4220  -25.3050   21.8900 C   0  0  0  0  0  1  0  0  0  0  0  0
  -28.4530  -25.2240   20.7060 C   0  0  0  0  0  3  0  0  0  0  0  0
  -28.4540  -26.6130   20.1860 O   0  0  0  0  0  0  0  0  0  0  0  0
  -24.5890  -31.9080   23.2650 C   0  0  0  0  0  0  0  0  0  0  0  0
  -27.2910  -27.3900   20.2370 C   0  0  0  0  0  0  0  0  0  0  0  0
  -23.4130  -30.4900   21.6180 C   0  0  0  0  0  3  0  0  0  0  0  0
  -24.8940  -28.9450   20.2160 C   0  0  0  0  0  0  0  0  0  0  0  0
  -25.9470  -30.8420   21.4540 C   0  0  0  0  0  2  0  0  0  0  0  0
  -26.0510  -29.4630   20.8130 C   0  0  0  0  0  0  0  0  0  0  0  0
  -27.2530  -28.6970   20.8110 C   0  0  0  0  0  3  0  0  0  0  0  0
  -26.1100  -26.9080   19.6360 C   0  0  0  0  0  3  0  0  0  0  0  0
  -24.9240  -27.6710   19.6230 C   0  0  0  0  0  3  0  0  0  0  0  0
  -23.6460  -29.8050   20.2450 C   0  0  0  0  0  2  0  0  0  0  0  0
  -24.6670  -31.0980   22.1700 N   0  0  0  0  0  0  0  0  0  0  0  0
  -23.4980  -32.1750   23.7920 O   0  0  0  0  0  0  0  0  0  0  0  0
  -22.7530  -29.4700   22.5780 C   0  0  0  0  0  0  0  0  0  0  0  0
  -21.4300  -29.2830   22.4430 N   0  0  0  0  0  0  0  0  0  0  0  0
  -23.4340  -28.8510   23.4000 O   0  0  0  0  0  0  0  0  0  0  0  0
  -20.9420  -29.8330   21.7490 H   0  0  0  0  0  0  0  0  0  0  0  0
  -18.0620  -28.0670   22.9250 C   0  0  0  0  0  0  0  0  0  0  0  0
  -20.6160  -28.3410   23.2100 C   0  0  0  0  0  3  0  0  0  0  0  0
  -20.7300  -26.9090   22.6350 C   0  0  0  0  0  2  0  0  0  0  0  0
  -19.6370  -26.5830   21.6130 C   0  0  0  0  0  2  0  0  0  0  0  0
  -18.2500  -26.7200   22.2470 C   0  0  0  0  0  2  0  0  0  0  0  0
  -19.1730  -28.8350   23.3620 C   0  0  0  0  0  0  0  0  0  0  0  0
  -18.9450  -30.0950   23.9580 C   0  0  0  0  0  3  0  0  0  0  0  0
  -17.6360  -30.5870   24.1190 C   0  0  0  0  0  3  0  0  0  0  0  0
  -16.5390  -29.8160   23.6980 C   0  0  0  0  0  3  0  0  0  0  0  0
  -16.7520  -28.5570   23.1060 C   0  0  0  0  0  3  0  0  0  0  0  0
  -25.8590  -32.5550   23.8960 C   0  0  0  0  0  3  0  0  0  0  0  0
  -26.3610  -31.8090   25.1940 C   0  0  1  0  0  0  0  0  0  0  0  0
  -25.2550  -31.5890   26.2520 C   0  0  0  0  0  1  0  0  0  0  0  0
  -26.9570  -30.4280   24.8360 C   0  0  0  0  0  1  0  0  0  0  0  0
  -27.4960  -32.6230   25.8580 C   0  0  0  0  0  1  0  0  0  0  0  0
  -25.5390  -33.9560   24.2000 N   0  0  0  0  0  0  0  0  0  0  0  0
  -25.8720  -34.9990   23.4280 C   0  0  0  0  0  0  0  0  0  0  0  0
  -26.5530  -34.8840   22.4040 O   0  0  0  0  0  0  0  0  0  0  0  0
  -24.9390  -34.1210   24.9940 H   0  0  0  0  0  0  0  0  0  0  0  0
  -24.1420  -36.7810   23.0260 C   0  0  0  0  0  1  0  0  0  0  0  0
  -25.3740  -36.3910   23.8590 C   0  0  0  0  0  3  0  0  0  0  0  0
  -27.4930  -37.3000   24.7060 C   0  0  0  0  0  1  0  0  0  0  0  0
  -26.4040  -37.4470   23.7430 N   0  0  0  0  0  0  0  0  0  0  0  0
  -25.9900  -38.3670   23.8700 H   0  0  0  0  0  0  0  0  0  0  0  0
  2  6  1  0
  3  1  1  0
  3  2  2  0
  4  7  2  0
  4  3  1  0
  5 19  1  0
  5  6  2  0
  6  9  1  0
  7  5  1  0
  8  4  1  0
 10  7  1  0
 11 19  1  0
 12 17  1  0
 13 14  1  0
 13 12  1  0
 15 14  1  0
 15 24  1  0
 15 16  1  0
 17 11  1  0
 17 16  1  0
 18 11  2  0
 19 20  1  0
 21 22  2  0
 22 41  1  0
 23 22  1  0
 23 26  1  0
 24 25  1  0
 24 21  1  0
 25 23  2  0
 26 27  1  0
 27 28  2  0
 29 32  1  0
 29 28  1  0
 30 29  2  0
 31 30  1  0
 31 26  2  0
 32 33  1  0
 33 34  1  0
 34 35  2  0
 36 35  1  0
 36 40  1  0
 37 36  2  0
 38 33  2  0
 38 37  1  0
 39 38  1  0
 41 42  1  0
 42 45  1  0
 42 44  1  0
 43 41  2  0
 46 47  1  0
 46 21  1  0
 48 46  1  0
 49  1  1  0
 49 51  1  0
 50 49  1  0
 52 49  1  0
 52 54  1  0
 54 53  1  0
 55 57  1  0
 55 54  1  0
 56 67  2  0
 57 62  1  0
 58 66  1  0
 58 68  1  0
 59 65  1  0
 59 61  1  0
 60 66  1  0
 61 60  1  0
 62 61  2  0
 63 57  2  0
 64 63  1  0
 64 59  2  0
 65 58  1  0
 66 56  1  0
 68 70  2  0
 69 68  1  0
 71 69  1  0
 72 81  2  0
 72 77  1  0
 73 69  1  0
 73 77  1  0
 74 73  1  0
 75 76  1  0
 75 74  1  0
 76 72  1  0
 77 78  2  0
 78 79  1  0
 80 79  2  0
 81 80  1  0
 82 56  1  0
 82 87  1  0
 82 83  1  0
 83 86  1  1
 83 84  1  0
 85 83  1  0
 87 90  1  0
 88 92  1  0
 88 87  1  0
 89 88  2  0
 92 91  1  0
 94 92  1  0
 94 95  1  0
 94 93  1  0
M  ISO  4  11 100  19 100  54 101  55 101
M  END
>  <TORSDO>  (26) 
F 20

>  <SCORE>  (26) 
-13.362

>  <name>  (26) 
25

>  <ligand_id>  (26) 
25

>  <original_smiles>  (26) 
[H]c1c([H])c([H])c2c(c1[H])C([H])([H])C([H])([H])C([H])([H])C2([H])N([H])C(=O)C1([H])N(C(=O)C([H])(N([H])C(=O)C([H])(N([H])C([H])([H])[H])C([H])([H])[H])C(C([H])([H])[H])(C([H])([H])[H])C([H])([H])[H])C([H])([H])c2c([H])c(OC([H])(C([H])([H])[H])C([H])([H])[N+]([H])([H])C([H])([H])c3c([H])c(Cl)c(N([H])C(=O)N4C([H])([H])C([H])([H])C([H])([H])C([H])(n5nc(-c6c([H])c([H])c(Oc7c([H])c([H])c(F)c([H])c7F)c([H])c6[H])c(C(=O)N([H])[H])c5N([H])[H])C4([H])[H])c(Cl)c3C([H])([H])[H])c([H])c([H])c2C1([H])[H]

>  <smiles>  (26) 
[H]c1c([H])c([H])c2c(c1[H])C([H])([H])C([H])([H])C([H])([H])C2([H])N([H])C(=O)C1([H])N(C(=O)C([H])(N([H])C(=O)C([H])(N([H])C([H])([H])[H])C([H])([H])[H])C(C([H])([H])[H])(C([H])([H])[H])C([H])([H])[H])C([H])([H])c2c([H])c(OC([H])(C([H])([H])[H])C([H])([H])[N+]([H])([H])C([H])([H])c3c([H])c(Cl)c(N([H])C(=O)N4C([H])([H])C([H])([H])C([H])([H])C([H])(n5nc(-c6c([H])c([H])c(Oc7c([H])c([H])c(F)c([H])c7F)c([H])c6[H])c(C(=O)N([H])[H])c5N([H])[H])C4([H])[H])c(Cl)c3C([H])([H])[H])c([H])c([H])c2C1([H])[H]

$$$$
26:0:0
     RDKit          3D

104112  0  0  1  0  0  0  0  0999 V2000
  -29.1770  -25.8610   25.7250 C   0  0  0  0  0  0  0  0  0  0  0  0
  -28.3250  -24.2140   24.1220 C   0  0  0  0  0  0  0  0  0  0  0  0
  -30.5270  -23.8840   25.2030 C   0  0  0  0  0  0  0  0  0  0  0  0
  -30.3350  -25.0810   25.9210 C   0  0  0  0  0  0  0  0  0  0  0  0
  -29.4920  -23.4370   24.3350 C   0  0  0  0  0  0  0  0  0  0  0  0
  -28.1820  -25.4460   24.8140 C   0  0  0  0  0  0  0  0  0  0  0  0
  -29.0100  -27.1700   26.4750 C   0  0  0  0  0  1  0  0  0  0  0  0
  -31.2950  -25.4990   26.7840 F   0  0  0  0  0  0  0  0  0  0  0  0
  -29.6010  -22.2450   23.7010 F   0  0  0  0  0  0  0  0  0  0  0  0
  -26.7910  -26.4580   24.5880 Cl  0  0  0  0  0  0  0  0  0  0  0  0
  -27.3370  -23.7200   23.2370 N   0  0  0  0  0  0  0  0  0  0  0  0
  -26.3840  -21.4380   22.9630 C   0  0  0  0  0  1  0  0  0  0  0  0
  -25.0110  -23.3150   23.9570 C   0  0  0  0  0  1  0  0  0  0  0  0
  -26.4190  -22.7280   23.7980 C   0  0  0  0  0  3  0  0  0  0  0  0
  -26.9860  -24.4830   22.0360 C   0  0  0  0  0  2  0  0  0  0  0  0
  -28.1570  -24.6840   21.0730 C   0  0  0  0  0  2  0  0  0  0  0  0
  -28.8250  -26.0700   21.1390 C   0  0  0  0  0  2  0  0  0  0  0  0
  -28.4330  -26.8090   19.9910 O   0  0  0  0  0  0  0  0  0  0  0  0
  -24.6030  -31.8740   23.2210 C   0  0  0  0  0  0  0  0  0  0  0  0
  -27.2480  -27.4880   20.0920 C   0  0  0  0  0  0  0  0  0  0  0  0
  -23.3940  -30.5050   21.5550 C   0  0  0  0  0  3  0  0  0  0  0  0
  -24.8450  -28.9650   20.1270 C   0  0  0  0  0  0  0  0  0  0  0  0
  -25.9220  -30.8370   21.3840 C   0  0  0  0  0  2  0  0  0  0  0  0
  -25.9970  -29.4770   20.7360 C   0  0  0  0  0  0  0  0  0  0  0  0
  -27.1970  -28.7390   20.7340 C   0  0  0  0  0  3  0  0  0  0  0  0
  -26.0850  -26.9770   19.4780 C   0  0  0  0  0  3  0  0  0  0  0  0
  -24.8780  -27.7040   19.5080 C   0  0  0  0  0  3  0  0  0  0  0  0
  -23.6090  -29.8390   20.1680 C   0  0  0  0  0  2  0  0  0  0  0  0
  -24.6580  -31.0860   22.1100 N   0  0  0  0  0  0  0  0  0  0  0  0
  -23.5260  -32.1460   23.7650 O   0  0  0  0  0  0  0  0  0  0  0  0
  -22.7380  -29.4720   22.5000 C   0  0  0  0  0  0  0  0  0  0  0  0
  -21.4120  -29.3040   22.3710 N   0  0  0  0  0  0  0  0  0  0  0  0
  -23.4180  -28.8250   23.3020 O   0  0  0  0  0  0  0  0  0  0  0  0
  -20.9230  -29.8750   21.6950 H   0  0  0  0  0  0  0  0  0  0  0  0
  -18.0300  -28.1370   22.8520 C   0  0  0  0  0  0  0  0  0  0  0  0
  -20.5880  -28.3660   23.1340 C   0  0  0  0  0  3  0  0  0  0  0  0
  -20.6800  -26.9400   22.5420 C   0  0  0  0  0  2  0  0  0  0  0  0
  -19.5750  -26.6380   21.5250 C   0  0  0  0  0  2  0  0  0  0  0  0
  -18.1930  -26.7950   22.1640 C   0  0  0  0  0  2  0  0  0  0  0  0
  -19.1540  -28.8850   23.2940 C   0  0  0  0  0  0  0  0  0  0  0  0
  -18.9450  -30.1480   23.8920 C   0  0  0  0  0  3  0  0  0  0  0  0
  -17.6450  -30.6570   24.0600 C   0  0  0  0  0  3  0  0  0  0  0  0
  -16.5350  -29.9070   23.6340 C   0  0  0  0  0  3  0  0  0  0  0  0
  -16.7300  -28.6500   23.0360 C   0  0  0  0  0  3  0  0  0  0  0  0
  -25.8980  -32.4840   23.8500 C   0  0  0  0  0  3  0  0  0  0  0  0
  -25.5900  -33.8660   24.2420 N   0  0  0  0  0  0  0  0  0  0  0  0
  -25.9030  -34.9490   23.5170 C   0  0  0  0  0  0  0  0  0  0  0  0
  -26.5560  -34.8930   22.4720 O   0  0  0  0  0  0  0  0  0  0  0  0
  -25.0150  -33.9920   25.0620 H   0  0  0  0  0  0  0  0  0  0  0  0
  -24.1490  -36.7330   23.2620 C   0  0  0  0  0  1  0  0  0  0  0  0
  -25.4110  -36.3150   24.0340 C   0  0  0  0  0  3  0  0  0  0  0  0
  -27.5580  -37.1830   24.8470 C   0  0  0  0  0  1  0  0  0  0  0  0
  -26.4300  -37.3850   23.9410 N   0  0  0  0  0  0  0  0  0  0  0  0
  -26.0170  -38.2900   24.1490 H   0  0  0  0  0  0  0  0  0  0  0  0
  -26.4420  -31.6610   25.0800 C   0  0  1  0  0  0  0  0  0  0  0  0
  -25.3630  -31.3580   26.1460 C   0  0  0  0  0  1  0  0  0  0  0  0
  -27.0360  -30.3120   24.6130 C   0  0  0  0  0  1  0  0  0  0  0  0
  -27.5990  -32.4380   25.7520 C   0  0  0  0  0  1  0  0  0  0  0  0
  -31.7270  -23.2210   25.4140 O   0  0  0  0  0  0  0  0  0  0  0  0
  -32.2970  -22.4770   24.3370 C   0  0  0  0  0  2  0  0  0  0  0  0
  -32.2030  -20.9660   24.6370 C   0  0  0  0  0  2  0  0  0  0  0  0
  -32.0270  -20.0730   23.3890 C   0  0  0  0  0  2  0  0  0  0  0  0
  -31.0120  -18.9300   23.6260 C   0  0  0  0  0  2  0  0  0  0  0  0
  -30.6220  -18.1450   22.3580 C   0  0  0  0  0  2  0  0  0  0  0  0
  -31.7240  -17.2000   21.8490 C   0  0  0  0  0  2  0  0  0  0  0  0
  -31.6870  -15.7970   22.4900 C   0  0  0  0  0  2  0  0  0  0  0  0
  -30.8490  -14.3050   20.7040 C   0  0  0  0  0  0  0  0  0  0  0  0
  -30.3970  -12.2670   19.4020 C   0  0  0  0  0  2  0  0  0  0  0  0
  -29.4750  -12.5170   18.1990 C   0  0  0  0  0  2  0  0  0  0  0  0
  -28.0060  -12.3660   18.6240 C   0  0  0  0  0  2  0  0  0  0  0  0
  -27.6680  -13.2100   19.8800 C   0  0  0  0  0  3  0  0  0  0  0  0
  -28.7060  -13.0030   21.0070 C   0  0  0  0  0  2  0  0  0  0  0  0
  -30.0580  -13.2260   20.4660 N   0  0  0  0  0  0  0  0  0  0  0  0
  -31.7840  -14.6250   19.9670 O   0  0  0  0  0  0  0  0  0  0  0  0
  -30.6890  -14.9010   21.8920 N   0  0  0  0  0  0  0  0  0  0  0  0
  -29.9440  -14.5600   22.4820 H   0  0  0  0  0  0  0  0  0  0  0  0
  -25.2610  -13.8190   20.5700 C   0  0  0  0  0  0  0  0  0  0  0  0
  -24.1840  -13.0440   20.9190 C   0  0  0  0  0  0  0  0  0  0  0  0
  -24.6420  -11.6930   20.8750 C   0  0  0  0  0  0  0  0  0  0  0  0
  -26.3060  -12.9360   20.3430 N   0  0  0  0  0  0  0  0  0  0  0  0
  -25.9340  -11.6520   20.5820 N   0  0  0  0  0  0  0  0  0  0  0  0
  -23.9090  -10.4300   21.0420 C   0  0  0  0  0  0  0  0  0  0  0  0
  -24.3630   -9.4210   21.9200 C   0  0  0  0  0  3  0  0  0  0  0  0
  -23.6300   -8.2250   22.0770 C   0  0  0  0  0  3  0  0  0  0  0  0
  -22.4280   -8.0280   21.3550 C   0  0  0  0  0  0  0  0  0  0  0  0
  -21.9920   -9.0270   20.4660 C   0  0  0  0  0  3  0  0  0  0  0  0
  -22.7270  -10.2150   20.3060 C   0  0  0  0  0  3  0  0  0  0  0  0
  -21.6630   -6.8890   21.4240 O   0  0  0  0  0  0  0  0  0  0  0  0
  -21.6860   -6.0750   22.5280 C   0  0  0  0  0  0  0  0  0  0  0  0
  -21.4020   -6.5650   23.8220 C   0  0  0  0  0  3  0  0  0  0  0  0
  -21.3650   -5.6800   24.9180 C   0  0  0  0  0  3  0  0  0  0  0  0
  -21.6050   -4.3060   24.7220 C   0  0  0  0  0  0  0  0  0  0  0  0
  -21.8810   -3.8160   23.4340 C   0  0  0  0  0  3  0  0  0  0  0  0
  -21.9190   -4.6980   22.3400 C   0  0  0  0  0  0  0  0  0  0  0  0
  -22.1660   -4.2160   21.0980 F   0  0  0  0  0  0  0  0  0  0  0  0
  -21.5620   -3.4530   25.7740 F   0  0  0  0  0  0  0  0  0  0  0  0
  -22.7870  -13.5250   21.1830 C   0  0  0  0  0  0  0  0  0  0  0  0
  -22.0500  -12.8230   22.0390 N   0  0  0  0  0  0  0  0  0  0  0  0
  -22.3550  -14.5550   20.6700 O   0  0  0  0  0  0  0  0  0  0  0  0
  -22.4100  -11.9890   22.4760 H   0  0  0  0  0  0  0  0  0  0  0  0
  -21.1130  -13.1280   22.2610 H   0  0  0  0  0  0  0  0  0  0  0  0
  -25.4300  -15.1900   20.4110 N   0  0  0  0  0  0  0  0  0  0  0  0
  -24.6680  -15.8480   20.5320 H   0  0  0  0  0  0  0  0  0  0  0  0
  -26.2920  -15.6310   20.1100 H   0  0  0  0  0  0  0  0  0  0  0  0
  1  4  1  0
  1  7  1  0
  2  5  2  0
  2  6  1  0
  3 59  1  0
  3  4  2  0
  4  8  1  0
  5  3  1  0
  6  1  2  0
  9  5  1  0
 10  6  1  0
 11 14  1  0
 11  2  1  0
 12 14  1  0
 14 13  1  0
 15 11  1  0
 16 17  1  0
 16 15  1  0
 18 20  1  0
 18 17  1  0
 19 30  2  0
 20 25  1  0
 21 29  1  0
 21 31  1  0
 22 28  1  0
 22 24  1  0
 23 29  1  0
 24 23  1  0
 25 24  2  0
 26 27  1  0
 26 20  2  0
 27 22  2  0
 28 21  1  0
 29 19  1  0
 31 33  2  0
 32 31  1  0
 34 32  1  0
 35 44  2  0
 35 40  1  0
 36 32  1  0
 36 40  1  0
 37 36  1  0
 38 39  1  0
 38 37  1  0
 39 35  1  0
 40 41  2  0
 41 42  1  0
 43 42  2  0
 44 43  1  0
 45 19  1  0
 45 46  1  0
 45 55  1  0
 46 49  1  0
 47 51  1  0
 47 46  1  0
 48 47  2  0
 51 50  1  0
 53 51  1  0
 53 54  1  0
 53 52  1  0
 55 58  1  1
 55 56  1  0
 57 55  1  0
 60 61  1  0
 60 59  1  0
 62 63  1  0
 62 61  1  0
 64 63  1  0
 65 64  1  0
 65 66  1  0
 67 75  1  0
 68 73  1  0
 69 70  1  0
 69 68  1  0
 71 70  1  0
 71 80  1  0
 71 72  1  0
 73 67  1  0
 73 72  1  0
 74 67  2  0
 75 76  1  0
 75 66  1  0
 77 78  2  0
 78 97  1  0
 79 78  1  0
 79 82  1  0
 80 77  1  0
 80 81  1  0
 81 79  2  0
 82 83  1  0
 83 84  2  0
 85 88  1  0
 85 84  1  0
 86 85  2  0
 87 86  1  0
 87 82  2  0
 88 89  1  0
 89 90  1  0
 90 91  2  0
 92 91  1  0
 92 96  1  0
 93 92  2  0
 94 89  2  0
 94 93  1  0
 95 94  1  0
 97 98  1  0
 98101  1  0
 98100  1  0
 99 97  2  0
102103  1  0
102 77  1  0
104102  1  0
M  ISO  4  17 101  18 101  67 100  75 100
M  END
>  <TORSDO>  (27) 
F 29

>  <SCORE>  (27) 
23.901

>  <name>  (27) 
26

>  <ligand_id>  (27) 
26

>  <original_smiles>  (27) 
[H]c1c([H])c([H])c2c(c1[H])C([H])([H])C([H])([H])C([H])([H])C2([H])N([H])C(=O)C1([H])N(C(=O)C([H])(N([H])C(=O)C([H])(N([H])C([H])([H])[H])C([H])([H])[H])C(C([H])([H])[H])(C([H])([H])[H])C([H])([H])[H])C([H])([H])c2c([H])c(OC([H])([H])C([H])([H])C([H])([H])N(c3c(F)c(OC([H])([H])C([H])([H])C([H])([H])C([H])([H])C([H])([H])C([H])([H])C([H])([H])N([H])C(=O)N4C([H])([H])C([H])([H])C([H])([H])C([H])(n5nc(-c6c([H])c([H])c(Oc7c([H])c([H])c(F)c([H])c7F)c([H])c6[H])c(C(=O)N([H])[H])c5N([H])[H])C4([H])[H])c(F)c(C([H])([H])[H])c3Cl)C([H])(C([H])([H])[H])C([H])([H])[H])c([H])c([H])c2C1([H])[H]

>  <smiles>  (27) 
[H]c1c([H])c([H])c2c(c1[H])C([H])([H])C([H])([H])C([H])([H])C2([H])N([H])C(=O)C1([H])N(C(=O)C([H])(N([H])C(=O)C([H])(N([H])C([H])([H])[H])C([H])([H])[H])C(C([H])([H])[H])(C([H])([H])[H])C([H])([H])[H])C([H])([H])c2c([H])c(OC([H])([H])C([H])([H])C([H])([H])N(c3c(F)c(OC([H])([H])C([H])([H])C([H])([H])C([H])([H])C([H])([H])C([H])([H])C([H])([H])N([H])C(=O)N4C([H])([H])C([H])([H])C([H])([H])C([H])(n5nc(-c6c([H])c([H])c(Oc7c([H])c([H])c(F)c([H])c7F)c([H])c6[H])c(C(=O)N([H])[H])c5N([H])[H])C4([H])[H])c(F)c(C([H])([H])[H])c3Cl)C([H])(C([H])([H])[H])C([H])([H])[H])c([H])c([H])c2C1([H])[H]

$$$$
27:0:0
     RDKit          3D

 96104  0  0  1  0  0  0  0  0999 V2000
  -30.2310  -21.8290   19.2520 N   0  0  0  0  0  4  0  0  0  0  0  0
  -30.1770  -21.9900   20.2440 H   0  0  0  0  0  0  0  0  0  0  0  0
  -29.3450  -21.4490   18.9620 H   0  0  0  0  0  0  0  0  0  0  0  0
  -30.2430  -22.9970   17.0410 C   0  0  0  0  0  1  0  0  0  0  0  0
  -30.4690  -23.1200   18.5660 C   0  0  0  0  0  3  0  0  0  0  0  0
  -29.5840  -24.2420   19.1550 C   0  0  0  0  0  2  0  0  0  0  0  0
  -30.1380  -25.6520   18.8630 C   0  0  0  0  0  2  0  0  0  0  0  0
  -29.0590  -26.7380   18.8620 C   0  0  0  0  0  2  0  0  0  0  0  0
  -28.4570  -26.8090   20.1460 O   0  0  0  0  0  0  0  0  0  0  0  0
  -24.5880  -31.8830   23.2560 C   0  0  0  0  0  0  0  0  0  0  0  0
  -27.2800  -27.5090   20.1640 C   0  0  0  0  0  0  0  0  0  0  0  0
  -23.3980  -30.4890   21.5910 C   0  0  0  0  0  3  0  0  0  0  0  0
  -24.8700  -28.9660   20.1730 C   0  0  0  0  0  0  0  0  0  0  0  0
  -25.9190  -30.8690   21.4110 C   0  0  0  0  0  2  0  0  0  0  0  0
  -26.0170  -29.5020   20.7750 C   0  0  0  0  0  0  0  0  0  0  0  0
  -27.2230  -28.7740   20.7810 C   0  0  0  0  0  3  0  0  0  0  0  0
  -26.1190  -26.9650   19.5780 C   0  0  0  0  0  3  0  0  0  0  0  0
  -24.9110  -27.6920   19.5790 C   0  0  0  0  0  3  0  0  0  0  0  0
  -23.6230  -29.8200   20.2070 C   0  0  0  0  0  2  0  0  0  0  0  0
  -24.6530  -31.0940   22.1460 N   0  0  0  0  0  0  0  0  0  0  0  0
  -23.5030  -32.1460   23.7930 O   0  0  0  0  0  0  0  0  0  0  0  0
  -22.7450  -29.4570   22.5380 C   0  0  0  0  0  0  0  0  0  0  0  0
  -21.4210  -29.2750   22.4030 N   0  0  0  0  0  0  0  0  0  0  0  0
  -23.4260  -28.8240   23.3500 O   0  0  0  0  0  0  0  0  0  0  0  0
  -20.9340  -29.8390   21.7210 H   0  0  0  0  0  0  0  0  0  0  0  0
  -18.0460  -28.0800   22.8720 C   0  0  0  0  0  0  0  0  0  0  0  0
  -20.6020  -28.3310   23.1630 C   0  0  0  0  0  3  0  0  0  0  0  0
  -20.7060  -26.9050   22.5760 C   0  0  0  0  0  2  0  0  0  0  0  0
  -19.6110  -26.5920   21.5520 C   0  0  0  0  0  2  0  0  0  0  0  0
  -18.2250  -26.7350   22.1860 C   0  0  0  0  0  2  0  0  0  0  0  0
  -19.1620  -28.8350   23.3170 C   0  0  0  0  0  0  0  0  0  0  0  0
  -18.9430  -30.0940   23.9150 C   0  0  0  0  0  3  0  0  0  0  0  0
  -17.6380  -30.5980   24.0780 C   0  0  0  0  0  3  0  0  0  0  0  0
  -16.5350  -29.8380   23.6510 C   0  0  0  0  0  3  0  0  0  0  0  0
  -16.7390  -28.5820   23.0530 C   0  0  0  0  0  3  0  0  0  0  0  0
  -25.8700  -32.5110   23.8890 C   0  0  0  0  0  3  0  0  0  0  0  0
  -25.5620  -33.9100   24.2140 N   0  0  0  0  0  0  0  0  0  0  0  0
  -25.9040  -34.9600   23.4550 C   0  0  0  0  0  0  0  0  0  0  0  0
  -26.5830  -34.8520   22.4300 O   0  0  0  0  0  0  0  0  0  0  0  0
  -24.9630  -34.0660   25.0110 H   0  0  0  0  0  0  0  0  0  0  0  0
  -24.1850  -36.7540   23.0730 C   0  0  0  0  0  1  0  0  0  0  0  0
  -25.4120  -36.3480   23.9040 C   0  0  0  0  0  3  0  0  0  0  0  0
  -27.5380  -37.2290   24.7600 C   0  0  0  0  0  1  0  0  0  0  0  0
  -26.4470  -37.3990   23.8050 N   0  0  0  0  0  0  0  0  0  0  0  0
  -26.0410  -38.3200   23.9480 H   0  0  0  0  0  0  0  0  0  0  0  0
  -26.3760  -31.7380   25.1670 C   0  0  1  0  0  0  0  0  0  0  0  0
  -25.2740  -31.5020   26.2270 C   0  0  0  0  0  1  0  0  0  0  0  0
  -26.9620  -30.3620   24.7750 C   0  0  0  0  0  1  0  0  0  0  0  0
  -27.5220  -32.5290   25.8410 C   0  0  0  0  0  1  0  0  0  0  0  0
  -31.2810  -20.8110   19.0360 C   0  0  0  0  0  2  0  0  0  0  0  0
  -29.8910  -18.7200   18.9510 C   0  0  0  0  0  3  0  0  0  0  0  0
  -31.1400  -17.6060   21.2010 C   0  0  0  0  0  3  0  0  0  0  0  0
  -30.8870  -19.4580   19.6220 C   0  0  0  0  0  0  0  0  0  0  0  0
  -29.5120  -17.4380   19.3890 C   0  0  0  0  0  0  0  0  0  0  0  0
  -31.5000  -18.9020   20.7750 C   0  0  0  0  0  0  0  0  0  0  0  0
  -30.1660  -16.8610   20.5070 C   0  0  0  0  0  0  0  0  0  0  0  0
  -28.4330  -16.7020   18.6180 C   0  0  0  0  0  1  0  0  0  0  0  0
  -32.5640  -19.6520   21.5600 C   0  0  0  0  0  1  0  0  0  0  0  0
  -30.6430  -14.4850   20.6440 C   0  0  0  0  0  0  0  0  0  0  0  0
  -30.3830  -12.2980   19.5710 C   0  0  0  0  0  2  0  0  0  0  0  0
  -29.4820  -12.5030   18.3340 C   0  0  0  0  0  2  0  0  0  0  0  0
  -27.9940  -12.3840   18.7170 C   0  0  0  0  0  2  0  0  0  0  0  0
  -27.6200  -13.2350   19.9590 C   0  0  0  0  0  3  0  0  0  0  0  0
  -28.6400  -13.0350   21.1050 C   0  0  0  0  0  2  0  0  0  0  0  0
  -29.9840  -13.3030   20.5670 N   0  0  0  0  0  0  0  0  0  0  0  0
  -31.8150  -14.6320   20.2850 O   0  0  0  0  0  0  0  0  0  0  0  0
  -29.8660  -15.5420   20.9310 N   0  0  0  0  0  0  0  0  0  0  0  0
  -28.9030  -15.3320   21.1460 H   0  0  0  0  0  0  0  0  0  0  0  0
  -25.2030  -13.8710   20.5840 C   0  0  0  0  0  0  0  0  0  0  0  0
  -24.1210  -13.1080   20.9310 C   0  0  0  0  0  0  0  0  0  0  0  0
  -24.5780  -11.7550   20.9300 C   0  0  0  0  0  0  0  0  0  0  0  0
  -26.2510  -12.9810   20.3980 N   0  0  0  0  0  0  0  0  0  0  0  0
  -25.8750  -11.7050   20.6620 N   0  0  0  0  0  0  0  0  0  0  0  0
  -23.8430  -10.4990   21.1090 C   0  0  0  0  0  0  0  0  0  0  0  0
  -24.2550   -9.5300   22.0510 C   0  0  0  0  0  3  0  0  0  0  0  0
  -23.5200   -8.3370   22.2170 C   0  0  0  0  0  3  0  0  0  0  0  0
  -22.3600   -8.1040   21.4400 C   0  0  0  0  0  0  0  0  0  0  0  0
  -21.9680   -9.0630   20.4880 C   0  0  0  0  0  3  0  0  0  0  0  0
  -22.7040  -10.2470   20.3210 C   0  0  0  0  0  3  0  0  0  0  0  0
  -21.5940   -6.9640   21.5150 O   0  0  0  0  0  0  0  0  0  0  0  0
  -21.5320   -6.2150   22.6630 C   0  0  0  0  0  0  0  0  0  0  0  0
  -21.0980   -6.7650   23.8900 C   0  0  0  0  0  3  0  0  0  0  0  0
  -20.9810   -5.9410   25.0260 C   0  0  0  0  0  3  0  0  0  0  0  0
  -21.2890   -4.5690   24.9380 C   0  0  0  0  0  0  0  0  0  0  0  0
  -21.7160   -4.0210   23.7150 C   0  0  0  0  0  3  0  0  0  0  0  0
  -21.8330   -4.8410   22.5800 C   0  0  0  0  0  0  0  0  0  0  0  0
  -22.2240   -4.3030   21.4010 F   0  0  0  0  0  0  0  0  0  0  0  0
  -21.1720   -3.7750   26.0270 F   0  0  0  0  0  0  0  0  0  0  0  0
  -22.7190  -13.5950   21.1540 C   0  0  0  0  0  0  0  0  0  0  0  0
  -21.9570  -12.9100   21.9990 N   0  0  0  0  0  0  0  0  0  0  0  0
  -22.3040  -14.6210   20.6130 O   0  0  0  0  0  0  0  0  0  0  0  0
  -22.3050  -12.0860   22.4640 H   0  0  0  0  0  0  0  0  0  0  0  0
  -21.0140  -13.2190   22.1850 H   0  0  0  0  0  0  0  0  0  0  0  0
  -25.3770  -15.2390   20.3980 N   0  0  0  0  0  0  0  0  0  0  0  0
  -24.6010  -15.8880   20.4570 H   0  0  0  0  0  0  0  0  0  0  0  0
  -26.2340  -15.6760   20.0850 H   0  0  0  0  0  0  0  0  0  0  0  0
  1  2  1  0
  3  1  1  0
  5  4  1  0
  5  6  1  0
  5  1  1  0
  7  6  1  0
  8  7  1  0
  8  9  1  0
  9 11  1  0
 10 21  2  0
 11 16  1  0
 12 20  1  0
 12 22  1  0
 13 19  1  0
 13 15  1  0
 14 20  1  0
 15 16  2  0
 15 14  1  0
 17 18  1  0
 17 11  2  0
 18 13  2  0
 19 12  1  0
 20 10  1  0
 22 24  2  0
 23 22  1  0
 25 23  1  0
 26 35  2  0
 26 31  1  0
 27 23  1  0
 27 31  1  0
 28 27  1  0
 29 30  1  0
 29 28  1  0
 30 26  1  0
 31 32  2  0
 32 33  1  0
 34 33  2  0
 35 34  1  0
 36 10  1  0
 36 37  1  0
 36 46  1  0
 37 40  1  0
 38 42  1  0
 38 37  1  0
 39 38  2  0
 42 41  1  0
 44 42  1  0
 44 45  1  0
 44 43  1  0
 46 49  1  1
 46 47  1  0
 48 46  1  0
 50  1  1  0
 50 53  1  0
 51 54  2  0
 51 53  1  0
 53 55  2  0
 54 56  1  0
 55 52  1  0
 55 58  1  0
 56 67  1  0
 56 52  2  0
 57 54  1  0
 59 67  1  0
 60 65  1  0
 61 62  1  0
 61 60  1  0
 63 62  1  0
 63 72  1  0
 63 64  1  0
 65 59  1  0
 65 64  1  0
 66 59  2  0
 67 68  1  0
 69 70  2  0
 70 89  1  0
 71 70  1  0
 71 74  1  0
 72 69  1  0
 72 73  1  0
 73 71  2  0
 74 75  1  0
 75 76  2  0
 77 80  1  0
 77 76  1  0
 78 77  2  0
 79 78  1  0
 79 74  2  0
 80 81  1  0
 81 82  1  0
 82 83  2  0
 84 83  1  0
 84 88  1  0
 85 84  2  0
 86 81  2  0
 86 85  1  0
 87 86  1  0
 89 90  1  0
 90 93  1  0
 90 92  1  0
 91 89  2  0
 94 95  1  0
 94 69  1  0
 96 94  1  0
M  ISO  4   8 101   9 101  59 100  67 100
M  END
>  <TORSDO>  (28) 
F 22

>  <SCORE>  (28) 
-13.184

>  <name>  (28) 
27

>  <ligand_id>  (28) 
27

>  <original_smiles>  (28) 
[H]c1c([H])c([H])c2c(c1[H])C([H])([H])C([H])([H])C([H])([H])C2([H])N([H])C(=O)C1([H])N(C(=O)C([H])(N([H])C(=O)C([H])(N([H])C([H])([H])[H])C([H])([H])[H])C(C([H])([H])[H])(C([H])([H])[H])C([H])([H])[H])C([H])([H])c2c([H])c(OC([H])([H])C([H])([H])C([H])([H])C([H])(C([H])([H])[H])[N+]([H])([H])C([H])([H])c3c([H])c(C([H])([H])[H])c(N([H])C(=O)N4C([H])([H])C([H])([H])C([H])([H])C([H])(n5nc(-c6c([H])c([H])c(Oc7c([H])c([H])c(F)c([H])c7F)c([H])c6[H])c(C(=O)N([H])[H])c5N([H])[H])C4([H])[H])c([H])c3C([H])([H])[H])c([H])c([H])c2C1([H])[H]

>  <smiles>  (28) 
[H]c1c([H])c([H])c2c(c1[H])C([H])([H])C([H])([H])C([H])([H])C2([H])N([H])C(=O)C1([H])N(C(=O)C([H])(N([H])C(=O)C([H])(N([H])C([H])([H])[H])C([H])([H])[H])C(C([H])([H])[H])(C([H])([H])[H])C([H])([H])[H])C([H])([H])c2c([H])c(OC([H])([H])C([H])([H])C([H])([H])C([H])(C([H])([H])[H])[N+]([H])([H])C([H])([H])c3c([H])c(C([H])([H])[H])c(N([H])C(=O)N4C([H])([H])C([H])([H])C([H])([H])C([H])(n5nc(-c6c([H])c([H])c(Oc7c([H])c([H])c(F)c([H])c7F)c([H])c6[H])c(C(=O)N([H])[H])c5N([H])[H])C4([H])[H])c([H])c3C([H])([H])[H])c([H])c([H])c2C1([H])[H]

$$$$
28:0:0
     RDKit          3D

 94102  0  0  1  0  0  0  0  0999 V2000
  -29.0290  -19.1220   20.8260 C   0  0  0  0  0  3  0  0  0  0  0  0
  -31.4240  -17.7940   20.2510 C   0  0  0  0  0  3  0  0  0  0  0  0
  -30.1630  -19.9260   20.5490 C   0  0  0  0  0  0  0  0  0  0  0  0
  -30.2870  -17.0000   20.5520 C   0  0  0  0  0  0  0  0  0  0  0  0
  -29.0750  -17.6900   20.8160 C   0  0  0  0  0  0  0  0  0  0  0  0
  -31.3650  -19.2220   20.2430 C   0  0  0  0  0  0  0  0  0  0  0  0
  -32.8100  -20.0950   19.8730 Cl  0  0  0  0  0  0  0  0  0  0  0  0
  -30.9640  -14.5500   19.9770 C   0  0  0  0  0  0  0  0  0  0  0  0
  -30.6390  -12.4100   18.7540 C   0  0  0  0  0  2  0  0  0  0  0  0
  -29.6410  -12.6670   17.6020 C   0  0  0  0  0  2  0  0  0  0  0  0
  -28.1840  -12.5280   18.0910 C   0  0  0  0  0  2  0  0  0  0  0  0
  -27.9210  -13.3020   19.4100 C   0  0  0  0  0  3  0  0  0  0  0  0
  -29.0210  -13.0040   20.4530 C   0  0  0  0  0  2  0  0  0  0  0  0
  -30.3180  -13.3490   19.8460 N   0  0  0  0  0  0  0  0  0  0  0  0
  -32.0840  -14.7390   19.4930 O   0  0  0  0  0  0  0  0  0  0  0  0
  -30.2320  -15.5400   20.5670 N   0  0  0  0  0  0  0  0  0  0  0  0
  -29.4090  -15.1900   21.0340 H   0  0  0  0  0  0  0  0  0  0  0  0
  -25.5540  -13.9270   20.1980 C   0  0  0  0  0  0  0  0  0  0  0  0
  -24.4930  -13.1640   20.6050 C   0  0  0  0  0  0  0  0  0  0  0  0
  -24.9430  -11.8090   20.5650 C   0  0  0  0  0  0  0  0  0  0  0  0
  -26.5840  -13.0370   19.9370 N   0  0  0  0  0  0  0  0  0  0  0  0
  -26.2220  -11.7580   20.2150 N   0  0  0  0  0  0  0  0  0  0  0  0
  -24.2140  -10.5530   20.7850 C   0  0  0  0  0  0  0  0  0  0  0  0
  -24.6160   -9.6300   21.7750 C   0  0  0  0  0  3  0  0  0  0  0  0
  -23.8880   -8.4380   21.9800 C   0  0  0  0  0  3  0  0  0  0  0  0
  -22.7440   -8.1610   21.1940 C   0  0  0  0  0  0  0  0  0  0  0  0
  -22.3610   -9.0730   20.1950 C   0  0  0  0  0  3  0  0  0  0  0  0
  -23.0900  -10.2560   19.9880 C   0  0  0  0  0  3  0  0  0  0  0  0
  -21.9900   -7.0180   21.3060 O   0  0  0  0  0  0  0  0  0  0  0  0
  -21.8170   -6.3840   22.5100 C   0  0  0  0  0  0  0  0  0  0  0  0
  -21.2610   -7.0450   23.6260 C   0  0  0  0  0  3  0  0  0  0  0  0
  -21.0370   -6.3360   24.8240 C   0  0  0  0  0  3  0  0  0  0  0  0
  -21.3590   -4.9670   24.9040 C   0  0  0  0  0  0  0  0  0  0  0  0
  -21.9070   -4.3070   23.7920 C   0  0  0  0  0  3  0  0  0  0  0  0
  -22.1330   -5.0130   22.5960 C   0  0  0  0  0  0  0  0  0  0  0  0
  -22.6430   -4.3660   21.5200 F   0  0  0  0  0  0  0  0  0  0  0  0
  -21.1360   -4.2850   26.0520 F   0  0  0  0  0  0  0  0  0  0  0  0
  -23.1090  -13.6530   20.9210 C   0  0  0  0  0  0  0  0  0  0  0  0
  -22.4200  -12.9880   21.8420 N   0  0  0  0  0  0  0  0  0  0  0  0
  -22.6490  -14.6610   20.3870 O   0  0  0  0  0  0  0  0  0  0  0  0
  -22.8050  -12.1740   22.2950 H   0  0  0  0  0  0  0  0  0  0  0  0
  -21.4940  -13.3000   22.0980 H   0  0  0  0  0  0  0  0  0  0  0  0
  -25.7240  -15.2950   20.0120 N   0  0  0  0  0  0  0  0  0  0  0  0
  -24.9660  -15.9560   20.1460 H   0  0  0  0  0  0  0  0  0  0  0  0
  -26.5770  -15.7330   19.6900 H   0  0  0  0  0  0  0  0  0  0  0  0
  -26.6850  -17.4020   20.7390 C   0  0  0  0  0  1  0  0  0  0  0  0
  -27.9730  -16.8960   21.0670 O   0  0  0  0  0  0  0  0  0  0  0  0
  -30.0950  -21.4920   20.7220 C   0  0  0  0  0  2  0  0  0  0  0  0
  -29.5260  -22.4040   19.5570 C   0  0  0  0  0  3  0  0  0  0  0  0
  -27.6280  -22.5340   17.8130 C   0  0  0  0  0  1  0  0  0  0  0  0
  -28.0700  -22.0390   19.1980 C   0  0  0  0  0  2  0  0  0  0  0  0
  -29.7860  -23.9880   19.6400 C   0  0  0  0  0  3  0  0  0  0  0  0
  -28.7950  -24.9840   20.3760 C   0  0  0  0  0  3  0  0  0  0  0  0
  -28.9180  -26.4220   20.0500 O   0  0  0  0  0  0  0  0  0  0  0  0
  -24.7430  -31.4990   23.0060 C   0  0  0  0  0  0  0  0  0  0  0  0
  -27.7470  -27.1860   19.9870 C   0  0  0  0  0  0  0  0  0  0  0  0
  -23.6950  -30.0730   21.2840 C   0  0  0  0  0  3  0  0  0  0  0  0
  -25.2940  -28.6420   19.8950 C   0  0  0  0  0  0  0  0  0  0  0  0
  -26.2140  -30.5450   21.2210 C   0  0  0  0  0  2  0  0  0  0  0  0
  -26.4020  -29.1900   20.5530 C   0  0  0  0  0  0  0  0  0  0  0  0
  -27.6330  -28.4750   20.5880 C   0  0  0  0  0  3  0  0  0  0  0  0
  -26.6210  -26.6870   19.2980 C   0  0  0  0  0  3  0  0  0  0  0  0
  -25.4040  -27.3950   19.2570 C   0  0  0  0  0  3  0  0  0  0  0  0
  -24.0070  -29.4410   19.9010 C   0  0  0  0  0  2  0  0  0  0  0  0
  -24.8990  -30.7220   21.8950 N   0  0  0  0  0  0  0  0  0  0  0  0
  -23.6240  -31.7020   23.4970 O   0  0  0  0  0  0  0  0  0  0  0  0
  -23.0510  -28.9980   22.1920 C   0  0  0  0  0  0  0  0  0  0  0  0
  -21.7350  -28.7810   22.0330 N   0  0  0  0  0  0  0  0  0  0  0  0
  -23.7360  -28.3640   22.9990 O   0  0  0  0  0  0  0  0  0  0  0  0
  -21.2410  -29.3480   21.3570 H   0  0  0  0  0  0  0  0  0  0  0  0
  -18.3750  -27.5210   22.4850 C   0  0  0  0  0  0  0  0  0  0  0  0
  -20.9330  -27.7900   22.7510 C   0  0  0  0  0  3  0  0  0  0  0  0
  -21.0450  -26.3970   22.0890 C   0  0  0  0  0  2  0  0  0  0  0  0
  -19.9380  -26.1250   21.0650 C   0  0  0  0  0  2  0  0  0  0  0  0
  -18.5600  -26.2170   21.7270 C   0  0  0  0  0  2  0  0  0  0  0  0
  -19.4900  -28.2680   22.9510 C   0  0  0  0  0  0  0  0  0  0  0  0
  -19.2640  -29.4900   23.6200 C   0  0  0  0  0  3  0  0  0  0  0  0
  -17.9550  -29.9660   23.8260 C   0  0  0  0  0  3  0  0  0  0  0  0
  -16.8550  -29.2160   23.3750 C   0  0  0  0  0  3  0  0  0  0  0  0
  -17.0660  -27.9950   22.7100 C   0  0  0  0  0  3  0  0  0  0  0  0
  -25.9610  -32.1880   23.6980 C   0  0  0  0  0  3  0  0  0  0  0  0
  -25.5530  -33.5540   24.0540 N   0  0  0  0  0  0  0  0  0  0  0  0
  -25.8500  -34.6480   23.3390 C   0  0  0  0  0  0  0  0  0  0  0  0
  -26.5640  -34.6170   22.3330 O   0  0  0  0  0  0  0  0  0  0  0  0
  -24.9220  -33.6490   24.8360 H   0  0  0  0  0  0  0  0  0  0  0  0
  -24.0270  -36.3410   22.9690 C   0  0  0  0  0  1  0  0  0  0  0  0
  -25.2610  -35.9900   23.8150 C   0  0  0  0  0  3  0  0  0  0  0  0
  -27.3030  -36.9800   24.7550 C   0  0  0  0  0  1  0  0  0  0  0  0
  -26.2290  -37.1070   23.7710 N   0  0  0  0  0  0  0  0  0  0  0  0
  -25.7610  -37.9950   23.9280 H   0  0  0  0  0  0  0  0  0  0  0  0
  -26.4730  -31.4110   24.9720 C   0  0  1  0  0  0  0  0  0  0  0  0
  -25.3520  -31.0640   25.9810 C   0  0  0  0  0  1  0  0  0  0  0  0
  -27.1650  -30.0880   24.5650 C   0  0  0  0  0  1  0  0  0  0  0  0
  -27.5350  -32.2570   25.7110 C   0  0  0  0  0  1  0  0  0  0  0  0
  2  4  1  0
  3 48  1  0
  3  1  2  0
  4 16  1  0
  4  5  2  0
  5  1  1  0
  5 47  1  0
  6  2  2  0
  6  3  1  0
  7  6  1  0
  8 16  1  0
  9 14  1  0
 10 11  1  0
 10  9  1  0
 12 11  1  0
 12 21  1  0
 12 13  1  0
 14  8  1  0
 14 13  1  0
 15  8  2  0
 16 17  1  0
 18 19  2  0
 19 38  1  0
 20 19  1  0
 20 23  1  0
 21 18  1  0
 21 22  1  0
 22 20  2  0
 23 24  1  0
 24 25  2  0
 26 29  1  0
 26 25  1  0
 27 26  2  0
 28 27  1  0
 28 23  2  0
 29 30  1  0
 30 35  2  0
 30 31  1  0
 31 32  2  0
 32 33  1  0
 33 37  1  0
 34 33  2  0
 35 34  1  0
 36 35  1  0
 38 39  1  0
 39 42  1  0
 39 41  1  0
 40 38  2  0
 43 44  1  0
 43 18  1  0
 45 43  1  0
 46 47  1  0
 49 51  1  0
 49 52  1  0
 49 48  1  0
 50 51  1  0
 52 53  2  0
 54 53  1  0
 55 66  2  0
 56 54  1  0
 56 61  1  0
 57 65  1  0
 57 67  1  0
 58 64  1  0
 58 60  1  0
 59 65  1  0
 60 61  2  0
 60 59  1  0
 62 56  2  0
 63 62  1  0
 63 58  2  0
 64 57  1  0
 65 55  1  0
 67 69  2  0
 68 67  1  0
 70 68  1  0
 71 80  2  0
 71 76  1  0
 72 68  1  0
 72 76  1  0
 73 72  1  0
 74 75  1  0
 74 73  1  0
 75 71  1  0
 76 77  2  0
 77 78  1  0
 79 78  2  0
 80 79  1  0
 81 55  1  0
 81 82  1  0
 81 91  1  0
 82 85  1  0
 83 87  1  0
 83 82  1  0
 84 83  2  0
 87 86  1  0
 89 87  1  0
 89 90  1  0
 89 88  1  0
 91 94  1  1
 91 92  1  0
 93 91  1  0
M  ISO  4   8 100  16 100  53 101  54 101
M  END
>  <TORSDO>  (29) 
F 22

>  <SCORE>  (29) 
-11.150

>  <name>  (29) 
28

>  <ligand_id>  (29) 
28

>  <original_smiles>  (29) 
[H]c1c([H])c([H])c2c(c1[H])C([H])([H])C([H])([H])C([H])([H])C2([H])N([H])C(=O)C1([H])N(C(=O)C([H])(N([H])C(=O)C([H])(N([H])C([H])([H])[H])C([H])([H])[H])C(C([H])([H])[H])(C([H])([H])[H])C([H])([H])[H])C([H])([H])c2c([H])c(OC([H])([H])C([H])([H])C([H])(C([H])([H])c3c([H])c(OC([H])([H])[H])c(N([H])C(=O)N4C([H])([H])C([H])([H])C([H])([H])C([H])(n5nc(-c6c([H])c([H])c(Oc7c([H])c([H])c(F)c([H])c7F)c([H])c6[H])c(C(=O)N([H])[H])c5N([H])[H])C4([H])[H])c([H])c3Cl)C([H])([H])C([H])([H])[H])c([H])c([H])c2C1([H])[H]

>  <smiles>  (29) 
[H]c1c([H])c([H])c2c(c1[H])C([H])([H])C([H])([H])C([H])([H])C2([H])N([H])C(=O)C1([H])N(C(=O)C([H])(N([H])C(=O)C([H])(N([H])C([H])([H])[H])C([H])([H])[H])C(C([H])([H])[H])(C([H])([H])[H])C([H])([H])[H])C([H])([H])c2c([H])c(OC([H])([H])C([H])([H])C([H])(C([H])([H])c3c([H])c(OC([H])([H])[H])c(N([H])C(=O)N4C([H])([H])C([H])([H])C([H])([H])C([H])(n5nc(-c6c([H])c([H])c(Oc7c([H])c([H])c(F)c([H])c7F)c([H])c6[H])c(C(=O)N([H])[H])c5N([H])[H])C4([H])[H])c([H])c3Cl)C([H])([H])C([H])([H])[H])c([H])c([H])c2C1([H])[H]

$$$$
29:0:0
     RDKit          3D

 89 97  0  0  1  0  0  0  0  0999 V2000
  -29.5150  -19.7930   21.2500 C   0  0  0  0  0  3  0  0  0  0  0  0
  -29.1740  -21.2930   21.2730 C   0  0  0  0  0  0  0  0  0  0  0  0
  -28.5840  -22.1760   20.2190 C   0  0  0  0  0  0  0  0  0  0  0  0
  -28.4530  -21.1340   19.1490 C   0  0  0  0  0  0  0  0  0  0  0  0
  -29.3640  -18.7450   20.2000 C   0  0  0  0  0  0  0  0  0  0  0  0
  -28.7750  -19.6250   19.1520 C   0  0  0  0  0  0  0  0  0  0  0  0
  -29.4230  -21.9890   22.5970 C   0  0  0  0  0  1  0  0  0  0  0  0
  -27.8520  -21.6610   17.8500 C   0  0  0  0  0  1  0  0  0  0  0  0
  -28.3380  -18.7340   17.7330 Cl  0  0  0  0  0  0  0  0  0  0  0  0
  -30.2670  -15.7150   20.1360 C   0  0  0  0  0  0  0  0  0  0  0  0
  -30.3680  -13.1840   19.2900 C   0  0  0  0  0  2  0  0  0  0  0  0
  -29.4420  -12.8080   18.0990 C   0  0  0  0  0  2  0  0  0  0  0  0
  -28.0280  -12.4530   18.5860 C   0  0  0  0  0  2  0  0  0  0  0  0
  -27.5480  -13.4290   19.6850 C   0  0  0  0  0  3  0  0  0  0  0  0
  -28.6140  -13.7140   20.7700 C   0  0  0  0  0  2  0  0  0  0  0  0
  -29.7660  -14.3440   20.0860 N   0  0  0  0  0  0  0  0  0  0  0  0
  -31.4940  -15.6910   19.9190 O   0  0  0  0  0  0  0  0  0  0  0  0
  -29.4430  -17.0240   20.2500 N   0  0  0  0  0  0  0  0  0  0  0  0
  -28.4930  -16.6930   20.3320 H   0  0  0  0  0  0  0  0  0  0  0  0
  -25.2070  -13.9290   20.5370 C   0  0  0  0  0  0  0  0  0  0  0  0
  -24.1660  -13.1330   20.9230 C   0  0  0  0  0  0  0  0  0  0  0  0
  -24.6450  -11.7890   20.8490 C   0  0  0  0  0  0  0  0  0  0  0  0
  -26.2500  -13.0710   20.2400 N   0  0  0  0  0  0  0  0  0  0  0  0
  -25.9280  -11.7750   20.4960 N   0  0  0  0  0  0  0  0  0  0  0  0
  -23.9320  -10.5180   21.0360 C   0  0  0  0  0  0  0  0  0  0  0  0
  -24.3810   -9.5430   21.9540 C   0  0  0  0  0  3  0  0  0  0  0  0
  -23.6630   -8.3400   22.1310 C   0  0  0  0  0  3  0  0  0  0  0  0
  -22.4810   -8.1030   21.3900 C   0  0  0  0  0  0  0  0  0  0  0  0
  -22.0500   -9.0660   20.4610 C   0  0  0  0  0  3  0  0  0  0  0  0
  -22.7680  -10.2600   20.2830 C   0  0  0  0  0  3  0  0  0  0  0  0
  -21.7330   -6.9520   21.4770 O   0  0  0  0  0  0  0  0  0  0  0  0
  -21.6860   -6.2110   22.6300 C   0  0  0  0  0  0  0  0  0  0  0  0
  -21.2220   -6.7560   23.8480 C   0  0  0  0  0  3  0  0  0  0  0  0
  -21.1240   -5.9380   24.9930 C   0  0  0  0  0  3  0  0  0  0  0  0
  -21.4790   -4.5790   24.9210 C   0  0  0  0  0  0  0  0  0  0  0  0
  -21.9360   -4.0330   23.7070 C   0  0  0  0  0  3  0  0  0  0  0  0
  -22.0360   -4.8470   22.5650 C   0  0  0  0  0  0  0  0  0  0  0  0
  -22.4570   -4.3110   21.3940 F   0  0  0  0  0  0  0  0  0  0  0  0
  -21.3780   -3.7910   26.0180 F   0  0  0  0  0  0  0  0  0  0  0  0
  -22.7740  -13.5950   21.2370 C   0  0  0  0  0  0  0  0  0  0  0  0
  -22.0740  -12.8850   22.1140 N   0  0  0  0  0  0  0  0  0  0  0  0
  -22.3170  -14.6230   20.7400 O   0  0  0  0  0  0  0  0  0  0  0  0
  -22.4570  -12.0550   22.5400 H   0  0  0  0  0  0  0  0  0  0  0  0
  -21.1400  -13.1790   22.3630 H   0  0  0  0  0  0  0  0  0  0  0  0
  -25.3470  -15.3050   20.3790 N   0  0  0  0  0  0  0  0  0  0  0  0
  -24.5670  -15.9380   20.5160 H   0  0  0  0  0  0  0  0  0  0  0  0
  -26.1550  -15.7540   19.9710 H   0  0  0  0  0  0  0  0  0  0  0  0
  -27.8100  -23.8860   20.2910 C   0  0  0  0  0  2  0  0  0  0  0  0
  -28.1380  -25.6030   20.3470 O   0  0  0  0  0  0  0  0  0  0  0  0
  -24.6690  -31.9180   23.2670 C   0  0  0  0  0  0  0  0  0  0  0  0
  -27.1790  -26.8240   20.3020 C   0  0  0  0  0  0  0  0  0  0  0  0
  -23.4750  -30.5180   21.6370 C   0  0  0  0  0  3  0  0  0  0  0  0
  -24.9170  -28.8610   20.2340 C   0  0  0  0  0  0  0  0  0  0  0  0
  -26.0550  -30.6520   21.5160 C   0  0  0  0  0  2  0  0  0  0  0  0
  -26.1150  -29.2170   20.8660 C   0  0  0  0  0  0  0  0  0  0  0  0
  -27.2320  -28.2280   20.8660 C   0  0  0  0  0  3  0  0  0  0  0  0
  -25.9460  -26.6770   19.6160 C   0  0  0  0  0  3  0  0  0  0  0  0
  -24.8710  -27.6150   19.5850 C   0  0  0  0  0  3  0  0  0  0  0  0
  -23.7130  -29.8140   20.2710 C   0  0  0  0  0  2  0  0  0  0  0  0
  -24.7570  -31.0630   22.1930 N   0  0  0  0  0  0  0  0  0  0  0  0
  -23.5770  -32.2270   23.7740 O   0  0  0  0  0  0  0  0  0  0  0  0
  -22.7540  -29.5490   22.6130 C   0  0  0  0  0  0  0  0  0  0  0  0
  -21.4230  -29.3890   22.4770 N   0  0  0  0  0  0  0  0  0  0  0  0
  -23.4040  -28.9370   23.4640 O   0  0  0  0  0  0  0  0  0  0  0  0
  -20.9500  -29.9340   21.7680 H   0  0  0  0  0  0  0  0  0  0  0  0
  -18.0350  -28.1690   22.9670 C   0  0  0  0  0  0  0  0  0  0  0  0
  -20.5910  -28.4600   23.2520 C   0  0  0  0  0  3  0  0  0  0  0  0
  -20.7080  -27.0200   22.7010 C   0  0  0  0  0  2  0  0  0  0  0  0
  -19.6190  -26.6740   21.6800 C   0  0  0  0  0  2  0  0  0  0  0  0
  -18.2290  -26.8150   22.3060 C   0  0  0  0  0  2  0  0  0  0  0  0
  -19.1420  -28.9490   23.3970 C   0  0  0  0  0  0  0  0  0  0  0  0
  -18.9040  -30.2110   23.9790 C   0  0  0  0  0  3  0  0  0  0  0  0
  -17.5910  -30.6970   24.1340 C   0  0  0  0  0  3  0  0  0  0  0  0
  -16.4990  -29.9180   23.7170 C   0  0  0  0  0  3  0  0  0  0  0  0
  -16.7220  -28.6550   23.1400 C   0  0  0  0  0  3  0  0  0  0  0  0
  -25.9350  -32.5660   23.9070 C   0  0  0  0  0  3  0  0  0  0  0  0
  -25.6210  -33.9730   24.2260 N   0  0  0  0  0  0  0  0  0  0  0  0
  -25.9410  -35.0270   23.4630 C   0  0  0  0  0  0  0  0  0  0  0  0
  -26.5870  -34.9180   22.4180 O   0  0  0  0  0  0  0  0  0  0  0  0
  -25.0410  -34.1310   25.0370 H   0  0  0  0  0  0  0  0  0  0  0  0
  -24.1990  -36.8260   23.1690 C   0  0  0  0  0  1  0  0  0  0  0  0
  -25.4730  -36.4230   23.9290 C   0  0  0  0  0  3  0  0  0  0  0  0
  -27.6360  -37.3270   24.6680 C   0  0  0  0  0  1  0  0  0  0  0  0
  -26.5000  -37.4760   23.7620 N   0  0  0  0  0  0  0  0  0  0  0  0
  -26.0980  -38.3990   23.9060 H   0  0  0  0  0  0  0  0  0  0  0  0
  -26.4180  -31.8180   25.2120 C   0  0  1  0  0  0  0  0  0  0  0  0
  -25.3030  -31.6150   26.2660 C   0  0  0  0  0  1  0  0  0  0  0  0
  -26.9950  -30.4250   24.8720 C   0  0  0  0  0  1  0  0  0  0  0  0
  -27.5650  -32.6150   25.8770 C   0  0  0  0  0  1  0  0  0  0  0  0
  1  2  1  0
  2  7  1  0
  3 48  1  0
  3  2  2  0
  4  6  2  0
  4  3  1  0
  5 18  1  0
  5  1  2  0
  6  5  1  0
  8  4  1  0
  9  6  1  0
 10 18  1  0
 11 16  1  0
 12 13  1  0
 12 11  1  0
 14 13  1  0
 14 23  1  0
 14 15  1  0
 16 10  1  0
 16 15  1  0
 17 10  2  0
 18 19  1  0
 20 21  2  0
 21 40  1  0
 22 21  1  0
 22 25  1  0
 23 24  1  0
 23 20  1  0
 24 22  2  0
 25 26  1  0
 26 27  2  0
 28 31  1  0
 28 27  1  0
 29 28  2  0
 30 29  1  0
 30 25  2  0
 31 32  1  0
 32 33  1  0
 33 34  2  0
 35 34  1  0
 35 39  1  0
 36 35  2  0
 37 32  2  0
 37 36  1  0
 38 37  1  0
 40 41  1  0
 41 44  1  0
 41 43  1  0
 42 40  2  0
 45 46  1  0
 45 20  1  0
 47 45  1  0
 48 49  1  0
 50 61  2  0
 51 49  1  0
 51 56  1  0
 52 60  1  0
 52 62  1  0
 53 59  1  0
 53 55  1  0
 54 60  1  0
 55 56  2  0
 55 54  1  0
 57 51  2  0
 58 57  1  0
 58 53  2  0
 59 52  1  0
 60 50  1  0
 62 64  2  0
 63 62  1  0
 65 63  1  0
 66 75  2  0
 66 71  1  0
 67 63  1  0
 67 71  1  0
 68 67  1  0
 69 70  1  0
 69 68  1  0
 70 66  1  0
 71 72  2  0
 72 73  1  0
 74 73  2  0
 75 74  1  0
 76 50  1  0
 76 77  1  0
 76 86  1  0
 77 80  1  0
 78 82  1  0
 78 77  1  0
 79 78  2  0
 82 81  1  0
 84 85  1  0
 84 82  1  0
 84 83  1  0
 86 89  1  1
 86 87  1  0
 88 86  1  0
M  ISO  4  10 100  18 100  48 101  49 101
M  END
>  <TORSDO>  (30) 
F 17

>  <SCORE>  (30) 
-16.867

>  <name>  (30) 
29

>  <ligand_id>  (30) 
29

>  <original_smiles>  (30) 
[H]c1c([H])c([H])c2c(c1[H])C([H])([H])C([H])([H])C([H])([H])C2([H])N([H])C(=O)C1([H])N(C(=O)C([H])(N([H])C(=O)C([H])(N([H])C([H])([H])[H])C([H])([H])[H])C(C([H])([H])[H])(C([H])([H])[H])C([H])([H])[H])C([H])([H])c2c([H])c(OC([H])([H])c3c(C([H])([H])[H])c([H])c(N([H])C(=O)N4C([H])([H])C([H])([H])C([H])([H])C([H])(n5nc(-c6c([H])c([H])c(Oc7c([H])c([H])c(F)c([H])c7F)c([H])c6[H])c(C(=O)N([H])[H])c5N([H])[H])C4([H])[H])c(Cl)c3C([H])([H])[H])c([H])c([H])c2C1([H])[H]

>  <smiles>  (30) 
[H]c1c([H])c([H])c2c(c1[H])C([H])([H])C([H])([H])C([H])([H])C2([H])N([H])C(=O)C1([H])N(C(=O)C([H])(N([H])C(=O)C([H])(N([H])C([H])([H])[H])C([H])([H])[H])C(C([H])([H])[H])(C([H])([H])[H])C([H])([H])[H])C([H])([H])c2c([H])c(OC([H])([H])c3c(C([H])([H])[H])c([H])c(N([H])C(=O)N4C([H])([H])C([H])([H])C([H])([H])C([H])(n5nc(-c6c([H])c([H])c(Oc7c([H])c([H])c(F)c([H])c7F)c([H])c6[H])c(C(=O)N([H])[H])c5N([H])[H])C4([H])[H])c(Cl)c3C([H])([H])[H])c([H])c([H])c2C1([H])[H]

$$$$
30:0:0
     RDKit          3D

 97105  0  0  1  0  0  0  0  0999 V2000
  -29.2190  -21.5830   17.2880 N   0  0  0  0  0  0  0  0  0  0  0  0
  -29.0760  -21.9340   16.3460 H   0  0  0  0  0  0  0  0  0  0  0  0
  -28.1750  -22.4480   19.3080 C   0  0  0  0  0  3  0  0  0  0  0  0
  -27.9210  -23.5050   20.2070 C   0  0  0  0  0  0  0  0  0  0  0  0
  -28.5620  -24.7630   20.0360 C   0  0  0  0  0  0  0  0  0  0  0  0
  -29.4950  -24.9150   18.9640 C   0  0  0  0  0  0  0  0  0  0  0  0
  -29.0290  -22.6270   18.2060 C   0  0  0  0  0  0  0  0  0  0  0  0
  -29.6710  -23.8700   18.0220 C   0  0  0  0  0  0  0  0  0  0  0  0
  -26.9470  -23.2450   21.3500 C   0  0  0  0  0  1  0  0  0  0  0  0
  -30.3480  -26.1680   18.7960 C   0  0  0  0  0  1  0  0  0  0  0  0
  -30.6730  -24.1140   16.6260 Cl  0  0  0  0  0  0  0  0  0  0  0  0
  -28.2470  -25.9260   20.9920 C   0  0  0  0  0  2  0  0  0  0  0  0
  -26.9160  -28.0680   20.8330 C   0  0  0  0  0  0  0  0  0  0  0  0
  -25.3150  -29.9170   20.4680 C   0  0  0  0  0  2  0  0  0  0  0  0
  -24.0750  -29.7650   21.3700 C   0  0  0  0  0  2  0  0  0  0  0  0
  -23.0250  -28.8370   20.7230 C   0  0  0  0  0  2  0  0  0  0  0  0
  -23.6430  -27.5090   20.2090 C   0  0  0  0  0  3  0  0  0  0  0  0
  -24.8920  -27.8040   19.3550 C   0  0  0  0  0  2  0  0  0  0  0  0
  -25.8420  -28.5780   20.1790 N   0  0  0  0  0  0  0  0  0  0  0  0
  -27.5780  -28.7010   21.6630 O   0  0  0  0  0  0  0  0  0  0  0  0
  -27.2090  -26.8130   20.4800 N   0  0  0  0  0  0  0  0  0  0  0  0
  -26.6050  -26.4150   19.7780 H   0  0  0  0  0  0  0  0  0  0  0  0
  -21.9760  -25.5720   19.8770 C   0  0  0  0  0  0  0  0  0  0  0  0
  -21.1330  -25.2590   18.8430 C   0  0  0  0  0  0  0  0  0  0  0  0
  -21.3470  -26.2590   17.8460 C   0  0  0  0  0  0  0  0  0  0  0  0
  -22.6620  -26.7090   19.4780 N   0  0  0  0  0  0  0  0  0  0  0  0
  -22.3080  -27.0920   18.2260 N   0  0  0  0  0  0  0  0  0  0  0  0
  -20.6520  -26.5070   16.5760 C   0  0  0  0  0  0  0  0  0  0  0  0
  -21.2490  -26.1980   15.3350 C   0  0  0  0  0  3  0  0  0  0  0  0
  -20.5560  -26.4320   14.1280 C   0  0  0  0  0  3  0  0  0  0  0  0
  -19.2500  -26.9770   14.1550 C   0  0  0  0  0  0  0  0  0  0  0  0
  -18.6680  -27.3040   15.3930 C   0  0  0  0  0  3  0  0  0  0  0  0
  -19.3620  -27.0750   16.5920 C   0  0  0  0  0  3  0  0  0  0  0  0
  -18.5100  -27.2630   13.0330 O   0  0  0  0  0  0  0  0  0  0  0  0
  -18.4520  -26.3960   11.9700 C   0  0  0  0  0  0  0  0  0  0  0  0
  -17.8480  -25.1240   12.0770 C   0  0  0  0  0  3  0  0  0  0  0  0
  -17.7490  -24.2950   10.9430 C   0  0  0  0  0  3  0  0  0  0  0  0
  -18.2410  -24.7380    9.7010 C   0  0  0  0  0  0  0  0  0  0  0  0
  -18.8380  -26.0060    9.5900 C   0  0  0  0  0  3  0  0  0  0  0  0
  -18.9400  -26.8340   10.7220 C   0  0  0  0  0  0  0  0  0  0  0  0
  -19.4970  -28.0630   10.6070 F   0  0  0  0  0  0  0  0  0  0  0  0
  -18.1390  -23.9450    8.6080 F   0  0  0  0  0  0  0  0  0  0  0  0
  -20.1160  -24.1530   18.8200 C   0  0  0  0  0  0  0  0  0  0  0  0
  -20.0910  -23.3680   17.7480 N   0  0  0  0  0  0  0  0  0  0  0  0
  -19.3680  -23.9520   19.7740 O   0  0  0  0  0  0  0  0  0  0  0  0
  -20.7220  -23.5170   16.9750 H   0  0  0  0  0  0  0  0  0  0  0  0
  -19.4340  -22.6020   17.7060 H   0  0  0  0  0  0  0  0  0  0  0  0
  -22.2050  -24.9980   21.1220 N   0  0  0  0  0  0  0  0  0  0  0  0
  -21.7190  -24.1630   21.4300 H   0  0  0  0  0  0  0  0  0  0  0  0
  -22.8730  -25.3370   21.8000 H   0  0  0  0  0  0  0  0  0  0  0  0
  -30.8470  -20.2230   16.0510 C   0  0  0  0  0  1  0  0  0  0  0  0
  -30.5130  -20.9110   17.3850 C   0  0  0  0  0  3  0  0  0  0  0  0
  -30.5270  -19.8880   18.5430 C   0  0  0  0  0  2  0  0  0  0  0  0
  -31.0410  -20.4850   19.8930 C   0  0  0  0  0  2  0  0  0  0  0  0
  -32.1180  -19.9070   20.8570 C   0  0  0  0  0  2  0  0  0  0  0  0
  -33.3380  -20.8360   21.0890 C   0  0  0  0  0  2  0  0  0  0  0  0
  -34.3230  -20.6550   20.0740 O   0  0  0  0  0  0  0  0  0  0  0  0
  -36.8190  -27.3150   19.8390 C   0  0  0  0  0  0  0  0  0  0  0  0
  -34.5510  -21.7800   19.3220 C   0  0  0  0  0  0  0  0  0  0  0  0
  -35.5530  -26.5620   17.8500 C   0  0  0  0  0  3  0  0  0  0  0  0
  -35.0350  -24.0680   17.7500 C   0  0  0  0  0  0  0  0  0  0  0  0
  -36.8110  -24.8830   19.3110 C   0  0  0  0  0  2  0  0  0  0  0  0
  -35.7660  -23.8600   18.9270 C   0  0  0  0  0  0  0  0  0  0  0  0
  -35.5260  -22.7180   19.7200 C   0  0  0  0  0  3  0  0  0  0  0  0
  -33.8270  -21.9960   18.1320 C   0  0  0  0  0  3  0  0  0  0  0  0
  -34.0590  -23.1420   17.3500 C   0  0  0  0  0  3  0  0  0  0  0  0
  -35.3640  -25.3090   16.9530 C   0  0  0  0  0  2  0  0  0  0  0  0
  -36.3980  -26.2820   19.0570 N   0  0  0  0  0  0  0  0  0  0  0  0
  -36.5490  -28.4880   19.5480 O   0  0  0  0  0  0  0  0  0  0  0  0
  -34.1610  -27.1340   18.1980 C   0  0  0  0  0  0  0  0  0  0  0  0
  -33.6660  -28.0560   17.3540 N   0  0  0  0  0  0  0  0  0  0  0  0
  -33.5400  -26.7330   19.1860 O   0  0  0  0  0  0  0  0  0  0  0  0
  -34.2400  -28.3380   16.5730 H   0  0  0  0  0  0  0  0  0  0  0  0
  -31.9210  -31.1810   16.8780 C   0  0  0  0  0  0  0  0  0  0  0  0
  -32.3580  -28.7000   17.4580 C   0  0  0  0  0  3  0  0  0  0  0  0
  -31.4700  -28.3630   16.2370 C   0  0  0  0  0  2  0  0  0  0  0  0
  -31.5670  -29.3990   15.1150 C   0  0  0  0  0  2  0  0  0  0  0  0
  -31.1600  -30.7860   15.6230 C   0  0  0  0  0  2  0  0  0  0  0  0
  -32.4950  -30.2030   17.7310 C   0  0  0  0  0  0  0  0  0  0  0  0
  -33.2230  -30.6250   18.8660 C   0  0  0  0  0  3  0  0  0  0  0  0
  -33.3750  -31.9950   19.1570 C   0  0  0  0  0  3  0  0  0  0  0  0
  -32.7900  -32.9590   18.3160 C   0  0  0  0  0  3  0  0  0  0  0  0
  -32.0630  -32.5510   17.1840 C   0  0  0  0  0  3  0  0  0  0  0  0
  -37.6770  -27.0740   21.1210 C   0  0  0  0  0  3  0  0  0  0  0  0
  -38.9450  -27.7930   20.9460 N   0  0  0  0  0  0  0  0  0  0  0  0
  -40.0640  -27.2470   20.4520 C   0  0  0  0  0  0  0  0  0  0  0  0
  -40.1550  -26.0510   20.1610 O   0  0  0  0  0  0  0  0  0  0  0  0
  -38.9290  -28.7870   21.1150 H   0  0  0  0  0  0  0  0  0  0  0  0
  -41.5100  -28.3950   18.7460 C   0  0  0  0  0  1  0  0  0  0  0  0
  -41.2760  -28.1760   20.2490 C   0  0  0  0  0  3  0  0  0  0  0  0
  -42.5120  -27.7840   22.3340 C   0  0  0  0  0  1  0  0  0  0  0  0
  -42.5160  -27.6720   20.8790 N   0  0  0  0  0  0  0  0  0  0  0  0
  -43.3270  -28.1710   20.5240 H   0  0  0  0  0  0  0  0  0  0  0  0
  -36.9530  -27.5300   22.4480 C   0  0  1  0  0  0  0  0  0  0  0  0
  -37.3160  -28.9650   22.8900 C   0  0  0  0  0  1  0  0  0  0  0  0
  -35.4160  -27.4610   22.2830 C   0  0  0  0  0  1  0  0  0  0  0  0
  -37.3190  -26.5670   23.6020 C   0  0  0  0  0  1  0  0  0  0  0  0
  1 52  1  0
  1  7  1  0
  2  1  1  0
  3  4  1  0
  4  9  1  0
  5  4  2  0
  5 12  1  0
  6  5  1  0
  7  3  2  0
  8  7  1  0
  8  6  2  0
 10  6  1  0
 11  8  1  0
 13 20  2  0
 14 15  1  0
 16 15  1  0
 17 18  1  0
 17 16  1  0
 18 19  1  0
 19 14  1  0
 19 13  1  0
 21 13  1  0
 21 12  1  0
 22 21  1  0
 23 48  1  0
 24 23  2  0
 25 27  2  0
 25 24  1  0
 26 23  1  0
 26 17  1  0
 27 26  1  0
 28 33  1  0
 28 25  1  0
 29 28  2  0
 30 31  2  0
 30 29  1  0
 31 32  1  0
 32 33  2  0
 34 31  1  0
 35 36  1  0
 35 34  1  0
 37 36  2  0
 38 37  1  0
 39 38  2  0
 39 40  1  0
 40 35  2  0
 41 40  1  0
 42 38  1  0
 43 24  1  0
 43 45  2  0
 44 43  1  0
 46 44  1  0
 47 44  1  0
 48 49  1  0
 48 50  1  0
 52 51  1  0
 52 53  1  0
 53 54  1  0
 54 55  1  0
 55 56  1  0
 57 56  1  0
 59 64  1  0
 59 57  1  0
 60 70  1  0
 60 68  1  0
 61 63  1  0
 63 62  1  0
 63 64  2  0
 65 59  2  0
 66 61  2  0
 66 65  1  0
 67 61  1  0
 67 60  1  0
 68 62  1  0
 68 58  1  0
 69 58  2  0
 70 72  2  0
 71 70  1  0
 73 71  1  0
 74 83  2  0
 74 79  1  0
 75 71  1  0
 75 79  1  0
 76 75  1  0
 77 78  1  0
 77 76  1  0
 78 74  1  0
 79 80  2  0
 80 81  1  0
 82 81  2  0
 83 82  1  0
 84 58  1  0
 84 94  1  0
 85 88  1  0
 85 84  1  0
 86 85  1  0
 87 86  2  0
 90 89  1  0
 90 86  1  0
 90 92  1  0
 92 91  1  0
 93 92  1  0
 94 95  1  1
 94 97  1  0
 96 94  1  0
M  ISO  4  13 100  21 100  56 101  57 101
M  END
>  <TORSDO>  (31) 
F 23

>  <SCORE>  (31) 
-5.751

>  <name>  (31) 
30

>  <ligand_id>  (31) 
30

>  <original_smiles>  (31) 
[H]c1c([H])c([H])c2c(c1[H])C([H])([H])C([H])([H])C([H])([H])C2([H])N([H])C(=O)C1([H])N(C(=O)C([H])(N([H])C(=O)C([H])(N([H])C([H])([H])[H])C([H])([H])[H])C(C([H])([H])[H])(C([H])([H])[H])C([H])([H])[H])C([H])([H])c2c([H])c(OC([H])([H])C([H])([H])C([H])([H])C([H])([H])C([H])(N([H])c3c([H])c(C([H])([H])[H])c(C([H])([H])N([H])C(=O)N4C([H])([H])C([H])([H])C([H])([H])C([H])(n5nc(-c6c([H])c([H])c(Oc7c([H])c([H])c(F)c([H])c7F)c([H])c6[H])c(C(=O)N([H])[H])c5N([H])[H])C4([H])[H])c(C([H])([H])[H])c3Cl)C([H])([H])[H])c([H])c([H])c2C1([H])[H]

>  <smiles>  (31) 
[H]c1c([H])c([H])c2c(c1[H])C([H])([H])C([H])([H])C([H])([H])C2([H])N([H])C(=O)C1([H])N(C(=O)C([H])(N([H])C(=O)C([H])(N([H])C([H])([H])[H])C([H])([H])[H])C(C([H])([H])[H])(C([H])([H])[H])C([H])([H])[H])C([H])([H])c2c([H])c(OC([H])([H])C([H])([H])C([H])([H])C([H])([H])C([H])(N([H])c3c([H])c(C([H])([H])[H])c(C([H])([H])N([H])C(=O)N4C([H])([H])C([H])([H])C([H])([H])C([H])(n5nc(-c6c([H])c([H])c(Oc7c([H])c([H])c(F)c([H])c7F)c([H])c6[H])c(C(=O)N([H])[H])c5N([H])[H])C4([H])[H])c(C([H])([H])[H])c3Cl)C([H])([H])[H])c([H])c([H])c2C1([H])[H]

$$$$
31:0:0
     RDKit          3D

 90 98  0  0  1  0  0  0  0  0999 V2000
  -30.4600  -20.5440   19.5360 C   0  0  0  0  0  3  0  0  0  0  0  0
  -29.2390  -21.3260   19.7100 C   0  0  0  0  0  0  0  0  0  0  0  0
  -28.2030  -20.3370   19.9850 C   0  0  0  0  0  0  0  0  0  0  0  0
  -29.6270  -18.0900   19.8970 C   0  0  0  0  0  0  0  0  0  0  0  0
  -30.6580  -19.0740   19.6140 C   0  0  0  0  0  0  0  0  0  0  0  0
  -28.3920  -18.8580   20.0600 C   0  0  0  0  0  0  0  0  0  0  0  0
  -26.8080  -20.8810   20.2460 C   0  0  0  0  0  1  0  0  0  0  0  0
  -32.2610  -18.5010   19.3370 Cl  0  0  0  0  0  0  0  0  0  0  0  0
  -26.9940  -17.8980   20.4090 Cl  0  0  0  0  0  0  0  0  0  0  0  0
  -30.4540  -15.2810   19.7470 C   0  0  0  0  0  0  0  0  0  0  0  0
  -30.3370  -12.8480   18.8850 C   0  0  0  0  0  2  0  0  0  0  0  0
  -29.3230  -12.6960   17.7230 C   0  0  0  0  0  2  0  0  0  0  0  0
  -27.8990  -12.4660   18.2610 C   0  0  0  0  0  2  0  0  0  0  0  0
  -27.5560  -13.4260   19.4280 C   0  0  0  0  0  3  0  0  0  0  0  0
  -28.6860  -13.5200   20.4760 C   0  0  0  0  0  2  0  0  0  0  0  0
  -29.8890  -13.9820   19.7660 N   0  0  0  0  0  0  0  0  0  0  0  0
  -31.6380  -15.3070   19.3890 O   0  0  0  0  0  0  0  0  0  0  0  0
  -29.6510  -16.4840   19.9830 N   0  0  0  0  0  0  0  0  0  0  0  0
  -28.7560  -16.1740   20.3300 H   0  0  0  0  0  0  0  0  0  0  0  0
  -25.2640  -14.0270   20.3790 C   0  0  0  0  0  0  0  0  0  0  0  0
  -24.2130  -13.2700   20.8090 C   0  0  0  0  0  0  0  0  0  0  0  0
  -24.6350  -11.9090   20.6990 C   0  0  0  0  0  0  0  0  0  0  0  0
  -26.2600  -13.1330   20.0270 N   0  0  0  0  0  0  0  0  0  0  0  0
  -25.8970  -11.8500   20.2840 N   0  0  0  0  0  0  0  0  0  0  0  0
  -23.8860  -10.6620   20.9050 C   0  0  0  0  0  0  0  0  0  0  0  0
  -24.3380   -9.6660   21.7970 C   0  0  0  0  0  3  0  0  0  0  0  0
  -23.5870   -8.4870   21.9940 C   0  0  0  0  0  3  0  0  0  0  0  0
  -22.3690   -8.2960   21.2970 C   0  0  0  0  0  0  0  0  0  0  0  0
  -21.9350   -9.2810   20.3940 C   0  0  0  0  0  3  0  0  0  0  0  0
  -22.6850  -10.4510   20.1940 C   0  0  0  0  0  3  0  0  0  0  0  0
  -21.5870   -7.1710   21.4060 O   0  0  0  0  0  0  0  0  0  0  0  0
  -21.5550   -6.4250   22.5570 C   0  0  0  0  0  0  0  0  0  0  0  0
  -21.1830   -6.9840   23.7980 C   0  0  0  0  0  3  0  0  0  0  0  0
  -21.0970   -6.1650   24.9430 C   0  0  0  0  0  3  0  0  0  0  0  0
  -21.3730   -4.7880   24.8460 C   0  0  0  0  0  0  0  0  0  0  0  0
  -21.7400   -4.2290   23.6100 C   0  0  0  0  0  3  0  0  0  0  0  0
  -21.8280   -5.0440   22.4680 C   0  0  0  0  0  0  0  0  0  0  0  0
  -22.1600   -4.4960   21.2750 F   0  0  0  0  0  0  0  0  0  0  0  0
  -21.2830   -4.0010   25.9430 F   0  0  0  0  0  0  0  0  0  0  0  0
  -22.8570  -13.7770   21.2030 C   0  0  0  0  0  0  0  0  0  0  0  0
  -22.1830  -13.0830   22.1140 N   0  0  0  0  0  0  0  0  0  0  0  0
  -22.4070  -14.8250   20.7400 O   0  0  0  0  0  0  0  0  0  0  0  0
  -22.5620  -12.2360   22.5090 H   0  0  0  0  0  0  0  0  0  0  0  0
  -21.2750  -13.4050   22.4200 H   0  0  0  0  0  0  0  0  0  0  0  0
  -25.4470  -15.3970   20.2270 N   0  0  0  0  0  0  0  0  0  0  0  0
  -24.7120  -16.0620   20.4450 H   0  0  0  0  0  0  0  0  0  0  0  0
  -26.2770  -15.8400   19.8600 H   0  0  0  0  0  0  0  0  0  0  0  0
  -29.2040  -23.0630   19.8330 C   0  0  0  0  0  3  0  0  0  0  0  0
  -28.1470  -24.4160   19.3850 C   0  0  0  0  0  3  0  0  0  0  0  0
  -28.2950  -26.0210   19.6300 O   0  0  0  0  0  0  0  0  0  0  0  0
  -24.5230  -31.5980   22.9430 C   0  0  0  0  0  0  0  0  0  0  0  0
  -27.2210  -27.0390   19.6310 C   0  0  0  0  0  0  0  0  0  0  0  0
  -23.3550  -30.2480   21.2460 C   0  0  0  0  0  3  0  0  0  0  0  0
  -24.8410  -28.7870   19.7180 C   0  0  0  0  0  0  0  0  0  0  0  0
  -25.9050  -30.5830   21.0700 C   0  0  0  0  0  2  0  0  0  0  0  0
  -26.0190  -29.2190   20.3390 C   0  0  0  0  0  0  0  0  0  0  0  0
  -27.2050  -28.3660   20.2710 C   0  0  0  0  0  3  0  0  0  0  0  0
  -26.0070  -26.7430   18.9740 C   0  0  0  0  0  3  0  0  0  0  0  0
  -24.8550  -27.5700   19.0160 C   0  0  0  0  0  3  0  0  0  0  0  0
  -23.5870  -29.6500   19.8310 C   0  0  0  0  0  2  0  0  0  0  0  0
  -24.6150  -30.8330   21.8080 N   0  0  0  0  0  0  0  0  0  0  0  0
  -23.4330  -31.8150   23.4950 O   0  0  0  0  0  0  0  0  0  0  0  0
  -22.7180  -29.1740   22.1650 C   0  0  0  0  0  0  0  0  0  0  0  0
  -21.3880  -28.9850   22.0720 N   0  0  0  0  0  0  0  0  0  0  0  0
  -23.4250  -28.5120   22.9300 O   0  0  0  0  0  0  0  0  0  0  0  0
  -20.8700  -29.5720   21.4330 H   0  0  0  0  0  0  0  0  0  0  0  0
  -18.0470  -27.6950   22.6350 C   0  0  0  0  0  0  0  0  0  0  0  0
  -20.6120  -27.9810   22.8060 C   0  0  0  0  0  3  0  0  0  0  0  0
  -20.7060  -26.5960   22.1220 C   0  0  0  0  0  2  0  0  0  0  0  0
  -19.5630  -26.3330   21.1350 C   0  0  0  0  0  2  0  0  0  0  0  0
  -18.2100  -26.4050   21.8490 C   0  0  0  0  0  2  0  0  0  0  0  0
  -19.1730  -28.4430   23.0700 C   0  0  0  0  0  0  0  0  0  0  0  0
  -18.9620  -29.6500   23.7720 C   0  0  0  0  0  3  0  0  0  0  0  0
  -17.6600  -30.1110   24.0380 C   0  0  0  0  0  3  0  0  0  0  0  0
  -16.5490  -29.3610   23.6150 C   0  0  0  0  0  3  0  0  0  0  0  0
  -16.7430  -28.1540   22.9200 C   0  0  0  0  0  3  0  0  0  0  0  0
  -25.7800  -32.2530   23.5910 C   0  0  0  0  0  3  0  0  0  0  0  0
  -25.4170  -33.6200   24.0050 N   0  0  0  0  0  0  0  0  0  0  0  0
  -25.6910  -34.7320   23.3100 C   0  0  0  0  0  0  0  0  0  0  0  0
  -26.3420  -34.7180   22.2620 O   0  0  0  0  0  0  0  0  0  0  0  0
  -24.8330  -33.7010   24.8240 H   0  0  0  0  0  0  0  0  0  0  0  0
  -23.8780  -36.4700   23.1230 C   0  0  0  0  0  1  0  0  0  0  0  0
  -25.1650  -36.0710   23.8640 C   0  0  0  0  0  3  0  0  0  0  0  0
  -27.2870  -37.0090   24.6730 C   0  0  0  0  0  1  0  0  0  0  0  0
  -26.1480  -37.1750   23.7740 N   0  0  0  0  0  0  0  0  0  0  0  0
  -25.7070  -38.0660   23.9840 H   0  0  0  0  0  0  0  0  0  0  0  0
  -26.3350  -31.4410   24.8260 C   0  0  1  0  0  0  0  0  0  0  0  0
  -25.2640  -31.1190   25.8930 C   0  0  0  0  0  1  0  0  0  0  0  0
  -26.9580  -30.1010   24.3700 C   0  0  0  0  0  1  0  0  0  0  0  0
  -27.4670  -32.2410   25.5140 C   0  0  0  0  0  1  0  0  0  0  0  0
  1  5  2  0
  1  2  1  0
  2 48  1  0
  2  3  2  0
  3  6  1  0
  3  7  1  0
  4 18  1  0
  4  6  2  0
  5  4  1  0
  6  9  1  0
  8  5  1  0
 10 16  1  0
 10 18  1  0
 11 16  1  0
 12 13  1  0
 12 11  1  0
 14 13  1  0
 14 23  1  0
 14 15  1  0
 16 15  1  0
 17 10  2  0
 18 19  1  0
 20 21  2  0
 21 40  1  0
 22 21  1  0
 22 25  1  0
 23 24  1  0
 23 20  1  0
 24 22  2  0
 25 26  1  0
 26 27  2  0
 28 31  1  0
 28 27  1  0
 29 28  2  0
 30 29  1  0
 30 25  2  0
 31 32  1  0
 32 33  1  0
 33 34  2  0
 35 34  1  0
 35 39  1  0
 36 35  2  0
 37 32  2  0
 37 36  1  0
 38 37  1  0
 40 41  1  0
 41 44  1  0
 41 43  1  0
 42 40  2  0
 45 20  1  0
 45 46  1  0
 47 45  1  0
 49 50  1  0
 49 48  2  0
 50 52  1  0
 51 62  2  0
 52 57  1  0
 53 61  1  0
 53 63  1  0
 54 60  1  0
 54 56  1  0
 55 61  1  0
 56 55  1  0
 57 56  2  0
 58 59  1  0
 58 52  2  0
 59 54  2  0
 60 53  1  0
 61 51  1  0
 63 65  2  0
 64 63  1  0
 66 64  1  0
 67 76  2  0
 67 72  1  0
 68 64  1  0
 68 72  1  0
 69 68  1  0
 70 71  1  0
 70 69  1  0
 71 67  1  0
 72 73  2  0
 73 74  1  0
 75 74  2  0
 76 75  1  0
 77 51  1  0
 77 78  1  0
 77 87  1  0
 78 81  1  0
 79 83  1  0
 79 78  1  0
 80 79  2  0
 83 82  1  0
 85 83  1  0
 85 86  1  0
 85 84  1  0
 87 90  1  1
 87 88  1  0
 89 87  1  0
M  ISO  4  10 100  18 100  49 101  50 101
M  END
>  <TORSDO>  (32) 
F 18

>  <SCORE>  (32) 
-13.952

>  <name>  (32) 
31

>  <ligand_id>  (32) 
31

>  <original_smiles>  (32) 
[H]c1c([H])c([H])c2c(c1[H])C([H])([H])C([H])([H])C([H])([H])C2([H])N([H])C(=O)C1([H])N(C(=O)C([H])(N([H])C(=O)C([H])(N([H])C([H])([H])[H])C([H])([H])[H])C(C([H])([H])[H])(C([H])([H])[H])C([H])([H])[H])C([H])([H])c2c([H])c(OC([H])([H])C([H])([H])c3c([H])c(Cl)c(N([H])C(=O)N4C([H])([H])C([H])([H])C([H])([H])C([H])(n5nc(-c6c([H])c([H])c(Oc7c([H])c([H])c(F)c([H])c7F)c([H])c6[H])c(C(=O)N([H])[H])c5N([H])[H])C4([H])[H])c(Cl)c3C([H])([H])[H])c([H])c([H])c2C1([H])[H]

>  <smiles>  (32) 
[H]c1c([H])c([H])c2c(c1[H])C([H])([H])C([H])([H])C([H])([H])C2([H])N([H])C(=O)C1([H])N(C(=O)C([H])(N([H])C(=O)C([H])(N([H])C([H])([H])[H])C([H])([H])[H])C(C([H])([H])[H])(C([H])([H])[H])C([H])([H])[H])C([H])([H])c2c([H])c(OC([H])([H])C([H])([H])c3c([H])c(Cl)c(N([H])C(=O)N4C([H])([H])C([H])([H])C([H])([H])C([H])(n5nc(-c6c([H])c([H])c(Oc7c([H])c([H])c(F)c([H])c7F)c([H])c6[H])c(C(=O)N([H])[H])c5N([H])[H])C4([H])[H])c(Cl)c3C([H])([H])[H])c([H])c([H])c2C1([H])[H]

$$$$
32:0:0
     RDKit          3D

 94102  0  0  1  0  0  0  0  0999 V2000
  -31.3520  -18.9540   22.4320 C   0  0  0  0  0  3  0  0  0  0  0  0
  -31.0140  -18.9350   21.0630 C   0  0  0  0  0  0  0  0  0  0  0  0
  -30.1880  -16.6390   21.3290 C   0  0  0  0  0  0  0  0  0  0  0  0
  -31.1030  -17.8400   23.2520 C   0  0  0  0  0  0  0  0  0  0  0  0
  -30.4220  -17.7730   20.5060 C   0  0  0  0  0  0  0  0  0  0  0  0
  -30.5150  -16.6800   22.7040 C   0  0  0  0  0  0  0  0  0  0  0  0
  -31.5240  -17.9200   24.9280 Cl  0  0  0  0  0  0  0  0  0  0  0  0
  -29.9410  -17.7610   18.8390 Cl  0  0  0  0  0  0  0  0  0  0  0  0
  -30.1940  -15.3070   23.7140 Cl  0  0  0  0  0  0  0  0  0  0  0  0
  -30.0360  -14.7200   19.8120 C   0  0  0  0  0  0  0  0  0  0  0  0
  -29.6810  -12.6660   18.4900 C   0  0  0  0  0  2  0  0  0  0  0  0
  -28.5910  -12.8820   17.4230 C   0  0  0  0  0  2  0  0  0  0  0  0
  -27.1900  -12.6220   18.0080 C   0  0  0  0  0  2  0  0  0  0  0  0
  -26.9580  -13.3650   19.3510 C   0  0  0  0  0  3  0  0  0  0  0  0
  -28.1420  -13.1290   20.3140 C   0  0  0  0  0  2  0  0  0  0  0  0
  -29.3840  -13.5420   19.6320 N   0  0  0  0  0  0  0  0  0  0  0  0
  -30.9820  -15.0860   19.1090 O   0  0  0  0  0  0  0  0  0  0  0  0
  -29.5700  -15.4670   20.8200 N   0  0  0  0  0  0  0  0  0  0  0  0
  -28.8770  -15.0280   21.4060 H   0  0  0  0  0  0  0  0  0  0  0  0
  -24.5980  -13.7750   20.2980 C   0  0  0  0  0  0  0  0  0  0  0  0
  -23.6390  -12.9190   20.7670 C   0  0  0  0  0  0  0  0  0  0  0  0
  -24.2030  -11.6090   20.6780 C   0  0  0  0  0  0  0  0  0  0  0  0
  -25.6840  -12.9840   19.9580 N   0  0  0  0  0  0  0  0  0  0  0  0
  -25.4540  -11.6750   20.2400 N   0  0  0  0  0  0  0  0  0  0  0  0
  -23.6060  -10.2910   20.9320 C   0  0  0  0  0  0  0  0  0  0  0  0
  -24.1370   -9.4150   21.9050 C   0  0  0  0  0  3  0  0  0  0  0  0
  -23.5350   -8.1610   22.1420 C   0  0  0  0  0  3  0  0  0  0  0  0
  -22.3900   -7.7730   21.4070 C   0  0  0  0  0  0  0  0  0  0  0  0
  -21.8790   -8.6390   20.4240 C   0  0  0  0  0  3  0  0  0  0  0  0
  -22.4830   -9.8850   20.1850 C   0  0  0  0  0  3  0  0  0  0  0  0
  -21.7530   -6.5630   21.5520 O   0  0  0  0  0  0  0  0  0  0  0  0
  -21.7000   -5.9190   22.7620 C   0  0  0  0  0  0  0  0  0  0  0  0
  -21.1380   -6.5260   23.9060 C   0  0  0  0  0  3  0  0  0  0  0  0
  -21.0410   -5.8020   25.1100 C   0  0  0  0  0  3  0  0  0  0  0  0
  -21.4940   -4.4700   25.1720 C   0  0  0  0  0  0  0  0  0  0  0  0
  -22.0490   -3.8620   24.0320 C   0  0  0  0  0  3  0  0  0  0  0  0
  -22.1490   -4.5830   22.8300 C   0  0  0  0  0  0  0  0  0  0  0  0
  -22.6650   -3.9860   21.7290 F   0  0  0  0  0  0  0  0  0  0  0  0
  -21.3940   -3.7710   26.3260 F   0  0  0  0  0  0  0  0  0  0  0  0
  -22.2420  -13.2800   21.1850 C   0  0  0  0  0  0  0  0  0  0  0  0
  -21.6850  -12.5570   22.1500 N   0  0  0  0  0  0  0  0  0  0  0  0
  -21.6550  -14.2390   20.6890 O   0  0  0  0  0  0  0  0  0  0  0  0
  -22.1750  -11.7820   22.5730 H   0  0  0  0  0  0  0  0  0  0  0  0
  -20.7550  -12.7830   22.4730 H   0  0  0  0  0  0  0  0  0  0  0  0
  -24.6320  -15.1550   20.1170 N   0  0  0  0  0  0  0  0  0  0  0  0
  -23.8320  -15.7480   20.3090 H   0  0  0  0  0  0  0  0  0  0  0  0
  -25.4140  -15.6630   19.7230 H   0  0  0  0  0  0  0  0  0  0  0  0
  -31.2940  -20.1810   20.2300 C   0  0  0  0  0  2  0  0  0  0  0  0
  -30.0380  -21.0360   19.9880 C   0  0  0  0  0  2  0  0  0  0  0  0
  -30.3560  -22.4370   19.4340 C   0  0  0  0  0  2  0  0  0  0  0  0
  -29.0860  -23.2100   19.0350 C   0  0  0  0  0  2  0  0  0  0  0  0
  -29.3060  -24.7200   18.8310 C   0  0  0  0  0  2  0  0  0  0  0  0
  -28.0040  -25.4300   18.4360 C   0  0  0  0  0  2  0  0  0  0  0  0
  -28.0710  -26.8340   18.6890 O   0  0  0  0  0  0  0  0  0  0  0  0
  -24.3860  -31.2140   22.9050 C   0  0  0  0  0  0  0  0  0  0  0  0
  -26.8700  -27.4820   18.8950 C   0  0  0  0  0  0  0  0  0  0  0  0
  -23.0780  -30.0660   21.1470 C   0  0  0  0  0  3  0  0  0  0  0  0
  -24.4410  -28.8560   19.3680 C   0  0  0  0  0  0  0  0  0  0  0  0
  -25.5660  -30.5570   20.8120 C   0  0  0  0  0  2  0  0  0  0  0  0
  -25.6320  -29.3220   19.9380 C   0  0  0  0  0  0  0  0  0  0  0  0
  -26.8480  -28.6440   19.6990 C   0  0  0  0  0  3  0  0  0  0  0  0
  -25.6560  -27.0270   18.3260 C   0  0  0  0  0  3  0  0  0  0  0  0
  -24.4470  -27.7070   18.5600 C   0  0  0  0  0  3  0  0  0  0  0  0
  -23.1840  -29.6410   19.6590 C   0  0  0  0  0  2  0  0  0  0  0  0
  -24.3670  -30.6170   21.6800 N   0  0  0  0  0  0  0  0  0  0  0  0
  -23.3490  -31.3460   23.5700 O   0  0  0  0  0  0  0  0  0  0  0  0
  -22.5400  -28.8690   21.9650 C   0  0  0  0  0  0  0  0  0  0  0  0
  -21.2330  -28.5920   21.8270 N   0  0  0  0  0  0  0  0  0  0  0  0
  -23.2920  -28.1990   22.6770 O   0  0  0  0  0  0  0  0  0  0  0  0
  -20.6830  -29.1930   21.2290 H   0  0  0  0  0  0  0  0  0  0  0  0
  -18.0010  -27.0050   22.1170 C   0  0  0  0  0  0  0  0  0  0  0  0
  -20.5150  -27.4920   22.4680 C   0  0  0  0  0  3  0  0  0  0  0  0
  -20.7720  -26.1560   21.7350 C   0  0  0  0  0  2  0  0  0  0  0  0
  -19.7190  -25.8390   20.6680 C   0  0  0  0  0  2  0  0  0  0  0  0
  -18.3240  -25.7670   21.2960 C   0  0  0  0  0  2  0  0  0  0  0  0
  -19.0300  -27.8220   22.6530 C   0  0  0  0  0  0  0  0  0  0  0  0
  -18.6750  -28.9810   23.3780 C   0  0  0  0  0  3  0  0  0  0  0  0
  -17.3240  -29.3230   23.5730 C   0  0  0  0  0  3  0  0  0  0  0  0
  -16.3090  -28.5000   23.0530 C   0  0  0  0  0  3  0  0  0  0  0  0
  -16.6490  -27.3420   22.3310 C   0  0  0  0  0  3  0  0  0  0  0  0
  -25.7050  -31.7790   23.5180 C   0  0  0  0  0  3  0  0  0  0  0  0
  -25.4300  -33.1500   23.9700 N   0  0  0  0  0  0  0  0  0  0  0  0
  -25.7440  -34.2540   23.2810 C   0  0  0  0  0  0  0  0  0  0  0  0
  -26.3700  -34.2260   22.2170 O   0  0  0  0  0  0  0  0  0  0  0  0
  -24.8730  -33.2470   24.8070 H   0  0  0  0  0  0  0  0  0  0  0  0
  -24.0270  -36.0840   23.1350 C   0  0  0  0  0  1  0  0  0  0  0  0
  -25.2920  -35.6070   23.8640 C   0  0  0  0  0  3  0  0  0  0  0  0
  -27.4650  -36.4050   24.6820 C   0  0  0  0  0  1  0  0  0  0  0  0
  -26.3330  -36.6550   23.7940 N   0  0  0  0  0  0  0  0  0  0  0  0
  -25.9440  -37.5650   24.0260 H   0  0  0  0  0  0  0  0  0  0  0  0
  -26.2660  -30.9020   24.7040 C   0  0  1  0  0  0  0  0  0  0  0  0
  -25.2090  -30.5640   25.7810 C   0  0  0  0  0  1  0  0  0  0  0  0
  -26.8400  -29.5690   24.1710 C   0  0  0  0  0  1  0  0  0  0  0  0
  -27.4350  -31.6420   25.3960 C   0  0  0  0  0  1  0  0  0  0  0  0
  1  4  1  0
  2  1  2  0
  3  6  1  0
  4  7  1  0
  5  2  1  0
  5  3  2  0
  6  4  2  0
  6  9  1  0
  8  5  1  0
 10 18  1  0
 11 16  1  0
 12 13  1  0
 12 11  1  0
 14 13  1  0
 14 23  1  0
 14 15  1  0
 16 10  1  0
 16 15  1  0
 17 10  2  0
 18  3  1  0
 18 19  1  0
 20 21  2  0
 21 40  1  0
 22 21  1  0
 22 25  1  0
 23 24  1  0
 23 20  1  0
 24 22  2  0
 25 26  1  0
 26 27  2  0
 28 31  1  0
 28 27  1  0
 29 28  2  0
 30 29  1  0
 30 25  2  0
 31 32  1  0
 32 37  2  0
 32 33  1  0
 33 34  2  0
 34 35  1  0
 35 39  1  0
 36 35  2  0
 37 36  1  0
 38 37  1  0
 40 41  1  0
 41 44  1  0
 41 43  1  0
 42 40  2  0
 45 20  1  0
 45 46  1  0
 47 45  1  0
 48  2  1  0
 49 48  1  0
 50 49  1  0
 51 50  1  0
 52 51  1  0
 53 54  1  0
 53 52  1  0
 54 56  1  0
 55 66  2  0
 56 61  1  0
 57 65  1  0
 57 67  1  0
 58 64  1  0
 58 60  1  0
 59 65  1  0
 60 59  1  0
 61 60  2  0
 62 63  1  0
 62 56  2  0
 63 58  2  0
 64 57  1  0
 65 55  1  0
 67 69  2  0
 68 67  1  0
 70 68  1  0
 71 80  2  0
 71 76  1  0
 72 68  1  0
 72 76  1  0
 73 72  1  0
 74 75  1  0
 74 73  1  0
 75 71  1  0
 76 77  2  0
 77 78  1  0
 79 78  2  0
 80 79  1  0
 81 55  1  0
 81 82  1  0
 81 91  1  0
 82 85  1  0
 83 87  1  0
 83 82  1  0
 84 83  2  0
 87 86  1  0
 89 87  1  0
 89 90  1  0
 89 88  1  0
 91 94  1  1
 91 92  1  0
 93 91  1  0
M  ISO  4  10 100  18 100  53 101  54 101
M  END
>  <TORSDO>  (33) 
F 22

>  <SCORE>  (33) 
-2.667

>  <name>  (33) 
32

>  <ligand_id>  (33) 
32

>  <original_smiles>  (33) 
[H]c1c([H])c([H])c2c(c1[H])C([H])([H])C([H])([H])C([H])([H])C2([H])N([H])C(=O)C1([H])N(C(=O)C([H])(N([H])C(=O)C([H])(N([H])C([H])([H])[H])C([H])([H])[H])C(C([H])([H])[H])(C([H])([H])[H])C([H])([H])[H])C([H])([H])c2c([H])c(OC([H])([H])C([H])([H])C([H])([H])C([H])([H])C([H])([H])C([H])([H])c3c([H])c(Cl)c(Cl)c(N([H])C(=O)N4C([H])([H])C([H])([H])C([H])([H])C([H])(n5nc(-c6c([H])c([H])c(Oc7c([H])c([H])c(F)c([H])c7F)c([H])c6[H])c(C(=O)N([H])[H])c5N([H])[H])C4([H])[H])c3Cl)c([H])c([H])c2C1([H])[H]

>  <smiles>  (33) 
[H]c1c([H])c([H])c2c(c1[H])C([H])([H])C([H])([H])C([H])([H])C2([H])N([H])C(=O)C1([H])N(C(=O)C([H])(N([H])C(=O)C([H])(N([H])C([H])([H])[H])C([H])([H])[H])C(C([H])([H])[H])(C([H])([H])[H])C([H])([H])[H])C([H])([H])c2c([H])c(OC([H])([H])C([H])([H])C([H])([H])C([H])([H])C([H])([H])C([H])([H])c3c([H])c(Cl)c(Cl)c(N([H])C(=O)N4C([H])([H])C([H])([H])C([H])([H])C([H])(n5nc(-c6c([H])c([H])c(Oc7c([H])c([H])c(F)c([H])c7F)c([H])c6[H])c(C(=O)N([H])[H])c5N([H])[H])C4([H])[H])c3Cl)c([H])c([H])c2C1([H])[H]

$$$$
33:0:0
     RDKit          3D

 93101  0  0  1  0  0  0  0  0999 V2000
  -29.8140  -21.2880   21.5610 C   0  0  0  0  0  3  0  0  0  0  0  0
  -29.1930  -22.0900   20.5370 C   0  0  0  0  0  0  0  0  0  0  0  0
  -29.7030  -19.0500   20.3730 C   0  0  0  0  0  0  0  0  0  0  0  0
  -30.0640  -19.8670   21.4910 C   0  0  0  0  0  0  0  0  0  0  0  0
  -28.7400  -21.2520   19.4580 C   0  0  0  0  0  0  0  0  0  0  0  0
  -28.9850  -19.8120   19.3820 C   0  0  0  0  0  0  0  0  0  0  0  0
  -30.9350  -19.1530   22.8000 Cl  0  0  0  0  0  0  0  0  0  0  0  0
  -27.9230  -22.0140   18.1360 Cl  0  0  0  0  0  0  0  0  0  0  0  0
  -28.4540  -18.9670   17.9660 Cl  0  0  0  0  0  0  0  0  0  0  0  0
  -30.4360  -24.1130   19.6150 C   0  0  0  0  0  1  0  0  0  0  0  0
  -29.6740  -24.2220   21.9710 C   0  0  0  0  0  1  0  0  0  0  0  0
  -29.2680  -23.7490   20.5560 C   0  0  2  0  0  0  0  0  0  0  0  0
  -28.0520  -24.8010   20.1450 C   0  0  0  0  0  2  0  0  0  0  0  0
  -28.2450  -26.3230   20.2530 O   0  0  0  0  0  0  0  0  0  0  0  0
  -24.5610  -31.9120   23.2010 C   0  0  0  0  0  0  0  0  0  0  0  0
  -27.1520  -27.2410   20.1880 C   0  0  0  0  0  0  0  0  0  0  0  0
  -23.3540  -30.4990   21.5780 C   0  0  0  0  0  3  0  0  0  0  0  0
  -24.8010  -28.9250   20.1590 C   0  0  0  0  0  0  0  0  0  0  0  0
  -25.9000  -30.7930   21.3890 C   0  0  0  0  0  2  0  0  0  0  0  0
  -25.9790  -29.4010   20.7480 C   0  0  0  0  0  0  0  0  0  0  0  0
  -27.1560  -28.5750   20.7440 C   0  0  0  0  0  3  0  0  0  0  0  0
  -25.9470  -26.8450   19.5680 C   0  0  0  0  0  3  0  0  0  0  0  0
  -24.7940  -27.6580   19.5550 C   0  0  0  0  0  3  0  0  0  0  0  0
  -23.5690  -29.8120   20.2030 C   0  0  0  0  0  2  0  0  0  0  0  0
  -24.6250  -31.0900   22.1110 N   0  0  0  0  0  0  0  0  0  0  0  0
  -23.4780  -32.1950   23.7370 O   0  0  0  0  0  0  0  0  0  0  0  0
  -22.6910  -29.4950   22.5520 C   0  0  0  0  0  0  0  0  0  0  0  0
  -21.3640  -29.3090   22.4300 N   0  0  0  0  0  0  0  0  0  0  0  0
  -23.3710  -28.8840   23.3820 O   0  0  0  0  0  0  0  0  0  0  0  0
  -20.8740  -29.8520   21.7330 H   0  0  0  0  0  0  0  0  0  0  0  0
  -17.9930  -28.0940   22.9530 C   0  0  0  0  0  0  0  0  0  0  0  0
  -20.5510  -28.3750   23.2120 C   0  0  0  0  0  3  0  0  0  0  0  0
  -20.6610  -26.9370   22.6520 C   0  0  0  0  0  2  0  0  0  0  0  0
  -19.5590  -26.5970   21.6440 C   0  0  0  0  0  2  0  0  0  0  0  0
  -18.1780  -26.7400   22.2890 C   0  0  0  0  0  2  0  0  0  0  0  0
  -19.1080  -28.8690   23.3720 C   0  0  0  0  0  0  0  0  0  0  0  0
  -18.8820  -30.1340   23.9550 C   0  0  0  0  0  3  0  0  0  0  0  0
  -17.5730  -30.6270   24.1190 C   0  0  0  0  0  3  0  0  0  0  0  0
  -16.4740  -29.8510   23.7140 C   0  0  0  0  0  3  0  0  0  0  0  0
  -16.6850  -28.5860   23.1380 C   0  0  0  0  0  3  0  0  0  0  0  0
  -25.8420  -32.5560   23.8150 C   0  0  0  0  0  3  0  0  0  0  0  0
  -26.3750  -31.7880   25.0860 C   0  0  1  0  0  0  0  0  0  0  0  0
  -25.2920  -31.5380   26.1600 C   0  0  0  0  0  1  0  0  0  0  0  0
  -26.9690  -30.4170   24.6900 C   0  0  0  0  0  1  0  0  0  0  0  0
  -27.5230  -32.5920   25.7400 C   0  0  0  0  0  1  0  0  0  0  0  0
  -25.5250  -33.9520   24.1530 N   0  0  0  0  0  0  0  0  0  0  0  0
  -25.8350  -35.0110   23.3930 C   0  0  0  0  0  0  0  0  0  0  0  0
  -26.4850  -34.9160   22.3490 O   0  0  0  0  0  0  0  0  0  0  0  0
  -24.9440  -34.0990   24.9650 H   0  0  0  0  0  0  0  0  0  0  0  0
  -24.0880  -36.7940   23.0780 C   0  0  0  0  0  1  0  0  0  0  0  0
  -25.3450  -36.3940   23.8660 C   0  0  0  0  0  3  0  0  0  0  0  0
  -27.4840  -37.2940   24.6710 C   0  0  0  0  0  1  0  0  0  0  0  0
  -26.3690  -37.4550   23.7410 N   0  0  0  0  0  0  0  0  0  0  0  0
  -25.9580  -38.3710   23.8960 H   0  0  0  0  0  0  0  0  0  0  0  0
  -30.3560  -17.5650   20.1090 C   0  0  0  0  0  2  0  0  0  0  0  0
  -30.5820  -14.9290   20.2640 C   0  0  0  0  0  0  0  0  0  0  0  0
  -30.3770  -12.6200   19.2850 C   0  0  0  0  0  2  0  0  0  0  0  0
  -29.4240  -12.6390   18.0700 C   0  0  0  0  0  2  0  0  0  0  0  0
  -27.9700  -12.4350   18.5310 C   0  0  0  0  0  2  0  0  0  0  0  0
  -27.5960  -13.3380   19.7370 C   0  0  0  0  0  3  0  0  0  0  0  0
  -28.6740  -13.3150   20.8410 C   0  0  0  0  0  2  0  0  0  0  0  0
  -29.9450  -13.6960   20.2160 N   0  0  0  0  0  0  0  0  0  0  0  0
  -31.7700  -14.9790   19.9290 O   0  0  0  0  0  0  0  0  0  0  0  0
  -29.8620  -16.1250   20.4520 N   0  0  0  0  0  0  0  0  0  0  0  0
  -28.8890  -16.0290   20.7030 H   0  0  0  0  0  0  0  0  0  0  0  0
  -25.2300  -13.9010   20.5360 C   0  0  0  0  0  0  0  0  0  0  0  0
  -24.1750  -13.1170   20.9130 C   0  0  0  0  0  0  0  0  0  0  0  0
  -24.6400  -11.7680   20.8440 C   0  0  0  0  0  0  0  0  0  0  0  0
  -26.2680  -13.0300   20.2550 N   0  0  0  0  0  0  0  0  0  0  0  0
  -25.9240  -11.7400   20.5070 N   0  0  0  0  0  0  0  0  0  0  0  0
  -23.9200  -10.5010   21.0250 C   0  0  0  0  0  0  0  0  0  0  0  0
  -24.3430   -9.5360   21.9670 C   0  0  0  0  0  3  0  0  0  0  0  0
  -23.6190   -8.3360   22.1340 C   0  0  0  0  0  3  0  0  0  0  0  0
  -22.4610   -8.0910   21.3600 C   0  0  0  0  0  0  0  0  0  0  0  0
  -22.0580   -9.0440   20.4080 C   0  0  0  0  0  3  0  0  0  0  0  0
  -22.7810  -10.2370   20.2380 C   0  0  0  0  0  3  0  0  0  0  0  0
  -21.7110   -6.9420   21.4360 O   0  0  0  0  0  0  0  0  0  0  0  0
  -21.6080   -6.2270   22.6030 C   0  0  0  0  0  0  0  0  0  0  0  0
  -21.0820   -6.7970   23.7830 C   0  0  0  0  0  3  0  0  0  0  0  0
  -20.9290   -6.0070   24.9380 C   0  0  0  0  0  3  0  0  0  0  0  0
  -21.2920   -4.6470   24.9160 C   0  0  0  0  0  0  0  0  0  0  0  0
  -21.8110   -4.0760   23.7400 C   0  0  0  0  0  3  0  0  0  0  0  0
  -21.9650   -4.8640   22.5860 C   0  0  0  0  0  0  0  0  0  0  0  0
  -22.4480   -4.3040   21.4490 F   0  0  0  0  0  0  0  0  0  0  0  0
  -21.1380   -3.8850   26.0230 F   0  0  0  0  0  0  0  0  0  0  0  0
  -22.7840  -13.5890   21.2230 C   0  0  0  0  0  0  0  0  0  0  0  0
  -22.0710  -12.8710   22.0850 N   0  0  0  0  0  0  0  0  0  0  0  0
  -22.3380  -14.6280   20.7370 O   0  0  0  0  0  0  0  0  0  0  0  0
  -22.4460  -12.0330   22.5030 H   0  0  0  0  0  0  0  0  0  0  0  0
  -21.1380  -13.1690   22.3330 H   0  0  0  0  0  0  0  0  0  0  0  0
  -25.3860  -15.2760   20.3810 N   0  0  0  0  0  0  0  0  0  0  0  0
  -24.6140  -15.9210   20.5060 H   0  0  0  0  0  0  0  0  0  0  0  0
  -26.2160  -15.7240   20.0110 H   0  0  0  0  0  0  0  0  0  0  0  0
  2 12  1  0
  2  1  2  0
  3  4  2  0
  4  1  1  0
  4  7  1  0
  5  2  1  0
  6  5  2  0
  6  3  1  0
  8  5  1  0
  9  6  1  0
 12 10  1  6
 12 11  1  0
 13 14  1  0
 13 12  1  0
 15 26  2  0
 16 14  1  0
 16 21  1  0
 17 25  1  0
 17 27  1  0
 18 24  1  0
 18 20  1  0
 19 25  1  0
 20 19  1  0
 21 20  2  0
 22 16  2  0
 23 22  1  0
 23 18  2  0
 24 17  1  0
 25 15  1  0
 27 29  2  0
 28 27  1  0
 30 28  1  0
 31 40  2  0
 31 36  1  0
 32 28  1  0
 32 36  1  0
 33 32  1  0
 34 35  1  0
 34 33  1  0
 35 31  1  0
 36 37  2  0
 37 38  1  0
 39 38  2  0
 40 39  1  0
 41 15  1  0
 41 46  1  0
 41 42  1  0
 42 45  1  1
 42 43  1  0
 44 42  1  0
 46 49  1  0
 47 51  1  0
 47 46  1  0
 48 47  2  0
 51 50  1  0
 53 51  1  0
 53 54  1  0
 53 52  1  0
 55  3  1  0
 55 64  1  0
 56 64  1  0
 57 62  1  0
 58 59  1  0
 58 57  1  0
 60 59  1  0
 60 69  1  0
 60 61  1  0
 62 56  1  0
 62 61  1  0
 63 56  2  0
 64 65  1  0
 66 67  2  0
 67 86  1  0
 68 67  1  0
 68 71  1  0
 69 70  1  0
 69 66  1  0
 70 68  2  0
 71 72  1  0
 72 73  2  0
 74 77  1  0
 74 73  1  0
 75 74  2  0
 76 75  1  0
 76 71  2  0
 77 78  1  0
 78 79  1  0
 79 80  2  0
 81 80  1  0
 81 85  1  0
 82 81  2  0
 83 78  2  0
 83 82  1  0
 84 83  1  0
 86 87  1  0
 87 90  1  0
 87 89  1  0
 88 86  2  0
 91 92  1  0
 91 66  1  0
 93 91  1  0
M  ISO  4  13 101  14 101  56 100  64 100
M  END
>  <TORSDO>  (34) 
F 19

>  <SCORE>  (34) 
-14.361

>  <name>  (34) 
33

>  <ligand_id>  (34) 
33

>  <original_smiles>  (34) 
[H]c1c([H])c([H])c2c(c1[H])C([H])([H])C([H])([H])C([H])([H])C2([H])N([H])C(=O)C1([H])N(C(=O)C([H])(N([H])C(=O)C([H])(N([H])C([H])([H])[H])C([H])([H])[H])C(C([H])([H])[H])(C([H])([H])[H])C([H])([H])[H])C([H])([H])c2c([H])c(OC([H])([H])C(c3c([H])c(Cl)c(C([H])([H])N([H])C(=O)N4C([H])([H])C([H])([H])C([H])([H])C([H])(n5nc(-c6c([H])c([H])c(Oc7c([H])c([H])c(F)c([H])c7F)c([H])c6[H])c(C(=O)N([H])[H])c5N([H])[H])C4([H])[H])c(Cl)c3Cl)(C([H])([H])[H])C([H])([H])[H])c([H])c([H])c2C1([H])[H]

>  <smiles>  (34) 
[H]c1c([H])c([H])c2c(c1[H])C([H])([H])C([H])([H])C([H])([H])C2([H])N([H])C(=O)C1([H])N(C(=O)C([H])(N([H])C(=O)C([H])(N([H])C([H])([H])[H])C([H])([H])[H])C(C([H])([H])[H])(C([H])([H])[H])C([H])([H])[H])C([H])([H])c2c([H])c(OC([H])([H])C(c3c([H])c(Cl)c(C([H])([H])N([H])C(=O)N4C([H])([H])C([H])([H])C([H])([H])C([H])(n5nc(-c6c([H])c([H])c(Oc7c([H])c([H])c(F)c([H])c7F)c([H])c6[H])c(C(=O)N([H])[H])c5N([H])[H])C4([H])[H])c(Cl)c3Cl)(C([H])([H])[H])C([H])([H])[H])c([H])c([H])c2C1([H])[H]

$$$$
34:0:0
     RDKit          3D

 93 91  0  0  1  0  0  0  0  0999 V2000
  -25.7790  -29.3860   20.6060 C   0  0  0  0  0  2  0  0  0  0  0  0
  -24.6240  -27.6890   21.6920 C   0  0  0  0  0  1  0  0  0  0  0  0
  -24.9800  -26.6320   22.6680 C   0  0  0  0  0  0  0  0  0  0  0  0
  -26.1370  -25.7750   22.3180 C   0  0  0  0  0  0  0  0  0  0  0  0
  -26.9160  -26.1280   21.0300 C   0  0  0  0  0  1  0  0  0  0  0  0
  -24.0180  -26.2870   23.8100 C   0  0  0  0  0  1  0  0  0  0  0  0
  -26.5050  -24.6300   23.2870 C   0  0  0  0  0  1  0  0  0  0  0  0
  -27.1420  -28.6780   19.9960 N   0  0  0  0  0  2  0  0  0  0  0  0
  -27.8160  -24.4040   20.9970 N   0  0  0  0  0  1  0  0  0  0  0  0
  -27.9480  -24.2530   21.9860 H   0  0  0  0  0  0  0  0  0  0  0  0
  -24.3430  -25.8130   20.7560 C   0  0  0  0  0 15  0  0  0  0  0  0
  -24.0160  -25.6260   18.6670 C   0  0  0  0  0 15  0  0  0  0  0  0
  -24.7230  -26.8180   17.2280 O   0  0  0  0  0  0  0  0  0  0  0  0
  -25.4360  -32.2940   22.7950 C   0  0  0  0  0  0  0  0  0  0  0  0
  -26.0120  -27.8370   17.0640 C   0  0  0  0  0  2  0  0  0  0  0  0
  -23.3750  -31.2710   21.3840 C   0  0  0  0  0  3  0  0  0  0  0  0
  -23.7270  -28.8220   19.0390 C   0  0  0  0  0  1  0  0  0  0  0  0
  -26.4770  -30.5060   21.1450 C   0  0  0  0  0  2  0  0  0  0  0  0
  -26.3580  -29.0920   19.9270 C   0  0  0  0  0  2  0  0  0  0  0  0
  -27.2050  -28.5030   18.4080 C   0  0  0  0  0  1  0  0  0  0  0  0
  -24.5160  -28.1750   16.7180 C   0  0  0  0  0  3  0  0  0  0  0  0
  -23.3780  -28.6730   17.6150 C   0  0  0  0  0  2  0  0  0  0  0  0
  -22.6050  -30.1540   19.9650 C   0  0  0  0  0  1  0  0  0  0  0  0
  -25.1010  -31.4210   21.7810 N   0  0  0  0  0  0  0  0  0  0  0  0
  -24.5890  -32.8200   23.5320 O   0  0  0  0  0  0  0  0  0  0  0  0
  -22.7500  -30.6610   22.6420 C   0  0  0  0  0  0  0  0  0  0  0  0
  -21.5090  -30.2010   22.5960 N   0  0  0  0  0  0  0  0  0  0  0  0
  -23.4610  -30.4450   23.6180 O   0  0  0  0  0  0  0  0  0  0  0  0
  -20.9230  -30.3780   21.7900 H   0  0  0  0  0  0  0  0  0  0  0  0
  -18.9090  -27.8790   23.2060 C   0  0  0  0  0  0  0  0  0  0  0  0
  -21.0470  -29.2220   23.5670 C   0  0  0  0  0  3  0  0  0  0  0  0
  -21.7990  -27.8910   23.3890 C   0  0  0  0  0  2  0  0  0  0  0  0
  -21.1270  -26.9670   22.3750 C   0  0  0  0  0  2  0  0  0  0  0  0
  -19.7110  -26.6340   22.8530 C   0  0  0  0  0  2  0  0  0  0  0  0
  -19.5440  -29.1030   23.5230 C   0  0  0  0  0  0  0  0  0  0  0  0
  -18.7740  -30.2510   23.7990 C   0  0  0  0  0  3  0  0  0  0  0  0
  -17.3720  -30.1850   23.7690 C   0  0  0  0  0  3  0  0  0  0  0  0
  -16.7370  -28.9640   23.4780 C   0  0  0  0  0  3  0  0  0  0  0  0
  -17.5020  -27.8160   23.2010 C   0  0  0  0  0  3  0  0  0  0  0  0
  -26.9380  -32.6530   23.0740 C   0  0  0  0  0  3  0  0  0  0  0  0
  -27.7470  -31.5770   23.9360 C   0  0  1  0  0  0  0  0  0  0  0  0
  -26.9300  -31.1190   25.1600 C   0  0  0  0  0  1  0  0  0  0  0  0
  -28.2470  -30.2690   23.2790 C   0  0  0  0  0  1  0  0  0  0  0  0
  -29.0940  -32.2050   24.3690 C   0  0  0  0  0  1  0  0  0  0  0  0
  -26.9710  -33.9500   23.7990 N   0  0  0  0  0  0  0  0  0  0  0  0
  -27.4880  -35.1130   23.3690 C   0  0  0  0  0  0  0  0  0  0  0  0
  -28.0050  -35.2390   22.2580 O   0  0  0  0  0  0  0  0  0  0  0  0
  -26.5150  -33.9500   24.6990 H   0  0  0  0  0  0  0  0  0  0  0  0
  -26.2970  -37.2830   23.9110 C   0  0  0  0  0  1  0  0  0  0  0  0
  -27.4290  -36.3280   24.3290 C   0  0  0  0  0  3  0  0  0  0  0  0
  -29.7750  -36.3510   25.0680 C   0  0  0  0  0  1  0  0  0  0  0  0
  -28.6970  -37.0880   24.4160 N   0  0  0  0  0  0  0  0  0  0  0  0
  -28.5610  -37.9580   24.9250 H   0  0  0  0  0  0  0  0  0  0  0  0
  -28.1900  -22.5270   20.2800 C   0  0  0  0  0 15  0  0  0  0  0  0
  -29.2070  -20.3810   20.4090 C   0  0  0  0  0 15  0  0  0  0  0  0
  -30.1410  -16.6350   19.8410 C   0  0  0  0  0  0  0  0  0  0  0  0
  -30.5060  -13.8910   18.9220 C   0  0  0  0  0  2  0  0  0  0  0  0
  -29.7070  -13.0350   17.8450 C   0  0  0  0  0  2  0  0  0  0  0  0
  -28.4160  -12.4370   18.4020 C   0  0  0  0  0  2  0  0  0  0  0  0
  -27.8210  -13.4500   19.3900 C   0  0  0  0  0  3  0  0  0  0  0  0
  -28.8170  -14.1230   20.4030 C   0  0  0  0  0  2  0  0  0  0  0  0
  -29.7400  -15.0990   19.6730 N   0  0  0  0  0  0  0  0  0  0  0  0
  -31.3810  -16.4120   19.6430 O   0  0  0  0  0  0  0  0  0  0  0  0
  -29.4340  -18.2860   20.0370 N   0  0  0  0  0  2  0  0  0  0  0  0
  -30.3580  -18.5380   19.7110 H   0  0  0  0  0  0  0  0  0  0  0  0
  -25.5580  -13.8650   20.3830 C   0  0  0  0  0  0  0  0  0  0  0  0
  -24.5390  -13.0620   20.7960 C   0  0  0  0  0  0  0  0  0  0  0  0
  -24.9980  -11.7170   20.6380 C   0  0  0  0  0  0  0  0  0  0  0  0
  -26.5770  -13.0190   20.0020 N   0  0  0  0  0  0  0  0  0  0  0  0
  -26.2610  -11.7090   20.2040 N   0  0  0  0  0  0  0  0  0  0  0  0
  -24.2710  -10.4500   20.8220 C   0  0  0  0  0  0  0  0  0  0  0  0
  -24.6720   -9.4950   21.7820 C   0  0  0  0  0  3  0  0  0  0  0  0
  -23.9350   -8.3040   21.9600 C   0  0  0  0  0  3  0  0  0  0  0  0
  -22.7810   -8.0580   21.1770 C   0  0  0  0  0  0  0  0  0  0  0  0
  -22.3990   -9.0020   20.2080 C   0  0  0  0  0  3  0  0  0  0  0  0
  -23.1360  -10.1840   20.0290 C   0  0  0  0  0  3  0  0  0  0  0  0
  -22.0210   -6.9160   21.2620 O   0  0  0  0  0  0  0  0  0  0  0  0
  -21.8000   -6.2820   22.4580 C   0  0  0  0  0  0  0  0  0  0  0  0
  -21.1270   -6.9160   23.5250 C   0  0  0  0  0  3  0  0  0  0  0  0
  -20.8610   -6.2050   24.7120 C   0  0  0  0  0  3  0  0  0  0  0  0
  -21.2580   -4.8610   24.8320 C   0  0  0  0  0  0  0  0  0  0  0  0
  -21.9230   -4.2250   23.7680 C   0  0  0  0  0  3  0  0  0  0  0  0
  -22.1900   -4.9330   22.5840 C   0  0  0  0  0  0  0  0  0  0  0  0
  -22.8130   -4.3090   21.5550 F   0  0  0  0  0  0  0  0  0  0  0  0
  -20.9960   -4.1750   25.9700 F   0  0  0  0  0  0  0  0  0  0  0  0
  -23.1780  -13.5330   21.2120 C   0  0  0  0  0  0  0  0  0  0  0  0
  -22.5290  -12.8070   22.1130 N   0  0  0  0  0  0  0  0  0  0  0  0
  -22.7080  -14.5840   20.7770 O   0  0  0  0  0  0  0  0  0  0  0  0
  -22.9300  -11.9610   22.4870 H   0  0  0  0  0  0  0  0  0  0  0  0
  -21.6190  -13.1020   22.4360 H   0  0  0  0  0  0  0  0  0  0  0  0
  -25.7020  -15.2460   20.2720 N   0  0  0  0  0  0  0  0  0  0  0  0
  -24.9440  -15.8840   20.4860 H   0  0  0  0  0  0  0  0  0  0  0  0
  -26.5230  -15.7120   19.9050 H   0  0  0  0  0  0  0  0  0  0  0  0
  1 18  1  0
  2  3  1  0
  3  6  1  0
  4  3  2  0
  4  7  1  0
  5  4  1  0
  9 10  1  0
 14 25  2  0
 15 13  1  0
 16 23  1  0
 16 24  1  0
 16 26  1  0
 18 24  1  0
 19  8  1  0
 19  1  1  0
 20  8  1  0
 21 15  1  0
 21 13  1  0
 21 22  1  0
 22 17  1  0
 24 14  1  0
 26 28  2  0
 27 26  1  0
 29 27  1  0
 30 35  1  0
 31 27  1  0
 32 31  1  0
 33 34  1  0
 33 32  1  0
 34 30  1  0
 35 31  1  0
 35 36  2  0
 37 36  1  0
 38 37  2  0
 39 30  2  0
 39 38  1  0
 40 14  1  0
 40 45  1  0
 40 41  1  0
 41 44  1  1
 41 42  1  0
 43 41  1  0
 45 48  1  0
 46 45  1  0
 46 50  1  0
 47 46  2  0
 50 49  1  0
 50 52  1  0
 52 53  1  0
 52 51  1  0
 56 64  1  0
 57 62  1  0
 58 59  1  0
 58 57  1  0
 60 59  1  0
 60 69  1  0
 60 61  1  0
 62 56  1  0
 62 61  1  0
 63 56  2  0
 65 64  1  0
 66 67  2  0
 67 86  1  0
 68 67  1  0
 68 71  1  0
 69 70  1  0
 69 66  1  0
 70 68  2  0
 71 72  1  0
 72 73  2  0
 74 77  1  0
 74 73  1  0
 75 74  2  0
 76 75  1  0
 76 71  2  0
 77 78  1  0
 78 83  2  0
 78 79  1  0
 79 80  2  0
 80 81  1  0
 81 85  1  0
 82 81  2  0
 83 82  1  0
 84 83  1  0
 86 87  1  0
 87 90  1  0
 87 89  1  0
 88 86  2  0
 91 66  1  0
 91 92  1  0
 93 91  1  0
M  ISO  4  12 101  13 101  56 100  64 100
M  END
>  <TORSDO>  (35) 
F 20

>  <SCORE>  (35) 
-11.458

>  <name>  (35) 
34

>  <ligand_id>  (35) 
34

>  <original_smiles>  (35) 
[H]c1nc(N([H])C([H])([H])C([H])([H])N([H])C(=O)N2C([H])([H])C([H])([H])C([H])([H])C([H])(n3nc(-c4c([H])c([H])c(Oc5c([H])c([H])c(F)c([H])c5F)c([H])c4[H])c(C(=O)N([H])[H])c3N([H])[H])C2([H])[H])c(C([H])([H])[H])c(C([H])([H])[H])c1C([H])([H])C([H])([H])Oc1c([H])c([H])c2c(c1[H])C([H])([H])N(C(=O)C([H])(N([H])C(=O)C([H])(N([H])C([H])([H])[H])C([H])([H])[H])C(C([H])([H])[H])(C([H])([H])[H])C([H])([H])[H])C([H])(C(=O)N([H])C1([H])c3c([H])c([H])c([H])c([H])c3C([H])([H])C([H])([H])C1([H])[H])C2([H])[H]

>  <smiles>  (35) 
[H]c1nc(N([H])C([H])([H])C([H])([H])N([H])C(=O)N2C([H])([H])C([H])([H])C([H])([H])C([H])(n3nc(-c4c([H])c([H])c(Oc5c([H])c([H])c(F)c([H])c5F)c([H])c4[H])c(C(=O)N([H])[H])c3N([H])[H])C2([H])[H])c(C([H])([H])[H])c(C([H])([H])[H])c1C([H])([H])C([H])([H])Oc1c([H])c([H])c2c(c1[H])C([H])([H])N(C(=O)C([H])(N([H])C(=O)C([H])(N([H])C([H])([H])[H])C([H])([H])[H])C(C([H])([H])[H])(C([H])([H])[H])C([H])([H])[H])C([H])(C(=O)N([H])C1([H])c3c([H])c([H])c([H])c([H])c3C([H])([H])C([H])([H])C1([H])[H])C2([H])[H]

$$$$
35:0:0
     RDKit          3D

 94102  0  0  1  0  0  0  0  0999 V2000
  -29.2780  -21.6090   20.8080 N   0  0  0  0  0  0  0  0  0  0  0  0
  -30.6220  -19.4630   21.0790 C   0  0  0  0  0  3  0  0  0  0  0  0
  -28.6130  -19.4020   19.7900 C   0  0  0  0  0  3  0  0  0  0  0  0
  -29.5230  -20.1990   20.5320 C   0  0  0  0  0  0  0  0  0  0  0  0
  -29.7930  -17.2470   20.3070 C   0  0  0  0  0  0  0  0  0  0  0  0
  -30.7520  -18.0420   20.9910 C   0  0  0  0  0  0  0  0  0  0  0  0
  -28.7300  -17.9780   19.6930 C   0  0  0  0  0  0  0  0  0  0  0  0
  -32.0520  -17.2900   21.8510 Cl  0  0  0  0  0  0  0  0  0  0  0  0
  -27.4920  -17.1200   18.8460 Cl  0  0  0  0  0  0  0  0  0  0  0  0
  -30.5760  -14.7510   20.0980 C   0  0  0  0  0  0  0  0  0  0  0  0
  -30.3590  -12.4970   19.0540 C   0  0  0  0  0  2  0  0  0  0  0  0
  -29.3600  -12.6100   17.8790 C   0  0  0  0  0  2  0  0  0  0  0  0
  -27.9050  -12.4570   18.3710 C   0  0  0  0  0  2  0  0  0  0  0  0
  -27.5980  -13.3260   19.6180 C   0  0  0  0  0  3  0  0  0  0  0  0
  -28.7020  -13.1640   20.6880 C   0  0  0  0  0  2  0  0  0  0  0  0
  -29.9830  -13.5150   20.0550 N   0  0  0  0  0  0  0  0  0  0  0  0
  -31.7290  -14.9250   19.6980 O   0  0  0  0  0  0  0  0  0  0  0  0
  -29.7200  -15.7810   20.4060 N   0  0  0  0  0  0  0  0  0  0  0  0
  -28.7880  -15.4400   20.5700 H   0  0  0  0  0  0  0  0  0  0  0  0
  -25.2510  -13.9570   20.4510 C   0  0  0  0  0  0  0  0  0  0  0  0
  -24.1900  -13.1960   20.8590 C   0  0  0  0  0  0  0  0  0  0  0  0
  -24.6280  -11.8380   20.7870 C   0  0  0  0  0  0  0  0  0  0  0  0
  -26.2690  -13.0620   20.1570 N   0  0  0  0  0  0  0  0  0  0  0  0
  -25.9010  -11.7820   20.4200 N   0  0  0  0  0  0  0  0  0  0  0  0
  -23.8910  -10.5850   20.9890 C   0  0  0  0  0  0  0  0  0  0  0  0
  -24.3460   -9.5980   21.8910 C   0  0  0  0  0  3  0  0  0  0  0  0
  -23.6100   -8.4080   22.0810 C   0  0  0  0  0  3  0  0  0  0  0  0
  -22.4060   -8.1980   21.3670 C   0  0  0  0  0  0  0  0  0  0  0  0
  -21.9690   -9.1740   20.4540 C   0  0  0  0  0  3  0  0  0  0  0  0
  -22.7060  -10.3540   20.2620 C   0  0  0  0  0  3  0  0  0  0  0  0
  -21.6380   -7.0630   21.4690 O   0  0  0  0  0  0  0  0  0  0  0  0
  -21.6240   -6.3040   22.6120 C   0  0  0  0  0  0  0  0  0  0  0  0
  -21.2550   -6.8460   23.8630 C   0  0  0  0  0  3  0  0  0  0  0  0
  -21.1880   -6.0130   24.9980 C   0  0  0  0  0  3  0  0  0  0  0  0
  -21.4780   -4.6410   24.8850 C   0  0  0  0  0  0  0  0  0  0  0  0
  -21.8410   -4.0980   23.6390 C   0  0  0  0  0  3  0  0  0  0  0  0
  -21.9110   -4.9270   22.5060 C   0  0  0  0  0  0  0  0  0  0  0  0
  -22.2400   -4.3960   21.3040 F   0  0  0  0  0  0  0  0  0  0  0  0
  -21.4050   -3.8390   25.9730 F   0  0  0  0  0  0  0  0  0  0  0  0
  -22.8140  -13.6910   21.2010 C   0  0  0  0  0  0  0  0  0  0  0  0
  -22.1110  -12.9920   22.0860 N   0  0  0  0  0  0  0  0  0  0  0  0
  -22.3700  -14.7310   20.7160 O   0  0  0  0  0  0  0  0  0  0  0  0
  -22.4820  -12.1480   22.4990 H   0  0  0  0  0  0  0  0  0  0  0  0
  -21.1910  -13.3050   22.3590 H   0  0  0  0  0  0  0  0  0  0  0  0
  -25.4260  -15.3270   20.2810 N   0  0  0  0  0  0  0  0  0  0  0  0
  -24.6560  -15.9740   20.4060 H   0  0  0  0  0  0  0  0  0  0  0  0
  -26.2150  -15.7440   19.8040 H   0  0  0  0  0  0  0  0  0  0  0  0
  -30.0180  -22.1690   21.9430 C   0  0  0  0  0  2  0  0  0  0  0  0
  -30.7030  -21.9520   24.3770 C   0  0  0  0  0  1  0  0  0  0  0  0
  -29.8050  -21.4060   23.2640 C   0  0  0  0  0  2  0  0  0  0  0  0
  -29.0090  -22.6080   19.7200 C   0  0  0  0  0  2  0  0  0  0  0  0
  -28.0020  -23.8520   19.9620 C   0  0  0  0  0  2  0  0  0  0  0  0
  -28.3930  -25.1840   20.7600 C   0  0  0  0  0  2  0  0  0  0  0  0
  -28.3360  -26.5340   20.1420 O   0  0  0  0  0  0  0  0  0  0  0  0
  -24.5880  -31.9060   23.2310 C   0  0  0  0  0  0  0  0  0  0  0  0
  -27.1840  -27.3260   20.2000 C   0  0  0  0  0  0  0  0  0  0  0  0
  -23.3760  -30.5060   21.5970 C   0  0  0  0  0  3  0  0  0  0  0  0
  -24.8150  -28.9320   20.1850 C   0  0  0  0  0  0  0  0  0  0  0  0
  -25.9140  -30.8140   21.4050 C   0  0  0  0  0  2  0  0  0  0  0  0
  -25.9860  -29.4290   20.7700 C   0  0  0  0  0  0  0  0  0  0  0  0
  -27.1740  -28.6400   20.7610 C   0  0  0  0  0  3  0  0  0  0  0  0
  -25.9890  -26.8650   19.6120 C   0  0  0  0  0  3  0  0  0  0  0  0
  -24.8170  -27.6520   19.5990 C   0  0  0  0  0  3  0  0  0  0  0  0
  -23.5860  -29.8180   20.2200 C   0  0  0  0  0  2  0  0  0  0  0  0
  -24.6450  -31.0940   22.1350 N   0  0  0  0  0  0  0  0  0  0  0  0
  -23.5060  -32.1890   23.7660 O   0  0  0  0  0  0  0  0  0  0  0  0
  -22.7110  -29.4980   22.5650 C   0  0  0  0  0  0  0  0  0  0  0  0
  -21.3930  -29.2900   22.4090 N   0  0  0  0  0  0  0  0  0  0  0  0
  -23.3810  -28.9060   23.4160 O   0  0  0  0  0  0  0  0  0  0  0  0
  -20.9100  -29.8160   21.6960 H   0  0  0  0  0  0  0  0  0  0  0  0
  -18.0440  -27.9850   22.8050 C   0  0  0  0  0  0  0  0  0  0  0  0
  -20.5750  -28.3530   23.1820 C   0  0  0  0  0  3  0  0  0  0  0  0
  -20.7580  -26.9050   22.6710 C   0  0  0  0  0  2  0  0  0  0  0  0
  -19.7190  -26.5010   21.6220 C   0  0  0  0  0  2  0  0  0  0  0  0
  -18.3020  -26.6190   22.1920 C   0  0  0  0  0  2  0  0  0  0  0  0
  -19.1120  -28.8060   23.2540 C   0  0  0  0  0  0  0  0  0  0  0  0
  -18.8170  -30.0820   23.7820 C   0  0  0  0  0  3  0  0  0  0  0  0
  -17.4880  -30.5370   23.8680 C   0  0  0  0  0  3  0  0  0  0  0  0
  -16.4340  -29.7140   23.4350 C   0  0  0  0  0  3  0  0  0  0  0  0
  -16.7120  -28.4410   22.9080 C   0  0  0  0  0  3  0  0  0  0  0  0
  -25.8750  -32.5350   23.8500 C   0  0  0  0  0  3  0  0  0  0  0  0
  -25.5700  -33.9340   24.1840 N   0  0  0  0  0  0  0  0  0  0  0  0
  -25.9060  -34.9880   23.4270 C   0  0  0  0  0  0  0  0  0  0  0  0
  -26.5730  -34.8840   22.3940 O   0  0  0  0  0  0  0  0  0  0  0  0
  -24.9860  -34.0900   24.9920 H   0  0  0  0  0  0  0  0  0  0  0  0
  -24.1820  -36.7820   23.0860 C   0  0  0  0  0  1  0  0  0  0  0  0
  -25.4250  -36.3760   23.8910 C   0  0  0  0  0  3  0  0  0  0  0  0
  -27.5670  -37.2530   24.7110 C   0  0  0  0  0  1  0  0  0  0  0  0
  -26.4610  -37.4270   23.7750 N   0  0  0  0  0  0  0  0  0  0  0  0
  -26.0570  -38.3480   23.9280 H   0  0  0  0  0  0  0  0  0  0  0  0
  -26.3950  -31.7610   25.1230 C   0  0  1  0  0  0  0  0  0  0  0  0
  -25.3060  -31.5270   26.1950 C   0  0  0  0  0  1  0  0  0  0  0  0
  -26.9720  -30.3820   24.7260 C   0  0  0  0  0  1  0  0  0  0  0  0
  -27.5520  -32.5500   25.7790 C   0  0  0  0  0  1  0  0  0  0  0  0
  1 48  1  0
  3  4  1  0
  4  1  1  0
  4  2  2  0
  5 18  1  0
  5  6  2  0
  6  2  1  0
  6  8  1  0
  7  3  2  0
  7  5  1  0
  9  7  1  0
 10 18  1  0
 11 16  1  0
 12 13  1  0
 12 11  1  0
 14 13  1  0
 14 23  1  0
 14 15  1  0
 16 10  1  0
 16 15  1  0
 17 10  2  0
 18 19  1  0
 20 21  2  0
 21 40  1  0
 22 21  1  0
 22 25  1  0
 23 24  1  0
 23 20  1  0
 24 22  2  0
 25 26  1  0
 26 27  2  0
 28 31  1  0
 28 27  1  0
 29 28  2  0
 30 29  1  0
 30 25  2  0
 31 32  1  0
 32 33  1  0
 33 34  2  0
 35 34  1  0
 35 39  1  0
 36 35  2  0
 37 32  2  0
 37 36  1  0
 38 37  1  0
 40 41  1  0
 41 44  1  0
 41 43  1  0
 42 40  2  0
 45 46  1  0
 45 20  1  0
 47 45  1  0
 48 50  1  0
 50 49  1  0
 51 52  1  0
 51  1  1  0
 52 53  1  0
 54 56  1  0
 54 53  1  0
 55 66  2  0
 56 61  1  0
 57 65  1  0
 57 67  1  0
 58 64  1  0
 58 60  1  0
 59 65  1  0
 60 59  1  0
 61 60  2  0
 62 56  2  0
 63 62  1  0
 63 58  2  0
 64 57  1  0
 65 55  1  0
 67 69  2  0
 68 67  1  0
 70 68  1  0
 71 80  2  0
 71 76  1  0
 72 68  1  0
 72 76  1  0
 73 72  1  0
 74 75  1  0
 74 73  1  0
 75 71  1  0
 76 77  2  0
 77 78  1  0
 79 78  2  0
 80 79  1  0
 81 55  1  0
 81 82  1  0
 81 91  1  0
 82 85  1  0
 83 87  1  0
 83 82  1  0
 84 83  2  0
 87 86  1  0
 89 87  1  0
 89 90  1  0
 89 88  1  0
 91 94  1  1
 91 92  1  0
 93 91  1  0
M  ISO  4  10 100  18 100  53 101  54 101
M  END
>  <TORSDO>  (36) 
F 22

>  <SCORE>  (36) 
-13.202

>  <name>  (36) 
35

>  <ligand_id>  (36) 
35

>  <original_smiles>  (36) 
[H]c1c([H])c([H])c2c(c1[H])C([H])([H])C([H])([H])C([H])([H])C2([H])N([H])C(=O)C1([H])N(C(=O)C([H])(N([H])C(=O)C([H])(N([H])C([H])([H])[H])C([H])([H])[H])C(C([H])([H])[H])(C([H])([H])[H])C([H])([H])[H])C([H])([H])c2c([H])c(OC([H])([H])C([H])([H])C([H])([H])N(c3c([H])c(Cl)c(N([H])C(=O)N4C([H])([H])C([H])([H])C([H])([H])C([H])(n5nc(-c6c([H])c([H])c(Oc7c([H])c([H])c(F)c([H])c7F)c([H])c6[H])c(C(=O)N([H])[H])c5N([H])[H])C4([H])[H])c(Cl)c3[H])C([H])([H])C([H])([H])C([H])([H])[H])c([H])c([H])c2C1([H])[H]

>  <smiles>  (36) 
[H]c1c([H])c([H])c2c(c1[H])C([H])([H])C([H])([H])C([H])([H])C2([H])N([H])C(=O)C1([H])N(C(=O)C([H])(N([H])C(=O)C([H])(N([H])C([H])([H])[H])C([H])([H])[H])C(C([H])([H])[H])(C([H])([H])[H])C([H])([H])[H])C([H])([H])c2c([H])c(OC([H])([H])C([H])([H])C([H])([H])N(c3c([H])c(Cl)c(N([H])C(=O)N4C([H])([H])C([H])([H])C([H])([H])C([H])(n5nc(-c6c([H])c([H])c(Oc7c([H])c([H])c(F)c([H])c7F)c([H])c6[H])c(C(=O)N([H])[H])c5N([H])[H])C4([H])[H])c(Cl)c3[H])C([H])([H])C([H])([H])C([H])([H])[H])c([H])c([H])c2C1([H])[H]

$$$$
36:0:0
     RDKit          3D

 90 98  0  0  1  0  0  0  0  0999 V2000
  -29.7970  -20.2450   18.3070 C   0  0  0  0  0  3  0  0  0  0  0  0
  -29.7380  -20.3620   19.7090 C   0  0  0  0  0  0  0  0  0  0  0  0
  -29.8510  -19.0260   20.3820 C   0  0  0  0  0  0  0  0  0  0  0  0
  -30.0210  -18.9990   17.6760 C   0  0  0  0  0  0  0  0  0  0  0  0
  -30.0460  -17.7150   19.6650 C   0  0  0  0  0  0  0  0  0  0  0  0
  -30.2100  -18.9280   16.1730 C   0  0  0  0  0  1  0  0  0  0  0  0
  -30.1300  -17.8110   18.3190 N   0  0  0  0  0  0  0  0  0  0  0  0
  -29.8080  -18.9970   22.1100 Cl  0  0  0  0  0  0  0  0  0  0  0  0
  -30.7890  -15.0880   19.8710 C   0  0  0  0  0  0  0  0  0  0  0  0
  -30.6030  -12.7310   18.9370 C   0  0  0  0  0  2  0  0  0  0  0  0
  -29.5850  -12.6890   17.7730 C   0  0  0  0  0  2  0  0  0  0  0  0
  -28.1640  -12.4540   18.3100 C   0  0  0  0  0  2  0  0  0  0  0  0
  -27.8390  -13.3780   19.5130 C   0  0  0  0  0  3  0  0  0  0  0  0
  -28.9680  -13.3940   20.5660 C   0  0  0  0  0  2  0  0  0  0  0  0
  -30.1950  -13.8180   19.8820 N   0  0  0  0  0  0  0  0  0  0  0  0
  -31.9530  -15.1280   19.4450 O   0  0  0  0  0  0  0  0  0  0  0  0
  -30.0830  -16.2810   20.2370 N   0  0  0  0  0  0  0  0  0  0  0  0
  -29.3230  -16.1040   20.8740 H   0  0  0  0  0  0  0  0  0  0  0  0
  -25.5430  -13.9510   20.4720 C   0  0  0  0  0  0  0  0  0  0  0  0
  -24.4980  -13.1740   20.8870 C   0  0  0  0  0  0  0  0  0  0  0  0
  -24.9320  -11.8200   20.7510 C   0  0  0  0  0  0  0  0  0  0  0  0
  -26.5450  -13.0720   20.1030 N   0  0  0  0  0  0  0  0  0  0  0  0
  -26.1920  -11.7810   20.3340 N   0  0  0  0  0  0  0  0  0  0  0  0
  -24.1950  -10.5600   20.9300 C   0  0  0  0  0  0  0  0  0  0  0  0
  -24.6150   -9.5810   21.8580 C   0  0  0  0  0  3  0  0  0  0  0  0
  -23.8770   -8.3910   22.0260 C   0  0  0  0  0  3  0  0  0  0  0  0
  -22.7050   -8.1700   21.2640 C   0  0  0  0  0  0  0  0  0  0  0  0
  -22.3030   -9.1360   20.3240 C   0  0  0  0  0  3  0  0  0  0  0  0
  -23.0430  -10.3180   20.1540 C   0  0  0  0  0  3  0  0  0  0  0  0
  -21.9390   -7.0320   21.3420 O   0  0  0  0  0  0  0  0  0  0  0  0
  -21.7900   -6.3430   22.5180 C   0  0  0  0  0  0  0  0  0  0  0  0
  -21.1990   -6.9310   23.6570 C   0  0  0  0  0  3  0  0  0  0  0  0
  -21.0050   -6.1650   24.8230 C   0  0  0  0  0  3  0  0  0  0  0  0
  -21.3920   -4.8120   24.8510 C   0  0  0  0  0  0  0  0  0  0  0  0
  -21.9780   -4.2240   23.7150 C   0  0  0  0  0  3  0  0  0  0  0  0
  -22.1740   -4.9860   22.5520 C   0  0  0  0  0  0  0  0  0  0  0  0
  -22.7190   -4.4080   21.4550 F   0  0  0  0  0  0  0  0  0  0  0  0
  -21.1980   -4.0740   25.9700 F   0  0  0  0  0  0  0  0  0  0  0  0
  -23.1360  -13.6600   21.2940 C   0  0  0  0  0  0  0  0  0  0  0  0
  -22.4650  -12.9330   22.1800 N   0  0  0  0  0  0  0  0  0  0  0  0
  -22.6800  -14.7190   20.8630 O   0  0  0  0  0  0  0  0  0  0  0  0
  -22.8450  -12.0720   22.5440 H   0  0  0  0  0  0  0  0  0  0  0  0
  -21.5570  -13.2400   22.5000 H   0  0  0  0  0  0  0  0  0  0  0  0
  -25.7220  -15.3280   20.3520 N   0  0  0  0  0  0  0  0  0  0  0  0
  -24.9700  -15.9860   20.5300 H   0  0  0  0  0  0  0  0  0  0  0  0
  -26.5390  -15.7600   19.9440 H   0  0  0  0  0  0  0  0  0  0  0  0
  -29.8220  -21.9260   20.3000 C   0  0  0  0  0  2  0  0  0  0  0  0
  -28.7250  -23.2260   20.2010 C   0  0  0  0  0  2  0  0  0  0  0  0
  -28.9760  -24.8670   19.7790 C   0  0  0  0  0  2  0  0  0  0  0  0
  -28.7380  -26.2700   20.4410 O   0  0  0  0  0  0  0  0  0  0  0  0
  -24.7810  -31.8330   23.2000 C   0  0  0  0  0  0  0  0  0  0  0  0
  -27.6410  -27.1980   20.2690 C   0  0  0  0  0  0  0  0  0  0  0  0
  -23.6970  -30.3970   21.5130 C   0  0  0  0  0  3  0  0  0  0  0  0
  -25.2540  -28.8680   20.1400 C   0  0  0  0  0  0  0  0  0  0  0  0
  -26.2450  -30.7450   21.4490 C   0  0  0  0  0  2  0  0  0  0  0  0
  -26.3870  -29.3540   20.8000 C   0  0  0  0  0  0  0  0  0  0  0  0
  -27.5740  -28.5310   20.8540 C   0  0  0  0  0  3  0  0  0  0  0  0
  -26.4820  -26.8140   19.5640 C   0  0  0  0  0  3  0  0  0  0  0  0
  -25.3140  -27.6150   19.5090 C   0  0  0  0  0  3  0  0  0  0  0  0
  -23.9960  -29.7240   20.1410 C   0  0  0  0  0  2  0  0  0  0  0  0
  -24.9260  -31.0170   22.1080 N   0  0  0  0  0  0  0  0  0  0  0  0
  -23.6650  -32.0770   23.6850 O   0  0  0  0  0  0  0  0  0  0  0  0
  -23.0170  -29.3690   22.4530 C   0  0  0  0  0  0  0  0  0  0  0  0
  -21.6970  -29.1700   22.2940 N   0  0  0  0  0  0  0  0  0  0  0  0
  -23.6810  -28.7550   23.2930 O   0  0  0  0  0  0  0  0  0  0  0  0
  -21.2130  -29.7270   21.6030 H   0  0  0  0  0  0  0  0  0  0  0  0
  -18.3280  -27.8930   22.7150 C   0  0  0  0  0  0  0  0  0  0  0  0
  -20.8790  -28.2000   23.0320 C   0  0  0  0  0  3  0  0  0  0  0  0
  -21.0160  -26.7790   22.4380 C   0  0  0  0  0  2  0  0  0  0  0  0
  -19.9390  -26.4500   21.4010 C   0  0  0  0  0  2  0  0  0  0  0  0
  -18.5430  -26.5590   22.0180 C   0  0  0  0  0  2  0  0  0  0  0  0
  -19.4260  -28.6690   23.1750 C   0  0  0  0  0  0  0  0  0  0  0  0
  -19.1720  -29.9170   23.7840 C   0  0  0  0  0  3  0  0  0  0  0  0
  -17.8550  -30.3900   23.9390 C   0  0  0  0  0  3  0  0  0  0  0  0
  -16.7730  -29.6110   23.4940 C   0  0  0  0  0  3  0  0  0  0  0  0
  -17.0090  -28.3640   22.8860 C   0  0  0  0  0  3  0  0  0  0  0  0
  -26.0060  -32.5190   23.8770 C   0  0  0  0  0  3  0  0  0  0  0  0
  -26.4910  -31.7760   25.1810 C   0  0  1  0  0  0  0  0  0  0  0  0
  -25.3580  -31.4950   26.1990 C   0  0  0  0  0  1  0  0  0  0  0  0
  -27.1550  -30.4270   24.8250 C   0  0  0  0  0  1  0  0  0  0  0  0
  -27.5750  -32.6180   25.8900 C   0  0  0  0  0  1  0  0  0  0  0  0
  -25.6330  -33.9100   24.1930 N   0  0  0  0  0  0  0  0  0  0  0  0
  -25.9270  -34.9740   23.4400 C   0  0  0  0  0  0  0  0  0  0  0  0
  -26.6120  -34.8990   22.4180 O   0  0  0  0  0  0  0  0  0  0  0  0
  -25.0320  -34.0420   24.9930 H   0  0  0  0  0  0  0  0  0  0  0  0
  -24.1290  -36.6960   23.0730 C   0  0  0  0  0  1  0  0  0  0  0  0
  -25.3800  -36.3460   23.8920 C   0  0  0  0  0  3  0  0  0  0  0  0
  -27.4620  -37.3340   24.7380 C   0  0  0  0  0  1  0  0  0  0  0  0
  -26.3660  -37.4420   23.7790 N   0  0  0  0  0  0  0  0  0  0  0  0
  -25.9170  -38.3450   23.9080 H   0  0  0  0  0  0  0  0  0  0  0  0
  1  2  1  0
  2 47  1  0
  2  3  2  0
  3  8  1  0
  4  1  2  0
  4  7  1  0
  5 17  1  0
  5  3  1  0
  6  4  1  0
  7  5  2  0
  9 15  1  0
  9 17  1  0
 10 15  1  0
 11 12  1  0
 11 10  1  0
 13 12  1  0
 13 22  1  0
 13 14  1  0
 15 14  1  0
 16  9  2  0
 17 18  1  0
 19 20  2  0
 20 39  1  0
 21 20  1  0
 21 24  1  0
 22 23  1  0
 22 19  1  0
 23 21  2  0
 24 25  1  0
 25 26  2  0
 27 30  1  0
 27 26  1  0
 28 27  2  0
 29 28  1  0
 29 24  2  0
 30 31  1  0
 31 36  2  0
 31 32  1  0
 32 33  2  0
 33 34  1  0
 34 38  1  0
 35 34  2  0
 36 35  1  0
 37 36  1  0
 39 40  1  0
 40 43  1  0
 40 42  1  0
 41 39  2  0
 44 19  1  0
 44 45  1  0
 46 44  1  0
 48 47  1  0
 49 48  1  0
 49 50  1  0
 51 62  2  0
 52 50  1  0
 52 57  1  0
 53 61  1  0
 53 63  1  0
 54 60  1  0
 54 56  1  0
 55 61  1  0
 56 57  2  0
 56 55  1  0
 58 52  2  0
 59 58  1  0
 59 54  2  0
 60 53  1  0
 61 51  1  0
 63 65  2  0
 64 63  1  0
 66 64  1  0
 67 76  2  0
 67 72  1  0
 68 64  1  0
 68 72  1  0
 69 68  1  0
 70 71  1  0
 70 69  1  0
 71 67  1  0
 72 73  2  0
 73 74  1  0
 75 74  2  0
 76 75  1  0
 77 51  1  0
 77 82  1  0
 77 78  1  0
 78 81  1  1
 78 79  1  0
 80 78  1  0
 82 85  1  0
 83 87  1  0
 83 82  1  0
 84 83  2  0
 87 86  1  0
 89 87  1  0
 89 90  1  0
 89 88  1  0
M  ISO  4   9 100  17 100  49 101  50 101
M  END
>  <TORSDO>  (37) 
F 19

>  <SCORE>  (37) 
-14.305

>  <name>  (37) 
36

>  <ligand_id>  (37) 
36

>  <original_smiles>  (37) 
[H]c1c([H])c([H])c2c(c1[H])C([H])([H])C([H])([H])C([H])([H])C2([H])N([H])C(=O)C1([H])N(C(=O)C([H])(N([H])C(=O)C([H])(N([H])C([H])([H])[H])C([H])([H])[H])C(C([H])([H])[H])(C([H])([H])[H])C([H])([H])[H])C([H])([H])c2c([H])c(OC([H])([H])C([H])([H])C([H])([H])c3c([H])c(C([H])([H])[H])nc(N([H])C(=O)N4C([H])([H])C([H])([H])C([H])([H])C([H])(n5nc(-c6c([H])c([H])c(Oc7c([H])c([H])c(F)c([H])c7F)c([H])c6[H])c(C(=O)N([H])[H])c5N([H])[H])C4([H])[H])c3Cl)c([H])c([H])c2C1([H])[H]

>  <smiles>  (37) 
[H]c1c([H])c([H])c2c(c1[H])C([H])([H])C([H])([H])C([H])([H])C2([H])N([H])C(=O)C1([H])N(C(=O)C([H])(N([H])C(=O)C([H])(N([H])C([H])([H])[H])C([H])([H])[H])C(C([H])([H])[H])(C([H])([H])[H])C([H])([H])[H])C([H])([H])c2c([H])c(OC([H])([H])C([H])([H])C([H])([H])c3c([H])c(C([H])([H])[H])nc(N([H])C(=O)N4C([H])([H])C([H])([H])C([H])([H])C([H])(n5nc(-c6c([H])c([H])c(Oc7c([H])c([H])c(F)c([H])c7F)c([H])c6[H])c(C(=O)N([H])[H])c5N([H])[H])C4([H])[H])c3Cl)c([H])c([H])c2C1([H])[H]

$$$$
37:0:0
     RDKit          3D

 90 98  0  0  1  0  0  0  0  0999 V2000
  -31.0150  -20.0660   21.7970 C   0  0  0  0  0  3  0  0  0  0  0  0
  -30.3210  -21.2150   21.3380 C   0  0  0  0  0  0  0  0  0  0  0  0
  -30.7610  -18.7160   21.4370 C   0  0  0  0  0  0  0  0  0  0  0  0
  -29.2130  -21.1380   20.4570 C   0  0  0  0  0  0  0  0  0  0  0  0
  -28.9770  -19.6370   20.0710 C   0  0  0  0  0  0  0  0  0  0  0  0
  -29.7440  -18.3460   20.5100 C   0  0  0  0  0  0  0  0  0  0  0  0
  -30.8500  -22.5610   21.8100 C   0  0  0  0  0  1  0  0  0  0  0  0
  -31.6370  -17.6810   22.1240 C   0  0  0  0  0  1  0  0  0  0  0  0
  -27.8260  -19.3960   19.1100 C   0  0  0  0  0  1  0  0  0  0  0  0
  -30.3140  -15.4570   20.0970 C   0  0  0  0  0  0  0  0  0  0  0  0
  -30.2830  -13.0310   19.1300 C   0  0  0  0  0  2  0  0  0  0  0  0
  -29.3140  -12.7980   17.9430 C   0  0  0  0  0  2  0  0  0  0  0  0
  -27.8970  -12.4830   18.4460 C   0  0  0  0  0  2  0  0  0  0  0  0
  -27.4700  -13.4320   19.5910 C   0  0  0  0  0  3  0  0  0  0  0  0
  -28.5600  -13.5990   20.6720 C   0  0  0  0  0  2  0  0  0  0  0  0
  -29.7460  -14.1500   19.9950 N   0  0  0  0  0  0  0  0  0  0  0  0
  -31.5300  -15.4360   19.8500 O   0  0  0  0  0  0  0  0  0  0  0  0
  -29.5430  -16.7440   20.2130 N   0  0  0  0  0  0  0  0  0  0  0  0
  -28.5630  -16.5230   20.1190 H   0  0  0  0  0  0  0  0  0  0  0  0
  -25.1230  -13.9540   20.4340 C   0  0  0  0  0  0  0  0  0  0  0  0
  -24.0850  -13.1580   20.8320 C   0  0  0  0  0  0  0  0  0  0  0  0
  -24.5710  -11.8170   20.7770 C   0  0  0  0  0  0  0  0  0  0  0  0
  -26.1680  -13.0960   20.1480 N   0  0  0  0  0  0  0  0  0  0  0  0
  -25.8520  -11.8050   20.4250 N   0  0  0  0  0  0  0  0  0  0  0  0
  -23.8700  -10.5410   20.9800 C   0  0  0  0  0  0  0  0  0  0  0  0
  -24.3360   -9.5790   21.9030 C   0  0  0  0  0  3  0  0  0  0  0  0
  -23.6290   -8.3720   22.0970 C   0  0  0  0  0  3  0  0  0  0  0  0
  -22.4440   -8.1180   21.3670 C   0  0  0  0  0  0  0  0  0  0  0  0
  -21.9950   -9.0700   20.4360 C   0  0  0  0  0  3  0  0  0  0  0  0
  -22.7020  -10.2690   20.2400 C   0  0  0  0  0  3  0  0  0  0  0  0
  -21.7080   -6.9630   21.4710 O   0  0  0  0  0  0  0  0  0  0  0  0
  -21.6900   -6.2210   22.6240 C   0  0  0  0  0  0  0  0  0  0  0  0
  -21.2730   -6.7710   23.8560 C   0  0  0  0  0  3  0  0  0  0  0  0
  -21.2030   -5.9560   25.0030 C   0  0  0  0  0  3  0  0  0  0  0  0
  -21.5420   -4.5920   24.9210 C   0  0  0  0  0  0  0  0  0  0  0  0
  -21.9510   -4.0410   23.6920 C   0  0  0  0  0  3  0  0  0  0  0  0
  -22.0220   -4.8530   22.5480 C   0  0  0  0  0  0  0  0  0  0  0  0
  -22.3960   -4.3130   21.3620 F   0  0  0  0  0  0  0  0  0  0  0  0
  -21.4680   -3.8060   26.0200 F   0  0  0  0  0  0  0  0  0  0  0  0
  -22.6910  -13.6120   21.1490 C   0  0  0  0  0  0  0  0  0  0  0  0
  -22.0000  -12.9000   22.0300 N   0  0  0  0  0  0  0  0  0  0  0  0
  -22.2250  -14.6370   20.6510 O   0  0  0  0  0  0  0  0  0  0  0  0
  -22.3960  -12.0710   22.4500 H   0  0  0  0  0  0  0  0  0  0  0  0
  -21.0670  -13.1860   22.2910 H   0  0  0  0  0  0  0  0  0  0  0  0
  -25.2580  -15.3280   20.2590 N   0  0  0  0  0  0  0  0  0  0  0  0
  -24.4800  -15.9690   20.3840 H   0  0  0  0  0  0  0  0  0  0  0  0
  -26.0800  -15.7780   19.8810 H   0  0  0  0  0  0  0  0  0  0  0  0
  -28.5610  -22.6960   19.9050 C   0  0  0  0  0  2  0  0  0  0  0  0
  -28.1660  -24.3310   20.6330 C   0  0  0  0  0  2  0  0  0  0  0  0
  -28.2500  -25.9520   20.2450 O   0  0  0  0  0  0  0  0  0  0  0  0
  -24.6350  -31.9420   23.2450 C   0  0  0  0  0  0  0  0  0  0  0  0
  -27.2140  -27.0320   20.2740 C   0  0  0  0  0  0  0  0  0  0  0  0
  -23.4500  -30.5250   21.6150 C   0  0  0  0  0  3  0  0  0  0  0  0
  -24.9070  -28.9120   20.2120 C   0  0  0  0  0  0  0  0  0  0  0  0
  -26.0170  -30.7450   21.4740 C   0  0  0  0  0  2  0  0  0  0  0  0
  -26.0960  -29.3280   20.8260 C   0  0  0  0  0  0  0  0  0  0  0  0
  -27.2480  -28.4140   20.8180 C   0  0  0  0  0  3  0  0  0  0  0  0
  -25.9910  -26.7680   19.6250 C   0  0  0  0  0  3  0  0  0  0  0  0
  -24.8800  -27.6520   19.5910 C   0  0  0  0  0  3  0  0  0  0  0  0
  -23.6840  -29.8270   20.2480 C   0  0  0  0  0  2  0  0  0  0  0  0
  -24.7220  -31.1000   22.1630 N   0  0  0  0  0  0  0  0  0  0  0  0
  -23.5430  -32.2340   23.7610 O   0  0  0  0  0  0  0  0  0  0  0  0
  -22.7560  -29.5370   22.5880 C   0  0  0  0  0  0  0  0  0  0  0  0
  -21.4280  -29.3630   22.4590 N   0  0  0  0  0  0  0  0  0  0  0  0
  -23.4230  -28.9230   23.4250 O   0  0  0  0  0  0  0  0  0  0  0  0
  -20.9420  -29.9160   21.7660 H   0  0  0  0  0  0  0  0  0  0  0  0
  -18.0520  -28.1260   22.9580 C   0  0  0  0  0  0  0  0  0  0  0  0
  -20.6090  -28.4210   23.2300 C   0  0  0  0  0  3  0  0  0  0  0  0
  -20.7270  -26.9840   22.6700 C   0  0  0  0  0  2  0  0  0  0  0  0
  -19.6350  -26.6420   21.6510 C   0  0  0  0  0  2  0  0  0  0  0  0
  -18.2480  -26.7750   22.2880 C   0  0  0  0  0  2  0  0  0  0  0  0
  -19.1600  -28.9050   23.3850 C   0  0  0  0  0  0  0  0  0  0  0  0
  -18.9220  -30.1670   23.9730 C   0  0  0  0  0  3  0  0  0  0  0  0
  -17.6120  -30.6510   24.1330 C   0  0  0  0  0  3  0  0  0  0  0  0
  -16.5180  -29.8690   23.7240 C   0  0  0  0  0  3  0  0  0  0  0  0
  -16.7390  -28.6080   23.1420 C   0  0  0  0  0  3  0  0  0  0  0  0
  -25.9000  -32.5940   23.8770 C   0  0  0  0  0  3  0  0  0  0  0  0
  -25.5780  -33.9960   24.1960 N   0  0  0  0  0  0  0  0  0  0  0  0
  -25.9090  -35.0530   23.4400 C   0  0  0  0  0  0  0  0  0  0  0  0
  -26.5820  -34.9490   22.4110 O   0  0  0  0  0  0  0  0  0  0  0  0
  -24.9740  -34.1470   24.9910 H   0  0  0  0  0  0  0  0  0  0  0  0
  -24.1770  -36.8480   23.0920 C   0  0  0  0  0  1  0  0  0  0  0  0
  -25.4230  -36.4430   23.8970 C   0  0  0  0  0  3  0  0  0  0  0  0
  -27.5590  -37.3450   24.7150 C   0  0  0  0  0  1  0  0  0  0  0  0
  -26.4530  -37.4980   23.7730 N   0  0  0  0  0  0  0  0  0  0  0  0
  -26.0450  -38.4200   23.9150 H   0  0  0  0  0  0  0  0  0  0  0  0
  -26.4020  -31.8470   25.1750 C   0  0  1  0  0  0  0  0  0  0  0  0
  -25.2970  -31.6220   26.2340 C   0  0  0  0  0  1  0  0  0  0  0  0
  -26.9940  -30.4620   24.8230 C   0  0  0  0  0  1  0  0  0  0  0  0
  -27.5410  -32.6580   25.8350 C   0  0  0  0  0  1  0  0  0  0  0  0
  2  1  2  0
  2  7  1  0
  3  1  1  0
  3  8  1  0
  4  2  1  0
  5  4  2  0
  5  6  1  0
  6  3  2  0
  9  5  1  0
 10 18  1  0
 11 16  1  0
 12 13  1  0
 12 11  1  0
 14 13  1  0
 14 23  1  0
 14 15  1  0
 16 10  1  0
 16 15  1  0
 17 10  2  0
 18  6  1  0
 19 18  1  0
 20 21  2  0
 21 40  1  0
 22 21  1  0
 22 25  1  0
 23 24  1  0
 23 20  1  0
 24 22  2  0
 25 26  1  0
 26 27  2  0
 28 31  1  0
 28 27  1  0
 29 28  2  0
 30 29  1  0
 30 25  2  0
 31 32  1  0
 32 33  1  0
 33 34  2  0
 35 34  1  0
 35 39  1  0
 36 35  2  0
 37 32  2  0
 37 36  1  0
 38 37  1  0
 40 41  1  0
 41 44  1  0
 41 43  1  0
 42 40  2  0
 45 46  1  0
 45 20  1  0
 47 45  1  0
 48  4  1  0
 48 49  1  0
 50 52  1  0
 50 49  1  0
 51 62  2  0
 52 57  1  0
 53 61  1  0
 53 63  1  0
 54 60  1  0
 54 56  1  0
 55 61  1  0
 56 55  1  0
 57 56  2  0
 58 52  2  0
 59 58  1  0
 59 54  2  0
 60 53  1  0
 61 51  1  0
 63 65  2  0
 64 63  1  0
 66 64  1  0
 67 76  2  0
 67 72  1  0
 68 64  1  0
 68 72  1  0
 69 68  1  0
 70 71  1  0
 70 69  1  0
 71 67  1  0
 72 73  2  0
 73 74  1  0
 75 74  2  0
 76 75  1  0
 77 51  1  0
 77 78  1  0
 77 87  1  0
 78 81  1  0
 79 83  1  0
 79 78  1  0
 80 79  2  0
 83 82  1  0
 85 83  1  0
 85 86  1  0
 85 84  1  0
 87 90  1  1
 87 88  1  0
 89 87  1  0
M  ISO  4  10 100  18 100  49 101  50 101
M  END
>  <TORSDO>  (38) 
F 18

>  <SCORE>  (38) 
-16.136

>  <name>  (38) 
37

>  <ligand_id>  (38) 
37

>  <original_smiles>  (38) 
[H]c1c([H])c([H])c2c(c1[H])C([H])([H])C([H])([H])C([H])([H])C2([H])N([H])C(=O)C1([H])N(C(=O)C([H])(N([H])C(=O)C([H])(N([H])C([H])([H])[H])C([H])([H])[H])C(C([H])([H])[H])(C([H])([H])[H])C([H])([H])[H])C([H])([H])c2c([H])c(OC([H])([H])C([H])([H])c3c(C([H])([H])[H])c([H])c(C([H])([H])[H])c(N([H])C(=O)N4C([H])([H])C([H])([H])C([H])([H])C([H])(n5nc(-c6c([H])c([H])c(Oc7c([H])c([H])c(F)c([H])c7F)c([H])c6[H])c(C(=O)N([H])[H])c5N([H])[H])C4([H])[H])c3C([H])([H])[H])c([H])c([H])c2C1([H])[H]

>  <smiles>  (38) 
[H]c1c([H])c([H])c2c(c1[H])C([H])([H])C([H])([H])C([H])([H])C2([H])N([H])C(=O)C1([H])N(C(=O)C([H])(N([H])C(=O)C([H])(N([H])C([H])([H])[H])C([H])([H])[H])C(C([H])([H])[H])(C([H])([H])[H])C([H])([H])[H])C([H])([H])c2c([H])c(OC([H])([H])C([H])([H])c3c(C([H])([H])[H])c([H])c(C([H])([H])[H])c(N([H])C(=O)N4C([H])([H])C([H])([H])C([H])([H])C([H])(n5nc(-c6c([H])c([H])c(Oc7c([H])c([H])c(F)c([H])c7F)c([H])c6[H])c(C(=O)N([H])[H])c5N([H])[H])C4([H])[H])c3C([H])([H])[H])c([H])c([H])c2C1([H])[H]

$$$$
38:0:0
     RDKit          3D

 99107  0  0  1  0  0  0  0  0999 V2000
  -28.6820  -27.1440   24.1960 C   0  0  0  0  0  3  0  0  0  0  0  0
  -29.1980  -25.1340   25.4610 C   0  0  0  0  0  3  0  0  0  0  0  0
  -29.0280  -26.5340   25.4080 C   0  0  0  0  0  0  0  0  0  0  0  0
  -28.4500  -26.3690   23.0470 C   0  0  0  0  0  0  0  0  0  0  0  0
  -28.9590  -24.3360   24.3140 C   0  0  0  0  0  0  0  0  0  0  0  0
  -28.5340  -24.9590   23.1160 C   0  0  0  0  0  0  0  0  0  0  0  0
  -29.1650  -27.4040   26.6380 C   0  0  0  0  0  1  0  0  0  0  0  0
  -28.0830  -23.9820   21.7560 Cl  0  0  0  0  0  0  0  0  0  0  0  0
  -29.0970  -22.9350   24.3310 N   0  0  0  0  0  0  0  0  0  0  0  0
  -28.3590  -22.4260   23.8490 H   0  0  0  0  0  0  0  0  0  0  0  0
  -30.4170  -22.3110   24.3750 C   0  0  0  0  0  2  0  0  0  0  0  0
  -30.5770  -21.1970   23.3240 C   0  0  0  0  0  2  0  0  0  0  0  0
  -31.9060  -20.4270   23.4800 C   0  0  0  0  0  2  0  0  0  0  0  0
  -31.8500  -18.9620   22.9980 C   0  0  0  0  0  2  0  0  0  0  0  0
  -31.7890  -18.8050   21.4610 C   0  0  0  0  0  2  0  0  0  0  0  0
  -31.5800  -17.3460   21.0080 C   0  0  0  0  0  2  0  0  0  0  0  0
  -32.3460  -16.9970   19.7130 C   0  0  0  0  0  2  0  0  0  0  0  0
  -32.8130  -15.5320   19.5950 C   0  0  0  0  0  2  0  0  0  0  0  0
  -31.5920  -13.6710   18.4670 C   0  0  0  0  0  0  0  0  0  0  0  0
  -31.0660  -11.2690   18.3570 C   0  0  0  0  0  2  0  0  0  0  0  0
  -29.9260  -10.8690   17.4110 C   0  0  0  0  0  2  0  0  0  0  0  0
  -28.5660  -10.9980   18.1180 C   0  0  0  0  0  2  0  0  0  0  0  0
  -28.3830  -12.3730   18.8070 C   0  0  0  0  0  3  0  0  0  0  0  0
  -29.6060  -12.7300   19.6760 C   0  0  0  0  0  2  0  0  0  0  0  0
  -30.8280  -12.6280   18.8560 N   0  0  0  0  0  0  0  0  0  0  0  0
  -32.3250  -13.6630   17.4700 O   0  0  0  0  0  0  0  0  0  0  0  0
  -31.7070  -14.5950   19.4250 N   0  0  0  0  0  0  0  0  0  0  0  0
  -31.0920  -14.4740   20.2170 H   0  0  0  0  0  0  0  0  0  0  0  0
  -26.4420  -13.5000   20.0700 C   0  0  0  0  0  0  0  0  0  0  0  0
  -25.3130  -12.9920   20.6510 C   0  0  0  0  0  0  0  0  0  0  0  0
  -25.3810  -11.5750   20.4780 C   0  0  0  0  0  0  0  0  0  0  0  0
  -27.1440  -12.4090   19.5800 N   0  0  0  0  0  0  0  0  0  0  0  0
  -26.5180  -11.2410   19.8810 N   0  0  0  0  0  0  0  0  0  0  0  0
  -24.4060  -10.5240   20.7930 C   0  0  0  0  0  0  0  0  0  0  0  0
  -24.7340   -9.4420   21.6380 C   0  0  0  0  0  3  0  0  0  0  0  0
  -23.7740   -8.4520   21.9410 C   0  0  0  0  0  3  0  0  0  0  0  0
  -22.4700   -8.5410   21.4000 C   0  0  0  0  0  0  0  0  0  0  0  0
  -22.1540   -9.6080   20.5410 C   0  0  0  0  0  3  0  0  0  0  0  0
  -23.1130  -10.5880   20.2360 C   0  0  0  0  0  3  0  0  0  0  0  0
  -21.4800   -7.6140   21.6190 O   0  0  0  0  0  0  0  0  0  0  0  0
  -21.3990   -6.9110   22.7940 C   0  0  0  0  0  0  0  0  0  0  0  0
  -21.2650   -7.5570   24.0410 C   0  0  0  0  0  3  0  0  0  0  0  0
  -21.1140   -6.7950   25.2180 C   0  0  0  0  0  3  0  0  0  0  0  0
  -21.0900   -5.3900   25.1480 C   0  0  0  0  0  0  0  0  0  0  0  0
  -21.2180   -4.7430   23.9060 C   0  0  0  0  0  3  0  0  0  0  0  0
  -21.3690   -5.5030   22.7320 C   0  0  0  0  0  0  0  0  0  0  0  0
  -21.4710   -4.8770   21.5350 F   0  0  0  0  0  0  0  0  0  0  0  0
  -20.9370   -4.6570   26.2760 F   0  0  0  0  0  0  0  0  0  0  0  0
  -24.1820  -13.7780   21.2510 C   0  0  0  0  0  0  0  0  0  0  0  0
  -23.5150  -13.2270   22.2590 N   0  0  0  0  0  0  0  0  0  0  0  0
  -23.9140  -14.9120   20.8540 O   0  0  0  0  0  0  0  0  0  0  0  0
  -23.7430  -12.3050   22.5990 H   0  0  0  0  0  0  0  0  0  0  0  0
  -22.7640  -13.7390   22.7030 H   0  0  0  0  0  0  0  0  0  0  0  0
  -26.9200  -14.7960   19.8980 N   0  0  0  0  0  0  0  0  0  0  0  0
  -26.4060  -15.6110   20.2150 H   0  0  0  0  0  0  0  0  0  0  0  0
  -27.7670  -15.0340   19.3950 H   0  0  0  0  0  0  0  0  0  0  0  0
  -28.0410  -27.0940   21.7880 C   0  0  0  0  0  2  0  0  0  0  0  0
  -28.8300  -26.7240   20.4980 C   0  0  0  0  0  2  0  0  0  0  0  0
  -28.7550  -27.7230   19.4720 O   0  0  0  0  0  0  0  0  0  0  0  0
  -24.1770  -31.7160   23.0210 C   0  0  0  0  0  0  0  0  0  0  0  0
  -27.5130  -28.2880   19.4140 C   0  0  0  0  0  0  0  0  0  0  0  0
  -23.2170  -30.3590   21.1840 C   0  0  0  0  0  3  0  0  0  0  0  0
  -24.9000  -29.2880   19.5930 C   0  0  0  0  0  0  0  0  0  0  0  0
  -25.6400  -31.1640   21.0890 C   0  0  0  0  0  2  0  0  0  0  0  0
  -25.9450  -29.9440   20.2510 C   0  0  0  0  0  0  0  0  0  0  0  0
  -27.2600  -29.4690   20.1370 C   0  0  0  0  0  3  0  0  0  0  0  0
  -26.4680  -27.6260   18.7490 C   0  0  0  0  0  3  0  0  0  0  0  0
  -25.1540  -28.1280   18.8320 C   0  0  0  0  0  3  0  0  0  0  0  0
  -23.5270  -29.8980   19.7330 C   0  0  0  0  0  2  0  0  0  0  0  0
  -24.3590  -31.0880   21.8220 N   0  0  0  0  0  0  0  0  0  0  0  0
  -23.0690  -31.7390   23.5710 O   0  0  0  0  0  0  0  0  0  0  0  0
  -22.7380  -29.1350   21.9950 C   0  0  0  0  0  0  0  0  0  0  0  0
  -21.4740  -28.7370   21.7840 N   0  0  0  0  0  0  0  0  0  0  0  0
  -23.5050  -28.5470   22.7640 O   0  0  0  0  0  0  0  0  0  0  0  0
  -20.9030  -29.2870   21.1570 H   0  0  0  0  0  0  0  0  0  0  0  0
  -18.3970  -26.8570   21.8870 C   0  0  0  0  0  0  0  0  0  0  0  0
  -20.8220  -27.5850   22.4030 C   0  0  0  0  0  3  0  0  0  0  0  0
  -21.2590  -26.2690   21.7230 C   0  0  0  0  0  2  0  0  0  0  0  0
  -20.3190  -25.8360   20.5950 C   0  0  0  0  0  2  0  0  0  0  0  0
  -18.8940  -25.6400   21.1250 C   0  0  0  0  0  2  0  0  0  0  0  0
  -19.3040  -27.7770   22.4750 C   0  0  0  0  0  0  0  0  0  0  0  0
  -18.7950  -28.9110   23.1440 C   0  0  0  0  0  3  0  0  0  0  0  0
  -17.4080  -29.1280   23.2380 C   0  0  0  0  0  3  0  0  0  0  0  0
  -16.5120  -28.2060   22.6720 C   0  0  0  0  0  3  0  0  0  0  0  0
  -17.0070  -27.0740   21.9980 C   0  0  0  0  0  3  0  0  0  0  0  0
  -25.3470  -32.4590   23.7430 C   0  0  0  0  0  3  0  0  0  0  0  0
  -25.7930  -31.7600   25.0870 C   0  0  1  0  0  0  0  0  0  0  0  0
  -24.6220  -31.4690   26.0530 C   0  0  0  0  0  1  0  0  0  0  0  0
  -26.5210  -30.4250   24.8000 C   0  0  0  0  0  1  0  0  0  0  0  0
  -26.8040  -32.6570   25.8350 C   0  0  0  0  0  1  0  0  0  0  0  0
  -24.9060  -33.8370   24.0010 N   0  0  0  0  0  0  0  0  0  0  0  0
  -25.2580  -34.8990   23.2630 C   0  0  0  0  0  0  0  0  0  0  0  0
  -26.0570  -34.8290   22.3260 O   0  0  0  0  0  0  0  0  0  0  0  0
  -24.2040  -33.9600   24.7150 H   0  0  0  0  0  0  0  0  0  0  0  0
  -23.4540  -36.5490   22.6700 C   0  0  0  0  0  1  0  0  0  0  0  0
  -24.6220  -36.2570   23.6250 C   0  0  0  0  0  3  0  0  0  0  0  0
  -26.5940  -37.2990   24.6480 C   0  0  0  0  0  1  0  0  0  0  0  0
  -25.5810  -37.3810   23.6000 N   0  0  0  0  0  0  0  0  0  0  0  0
  -25.0980  -38.2710   23.7000 H   0  0  0  0  0  0  0  0  0  0  0  0
  1  3  1  0
  3  2  2  0
  3  7  1  0
  4  6  1  0
  4  1  2  0
  5  9  1  0
  5  2  1  0
  6  5  2  0
  8  6  1  0
  9 11  1  0
 10  9  1  0
 12 13  1  0
 12 11  1  0
 14 13  1  0
 15 14  1  0
 16 15  1  0
 17 16  1  0
 18 17  1  0
 19 25  1  0
 19 27  1  0
 20 25  1  0
 21 22  1  0
 21 20  1  0
 23 22  1  0
 23 32  1  0
 23 24  1  0
 25 24  1  0
 26 19  2  0
 27 18  1  0
 27 28  1  0
 29 30  2  0
 30 49  1  0
 31 30  1  0
 31 34  1  0
 32 33  1  0
 32 29  1  0
 33 31  2  0
 34 35  1  0
 35 36  2  0
 37 40  1  0
 37 36  1  0
 38 37  2  0
 39 38  1  0
 39 34  2  0
 40 41  1  0
 41 42  1  0
 42 43  2  0
 44 43  1  0
 44 48  1  0
 45 44  2  0
 46 41  2  0
 46 45  1  0
 47 46  1  0
 49 50  1  0
 50 52  1  0
 50 53  1  0
 51 49  2  0
 54 29  1  0
 54 55  1  0
 56 54  1  0
 57  4  1  0
 58 57  1  0
 59 58  1  0
 60 71  2  0
 61 59  1  0
 61 66  1  0
 62 70  1  0
 62 72  1  0
 63 69  1  0
 63 65  1  0
 64 70  1  0
 65 64  1  0
 66 65  2  0
 67 68  1  0
 67 61  2  0
 68 63  2  0
 69 62  1  0
 70 60  1  0
 72 74  2  0
 73 72  1  0
 75 73  1  0
 76 85  2  0
 76 81  1  0
 77 73  1  0
 77 81  1  0
 78 77  1  0
 79 80  1  0
 79 78  1  0
 80 76  1  0
 81 82  2  0
 82 83  1  0
 84 83  2  0
 85 84  1  0
 86 60  1  0
 86 91  1  0
 86 87  1  0
 87 90  1  1
 87 88  1  0
 89 87  1  0
 91 94  1  0
 92 96  1  0
 92 91  1  0
 93 92  2  0
 96 95  1  0
 98 96  1  0
 98 99  1  0
 98 97  1  0
M  ISO  4  19 100  27 100  58 101  59 101
M  END
>  <TORSDO>  (39) 
F 27

>  <SCORE>  (39) 
-2.229

>  <name>  (39) 
38

>  <ligand_id>  (39) 
38

>  <original_smiles>  (39) 
[H]c1c([H])c([H])c2c(c1[H])C([H])([H])C([H])([H])C([H])([H])C2([H])N([H])C(=O)C1([H])N(C(=O)C([H])(N([H])C(=O)C([H])(N([H])C([H])([H])[H])C([H])([H])[H])C(C([H])([H])[H])(C([H])([H])[H])C([H])([H])[H])C([H])([H])c2c([H])c(OC([H])([H])C([H])([H])c3c([H])c(C([H])([H])[H])c([H])c(N([H])C([H])([H])C([H])([H])C([H])([H])C([H])([H])C([H])([H])C([H])([H])C([H])([H])C([H])([H])N([H])C(=O)N4C([H])([H])C([H])([H])C([H])([H])C([H])(n5nc(-c6c([H])c([H])c(Oc7c([H])c([H])c(F)c([H])c7F)c([H])c6[H])c(C(=O)N([H])[H])c5N([H])[H])C4([H])[H])c3Cl)c([H])c([H])c2C1([H])[H]

>  <smiles>  (39) 
[H]c1c([H])c([H])c2c(c1[H])C([H])([H])C([H])([H])C([H])([H])C2([H])N([H])C(=O)C1([H])N(C(=O)C([H])(N([H])C(=O)C([H])(N([H])C([H])([H])[H])C([H])([H])[H])C(C([H])([H])[H])(C([H])([H])[H])C([H])([H])[H])C([H])([H])c2c([H])c(OC([H])([H])C([H])([H])c3c([H])c(C([H])([H])[H])c([H])c(N([H])C([H])([H])C([H])([H])C([H])([H])C([H])([H])C([H])([H])C([H])([H])C([H])([H])C([H])([H])N([H])C(=O)N4C([H])([H])C([H])([H])C([H])([H])C([H])(n5nc(-c6c([H])c([H])c(Oc7c([H])c([H])c(F)c([H])c7F)c([H])c6[H])c(C(=O)N([H])[H])c5N([H])[H])C4([H])[H])c3Cl)c([H])c([H])c2C1([H])[H]

$$$$
39:0:0
     RDKit          3D

 94102  0  0  1  0  0  0  0  0999 V2000
  -27.8400  -19.0590   17.9670 C   0  0  0  0  0  2  0  0  0  0  0  0
  -29.5520  -19.5680   19.7900 C   0  0  0  0  0  0  0  0  0  0  0  0
  -30.2280  -20.7400   20.2010 C   0  0  0  0  0  0  0  0  0  0  0  0
  -28.5860  -19.9820   18.9100 C   0  0  0  0  0  0  0  0  0  0  0  0
  -29.5060  -21.8450   19.8440 C   0  0  0  0  0  0  0  0  0  0  0  0
  -29.9080  -18.1530   20.1820 C   0  0  0  0  0  1  0  0  0  0  0  0
  -29.6500  -23.3030   20.1780 C   0  0  0  0  0  1  0  0  0  0  0  0
  -27.5950  -22.2960   18.2940 C   0  0  0  0  0  1  0  0  0  0  0  0
  -28.5080  -21.3860   18.9890 N   0  0  0  0  0  0  0  0  0  0  0  0
  -32.6210  -21.1040   20.2870 C   0  0  0  0  0  0  0  0  0  0  0  0
  -34.9000  -20.4730   19.5530 C   0  0  0  0  0  2  0  0  0  0  0  0
  -34.8950  -20.0780   18.0640 C   0  0  0  0  0  2  0  0  0  0  0  0
  -34.5350  -18.5910   17.8840 C   0  0  0  0  0  2  0  0  0  0  0  0
  -33.2560  -18.1990   18.6710 C   0  0  0  0  0  3  0  0  0  0  0  0
  -33.3650  -18.6970   20.1290 C   0  0  0  0  0  2  0  0  0  0  0  0
  -33.5810  -20.1560   20.1250 N   0  0  0  0  0  0  0  0  0  0  0  0
  -32.8030  -22.2950   20.0170 O   0  0  0  0  0  0  0  0  0  0  0  0
  -31.4850  -20.6650   20.8540 N   0  0  0  0  0  0  0  0  0  0  0  0
  -31.6390  -19.7700   21.2890 H   0  0  0  0  0  0  0  0  0  0  0  0
  -32.4840  -15.9900   17.5800 C   0  0  0  0  0  0  0  0  0  0  0  0
  -32.5350  -14.6950   18.0110 C   0  0  0  0  0  0  0  0  0  0  0  0
  -33.1490  -14.7330   19.3010 C   0  0  0  0  0  0  0  0  0  0  0  0
  -33.0190  -16.7570   18.6050 N   0  0  0  0  0  0  0  0  0  0  0  0
  -33.3810  -15.9860   19.6620 N   0  0  0  0  0  0  0  0  0  0  0  0
  -33.5830  -13.6440   20.1860 C   0  0  0  0  0  0  0  0  0  0  0  0
  -32.6880  -13.0100   21.0770 C   0  0  0  0  0  3  0  0  0  0  0  0
  -33.1310  -11.9550   21.9040 C   0  0  0  0  0  3  0  0  0  0  0  0
  -34.4750  -11.5200   21.8420 C   0  0  0  0  0  0  0  0  0  0  0  0
  -35.3670  -12.1710   20.9720 C   0  0  0  0  0  3  0  0  0  0  0  0
  -34.9270  -13.2250   20.1530 C   0  0  0  0  0  3  0  0  0  0  0  0
  -34.9970  -10.5180   22.6220 O   0  0  0  0  0  0  0  0  0  0  0  0
  -34.4850   -9.2460   22.5980 C   0  0  0  0  0  0  0  0  0  0  0  0
  -34.9030   -8.2940   21.6430 C   0  0  0  0  0  3  0  0  0  0  0  0
  -34.4000   -6.9780   21.6950 C   0  0  0  0  0  3  0  0  0  0  0  0
  -33.4930   -6.6100   22.7060 C   0  0  0  0  0  0  0  0  0  0  0  0
  -33.0810   -7.5540   23.6620 C   0  0  0  0  0  3  0  0  0  0  0  0
  -33.5780   -8.8690   23.6080 C   0  0  0  0  0  0  0  0  0  0  0  0
  -33.1940   -9.7710   24.5440 F   0  0  0  0  0  0  0  0  0  0  0  0
  -33.0160   -5.3430   22.7620 F   0  0  0  0  0  0  0  0  0  0  0  0
  -32.1330  -13.4760   17.2320 C   0  0  0  0  0  0  0  0  0  0  0  0
  -31.1620  -12.7210   17.7340 N   0  0  0  0  0  0  0  0  0  0  0  0
  -32.6480  -13.2110   16.1480 O   0  0  0  0  0  0  0  0  0  0  0  0
  -30.7260  -12.9490   18.6160 H   0  0  0  0  0  0  0  0  0  0  0  0
  -30.8590  -11.8970   17.2340 H   0  0  0  0  0  0  0  0  0  0  0  0
  -32.0420  -16.5840   16.4000 N   0  0  0  0  0  0  0  0  0  0  0  0
  -31.6550  -16.0410   15.6360 H   0  0  0  0  0  0  0  0  0  0  0  0
  -32.0170  -17.5830   16.2380 H   0  0  0  0  0  0  0  0  0  0  0  0
  -28.0520  -19.1500   16.4510 C   0  0  0  0  0  2  0  0  0  0  0  0
  -29.5400  -19.2210   16.0690 C   0  0  0  0  0  2  0  0  0  0  0  0
  -29.7770  -19.3080   14.5610 C   0  0  0  0  0  2  0  0  0  0  0  0
  -30.2430  -20.6730   14.0100 C   0  0  0  0  0  2  0  0  0  0  0  0
  -30.0340  -20.6500   12.4960 C   0  0  0  0  0  2  0  0  0  0  0  0
  -30.1490  -21.9770   11.7300 C   0  0  0  0  0  2  0  0  0  0  0  0
  -29.7320  -21.8770   10.3620 O   0  0  0  0  0  0  0  0  0  0  0  0
  -26.5140  -27.8950    8.3100 C   0  0  0  0  0  0  0  0  0  0  0  0
  -28.5570  -22.5060   10.0130 C   0  0  0  0  0  0  0  0  0  0  0  0
  -25.0220  -26.0280    8.9230 C   0  0  0  0  0  3  0  0  0  0  0  0
  -26.1510  -23.7660    9.2320 C   0  0  0  0  0  0  0  0  0  0  0  0
  -27.3790  -25.5780    8.0310 C   0  0  0  0  0  2  0  0  0  0  0  0
  -27.3870  -24.3180    8.8660 C   0  0  0  0  0  0  0  0  0  0  0  0
  -28.5930  -23.6990    9.2620 C   0  0  0  0  0  3  0  0  0  0  0  0
  -27.2990  -21.9350   10.3190 C   0  0  0  0  0  3  0  0  0  0  0  0
  -26.1010  -22.5750    9.9670 C   0  0  0  0  0  3  0  0  0  0  0  0
  -24.9060  -24.4870    8.7760 C   0  0  0  0  0  2  0  0  0  0  0  0
  -26.3370  -26.5510    8.4330 N   0  0  0  0  0  0  0  0  0  0  0  0
  -25.5970  -28.6880    8.5600 O   0  0  0  0  0  0  0  0  0  0  0  0
  -24.7250  -26.3970   10.3940 C   0  0  0  0  0  0  0  0  0  0  0  0
  -23.4310  -26.5630   10.7170 N   0  0  0  0  0  0  0  0  0  0  0  0
  -25.6390  -26.5030   11.2160 O   0  0  0  0  0  0  0  0  0  0  0  0
  -22.7420  -26.4950    9.9810 H   0  0  0  0  0  0  0  0  0  0  0  0
  -20.4180  -27.2760   12.5680 C   0  0  0  0  0  0  0  0  0  0  0  0
  -22.9160  -26.8680   12.0520 C   0  0  0  0  0  3  0  0  0  0  0  0
  -22.7810  -25.5910   12.9150 C   0  0  0  0  0  2  0  0  0  0  0  0
  -21.3880  -24.9550   12.8300 C   0  0  0  0  0  2  0  0  0  0  0  0
  -20.3130  -25.9470   13.2910 C   0  0  0  0  0  2  0  0  0  0  0  0
  -21.6340  -27.7000   11.9700 C   0  0  0  0  0  0  0  0  0  0  0  0
  -21.6680  -28.9300   11.2790 C   0  0  0  0  0  3  0  0  0  0  0  0
  -20.5140  -29.7270   11.1740 C   0  0  0  0  0  3  0  0  0  0  0  0
  -19.3130  -29.3100   11.7750 C   0  0  0  0  0  3  0  0  0  0  0  0
  -19.2690  -28.0940   12.4810 C   0  0  0  0  0  3  0  0  0  0  0  0
  -27.8680  -28.5000    7.8250 C   0  0  0  0  0  3  0  0  0  0  0  0
  -27.5720  -29.7860    7.1810 N   0  0  0  0  0  0  0  0  0  0  0  0
  -27.2930  -29.9360    5.8790 C   0  0  0  0  0  0  0  0  0  0  0  0
  -27.3350  -29.0030    5.0710 O   0  0  0  0  0  0  0  0  0  0  0  0
  -27.4680  -30.5820    7.7940 H   0  0  0  0  0  0  0  0  0  0  0  0
  -25.3810  -31.4780    5.3420 C   0  0  0  0  0  1  0  0  0  0  0  0
  -26.9120  -31.3470    5.3960 C   0  0  0  0  0  3  0  0  0  0  0  0
  -28.8930  -32.0900    4.1480 C   0  0  0  0  0  1  0  0  0  0  0  0
  -27.4880  -31.6920    4.0780 N   0  0  0  0  0  0  0  0  0  0  0  0
  -26.9650  -32.4480    3.6450 H   0  0  0  0  0  0  0  0  0  0  0  0
  -28.9180  -28.6850    8.9910 C   0  0  1  0  0  0  0  0  0  0  0  0
  -28.2740  -28.8240   10.3910 C   0  0  0  0  0  1  0  0  0  0  0  0
  -29.8960  -27.4880    9.0340 C   0  0  0  0  0  1  0  0  0  0  0  0
  -29.7740  -29.9470    8.7270 C   0  0  0  0  0  1  0  0  0  0  0  0
  1  4  1  0
  2  6  1  0
  2  3  1  0
  3 18  1  0
  4  9  1  0
  4  2  2  0
  5  7  1  0
  5  3  2  0
  8  9  1  0
  9  5  1  0
 10 18  1  0
 11 16  1  0
 12 11  1  0
 13 12  1  0
 14 13  1  0
 14 15  1  0
 16 15  1  0
 16 10  1  0
 17 10  2  0
 18 19  1  0
 20 21  2  0
 20 23  1  0
 21 22  1  0
 22 24  2  0
 22 25  1  0
 23 14  1  0
 23 24  1  0
 25 26  1  0
 26 27  2  0
 28 27  1  0
 28 31  1  0
 29 28  2  0
 30 25  2  0
 30 29  1  0
 32 31  1  0
 32 37  1  0
 33 34  1  0
 33 32  2  0
 34 35  2  0
 35 39  1  0
 35 36  1  0
 37 36  2  0
 37 38  1  0
 40 41  1  0
 40 21  1  0
 41 43  1  0
 42 40  2  0
 44 41  1  0
 45 20  1  0
 46 45  1  0
 47 45  1  0
 48  1  1  0
 49 48  1  0
 50 49  1  0
 51 50  1  0
 52 51  1  0
 53 52  1  0
 54 53  1  0
 55 65  1  0
 55 66  2  0
 56 62  1  0
 56 54  1  0
 57 67  1  0
 58 63  1  0
 59 65  1  0
 59 60  1  0
 60 58  2  0
 60 61  1  0
 61 56  2  0
 63 62  2  0
 64 57  1  0
 64 58  1  0
 65 57  1  0
 67 68  1  0
 67 69  2  0
 70 68  1  0
 71 75  1  0
 72 68  1  0
 72 73  1  0
 74 73  1  0
 74 75  1  0
 76 72  1  0
 76 71  2  0
 77 76  1  0
 78 77  2  0
 78 79  1  0
 79 80  2  0
 80 71  1  0
 81 55  1  0
 81 91  1  0
 82 85  1  0
 82 81  1  0
 83 82  1  0
 84 83  2  0
 87 86  1  0
 87 83  1  0
 89 88  1  0
 89 87  1  0
 90 89  1  0
 91 93  1  1
 91 92  1  0
 94 91  1  0
M  ISO  4  10 100  18 100  53 101  54 101
M  END
>  <TORSDO>  (40) 
F 23

>  <SCORE>  (40) 
-6.761

>  <name>  (40) 
39

>  <ligand_id>  (40) 
39

>  <original_smiles>  (40) 
[H]c1c([H])c([H])c2c(c1[H])C([H])([H])C([H])([H])C([H])([H])C2([H])N([H])C(=O)C1([H])N(C(=O)C([H])(N([H])C(=O)C([H])(N([H])C([H])([H])[H])C([H])([H])[H])C(C([H])([H])[H])(C([H])([H])[H])C([H])([H])[H])C([H])([H])c2c([H])c(OC([H])([H])C([H])([H])C([H])([H])C([H])([H])C([H])([H])C([H])([H])C([H])([H])c3c(C([H])([H])[H])c(N([H])C(=O)N4C([H])([H])C([H])([H])C([H])([H])C([H])(n5nc(-c6c([H])c([H])c(Oc7c([H])c([H])c(F)c([H])c7F)c([H])c6[H])c(C(=O)N([H])[H])c5N([H])[H])C4([H])[H])c(C([H])([H])[H])n3C([H])([H])[H])c([H])c([H])c2C1([H])[H]

>  <smiles>  (40) 
[H]c1c([H])c([H])c2c(c1[H])C([H])([H])C([H])([H])C([H])([H])C2([H])N([H])C(=O)C1([H])N(C(=O)C([H])(N([H])C(=O)C([H])(N([H])C([H])([H])[H])C([H])([H])[H])C(C([H])([H])[H])(C([H])([H])[H])C([H])([H])[H])C([H])([H])c2c([H])c(OC([H])([H])C([H])([H])C([H])([H])C([H])([H])C([H])([H])C([H])([H])C([H])([H])c3c(C([H])([H])[H])c(N([H])C(=O)N4C([H])([H])C([H])([H])C([H])([H])C([H])(n5nc(-c6c([H])c([H])c(Oc7c([H])c([H])c(F)c([H])c7F)c([H])c6[H])c(C(=O)N([H])[H])c5N([H])[H])C4([H])[H])c(C([H])([H])[H])n3C([H])([H])[H])c([H])c([H])c2C1([H])[H]

$$$$
40:0:0
     RDKit          3D

 97105  0  0  1  0  0  0  0  0999 V2000
  -31.3910  -23.2760   19.1270 C   0  0  0  0  0  3  0  0  0  0  0  0
  -31.2330  -21.8270   19.6630 C   0  0  0  0  0  2  0  0  0  0  0  0
  -30.2240  -20.9370   18.9030 C   0  0  0  0  0  2  0  0  0  0  0  0
  -29.5990  -18.9550   20.3730 C   0  0  0  0  0  3  0  0  0  0  0  0
  -31.1630  -17.2070   18.8390 C   0  0  0  0  0  3  0  0  0  0  0  0
  -30.3240  -19.4610   19.2720 C   0  0  0  0  0  0  0  0  0  0  0  0
  -30.4300  -16.6900   19.9370 C   0  0  0  0  0  0  0  0  0  0  0  0
  -29.6440  -17.5840   20.7000 C   0  0  0  0  0  0  0  0  0  0  0  0
  -31.1130  -18.5730   18.5050 C   0  0  0  0  0  0  0  0  0  0  0  0
  -28.7080  -17.0030   22.0330 Cl  0  0  0  0  0  0  0  0  0  0  0  0
  -32.0130  -19.1230   17.1350 Cl  0  0  0  0  0  0  0  0  0  0  0  0
  -30.9740  -14.2770   19.6300 C   0  0  0  0  0  0  0  0  0  0  0  0
  -30.4440  -12.1740   18.4820 C   0  0  0  0  0  2  0  0  0  0  0  0
  -29.3820  -12.4770   17.4060 C   0  0  0  0  0  2  0  0  0  0  0  0
  -27.9630  -12.3820   18.0040 C   0  0  0  0  0  2  0  0  0  0  0  0
  -27.8150  -13.1830   19.3250 C   0  0  0  0  0  3  0  0  0  0  0  0
  -28.9820  -12.8790   20.2920 C   0  0  0  0  0  2  0  0  0  0  0  0
  -30.2480  -13.1320   19.5820 N   0  0  0  0  0  0  0  0  0  0  0  0
  -32.0470  -14.4150   19.0380 O   0  0  0  0  0  0  0  0  0  0  0  0
  -30.3880  -15.2990   20.2730 N   0  0  0  0  0  0  0  0  0  0  0  0
  -29.6510  -15.0450   20.9160 H   0  0  0  0  0  0  0  0  0  0  0  0
  -25.5510  -13.8540   20.3550 C   0  0  0  0  0  0  0  0  0  0  0  0
  -24.5000  -13.1090   20.8170 C   0  0  0  0  0  0  0  0  0  0  0  0
  -24.8860  -11.7420   20.6620 C   0  0  0  0  0  0  0  0  0  0  0  0
  -26.5160  -12.9430   19.9530 N   0  0  0  0  0  0  0  0  0  0  0  0
  -26.1260  -11.6650   20.1940 N   0  0  0  0  0  0  0  0  0  0  0  0
  -24.1280  -10.5040   20.8810 C   0  0  0  0  0  0  0  0  0  0  0  0
  -24.5670   -9.5200   21.7940 C   0  0  0  0  0  3  0  0  0  0  0  0
  -23.8110   -8.3460   22.0000 C   0  0  0  0  0  3  0  0  0  0  0  0
  -22.6020   -8.1470   21.2930 C   0  0  0  0  0  0  0  0  0  0  0  0
  -22.1800   -9.1190   20.3680 C   0  0  0  0  0  3  0  0  0  0  0  0
  -22.9360  -10.2850   20.1610 C   0  0  0  0  0  3  0  0  0  0  0  0
  -21.8160   -7.0260   21.4110 O   0  0  0  0  0  0  0  0  0  0  0  0
  -21.7250   -6.3310   22.5900 C   0  0  0  0  0  0  0  0  0  0  0  0
  -21.2880   -6.9420   23.7850 C   0  0  0  0  0  3  0  0  0  0  0  0
  -21.1430   -6.1740   24.9570 C   0  0  0  0  0  3  0  0  0  0  0  0
  -21.4230   -4.7940   24.9340 C   0  0  0  0  0  0  0  0  0  0  0  0
  -21.8520   -4.1820   23.7430 C   0  0  0  0  0  3  0  0  0  0  0  0
  -21.9990   -4.9470   22.5730 C   0  0  0  0  0  0  0  0  0  0  0  0
  -22.3940   -4.3490   21.4240 F   0  0  0  0  0  0  0  0  0  0  0  0
  -21.2760   -4.0540   26.0570 F   0  0  0  0  0  0  0  0  0  0  0  0
  -23.1710  -13.6310   21.2850 C   0  0  0  0  0  0  0  0  0  0  0  0
  -22.5420  -12.9430   22.2320 N   0  0  0  0  0  0  0  0  0  0  0  0
  -22.7060  -14.6800   20.8460 O   0  0  0  0  0  0  0  0  0  0  0  0
  -22.9330  -12.0940   22.6090 H   0  0  0  0  0  0  0  0  0  0  0  0
  -21.6560  -13.2740   22.5850 H   0  0  0  0  0  0  0  0  0  0  0  0
  -25.7610  -15.2230   20.2260 N   0  0  0  0  0  0  0  0  0  0  0  0
  -25.0500  -15.9040   20.4710 H   0  0  0  0  0  0  0  0  0  0  0  0
  -26.5960  -15.6440   19.8390 H   0  0  0  0  0  0  0  0  0  0  0  0
  -30.0800  -24.0990   19.1840 C   0  0  0  0  0  2  0  0  0  0  0  0
  -29.5860  -24.4030   20.6100 C   0  0  0  0  0  2  0  0  0  0  0  0
  -28.2680  -25.1870   20.6300 C   0  0  0  0  0  2  0  0  0  0  0  0
  -28.4240  -26.5090   20.1060 O   0  0  0  0  0  0  0  0  0  0  0  0
  -24.4520  -31.5540   23.1450 C   0  0  0  0  0  0  0  0  0  0  0  0
  -27.2500  -27.2210   20.0690 C   0  0  0  0  0  0  0  0  0  0  0  0
  -23.3090  -30.1520   21.4570 C   0  0  0  0  0  3  0  0  0  0  0  0
  -24.8250  -28.6670   20.0440 C   0  0  0  0  0  0  0  0  0  0  0  0
  -25.8290  -30.5690   21.3170 C   0  0  0  0  0  2  0  0  0  0  0  0
  -25.9570  -29.2100   20.6640 C   0  0  0  0  0  0  0  0  0  0  0  0
  -27.1760  -28.4960   20.6730 C   0  0  0  0  0  3  0  0  0  0  0  0
  -26.1040  -26.6920   19.4360 C   0  0  0  0  0  3  0  0  0  0  0  0
  -24.8920  -27.4060   19.4260 C   0  0  0  0  0  3  0  0  0  0  0  0
  -23.5610  -29.4950   20.0740 C   0  0  0  0  0  2  0  0  0  0  0  0
  -24.5480  -30.7720   22.0330 N   0  0  0  0  0  0  0  0  0  0  0  0
  -23.3550  -31.7980   23.6650 O   0  0  0  0  0  0  0  0  0  0  0  0
  -22.6600  -29.1040   22.3880 C   0  0  0  0  0  0  0  0  0  0  0  0
  -21.3410  -28.9030   22.2330 N   0  0  0  0  0  0  0  0  0  0  0  0
  -23.3390  -28.4770   23.2060 O   0  0  0  0  0  0  0  0  0  0  0  0
  -20.8570  -29.4620   21.5450 H   0  0  0  0  0  0  0  0  0  0  0  0
  -17.9770  -27.6530   22.6450 C   0  0  0  0  0  0  0  0  0  0  0  0
  -20.5250  -27.9410   22.9720 C   0  0  0  0  0  3  0  0  0  0  0  0
  -20.6600  -26.5210   22.3740 C   0  0  0  0  0  2  0  0  0  0  0  0
  -19.5820  -26.2010   21.3340 C   0  0  0  0  0  2  0  0  0  0  0  0
  -18.1860  -26.3160   21.9530 C   0  0  0  0  0  2  0  0  0  0  0  0
  -19.0760  -28.4220   23.1090 C   0  0  0  0  0  0  0  0  0  0  0  0
  -18.8290  -29.6740   23.7130 C   0  0  0  0  0  3  0  0  0  0  0  0
  -17.5140  -30.1550   23.8610 C   0  0  0  0  0  3  0  0  0  0  0  0
  -16.4300  -29.3810   23.4130 C   0  0  0  0  0  3  0  0  0  0  0  0
  -16.6610  -28.1320   22.8100 C   0  0  0  0  0  3  0  0  0  0  0  0
  -25.7130  -32.1990   23.8020 C   0  0  0  0  0  3  0  0  0  0  0  0
  -25.3780  -33.5910   24.1280 N   0  0  0  0  0  0  0  0  0  0  0  0
  -25.7120  -34.6490   23.3770 C   0  0  0  0  0  0  0  0  0  0  0  0
  -26.4060  -34.5570   22.3610 O   0  0  0  0  0  0  0  0  0  0  0  0
  -24.7630  -33.7350   24.9150 H   0  0  0  0  0  0  0  0  0  0  0  0
  -23.9650  -36.4130   22.9830 C   0  0  0  0  0  1  0  0  0  0  0  0
  -25.1920  -36.0280   23.8230 C   0  0  0  0  0  3  0  0  0  0  0  0
  -27.2890  -36.9470   24.7090 C   0  0  0  0  0  1  0  0  0  0  0  0
  -26.2100  -37.0970   23.7360 N   0  0  0  0  0  0  0  0  0  0  0  0
  -25.7860  -38.0110   23.8700 H   0  0  0  0  0  0  0  0  0  0  0  0
  -26.2100  -31.4280   25.0850 C   0  0  1  0  0  0  0  0  0  0  0  0
  -25.0950  -31.1710   26.1260 C   0  0  0  0  0  1  0  0  0  0  0  0
  -26.8200  -30.0600   24.6980 C   0  0  0  0  0  1  0  0  0  0  0  0
  -27.3360  -32.2310   25.7780 C   0  0  0  0  0  1  0  0  0  0  0  0
  -32.0280  -23.2680   17.7120 C   0  0  0  0  0  2  0  0  0  0  0  0
  -33.5440  -25.3220   18.0430 C   0  0  0  0  0  1  0  0  0  0  0  0
  -33.0810  -24.4380   15.7320 C   0  0  0  0  0  1  0  0  0  0  0  0
  -32.5080  -24.6270   17.1450 C   0  0  0  0  0  3  0  0  0  0  0  0
  1 94  1  0
  1 50  1  0
  1  2  1  0
  3  6  1  0
  3  2  1  0
  4  8  1  0
  5  7  1  0
  6  4  2  0
  7 20  1  0
  7  8  2  0
  8 10  1  0
  9  5  2  0
  9  6  1  0
 11  9  1  0
 12 20  1  0
 13 18  1  0
 14 15  1  0
 14 13  1  0
 16 15  1  0
 16 25  1  0
 16 17  1  0
 18 12  1  0
 18 17  1  0
 19 12  2  0
 20 21  1  0
 22 23  2  0
 23 42  1  0
 24 23  1  0
 24 27  1  0
 25 26  1  0
 25 22  1  0
 26 24  2  0
 27 28  1  0
 28 29  2  0
 30 33  1  0
 30 29  1  0
 31 30  2  0
 32 31  1  0
 32 27  2  0
 33 34  1  0
 34 35  1  0
 35 36  2  0
 37 36  1  0
 37 41  1  0
 38 37  2  0
 39 34  2  0
 39 38  1  0
 40 39  1  0
 42 43  1  0
 43 46  1  0
 43 45  1  0
 44 42  2  0
 47 22  1  0
 47 48  1  0
 49 47  1  0
 50 51  1  0
 51 52  1  0
 53 52  1  0
 54 65  2  0
 55 53  1  0
 55 60  1  0
 56 64  1  0
 56 66  1  0
 57 63  1  0
 57 59  1  0
 58 64  1  0
 59 60  2  0
 59 58  1  0
 61 55  2  0
 62 61  1  0
 62 57  2  0
 63 56  1  0
 64 54  1  0
 66 68  2  0
 67 66  1  0
 69 67  1  0
 70 79  2  0
 70 75  1  0
 71 67  1  0
 71 75  1  0
 72 71  1  0
 73 74  1  0
 73 72  1  0
 74 70  1  0
 75 76  2  0
 76 77  1  0
 78 77  2  0
 79 78  1  0
 80 54  1  0
 80 81  1  0
 80 90  1  0
 81 84  1  0
 82 86  1  0
 82 81  1  0
 83 82  2  0
 86 85  1  0
 88 86  1  0
 88 89  1  0
 88 87  1  0
 90 93  1  1
 90 91  1  0
 92 90  1  0
 96 97  1  0
 97 94  1  0
 97 95  1  0
M  ISO  4  12 100  20 100  52 101  53 101
M  END
>  <TORSDO>  (41) 
F 24

>  <SCORE>  (41) 
-10.235

>  <name>  (41) 
40

>  <ligand_id>  (41) 
40

>  <original_smiles>  (41) 
[H]c1c([H])c([H])c2c(c1[H])C([H])([H])C([H])([H])C([H])([H])C2([H])N([H])C(=O)C1([H])N(C(=O)C([H])(N([H])C(=O)C([H])(N([H])C([H])([H])[H])C([H])([H])[H])C(C([H])([H])[H])(C([H])([H])[H])C([H])([H])[H])C([H])([H])c2c([H])c(OC([H])([H])C([H])([H])C([H])([H])C([H])(C([H])([H])C([H])([H])c3c([H])c(Cl)c(N([H])C(=O)N4C([H])([H])C([H])([H])C([H])([H])C([H])(n5nc(-c6c([H])c([H])c(Oc7c([H])c([H])c(F)c([H])c7F)c([H])c6[H])c(C(=O)N([H])[H])c5N([H])[H])C4([H])[H])c([H])c3Cl)C([H])([H])C([H])(C([H])([H])[H])C([H])([H])[H])c([H])c([H])c2C1([H])[H]

>  <smiles>  (41) 
[H]c1c([H])c([H])c2c(c1[H])C([H])([H])C([H])([H])C([H])([H])C2([H])N([H])C(=O)C1([H])N(C(=O)C([H])(N([H])C(=O)C([H])(N([H])C([H])([H])[H])C([H])([H])[H])C(C([H])([H])[H])(C([H])([H])[H])C([H])([H])[H])C([H])([H])c2c([H])c(OC([H])([H])C([H])([H])C([H])([H])C([H])(C([H])([H])C([H])([H])c3c([H])c(Cl)c(N([H])C(=O)N4C([H])([H])C([H])([H])C([H])([H])C([H])(n5nc(-c6c([H])c([H])c(Oc7c([H])c([H])c(F)c([H])c7F)c([H])c6[H])c(C(=O)N([H])[H])c5N([H])[H])C4([H])[H])c([H])c3Cl)C([H])([H])C([H])(C([H])([H])[H])C([H])([H])[H])c([H])c([H])c2C1([H])[H]

$$$$
41:0:0
     RDKit          3D

 99108  0  0  1  0  0  0  0  0999 V2000
  -30.6400  -25.6170   19.2550 C   0  0  0  0  0  2  0  0  0  0  0  0
  -28.6320  -25.0430   17.9150 C   0  0  0  0  0  2  0  0  0  0  0  0
  -30.4290  -24.3360   20.0910 C   0  0  0  0  0  2  0  0  0  0  0  0
  -28.4110  -23.7940   18.7880 C   0  0  0  0  0  2  0  0  0  0  0  0
  -29.3090  -26.1950   18.7050 C   0  0  1  0  0  0  0  0  0  0  0  0
  -29.6880  -23.3330   19.3290 N   0  0  0  0  0  0  0  0  0  0  0  0
  -29.8000  -20.4060   21.6640 C   0  0  0  0  0  3  0  0  0  0  0  0
  -29.7570  -21.7320   21.1900 C   0  0  0  0  0  3  0  0  0  0  0  0
  -29.7790  -19.3280   20.7580 C   0  0  0  0  0  0  0  0  0  0  0  0
  -29.6730  -20.9150   18.8880 C   0  0  0  0  0  0  0  0  0  0  0  0
  -29.7010  -22.0040   19.8000 C   0  0  0  0  0  0  0  0  0  0  0  0
  -29.7010  -19.5870   19.3740 C   0  0  0  0  0  0  0  0  0  0  0  0
  -29.6370  -21.1250   17.3800 C   0  0  0  0  0  1  0  0  0  0  0  0
  -29.6700  -18.5500   18.5020 F   0  0  0  0  0  0  0  0  0  0  0  0
  -29.8630  -17.8970   21.2650 C   0  0  0  0  0  2  0  0  0  0  0  0
  -31.2880  -17.3280   21.1420 C   0  0  0  0  0  2  0  0  0  0  0  0
  -31.4840  -15.9460   21.7980 C   0  0  0  0  0  2  0  0  0  0  0  0
  -31.0050  -14.1210   20.1510 C   0  0  0  0  0  0  0  0  0  0  0  0
  -30.5260  -12.0220   18.9380 C   0  0  0  0  0  2  0  0  0  0  0  0
  -29.5400  -12.2330   17.7750 C   0  0  0  0  0  2  0  0  0  0  0  0
  -28.0840  -12.1440   18.2710 C   0  0  0  0  0  2  0  0  0  0  0  0
  -27.8290  -13.0260   19.5210 C   0  0  0  0  0  3  0  0  0  0  0  0
  -28.9110  -12.7820   20.5930 C   0  0  0  0  0  2  0  0  0  0  0  0
  -30.2340  -13.0170   19.9820 N   0  0  0  0  0  0  0  0  0  0  0  0
  -31.9920  -14.3760   19.4540 O   0  0  0  0  0  0  0  0  0  0  0  0
  -30.6730  -14.8830   21.2050 N   0  0  0  0  0  0  0  0  0  0  0  0
  -29.8570  -14.5870   21.7200 H   0  0  0  0  0  0  0  0  0  0  0  0
  -25.4930  -13.7410   20.3390 C   0  0  0  0  0  0  0  0  0  0  0  0
  -24.4080  -13.0180   20.7540 C   0  0  0  0  0  0  0  0  0  0  0  0
  -24.8020  -11.6460   20.6910 C   0  0  0  0  0  0  0  0  0  0  0  0
  -26.4840  -12.8140   20.0550 N   0  0  0  0  0  0  0  0  0  0  0  0
  -26.0720  -11.5480   20.3210 N   0  0  0  0  0  0  0  0  0  0  0  0
  -24.0270  -10.4180   20.9050 C   0  0  0  0  0  0  0  0  0  0  0  0
  -24.4210   -9.4510   21.8580 C   0  0  0  0  0  3  0  0  0  0  0  0
  -23.6480   -8.2870   22.0590 C   0  0  0  0  0  3  0  0  0  0  0  0
  -22.4660   -8.0800   21.3070 C   0  0  0  0  0  0  0  0  0  0  0  0
  -22.0920   -9.0360   20.3450 C   0  0  0  0  0  3  0  0  0  0  0  0
  -22.8650  -10.1910   20.1430 C   0  0  0  0  0  3  0  0  0  0  0  0
  -21.6660   -6.9690   21.4160 O   0  0  0  0  0  0  0  0  0  0  0  0
  -21.5600   -6.2730   22.5930 C   0  0  0  0  0  0  0  0  0  0  0  0
  -21.1080   -6.8850   23.7830 C   0  0  0  0  0  3  0  0  0  0  0  0
  -20.9460   -6.1170   24.9530 C   0  0  0  0  0  3  0  0  0  0  0  0
  -21.2250   -4.7370   24.9350 C   0  0  0  0  0  0  0  0  0  0  0  0
  -21.6710   -4.1250   23.7490 C   0  0  0  0  0  3  0  0  0  0  0  0
  -21.8350   -4.8910   22.5820 C   0  0  0  0  0  0  0  0  0  0  0  0
  -22.2440   -4.2910   21.4370 F   0  0  0  0  0  0  0  0  0  0  0  0
  -21.0630   -3.9960   26.0570 F   0  0  0  0  0  0  0  0  0  0  0  0
  -23.0490  -13.5570   21.0950 C   0  0  0  0  0  0  0  0  0  0  0  0
  -22.3290  -12.8850   21.9860 N   0  0  0  0  0  0  0  0  0  0  0  0
  -22.6370  -14.6080   20.6050 O   0  0  0  0  0  0  0  0  0  0  0  0
  -22.6740  -12.0320   22.4020 H   0  0  0  0  0  0  0  0  0  0  0  0
  -21.4180  -13.2280   22.2570 H   0  0  0  0  0  0  0  0  0  0  0  0
  -25.7160  -15.1040   20.1640 N   0  0  0  0  0  0  0  0  0  0  0  0
  -24.9900  -15.7970   20.3150 H   0  0  0  0  0  0  0  0  0  0  0  0
  -26.5760  -15.5040   19.8120 H   0  0  0  0  0  0  0  0  0  0  0  0
  -28.6000  -26.6070   19.8890 O   0  0  0  0  0  0  0  0  0  0  0  0
  -24.7140  -31.6230   23.0370 C   0  0  0  0  0  0  0  0  0  0  0  0
  -27.4180  -27.3140   19.8340 C   0  0  0  0  0  0  0  0  0  0  0  0
  -23.5360  -30.2820   21.3230 C   0  0  0  0  0  3  0  0  0  0  0  0
  -25.0130  -28.7990   19.8710 C   0  0  0  0  0  0  0  0  0  0  0  0
  -26.0620  -30.6560   21.1770 C   0  0  0  0  0  2  0  0  0  0  0  0
  -26.1600  -29.3100   20.4910 C   0  0  0  0  0  0  0  0  0  0  0  0
  -27.3620  -28.5700   20.4760 C   0  0  0  0  0  3  0  0  0  0  0  0
  -26.2440  -26.7970   19.2500 C   0  0  0  0  0  3  0  0  0  0  0  0
  -25.0480  -27.5380   19.2510 C   0  0  0  0  0  3  0  0  0  0  0  0
  -23.7690  -29.6530   19.9250 C   0  0  0  0  0  2  0  0  0  0  0  0
  -24.7890  -30.8660   21.9060 N   0  0  0  0  0  0  0  0  0  0  0  0
  -23.6220  -31.8750   23.5670 O   0  0  0  0  0  0  0  0  0  0  0  0
  -22.8650  -29.2280   22.2330 C   0  0  0  0  0  0  0  0  0  0  0  0
  -21.5350  -29.0910   22.1100 N   0  0  0  0  0  0  0  0  0  0  0  0
  -23.5370  -28.5390   23.0060 O   0  0  0  0  0  0  0  0  0  0  0  0
  -21.0540  -29.6960   21.4580 H   0  0  0  0  0  0  0  0  0  0  0  0
  -18.1300  -27.9890   22.6050 C   0  0  0  0  0  0  0  0  0  0  0  0
  -20.6990  -28.1390   22.8410 C   0  0  0  0  0  3  0  0  0  0  0  0
  -20.7390  -26.7430   22.1780 C   0  0  0  0  0  2  0  0  0  0  0  0
  -19.6080  -26.5220   21.1680 C   0  0  0  0  0  2  0  0  0  0  0  0
  -18.2440  -26.6780   21.8450 C   0  0  0  0  0  2  0  0  0  0  0  0
  -19.2830  -28.6830   23.0590 C   0  0  0  0  0  0  0  0  0  0  0  0
  -19.1220  -29.9150   23.7280 C   0  0  0  0  0  3  0  0  0  0  0  0
  -17.8400  -30.4530   23.9470 C   0  0  0  0  0  3  0  0  0  0  0  0
  -16.7010  -29.7580   23.5040 C   0  0  0  0  0  3  0  0  0  0  0  0
  -16.8470  -28.5260   22.8410 C   0  0  0  0  0  3  0  0  0  0  0  0
  -25.9890  -32.2270   23.7040 C   0  0  0  0  0  3  0  0  0  0  0  0
  -25.6650  -33.6000   24.1130 N   0  0  0  0  0  0  0  0  0  0  0  0
  -25.9940  -34.6980   23.4170 C   0  0  0  0  0  0  0  0  0  0  0  0
  -26.6710  -34.6600   22.3850 O   0  0  0  0  0  0  0  0  0  0  0  0
  -25.0670  -33.7060   24.9190 H   0  0  0  0  0  0  0  0  0  0  0  0
  -24.2450  -36.4840   23.1520 C   0  0  0  0  0  1  0  0  0  0  0  0
  -25.4880  -36.0530   23.9480 C   0  0  0  0  0  3  0  0  0  0  0  0
  -27.6030  -36.9130   24.8450 C   0  0  0  0  0  1  0  0  0  0  0  0
  -26.5090  -37.1230   23.9020 N   0  0  0  0  0  0  0  0  0  0  0  0
  -26.0910  -38.0270   24.1010 H   0  0  0  0  0  0  0  0  0  0  0  0
  -26.5070  -31.3860   24.9350 C   0  0  1  0  0  0  0  0  0  0  0  0
  -25.4050  -31.0520   25.9660 C   0  0  0  0  0  1  0  0  0  0  0  0
  -27.1250  -30.0530   24.4560 C   0  0  0  0  0  1  0  0  0  0  0  0
  -27.6340  -32.1570   25.6610 C   0  0  0  0  0  1  0  0  0  0  0  0
  -29.5570  -27.4150   17.7730 C   0  0  0  0  0  2  0  0  0  0  0  0
  -30.9970  -29.4380   17.1540 C   0  0  0  0  0  1  0  0  0  0  0  0
  -30.7700  -28.2890   18.1450 C   0  0  0  0  0  2  0  0  0  0  0  0
  1  3  1  0
  2  5  1  0
  2  4  1  0
  4  6  1  0
  5 97  1  6
  5  1  1  0
  5 56  1  0
  6 11  1  0
  6  3  1  0
  8  7  1  0
  9 15  1  0
  9  7  2  0
 10 12  2  0
 10 11  1  0
 11  8  2  0
 12  9  1  0
 13 10  1  0
 14 12  1  0
 16 15  1  0
 16 17  1  0
 18 26  1  0
 19 24  1  0
 20 21  1  0
 20 19  1  0
 22 21  1  0
 22 31  1  0
 22 23  1  0
 24 18  1  0
 24 23  1  0
 25 18  2  0
 26 27  1  0
 26 17  1  0
 28 29  2  0
 29 48  1  0
 30 29  1  0
 30 33  1  0
 31 32  1  0
 31 28  1  0
 32 30  2  0
 33 34  1  0
 34 35  2  0
 36 39  1  0
 36 35  1  0
 37 36  2  0
 38 37  1  0
 38 33  2  0
 39 40  1  0
 40 41  1  0
 41 42  2  0
 43 42  1  0
 43 47  1  0
 44 43  2  0
 45 40  2  0
 45 44  1  0
 46 45  1  0
 48 49  1  0
 49 52  1  0
 49 51  1  0
 50 48  2  0
 53 54  1  0
 53 28  1  0
 55 53  1  0
 57 68  2  0
 58 56  1  0
 58 63  1  0
 59 67  1  0
 59 69  1  0
 60 66  1  0
 60 62  1  0
 61 67  1  0
 62 61  1  0
 63 62  2  0
 64 65  1  0
 64 58  2  0
 65 60  2  0
 66 59  1  0
 67 57  1  0
 69 71  2  0
 70 69  1  0
 72 70  1  0
 73 82  2  0
 73 78  1  0
 74 70  1  0
 74 78  1  0
 75 74  1  0
 76 77  1  0
 76 75  1  0
 77 73  1  0
 78 79  2  0
 79 80  1  0
 81 80  2  0
 82 81  1  0
 83 57  1  0
 83 84  1  0
 83 93  1  0
 84 87  1  0
 85 89  1  0
 85 84  1  0
 86 85  2  0
 89 88  1  0
 91 89  1  0
 91 92  1  0
 91 90  1  0
 93 96  1  1
 93 94  1  0
 95 93  1  0
 97 99  1  0
 98 99  1  0
M  ISO  4   5 101  18 100  26 100  56 101
M  END
>  <TORSDO>  (42) 
F 22

>  <SCORE>  (42) 
-12.290

>  <name>  (42) 
41

>  <ligand_id>  (42) 
41

>  <original_smiles>  (42) 
[H]c1c([H])c([H])c2c(c1[H])C([H])([H])C([H])([H])C([H])([H])C2([H])N([H])C(=O)C1([H])N(C(=O)C([H])(N([H])C(=O)C([H])(N([H])C([H])([H])[H])C([H])([H])[H])C(C([H])([H])[H])(C([H])([H])[H])C([H])([H])[H])C([H])([H])c2c([H])c(OC3(C([H])([H])C([H])([H])C([H])([H])[H])C([H])([H])C([H])([H])N(c4c([H])c([H])c(C([H])([H])C([H])([H])C([H])([H])N([H])C(=O)N5C([H])([H])C([H])([H])C([H])([H])C([H])(n6nc(-c7c([H])c([H])c(Oc8c([H])c([H])c(F)c([H])c8F)c([H])c7[H])c(C(=O)N([H])[H])c6N([H])[H])C5([H])[H])c(F)c4C([H])([H])[H])C([H])([H])C3([H])[H])c([H])c([H])c2C1([H])[H]

>  <smiles>  (42) 
[H]c1c([H])c([H])c2c(c1[H])C([H])([H])C([H])([H])C([H])([H])C2([H])N([H])C(=O)C1([H])N(C(=O)C([H])(N([H])C(=O)C([H])(N([H])C([H])([H])[H])C([H])([H])[H])C(C([H])([H])[H])(C([H])([H])[H])C([H])([H])[H])C([H])([H])c2c([H])c(OC3(C([H])([H])C([H])([H])C([H])([H])[H])C([H])([H])C([H])([H])N(c4c([H])c([H])c(C([H])([H])C([H])([H])C([H])([H])N([H])C(=O)N5C([H])([H])C([H])([H])C([H])([H])C([H])(n6nc(-c7c([H])c([H])c(Oc8c([H])c([H])c(F)c([H])c8F)c([H])c7[H])c(C(=O)N([H])[H])c6N([H])[H])C5([H])[H])c(F)c4C([H])([H])[H])C([H])([H])C3([H])[H])c([H])c([H])c2C1([H])[H]

$$$$
42:0:0
     RDKit          3D

 99107  0  0  1  0  0  0  0  0999 V2000
  -29.9120  -20.5090   19.5790 C   0  0  0  0  0  3  0  0  0  0  0  0
  -29.9220  -20.0580   20.9170 C   0  0  0  0  0  0  0  0  0  0  0  0
  -30.5420  -19.8110   18.5220 C   0  0  0  0  0  0  0  0  0  0  0  0
  -30.5810  -18.8350   21.2210 C   0  0  0  0  0  0  0  0  0  0  0  0
  -31.2380  -18.1080   20.1880 C   0  0  0  0  0  0  0  0  0  0  0  0
  -31.2130  -18.5950   18.8490 C   0  0  0  0  0  0  0  0  0  0  0  0
  -30.6270  -18.3100   22.6570 C   0  0  0  0  0  1  0  0  0  0  0  0
  -32.0490  -17.6890   17.6320 Cl  0  0  0  0  0  0  0  0  0  0  0  0
  -29.7350  -21.7500   16.9940 C   0  0  0  0  0  1  0  0  0  0  0  0
  -29.7520  -19.4630   16.1080 C   0  0  0  0  0  1  0  0  0  0  0  0
  -31.9230  -20.7120   16.5560 C   0  0  0  0  0  1  0  0  0  0  0  0
  -30.5000  -20.4050   17.0780 C   0  0  2  0  0  0  0  0  0  0  0  0
  -32.0450  -16.8380   20.5290 C   0  0  0  0  0  2  0  0  0  0  0  0
  -31.8450  -14.4740   19.7650 C   0  0  0  0  0  0  0  0  0  0  0  0
  -31.3980  -12.1940   18.9470 C   0  0  0  0  0  2  0  0  0  0  0  0
  -30.4230  -12.2300   17.7560 C   0  0  0  0  0  2  0  0  0  0  0  0
  -28.9650  -12.2010   18.2540 C   0  0  0  0  0  2  0  0  0  0  0  0
  -28.6920  -13.2520   19.3630 C   0  0  0  0  0  3  0  0  0  0  0  0
  -29.7780  -13.1970   20.4610 C   0  0  0  0  0  2  0  0  0  0  0  0
  -31.0900  -13.3460   19.8110 N   0  0  0  0  0  0  0  0  0  0  0  0
  -32.9270  -14.5170   19.1790 O   0  0  0  0  0  0  0  0  0  0  0  0
  -31.3320  -15.5640   20.3570 N   0  0  0  0  0  0  0  0  0  0  0  0
  -30.4250  -15.4730   20.7890 H   0  0  0  0  0  0  0  0  0  0  0  0
  -26.4100  -14.0670   20.2310 C   0  0  0  0  0  0  0  0  0  0  0  0
  -25.2970  -13.3920   20.6510 C   0  0  0  0  0  0  0  0  0  0  0  0
  -25.6240  -12.0030   20.5710 C   0  0  0  0  0  0  0  0  0  0  0  0
  -27.3500  -13.0970   19.9210 N   0  0  0  0  0  0  0  0  0  0  0  0
  -26.8830  -11.8480   20.1840 N   0  0  0  0  0  0  0  0  0  0  0  0
  -24.7930  -10.8110   20.7840 C   0  0  0  0  0  0  0  0  0  0  0  0
  -25.1260   -9.8450   21.7600 C   0  0  0  0  0  3  0  0  0  0  0  0
  -24.3020   -8.7160   21.9600 C   0  0  0  0  0  3  0  0  0  0  0  0
  -23.1300   -8.5470   21.1830 C   0  0  0  0  0  0  0  0  0  0  0  0
  -22.8170   -9.4990   20.1970 C   0  0  0  0  0  3  0  0  0  0  0  0
  -23.6420  -10.6190   19.9960 C   0  0  0  0  0  3  0  0  0  0  0  0
  -22.2840   -7.4700   21.2900 O   0  0  0  0  0  0  0  0  0  0  0  0
  -22.0560   -6.8500   22.4920 C   0  0  0  0  0  0  0  0  0  0  0  0
  -21.5160   -7.5440   23.5980 C   0  0  0  0  0  3  0  0  0  0  0  0
  -21.2320   -6.8520   24.7930 C   0  0  0  0  0  3  0  0  0  0  0  0
  -21.4760   -5.4690   24.8820 C   0  0  0  0  0  0  0  0  0  0  0  0
  -22.0070   -4.7750   23.7800 C   0  0  0  0  0  3  0  0  0  0  0  0
  -22.2930   -5.4640   22.5870 C   0  0  0  0  0  0  0  0  0  0  0  0
  -22.7840   -4.7870   21.5220 F   0  0  0  0  0  0  0  0  0  0  0  0
  -21.1970   -4.8010   26.0250 F   0  0  0  0  0  0  0  0  0  0  0  0
  -23.9700  -13.9920   21.0170 C   0  0  0  0  0  0  0  0  0  0  0  0
  -23.2370  -13.3540   21.9240 N   0  0  0  0  0  0  0  0  0  0  0  0
  -23.5960  -15.0600   20.5340 O   0  0  0  0  0  0  0  0  0  0  0  0
  -23.5530  -12.4880   22.3350 H   0  0  0  0  0  0  0  0  0  0  0  0
  -22.3470  -13.7360   22.2100 H   0  0  0  0  0  0  0  0  0  0  0  0
  -26.6960  -15.4190   20.0670 N   0  0  0  0  0  0  0  0  0  0  0  0
  -26.0050  -16.1420   20.2400 H   0  0  0  0  0  0  0  0  0  0  0  0
  -27.5680  -15.7840   19.7070 H   0  0  0  0  0  0  0  0  0  0  0  0
  -29.2380  -20.8890   22.0220 C   0  0  0  0  0  2  0  0  0  0  0  0
  -28.5670  -22.1360   21.5850 N   0  0  0  0  0  4  0  0  0  0  0  0
  -27.7450  -22.2340   22.1600 H   0  0  0  0  0  0  0  0  0  0  0  0
  -28.2550  -22.0050   20.6370 H   0  0  0  0  0  0  0  0  0  0  0  0
  -29.3660  -23.3810   21.7170 C   0  0  0  0  0  2  0  0  0  0  0  0
  -28.7820  -24.5500   20.8900 C   0  0  0  0  0  2  0  0  0  0  0  0
  -29.3690  -25.9280   21.2720 C   0  0  0  0  0  2  0  0  0  0  0  0
  -29.1920  -26.9150   20.2520 O   0  0  0  0  0  0  0  0  0  0  0  0
  -24.8970  -31.6890   23.3270 C   0  0  0  0  0  0  0  0  0  0  0  0
  -27.9740  -27.5490   20.2540 C   0  0  0  0  0  0  0  0  0  0  0  0
  -23.8590  -30.2500   21.6010 C   0  0  0  0  0  3  0  0  0  0  0  0
  -25.4760  -28.8580   20.2040 C   0  0  0  0  0  0  0  0  0  0  0  0
  -26.3570  -30.7950   21.5190 C   0  0  0  0  0  2  0  0  0  0  0  0
  -26.5660  -29.4530   20.8530 C   0  0  0  0  0  0  0  0  0  0  0  0
  -27.8190  -28.8030   20.8800 C   0  0  0  0  0  3  0  0  0  0  0  0
  -26.8760  -26.9670   19.5890 C   0  0  0  0  0  3  0  0  0  0  0  0
  -25.6250  -27.6110   19.5710 C   0  0  0  0  0  3  0  0  0  0  0  0
  -24.1730  -29.6220   20.2160 C   0  0  0  0  0  2  0  0  0  0  0  0
  -25.0520  -30.9280   22.2070 N   0  0  0  0  0  0  0  0  0  0  0  0
  -23.7800  -31.8690   23.8310 O   0  0  0  0  0  0  0  0  0  0  0  0
  -23.2510  -29.1580   22.5110 C   0  0  0  0  0  0  0  0  0  0  0  0
  -21.9550  -28.8730   22.3140 N   0  0  0  0  0  0  0  0  0  0  0  0
  -23.9440  -28.5720   23.3460 O   0  0  0  0  0  0  0  0  0  0  0  0
  -21.4570  -29.4080   21.6160 H   0  0  0  0  0  0  0  0  0  0  0  0
  -18.6660  -27.4020   22.6140 C   0  0  0  0  0  0  0  0  0  0  0  0
  -21.1780  -27.8580   23.0250 C   0  0  0  0  0  3  0  0  0  0  0  0
  -21.4250  -26.4520   22.4330 C   0  0  0  0  0  2  0  0  0  0  0  0
  -20.4070  -26.0630   21.3560 C   0  0  0  0  0  2  0  0  0  0  0  0
  -18.9870  -26.0850   21.9270 C   0  0  0  0  0  2  0  0  0  0  0  0
  -19.6950  -28.2420   23.1140 C   0  0  0  0  0  0  0  0  0  0  0  0
  -19.3450  -29.4730   23.7110 C   0  0  0  0  0  3  0  0  0  0  0  0
  -17.9970  -29.8630   23.8170 C   0  0  0  0  0  3  0  0  0  0  0  0
  -16.9820  -29.0210   23.3310 C   0  0  0  0  0  3  0  0  0  0  0  0
  -17.3160  -27.7930   22.7340 C   0  0  0  0  0  3  0  0  0  0  0  0
  -26.1120  -32.3920   24.0130 C   0  0  0  0  0  3  0  0  0  0  0  0
  -25.6890  -33.7490   24.3780 N   0  0  0  0  0  0  0  0  0  0  0  0
  -25.9700  -34.8500   23.6670 C   0  0  0  0  0  0  0  0  0  0  0  0
  -26.6840  -34.8340   22.6610 O   0  0  0  0  0  0  0  0  0  0  0  0
  -25.0560  -33.8300   25.1600 H   0  0  0  0  0  0  0  0  0  0  0  0
  -24.1230  -36.5180   23.3020 C   0  0  0  0  0  1  0  0  0  0  0  0
  -25.3600  -36.1800   24.1500 C   0  0  0  0  0  3  0  0  0  0  0  0
  -27.3870  -37.1930   25.0960 C   0  0  0  0  0  1  0  0  0  0  0  0
  -26.3120  -37.3110   24.1120 N   0  0  0  0  0  0  0  0  0  0  0  0
  -25.8310  -38.1930   24.2720 H   0  0  0  0  0  0  0  0  0  0  0  0
  -26.6490  -31.6150   25.2780 C   0  0  1  0  0  0  0  0  0  0  0  0
  -25.5470  -31.2520   26.3000 C   0  0  0  0  0  1  0  0  0  0  0  0
  -27.3520  -30.3040   24.8560 C   0  0  0  0  0  1  0  0  0  0  0  0
  -27.7110  -32.4730   26.0060 C   0  0  0  0  0  1  0  0  0  0  0  0
  1  2  1  0
  2  4  2  0
  2 52  1  0
  3  6  1  0
  3  1  2  0
  4  7  1  0
  5 13  1  0
  5  4  1  0
  6  5  2  0
  8  6  1  0
 12  9  1  1
 10 12  1  0
 11 12  1  0
 12  3  1  0
 14 20  1  0
 14 22  1  0
 15 20  1  0
 16 17  1  0
 16 15  1  0
 18 17  1  0
 18 27  1  0
 18 19  1  0
 20 19  1  0
 21 14  2  0
 22 13  1  0
 22 23  1  0
 24 25  2  0
 25 44  1  0
 26 25  1  0
 26 29  1  0
 27 28  1  0
 27 24  1  0
 28 26  2  0
 29 30  1  0
 30 31  2  0
 32 35  1  0
 32 31  1  0
 33 32  2  0
 34 33  1  0
 34 29  2  0
 35 36  1  0
 36 41  2  0
 36 37  1  0
 37 38  2  0
 38 39  1  0
 39 43  1  0
 40 39  2  0
 41 40  1  0
 42 41  1  0
 44 45  1  0
 45 48  1  0
 45 47  1  0
 46 44  2  0
 49 24  1  0
 49 50  1  0
 51 49  1  0
 53 56  1  0
 53 52  1  0
 53 54  1  0
 55 53  1  0
 57 58  1  0
 57 56  1  0
 59 61  1  0
 59 58  1  0
 60 71  2  0
 61 66  1  0
 62 70  1  0
 62 72  1  0
 63 69  1  0
 63 65  1  0
 64 70  1  0
 65 66  2  0
 65 64  1  0
 67 61  2  0
 68 67  1  0
 68 63  2  0
 69 62  1  0
 70 60  1  0
 72 74  2  0
 73 72  1  0
 75 73  1  0
 76 85  2  0
 76 81  1  0
 77 73  1  0
 77 81  1  0
 78 77  1  0
 79 80  1  0
 79 78  1  0
 80 76  1  0
 81 82  2  0
 82 83  1  0
 84 83  2  0
 85 84  1  0
 86 60  1  0
 86 87  1  0
 86 96  1  0
 87 90  1  0
 88 92  1  0
 88 87  1  0
 89 88  2  0
 92 91  1  0
 94 92  1  0
 94 95  1  0
 94 93  1  0
 96 99  1  1
 96 97  1  0
 98 96  1  0
M  ISO  4  14 100  22 100  58 101  59 101
M  END
>  <TORSDO>  (43) 
F 23

>  <SCORE>  (43) 
-10.850

>  <name>  (43) 
42

>  <ligand_id>  (43) 
42

>  <original_smiles>  (43) 
[H]c1c([H])c([H])c2c(c1[H])C([H])([H])C([H])([H])C([H])([H])C2([H])N([H])C(=O)C1([H])N(C(=O)C([H])(N([H])C(=O)C([H])(N([H])C([H])([H])[H])C([H])([H])[H])C(C([H])([H])[H])(C([H])([H])[H])C([H])([H])[H])C([H])([H])c2c([H])c(OC([H])([H])C([H])([H])C([H])([H])[N+]([H])([H])C([H])([H])c3c([H])c(C(C([H])([H])[H])(C([H])([H])[H])C([H])([H])[H])c(Cl)c(C([H])([H])N([H])C(=O)N4C([H])([H])C([H])([H])C([H])([H])C([H])(n5nc(-c6c([H])c([H])c(Oc7c([H])c([H])c(F)c([H])c7F)c([H])c6[H])c(C(=O)N([H])[H])c5N([H])[H])C4([H])[H])c3C([H])([H])[H])c([H])c([H])c2C1([H])[H]

>  <smiles>  (43) 
[H]c1c([H])c([H])c2c(c1[H])C([H])([H])C([H])([H])C([H])([H])C2([H])N([H])C(=O)C1([H])N(C(=O)C([H])(N([H])C(=O)C([H])(N([H])C([H])([H])[H])C([H])([H])[H])C(C([H])([H])[H])(C([H])([H])[H])C([H])([H])[H])C([H])([H])c2c([H])c(OC([H])([H])C([H])([H])C([H])([H])[N+]([H])([H])C([H])([H])c3c([H])c(C(C([H])([H])[H])(C([H])([H])[H])C([H])([H])[H])c(Cl)c(C([H])([H])N([H])C(=O)N4C([H])([H])C([H])([H])C([H])([H])C([H])(n5nc(-c6c([H])c([H])c(Oc7c([H])c([H])c(F)c([H])c7F)c([H])c6[H])c(C(=O)N([H])[H])c5N([H])[H])C4([H])[H])c3C([H])([H])[H])c([H])c([H])c2C1([H])[H]

$$$$
43:0:0
     RDKit          3D

 93101  0  0  1  0  0  0  0  0999 V2000
  -30.3670  -19.9070   18.7740 C   0  0  0  0  0  3  0  0  0  0  0  0
  -30.0570  -21.3020   18.6140 C   0  0  0  0  0  3  0  0  0  0  0  0
  -30.3440  -19.2210   20.0190 C   0  0  0  0  0  0  0  0  0  0  0  0
  -29.6740  -22.2120   19.6590 C   0  0  0  0  0  0  0  0  0  0  0  0
  -29.9020  -20.0920   21.0850 C   0  0  0  0  0  0  0  0  0  0  0  0
  -29.5720  -21.5130   20.9160 C   0  0  0  0  0  0  0  0  0  0  0  0
  -29.8380  -19.4130   22.6760 Cl  0  0  0  0  0  0  0  0  0  0  0  0
  -29.0910  -22.4210   22.3080 Cl  0  0  0  0  0  0  0  0  0  0  0  0
  -28.9260  -23.9360   17.9000 C   0  0  0  0  0  1  0  0  0  0  0  0
  -29.5670  -23.8320   19.3070 C   0  0  2  0  0  0  0  0  0  0  0  0
  -31.4540  -25.3760   18.2680 C   0  0  0  0  0  1  0  0  0  0  0  0
  -31.0500  -24.3100   19.3020 C   0  0  0  0  0  2  0  0  0  0  0  0
  -28.7450  -25.0180   20.1320 C   0  0  0  0  0  2  0  0  0  0  0  0
  -28.7680  -26.4920   19.6680 O   0  0  0  0  0  0  0  0  0  0  0  0
  -24.6730  -31.5810   22.9600 C   0  0  0  0  0  0  0  0  0  0  0  0
  -27.6160  -27.3330   19.6780 C   0  0  0  0  0  0  0  0  0  0  0  0
  -23.5850  -30.1840   21.2430 C   0  0  0  0  0  3  0  0  0  0  0  0
  -25.1510  -28.8330   19.7250 C   0  0  0  0  0  0  0  0  0  0  0  0
  -26.0950  -30.7010   21.0790 C   0  0  0  0  0  2  0  0  0  0  0  0
  -26.2850  -29.3600   20.3570 C   0  0  0  0  0  0  0  0  0  0  0  0
  -27.5210  -28.6260   20.3150 C   0  0  0  0  0  3  0  0  0  0  0  0
  -26.4590  -26.8950   19.0030 C   0  0  0  0  0  3  0  0  0  0  0  0
  -25.2480  -27.6180   19.0310 C   0  0  0  0  0  3  0  0  0  0  0  0
  -23.8490  -29.6090   19.8270 C   0  0  0  0  0  2  0  0  0  0  0  0
  -24.8030  -30.8410   21.8180 N   0  0  0  0  0  0  0  0  0  0  0  0
  -23.5720  -31.7330   23.5110 O   0  0  0  0  0  0  0  0  0  0  0  0
  -23.0130  -29.0630   22.1480 C   0  0  0  0  0  0  0  0  0  0  0  0
  -21.7060  -28.7720   22.0070 N   0  0  0  0  0  0  0  0  0  0  0  0
  -23.7440  -28.4590   22.9370 O   0  0  0  0  0  0  0  0  0  0  0  0
  -21.1680  -29.3150   21.3460 H   0  0  0  0  0  0  0  0  0  0  0  0
  -18.4540  -27.2450   22.4440 C   0  0  0  0  0  0  0  0  0  0  0  0
  -20.9800  -27.7230   22.7250 C   0  0  0  0  0  3  0  0  0  0  0  0
  -21.2090  -26.3410   22.0690 C   0  0  0  0  0  2  0  0  0  0  0  0
  -20.1350  -25.9780   21.0380 C   0  0  0  0  0  2  0  0  0  0  0  0
  -18.7500  -25.9580   21.6900 C   0  0  0  0  0  2  0  0  0  0  0  0
  -19.5010  -28.0800   22.9150 C   0  0  0  0  0  0  0  0  0  0  0  0
  -19.1710  -29.2810   23.5810 C   0  0  0  0  0  3  0  0  0  0  0  0
  -17.8260  -29.6500   23.7780 C   0  0  0  0  0  3  0  0  0  0  0  0
  -16.7940  -28.8110   23.3210 C   0  0  0  0  0  3  0  0  0  0  0  0
  -17.1090  -27.6110   22.6610 C   0  0  0  0  0  3  0  0  0  0  0  0
  -25.8980  -32.2910   23.6160 C   0  0  0  0  0  3  0  0  0  0  0  0
  -26.4820  -31.5000   24.8500 C   0  0  1  0  0  0  0  0  0  0  0  0
  -25.4190  -31.1210   25.9070 C   0  0  0  0  0  1  0  0  0  0  0  0
  -27.1740  -30.1960   24.3900 C   0  0  0  0  0  1  0  0  0  0  0  0
  -27.5700  -32.3500   25.5490 C   0  0  0  0  0  1  0  0  0  0  0  0
  -25.4690  -33.6370   24.0240 N   0  0  0  0  0  0  0  0  0  0  0  0
  -25.6930  -34.7560   23.3240 C   0  0  0  0  0  0  0  0  0  0  0  0
  -26.3530  -34.7690   22.2810 O   0  0  0  0  0  0  0  0  0  0  0  0
  -24.8760  -33.6940   24.8400 H   0  0  0  0  0  0  0  0  0  0  0  0
  -23.7990  -36.4000   23.1050 C   0  0  0  0  0  1  0  0  0  0  0  0
  -25.0940  -36.0700   23.8650 C   0  0  0  0  0  3  0  0  0  0  0  0
  -27.1580  -37.1110   24.6980 C   0  0  0  0  0  1  0  0  0  0  0  0
  -26.0210  -37.2190   23.7850 N   0  0  0  0  0  0  0  0  0  0  0  0
  -25.5360  -38.0880   23.9860 H   0  0  0  0  0  0  0  0  0  0  0  0
  -31.0890  -17.7700   20.1920 C   0  0  0  0  0  2  0  0  0  0  0  0
  -31.3020  -15.1280   19.8270 C   0  0  0  0  0  0  0  0  0  0  0  0
  -31.0800  -12.7770   18.9400 C   0  0  0  0  0  2  0  0  0  0  0  0
  -30.0940  -12.7370   17.7520 C   0  0  0  0  0  2  0  0  0  0  0  0
  -28.6480  -12.5750   18.2550 C   0  0  0  0  0  2  0  0  0  0  0  0
  -28.3110  -13.5480   19.4180 C   0  0  0  0  0  3  0  0  0  0  0  0
  -29.4100  -13.5540   20.5000 C   0  0  0  0  0  2  0  0  0  0  0  0
  -30.6670  -13.8980   19.8270 N   0  0  0  0  0  0  0  0  0  0  0  0
  -32.4940  -15.1670   19.5020 O   0  0  0  0  0  0  0  0  0  0  0  0
  -30.5670  -16.3160   20.0110 N   0  0  0  0  0  0  0  0  0  0  0  0
  -29.5810  -16.1850   20.1770 H   0  0  0  0  0  0  0  0  0  0  0  0
  -26.0100  -14.2130   20.3220 C   0  0  0  0  0  0  0  0  0  0  0  0
  -24.9340  -13.4730   20.7260 C   0  0  0  0  0  0  0  0  0  0  0  0
  -25.3280  -12.1050   20.6130 C   0  0  0  0  0  0  0  0  0  0  0  0
  -26.9920  -13.2960   19.9830 N   0  0  0  0  0  0  0  0  0  0  0  0
  -26.5940  -12.0210   20.2250 N   0  0  0  0  0  0  0  0  0  0  0  0
  -24.5540  -10.8700   20.7940 C   0  0  0  0  0  0  0  0  0  0  0  0
  -24.9530   -9.8760   21.7140 C   0  0  0  0  0  3  0  0  0  0  0  0
  -24.1810   -8.7080   21.8840 C   0  0  0  0  0  3  0  0  0  0  0  0
  -22.9940   -8.5250   21.1350 C   0  0  0  0  0  0  0  0  0  0  0  0
  -22.6140   -9.5080   20.2040 C   0  0  0  0  0  3  0  0  0  0  0  0
  -23.3870  -10.6680   20.0320 C   0  0  0  0  0  3  0  0  0  0  0  0
  -22.1950   -7.4110   21.2160 O   0  0  0  0  0  0  0  0  0  0  0  0
  -22.0570   -6.7070   22.3850 C   0  0  0  0  0  0  0  0  0  0  0  0
  -21.5490   -7.3020   23.5590 C   0  0  0  0  0  3  0  0  0  0  0  0
  -21.3590   -6.5240   24.7190 C   0  0  0  0  0  3  0  0  0  0  0  0
  -21.6670   -5.1510   24.7030 C   0  0  0  0  0  0  0  0  0  0  0  0
  -22.1700   -4.5540   23.5330 C   0  0  0  0  0  3  0  0  0  0  0  0
  -22.3610   -5.3300   22.3760 C   0  0  0  0  0  0  0  0  0  0  0  0
  -22.8240   -4.7470   21.2450 F   0  0  0  0  0  0  0  0  0  0  0  0
  -21.4790   -4.4000   25.8140 F   0  0  0  0  0  0  0  0  0  0  0  0
  -23.5800  -14.0030   21.0990 C   0  0  0  0  0  0  0  0  0  0  0  0
  -22.8730  -13.3080   21.9810 N   0  0  0  0  0  0  0  0  0  0  0  0
  -23.1630  -15.0650   20.6400 O   0  0  0  0  0  0  0  0  0  0  0  0
  -23.2280  -12.4490   22.3770 H   0  0  0  0  0  0  0  0  0  0  0  0
  -21.9640  -13.6410   22.2690 H   0  0  0  0  0  0  0  0  0  0  0  0
  -26.2300  -15.5820   20.1850 N   0  0  0  0  0  0  0  0  0  0  0  0
  -25.4920  -16.2570   20.3510 H   0  0  0  0  0  0  0  0  0  0  0  0
  -27.0580  -15.9940   19.7770 H   0  0  0  0  0  0  0  0  0  0  0  0
  1  3  1  0
  2  1  2  0
  2  4  1  0
  3 55  1  0
  3  5  2  0
  4  6  2  0
  5  7  1  0
  6  5  1  0
  6  8  1  0
 10  9  1  6
 10  4  1  0
 10 13  1  0
 11 12  1  0
 12 10  1  0
 14 16  1  0
 14 13  1  0
 15 26  2  0
 16 21  1  0
 17 25  1  0
 17 27  1  0
 18 24  1  0
 18 20  1  0
 19 25  1  0
 20 19  1  0
 21 20  2  0
 22 23  1  0
 22 16  2  0
 23 18  2  0
 24 17  1  0
 25 15  1  0
 27 29  2  0
 28 27  1  0
 30 28  1  0
 31 40  2  0
 31 36  1  0
 32 28  1  0
 32 36  1  0
 33 32  1  0
 34 35  1  0
 34 33  1  0
 35 31  1  0
 36 37  2  0
 37 38  1  0
 39 38  2  0
 40 39  1  0
 41 15  1  0
 41 46  1  0
 41 42  1  0
 42 45  1  1
 42 43  1  0
 44 42  1  0
 46 49  1  0
 47 51  1  0
 47 46  1  0
 48 47  2  0
 51 50  1  0
 53 51  1  0
 53 54  1  0
 53 52  1  0
 56 64  1  0
 57 62  1  0
 58 59  1  0
 58 57  1  0
 60 59  1  0
 60 69  1  0
 60 61  1  0
 62 56  1  0
 62 61  1  0
 63 56  2  0
 64 65  1  0
 64 55  1  0
 66 67  2  0
 67 86  1  0
 68 67  1  0
 68 71  1  0
 69 70  1  0
 69 66  1  0
 70 68  2  0
 71 72  1  0
 72 73  2  0
 74 77  1  0
 74 73  1  0
 75 74  2  0
 76 75  1  0
 76 71  2  0
 77 78  1  0
 78 79  1  0
 79 80  2  0
 81 80  1  0
 81 85  1  0
 82 81  2  0
 83 78  2  0
 83 82  1  0
 84 83  1  0
 86 87  1  0
 87 90  1  0
 87 89  1  0
 88 86  2  0
 91 66  1  0
 91 92  1  0
 93 91  1  0
M  ISO  4  13 101  14 101  56 100  64 100
M  END
>  <TORSDO>  (44) 
F 20

>  <SCORE>  (44) 
-11.089

>  <name>  (44) 
43

>  <ligand_id>  (44) 
43

>  <original_smiles>  (44) 
[H]c1c([H])c([H])c2c(c1[H])C([H])([H])C([H])([H])C([H])([H])C2([H])N([H])C(=O)C1([H])N(C(=O)C([H])(N([H])C(=O)C([H])(N([H])C([H])([H])[H])C([H])([H])[H])C(C([H])([H])[H])(C([H])([H])[H])C([H])([H])[H])C([H])([H])c2c([H])c(OC([H])([H])C(c3c([H])c([H])c(C([H])([H])N([H])C(=O)N4C([H])([H])C([H])([H])C([H])([H])C([H])(n5nc(-c6c([H])c([H])c(Oc7c([H])c([H])c(F)c([H])c7F)c([H])c6[H])c(C(=O)N([H])[H])c5N([H])[H])C4([H])[H])c(Cl)c3Cl)(C([H])([H])[H])C([H])([H])C([H])([H])[H])c([H])c([H])c2C1([H])[H]

>  <smiles>  (44) 
[H]c1c([H])c([H])c2c(c1[H])C([H])([H])C([H])([H])C([H])([H])C2([H])N([H])C(=O)C1([H])N(C(=O)C([H])(N([H])C(=O)C([H])(N([H])C([H])([H])[H])C([H])([H])[H])C(C([H])([H])[H])(C([H])([H])[H])C([H])([H])[H])C([H])([H])c2c([H])c(OC([H])([H])C(c3c([H])c([H])c(C([H])([H])N([H])C(=O)N4C([H])([H])C([H])([H])C([H])([H])C([H])(n5nc(-c6c([H])c([H])c(Oc7c([H])c([H])c(F)c([H])c7F)c([H])c6[H])c(C(=O)N([H])[H])c5N([H])[H])C4([H])[H])c(Cl)c3Cl)(C([H])([H])[H])C([H])([H])C([H])([H])[H])c([H])c([H])c2C1([H])[H]

$$$$
44:0:0
     RDKit          3D

 97106  0  0  1  0  0  0  0  0999 V2000
  -30.2690  -22.6370   21.3950 C   0  0  0  0  0  2  0  0  0  0  0  0
  -29.9550  -19.2800   19.5540 C   0  0  0  0  0  3  0  0  0  0  0  0
  -30.3940  -18.3620   20.5290 C   0  0  0  0  0  0  0  0  0  0  0  0
  -30.1510  -21.1250   21.1530 C   0  0  0  0  0  0  0  0  0  0  0  0
  -29.8430  -20.6500   19.8570 C   0  0  0  0  0  0  0  0  0  0  0  0
  -30.5900  -18.8060   21.8570 C   0  0  0  0  0  0  0  0  0  0  0  0
  -30.4590  -20.1820   22.1710 C   0  0  0  0  0  0  0  0  0  0  0  0
  -29.3930  -21.7460   18.5970 Cl  0  0  0  0  0  0  0  0  0  0  0  0
  -31.0970  -17.6850   23.0750 Cl  0  0  0  0  0  0  0  0  0  0  0  0
  -30.7550  -20.7060   23.7960 Cl  0  0  0  0  0  0  0  0  0  0  0  0
  -30.9130  -17.0050   20.0620 C   0  0  0  0  0  2  0  0  0  0  0  0
  -30.8350  -14.5950   20.1240 C   0  0  0  0  0  0  0  0  0  0  0  0
  -30.3800  -12.4560   19.0270 C   0  0  0  0  0  2  0  0  0  0  0  0
  -29.4140  -12.6810   17.8490 C   0  0  0  0  0  2  0  0  0  0  0  0
  -27.9570  -12.5660   18.3300 C   0  0  0  0  0  2  0  0  0  0  0  0
  -27.6730  -13.4070   19.6030 C   0  0  0  0  0  3  0  0  0  0  0  0
  -28.7720  -13.2290   20.6780 C   0  0  0  0  0  2  0  0  0  0  0  0
  -30.0730  -13.4740   20.0450 N   0  0  0  0  0  0  0  0  0  0  0  0
  -31.9820  -14.6290   19.6770 O   0  0  0  0  0  0  0  0  0  0  0  0
  -30.2360  -15.7560   20.4540 N   0  0  0  0  0  0  0  0  0  0  0  0
  -29.2690  -15.7690   20.7380 H   0  0  0  0  0  0  0  0  0  0  0  0
  -25.3070  -14.0060   20.4130 C   0  0  0  0  0  0  0  0  0  0  0  0
  -24.2520  -13.2320   20.8110 C   0  0  0  0  0  0  0  0  0  0  0  0
  -24.7080  -11.8810   20.7520 C   0  0  0  0  0  0  0  0  0  0  0  0
  -26.3410  -13.1270   20.1360 N   0  0  0  0  0  0  0  0  0  0  0  0
  -25.9870  -11.8410   20.3990 N   0  0  0  0  0  0  0  0  0  0  0  0
  -23.9860  -10.6170   20.9530 C   0  0  0  0  0  0  0  0  0  0  0  0
  -24.4330   -9.6500   21.8790 C   0  0  0  0  0  3  0  0  0  0  0  0
  -23.7100   -8.4520   22.0700 C   0  0  0  0  0  3  0  0  0  0  0  0
  -22.5250   -8.2130   21.3340 C   0  0  0  0  0  0  0  0  0  0  0  0
  -22.0960   -9.1700   20.3970 C   0  0  0  0  0  3  0  0  0  0  0  0
  -22.8200  -10.3590   20.2040 C   0  0  0  0  0  3  0  0  0  0  0  0
  -21.7710   -7.0690   21.4340 O   0  0  0  0  0  0  0  0  0  0  0  0
  -21.7290   -6.3350   22.5930 C   0  0  0  0  0  0  0  0  0  0  0  0
  -21.2980   -6.8970   23.8140 C   0  0  0  0  0  3  0  0  0  0  0  0
  -21.2010   -6.0880   24.9650 C   0  0  0  0  0  3  0  0  0  0  0  0
  -21.5270   -4.7200   24.8940 C   0  0  0  0  0  0  0  0  0  0  0  0
  -21.9510   -4.1590   23.6770 C   0  0  0  0  0  3  0  0  0  0  0  0
  -22.0490   -4.9640   22.5290 C   0  0  0  0  0  0  0  0  0  0  0  0
  -22.4380   -4.4140   21.3530 F   0  0  0  0  0  0  0  0  0  0  0  0
  -21.4270   -3.9410   25.9970 F   0  0  0  0  0  0  0  0  0  0  0  0
  -22.8660  -13.7100   21.1350 C   0  0  0  0  0  0  0  0  0  0  0  0
  -22.1690  -13.0080   22.0220 N   0  0  0  0  0  0  0  0  0  0  0  0
  -22.4140  -14.7400   20.6390 O   0  0  0  0  0  0  0  0  0  0  0  0
  -22.5510  -12.1750   22.4420 H   0  0  0  0  0  0  0  0  0  0  0  0
  -21.2400  -13.3080   22.2810 H   0  0  0  0  0  0  0  0  0  0  0  0
  -25.4710  -15.3780   20.2430 N   0  0  0  0  0  0  0  0  0  0  0  0
  -24.7110  -16.0330   20.3900 H   0  0  0  0  0  0  0  0  0  0  0  0
  -26.3090  -15.8170   19.8860 H   0  0  0  0  0  0  0  0  0  0  0  0
  -27.2580  -24.4050   22.5590 C   0  0  0  0  0  2  0  0  0  0  0  0
  -28.3700  -25.4310   22.3750 C   0  0  0  0  0  2  0  0  0  0  0  0
  -27.9780  -23.0900   22.2670 C   0  0  0  0  0  2  0  0  0  0  0  0
  -29.1770  -24.8850   21.1820 C   0  0  0  0  0  3  0  0  0  0  0  0
  -29.0020  -23.3980   21.2370 N   0  0  1  0  0  4  0  0  0  0  0  0
  -28.6250  -23.1140   20.3430 H   0  0  0  0  0  0  0  0  0  0  0  0
  -28.6980  -25.4520   19.8180 C   0  0  0  0  0  2  0  0  0  0  0  0
  -28.7170  -26.8940   19.7970 O   0  0  0  0  0  0  0  0  0  0  0  0
  -24.6970  -31.7700   23.0480 C   0  0  0  0  0  0  0  0  0  0  0  0
  -27.5120  -27.5700   19.7900 C   0  0  0  0  0  0  0  0  0  0  0  0
  -23.5500  -30.3980   21.3420 C   0  0  0  0  0  3  0  0  0  0  0  0
  -25.0630  -28.9910   19.8470 C   0  0  0  0  0  0  0  0  0  0  0  0
  -26.0580  -30.8670   21.1670 C   0  0  0  0  0  2  0  0  0  0  0  0
  -26.1980  -29.5290   20.4680 C   0  0  0  0  0  0  0  0  0  0  0  0
  -27.4230  -28.8260   20.4350 C   0  0  0  0  0  3  0  0  0  0  0  0
  -26.3600  -27.0630   19.1380 C   0  0  0  0  0  3  0  0  0  0  0  0
  -25.1400  -27.7610   19.1770 C   0  0  0  0  0  3  0  0  0  0  0  0
  -23.7870  -29.7940   19.9310 C   0  0  0  0  0  2  0  0  0  0  0  0
  -24.7870  -31.0220   21.9130 N   0  0  0  0  0  0  0  0  0  0  0  0
  -23.6050  -31.9770   23.5960 O   0  0  0  0  0  0  0  0  0  0  0  0
  -22.9370  -29.3090   22.2510 C   0  0  0  0  0  0  0  0  0  0  0  0
  -21.6150  -29.1050   22.1290 N   0  0  0  0  0  0  0  0  0  0  0  0
  -23.6460  -28.6530   23.0170 O   0  0  0  0  0  0  0  0  0  0  0  0
  -21.1080  -29.6860   21.4780 H   0  0  0  0  0  0  0  0  0  0  0  0
  -18.2640  -27.8460   22.6350 C   0  0  0  0  0  0  0  0  0  0  0  0
  -20.8260  -28.1080   22.8500 C   0  0  0  0  0  3  0  0  0  0  0  0
  -20.9240  -26.7220   22.1700 C   0  0  0  0  0  2  0  0  0  0  0  0
  -19.7960  -26.4620   21.1680 C   0  0  0  0  0  2  0  0  0  0  0  0
  -18.4320  -26.5480   21.8590 C   0  0  0  0  0  2  0  0  0  0  0  0
  -19.3890  -28.5850   23.0850 C   0  0  0  0  0  0  0  0  0  0  0  0
  -19.1830  -29.8030   23.7690 C   0  0  0  0  0  3  0  0  0  0  0  0
  -17.8810  -30.2830   24.0060 C   0  0  0  0  0  3  0  0  0  0  0  0
  -16.7700  -29.5370   23.5750 C   0  0  0  0  0  3  0  0  0  0  0  0
  -16.9620  -28.3210   22.8950 C   0  0  0  0  0  3  0  0  0  0  0  0
  -25.9570  -32.4190   23.7020 C   0  0  0  0  0  3  0  0  0  0  0  0
  -26.4940  -31.6130   24.9480 C   0  0  1  0  0  0  0  0  0  0  0  0
  -25.4030  -31.2970   25.9970 C   0  0  0  0  0  1  0  0  0  0  0  0
  -27.1220  -30.2740   24.4990 C   0  0  0  0  0  1  0  0  0  0  0  0
  -27.6140  -32.4190   25.6490 C   0  0  0  0  0  1  0  0  0  0  0  0
  -25.5980  -33.7910   24.0830 N   0  0  0  0  0  0  0  0  0  0  0  0
  -25.9050  -34.8820   23.3670 C   0  0  0  0  0  0  0  0  0  0  0  0
  -26.5910  -34.8410   22.3410 O   0  0  0  0  0  0  0  0  0  0  0  0
  -24.9890  -33.8970   24.8800 H   0  0  0  0  0  0  0  0  0  0  0  0
  -24.1220  -36.6250   23.0610 C   0  0  0  0  0  1  0  0  0  0  0  0
  -25.3680  -36.2350   23.8680 C   0  0  0  0  0  3  0  0  0  0  0  0
  -27.4620  -37.1590   24.7590 C   0  0  0  0  0  1  0  0  0  0  0  0
  -26.3660  -37.3250   23.8070 N   0  0  0  0  0  0  0  0  0  0  0  0
  -25.9270  -38.2240   23.9850 H   0  0  0  0  0  0  0  0  0  0  0  0
  2  5  2  0
  2  3  1  0
  3  6  2  0
  4  1  1  0
  4  7  2  0
  5  4  1  0
  6  7  1  0
  6  9  1  0
  7 10  1  0
  8  5  1  0
 11 20  1  0
 11  3  1  0
 12 20  1  0
 13 18  1  0
 14 15  1  0
 14 13  1  0
 16 15  1  0
 16 25  1  0
 16 17  1  0
 18 12  1  0
 18 17  1  0
 19 12  2  0
 20 21  1  0
 22 23  2  0
 23 42  1  0
 24 23  1  0
 24 27  1  0
 25 26  1  0
 25 22  1  0
 26 24  2  0
 27 28  1  0
 28 29  2  0
 30 33  1  0
 30 29  1  0
 31 30  2  0
 32 31  1  0
 32 27  2  0
 33 34  1  0
 34 35  1  0
 35 36  2  0
 37 36  1  0
 37 41  1  0
 38 37  2  0
 39 34  2  0
 39 38  1  0
 40 39  1  0
 42 43  1  0
 43 46  1  0
 43 45  1  0
 44 42  2  0
 47 48  1  0
 47 22  1  0
 49 47  1  0
 51 50  1  0
 52 50  1  0
 53 56  1  0
 53 54  1  0
 53 51  1  0
 54  1  1  0
 54 52  1  0
 54 55  1  6
 57 56  1  0
 58 69  2  0
 59 57  1  0
 59 64  1  0
 60 68  1  0
 60 70  1  0
 61 67  1  0
 61 63  1  0
 62 68  1  0
 63 62  1  0
 64 63  2  0
 65 66  1  0
 65 59  2  0
 66 61  2  0
 67 60  1  0
 68 58  1  0
 70 72  2  0
 71 70  1  0
 73 71  1  0
 74 83  2  0
 74 79  1  0
 75 71  1  0
 75 79  1  0
 76 75  1  0
 77 78  1  0
 77 76  1  0
 78 74  1  0
 79 80  2  0
 80 81  1  0
 82 81  2  0
 83 82  1  0
 84 58  1  0
 84 89  1  0
 84 85  1  0
 85 88  1  1
 85 86  1  0
 87 85  1  0
 89 92  1  0
 90 94  1  0
 90 89  1  0
 91 90  2  0
 94 93  1  0
 96 94  1  0
 96 97  1  0
 96 95  1  0
M  ISO  4  12 100  20 100  56 101  57 101
M  END
>  <TORSDO>  (45) 
F 20

>  <SCORE>  (45) 
-12.735

>  <name>  (45) 
44

>  <ligand_id>  (45) 
44

>  <original_smiles>  (45) 
[H]c1c([H])c([H])c2c(c1[H])C([H])([H])C([H])([H])C([H])([H])C2([H])N([H])C(=O)C1([H])N(C(=O)C([H])(N([H])C(=O)C([H])(N([H])C([H])([H])[H])C([H])([H])[H])C(C([H])([H])[H])(C([H])([H])[H])C([H])([H])[H])C([H])([H])c2c([H])c(OC([H])([H])C3([H])C([H])([H])C([H])([H])C([H])([H])[N+]3([H])C([H])([H])c3c(Cl)c([H])c(C([H])([H])N([H])C(=O)N4C([H])([H])C([H])([H])C([H])([H])C([H])(n5nc(-c6c([H])c([H])c(Oc7c([H])c([H])c(F)c([H])c7F)c([H])c6[H])c(C(=O)N([H])[H])c5N([H])[H])C4([H])[H])c(Cl)c3Cl)c([H])c([H])c2C1([H])[H]

>  <smiles>  (45) 
[H]c1c([H])c([H])c2c(c1[H])C([H])([H])C([H])([H])C([H])([H])C2([H])N([H])C(=O)C1([H])N(C(=O)C([H])(N([H])C(=O)C([H])(N([H])C([H])([H])[H])C([H])([H])[H])C(C([H])([H])[H])(C([H])([H])[H])C([H])([H])[H])C([H])([H])c2c([H])c(OC([H])([H])C3([H])C([H])([H])C([H])([H])C([H])([H])[N+]3([H])C([H])([H])c3c(Cl)c([H])c(C([H])([H])N([H])C(=O)N4C([H])([H])C([H])([H])C([H])([H])C([H])(n5nc(-c6c([H])c([H])c(Oc7c([H])c([H])c(F)c([H])c7F)c([H])c6[H])c(C(=O)N([H])[H])c5N([H])[H])C4([H])[H])c(Cl)c3Cl)c([H])c([H])c2C1([H])[H]

$$$$
45:0:0
     RDKit          3D

108116  0  0  1  0  0  0  0  0999 V2000
  -32.1590  -26.7670   19.0240 C   0  0  0  0  0  3  0  0  0  0  0  0
  -32.8900  -25.5030   17.0900 C   0  0  0  0  0  3  0  0  0  0  0  0
  -32.3820  -26.7110   17.6270 C   0  0  0  0  0  0  0  0  0  0  0  0
  -32.9580  -24.4680   19.3080 C   0  0  0  0  0  0  0  0  0  0  0  0
  -32.4410  -25.6670   19.8580 C   0  0  0  0  0  0  0  0  0  0  0  0
  -33.1690  -24.3960   17.9120 C   0  0  0  0  0  0  0  0  0  0  0  0
  -32.1250  -25.8230   21.5510 Cl  0  0  0  0  0  0  0  0  0  0  0  0
  -33.7420  -22.9420   17.1740 Cl  0  0  0  0  0  0  0  0  0  0  0  0
  -32.1090  -29.2670   17.5080 C   0  0  0  0  0  1  0  0  0  0  0  0
  -32.1260  -27.9310   16.7090 C   0  0  2  0  0  0  0  0  0  0  0  0
  -30.8660  -27.8140   15.8980 N   0  0  0  0  0  4  0  0  0  0  0  0
  -31.1580  -27.4340   15.0120 H   0  0  0  0  0  0  0  0  0  0  0  0
  -30.5700  -28.7550   15.6930 H   0  0  0  0  0  0  0  0  0  0  0  0
  -28.5570  -27.4170   15.2490 C   0  0  0  0  0  1  0  0  0  0  0  0
  -29.8440  -25.5030   16.0920 C   0  0  0  0  0  1  0  0  0  0  0  0
  -29.6410  -27.0300   16.2860 C   0  0  1  0  0  0  0  0  0  0  0  0
  -29.0790  -27.4150   17.6980 C   0  0  0  0  0  2  0  0  0  0  0  0
  -28.7450  -26.2760   18.6860 C   0  0  0  0  0  2  0  0  0  0  0  0
  -28.3840  -26.8190   19.9570 O   0  0  0  0  0  0  0  0  0  0  0  0
  -24.6230  -31.9030   23.2040 C   0  0  0  0  0  0  0  0  0  0  0  0
  -27.1960  -27.5040   20.0200 C   0  0  0  0  0  0  0  0  0  0  0  0
  -23.3810  -30.5110   21.5800 C   0  0  0  0  0  3  0  0  0  0  0  0
  -24.8020  -28.9890   20.1120 C   0  0  0  0  0  0  0  0  0  0  0  0
  -25.8980  -30.8720   21.3320 C   0  0  0  0  0  2  0  0  0  0  0  0
  -25.9680  -29.5050   20.6910 C   0  0  0  0  0  0  0  0  0  0  0  0
  -27.1670  -28.7610   20.6570 C   0  0  0  0  0  3  0  0  0  0  0  0
  -26.0090  -26.9860   19.4530 C   0  0  0  0  0  3  0  0  0  0  0  0
  -24.8140  -27.7270   19.4960 C   0  0  0  0  0  3  0  0  0  0  0  0
  -23.5610  -29.8480   20.1890 C   0  0  0  0  0  2  0  0  0  0  0  0
  -24.6530  -31.1090   22.0960 N   0  0  0  0  0  0  0  0  0  0  0  0
  -23.5540  -32.1730   23.7700 O   0  0  0  0  0  0  0  0  0  0  0  0
  -22.7560  -29.4800   22.5470 C   0  0  0  0  0  0  0  0  0  0  0  0
  -21.4300  -29.2890   22.4390 N   0  0  0  0  0  0  0  0  0  0  0  0
  -23.4580  -28.8540   23.3450 O   0  0  0  0  0  0  0  0  0  0  0  0
  -20.9240  -29.8520   21.7690 H   0  0  0  0  0  0  0  0  0  0  0  0
  -18.0760  -28.0660   22.9740 C   0  0  0  0  0  0  0  0  0  0  0  0
  -20.6330  -28.3440   23.2200 C   0  0  0  0  0  3  0  0  0  0  0  0
  -20.7420  -26.9140   22.6430 C   0  0  0  0  0  2  0  0  0  0  0  0
  -19.6310  -26.5820   21.6410 C   0  0  0  0  0  2  0  0  0  0  0  0
  -18.2560  -26.7190   22.2990 C   0  0  0  0  0  2  0  0  0  0  0  0
  -19.1910  -28.8380   23.3910 C   0  0  0  0  0  0  0  0  0  0  0  0
  -18.9680  -30.1020   23.9780 C   0  0  0  0  0  3  0  0  0  0  0  0
  -17.6590  -30.5930   24.1540 C   0  0  0  0  0  3  0  0  0  0  0  0
  -16.5590  -29.8180   23.7500 C   0  0  0  0  0  3  0  0  0  0  0  0
  -16.7680  -28.5570   23.1650 C   0  0  0  0  0  3  0  0  0  0  0  0
  -25.9240  -32.5260   23.7970 C   0  0  0  0  0  3  0  0  0  0  0  0
  -25.6270  -33.9240   24.1310 N   0  0  0  0  0  0  0  0  0  0  0  0
  -25.9580  -34.9740   23.3670 C   0  0  0  0  0  0  0  0  0  0  0  0
  -26.6170  -34.8680   22.3300 O   0  0  0  0  0  0  0  0  0  0  0  0
  -25.0300  -34.0820   24.9310 H   0  0  0  0  0  0  0  0  0  0  0  0
  -24.2390  -36.7770   23.0240 C   0  0  0  0  0  1  0  0  0  0  0  0
  -25.4830  -36.3650   23.8270 C   0  0  0  0  0  3  0  0  0  0  0  0
  -27.6300  -37.2340   24.6430 C   0  0  0  0  0  1  0  0  0  0  0  0
  -26.5230  -37.4100   23.7070 N   0  0  0  0  0  0  0  0  0  0  0  0
  -26.1260  -38.3350   23.8610 H   0  0  0  0  0  0  0  0  0  0  0  0
  -26.4680  -31.7500   25.0600 C   0  0  1  0  0  0  0  0  0  0  0  0
  -25.3950  -31.5060   26.1460 C   0  0  0  0  0  1  0  0  0  0  0  0
  -27.0450  -30.3740   24.6480 C   0  0  0  0  0  1  0  0  0  0  0  0
  -27.6300  -32.5440   25.7010 C   0  0  0  0  0  1  0  0  0  0  0  0
  -34.7090  -28.2500   16.3050 C   0  0  0  0  0  1  0  0  0  0  0  0
  -33.3020  -28.0880   15.6920 C   0  0  0  0  0  2  0  0  0  0  0  0
  -33.2970  -23.2720   20.1930 C   0  0  0  0  0  2  0  0  0  0  0  0
  -32.2540  -22.2290   20.1210 N   0  0  0  0  0  4  0  0  0  0  0  0
  -32.1890  -21.9310   19.1600 H   0  0  0  0  0  0  0  0  0  0  0  0
  -31.3690  -22.6300   20.3890 H   0  0  0  0  0  0  0  0  0  0  0  0
  -32.5200  -21.0450   20.9620 C   0  0  0  0  0  2  0  0  0  0  0  0
  -31.4690  -19.9440   20.7280 C   0  0  0  0  0  2  0  0  0  0  0  0
  -31.7230  -18.6790   21.5620 C   0  0  0  0  0  2  0  0  0  0  0  0
  -30.7800  -17.5330   21.1720 C   0  0  0  0  0  2  0  0  0  0  0  0
  -31.1230  -16.2190   21.8920 C   0  0  0  0  0  2  0  0  0  0  0  0
  -30.7130  -14.3920   20.2650 C   0  0  0  0  0  0  0  0  0  0  0  0
  -30.2590  -12.3830   18.9110 C   0  0  0  0  0  2  0  0  0  0  0  0
  -29.2590  -12.6550   17.7730 C   0  0  0  0  0  2  0  0  0  0  0  0
  -27.8100  -12.5180   18.2710 C   0  0  0  0  0  2  0  0  0  0  0  0
  -27.5500  -13.3020   19.5830 C   0  0  0  0  0  3  0  0  0  0  0  0
  -28.6440  -12.9950   20.6280 C   0  0  0  0  0  2  0  0  0  0  0  0
  -29.9580  -13.2900   20.0270 N   0  0  0  0  0  0  0  0  0  0  0  0
  -31.6920  -14.7080   19.5820 O   0  0  0  0  0  0  0  0  0  0  0  0
  -30.3680  -15.0960   21.3490 N   0  0  0  0  0  0  0  0  0  0  0  0
  -29.5510  -14.7850   21.8550 H   0  0  0  0  0  0  0  0  0  0  0  0
  -25.1700  -13.9070   20.3640 C   0  0  0  0  0  0  0  0  0  0  0  0
  -24.1190  -13.1290   20.7740 C   0  0  0  0  0  0  0  0  0  0  0  0
  -24.5890  -11.7820   20.7360 C   0  0  0  0  0  0  0  0  0  0  0  0
  -26.2130  -13.0300   20.1080 N   0  0  0  0  0  0  0  0  0  0  0  0
  -25.8670  -11.7470   20.3850 N   0  0  0  0  0  0  0  0  0  0  0  0
  -23.8780  -10.5150   20.9590 C   0  0  0  0  0  0  0  0  0  0  0  0
  -24.3390   -9.5650   21.8970 C   0  0  0  0  0  3  0  0  0  0  0  0
  -23.6290   -8.3640   22.1060 C   0  0  0  0  0  3  0  0  0  0  0  0
  -22.4460   -8.1020   21.3740 C   0  0  0  0  0  0  0  0  0  0  0  0
  -22.0060   -9.0400   20.4240 C   0  0  0  0  0  3  0  0  0  0  0  0
  -22.7160  -10.2350   20.2150 C   0  0  0  0  0  3  0  0  0  0  0  0
  -21.7050   -6.9510   21.4930 O   0  0  0  0  0  0  0  0  0  0  0  0
  -21.6790   -6.2270   22.6580 C   0  0  0  0  0  0  0  0  0  0  0  0
  -21.2700   -6.8010   23.8810 C   0  0  0  0  0  3  0  0  0  0  0  0
  -21.1910   -6.0030   25.0410 C   0  0  0  0  0  3  0  0  0  0  0  0
  -21.5140   -4.6350   24.9770 C   0  0  0  0  0  0  0  0  0  0  0  0
  -21.9150   -4.0610   23.7580 C   0  0  0  0  0  3  0  0  0  0  0  0
  -21.9950   -4.8550   22.6010 C   0  0  0  0  0  0  0  0  0  0  0  0
  -22.3640   -4.2940   21.4240 F   0  0  0  0  0  0  0  0  0  0  0  0
  -21.4310   -3.8650   26.0880 F   0  0  0  0  0  0  0  0  0  0  0  0
  -22.7290  -13.6000   21.0910 C   0  0  0  0  0  0  0  0  0  0  0  0
  -22.0330  -12.8970   21.9780 N   0  0  0  0  0  0  0  0  0  0  0  0
  -22.2710  -14.6230   20.5860 O   0  0  0  0  0  0  0  0  0  0  0  0
  -22.4180  -12.0670   22.4030 H   0  0  0  0  0  0  0  0  0  0  0  0
  -21.1030  -13.1950   22.2350 H   0  0  0  0  0  0  0  0  0  0  0  0
  -25.3240  -15.2760   20.1700 N   0  0  0  0  0  0  0  0  0  0  0  0
  -24.5660  -15.9360   20.3070 H   0  0  0  0  0  0  0  0  0  0  0  0
  -26.1700  -15.7110   19.8200 H   0  0  0  0  0  0  0  0  0  0  0  0
  1  5  1  0
  2  3  1  0
  2  6  2  0
  3  1  2  0
  4  5  2  0
  4 62  1  0
  5  7  1  0
  6  4  1  0
  8  6  1  0
 10  9  1  1
 10  3  1  0
 11 16  1  0
 11 10  1  0
 12 11  1  0
 13 11  1  0
 16 14  1  6
 15 16  1  0
 16 17  1  0
 17 18  1  0
 18 19  1  0
 19 21  1  0
 20 31  2  0
 21 26  1  0
 22 30  1  0
 22 32  1  0
 23 29  1  0
 23 25  1  0
 24 30  1  0
 25 24  1  0
 26 25  2  0
 27 28  1  0
 27 21  2  0
 28 23  2  0
 29 22  1  0
 30 20  1  0
 32 34  2  0
 33 32  1  0
 35 33  1  0
 36 45  2  0
 36 41  1  0
 37 33  1  0
 37 41  1  0
 38 37  1  0
 39 40  1  0
 39 38  1  0
 40 36  1  0
 41 42  2  0
 42 43  1  0
 44 43  2  0
 45 44  1  0
 46 20  1  0
 46 47  1  0
 46 56  1  0
 47 50  1  0
 48 52  1  0
 48 47  1  0
 49 48  2  0
 52 51  1  0
 54 52  1  0
 54 55  1  0
 54 53  1  0
 56 59  1  1
 56 57  1  0
 58 56  1  0
 61 60  1  0
 61 10  1  0
 63 62  1  0
 63 65  1  0
 63 66  1  0
 64 63  1  0
 67 66  1  0
 67 68  1  0
 69 68  1  0
 69 70  1  0
 71 79  1  0
 72 77  1  0
 73 74  1  0
 73 72  1  0
 75 74  1  0
 75 84  1  0
 75 76  1  0
 77 71  1  0
 77 76  1  0
 78 71  2  0
 79 80  1  0
 79 70  1  0
 81 82  2  0
 82101  1  0
 83 82  1  0
 83 86  1  0
 84 81  1  0
 84 85  1  0
 85 83  2  0
 86 87  1  0
 87 88  2  0
 89 92  1  0
 89 88  1  0
 90 89  2  0
 91 90  1  0
 91 86  2  0
 92 93  1  0
 93 94  1  0
 94 95  2  0
 96 95  1  0
 96100  1  0
 97 96  2  0
 98 93  2  0
 98 97  1  0
 99 98  1  0
101102  1  0
102105  1  0
102104  1  0
103101  2  0
106107  1  0
106 81  1  0
108106  1  0
M  ISO  4  18 101  19 101  71 100  79 100
M  END
>  <TORSDO>  (46) 
F 29

>  <SCORE>  (46) 
-10.751

>  <name>  (46) 
45

>  <ligand_id>  (46) 
45

>  <original_smiles>  (46) 
[H]c1c([H])c([H])c2c(c1[H])C([H])([H])C([H])([H])C([H])([H])C2([H])N([H])C(=O)C1([H])N(C(=O)C([H])(N([H])C(=O)C([H])(N([H])C([H])([H])[H])C([H])([H])[H])C(C([H])([H])[H])(C([H])([H])[H])C([H])([H])[H])C([H])([H])c2c([H])c(OC([H])([H])C([H])([H])C(C([H])([H])[H])(C([H])([H])[H])[N+]([H])([H])C(c3c([H])c(Cl)c(C([H])([H])[N+]([H])([H])C([H])([H])C([H])([H])C([H])([H])C([H])([H])C([H])([H])N([H])C(=O)N4C([H])([H])C([H])([H])C([H])([H])C([H])(n5nc(-c6c([H])c([H])c(Oc7c([H])c([H])c(F)c([H])c7F)c([H])c6[H])c(C(=O)N([H])[H])c5N([H])[H])C4([H])[H])c(Cl)c3[H])(C([H])([H])[H])C([H])([H])C([H])([H])[H])c([H])c([H])c2C1([H])[H]

>  <smiles>  (46) 
[H]c1c([H])c([H])c2c(c1[H])C([H])([H])C([H])([H])C([H])([H])C2([H])N([H])C(=O)C1([H])N(C(=O)C([H])(N([H])C(=O)C([H])(N([H])C([H])([H])[H])C([H])([H])[H])C(C([H])([H])[H])(C([H])([H])[H])C([H])([H])[H])C([H])([H])c2c([H])c(OC([H])([H])C([H])([H])C(C([H])([H])[H])(C([H])([H])[H])[N+]([H])([H])C(c3c([H])c(Cl)c(C([H])([H])[N+]([H])([H])C([H])([H])C([H])([H])C([H])([H])C([H])([H])C([H])([H])N([H])C(=O)N4C([H])([H])C([H])([H])C([H])([H])C([H])(n5nc(-c6c([H])c([H])c(Oc7c([H])c([H])c(F)c([H])c7F)c([H])c6[H])c(C(=O)N([H])[H])c5N([H])[H])C4([H])[H])c(Cl)c3[H])(C([H])([H])[H])C([H])([H])C([H])([H])[H])c([H])c([H])c2C1([H])[H]

$$$$
46:0:0
     RDKit          3D

 96 99  0  0  1  0  0  0  0  0999 V2000
  -21.5190  -16.6220   20.3330 C   0  0  0  0  0  2  0  0  0  0  0  0
  -22.0150  -13.9500   19.0780 C   0  0  0  0  0 15  0  0  0  0  0  0
  -23.8900  -13.3130   18.4620 C   0  0  0  0  0  1  0  0  0  0  0  0
  -25.5670  -13.8730   19.5200 C   0  0  0  0  0  1  0  0  0  0  0  0
  -21.8530  -15.1250   20.7840 C   0  0  0  0  0  1  0  0  0  0  0  0
  -25.2410  -14.8580   21.3370 C   0  0  0  0  0  2  0  0  0  0  0  0
  -24.0520  -12.5450   17.1810 C   0  0  0  0  0  1  0  0  0  0  0  0
  -23.4450  -15.3980   21.9090 N   0  0  0  0  0  1  0  0  0  0  0  0
  -26.5530  -15.5200   22.2590 Cl  0  0  0  0  0  0  0  0  0  0  0  0
  -27.1690  -13.7140   18.8780 C   0  0  0  0  0  2  0  0  0  0  0  0
  -29.9700  -12.8370   19.2490 C   0  0  0  0  0  0  0  0  0  0  0  0
  -30.6440  -10.4570   18.8240 C   0  0  0  0  0  2  0  0  0  0  0  0
  -29.5650   -9.9900   17.8170 C   0  0  0  0  0  2  0  0  0  0  0  0
  -28.2310   -9.6550   18.5280 C   0  0  0  0  0  2  0  0  0  0  0  0
  -27.9030  -10.7320   19.5530 C   0  0  0  0  0  3  0  0  0  0  0  0
  -29.0820  -10.9870   20.5110 C   0  0  0  0  0  2  0  0  0  0  0  0
  -30.0480  -11.5340   19.6290 N   0  0  0  0  0  0  0  0  0  0  0  0
  -31.0410  -13.2840   18.7670 O   0  0  0  0  0  0  0  0  0  0  0  0
  -28.6960  -13.5280   19.4970 N   0  0  0  0  0  0  0  0  0  0  0  0
  -28.9650  -14.4430   19.8250 H   0  0  0  0  0  0  0  0  0  0  0  0
  -26.2530  -11.3900   21.2700 C   0  0  0  0  0  3  0  0  0  0  0  0
  -24.9380  -11.3800   21.1380 C   0  0  0  0  0  3  0  0  0  0  0  0
  -24.8690   -9.9470   20.9540 C   0  0  0  0  0  3  0  0  0  0  0  0
  -26.6910  -10.6360   20.2640 N   0  0  0  0  0  0  0  0  0  0  0  0
  -25.9580   -9.5480   20.3070 N   0  0  0  0  0  2  0  0  0  0  0  0
  -24.0170   -8.8300   21.3190 C   0  0  0  0  0  0  0  0  0  0  0  0
  -24.5450   -7.8070   22.1490 C   0  0  0  0  0  3  0  0  0  0  0  0
  -23.7910   -6.6540   22.4380 C   0  0  0  0  0  3  0  0  0  0  0  0
  -22.4940   -6.5280   21.8910 C   0  0  0  0  0  0  0  0  0  0  0  0
  -21.9800   -7.5470   21.0710 C   0  0  0  0  0  3  0  0  0  0  0  0
  -22.7340   -8.6920   20.7790 C   0  0  0  0  0  3  0  0  0  0  0  0
  -21.6850   -5.4380   22.0850 O   0  0  0  0  0  0  0  0  0  0  0  0
  -21.7570   -4.6930   23.2300 C   0  0  0  0  0  0  0  0  0  0  0  0
  -21.5380   -5.2480   24.5120 C   0  0  0  0  0  3  0  0  0  0  0  0
  -21.5440   -4.4160   25.6460 C   0  0  0  0  0  3  0  0  0  0  0  0
  -21.7480   -3.0290   25.5050 C   0  0  0  0  0  0  0  0  0  0  0  0
  -21.9570   -2.4750   24.2310 C   0  0  0  0  0  3  0  0  0  0  0  0
  -21.9620   -3.3040   23.0980 C   0  0  0  0  0  0  0  0  0  0  0  0
  -22.1450   -2.7640   21.8700 F   0  0  0  0  0  0  0  0  0  0  0  0
  -21.7370   -2.2300   26.5970 F   0  0  0  0  0  0  0  0  0  0  0  0
  -23.9790  -12.5800   21.2980 C   0  0  0  0  0  2  0  0  0  0  0  0
  -24.1060  -14.6250   20.6770 N   0  0  0  0  0  4  0  0  0  0  0  0
  -22.9710  -12.0130   21.7280 O   0  0  0  0  0  1  0  0  0  0  0  0
  -25.0010  -14.7500   20.2080 H   0  0  0  0  0  0  0  0  0  0  0  0
  -23.2760  -15.0870   20.3400 H   0  0  0  0  0  0  0  0  0  0  0  0
  -27.1400  -12.1310   21.9730 N   0  0  0  0  0  0  0  0  0  0  0  0
  -27.0130  -12.4090   22.9360 H   0  0  0  0  0  0  0  0  0  0  0  0
  -28.0960  -12.2170   21.6540 H   0  0  0  0  0  0  0  0  0  0  0  0
  -22.6530  -17.8320   20.3660 C   0  0  0  0  0  3  0  0  0  0  0  0
  -23.6680  -18.3380   19.1820 C   0  0  0  0  0  3  0  0  0  0  0  0
  -24.8760  -19.3800   19.5080 C   0  0  0  0  0  3  0  0  0  0  0  0
  -25.5600  -20.2790   18.3410 C   0  0  0  0  0  3  0  0  0  0  0  0
  -26.8820  -21.1890   18.6050 C   0  0  0  0  0  2  0  0  0  0  0  0
  -27.4080  -22.2670   17.4990 C   0  0  0  0  0  3  0  0  0  0  0  0
  -28.7270  -23.2150   17.7590 C   0  0  0  0  0  3  0  0  0  0  0  0
  -29.1570  -24.4520   16.9730 O   0  0  0  0  0  0  0  0  0  0  0  0
  -26.7100  -28.3380   22.4900 C   0  0  0  0  0  0  0  0  0  0  0  0
  -28.5380  -25.6230   17.3990 C   0  0  0  0  0  0  0  0  0  0  0  0
  -25.4460  -28.3470   20.3810 C   0  0  0  0  0  3  0  0  0  0  0  0
  -26.7040  -27.5680   18.3090 C   0  0  0  0  0  0  0  0  0  0  0  0
  -28.0070  -28.1080   20.3560 C   0  0  0  0  0  2  0  0  0  0  0  0
  -27.8670  -27.3270   19.0550 C   0  0  0  0  0  0  0  0  0  0  0  0
  -28.8100  -26.3540   18.6000 C   0  0  0  0  0  3  0  0  0  0  0  0
  -27.4330  -25.9990   16.6270 C   0  0  0  0  0  3  0  0  0  0  0  0
  -26.4960  -26.9230   17.0890 C   0  0  0  0  0  3  0  0  0  0  0  0
  -25.6780  -28.5260   18.8610 C   0  0  0  0  0  2  0  0  0  0  0  0
  -26.7390  -28.2490   21.1310 N   0  0  0  0  0  0  0  0  0  0  0  0
  -25.6490  -28.5200   23.1020 O   0  0  0  0  0  0  0  0  0  0  0  0
  -24.5050  -27.1410   20.6170 C   0  0  0  0  0  0  0  0  0  0  0  0
  -23.2370  -27.2690   20.1870 N   0  0  0  0  0  0  0  0  0  0  0  0
  -24.9180  -26.1140   21.1630 O   0  0  0  0  0  0  0  0  0  0  0  0
  -22.9730  -28.1460   19.7580 H   0  0  0  0  0  0  0  0  0  0  0  0
  -19.8620  -26.4510   19.1660 C   0  0  0  0  0  0  0  0  0  0  0  0
  -22.1860  -26.2550   20.2870 C   0  0  0  0  0  3  0  0  0  0  0  0
  -22.4450  -25.0860   19.3060 C   0  0  0  0  0  2  0  0  0  0  0  0
  -21.7420  -25.2630   17.9570 C   0  0  0  0  0  2  0  0  0  0  0  0
  -20.2280  -25.3810   18.1500 C   0  0  0  0  0  2  0  0  0  0  0  0
  -20.7870  -26.8700   20.1590 C   0  0  0  0  0  0  0  0  0  0  0  0
  -20.4090  -27.8920   21.0580 C   0  0  0  0  0  3  0  0  0  0  0  0
  -19.1360  -28.4860   20.9780 C   0  0  0  0  0  3  0  0  0  0  0  0
  -18.2180  -28.0540   20.0050 C   0  0  0  0  0  3  0  0  0  0  0  0
  -18.5810  -27.0360   19.1040 C   0  0  0  0  0  3  0  0  0  0  0  0
  -28.0140  -28.2390   23.3390 C   0  0  0  0  0  3  0  0  0  0  0  0
  -28.3660  -26.7610   23.7660 C   0  0  1  0  0  0  0  0  0  0  0  0
  -27.1930  -26.0120   24.4400 C   0  0  0  0  0  1  0  0  0  0  0  0
  -28.8150  -25.9270   22.5450 C   0  0  0  0  0  1  0  0  0  0  0  0
  -29.5580  -26.7720   24.7490 C   0  0  0  0  0  1  0  0  0  0  0  0
  -27.8320  -29.0870   24.5260 N   0  0  0  0  0  0  0  0  0  0  0  0
  -28.3670  -30.3050   24.6830 C   0  0  0  0  0  0  0  0  0  0  0  0
  -29.1380  -30.8080   23.8610 O   0  0  0  0  0  0  0  0  0  0  0  0
  -27.1710  -28.7600   25.2150 H   0  0  0  0  0  0  0  0  0  0  0  0
  -26.9130  -32.1300   25.6210 C   0  0  0  0  0  1  0  0  0  0  0  0
  -27.9930  -31.0900   25.9560 C   0  0  0  0  0  3  0  0  0  0  0  0
  -30.1020  -30.8190   27.1850 C   0  0  0  0  0  1  0  0  0  0  0  0
  -29.1480  -31.7570   26.5980 N   0  0  0  0  0  0  0  0  0  0  0  0
  -28.8380  -32.3930   27.3270 H   0  0  0  0  0  0  0  0  0  0  0  0
  1 49  1  0
  1  5  1  0
  6  9  1  0
  7  3  1  0
 10 19  1  0
 10  4  1  0
 11 19  1  0
 11 17  1  0
 12 17  1  0
 13 14  1  0
 13 12  1  0
 15 14  1  0
 15 24  1  0
 15 16  1  0
 17 16  1  0
 18 11  2  0
 19 20  1  0
 21 46  1  0
 22 21  1  0
 22 41  1  0
 23 22  1  0
 23 26  1  0
 24 25  1  0
 24 21  1  0
 25 23  1  0
 26 27  1  0
 27 28  2  0
 29 32  1  0
 29 28  1  0
 30 29  2  0
 31 30  1  0
 31 26  2  0
 32 33  1  0
 33 34  1  0
 34 35  2  0
 36 35  1  0
 36 40  1  0
 37 36  2  0
 38 33  2  0
 38 37  1  0
 39 38  1  0
 41 43  1  0
 42  6  1  0
 42  8  1  0
 44 42  1  0
 45 42  1  0
 46 47  1  0
 48 46  1  0
 50 51  1  0
 50 49  2  0
 52 53  1  0
 52 51  2  0
 54 55  2  0
 54 53  1  0
 56 58  1  0
 56 55  1  0
 57 68  2  0
 58 63  1  0
 59 69  1  0
 59 67  1  0
 60 66  1  0
 60 62  1  0
 61 67  1  0
 62 61  1  0
 63 62  2  0
 64 65  1  0
 64 58  2  0
 65 60  2  0
 66 59  1  0
 67 57  1  0
 69 71  2  0
 70 69  1  0
 72 70  1  0
 73 78  1  0
 74 70  1  0
 75 74  1  0
 76 77  1  0
 76 75  1  0
 77 73  1  0
 78 74  1  0
 78 79  2  0
 80 79  1  0
 81 80  2  0
 82 73  2  0
 82 81  1  0
 83 57  1  0
 83 84  1  0
 83 88  1  0
 84 85  1  1
 84 87  1  0
 86 84  1  0
 88 89  1  0
 88 91  1  0
 89 93  1  0
 90 89  2  0
 93 92  1  0
 93 95  1  0
 95 94  1  0
 95 96  1  0
M  ISO  4  11 100  19 100  55 101  56 101
M  END
>  <TORSDO>  (47) 
F 25

>  <SCORE>  (47) 
22.386

>  <name>  (47) 
46

>  <ligand_id>  (47) 
46

>  <original_smiles>  (47) 
[H]c1c([H])c([H])c2c(c1[H])C([H])([H])C([H])([H])C([H])([H])C2([H])N([H])C(=O)C1([H])N(C(=O)C([H])(N([H])C(=O)C([H])(N([H])C([H])([H])[H])C([H])([H])[H])C(C([H])([H])[H])(C([H])([H])[H])C([H])([H])[H])C([H])([H])c2c([H])c(OC([H])([H])C([H])([H])C([H])([H])C([H])([H])C([H])([H])C([H])([H])C([H])([H])C([H])([H])c3nc(Cl)c(C([H])([H])N([H])C(=O)N4C([H])([H])C([H])([H])C([H])([H])C([H])(n5nc(-c6c([H])c([H])c(Oc7c([H])c([H])c(F)c([H])c7F)c([H])c6[H])c(C(=O)N([H])[H])c5N([H])[H])C4([H])[H])c(C([H])([H])[H])c3[H])c([H])c([H])c2C1([H])[H]

>  <smiles>  (47) 
[H]c1c([H])c([H])c2c(c1[H])C([H])([H])C([H])([H])C([H])([H])C2([H])N([H])C(=O)C1([H])N(C(=O)C([H])(N([H])C(=O)C([H])(N([H])C([H])([H])[H])C([H])([H])[H])C(C([H])([H])[H])(C([H])([H])[H])C([H])([H])[H])C([H])([H])c2c([H])c(OC([H])([H])C([H])([H])C([H])([H])C([H])([H])C([H])([H])C([H])([H])C([H])([H])C([H])([H])c3nc(Cl)c(C([H])([H])N([H])C(=O)N4C([H])([H])C([H])([H])C([H])([H])C([H])(n5nc(-c6c([H])c([H])c(Oc7c([H])c([H])c(F)c([H])c7F)c([H])c6[H])c(C(=O)N([H])[H])c5N([H])[H])C4([H])[H])c(C([H])([H])[H])c3[H])c([H])c([H])c2C1([H])[H]

$$$$
47:0:0
     RDKit          3D

 99108  0  0  1  0  0  0  0  0999 V2000
  -30.9030  -18.7530   19.6750 C   0  0  0  0  0  0  0  0  0  0  0  0
  -31.3740  -19.4100   18.5150 C   0  0  0  0  0  0  0  0  0  0  0  0
  -30.3020  -17.7610   17.1090 C   0  0  0  0  0  0  0  0  0  0  0  0
  -30.4760  -17.3690   19.5570 C   0  0  0  0  0  0  0  0  0  0  0  0
  -31.0310  -18.9470   17.2350 C   0  0  0  0  0  0  0  0  0  0  0  0
  -30.0720  -16.9680   18.2520 C   0  0  0  0  0  0  0  0  0  0  0  0
  -30.7400  -22.3190   19.9990 C   0  0  0  0  0  3  0  0  0  0  0  0
  -30.6380  -23.6840   20.2800 C   0  0  0  0  0  3  0  0  0  0  0  0
  -30.7670  -19.6820   20.9100 C   0  0  0  0  0  2  0  0  0  0  0  0
  -32.2390  -20.6430   18.6460 C   0  0  0  0  0  2  0  0  0  0  0  0
  -30.0170  -21.0890   20.6700 C   0  0  0  0  0  2  0  0  0  0  0  0
  -31.4500  -21.9380   18.6820 C   0  0  0  0  0  2  0  0  0  0  0  0
  -29.7470  -17.3620   15.7530 C   0  0  0  0  0  1  0  0  0  0  0  0
  -31.6060  -24.6430   19.5750 C   0  0  0  0  0  1  0  0  0  0  0  0
  -31.3330  -19.6840   16.1360 F   0  0  0  0  0  0  0  0  0  0  0  0
  -29.3660  -15.8320   18.0890 F   0  0  0  0  0  0  0  0  0  0  0  0
  -31.1170  -15.2820   20.8290 C   0  0  0  0  0  0  0  0  0  0  0  0
  -31.0200  -12.9620   19.9840 C   0  0  0  0  0  2  0  0  0  0  0  0
  -30.2380  -13.0110   18.6560 C   0  0  0  0  0  2  0  0  0  0  0  0
  -28.7100  -12.9640   18.8940 C   0  0  0  0  0  2  0  0  0  0  0  0
  -28.2050  -13.8340   20.0870 C   0  0  0  0  0  3  0  0  0  0  0  0
  -29.1530  -13.7570   21.3020 C   0  0  0  0  0  2  0  0  0  0  0  0
  -30.5070  -14.0550   20.8270 N   0  0  0  0  0  0  0  0  0  0  0  0
  -32.3440  -15.3770   20.7890 O   0  0  0  0  0  0  0  0  0  0  0  0
  -30.3100  -16.3820   20.6310 N   0  0  0  0  0  0  0  0  0  0  0  0
  -29.3500  -16.1050   20.7450 H   0  0  0  0  0  0  0  0  0  0  0  0
  -25.7420  -14.4140   20.5620 C   0  0  0  0  0  0  0  0  0  0  0  0
  -24.6500  -13.6330   20.8240 C   0  0  0  0  0  0  0  0  0  0  0  0
  -25.1300  -12.2890   20.8470 C   0  0  0  0  0  0  0  0  0  0  0  0
  -26.8170  -13.5450   20.4430 N   0  0  0  0  0  0  0  0  0  0  0  0
  -26.4460  -12.2610   20.6780 N   0  0  0  0  0  0  0  0  0  0  0  0
  -24.3960  -11.0210   20.9550 C   0  0  0  0  0  0  0  0  0  0  0  0
  -24.7150  -10.0600   21.9410 C   0  0  0  0  0  3  0  0  0  0  0  0
  -23.9800   -8.8580   22.0310 C   0  0  0  0  0  3  0  0  0  0  0  0
  -22.9130   -8.6080   21.1370 C   0  0  0  0  0  0  0  0  0  0  0  0
  -22.6190   -9.5520   20.1380 C   0  0  0  0  0  3  0  0  0  0  0  0
  -23.3570  -10.7460   20.0440 C   0  0  0  0  0  3  0  0  0  0  0  0
  -22.1620   -7.4560   21.1350 O   0  0  0  0  0  0  0  0  0  0  0  0
  -21.9350   -6.7440   22.2850 C   0  0  0  0  0  0  0  0  0  0  0  0
  -21.3040   -7.3220   23.4080 C   0  0  0  0  0  3  0  0  0  0  0  0
  -21.0330   -6.5380   24.5450 C   0  0  0  0  0  3  0  0  0  0  0  0
  -21.3790   -5.1740   24.5610 C   0  0  0  0  0  0  0  0  0  0  0  0
  -22.0020   -4.5940   23.4420 C   0  0  0  0  0  3  0  0  0  0  0  0
  -22.2810   -5.3770   22.3080 C   0  0  0  0  0  0  0  0  0  0  0  0
  -22.8640   -4.8080   21.2250 F   0  0  0  0  0  0  0  0  0  0  0  0
  -21.1110   -4.4160   25.6500 F   0  0  0  0  0  0  0  0  0  0  0  0
  -23.2270  -14.0960   20.9390 C   0  0  0  0  0  0  0  0  0  0  0  0
  -22.4150  -13.4030   21.7290 N   0  0  0  0  0  0  0  0  0  0  0  0
  -22.8390  -15.1080   20.3540 O   0  0  0  0  0  0  0  0  0  0  0  0
  -22.7390  -12.5820   22.2220 H   0  0  0  0  0  0  0  0  0  0  0  0
  -21.4540  -13.6930   21.8440 H   0  0  0  0  0  0  0  0  0  0  0  0
  -25.8810  -15.7890   20.3900 N   0  0  0  0  0  0  0  0  0  0  0  0
  -25.0480  -16.3660   20.3520 H   0  0  0  0  0  0  0  0  0  0  0  0
  -26.6960  -16.2570   20.0240 H   0  0  0  0  0  0  0  0  0  0  0  0
  -28.6110  -23.6290   21.8970 C   0  0  0  0  0  1  0  0  0  0  0  0
  -30.4390  -25.2650   22.2750 C   0  0  0  0  0  1  0  0  0  0  0  0
  -29.6420  -24.5270   21.1740 C   0  0  1  0  0  0  0  0  0  0  0  0
  -28.8030  -25.5960   20.3000 C   0  0  0  0  0  2  0  0  0  0  0  0
  -28.8050  -27.0380   20.6380 O   0  0  0  0  0  0  0  0  0  0  0  0
  -24.7950  -32.2960   23.4820 C   0  0  0  0  0  0  0  0  0  0  0  0
  -27.6330  -27.8080   20.5290 C   0  0  0  0  0  0  0  0  0  0  0  0
  -23.6660  -30.8160   21.8590 C   0  0  0  0  0  3  0  0  0  0  0  0
  -25.1920  -29.3080   20.4760 C   0  0  0  0  0  0  0  0  0  0  0  0
  -26.1910  -31.2430   21.6910 C   0  0  0  0  0  2  0  0  0  0  0  0
  -26.3330  -29.8580   21.0740 C   0  0  0  0  0  0  0  0  0  0  0  0
  -27.5480  -29.1150   21.0990 C   0  0  0  0  0  3  0  0  0  0  0  0
  -26.4700  -27.3240   19.8790 C   0  0  0  0  0  3  0  0  0  0  0  0
  -25.2650  -28.0450   19.8700 C   0  0  0  0  0  3  0  0  0  0  0  0
  -23.9180  -30.1250   20.4950 C   0  0  0  0  0  2  0  0  0  0  0  0
  -24.9010  -31.4690   22.4000 N   0  0  0  0  0  0  0  0  0  0  0  0
  -23.6980  -32.5360   24.0050 O   0  0  0  0  0  0  0  0  0  0  0  0
  -23.0420  -29.7910   22.8360 C   0  0  0  0  0  0  0  0  0  0  0  0
  -21.7570  -29.4570   22.6240 N   0  0  0  0  0  0  0  0  0  0  0  0
  -23.7130  -29.2960   23.7450 O   0  0  0  0  0  0  0  0  0  0  0  0
  -21.2670  -29.9170   21.8680 H   0  0  0  0  0  0  0  0  0  0  0  0
  -18.5110  -27.8870   22.9250 C   0  0  0  0  0  0  0  0  0  0  0  0
  -20.9820  -28.4830   23.3960 C   0  0  0  0  0  3  0  0  0  0  0  0
  -21.3060  -27.0350   22.9540 C   0  0  0  0  0  2  0  0  0  0  0  0
  -20.3550  -26.5060   21.8760 C   0  0  0  0  0  2  0  0  0  0  0  0
  -18.9100  -26.5240   22.3830 C   0  0  0  0  0  2  0  0  0  0  0  0
  -19.4850  -28.8130   23.3850 C   0  0  0  0  0  0  0  0  0  0  0  0
  -19.0630  -30.0780   23.8470 C   0  0  0  0  0  3  0  0  0  0  0  0
  -17.6990  -30.4220   23.8560 C   0  0  0  0  0  3  0  0  0  0  0  0
  -16.7370  -29.4980   23.4110 C   0  0  0  0  0  3  0  0  0  0  0  0
  -17.1440  -28.2320   22.9530 C   0  0  0  0  0  3  0  0  0  0  0  0
  -26.0460  -32.9970   24.0950 C   0  0  0  0  0  3  0  0  0  0  0  0
  -25.6820  -34.3970   24.3580 N   0  0  0  0  0  0  0  0  0  0  0  0
  -25.9890  -35.4280   23.5580 C   0  0  0  0  0  0  0  0  0  0  0  0
  -26.6740  -35.3030   22.5400 O   0  0  0  0  0  0  0  0  0  0  0  0
  -25.0740  -34.5630   25.1460 H   0  0  0  0  0  0  0  0  0  0  0  0
  -24.2030  -37.1450   23.1120 C   0  0  0  0  0  1  0  0  0  0  0  0
  -25.4490  -36.8170   23.9510 C   0  0  0  0  0  3  0  0  0  0  0  0
  -27.5500  -37.8060   24.7480 C   0  0  0  0  0  1  0  0  0  0  0  0
  -26.4440  -37.9000   23.8010 N   0  0  0  0  0  0  0  0  0  0  0  0
  -26.0050  -38.8090   23.9090 H   0  0  0  0  0  0  0  0  0  0  0  0
  -26.5640  -32.2990   25.4120 C   0  0  1  0  0  0  0  0  0  0  0  0
  -25.4420  -31.9630   26.4220 C   0  0  0  0  0  1  0  0  0  0  0  0
  -27.3050  -30.9810   25.0820 C   0  0  0  0  0  1  0  0  0  0  0  0
  -27.5860  -33.2170   26.1230 C   0  0  0  0  0  1  0  0  0  0  0  0
  1  9  1  0
  2 10  1  0
  2  1  2  0
  3  5  2  0
  3  6  1  0
  4  1  1  0
  4 25  1  0
  5  2  1  0
  6  4  2  0
  7  8  1  0
  7 11  1  0
  8 14  1  0
  8 57  1  0
 10 12  1  0
 11  9  1  0
 12  7  1  0
 13  3  1  0
 15  5  1  0
 16  6  1  0
 18 23  1  0
 19 20  1  0
 19 18  1  0
 21 20  1  0
 21 30  1  0
 21 22  1  0
 23 17  1  0
 23 22  1  0
 24 17  2  0
 25 26  1  0
 25 17  1  0
 27 28  2  0
 28 29  1  0
 28 47  1  0
 29 32  1  0
 30 27  1  0
 30 31  1  0
 31 29  2  0
 32 33  1  0
 33 34  2  0
 35 34  1  0
 36 35  2  0
 37 36  1  0
 37 32  2  0
 38 35  1  0
 38 39  1  0
 39 44  2  0
 39 40  1  0
 40 41  2  0
 41 42  1  0
 42 46  1  0
 43 42  2  0
 44 43  1  0
 45 44  1  0
 47 48  1  0
 48 51  1  0
 48 50  1  0
 49 47  2  0
 52 27  1  0
 53 52  1  0
 54 52  1  0
 57 55  1  1
 57 56  1  0
 58 59  1  0
 58 57  1  0
 60 71  2  0
 61 59  1  0
 61 66  1  0
 62 70  1  0
 62 72  1  0
 63 69  1  0
 63 65  1  0
 64 70  1  0
 65 66  2  0
 65 64  1  0
 67 61  2  0
 68 67  1  0
 68 63  2  0
 69 62  1  0
 70 60  1  0
 72 74  2  0
 73 72  1  0
 75 73  1  0
 76 85  2  0
 76 81  1  0
 77 73  1  0
 78 77  1  0
 79 80  1  0
 79 78  1  0
 80 76  1  0
 81 77  1  0
 81 82  2  0
 82 83  1  0
 84 83  2  0
 85 84  1  0
 86 60  1  0
 86 87  1  0
 86 96  1  0
 87 90  1  0
 88 92  1  0
 88 87  1  0
 89 88  2  0
 92 91  1  0
 94 95  1  0
 94 92  1  0
 94 93  1  0
 96 99  1  1
 96 97  1  0
 98 96  1  0
M  ISO  4  17 100  25 100  58 101  59 101
M  END
>  <TORSDO>  (48) 
F 18

>  <SCORE>  (48) 
-10.438

>  <name>  (48) 
47

>  <ligand_id>  (48) 
47

>  <original_smiles>  (48) 
[H]c1c([H])c([H])c2c(c1[H])C([H])([H])C([H])([H])C([H])([H])C2([H])N([H])C(=O)C1([H])N(C(=O)C([H])(N([H])C(=O)C([H])(N([H])C([H])([H])[H])C([H])([H])[H])C(C([H])([H])[H])(C([H])([H])[H])C([H])([H])[H])C([H])([H])c2c([H])c(OC([H])([H])C(C(=C3C([H])([H])C([H])([H])c4c(F)c(C([H])([H])[H])c(F)c(N([H])C(=O)N5C([H])([H])C([H])([H])C([H])([H])C([H])(n6nc(-c7c([H])c([H])c(Oc8c([H])c([H])c(F)c([H])c8F)c([H])c7[H])c(C(=O)N([H])[H])c6N([H])[H])C5([H])[H])c4C([H])([H])C3([H])[H])C([H])([H])[H])(C([H])([H])[H])C([H])([H])[H])c([H])c([H])c2C1([H])[H]

>  <smiles>  (48) 
[H]c1c([H])c([H])c2c(c1[H])C([H])([H])C([H])([H])C([H])([H])C2([H])N([H])C(=O)C1([H])N(C(=O)C([H])(N([H])C(=O)C([H])(N([H])C([H])([H])[H])C([H])([H])[H])C(C([H])([H])[H])(C([H])([H])[H])C([H])([H])[H])C([H])([H])c2c([H])c(OC([H])([H])C(C(=C3C([H])([H])C([H])([H])c4c(F)c(C([H])([H])[H])c(F)c(N([H])C(=O)N5C([H])([H])C([H])([H])C([H])([H])C([H])(n6nc(-c7c([H])c([H])c(Oc8c([H])c([H])c(F)c([H])c8F)c([H])c7[H])c(C(=O)N([H])[H])c6N([H])[H])C5([H])[H])c4C([H])([H])C3([H])[H])C([H])([H])[H])(C([H])([H])[H])C([H])([H])[H])c([H])c([H])c2C1([H])[H]

$$$$
48:0:0
     RDKit          3D

 97105  0  0  1  0  0  0  0  0999 V2000
  -27.2190  -21.5630   20.8570 C   0  0  0  0  0  3  0  0  0  0  0  0
  -27.7570  -22.5470   21.7060 C   0  0  0  0  0  3  0  0  0  0  0  0
  -26.3140  -21.9380   19.8370 C   0  0  0  0  0  0  0  0  0  0  0  0
  -27.3350  -23.8780   21.5440 C   0  0  0  0  0  0  0  0  0  0  0  0
  -25.9270  -23.3040   19.7950 C   0  0  0  0  0  0  0  0  0  0  0  0
  -26.4010  -24.2380   20.6440 N   0  0  0  0  0  0  0  0  0  0  0  0
  -24.8070  -23.8450   18.5930 Cl  0  0  0  0  0  0  0  0  0  0  0  0
  -27.0780  -25.4360   23.5350 C   0  0  0  0  0  1  0  0  0  0  0  0
  -27.9660  -25.0100   22.3490 C   0  0  0  0  0  3  0  0  0  0  0  0
  -28.3650  -26.2350   21.4770 C   0  0  0  0  0  2  0  0  0  0  0  0
  -28.6690  -26.0100   19.9630 C   0  0  0  0  0  2  0  0  0  0  0  0
  -28.5460  -27.2220   19.1980 O   0  0  0  0  0  0  0  0  0  0  0  0
  -24.6400  -31.7910   22.9340 C   0  0  0  0  0  0  0  0  0  0  0  0
  -27.3310  -27.8640   19.2860 C   0  0  0  0  0  0  0  0  0  0  0  0
  -23.4050  -30.4630   21.2490 C   0  0  0  0  0  3  0  0  0  0  0  0
  -24.8440  -29.1730   19.5820 C   0  0  0  0  0  0  0  0  0  0  0  0
  -25.8810  -31.0200   20.9210 C   0  0  0  0  0  2  0  0  0  0  0  0
  -26.0040  -29.7350   20.1310 C   0  0  0  0  0  0  0  0  0  0  0  0
  -27.2510  -29.0980   19.9640 C   0  0  0  0  0  3  0  0  0  0  0  0
  -26.1550  -27.2980   18.7460 C   0  0  0  0  0  3  0  0  0  0  0  0
  -24.9160  -27.9540   18.8860 C   0  0  0  0  0  3  0  0  0  0  0  0
  -23.5500  -29.9270   19.8010 C   0  0  0  0  0  2  0  0  0  0  0  0
  -24.6610  -31.1000   21.7580 N   0  0  0  0  0  0  0  0  0  0  0  0
  -23.5860  -31.9380   23.5710 O   0  0  0  0  0  0  0  0  0  0  0  0
  -22.8930  -29.3180   22.1480 C   0  0  0  0  0  0  0  0  0  0  0  0
  -21.5810  -29.0480   22.0780 N   0  0  0  0  0  0  0  0  0  0  0  0
  -23.6700  -28.6800   22.8650 O   0  0  0  0  0  0  0  0  0  0  0  0
  -21.0120  -29.6190   21.4690 H   0  0  0  0  0  0  0  0  0  0  0  0
  -18.3480  -27.5390   22.6460 C   0  0  0  0  0  0  0  0  0  0  0  0
  -20.8850  -27.9910   22.8110 C   0  0  0  0  0  3  0  0  0  0  0  0
  -21.0790  -26.6190   22.1260 C   0  0  0  0  0  2  0  0  0  0  0  0
  -19.9520  -26.2640   21.1500 C   0  0  0  0  0  2  0  0  0  0  0  0
  -18.5950  -26.2580   21.8630 C   0  0  0  0  0  2  0  0  0  0  0  0
  -19.4220  -28.3600   23.0780 C   0  0  0  0  0  0  0  0  0  0  0  0
  -19.1340  -29.5530   23.7720 C   0  0  0  0  0  3  0  0  0  0  0  0
  -17.8050  -29.9290   24.0430 C   0  0  0  0  0  3  0  0  0  0  0  0
  -16.7450  -29.1010   23.6320 C   0  0  0  0  0  3  0  0  0  0  0  0
  -17.0190  -27.9100   22.9380 C   0  0  0  0  0  3  0  0  0  0  0  0
  -25.9310  -32.4470   23.5200 C   0  0  0  0  0  3  0  0  0  0  0  0
  -26.5920  -31.5980   24.6780 C   0  0  1  0  0  0  0  0  0  0  0  0
  -25.6050  -31.1940   25.7960 C   0  0  0  0  0  1  0  0  0  0  0  0
  -27.2270  -30.3000   24.1240 C   0  0  0  0  0  1  0  0  0  0  0  0
  -27.7430  -32.4060   25.3250 C   0  0  0  0  0  1  0  0  0  0  0  0
  -25.5650  -33.7840   24.0030 N   0  0  0  0  0  0  0  0  0  0  0  0
  -25.7990  -34.9220   23.3340 C   0  0  0  0  0  0  0  0  0  0  0  0
  -26.4210  -34.9570   22.2700 O   0  0  0  0  0  0  0  0  0  0  0  0
  -25.0040  -33.8270   24.8410 H   0  0  0  0  0  0  0  0  0  0  0  0
  -23.9650  -36.6360   23.2310 C   0  0  0  0  0  1  0  0  0  0  0  0
  -25.2600  -36.2290   23.9480 C   0  0  0  0  0  3  0  0  0  0  0  0
  -27.3810  -37.1490   24.7740 C   0  0  0  0  0  1  0  0  0  0  0  0
  -26.2290  -37.3460   23.8980 N   0  0  0  0  0  0  0  0  0  0  0  0
  -25.7820  -38.2220   24.1540 H   0  0  0  0  0  0  0  0  0  0  0  0
  -25.8180  -21.0270   18.8780 N   0  0  0  0  0  0  0  0  0  0  0  0
  -25.2330  -21.4000   18.1290 H   0  0  0  0  0  0  0  0  0  0  0  0
  -26.2360  -19.6260   18.8550 C   0  0  0  0  0  2  0  0  0  0  0  0
  -27.6050  -19.4320   18.1610 C   0  0  0  0  0  2  0  0  0  0  0  0
  -28.2750  -18.0670   18.4150 C   0  0  0  0  0  2  0  0  0  0  0  0
  -29.1330  -17.9180   19.7080 C   0  0  0  0  0  2  0  0  0  0  0  0
  -29.3740  -16.4200   19.9720 C   0  0  0  0  0  2  0  0  0  0  0  0
  -31.1820  -14.8420   20.4570 C   0  0  0  0  0  0  0  0  0  0  0  0
  -30.8810  -12.5930   19.4670 C   0  0  0  0  0  2  0  0  0  0  0  0
  -30.0060  -12.7130   18.2030 C   0  0  0  0  0  2  0  0  0  0  0  0
  -28.5110  -12.5830   18.5650 C   0  0  0  0  0  2  0  0  0  0  0  0
  -28.1060  -13.5100   19.7290 C   0  0  0  0  0  3  0  0  0  0  0  0
  -29.1220  -13.4360   20.9030 C   0  0  0  0  0  2  0  0  0  0  0  0
  -30.4720  -13.6760   20.3720 N   0  0  0  0  0  0  0  0  0  0  0  0
  -32.3650  -14.9240   20.1260 O   0  0  0  0  0  0  0  0  0  0  0  0
  -30.5070  -15.9670   20.7920 N   0  0  0  0  0  0  0  0  0  0  0  0
  -31.0910  -16.7190   21.1290 H   0  0  0  0  0  0  0  0  0  0  0  0
  -25.7440  -14.2460   20.4160 C   0  0  0  0  0  0  0  0  0  0  0  0
  -24.6320  -13.5250   20.7550 C   0  0  0  0  0  0  0  0  0  0  0  0
  -25.0300  -12.1540   20.7140 C   0  0  0  0  0  0  0  0  0  0  0  0
  -26.7400  -13.3100   20.1870 N   0  0  0  0  0  0  0  0  0  0  0  0
  -26.3170  -12.0490   20.4280 N   0  0  0  0  0  0  0  0  0  0  0  0
  -24.2410  -10.9280   20.8670 C   0  0  0  0  0  0  0  0  0  0  0  0
  -24.6180   -9.9190   21.7810 C   0  0  0  0  0  3  0  0  0  0  0  0
  -23.8380   -8.7520   21.9170 C   0  0  0  0  0  3  0  0  0  0  0  0
  -22.6680   -8.5860   21.1410 C   0  0  0  0  0  0  0  0  0  0  0  0
  -22.3110   -9.5830   20.2160 C   0  0  0  0  0  3  0  0  0  0  0  0
  -23.0910  -10.7420   20.0770 C   0  0  0  0  0  3  0  0  0  0  0  0
  -21.8630   -7.4750   21.1890 O   0  0  0  0  0  0  0  0  0  0  0  0
  -21.7610   -6.7150   22.3260 C   0  0  0  0  0  0  0  0  0  0  0  0
  -21.3430   -7.2650   23.5580 C   0  0  0  0  0  3  0  0  0  0  0  0
  -21.1850   -6.4320   24.6820 C   0  0  0  0  0  3  0  0  0  0  0  0
  -21.4320   -5.0500   24.5780 C   0  0  0  0  0  0  0  0  0  0  0  0
  -21.8460   -4.5000   23.3520 C   0  0  0  0  0  3  0  0  0  0  0  0
  -22.0080   -5.3300   22.2280 C   0  0  0  0  0  0  0  0  0  0  0  0
  -22.3860   -4.7940   21.0440 F   0  0  0  0  0  0  0  0  0  0  0  0
  -21.2730   -4.2470   25.6550 F   0  0  0  0  0  0  0  0  0  0  0  0
  -23.2540  -14.0660   21.0030 C   0  0  0  0  0  0  0  0  0  0  0  0
  -22.4840  -13.3930   21.8520 N   0  0  0  0  0  0  0  0  0  0  0  0
  -22.8710  -15.1150   20.4870 O   0  0  0  0  0  0  0  0  0  0  0  0
  -22.8080  -12.5330   22.2740 H   0  0  0  0  0  0  0  0  0  0  0  0
  -21.5620  -13.7350   22.0800 H   0  0  0  0  0  0  0  0  0  0  0  0
  -25.9710  -15.6090   20.2550 N   0  0  0  0  0  0  0  0  0  0  0  0
  -25.2190  -16.2840   20.3120 H   0  0  0  0  0  0  0  0  0  0  0  0
  -26.8330  -15.9990   19.8970 H   0  0  0  0  0  0  0  0  0  0  0  0
  1  2  1  0
  3  1  2  0
  4  2  2  0
  4  9  1  0
  5  3  1  0
  5  6  2  0
  6  4  1  0
  7  5  1  0
  9  8  1  0
 10  9  1  0
 11 10  1  0
 12 14  1  0
 12 11  1  0
 13 24  2  0
 14 19  1  0
 15 23  1  0
 15 25  1  0
 16 22  1  0
 16 18  1  0
 17 23  1  0
 18 17  1  0
 19 18  2  0
 20 21  1  0
 20 14  2  0
 21 16  2  0
 22 15  1  0
 23 13  1  0
 25 27  2  0
 26 25  1  0
 28 26  1  0
 29 38  2  0
 29 34  1  0
 30 26  1  0
 30 34  1  0
 31 30  1  0
 32 33  1  0
 32 31  1  0
 33 29  1  0
 34 35  2  0
 35 36  1  0
 37 36  2  0
 38 37  1  0
 39 13  1  0
 39 44  1  0
 39 40  1  0
 40 43  1  1
 40 41  1  0
 42 40  1  0
 44 47  1  0
 45 49  1  0
 45 44  1  0
 46 45  2  0
 49 48  1  0
 51 49  1  0
 51 52  1  0
 51 50  1  0
 53  3  1  0
 54 53  1  0
 55 53  1  0
 56 57  1  0
 56 55  1  0
 57 58  1  0
 58 59  1  0
 59 68  1  0
 60 68  1  0
 61 66  1  0
 62 63  1  0
 62 61  1  0
 64 63  1  0
 64 73  1  0
 64 65  1  0
 66 60  1  0
 66 65  1  0
 67 60  2  0
 68 69  1  0
 70 71  2  0
 71 90  1  0
 72 71  1  0
 72 75  1  0
 73 70  1  0
 73 74  1  0
 74 72  2  0
 75 76  1  0
 76 77  2  0
 78 81  1  0
 78 77  1  0
 79 78  2  0
 80 79  1  0
 80 75  2  0
 81 82  1  0
 82 83  1  0
 83 84  2  0
 85 84  1  0
 85 89  1  0
 86 85  2  0
 87 82  2  0
 87 86  1  0
 88 87  1  0
 90 91  1  0
 91 94  1  0
 91 93  1  0
 92 90  2  0
 95 96  1  0
 95 70  1  0
 97 95  1  0
M  ISO  4  11 101  12 101  60 100  68 100
M  END
>  <TORSDO>  (49) 
F 25

>  <SCORE>  (49) 
-9.697

>  <name>  (49) 
48

>  <ligand_id>  (49) 
48

>  <original_smiles>  (49) 
[H]c1c(C([H])(C([H])([H])[H])C([H])([H])C([H])([H])Oc2c([H])c([H])c3c(c2[H])C([H])([H])N(C(=O)C([H])(N([H])C(=O)C([H])(N([H])C([H])([H])[H])C([H])([H])[H])C(C([H])([H])[H])(C([H])([H])[H])C([H])([H])[H])C([H])(C(=O)N([H])C2([H])c4c([H])c([H])c([H])c([H])c4C([H])([H])C([H])([H])C2([H])[H])C3([H])[H])nc(Cl)c(N([H])C([H])([H])C([H])([H])C([H])([H])C([H])([H])C([H])([H])N([H])C(=O)N2C([H])([H])C([H])([H])C([H])([H])C([H])(n3nc(-c4c([H])c([H])c(Oc5c([H])c([H])c(F)c([H])c5F)c([H])c4[H])c(C(=O)N([H])[H])c3N([H])[H])C2([H])[H])c1[H]

>  <smiles>  (49) 
[H]c1c(C([H])(C([H])([H])[H])C([H])([H])C([H])([H])Oc2c([H])c([H])c3c(c2[H])C([H])([H])N(C(=O)C([H])(N([H])C(=O)C([H])(N([H])C([H])([H])[H])C([H])([H])[H])C(C([H])([H])[H])(C([H])([H])[H])C([H])([H])[H])C([H])(C(=O)N([H])C2([H])c4c([H])c([H])c([H])c([H])c4C([H])([H])C([H])([H])C2([H])[H])C3([H])[H])nc(Cl)c(N([H])C([H])([H])C([H])([H])C([H])([H])C([H])([H])C([H])([H])N([H])C(=O)N2C([H])([H])C([H])([H])C([H])([H])C([H])(n3nc(-c4c([H])c([H])c(Oc5c([H])c([H])c(F)c([H])c5F)c([H])c4[H])c(C(=O)N([H])[H])c3N([H])[H])C2([H])[H])c1[H]

$$$$
49:0:0
     RDKit          3D

 97105  0  0  1  0  0  0  0  0999 V2000
  -29.5190  -22.3730   20.5220 C   0  0  0  0  0  3  0  0  0  0  0  0
  -27.0820  -22.7180   19.5860 C   0  0  0  0  0  1  0  0  0  0  0  0
  -27.5460  -23.6740   21.7810 C   0  0  0  0  0  1  0  0  0  0  0  0
  -28.1980  -23.4220   20.3980 C   0  0  1  0  0  0  0  0  0  0  0  0
  -28.3720  -24.9410   19.7230 C   0  0  0  0  0  2  0  0  0  0  0  0
  -28.2410  -26.3320   20.3340 O   0  0  0  0  0  0  0  0  0  0  0  0
  -24.5880  -31.9110   23.2370 C   0  0  0  0  0  0  0  0  0  0  0  0
  -27.1400  -27.2270   20.2120 C   0  0  0  0  0  0  0  0  0  0  0  0
  -23.3700  -30.5020   21.6170 C   0  0  0  0  0  3  0  0  0  0  0  0
  -24.7980  -28.9220   20.1880 C   0  0  0  0  0  0  0  0  0  0  0  0
  -25.9120  -30.7840   21.4180 C   0  0  0  0  0  2  0  0  0  0  0  0
  -25.9750  -29.3860   20.7830 C   0  0  0  0  0  0  0  0  0  0  0  0
  -27.1410  -28.5510   20.7890 C   0  0  0  0  0  3  0  0  0  0  0  0
  -25.9390  -26.8340   19.5840 C   0  0  0  0  0  3  0  0  0  0  0  0
  -24.7870  -27.6540   19.5770 C   0  0  0  0  0  3  0  0  0  0  0  0
  -23.5690  -29.8150   20.2410 C   0  0  0  0  0  2  0  0  0  0  0  0
  -24.6440  -31.0870   22.1450 N   0  0  0  0  0  0  0  0  0  0  0  0
  -23.5090  -32.2030   23.7710 O   0  0  0  0  0  0  0  0  0  0  0  0
  -22.6910  -29.5060   22.5950 C   0  0  0  0  0  0  0  0  0  0  0  0
  -21.3710  -29.3020   22.4320 N   0  0  0  0  0  0  0  0  0  0  0  0
  -23.3550  -28.9150   23.4510 O   0  0  0  0  0  0  0  0  0  0  0  0
  -20.8960  -29.8310   21.7120 H   0  0  0  0  0  0  0  0  0  0  0  0
  -18.0170  -27.9810   22.8030 C   0  0  0  0  0  0  0  0  0  0  0  0
  -20.5440  -28.3650   23.1990 C   0  0  0  0  0  3  0  0  0  0  0  0
  -20.7370  -26.9130   22.7040 C   0  0  0  0  0  2  0  0  0  0  0  0
  -19.7070  -26.4940   21.6480 C   0  0  0  0  0  2  0  0  0  0  0  0
  -18.2850  -26.6100   22.2070 C   0  0  0  0  0  2  0  0  0  0  0  0
  -19.0760  -28.8110   23.2530 C   0  0  0  0  0  0  0  0  0  0  0  0
  -18.7730  -30.0880   23.7730 C   0  0  0  0  0  3  0  0  0  0  0  0
  -17.4420  -30.5380   23.8420 C   0  0  0  0  0  3  0  0  0  0  0  0
  -16.3940  -29.7070   23.4110 C   0  0  0  0  0  3  0  0  0  0  0  0
  -16.6800  -28.4270   22.9000 C   0  0  0  0  0  3  0  0  0  0  0  0
  -25.8750  -32.5390   23.8580 C   0  0  0  0  0  3  0  0  0  0  0  0
  -25.5690  -33.9410   24.1810 N   0  0  0  0  0  0  0  0  0  0  0  0
  -25.9180  -34.9910   23.4240 C   0  0  0  0  0  0  0  0  0  0  0  0
  -26.5960  -34.8790   22.4010 O   0  0  0  0  0  0  0  0  0  0  0  0
  -24.9620  -34.1040   24.9690 H   0  0  0  0  0  0  0  0  0  0  0  0
  -24.2100  -36.8040   23.0650 C   0  0  0  0  0  1  0  0  0  0  0  0
  -25.4430  -36.3870   23.8830 C   0  0  0  0  0  3  0  0  0  0  0  0
  -27.5880  -37.2410   24.7200 C   0  0  0  0  0  1  0  0  0  0  0  0
  -26.4930  -37.4240   23.7720 N   0  0  0  0  0  0  0  0  0  0  0  0
  -26.1060  -38.3550   23.9070 H   0  0  0  0  0  0  0  0  0  0  0  0
  -26.3830  -31.7700   25.1400 C   0  0  1  0  0  0  0  0  0  0  0  0
  -25.2890  -31.5440   26.2070 C   0  0  0  0  0  1  0  0  0  0  0  0
  -26.9530  -30.3880   24.7450 C   0  0  0  0  0  1  0  0  0  0  0  0
  -27.5370  -32.5490   25.8150 C   0  0  0  0  0  1  0  0  0  0  0  0
  -29.7310  -20.9890   19.7560 N   0  0  1  0  0  4  0  0  0  0  0  0
  -30.7270  -20.9850   19.9270 H   0  0  0  0  0  0  0  0  0  0  0  0
  -30.5900  -14.9170   20.0910 C   0  0  0  0  0  0  0  0  0  0  0  0
  -30.3320  -12.5980   19.1370 C   0  0  0  0  0  2  0  0  0  0  0  0
  -29.3570  -12.5640   17.9390 C   0  0  0  0  0  2  0  0  0  0  0  0
  -27.9160  -12.3540   18.4360 C   0  0  0  0  0  2  0  0  0  0  0  0
  -27.5560  -13.2930   19.6130 C   0  0  0  0  0  3  0  0  0  0  0  0
  -28.6500  -13.3490   20.7000 C   0  0  0  0  0  2  0  0  0  0  0  0
  -29.9020  -13.7130   20.0290 N   0  0  0  0  0  0  0  0  0  0  0  0
  -31.7940  -14.8810   19.8170 O   0  0  0  0  0  0  0  0  0  0  0  0
  -30.7740  -18.7140   20.7670 C   0  0  0  0  0  2  0  0  0  0  0  0
  -28.9240  -18.3960   19.2780 C   0  0  0  0  0  2  0  0  0  0  0  0
  -30.6290  -17.2040   21.2770 C   0  0  0  0  0  2  0  0  0  0  0  0
  -28.7940  -16.8590   19.7800 C   0  0  0  0  0  2  0  0  0  0  0  0
  -29.4820  -19.5010   20.2790 C   0  0  0  0  0  3  0  0  0  0  0  0
  -29.9890  -16.1760   20.3920 N   0  0  0  0  0  0  0  0  0  0  0  0
  -25.2040  -13.8780   20.4250 C   0  0  0  0  0  0  0  0  0  0  0  0
  -24.1470  -13.1080   20.8180 C   0  0  0  0  0  0  0  0  0  0  0  0
  -24.6070  -11.7540   20.7770 C   0  0  0  0  0  0  0  0  0  0  0  0
  -26.2380  -12.9970   20.1580 N   0  0  0  0  0  0  0  0  0  0  0  0
  -25.8900  -11.7150   20.4360 N   0  0  0  0  0  0  0  0  0  0  0  0
  -23.8840  -10.4940   20.9760 C   0  0  0  0  0  0  0  0  0  0  0  0
  -24.3280   -9.5270   21.9030 C   0  0  0  0  0  3  0  0  0  0  0  0
  -23.6010   -8.3310   22.0940 C   0  0  0  0  0  3  0  0  0  0  0  0
  -22.4160   -8.0960   21.3570 C   0  0  0  0  0  0  0  0  0  0  0  0
  -21.9900   -9.0540   20.4210 C   0  0  0  0  0  3  0  0  0  0  0  0
  -22.7170  -10.2410   20.2280 C   0  0  0  0  0  3  0  0  0  0  0  0
  -21.6580   -6.9550   21.4590 O   0  0  0  0  0  0  0  0  0  0  0  0
  -21.6220   -6.2160   22.6130 C   0  0  0  0  0  0  0  0  0  0  0  0
  -21.2160   -6.7760   23.8450 C   0  0  0  0  0  3  0  0  0  0  0  0
  -21.1320   -5.9650   24.9940 C   0  0  0  0  0  3  0  0  0  0  0  0
  -21.4360   -4.5940   24.9120 C   0  0  0  0  0  0  0  0  0  0  0  0
  -21.8340   -4.0320   23.6860 C   0  0  0  0  0  3  0  0  0  0  0  0
  -21.9240   -4.8410   22.5390 C   0  0  0  0  0  0  0  0  0  0  0  0
  -22.2880   -4.2900   21.3580 F   0  0  0  0  0  0  0  0  0  0  0  0
  -21.3470   -3.8110   26.0150 F   0  0  0  0  0  0  0  0  0  0  0  0
  -22.7590  -13.5870   21.1230 C   0  0  0  0  0  0  0  0  0  0  0  0
  -22.0510  -12.8930   22.0040 N   0  0  0  0  0  0  0  0  0  0  0  0
  -22.3160  -14.6190   20.6150 O   0  0  0  0  0  0  0  0  0  0  0  0
  -22.4250  -12.0560   22.4260 H   0  0  0  0  0  0  0  0  0  0  0  0
  -21.1240  -13.2010   22.2590 H   0  0  0  0  0  0  0  0  0  0  0  0
  -25.3690  -15.2500   20.2430 N   0  0  0  0  0  0  0  0  0  0  0  0
  -24.6050  -15.9050   20.3640 H   0  0  0  0  0  0  0  0  0  0  0  0
  -26.2050  -15.6760   19.8690 H   0  0  0  0  0  0  0  0  0  0  0  0
  -29.7880  -21.1530   18.2690 C   0  0  0  0  0  2  0  0  0  0  0  0
  -32.0890  -22.1290   17.6610 C   0  0  0  0  0  1  0  0  0  0  0  0
  -31.1900  -20.8820   17.6830 C   0  0  0  0  0  2  0  0  0  0  0  0
  -31.8280  -22.4670   21.7670 C   0  0  0  0  0  1  0  0  0  0  0  0
  -30.2880  -22.4810   21.8890 C   0  0  0  0  0  3  0  0  0  0  0  0
  -30.2770  -21.8790   24.4100 C   0  0  0  0  0  1  0  0  0  0  0  0
  -29.8180  -21.5000   22.9950 C   0  0  0  0  0  2  0  0  0  0  0  0
  1  4  1  0
  1 95  1  0
  4  2  1  6
  4  3  1  0
  5  6  1  0
  5  4  1  0
  7 18  2  0
  8  6  1  0
  8 13  1  0
  9 17  1  0
  9 19  1  0
 10 16  1  0
 10 12  1  0
 11 17  1  0
 12 13  2  0
 12 11  1  0
 14  8  2  0
 15 14  1  0
 15 10  2  0
 16  9  1  0
 17  7  1  0
 19 21  2  0
 20 19  1  0
 22 20  1  0
 23 32  2  0
 23 28  1  0
 24 20  1  0
 24 28  1  0
 25 24  1  0
 26 27  1  0
 26 25  1  0
 27 23  1  0
 28 29  2  0
 29 30  1  0
 31 30  2  0
 32 31  1  0
 33  7  1  0
 33 34  1  0
 33 43  1  0
 34 37  1  0
 35 39  1  0
 35 34  1  0
 36 35  2  0
 39 38  1  0
 41 39  1  0
 41 42  1  0
 41 40  1  0
 43 46  1  1
 43 44  1  0
 45 43  1  0
 47 48  1  1
 47  1  1  0
 49 62  1  0
 50 55  1  0
 51 52  1  0
 51 50  1  0
 53 52  1  0
 53 66  1  0
 53 54  1  0
 55 49  1  0
 55 54  1  0
 56 49  2  0
 57 59  1  0
 58 60  1  0
 58 61  1  0
 60 62  1  0
 61 47  1  0
 61 57  1  0
 62 59  1  0
 63 64  2  0
 64 83  1  0
 65 64  1  0
 65 68  1  0
 66 63  1  0
 66 67  1  0
 67 65  2  0
 68 69  1  0
 69 70  2  0
 71 74  1  0
 71 70  1  0
 72 71  2  0
 73 72  1  0
 73 68  2  0
 74 75  1  0
 75 76  1  0
 76 77  2  0
 78 77  1  0
 78 82  1  0
 79 78  2  0
 80 75  2  0
 80 79  1  0
 81 80  1  0
 83 84  1  0
 84 87  1  0
 84 86  1  0
 85 83  2  0
 88 89  1  0
 88 63  1  0
 90 88  1  0
 91 47  1  0
 92 93  1  0
 93 91  1  0
 95 94  1  0
 95 97  1  0
 97 96  1  0
M  ISO  4   5 101   6 101  49 100  62 100
M  END
>  <TORSDO>  (50) 
F 23

>  <SCORE>  (50) 
-13.076

>  <name>  (50) 
49

>  <ligand_id>  (50) 
49

>  <original_smiles>  (50) 
[H]c1c([H])c([H])c2c(c1[H])C([H])([H])C([H])([H])C([H])([H])C2([H])N([H])C(=O)C1([H])N(C(=O)C([H])(N([H])C(=O)C([H])(N([H])C([H])([H])[H])C([H])([H])[H])C(C([H])([H])[H])(C([H])([H])[H])C([H])([H])[H])C([H])([H])c2c([H])c(OC([H])([H])C(C([H])([H])[H])(C([H])([H])[H])C([H])(C([H])(C([H])([H])[H])C([H])([H])C([H])([H])[H])[N+]([H])(C([H])([H])C([H])([H])C([H])([H])[H])C3([H])C([H])([H])C([H])([H])N(C(=O)N4C([H])([H])C([H])([H])C([H])([H])C([H])(n5nc(-c6c([H])c([H])c(Oc7c([H])c([H])c(F)c([H])c7F)c([H])c6[H])c(C(=O)N([H])[H])c5N([H])[H])C4([H])[H])C([H])([H])C3([H])[H])c([H])c([H])c2C1([H])[H]

>  <smiles>  (50) 
[H]c1c([H])c([H])c2c(c1[H])C([H])([H])C([H])([H])C([H])([H])C2([H])N([H])C(=O)C1([H])N(C(=O)C([H])(N([H])C(=O)C([H])(N([H])C([H])([H])[H])C([H])([H])[H])C(C([H])([H])[H])(C([H])([H])[H])C([H])([H])[H])C([H])([H])c2c([H])c(OC([H])([H])C(C([H])([H])[H])(C([H])([H])[H])C([H])(C([H])(C([H])([H])[H])C([H])([H])C([H])([H])[H])[N+]([H])(C([H])([H])C([H])([H])C([H])([H])[H])C3([H])C([H])([H])C([H])([H])N(C(=O)N4C([H])([H])C([H])([H])C([H])([H])C([H])(n5nc(-c6c([H])c([H])c(Oc7c([H])c([H])c(F)c([H])c7F)c([H])c6[H])c(C(=O)N([H])[H])c5N([H])[H])C4([H])[H])C([H])([H])C3([H])[H])c([H])c([H])c2C1([H])[H]

$$$$
50:0:0
     RDKit          3D

 92100  0  0  1  0  0  0  0  0999 V2000
  -28.5080  -19.7700   20.0290 C   0  0  0  0  0  3  0  0  0  0  0  0
  -30.8680  -18.5960   20.9050 C   0  0  0  0  0  3  0  0  0  0  0  0
  -29.4350  -20.6950   20.6080 C   0  0  0  0  0  0  0  0  0  0  0  0
  -29.8900  -17.6750   20.4110 C   0  0  0  0  0  0  0  0  0  0  0  0
  -28.7070  -18.3330   19.9410 C   0  0  0  0  0  0  0  0  0  0  0  0
  -30.6520  -20.0300   21.0060 C   0  0  0  0  0  0  0  0  0  0  0  0
  -31.9130  -20.9650   21.7270 Cl  0  0  0  0  0  0  0  0  0  0  0  0
  -30.7820  -15.0850   20.3280 C   0  0  0  0  0  0  0  0  0  0  0  0
  -30.6700  -12.7720   19.3280 C   0  0  0  0  0  2  0  0  0  0  0  0
  -29.7150  -12.7970   18.1100 C   0  0  0  0  0  2  0  0  0  0  0  0
  -28.2500  -12.6000   18.5500 C   0  0  0  0  0  2  0  0  0  0  0  0
  -27.8680  -13.4920   19.7610 C   0  0  0  0  0  3  0  0  0  0  0  0
  -28.9360  -13.4210   20.8750 C   0  0  0  0  0  2  0  0  0  0  0  0
  -30.2160  -13.8210   20.2740 N   0  0  0  0  0  0  0  0  0  0  0  0
  -31.9750  -15.2230   20.0410 O   0  0  0  0  0  0  0  0  0  0  0  0
  -29.8970  -16.1620   20.4850 N   0  0  0  0  0  0  0  0  0  0  0  0
  -28.9570  -15.8040   20.5420 H   0  0  0  0  0  0  0  0  0  0  0  0
  -25.4890  -14.0780   20.5160 C   0  0  0  0  0  0  0  0  0  0  0  0
  -24.4230  -13.3030   20.8830 C   0  0  0  0  0  0  0  0  0  0  0  0
  -24.8840  -11.9520   20.8340 C   0  0  0  0  0  0  0  0  0  0  0  0
  -26.5290  -13.1990   20.2600 N   0  0  0  0  0  0  0  0  0  0  0  0
  -26.1730  -11.9140   20.5170 N   0  0  0  0  0  0  0  0  0  0  0  0
  -24.1540  -10.6900   21.0150 C   0  0  0  0  0  0  0  0  0  0  0  0
  -24.5640   -9.7290   21.9650 C   0  0  0  0  0  3  0  0  0  0  0  0
  -23.8340   -8.5320   22.1340 C   0  0  0  0  0  3  0  0  0  0  0  0
  -22.6810   -8.2890   21.3530 C   0  0  0  0  0  0  0  0  0  0  0  0
  -22.2890   -9.2390   20.3930 C   0  0  0  0  0  3  0  0  0  0  0  0
  -23.0190  -10.4270   20.2220 C   0  0  0  0  0  3  0  0  0  0  0  0
  -21.9250   -7.1440   21.4290 O   0  0  0  0  0  0  0  0  0  0  0  0
  -21.8230   -6.4260   22.5930 C   0  0  0  0  0  0  0  0  0  0  0  0
  -21.2780   -6.9840   23.7690 C   0  0  0  0  0  3  0  0  0  0  0  0
  -21.1280   -6.1890   24.9240 C   0  0  0  0  0  3  0  0  0  0  0  0
  -21.5140   -4.8360   24.9020 C   0  0  0  0  0  0  0  0  0  0  0  0
  -22.0530   -4.2760   23.7300 C   0  0  0  0  0  3  0  0  0  0  0  0
  -22.2040   -5.0680   22.5780 C   0  0  0  0  0  0  0  0  0  0  0  0
  -22.7040   -4.5180   21.4450 F   0  0  0  0  0  0  0  0  0  0  0  0
  -21.3640   -4.0700   26.0070 F   0  0  0  0  0  0  0  0  0  0  0  0
  -23.0300  -13.7820   21.1650 C   0  0  0  0  0  0  0  0  0  0  0  0
  -22.3040  -13.0810   22.0290 N   0  0  0  0  0  0  0  0  0  0  0  0
  -22.5920  -14.8140   20.6550 O   0  0  0  0  0  0  0  0  0  0  0  0
  -22.6710  -12.2470   22.4630 H   0  0  0  0  0  0  0  0  0  0  0  0
  -21.3680  -13.3840   22.2610 H   0  0  0  0  0  0  0  0  0  0  0  0
  -25.6520  -15.4510   20.3570 N   0  0  0  0  0  0  0  0  0  0  0  0
  -24.8790  -16.0920   20.4940 H   0  0  0  0  0  0  0  0  0  0  0  0
  -26.4870  -15.9100   20.0110 H   0  0  0  0  0  0  0  0  0  0  0  0
  -27.5600  -22.1270   21.6320 C   0  0  0  0  0  1  0  0  0  0  0  0
  -28.9930  -22.2120   21.0710 C   0  0  0  0  0  3  0  0  0  0  0  0
  -29.1360  -23.6460   20.2380 C   0  0  0  0  0  3  0  0  0  0  0  0
  -28.3930  -25.0370   20.7870 C   0  0  0  0  0  3  0  0  0  0  0  0
  -28.5890  -26.4910   20.3330 O   0  0  0  0  0  0  0  0  0  0  0  0
  -24.6410  -31.9420   23.2710 C   0  0  0  0  0  0  0  0  0  0  0  0
  -27.4810  -27.3940   20.2920 C   0  0  0  0  0  0  0  0  0  0  0  0
  -23.5420  -30.5240   21.5780 C   0  0  0  0  0  3  0  0  0  0  0  0
  -25.0890  -29.0150   20.1930 C   0  0  0  0  0  0  0  0  0  0  0  0
  -26.0850  -30.8900   21.4980 C   0  0  0  0  0  2  0  0  0  0  0  0
  -26.2290  -29.5110   20.8410 C   0  0  0  0  0  0  0  0  0  0  0  0
  -27.4290  -28.7160   20.8720 C   0  0  0  0  0  3  0  0  0  0  0  0
  -26.3180  -26.9830   19.6090 C   0  0  0  0  0  3  0  0  0  0  0  0
  -25.1420  -27.7610   19.5640 C   0  0  0  0  0  3  0  0  0  0  0  0
  -23.8310  -29.8660   20.2020 C   0  0  0  0  0  2  0  0  0  0  0  0
  -24.7730  -31.1390   22.1720 N   0  0  0  0  0  0  0  0  0  0  0  0
  -23.5300  -32.1850   23.7650 O   0  0  0  0  0  0  0  0  0  0  0  0
  -22.8670  -29.4850   22.5060 C   0  0  0  0  0  0  0  0  0  0  0  0
  -21.5490  -29.2780   22.3350 N   0  0  0  0  0  0  0  0  0  0  0  0
  -23.5320  -28.8690   23.3440 O   0  0  0  0  0  0  0  0  0  0  0  0
  -21.0700  -29.8280   21.6360 H   0  0  0  0  0  0  0  0  0  0  0  0
  -18.1820  -28.0100   22.7440 C   0  0  0  0  0  0  0  0  0  0  0  0
  -20.7300  -28.3100   23.0690 C   0  0  0  0  0  3  0  0  0  0  0  0
  -20.8680  -26.8920   22.4660 C   0  0  0  0  0  2  0  0  0  0  0  0
  -19.7920  -26.5730   21.4230 C   0  0  0  0  0  2  0  0  0  0  0  0
  -18.3960  -26.6790   22.0420 C   0  0  0  0  0  2  0  0  0  0  0  0
  -19.2780  -28.7830   23.2120 C   0  0  0  0  0  0  0  0  0  0  0  0
  -19.0240  -30.0270   23.8280 C   0  0  0  0  0  3  0  0  0  0  0  0
  -17.7070  -30.5000   23.9810 C   0  0  0  0  0  3  0  0  0  0  0  0
  -16.6250  -29.7250   23.5280 C   0  0  0  0  0  3  0  0  0  0  0  0
  -16.8640  -28.4820   22.9160 C   0  0  0  0  0  3  0  0  0  0  0  0
  -25.8780  -32.6090   23.9460 C   0  0  0  0  0  3  0  0  0  0  0  0
  -26.3370  -31.8720   25.2640 C   0  0  1  0  0  0  0  0  0  0  0  0
  -25.1910  -31.6300   26.2750 C   0  0  0  0  0  1  0  0  0  0  0  0
  -26.9700  -30.5000   24.9360 C   0  0  0  0  0  1  0  0  0  0  0  0
  -27.4310  -32.7030   25.9750 C   0  0  0  0  0  1  0  0  0  0  0  0
  -25.5280  -34.0080   24.2350 N   0  0  0  0  0  0  0  0  0  0  0  0
  -25.8700  -35.0540   23.4710 C   0  0  0  0  0  0  0  0  0  0  0  0
  -26.5790  -34.9440   22.4680 O   0  0  0  0  0  0  0  0  0  0  0  0
  -24.9010  -34.1660   25.0110 H   0  0  0  0  0  0  0  0  0  0  0  0
  -24.1350  -36.8180   23.0110 C   0  0  0  0  0  1  0  0  0  0  0  0
  -25.3430  -36.4430   23.8850 C   0  0  0  0  0  3  0  0  0  0  0  0
  -27.4160  -37.3800   24.8090 C   0  0  0  0  0  1  0  0  0  0  0  0
  -26.3650  -37.5090   23.8040 N   0  0  0  0  0  0  0  0  0  0  0  0
  -25.9380  -38.4250   23.9070 H   0  0  0  0  0  0  0  0  0  0  0  0
  -26.6260  -18.0560   18.7660 C   0  0  0  0  0  1  0  0  0  0  0  0
  -27.7420  -17.4840   19.4370 O   0  0  0  0  0  0  0  0  0  0  0  0
  1  3  1  0
  2  6  1  0
  3  6  2  0
  3 47  1  0
  4 16  1  0
  4  2  2  0
  5  1  2  0
  5  4  1  0
  6  7  1  0
  8 16  1  0
  9 14  1  0
 10 11  1  0
 10  9  1  0
 12 11  1  0
 12 21  1  0
 12 13  1  0
 14  8  1  0
 14 13  1  0
 15  8  2  0
 16 17  1  0
 18 19  2  0
 19 38  1  0
 20 19  1  0
 20 23  1  0
 21 18  1  0
 21 22  1  0
 22 20  2  0
 23 24  1  0
 24 25  2  0
 26 29  1  0
 26 25  1  0
 27 26  2  0
 28 27  1  0
 28 23  2  0
 29 30  1  0
 30 31  1  0
 31 32  2  0
 33 32  1  0
 33 37  1  0
 34 33  2  0
 35 30  2  0
 35 34  1  0
 36 35  1  0
 38 39  1  0
 39 42  1  0
 39 41  1  0
 40 38  2  0
 43 44  1  0
 43 18  1  0
 45 43  1  0
 47 46  1  0
 48 49  2  0
 48 47  1  0
 50 49  1  0
 51 62  2  0
 52 50  1  0
 52 57  1  0
 53 61  1  0
 53 63  1  0
 54 60  1  0
 54 56  1  0
 55 61  1  0
 56 57  2  0
 56 55  1  0
 58 52  2  0
 59 58  1  0
 59 54  2  0
 60 53  1  0
 61 51  1  0
 63 65  2  0
 64 63  1  0
 66 64  1  0
 67 76  2  0
 67 72  1  0
 68 64  1  0
 68 72  1  0
 69 68  1  0
 70 71  1  0
 70 69  1  0
 71 67  1  0
 72 73  2  0
 73 74  1  0
 75 74  2  0
 76 75  1  0
 77 51  1  0
 77 82  1  0
 77 78  1  0
 78 81  1  1
 78 79  1  0
 80 78  1  0
 82 85  1  0
 83 87  1  0
 83 82  1  0
 84 83  2  0
 87 86  1  0
 89 87  1  0
 89 90  1  0
 89 88  1  0
 91 92  1  0
 92  5  1  0
M  ISO  4   8 100  16 100  49 101  50 101
M  END
>  <TORSDO>  (51) 
F 20

>  <SCORE>  (51) 
-13.606

>  <name>  (51) 
50

>  <ligand_id>  (51) 
50

>  <original_smiles>  (51) 
[H]c1c([H])c([H])c2c(c1[H])C([H])([H])C([H])([H])C([H])([H])C2([H])N([H])C(=O)C1([H])N(C(=O)C([H])(N([H])C(=O)C([H])(N([H])C([H])([H])[H])C([H])([H])[H])C(C([H])([H])[H])(C([H])([H])[H])C([H])([H])[H])C([H])([H])c2c([H])c(OC([H])([H])C([H])([H])C([H])(c3c([H])c(OC([H])([H])[H])c(N([H])C(=O)N4C([H])([H])C([H])([H])C([H])([H])C([H])(n5nc(-c6c([H])c([H])c(Oc7c([H])c([H])c(F)c([H])c7F)c([H])c6[H])c(C(=O)N([H])[H])c5N([H])[H])C4([H])[H])c([H])c3Cl)C([H])([H])[H])c([H])c([H])c2C1([H])[H]

>  <smiles>  (51) 
[H]c1c([H])c([H])c2c(c1[H])C([H])([H])C([H])([H])C([H])([H])C2([H])N([H])C(=O)C1([H])N(C(=O)C([H])(N([H])C(=O)C([H])(N([H])C([H])([H])[H])C([H])([H])[H])C(C([H])([H])[H])(C([H])([H])[H])C([H])([H])[H])C([H])([H])c2c([H])c(OC([H])([H])C([H])([H])C([H])(c3c([H])c(OC([H])([H])[H])c(N([H])C(=O)N4C([H])([H])C([H])([H])C([H])([H])C([H])(n5nc(-c6c([H])c([H])c(Oc7c([H])c([H])c(F)c([H])c7F)c([H])c6[H])c(C(=O)N([H])[H])c5N([H])[H])C4([H])[H])c([H])c3Cl)C([H])([H])[H])c([H])c([H])c2C1([H])[H]

$$$$
51:0:0
     RDKit          3D

 98106  0  0  1  0  0  0  0  0999 V2000
  -30.8320  -22.0640   21.6560 N   0  0  0  0  0  4  0  0  0  0  0  0
  -30.3720  -21.7320   22.4870 H   0  0  0  0  0  0  0  0  0  0  0  0
  -30.1690  -22.0250   20.9000 H   0  0  0  0  0  0  0  0  0  0  0  0
  -31.9540  -21.1500   21.3390 C   0  0  0  0  0  2  0  0  0  0  0  0
  -31.3170  -17.7120   19.7280 C   0  0  0  0  0  3  0  0  0  0  0  0
  -30.9660  -18.9280   22.2490 C   0  0  0  0  0  0  0  0  0  0  0  0
  -31.5070  -19.6900   21.1700 C   0  0  0  0  0  0  0  0  0  0  0  0
  -30.8340  -16.9300   20.8020 C   0  0  0  0  0  0  0  0  0  0  0  0
  -31.6590  -19.0650   19.9070 C   0  0  0  0  0  0  0  0  0  0  0  0
  -30.6450  -17.5570   22.0560 C   0  0  0  0  0  0  0  0  0  0  0  0
  -30.7220  -19.5380   23.6290 C   0  0  0  0  0  1  0  0  0  0  0  0
  -32.2580  -19.9320   18.5340 Cl  0  0  0  0  0  0  0  0  0  0  0  0
  -30.0100  -16.6170   23.3680 Cl  0  0  0  0  0  0  0  0  0  0  0  0
  -30.9930  -14.5990   19.8680 C   0  0  0  0  0  0  0  0  0  0  0  0
  -30.8020  -12.2800   19.0450 C   0  0  0  0  0  2  0  0  0  0  0  0
  -29.8300  -12.1950   17.8530 C   0  0  0  0  0  2  0  0  0  0  0  0
  -28.3850  -12.0000   18.3470 C   0  0  0  0  0  2  0  0  0  0  0  0
  -27.9930  -13.0160   19.4530 C   0  0  0  0  0  3  0  0  0  0  0  0
  -29.0780  -13.0930   20.5530 C   0  0  0  0  0  2  0  0  0  0  0  0
  -30.3750  -13.3870   19.9150 N   0  0  0  0  0  0  0  0  0  0  0  0
  -31.9760  -14.8040   19.1540 O   0  0  0  0  0  0  0  0  0  0  0  0
  -30.4870  -15.5440   20.6830 N   0  0  0  0  0  0  0  0  0  0  0  0
  -29.7760  -15.2240   21.3220 H   0  0  0  0  0  0  0  0  0  0  0  0
  -25.6150  -13.5640   20.2760 C   0  0  0  0  0  0  0  0  0  0  0  0
  -24.5960  -12.7680   20.7290 C   0  0  0  0  0  0  0  0  0  0  0  0
  -25.1020  -11.4320   20.7100 C   0  0  0  0  0  0  0  0  0  0  0  0
  -26.6770  -12.7110   20.0130 N   0  0  0  0  0  0  0  0  0  0  0  0
  -26.3730  -11.4250   20.3290 N   0  0  0  0  0  0  0  0  0  0  0  0
  -24.4320  -10.1520   20.9800 C   0  0  0  0  0  0  0  0  0  0  0  0
  -24.7470   -9.3810   22.1190 C   0  0  0  0  0  3  0  0  0  0  0  0
  -24.0770   -8.1640   22.3690 C   0  0  0  0  0  3  0  0  0  0  0  0
  -23.0770   -7.7070   21.4770 C   0  0  0  0  0  0  0  0  0  0  0  0
  -22.7830   -8.4690   20.3310 C   0  0  0  0  0  3  0  0  0  0  0  0
  -23.4550   -9.6780   20.0820 C   0  0  0  0  0  3  0  0  0  0  0  0
  -22.3940   -6.5260   21.6230 O   0  0  0  0  0  0  0  0  0  0  0  0
  -21.8760   -6.1380   22.8330 C   0  0  0  0  0  0  0  0  0  0  0  0
  -20.9240   -6.9200   23.5220 C   0  0  0  0  0  3  0  0  0  0  0  0
  -20.3680   -6.4500   24.7290 C   0  0  0  0  0  3  0  0  0  0  0  0
  -20.7540   -5.1980   25.2430 C   0  0  0  0  0  0  0  0  0  0  0  0
  -21.6970   -4.4150   24.5540 C   0  0  0  0  0  3  0  0  0  0  0  0
  -22.2540   -4.8820   23.3520 C   0  0  0  0  0  0  0  0  0  0  0  0
  -23.1480   -4.1140   22.6810 F   0  0  0  0  0  0  0  0  0  0  0  0
  -20.2140   -4.7430   26.3980 F   0  0  0  0  0  0  0  0  0  0  0  0
  -23.2010  -13.2070   21.0690 C   0  0  0  0  0  0  0  0  0  0  0  0
  -22.5640  -12.5400   22.0260 N   0  0  0  0  0  0  0  0  0  0  0  0
  -22.6840  -14.1770   20.5190 O   0  0  0  0  0  0  0  0  0  0  0  0
  -22.9960  -11.7590   22.4970 H   0  0  0  0  0  0  0  0  0  0  0  0
  -21.6310  -12.8170   22.2930 H   0  0  0  0  0  0  0  0  0  0  0  0
  -25.7200  -14.9320   20.0480 N   0  0  0  0  0  0  0  0  0  0  0  0
  -24.9420  -15.5660   20.1880 H   0  0  0  0  0  0  0  0  0  0  0  0
  -26.5430  -15.3910   19.6760 H   0  0  0  0  0  0  0  0  0  0  0  0
  -31.2430  -23.4730   21.8520 C   0  0  0  0  0  2  0  0  0  0  0  0
  -30.0850  -24.4760   21.6440 C   0  0  0  0  0  2  0  0  0  0  0  0
  -30.5820  -25.9320   21.5420 C   0  0  0  0  0  2  0  0  0  0  0  0
  -29.4950  -27.0040   21.3270 C   0  0  0  0  0  2  0  0  0  0  0  0
  -28.8810  -27.0690   19.9140 C   0  0  0  0  0  2  0  0  0  0  0  0
  -27.6100  -26.2240   19.7520 C   0  0  0  0  0  2  0  0  0  0  0  0
  -26.8370  -26.6990   18.6550 O   0  0  0  0  0  0  0  0  0  0  0  0
  -24.2360  -31.5880   23.1430 C   0  0  0  0  0  0  0  0  0  0  0  0
  -25.8140  -27.5460   18.9980 C   0  0  0  0  0  0  0  0  0  0  0  0
  -22.6330  -30.6370   21.5140 C   0  0  0  0  0  3  0  0  0  0  0  0
  -23.6550  -29.2390   19.6410 C   0  0  0  0  0  0  0  0  0  0  0  0
  -25.1280  -30.7660   20.9710 C   0  0  0  0  0  2  0  0  0  0  0  0
  -24.9400  -29.5310   20.1170 C   0  0  0  0  0  0  0  0  0  0  0  0
  -26.0250  -28.6870   19.8020 C   0  0  0  0  0  3  0  0  0  0  0  0
  -24.5210  -27.2650   18.5170 C   0  0  0  0  0  3  0  0  0  0  0  0
  -23.4370  -28.1040   18.8420 C   0  0  0  0  0  3  0  0  0  0  0  0
  -22.5540  -30.1980   20.0270 C   0  0  0  0  0  2  0  0  0  0  0  0
  -24.0270  -30.9990   21.9330 N   0  0  0  0  0  0  0  0  0  0  0  0
  -23.2890  -31.8730   23.8880 O   0  0  0  0  0  0  0  0  0  0  0  0
  -21.9990  -29.5340   22.3900 C   0  0  0  0  0  0  0  0  0  0  0  0
  -20.6610  -29.4230   22.3360 N   0  0  0  0  0  0  0  0  0  0  0  0
  -22.7030  -28.7860   23.0740 O   0  0  0  0  0  0  0  0  0  0  0  0
  -20.1560  -30.0800   21.7580 H   0  0  0  0  0  0  0  0  0  0  0  0
  -17.2840  -28.2310   22.8060 C   0  0  0  0  0  0  0  0  0  0  0  0
  -19.8500  -28.4340   23.0450 C   0  0  0  0  0  3  0  0  0  0  0  0
  -19.9220  -27.0550   22.3500 C   0  0  0  0  0  2  0  0  0  0  0  0
  -18.7950  -26.8290   21.3380 C   0  0  0  0  0  2  0  0  0  0  0  0
  -17.4290  -26.9380   22.0210 C   0  0  0  0  0  2  0  0  0  0  0  0
  -18.4210  -28.9410   23.2740 C   0  0  0  0  0  0  0  0  0  0  0  0
  -18.2330  -30.1560   23.9690 C   0  0  0  0  0  3  0  0  0  0  0  0
  -16.9390  -30.6580   24.2020 C   0  0  0  0  0  3  0  0  0  0  0  0
  -15.8160  -29.9430   23.7510 C   0  0  0  0  0  3  0  0  0  0  0  0
  -15.9900  -28.7310   23.0590 C   0  0  0  0  0  3  0  0  0  0  0  0
  -25.6710  -31.9560   23.6360 C   0  0  0  0  0  3  0  0  0  0  0  0
  -25.6140  -33.3210   24.1730 N   0  0  0  0  0  0  0  0  0  0  0  0
  -26.0960  -34.4040   23.5470 C   0  0  0  0  0  0  0  0  0  0  0  0
  -26.7030  -34.3440   22.4750 O   0  0  0  0  0  0  0  0  0  0  0  0
  -25.0800  -33.4550   25.0180 H   0  0  0  0  0  0  0  0  0  0  0  0
  -24.7130  -36.5040   23.5100 C   0  0  0  0  0  1  0  0  0  0  0  0
  -25.8640  -35.7710   24.2180 C   0  0  0  0  0  3  0  0  0  0  0  0
  -28.1200  -36.1310   25.1150 C   0  0  0  0  0  1  0  0  0  0  0  0
  -27.0680  -36.6300   24.2340 N   0  0  0  0  0  0  0  0  0  0  0  0
  -26.8320  -37.5760   24.5240 H   0  0  0  0  0  0  0  0  0  0  0  0
  -26.2350  -30.9520   24.7140 C   0  0  1  0  0  0  0  0  0  0  0  0
  -25.2540  -30.6750   25.8750 C   0  0  0  0  0  1  0  0  0  0  0  0
  -26.5950  -29.5960   24.0630 C   0  0  0  0  0  1  0  0  0  0  0  0
  -27.5420  -31.5150   25.3220 C   0  0  0  0  0  1  0  0  0  0  0  0
  1 52  1  0
  1  2  1  0
  3  1  1  0
  4  1  1  0
  5  9  2  0
  5  8  1  0
  6 11  1  0
  7  4  1  0
  7  6  2  0
  8 10  2  0
  9  7  1  0
 10  6  1  0
 10 13  1  0
 12  9  1  0
 14 20  1  0
 14 22  1  0
 15 20  1  0
 16 17  1  0
 16 15  1  0
 18 17  1  0
 18 27  1  0
 18 19  1  0
 20 19  1  0
 21 14  2  0
 22  8  1  0
 22 23  1  0
 24 25  2  0
 25 44  1  0
 26 25  1  0
 26 29  1  0
 27 24  1  0
 27 28  1  0
 28 26  2  0
 29 30  1  0
 30 31  2  0
 32 35  1  0
 32 31  1  0
 33 32  2  0
 34 33  1  0
 34 29  2  0
 35 36  1  0
 36 41  2  0
 36 37  1  0
 37 38  2  0
 38 39  1  0
 39 43  1  0
 40 39  2  0
 41 40  1  0
 42 41  1  0
 44 45  1  0
 45 48  1  0
 45 47  1  0
 46 44  2  0
 49 50  1  0
 49 24  1  0
 51 49  1  0
 53 52  1  0
 54 53  1  0
 55 54  1  0
 56 55  1  0
 57 56  1  0
 58 60  1  0
 58 57  1  0
 59 70  2  0
 60 65  1  0
 61 69  1  0
 61 71  1  0
 62 68  1  0
 62 64  1  0
 63 69  1  0
 64 63  1  0
 65 64  2  0
 66 67  1  0
 66 60  2  0
 67 62  2  0
 68 61  1  0
 69 59  1  0
 71 73  2  0
 72 71  1  0
 74 72  1  0
 75 84  2  0
 75 80  1  0
 76 72  1  0
 76 80  1  0
 77 76  1  0
 78 79  1  0
 78 77  1  0
 79 75  1  0
 80 81  2  0
 81 82  1  0
 83 82  2  0
 84 83  1  0
 85 59  1  0
 85 86  1  0
 85 95  1  0
 86 89  1  0
 87 86  1  0
 87 91  1  0
 88 87  2  0
 91 90  1  0
 91 93  1  0
 93 94  1  0
 93 92  1  0
 95 98  1  1
 95 96  1  0
 97 95  1  0
M  ISO  4  14 100  22 100  57 101  58 101
M  END
>  <TORSDO>  (52) 
F 24

>  <SCORE>  (52) 
-7.111

>  <name>  (52) 
51

>  <ligand_id>  (52) 
51

>  <original_smiles>  (52) 
[H]c1c([H])c([H])c2c(c1[H])C([H])([H])C([H])([H])C([H])([H])C2([H])N([H])C(=O)C1([H])N(C(=O)C([H])(N([H])C(=O)C([H])(N([H])C([H])([H])[H])C([H])([H])[H])C(C([H])([H])[H])(C([H])([H])[H])C([H])([H])[H])C([H])([H])c2c([H])c(OC([H])([H])C([H])([H])C([H])([H])C([H])([H])C([H])([H])C([H])([H])[N+]([H])([H])C([H])([H])c3c(Cl)c([H])c(N([H])C(=O)N4C([H])([H])C([H])([H])C([H])([H])C([H])(n5nc(-c6c([H])c([H])c(Oc7c([H])c([H])c(F)c([H])c7F)c([H])c6[H])c(C(=O)N([H])[H])c5N([H])[H])C4([H])[H])c(Cl)c3C([H])([H])[H])c([H])c([H])c2C1([H])[H]

>  <smiles>  (52) 
[H]c1c([H])c([H])c2c(c1[H])C([H])([H])C([H])([H])C([H])([H])C2([H])N([H])C(=O)C1([H])N(C(=O)C([H])(N([H])C(=O)C([H])(N([H])C([H])([H])[H])C([H])([H])[H])C(C([H])([H])[H])(C([H])([H])[H])C([H])([H])[H])C([H])([H])c2c([H])c(OC([H])([H])C([H])([H])C([H])([H])C([H])([H])C([H])([H])C([H])([H])[N+]([H])([H])C([H])([H])c3c(Cl)c([H])c(N([H])C(=O)N4C([H])([H])C([H])([H])C([H])([H])C([H])(n5nc(-c6c([H])c([H])c(Oc7c([H])c([H])c(F)c([H])c7F)c([H])c6[H])c(C(=O)N([H])[H])c5N([H])[H])C4([H])[H])c(Cl)c3C([H])([H])[H])c([H])c([H])c2C1([H])[H]

$$$$
52:0:0
     RDKit          3D

 96104  0  0  1  0  0  0  0  0999 V2000
  -31.0950  -21.3610   20.5570 C   0  0  0  0  0  3  0  0  0  0  0  0
  -31.7350  -18.9980   20.6980 C   0  0  0  0  0  3  0  0  0  0  0  0
  -29.7220  -21.0440   20.5590 C   0  0  0  0  0  0  0  0  0  0  0  0
  -30.3860  -18.5770   20.7430 C   0  0  0  0  0  0  0  0  0  0  0  0
  -32.0900  -20.3660   20.6490 C   0  0  0  0  0  0  0  0  0  0  0  0
  -29.3840  -19.6300   20.6740 C   0  0  0  0  0  0  0  0  0  0  0  0
  -27.7170  -19.1950   20.8020 Cl  0  0  0  0  0  0  0  0  0  0  0  0
  -34.0380  -21.0730   19.4200 C   0  0  0  0  0  1  0  0  0  0  0  0
  -33.4310  -20.7780   20.7180 N   0  0  0  0  0  0  0  0  0  0  0  0
  -33.3870  -20.7450   23.2360 C   0  0  0  0  0  1  0  0  0  0  0  0
  -35.0050  -19.3170   21.9470 C   0  0  0  0  0  1  0  0  0  0  0  0
  -35.2470  -21.8180   22.0010 C   0  0  0  0  0  1  0  0  0  0  0  0
  -34.2390  -20.6510   21.9460 C   0  0  1  0  0  0  0  0  0  0  0  0
  -28.6690  -22.2350   20.4720 C   0  0  0  0  0  2  0  0  0  0  0  0
  -29.1240  -23.7900   20.5030 C   0  0  0  0  0  3  0  0  0  0  0  0
  -28.0350  -24.9260   20.1600 C   0  0  0  0  0  3  0  0  0  0  0  0
  -28.3060  -26.3950   20.2870 O   0  0  0  0  0  0  0  0  0  0  0  0
  -24.6330  -31.9060   23.2460 C   0  0  0  0  0  0  0  0  0  0  0  0
  -27.2070  -27.2840   20.2150 C   0  0  0  0  0  0  0  0  0  0  0  0
  -23.4140  -30.4880   21.6370 C   0  0  0  0  0  3  0  0  0  0  0  0
  -24.8530  -28.9260   20.2050 C   0  0  0  0  0  0  0  0  0  0  0  0
  -25.9560  -30.7980   21.4250 C   0  0  0  0  0  2  0  0  0  0  0  0
  -26.0290  -29.4120   20.7870 C   0  0  0  0  0  0  0  0  0  0  0  0
  -27.2110  -28.6020   20.7840 C   0  0  0  0  0  3  0  0  0  0  0  0
  -26.0060  -26.8710   19.5930 C   0  0  0  0  0  3  0  0  0  0  0  0
  -24.8430  -27.6630   19.5960 C   0  0  0  0  0  3  0  0  0  0  0  0
  -23.6140  -29.8020   20.2600 C   0  0  0  0  0  2  0  0  0  0  0  0
  -24.6880  -31.0820   22.1590 N   0  0  0  0  0  0  0  0  0  0  0  0
  -23.5560  -32.1890   23.7900 O   0  0  0  0  0  0  0  0  0  0  0  0
  -22.7610  -29.4780   22.6120 C   0  0  0  0  0  0  0  0  0  0  0  0
  -21.4390  -29.2780   22.4840 N   0  0  0  0  0  0  0  0  0  0  0  0
  -23.4440  -28.8770   23.4470 O   0  0  0  0  0  0  0  0  0  0  0  0
  -20.9430  -29.8150   21.7860 H   0  0  0  0  0  0  0  0  0  0  0  0
  -18.0800  -28.0310   22.9860 C   0  0  0  0  0  0  0  0  0  0  0  0
  -20.6320  -28.3470   23.2750 C   0  0  0  0  0  3  0  0  0  0  0  0
  -20.7650  -26.9030   22.7410 C   0  0  0  0  0  2  0  0  0  0  0  0
  -19.6800  -26.5330   21.7240 C   0  0  0  0  0  2  0  0  0  0  0  0
  -18.2890  -26.6670   22.3510 C   0  0  0  0  0  2  0  0  0  0  0  0
  -19.1810  -28.8250   23.4050 C   0  0  0  0  0  0  0  0  0  0  0  0
  -18.9300  -30.0980   23.9640 C   0  0  0  0  0  3  0  0  0  0  0  0
  -17.6160  -30.5780   24.1060 C   0  0  0  0  0  3  0  0  0  0  0  0
  -16.5290  -29.7800   23.7050 C   0  0  0  0  0  3  0  0  0  0  0  0
  -16.7620  -28.5100   23.1490 C   0  0  0  0  0  3  0  0  0  0  0  0
  -25.9200  -32.5490   23.8460 C   0  0  0  0  0  3  0  0  0  0  0  0
  -25.6070  -33.9450   24.1800 N   0  0  0  0  0  0  0  0  0  0  0  0
  -25.9190  -35.0010   23.4180 C   0  0  0  0  0  0  0  0  0  0  0  0
  -26.5700  -34.9010   22.3750 O   0  0  0  0  0  0  0  0  0  0  0  0
  -25.0220  -34.0950   24.9880 H   0  0  0  0  0  0  0  0  0  0  0  0
  -24.1760  -36.7870   23.0920 C   0  0  0  0  0  1  0  0  0  0  0  0
  -25.4320  -36.3850   23.8860 C   0  0  0  0  0  3  0  0  0  0  0  0
  -27.5680  -37.2800   24.6970 C   0  0  0  0  0  1  0  0  0  0  0  0
  -26.4570  -37.4430   23.7630 N   0  0  0  0  0  0  0  0  0  0  0  0
  -26.0500  -38.3630   23.9180 H   0  0  0  0  0  0  0  0  0  0  0  0
  -26.4620  -31.7800   25.1130 C   0  0  1  0  0  0  0  0  0  0  0  0
  -25.3840  -31.5330   26.1940 C   0  0  0  0  0  1  0  0  0  0  0  0
  -27.0550  -30.4100   24.7120 C   0  0  0  0  0  1  0  0  0  0  0  0
  -27.6160  -32.5860   25.7570 C   0  0  0  0  0  1  0  0  0  0  0  0
  -30.1480  -17.0670   21.1830 C   0  0  0  0  0  2  0  0  0  0  0  0
  -30.7900  -14.7430   20.0800 C   0  0  0  0  0  0  0  0  0  0  0  0
  -30.5240  -12.5090   18.9700 C   0  0  0  0  0  2  0  0  0  0  0  0
  -29.5240  -12.6220   17.7990 C   0  0  0  0  0  2  0  0  0  0  0  0
  -28.0730  -12.4590   18.2960 C   0  0  0  0  0  2  0  0  0  0  0  0
  -27.7700  -13.3240   19.5470 C   0  0  0  0  0  3  0  0  0  0  0  0
  -28.8770  -13.1760   20.6120 C   0  0  0  0  0  2  0  0  0  0  0  0
  -30.1440  -13.5370   19.9610 N   0  0  0  0  0  0  0  0  0  0  0  0
  -31.9850  -14.8550   19.7990 O   0  0  0  0  0  0  0  0  0  0  0  0
  -29.9880  -15.8470   20.2940 N   0  0  0  0  0  0  0  0  0  0  0  0
  -29.0180  -15.6130   20.1560 H   0  0  0  0  0  0  0  0  0  0  0  0
  -25.4200  -13.9460   20.3700 C   0  0  0  0  0  0  0  0  0  0  0  0
  -24.3590  -13.1810   20.7760 C   0  0  0  0  0  0  0  0  0  0  0  0
  -24.8060  -11.8240   20.7180 C   0  0  0  0  0  0  0  0  0  0  0  0
  -26.4420  -13.0540   20.0890 N   0  0  0  0  0  0  0  0  0  0  0  0
  -26.0840  -11.7730   20.3610 N   0  0  0  0  0  0  0  0  0  0  0  0
  -24.0740  -10.5690   20.9260 C   0  0  0  0  0  0  0  0  0  0  0  0
  -24.4980   -9.6160   21.8780 C   0  0  0  0  0  3  0  0  0  0  0  0
  -23.7670   -8.4240   22.0720 C   0  0  0  0  0  3  0  0  0  0  0  0
  -22.5980   -8.1750   21.3120 C   0  0  0  0  0  0  0  0  0  0  0  0
  -22.1960   -9.1160   20.3470 C   0  0  0  0  0  3  0  0  0  0  0  0
  -22.9270  -10.2990   20.1520 C   0  0  0  0  0  3  0  0  0  0  0  0
  -21.8380   -7.0350   21.4150 O   0  0  0  0  0  0  0  0  0  0  0  0
  -21.7350   -6.3440   22.5950 C   0  0  0  0  0  0  0  0  0  0  0  0
  -21.2240   -6.9440   23.7670 C   0  0  0  0  0  3  0  0  0  0  0  0
  -21.0700   -6.1770   24.9400 C   0  0  0  0  0  3  0  0  0  0  0  0
  -21.4160   -4.8130   24.9420 C   0  0  0  0  0  0  0  0  0  0  0  0
  -21.9200   -4.2130   23.7740 C   0  0  0  0  0  3  0  0  0  0  0  0
  -22.0760   -4.9750   22.6030 C   0  0  0  0  0  0  0  0  0  0  0  0
  -22.5410   -4.3890   21.4750 F   0  0  0  0  0  0  0  0  0  0  0  0
  -21.2600   -4.0750   26.0650 F   0  0  0  0  0  0  0  0  0  0  0  0
  -22.9780  -13.6670   21.1040 C   0  0  0  0  0  0  0  0  0  0  0  0
  -22.2800  -12.9710   21.9960 N   0  0  0  0  0  0  0  0  0  0  0  0
  -22.5280  -14.6990   20.6060 O   0  0  0  0  0  0  0  0  0  0  0  0
  -22.6580  -12.1330   22.4120 H   0  0  0  0  0  0  0  0  0  0  0  0
  -21.3570  -13.2770   22.2660 H   0  0  0  0  0  0  0  0  0  0  0  0
  -25.5960  -15.3140   20.1940 N   0  0  0  0  0  0  0  0  0  0  0  0
  -24.8530  -15.9860   20.3580 H   0  0  0  0  0  0  0  0  0  0  0  0
  -26.4320  -15.7450   19.8240 H   0  0  0  0  0  0  0  0  0  0  0  0
  1  3  2  0
  1  5  1  0
  2  4  1  0
  3  6  1  0
  4 58  1  0
  5  2  2  0
  5  9  1  0
  6  4  2  0
  6  7  1  0
  8  9  1  0
  9 13  1  0
 13 11  1  6
 13 12  1  0
 13 10  1  0
 14 15  1  0
 14  3  1  0
 16 17  1  0
 16 15  2  0
 18 29  2  0
 19 17  1  0
 19 24  1  0
 20 28  1  0
 20 30  1  0
 21 27  1  0
 21 23  1  0
 22 28  1  0
 23 22  1  0
 24 23  2  0
 25 26  1  0
 25 19  2  0
 26 21  2  0
 27 20  1  0
 28 18  1  0
 30 32  2  0
 31 30  1  0
 33 31  1  0
 34 43  2  0
 34 39  1  0
 35 31  1  0
 35 39  1  0
 36 35  1  0
 37 38  1  0
 37 36  1  0
 38 34  1  0
 39 40  2  0
 40 41  1  0
 42 41  2  0
 43 42  1  0
 44 18  1  0
 44 45  1  0
 44 54  1  0
 45 48  1  0
 46 50  1  0
 46 45  1  0
 47 46  2  0
 50 49  1  0
 52 50  1  0
 52 53  1  0
 52 51  1  0
 54 57  1  1
 54 55  1  0
 56 54  1  0
 59 67  1  0
 60 65  1  0
 61 62  1  0
 61 60  1  0
 63 62  1  0
 63 72  1  0
 63 64  1  0
 65 59  1  0
 65 64  1  0
 66 59  2  0
 67 58  1  0
 68 67  1  0
 69 70  2  0
 70 89  1  0
 71 70  1  0
 71 74  1  0
 72 73  1  0
 72 69  1  0
 73 71  2  0
 74 75  1  0
 75 76  2  0
 77 80  1  0
 77 76  1  0
 78 77  2  0
 79 78  1  0
 79 74  2  0
 80 81  1  0
 81 86  2  0
 81 82  1  0
 82 83  2  0
 83 84  1  0
 84 88  1  0
 85 84  2  0
 86 85  1  0
 87 86  1  0
 89 90  1  0
 90 93  1  0
 90 92  1  0
 91 89  2  0
 94 95  1  0
 94 69  1  0
 96 94  1  0
M  ISO  4  16 101  17 101  59 100  67 100
M  END
>  <TORSDO>  (53) 
F 22

>  <SCORE>  (53) 
-12.745

>  <name>  (53) 
52

>  <ligand_id>  (53) 
52

>  <original_smiles>  (53) 
[H]c1c([H])c([H])c2c(c1[H])C([H])([H])C([H])([H])C([H])([H])C2([H])N([H])C(=O)C1([H])N(C(=O)C([H])(N([H])C(=O)C([H])(N([H])C([H])([H])[H])C([H])([H])[H])C(C([H])([H])[H])(C([H])([H])[H])C([H])([H])[H])C([H])([H])c2c([H])c(OC([H])([H])C([H])([H])C([H])([H])c3c([H])c(N(C([H])([H])[H])C(C([H])([H])[H])(C([H])([H])[H])C([H])([H])[H])c([H])c(C([H])([H])N([H])C(=O)N4C([H])([H])C([H])([H])C([H])([H])C([H])(n5nc(-c6c([H])c([H])c(Oc7c([H])c([H])c(F)c([H])c7F)c([H])c6[H])c(C(=O)N([H])[H])c5N([H])[H])C4([H])[H])c3Cl)c([H])c([H])c2C1([H])[H]

>  <smiles>  (53) 
[H]c1c([H])c([H])c2c(c1[H])C([H])([H])C([H])([H])C([H])([H])C2([H])N([H])C(=O)C1([H])N(C(=O)C([H])(N([H])C(=O)C([H])(N([H])C([H])([H])[H])C([H])([H])[H])C(C([H])([H])[H])(C([H])([H])[H])C([H])([H])[H])C([H])([H])c2c([H])c(OC([H])([H])C([H])([H])C([H])([H])c3c([H])c(N(C([H])([H])[H])C(C([H])([H])[H])(C([H])([H])[H])C([H])([H])[H])c([H])c(C([H])([H])N([H])C(=O)N4C([H])([H])C([H])([H])C([H])([H])C([H])(n5nc(-c6c([H])c([H])c(Oc7c([H])c([H])c(F)c([H])c7F)c([H])c6[H])c(C(=O)N([H])[H])c5N([H])[H])C4([H])[H])c3Cl)c([H])c([H])c2C1([H])[H]

$$$$
53:0:0
     RDKit          3D

 91 99  0  0  1  0  0  0  0  0999 V2000
  -30.4510  -19.2610   22.3840 C   0  0  0  0  0  3  0  0  0  0  0  0
  -29.9880  -20.4470   21.7730 C   0  0  0  0  0  0  0  0  0  0  0  0
  -30.4800  -17.9990   21.7540 C   0  0  0  0  0  0  0  0  0  0  0  0
  -29.5380  -20.4740   20.4250 C   0  0  0  0  0  0  0  0  0  0  0  0
  -29.5920  -19.1190   19.7760 C   0  0  0  0  0  0  0  0  0  0  0  0
  -30.0710  -17.8440   20.4070 C   0  0  0  0  0  0  0  0  0  0  0  0
  -29.9300  -21.6680   22.6700 C   0  0  0  0  0  1  0  0  0  0  0  0
  -30.8770  -16.8080   22.6160 C   0  0  0  0  0  1  0  0  0  0  0  0
  -29.0980  -19.0330   18.3430 C   0  0  0  0  0  1  0  0  0  0  0  0
  -30.7940  -15.2340   19.8730 C   0  0  0  0  0  0  0  0  0  0  0  0
  -30.6310  -12.8830   18.9220 C   0  0  0  0  0  2  0  0  0  0  0  0
  -29.6140  -12.8220   17.7610 C   0  0  0  0  0  2  0  0  0  0  0  0
  -28.1820  -12.6190   18.2930 C   0  0  0  0  0  2  0  0  0  0  0  0
  -27.8530  -13.5490   19.4890 C   0  0  0  0  0  3  0  0  0  0  0  0
  -28.9810  -13.5730   20.5390 C   0  0  0  0  0  2  0  0  0  0  0  0
  -30.2000  -13.9780   19.8310 N   0  0  0  0  0  0  0  0  0  0  0  0
  -32.0020  -15.2950   19.6190 O   0  0  0  0  0  0  0  0  0  0  0  0
  -29.9730  -16.4030   19.8750 N   0  0  0  0  0  0  0  0  0  0  0  0
  -29.0230  -16.1610   19.6430 H   0  0  0  0  0  0  0  0  0  0  0  0
  -25.5520  -14.1540   20.4310 C   0  0  0  0  0  0  0  0  0  0  0  0
  -24.4990  -13.3900   20.8460 C   0  0  0  0  0  0  0  0  0  0  0  0
  -24.9250  -12.0310   20.7260 C   0  0  0  0  0  0  0  0  0  0  0  0
  -26.5520  -13.2630   20.0790 N   0  0  0  0  0  0  0  0  0  0  0  0
  -26.1890  -11.9770   20.3220 N   0  0  0  0  0  0  0  0  0  0  0  0
  -24.1820  -10.7780   20.9150 C   0  0  0  0  0  0  0  0  0  0  0  0
  -24.6130   -9.7950   21.8310 C   0  0  0  0  0  3  0  0  0  0  0  0
  -23.8670   -8.6090   22.0110 C   0  0  0  0  0  3  0  0  0  0  0  0
  -22.6780   -8.3990   21.2730 C   0  0  0  0  0  0  0  0  0  0  0  0
  -22.2660   -9.3730   20.3450 C   0  0  0  0  0  3  0  0  0  0  0  0
  -23.0120  -10.5500   20.1630 C   0  0  0  0  0  3  0  0  0  0  0  0
  -21.9030   -7.2670   21.3630 O   0  0  0  0  0  0  0  0  0  0  0  0
  -21.8040   -6.5550   22.5310 C   0  0  0  0  0  0  0  0  0  0  0  0
  -21.3070   -7.1350   23.7180 C   0  0  0  0  0  3  0  0  0  0  0  0
  -21.1560   -6.3480   24.8770 C   0  0  0  0  0  3  0  0  0  0  0  0
  -21.4910   -4.9800   24.8480 C   0  0  0  0  0  0  0  0  0  0  0  0
  -21.9790   -4.4000   23.6630 C   0  0  0  0  0  3  0  0  0  0  0  0
  -22.1340   -5.1840   22.5080 C   0  0  0  0  0  0  0  0  0  0  0  0
  -22.5850   -4.6150   21.3640 F   0  0  0  0  0  0  0  0  0  0  0  0
  -21.3400   -4.2210   25.9580 F   0  0  0  0  0  0  0  0  0  0  0  0
  -23.1360  -13.8870   21.2300 C   0  0  0  0  0  0  0  0  0  0  0  0
  -22.4540  -13.1790   22.1210 N   0  0  0  0  0  0  0  0  0  0  0  0
  -22.6900  -14.9410   20.7750 O   0  0  0  0  0  0  0  0  0  0  0  0
  -22.8330  -12.3290   22.5110 H   0  0  0  0  0  0  0  0  0  0  0  0
  -21.5430  -13.4930   22.4220 H   0  0  0  0  0  0  0  0  0  0  0  0
  -25.7330  -15.5290   20.2940 N   0  0  0  0  0  0  0  0  0  0  0  0
  -24.9780  -16.1820   20.4730 H   0  0  0  0  0  0  0  0  0  0  0  0
  -26.5600  -15.9760   19.9260 H   0  0  0  0  0  0  0  0  0  0  0  0
  -28.8660  -21.8830   19.8180 C   0  0  0  0  0  2  0  0  0  0  0  0
  -29.1630  -23.5280   20.1970 C   0  0  0  0  0  3  0  0  0  0  0  0
  -28.1980  -24.8640   19.7900 C   0  0  0  0  0  3  0  0  0  0  0  0
  -28.4190  -26.3830   20.1100 O   0  0  0  0  0  0  0  0  0  0  0  0
  -24.6820  -31.9360   23.2190 C   0  0  0  0  0  0  0  0  0  0  0  0
  -27.3510  -27.3580   20.0580 C   0  0  0  0  0  0  0  0  0  0  0  0
  -23.5080  -30.5580   21.5480 C   0  0  0  0  0  3  0  0  0  0  0  0
  -24.9850  -29.0600   20.0740 C   0  0  0  0  0  0  0  0  0  0  0  0
  -26.0560  -30.8860   21.3830 C   0  0  0  0  0  2  0  0  0  0  0  0
  -26.1570  -29.5120   20.6930 C   0  0  0  0  0  0  0  0  0  0  0  0
  -27.3400  -28.6790   20.6670 C   0  0  0  0  0  3  0  0  0  0  0  0
  -26.1510  -27.0140   19.3960 C   0  0  0  0  0  3  0  0  0  0  0  0
  -24.9970  -27.8260   19.4080 C   0  0  0  0  0  3  0  0  0  0  0  0
  -23.7360  -29.9260   20.1500 C   0  0  0  0  0  2  0  0  0  0  0  0
  -24.7680  -31.1490   22.1040 N   0  0  0  0  0  0  0  0  0  0  0  0
  -23.5900  -32.1780   23.7600 O   0  0  0  0  0  0  0  0  0  0  0  0
  -22.8600  -29.5080   22.4860 C   0  0  0  0  0  0  0  0  0  0  0  0
  -21.5390  -29.2990   22.3520 N   0  0  0  0  0  0  0  0  0  0  0  0
  -23.5480  -28.8860   23.2990 O   0  0  0  0  0  0  0  0  0  0  0  0
  -21.0370  -29.8520   21.6710 H   0  0  0  0  0  0  0  0  0  0  0  0
  -18.1940  -27.9930   22.8280 C   0  0  0  0  0  0  0  0  0  0  0  0
  -20.7450  -28.3200   23.1010 C   0  0  0  0  0  3  0  0  0  0  0  0
  -20.8870  -26.9060   22.4920 C   0  0  0  0  0  2  0  0  0  0  0  0
  -19.7930  -26.5780   21.4700 C   0  0  0  0  0  2  0  0  0  0  0  0
  -18.4090  -26.6660   22.1170 C   0  0  0  0  0  2  0  0  0  0  0  0
  -19.2910  -28.7760   23.2760 C   0  0  0  0  0  0  0  0  0  0  0  0
  -19.0360  -30.0150   23.9020 C   0  0  0  0  0  3  0  0  0  0  0  0
  -17.7180  -30.4720   24.0860 C   0  0  0  0  0  3  0  0  0  0  0  0
  -16.6360  -29.6870   23.6520 C   0  0  0  0  0  3  0  0  0  0  0  0
  -16.8740  -28.4490   23.0280 C   0  0  0  0  0  3  0  0  0  0  0  0
  -25.9440  -32.5870   23.8600 C   0  0  0  0  0  3  0  0  0  0  0  0
  -26.4450  -31.8270   25.1490 C   0  0  1  0  0  0  0  0  0  0  0  0
  -25.3330  -31.5640   26.1920 C   0  0  0  0  0  1  0  0  0  0  0  0
  -27.0660  -30.4620   24.7760 C   0  0  0  0  0  1  0  0  0  0  0  0
  -27.5650  -32.6470   25.8350 C   0  0  0  0  0  1  0  0  0  0  0  0
  -25.6100  -33.9830   24.1870 N   0  0  0  0  0  0  0  0  0  0  0  0
  -25.9230  -35.0420   23.4280 C   0  0  0  0  0  0  0  0  0  0  0  0
  -26.5920  -34.9480   22.3960 O   0  0  0  0  0  0  0  0  0  0  0  0
  -25.0140  -34.1270   24.9880 H   0  0  0  0  0  0  0  0  0  0  0  0
  -24.1620  -36.8080   23.0930 C   0  0  0  0  0  1  0  0  0  0  0  0
  -25.4220  -36.4250   23.8890 C   0  0  0  0  0  3  0  0  0  0  0  0
  -27.5460  -37.3570   24.6960 C   0  0  0  0  0  1  0  0  0  0  0  0
  -26.4350  -37.4950   23.7570 N   0  0  0  0  0  0  0  0  0  0  0  0
  -26.0160  -38.4110   23.8910 H   0  0  0  0  0  0  0  0  0  0  0  0
  2  1  1  0
  2  7  1  0
  3  1  2  0
  3  8  1  0
  4  2  2  0
  5  6  2  0
  5  4  1  0
  6  3  1  0
  9  5  1  0
 10 18  1  0
 11 16  1  0
 12 13  1  0
 12 11  1  0
 14 13  1  0
 14 23  1  0
 14 15  1  0
 16 10  1  0
 16 15  1  0
 17 10  2  0
 18  6  1  0
 19 18  1  0
 20 21  2  0
 21 40  1  0
 22 21  1  0
 22 25  1  0
 23 24  1  0
 23 20  1  0
 24 22  2  0
 25 26  1  0
 26 27  2  0
 28 31  1  0
 28 27  1  0
 29 28  2  0
 30 29  1  0
 30 25  2  0
 31 32  1  0
 32 33  1  0
 33 34  2  0
 35 34  1  0
 35 39  1  0
 36 35  2  0
 37 32  2  0
 37 36  1  0
 38 37  1  0
 40 41  1  0
 41 44  1  0
 41 43  1  0
 42 40  2  0
 45 20  1  0
 45 46  1  0
 47 45  1  0
 48 49  1  0
 48  4  1  0
 50 51  1  0
 50 49  2  0
 52 63  2  0
 53 51  1  0
 53 58  1  0
 54 62  1  0
 54 64  1  0
 55 61  1  0
 55 57  1  0
 56 62  1  0
 57 56  1  0
 58 57  2  0
 59 60  1  0
 59 53  2  0
 60 55  2  0
 61 54  1  0
 62 52  1  0
 64 66  2  0
 65 64  1  0
 67 65  1  0
 68 77  2  0
 68 73  1  0
 69 65  1  0
 69 73  1  0
 70 69  1  0
 71 72  1  0
 71 70  1  0
 72 68  1  0
 73 74  2  0
 74 75  1  0
 76 75  2  0
 77 76  1  0
 78 52  1  0
 78 83  1  0
 78 79  1  0
 79 82  1  1
 79 80  1  0
 81 79  1  0
 83 86  1  0
 84 88  1  0
 84 83  1  0
 85 84  2  0
 88 87  1  0
 90 88  1  0
 90 91  1  0
 90 89  1  0
M  ISO  4  10 100  18 100  50 101  51 101
M  END
>  <TORSDO>  (54) 
F 19

>  <SCORE>  (54) 
-14.727

>  <name>  (54) 
53

>  <ligand_id>  (54) 
53

>  <original_smiles>  (54) 
[H]c1c([H])c([H])c2c(c1[H])C([H])([H])C([H])([H])C([H])([H])C2([H])N([H])C(=O)C1([H])N(C(=O)C([H])(N([H])C(=O)C([H])(N([H])C([H])([H])[H])C([H])([H])[H])C(C([H])([H])[H])(C([H])([H])[H])C([H])([H])[H])C([H])([H])c2c([H])c(OC([H])([H])C([H])([H])C([H])([H])c3c(C([H])([H])[H])c([H])c(C([H])([H])[H])c(N([H])C(=O)N4C([H])([H])C([H])([H])C([H])([H])C([H])(n5nc(-c6c([H])c([H])c(Oc7c([H])c([H])c(F)c([H])c7F)c([H])c6[H])c(C(=O)N([H])[H])c5N([H])[H])C4([H])[H])c3C([H])([H])[H])c([H])c([H])c2C1([H])[H]

>  <smiles>  (54) 
[H]c1c([H])c([H])c2c(c1[H])C([H])([H])C([H])([H])C([H])([H])C2([H])N([H])C(=O)C1([H])N(C(=O)C([H])(N([H])C(=O)C([H])(N([H])C([H])([H])[H])C([H])([H])[H])C(C([H])([H])[H])(C([H])([H])[H])C([H])([H])[H])C([H])([H])c2c([H])c(OC([H])([H])C([H])([H])C([H])([H])c3c(C([H])([H])[H])c([H])c(C([H])([H])[H])c(N([H])C(=O)N4C([H])([H])C([H])([H])C([H])([H])C([H])(n5nc(-c6c([H])c([H])c(Oc7c([H])c([H])c(F)c([H])c7F)c([H])c6[H])c(C(=O)N([H])[H])c5N([H])[H])C4([H])[H])c3C([H])([H])[H])c([H])c([H])c2C1([H])[H]

$$$$
54:0:0
     RDKit          3D

104111  0  0  1  0  0  0  0  0999 V2000
  -33.8040  -17.0720   17.0850 C   0  0  0  0  0  2  0  0  0  0  0  0
  -32.7890  -18.0290   17.7570 C   0  0  1  0  0  0  0  0  0  0  0  0
  -31.7270  -17.3140   18.1390 F   0  0  0  0  0  0  0  0  0  0  0  0
  -33.3570  -18.5770   18.8340 F   0  0  0  0  0  0  0  0  0  0  0  0
  -32.2860  -19.1740   16.8630 C   0  0  0  0  0  2  0  0  0  0  0  0
  -31.2700  -20.0690   17.5950 C   0  0  0  0  0  2  0  0  0  0  0  0
  -30.5560  -21.0600   16.6670 C   0  0  0  0  0  2  0  0  0  0  0  0
  -29.6120  -22.0300   17.3960 C   0  0  0  0  0  2  0  0  0  0  0  0
  -30.3490  -23.2540   17.9760 C   0  0  0  0  0  2  0  0  0  0  0  0
  -29.3820  -24.3460   18.4670 C   0  0  0  0  0  2  0  0  0  0  0  0
  -30.0530  -25.7240   18.5960 C   0  0  0  0  0  2  0  0  0  0  0  0
  -29.0470  -26.8680   18.7540 C   0  0  0  0  0  2  0  0  0  0  0  0
  -28.4110  -26.7740   20.0240 O   0  0  0  0  0  0  0  0  0  0  0  0
  -24.6100  -31.8690   23.2140 C   0  0  0  0  0  0  0  0  0  0  0  0
  -27.2430  -27.4840   20.0840 C   0  0  0  0  0  0  0  0  0  0  0  0
  -23.4000  -30.4920   21.5500 C   0  0  0  0  0  3  0  0  0  0  0  0
  -24.8490  -28.9610   20.1210 C   0  0  0  0  0  0  0  0  0  0  0  0
  -25.9230  -30.8490   21.3650 C   0  0  0  0  0  2  0  0  0  0  0  0
  -26.0040  -29.4840   20.7180 C   0  0  0  0  0  0  0  0  0  0  0  0
  -27.2060  -28.7470   20.7090 C   0  0  0  0  0  3  0  0  0  0  0  0
  -26.0760  -26.9570   19.4970 C   0  0  0  0  0  3  0  0  0  0  0  0
  -24.8760  -27.6920   19.5120 C   0  0  0  0  0  3  0  0  0  0  0  0
  -23.6100  -29.8220   20.1670 C   0  0  0  0  0  2  0  0  0  0  0  0
  -24.6620  -31.0840   22.1000 N   0  0  0  0  0  0  0  0  0  0  0  0
  -23.5310  -32.1430   23.7550 O   0  0  0  0  0  0  0  0  0  0  0  0
  -22.7390  -29.4650   22.5000 C   0  0  0  0  0  0  0  0  0  0  0  0
  -21.4120  -29.3020   22.3730 N   0  0  0  0  0  0  0  0  0  0  0  0
  -23.4180  -28.8190   23.3020 O   0  0  0  0  0  0  0  0  0  0  0  0
  -20.9280  -29.8770   21.6980 H   0  0  0  0  0  0  0  0  0  0  0  0
  -18.0270  -28.1370   22.8490 C   0  0  0  0  0  0  0  0  0  0  0  0
  -20.5860  -28.3650   23.1320 C   0  0  0  0  0  3  0  0  0  0  0  0
  -20.6750  -26.9390   22.5410 C   0  0  0  0  0  2  0  0  0  0  0  0
  -19.5730  -26.6390   21.5210 C   0  0  0  0  0  2  0  0  0  0  0  0
  -18.1920  -26.7930   22.1620 C   0  0  0  0  0  2  0  0  0  0  0  0
  -19.1520  -28.8830   23.2900 C   0  0  0  0  0  0  0  0  0  0  0  0
  -18.9440  -30.1450   23.8910 C   0  0  0  0  0  3  0  0  0  0  0  0
  -17.6450  -30.6580   24.0580 C   0  0  0  0  0  3  0  0  0  0  0  0
  -16.5340  -29.9100   23.6310 C   0  0  0  0  0  3  0  0  0  0  0  0
  -16.7260  -28.6510   23.0340 C   0  0  0  0  0  3  0  0  0  0  0  0
  -25.9010  -32.4830   23.8410 C   0  0  0  0  0  3  0  0  0  0  0  0
  -25.5870  -33.8630   24.2340 N   0  0  0  0  0  0  0  0  0  0  0  0
  -25.9040  -34.9490   23.5140 C   0  0  0  0  0  0  0  0  0  0  0  0
  -26.5590  -34.8920   22.4690 O   0  0  0  0  0  0  0  0  0  0  0  0
  -25.0030  -33.9800   25.0490 H   0  0  0  0  0  0  0  0  0  0  0  0
  -24.1480  -36.7310   23.2640 C   0  0  0  0  0  1  0  0  0  0  0  0
  -25.4100  -36.3120   24.0340 C   0  0  0  0  0  3  0  0  0  0  0  0
  -27.5580  -37.1800   24.8460 C   0  0  0  0  0  1  0  0  0  0  0  0
  -26.4290  -37.3790   23.9420 N   0  0  0  0  0  0  0  0  0  0  0  0
  -26.0180  -38.2860   24.1420 H   0  0  0  0  0  0  0  0  0  0  0  0
  -26.4470  -31.6620   25.0730 C   0  0  1  0  0  0  0  0  0  0  0  0
  -25.3750  -31.3720   26.1490 C   0  0  0  0  0  1  0  0  0  0  0  0
  -27.0310  -30.3070   24.6090 C   0  0  0  0  0  1  0  0  0  0  0  0
  -27.6060  -32.4340   25.7470 C   0  0  0  0  0  1  0  0  0  0  0  0
  -34.1910  -15.9610   18.0670 C   0  0  0  0  0  2  0  0  0  0  0  0
  -35.4120  -15.0980   17.7330 C   0  0  0  0  0  2  0  0  0  0  0  0
  -35.1690  -13.0220   19.1120 C   0  0  0  0  0  0  0  0  0  0  0  0
  -35.6560  -14.2560   18.9050 N   0  0  0  0  0  0  0  0  0  0  0  0
  -34.8180  -12.2830   18.1920 O   0  0  0  0  0  0  0  0  0  0  0  0
  -35.9670  -14.7610   19.7220 H   0  0  0  0  0  0  0  0  0  0  0  0
  -35.0080  -12.5830   20.5810 C   0  0  0  0  0  2  0  0  0  0  0  0
  -33.7640  -11.6980   20.8460 C   0  0  0  0  0  2  0  0  0  0  0  0
  -33.2500  -11.7290   22.3120 C   0  0  0  0  0  2  0  0  0  0  0  0
  -31.2730  -12.2340   23.9500 C   0  0  0  0  0  1  0  0  0  0  0  0
  -31.8390  -12.3770   22.5250 C   0  0  0  0  0  3  0  0  0  0  0  0
  -31.0460  -14.0360   20.8040 C   0  0  0  0  0  0  0  0  0  0  0  0
  -30.4080  -12.3390   19.2230 C   0  0  0  0  0  2  0  0  0  0  0  0
  -29.3780  -12.6100   18.1250 C   0  0  0  0  0  2  0  0  0  0  0  0
  -27.9800  -12.3330   18.6530 C   0  0  0  0  0  2  0  0  0  0  0  0
  -27.6790  -13.1800   19.9070 C   0  0  0  0  0  3  0  0  0  0  0  0
  -28.7600  -12.9490   20.9950 C   0  0  0  0  0  2  0  0  0  0  0  0
  -30.1120  -13.1380   20.4190 N   0  0  0  0  0  0  0  0  0  0  0  0
  -31.5470  -14.8340   20.0120 O   0  0  0  0  0  0  0  0  0  0  0  0
  -31.6670  -13.7730   22.0000 N   0  0  0  0  0  0  0  0  0  0  0  0
  -25.2710  -13.8160   20.5800 C   0  0  0  0  0  0  0  0  0  0  0  0
  -24.1860  -13.0530   20.9170 C   0  0  0  0  0  0  0  0  0  0  0  0
  -24.6260  -11.6940   20.8710 C   0  0  0  0  0  0  0  0  0  0  0  0
  -26.3140  -12.9270   20.3700 N   0  0  0  0  0  0  0  0  0  0  0  0
  -25.9210  -11.6460   20.5880 N   0  0  0  0  0  0  0  0  0  0  0  0
  -23.8890  -10.4310   21.0290 C   0  0  0  0  0  0  0  0  0  0  0  0
  -24.3520   -9.4220   21.9040 C   0  0  0  0  0  3  0  0  0  0  0  0
  -23.6280   -8.2220   22.0610 C   0  0  0  0  0  3  0  0  0  0  0  0
  -22.4210   -8.0240   21.3440 C   0  0  0  0  0  0  0  0  0  0  0  0
  -21.9710   -9.0240   20.4600 C   0  0  0  0  0  3  0  0  0  0  0  0
  -22.6970  -10.2140   20.3010 C   0  0  0  0  0  3  0  0  0  0  0  0
  -21.6650   -6.8820   21.4190 O   0  0  0  0  0  0  0  0  0  0  0  0
  -21.6860   -6.0680   22.5260 C   0  0  0  0  0  0  0  0  0  0  0  0
  -21.3970   -6.5600   23.8150 C   0  0  0  0  0  3  0  0  0  0  0  0
  -21.3670   -5.6770   24.9160 C   0  0  0  0  0  3  0  0  0  0  0  0
  -21.6080   -4.3050   24.7230 C   0  0  0  0  0  0  0  0  0  0  0  0
  -21.8840   -3.8110   23.4360 C   0  0  0  0  0  3  0  0  0  0  0  0
  -21.9180   -4.6920   22.3390 C   0  0  0  0  0  0  0  0  0  0  0  0
  -22.1710   -4.2120   21.0980 F   0  0  0  0  0  0  0  0  0  0  0  0
  -21.5650   -3.4510   25.7740 F   0  0  0  0  0  0  0  0  0  0  0  0
  -22.7930  -13.5370   21.2000 C   0  0  0  0  0  0  0  0  0  0  0  0
  -22.0560  -12.8260   22.0470 N   0  0  0  0  0  0  0  0  0  0  0  0
  -22.3670  -14.5760   20.6950 O   0  0  0  0  0  0  0  0  0  0  0  0
  -22.3980  -11.9710   22.4650 H   0  0  0  0  0  0  0  0  0  0  0  0
  -21.1310  -13.1430   22.2920 H   0  0  0  0  0  0  0  0  0  0  0  0
  -25.4700  -15.1850   20.4060 N   0  0  0  0  0  0  0  0  0  0  0  0
  -24.7440  -15.8880   20.4680 H   0  0  0  0  0  0  0  0  0  0  0  0
  -26.3630  -15.5700   20.1250 H   0  0  0  0  0  0  0  0  0  0  0  0
  -32.6340  -14.7610   22.5480 C   0  0  0  0  0  2  0  0  0  0  0  0
  -32.3640  -15.3710   25.0360 C   0  0  0  0  0  1  0  0  0  0  0  0
  -32.0540  -15.7600   23.5810 C   0  0  0  0  0  2  0  0  0  0  0  0
  1  2  1  0
  1 54  1  0
  2  3  1  1
  2  4  1  0
  5  6  1  0
  5  2  1  0
  7  8  1  0
  7  6  1  0
  8  9  1  0
  9 10  1  0
 10 11  1  0
 11 12  1  0
 12 13  1  0
 13 15  1  0
 14 25  2  0
 15 20  1  0
 16 24  1  0
 16 26  1  0
 17 23  1  0
 17 19  1  0
 18 24  1  0
 19 18  1  0
 20 19  2  0
 21 22  1  0
 21 15  2  0
 22 17  2  0
 23 16  1  0
 24 14  1  0
 26 28  2  0
 27 26  1  0
 29 27  1  0
 30 39  2  0
 30 35  1  0
 31 27  1  0
 31 35  1  0
 32 31  1  0
 33 34  1  0
 33 32  1  0
 34 30  1  0
 35 36  2  0
 36 37  1  0
 38 37  2  0
 39 38  1  0
 40 14  1  0
 40 41  1  0
 40 50  1  0
 41 44  1  0
 42 46  1  0
 42 41  1  0
 43 42  2  0
 46 45  1  0
 48 46  1  0
 48 49  1  0
 48 47  1  0
 50 53  1  1
 50 51  1  0
 52 50  1  0
 55 54  1  0
 55 57  1  0
 56 60  1  0
 57 56  1  0
 57 59  1  0
 58 56  2  0
 60 61  1  0
 61 62  1  0
 62 64  1  0
 64 63  1  0
 65 73  1  0
 66 71  1  0
 67 68  1  0
 67 66  1  0
 69 68  1  0
 69 77  1  0
 69 70  1  0
 71 65  1  0
 71 70  1  0
 72 65  2  0
 73 64  1  0
 73102  1  0
 74 75  2  0
 75 94  1  0
 76 75  1  0
 76 79  1  0
 77 74  1  0
 77 78  1  0
 78 76  2  0
 79 80  1  0
 80 81  2  0
 82 85  1  0
 82 81  1  0
 83 82  2  0
 84 83  1  0
 84 79  2  0
 85 86  1  0
 86 87  1  0
 87 88  2  0
 89 88  1  0
 89 93  1  0
 90 89  2  0
 91 86  2  0
 91 90  1  0
 92 91  1  0
 94 95  1  0
 95 98  1  0
 95 97  1  0
 96 94  2  0
 99100  1  0
 99 74  1  0
101 99  1  0
102104  1  0
104103  1  0
M  ISO  4  12 101  13 101  65 100  73 100
M  END
>  <TORSDO>  (55) 
F 34

>  <SCORE>  (55) 
2.132

>  <name>  (55) 
54

>  <ligand_id>  (55) 
54

>  <original_smiles>  (55) 
[H]c1c([H])c([H])c2c(c1[H])C([H])([H])C([H])([H])C([H])([H])C2([H])N([H])C(=O)C1([H])N(C(=O)C([H])(N([H])C(=O)C([H])(N([H])C([H])([H])[H])C([H])([H])[H])C(C([H])([H])[H])(C([H])([H])[H])C([H])([H])[H])C([H])([H])c2c([H])c(OC([H])([H])C([H])([H])C([H])([H])C([H])([H])C([H])([H])C([H])([H])C([H])([H])C([H])([H])C(F)(F)C([H])([H])C([H])([H])C([H])([H])N([H])C(=O)C([H])([H])C([H])([H])C([H])([H])C([H])(N(C(=O)N3C([H])([H])C([H])([H])C([H])([H])C([H])(n4nc(-c5c([H])c([H])c(Oc6c([H])c([H])c(F)c([H])c6F)c([H])c5[H])c(C(=O)N([H])[H])c4N([H])[H])C3([H])[H])C([H])([H])C([H])([H])C([H])([H])[H])C([H])([H])[H])c([H])c([H])c2C1([H])[H]

>  <smiles>  (55) 
[H]c1c([H])c([H])c2c(c1[H])C([H])([H])C([H])([H])C([H])([H])C2([H])N([H])C(=O)C1([H])N(C(=O)C([H])(N([H])C(=O)C([H])(N([H])C([H])([H])[H])C([H])([H])[H])C(C([H])([H])[H])(C([H])([H])[H])C([H])([H])[H])C([H])([H])c2c([H])c(OC([H])([H])C([H])([H])C([H])([H])C([H])([H])C([H])([H])C([H])([H])C([H])([H])C([H])([H])C(F)(F)C([H])([H])C([H])([H])C([H])([H])N([H])C(=O)C([H])([H])C([H])([H])C([H])([H])C([H])(N(C(=O)N3C([H])([H])C([H])([H])C([H])([H])C([H])(n4nc(-c5c([H])c([H])c(Oc6c([H])c([H])c(F)c([H])c6F)c([H])c5[H])c(C(=O)N([H])[H])c4N([H])[H])C3([H])[H])C([H])([H])C([H])([H])C([H])([H])[H])C([H])([H])[H])c([H])c([H])c2C1([H])[H]

$$$$
55:0:0
     RDKit          3D

106115  0  0  1  0  0  0  0  0999 V2000
  -29.6360  -21.8400   22.0510 C   0  0  0  0  0  3  0  0  0  0  0  0
  -30.4180  -22.9890   22.0380 C   0  0  0  0  0  0  0  0  0  0  0  0
  -29.2360  -23.6910   19.9980 C   0  0  0  0  0  0  0  0  0  0  0  0
  -30.2530  -23.9310   20.9930 C   0  0  0  0  0  0  0  0  0  0  0  0
  -28.4040  -22.4900   20.0020 C   0  0  0  0  0  0  0  0  0  0  0  0
  -28.6890  -21.5490   21.0620 C   0  0  0  0  0  0  0  0  0  0  0  0
  -31.3900  -23.1370   23.1980 C   0  0  0  0  0  1  0  0  0  0  0  0
  -26.2060  -23.4130   18.9780 C   0  0  0  0  0  1  0  0  0  0  0  0
  -26.2210  -21.1100   19.3330 C   0  0  0  0  0  1  0  0  0  0  0  0
  -27.2350  -22.2370   18.9250 C   0  0  2  0  0  0  0  0  0  0  0  0
  -29.3110  -21.7860   17.3230 C   0  0  0  0  0  1  0  0  0  0  0  0
  -27.3380  -23.0120   16.3730 C   0  0  0  0  0  1  0  0  0  0  0  0
  -27.1990  -20.6310   16.7840 C   0  0  0  0  0  1  0  0  0  0  0  0
  -27.7690  -21.9390   17.4170 C   0  0  2  0  0  0  0  0  0  0  0  0
  -32.5650  -24.8980   20.3640 C   0  0  0  0  0  1  0  0  0  0  0  0
  -31.1790  -26.0300   22.2410 C   0  0  0  0  0  1  0  0  0  0  0  0
  -31.1720  -25.1880   20.9500 C   0  0  0  0  0  3  0  0  0  0  0  0
  -28.0300  -20.3280   21.2790 N   0  0  0  0  0  0  0  0  0  0  0  0
  -27.1030  -20.3350   20.8670 H   0  0  0  0  0  0  0  0  0  0  0  0
  -30.1310  -18.9180   21.5980 C   0  0  0  0  0  2  0  0  0  0  0  0
  -28.7070  -18.6220   19.5690 C   0  0  0  0  0  2  0  0  0  0  0  0
  -30.5890  -17.4540   21.5200 C   0  0  0  0  0  2  0  0  0  0  0  0
  -29.1330  -17.1610   19.4340 C   0  0  0  0  0  2  0  0  0  0  0  0
  -28.7040  -19.0470   21.0380 C   0  0  0  0  0  3  0  0  0  0  0  0
  -30.4960  -16.8490   20.0950 C   0  0  0  0  0  3  0  0  0  0  0  0
  -31.0610  -14.5080   19.3650 C   0  0  0  0  0  0  0  0  0  0  0  0
  -30.8530  -12.1430   18.6950 C   0  0  0  0  0  2  0  0  0  0  0  0
  -29.7620  -11.9650   17.6220 C   0  0  0  0  0  2  0  0  0  0  0  0
  -28.3730  -11.7970   18.2660 C   0  0  0  0  0  2  0  0  0  0  0  0
  -28.0720  -12.9120   19.3020 C   0  0  0  0  0  3  0  0  0  0  0  0
  -29.2460  -13.0340   20.2960 C   0  0  0  0  0  2  0  0  0  0  0  0
  -30.4940  -13.2890   19.5390 N   0  0  0  0  0  0  0  0  0  0  0  0
  -31.8940  -14.7700   18.4900 O   0  0  0  0  0  0  0  0  0  0  0  0
  -30.6220  -15.4060   20.2500 N   0  0  0  0  0  0  0  0  0  0  0  0
  -30.0790  -15.0040   20.9980 H   0  0  0  0  0  0  0  0  0  0  0  0
  -25.9060  -13.5850   20.5360 C   0  0  0  0  0  0  0  0  0  0  0  0
  -24.8570  -12.8410   21.0090 C   0  0  0  0  0  0  0  0  0  0  0  0
  -25.1700  -11.4810   20.7040 C   0  0  0  0  0  0  0  0  0  0  0  0
  -26.8030  -12.6760   19.9920 N   0  0  0  0  0  0  0  0  0  0  0  0
  -26.3680  -11.3990   20.1390 N   0  0  0  0  0  0  0  0  0  0  0  0
  -24.3750  -10.2570   20.8650 C   0  0  0  0  0  0  0  0  0  0  0  0
  -24.7300   -9.2610   21.8000 C   0  0  0  0  0  3  0  0  0  0  0  0
  -23.9390   -8.1000   21.9440 C   0  0  0  0  0  3  0  0  0  0  0  0
  -22.7770   -7.9320   21.1540 C   0  0  0  0  0  0  0  0  0  0  0  0
  -22.4430   -8.9140   20.2060 C   0  0  0  0  0  3  0  0  0  0  0  0
  -23.2360  -10.0650   20.0590 C   0  0  0  0  0  3  0  0  0  0  0  0
  -21.9620   -6.8270   21.2110 O   0  0  0  0  0  0  0  0  0  0  0  0
  -21.5550   -6.2900   22.4080 C   0  0  0  0  0  0  0  0  0  0  0  0
  -20.8940   -7.0670   23.3860 C   0  0  0  0  0  3  0  0  0  0  0  0
  -20.4310   -6.4590   24.5700 C   0  0  0  0  0  3  0  0  0  0  0  0
  -20.6200   -5.0790   24.7740 C   0  0  0  0  0  0  0  0  0  0  0  0
  -21.2720   -4.3050   23.7990 C   0  0  0  0  0  3  0  0  0  0  0  0
  -21.7350   -4.9080   22.6160 C   0  0  0  0  0  0  0  0  0  0  0  0
  -22.3450   -4.1520   21.6700 F   0  0  0  0  0  0  0  0  0  0  0  0
  -20.1680   -4.4950   25.9080 F   0  0  0  0  0  0  0  0  0  0  0  0
  -23.5900  -13.3660   21.6220 C   0  0  0  0  0  0  0  0  0  0  0  0
  -22.9840  -12.6030   22.5250 N   0  0  0  0  0  0  0  0  0  0  0  0
  -23.1540  -14.4790   21.3350 O   0  0  0  0  0  0  0  0  0  0  0  0
  -23.3600  -11.7010   22.7790 H   0  0  0  0  0  0  0  0  0  0  0  0
  -22.1420  -12.9300   22.9770 H   0  0  0  0  0  0  0  0  0  0  0  0
  -26.1550  -14.9520   20.5020 N   0  0  0  0  0  0  0  0  0  0  0  0
  -25.4480  -15.6260   20.7770 H   0  0  0  0  0  0  0  0  0  0  0  0
  -26.9250  -15.3720   19.9970 H   0  0  0  0  0  0  0  0  0  0  0  0
  -29.1000  -24.7760   18.9190 C   0  0  0  0  0  2  0  0  0  0  0  0
  -28.4810  -26.1010   19.4260 C   0  0  0  0  0  2  0  0  0  0  0  0
  -28.0730  -26.8920   18.3150 O   0  0  0  0  0  0  0  0  0  0  0  0
  -24.7070  -31.2660   22.7790 C   0  0  0  0  0  0  0  0  0  0  0  0
  -26.9420  -27.6110   18.5830 C   0  0  0  0  0  0  0  0  0  0  0  0
  -23.3120  -30.2290   21.0160 C   0  0  0  0  0  3  0  0  0  0  0  0
  -24.5860  -29.0300   19.1630 C   0  0  0  0  0  0  0  0  0  0  0  0
  -25.8060  -30.6460   20.6340 C   0  0  0  0  0  2  0  0  0  0  0  0
  -25.8040  -29.4370   19.7240 C   0  0  0  0  0  0  0  0  0  0  0  0
  -26.9890  -28.7290   19.4380 C   0  0  0  0  0  3  0  0  0  0  0  0
  -25.7170  -27.2160   18.0100 C   0  0  0  0  0  3  0  0  0  0  0  0
  -24.5340  -27.9150   18.3070 C   0  0  0  0  0  3  0  0  0  0  0  0
  -23.3640  -29.8450   19.5130 C   0  0  0  0  0  2  0  0  0  0  0  0
  -24.6330  -30.7140   21.5340 N   0  0  0  0  0  0  0  0  0  0  0  0
  -23.6930  -31.4150   23.4740 O   0  0  0  0  0  0  0  0  0  0  0  0
  -22.7470  -29.0280   21.8080 C   0  0  0  0  0  0  0  0  0  0  0  0
  -21.4130  -28.8800   21.7940 N   0  0  0  0  0  0  0  0  0  0  0  0
  -23.5010  -28.2440   22.3910 O   0  0  0  0  0  0  0  0  0  0  0  0
  -20.8670  -29.5710   21.2970 H   0  0  0  0  0  0  0  0  0  0  0  0
  -18.0830  -27.6370   22.4290 C   0  0  0  0  0  0  0  0  0  0  0  0
  -20.6620  -27.8020   22.4350 C   0  0  0  0  0  3  0  0  0  0  0  0
  -20.6450  -26.5340   21.5520 C   0  0  0  0  0  2  0  0  0  0  0  0
  -19.4200  -26.4520   20.6370 C   0  0  0  0  0  2  0  0  0  0  0  0
  -18.1290  -26.4670   21.4610 C   0  0  0  0  0  2  0  0  0  0  0  0
  -19.2720  -28.2750   22.8740 C   0  0  0  0  0  0  0  0  0  0  0  0
  -19.1710  -29.3810   23.7450 C   0  0  0  0  0  3  0  0  0  0  0  0
  -17.9140  -29.8480   24.1740 C   0  0  0  0  0  3  0  0  0  0  0  0
  -16.7420  -29.2030   23.7440 C   0  0  0  0  0  3  0  0  0  0  0  0
  -16.8290  -28.0990   22.8780 C   0  0  0  0  0  3  0  0  0  0  0  0
  -26.0630  -31.7600   23.3760 C   0  0  0  0  0  3  0  0  0  0  0  0
  -25.8040  -33.0230   24.0800 N   0  0  0  0  0  0  0  0  0  0  0  0
  -26.1090  -34.2360   23.6000 C   0  0  0  0  0  0  0  0  0  0  0  0
  -26.7110  -34.4040   22.5370 O   0  0  0  0  0  0  0  0  0  0  0  0
  -25.2640  -32.9640   24.9310 H   0  0  0  0  0  0  0  0  0  0  0  0
  -24.4190  -36.0870   23.8050 C   0  0  0  0  0  1  0  0  0  0  0  0
  -25.6730  -35.4570   24.4330 C   0  0  0  0  0  3  0  0  0  0  0  0
  -27.8540  -36.0440   25.3950 C   0  0  0  0  0  1  0  0  0  0  0  0
  -26.7290  -36.4830   24.5730 N   0  0  0  0  0  0  0  0  0  0  0  0
  -26.3510  -37.3350   24.9790 H   0  0  0  0  0  0  0  0  0  0  0  0
  -26.7350  -30.7090   24.3430 C   0  0  1  0  0  0  0  0  0  0  0  0
  -25.7830  -30.1710   25.4350 C   0  0  0  0  0  1  0  0  0  0  0  0
  -27.2720  -29.4980   23.5450 C   0  0  0  0  0  1  0  0  0  0  0  0
  -27.9560  -31.3480   25.0470 C   0  0  0  0  0  1  0  0  0  0  0  0
  2  1  1  0
  2  7  1  0
  3  5  2  0
  3  4  1  0
  4  2  2  0
  5  6  1  0
  6 18  1  0
  6  1  2  0
 10  8  1  6
 10  9  1  0
 10  5  1  0
 14 11  1  1
 12 14  1  0
 13 14  1  0
 14 10  1  0
 15 17  1  0
 17  4  1  0
 17 16  1  0
 19 18  1  0
 21 24  1  0
 22 20  1  0
 23 21  1  0
 23 25  1  0
 24 18  1  0
 24 20  1  0
 25 34  1  0
 25 22  1  0
 26 32  1  0
 26 34  1  0
 27 32  1  0
 28 29  1  0
 28 27  1  0
 30 29  1  0
 30 39  1  0
 30 31  1  0
 32 31  1  0
 33 26  2  0
 34 35  1  0
 36 37  2  0
 37 56  1  0
 38 41  1  0
 38 37  1  0
 39 40  1  0
 39 36  1  0
 40 38  2  0
 41 42  1  0
 42 43  2  0
 44 47  1  0
 44 43  1  0
 45 44  2  0
 46 45  1  0
 46 41  2  0
 47 48  1  0
 48 53  2  0
 48 49  1  0
 49 50  2  0
 50 51  1  0
 51 55  1  0
 52 51  2  0
 53 52  1  0
 54 53  1  0
 56 57  1  0
 57 59  1  0
 57 60  1  0
 58 56  2  0
 61 36  1  0
 61 62  1  0
 63 61  1  0
 64 65  1  0
 64  3  1  0
 66 68  1  0
 66 65  1  0
 67 78  2  0
 68 73  1  0
 69 77  1  0
 69 79  1  0
 70 76  1  0
 70 72  1  0
 71 77  1  0
 72 71  1  0
 73 72  2  0
 74 75  1  0
 74 68  2  0
 75 70  2  0
 76 69  1  0
 77 67  1  0
 79 81  2  0
 80 79  1  0
 82 80  1  0
 83 88  2  0
 83 92  1  0
 84 80  1  0
 84 88  1  0
 85 84  1  0
 86 87  1  0
 86 85  1  0
 87 83  1  0
 88 89  1  0
 89 90  2  0
 91 90  1  0
 92 91  2  0
 93 67  1  0
 93 94  1  0
 93103  1  0
 94 97  1  0
 95 94  1  0
 95 99  1  0
 96 95  2  0
 99 98  1  0
 99101  1  0
101102  1  0
101100  1  0
103106  1  1
103104  1  0
105103  1  0
M  ISO  4  26 100  34 100  65 101  66 101
M  END
>  <TORSDO>  (56) 
F 23

>  <SCORE>  (56) 
-4.909

>  <name>  (56) 
55

>  <ligand_id>  (56) 
55

>  <original_smiles>  (56) 
[H]c1c([H])c([H])c2c(c1[H])C([H])([H])C([H])([H])C([H])([H])C2([H])N([H])C(=O)C1([H])N(C(=O)C([H])(N([H])C(=O)C([H])(N([H])C([H])([H])[H])C([H])([H])[H])C(C([H])([H])[H])(C([H])([H])[H])C([H])([H])[H])C([H])([H])c2c([H])c(OC([H])([H])C([H])([H])c3c(C([H])(C([H])([H])[H])C([H])([H])[H])c(C([H])([H])[H])c([H])c(N([H])C4([H])C([H])([H])C([H])([H])C([H])(N([H])C(=O)N5C([H])([H])C([H])([H])C([H])([H])C([H])(n6nc(-c7c([H])c([H])c(Oc8c([H])c([H])c(F)c([H])c8F)c([H])c7[H])c(C(=O)N([H])[H])c6N([H])[H])C5([H])[H])C([H])([H])C4([H])[H])c3C(C([H])([H])[H])(C([H])([H])[H])C(C([H])([H])[H])(C([H])([H])[H])C([H])([H])[H])c([H])c([H])c2C1([H])[H]

>  <smiles>  (56) 
[H]c1c([H])c([H])c2c(c1[H])C([H])([H])C([H])([H])C([H])([H])C2([H])N([H])C(=O)C1([H])N(C(=O)C([H])(N([H])C(=O)C([H])(N([H])C([H])([H])[H])C([H])([H])[H])C(C([H])([H])[H])(C([H])([H])[H])C([H])([H])[H])C([H])([H])c2c([H])c(OC([H])([H])C([H])([H])c3c(C([H])(C([H])([H])[H])C([H])([H])[H])c(C([H])([H])[H])c([H])c(N([H])C4([H])C([H])([H])C([H])([H])C([H])(N([H])C(=O)N5C([H])([H])C([H])([H])C([H])([H])C([H])(n6nc(-c7c([H])c([H])c(Oc8c([H])c([H])c(F)c([H])c8F)c([H])c7[H])c(C(=O)N([H])[H])c6N([H])[H])C5([H])[H])C([H])([H])C4([H])[H])c3C(C([H])([H])[H])(C([H])([H])[H])C(C([H])([H])[H])(C([H])([H])[H])C([H])([H])[H])c([H])c([H])c2C1([H])[H]

$$$$
56:0:0
     RDKit          3D

 98107  0  0  1  0  0  0  0  0999 V2000
  -30.2630  -15.8490   19.8050 C   0  0  0  0  0  0  0  0  0  0  0  0
  -30.4670  -13.3160   19.2200 C   0  0  0  0  0  2  0  0  0  0  0  0
  -29.5560  -12.8790   18.0460 C   0  0  0  0  0  2  0  0  0  0  0  0
  -28.1600  -12.4970   18.5600 C   0  0  0  0  0  2  0  0  0  0  0  0
  -27.6380  -13.5090   19.6120 C   0  0  0  0  0  3  0  0  0  0  0  0
  -28.6850  -13.9180   20.6720 C   0  0  0  0  0  2  0  0  0  0  0  0
  -29.8290  -14.4890   19.9430 N   0  0  0  0  0  0  0  0  0  0  0  0
  -31.4250  -15.8840   19.3720 O   0  0  0  0  0  0  0  0  0  0  0  0
  -30.6830  -19.2200   19.8920 C   0  0  0  0  0  0  0  0  0  0  0  0
  -31.2300  -20.1990   19.0170 C   0  0  0  0  0  0  0  0  0  0  0  0
  -29.1580  -20.1200   17.7450 C   0  0  0  0  0  0  0  0  0  0  0  0
  -30.5710  -20.4050   17.7470 C   0  0  0  0  0  0  0  0  0  0  0  0
  -28.5610  -19.7410   18.9610 C   0  0  0  0  0  0  0  0  0  0  0  0
  -29.4650  -18.6370   19.5880 C   0  0  0  0  0  0  0  0  0  0  0  0
  -30.1790  -17.4820   21.4550 C   0  0  0  0  0  2  0  0  0  0  0  0
  -31.2390  -18.6000   21.1580 C   0  0  0  0  0  3  0  0  0  0  0  0
  -32.4620  -20.9670   19.4560 C   0  0  0  0  0  1  0  0  0  0  0  0
  -28.1810  -20.3900   16.6060 C   0  0  0  0  0  1  0  0  0  0  0  0
  -29.5370  -17.1210   20.1650 N   0  0  0  0  0  0  0  0  0  0  0  0
  -25.3180  -13.8920   20.5810 C   0  0  0  0  0  0  0  0  0  0  0  0
  -24.3270  -13.0430   20.9860 C   0  0  0  0  0  0  0  0  0  0  0  0
  -24.8520  -11.7210   20.8350 C   0  0  0  0  0  0  0  0  0  0  0  0
  -26.3750  -13.0890   20.2030 N   0  0  0  0  0  0  0  0  0  0  0  0
  -26.1130  -11.7720   20.4180 N   0  0  0  0  0  0  0  0  0  0  0  0
  -24.2020  -10.4130   21.0060 C   0  0  0  0  0  0  0  0  0  0  0  0
  -24.7000   -9.4540   21.9180 C   0  0  0  0  0  3  0  0  0  0  0  0
  -24.0420   -8.2150   22.0820 C   0  0  0  0  0  3  0  0  0  0  0  0
  -22.8750   -7.9250   21.3350 C   0  0  0  0  0  0  0  0  0  0  0  0
  -22.3970   -8.8740   20.4130 C   0  0  0  0  0  3  0  0  0  0  0  0
  -23.0550  -10.1050   20.2470 C   0  0  0  0  0  3  0  0  0  0  0  0
  -22.1880   -6.7370   21.4060 O   0  0  0  0  0  0  0  0  0  0  0  0
  -22.0340   -6.0630   22.5930 C   0  0  0  0  0  0  0  0  0  0  0  0
  -21.3810   -6.6460   23.7000 C   0  0  0  0  0  3  0  0  0  0  0  0
  -21.1870   -5.8970   24.8780 C   0  0  0  0  0  3  0  0  0  0  0  0
  -21.6310   -4.5620   24.9450 C   0  0  0  0  0  0  0  0  0  0  0  0
  -22.2770   -3.9790   23.8420 C   0  0  0  0  0  3  0  0  0  0  0  0
  -22.4750   -4.7280   22.6670 C   0  0  0  0  0  0  0  0  0  0  0  0
  -23.0800   -4.1540   21.5990 F   0  0  0  0  0  0  0  0  0  0  0  0
  -21.4370   -3.8390   26.0740 F   0  0  0  0  0  0  0  0  0  0  0  0
  -22.9380  -13.4310   21.3940 C   0  0  0  0  0  0  0  0  0  0  0  0
  -22.3220  -12.6530   22.2760 N   0  0  0  0  0  0  0  0  0  0  0  0
  -22.4140  -14.4590   20.9700 O   0  0  0  0  0  0  0  0  0  0  0  0
  -22.7670  -11.8200   22.6340 H   0  0  0  0  0  0  0  0  0  0  0  0
  -21.3900  -12.8880   22.5900 H   0  0  0  0  0  0  0  0  0  0  0  0
  -25.4040  -15.2780   20.4770 N   0  0  0  0  0  0  0  0  0  0  0  0
  -24.6310  -15.8950   20.6950 H   0  0  0  0  0  0  0  0  0  0  0  0
  -26.2140  -15.7730   20.1230 H   0  0  0  0  0  0  0  0  0  0  0  0
  -32.8550  -20.6450   16.4870 C   0  0  0  0  0  1  0  0  0  0  0  0
  -31.1250  -22.4460   16.3000 C   0  0  0  0  0  1  0  0  0  0  0  0
  -30.8680  -20.2000   15.1850 C   0  0  0  0  0  1  0  0  0  0  0  0
  -31.3280  -20.9260   16.4750 C   0  0  2  0  0  0  0  0  0  0  0  0
  -27.8410  -21.2320   19.5340 C   0  0  0  0  0  2  0  0  0  0  0  0
  -27.9540  -22.9560   18.9680 C   0  0  0  0  0  3  0  0  0  0  0  0
  -27.1200  -24.5060   19.3910 C   0  0  0  0  0  3  0  0  0  0  0  0
  -27.3890  -26.1240   19.1740 O   0  0  0  0  0  0  0  0  0  0  0  0
  -24.6480  -31.8710   23.2780 C   0  0  0  0  0  0  0  0  0  0  0  0
  -26.4520  -27.2550   19.4280 C   0  0  0  0  0  0  0  0  0  0  0  0
  -23.1540  -30.7190   21.6950 C   0  0  0  0  0  3  0  0  0  0  0  0
  -24.2890  -29.2230   19.9200 C   0  0  0  0  0  0  0  0  0  0  0  0
  -25.6810  -30.8420   21.1900 C   0  0  0  0  0  2  0  0  0  0  0  0
  -25.5770  -29.5090   20.3910 C   0  0  0  0  0  0  0  0  0  0  0  0
  -26.6550  -28.5500   20.1190 C   0  0  0  0  0  3  0  0  0  0  0  0
  -25.1380  -27.1290   18.9310 C   0  0  0  0  0  3  0  0  0  0  0  0
  -24.0920  -28.0530   19.1700 C   0  0  0  0  0  3  0  0  0  0  0  0
  -23.1460  -30.1830   20.2380 C   0  0  0  0  0  2  0  0  0  0  0  0
  -24.5250  -31.1650   22.1060 N   0  0  0  0  0  0  0  0  0  0  0  0
  -23.6620  -32.1450   23.9810 O   0  0  0  0  0  0  0  0  0  0  0  0
  -22.5480  -29.6510   22.6420 C   0  0  0  0  0  0  0  0  0  0  0  0
  -21.2320  -29.3900   22.5290 N   0  0  0  0  0  0  0  0  0  0  0  0
  -23.2690  -29.0580   23.4500 O   0  0  0  0  0  0  0  0  0  0  0  0
  -20.6990  -29.9300   21.8610 H   0  0  0  0  0  0  0  0  0  0  0  0
  -18.0360  -27.6950   22.8240 C   0  0  0  0  0  0  0  0  0  0  0  0
  -20.4910  -28.3740   23.2830 C   0  0  0  0  0  3  0  0  0  0  0  0
  -20.8590  -26.9470   22.8130 C   0  0  0  0  0  2  0  0  0  0  0  0
  -19.9180  -26.4050   21.7310 C   0  0  0  0  0  2  0  0  0  0  0  0
  -18.4770  -26.3600   22.2470 C   0  0  0  0  0  2  0  0  0  0  0  0
  -18.9810  -28.6460   23.2950 C   0  0  0  0  0  0  0  0  0  0  0  0
  -18.5150  -29.8810   23.7940 C   0  0  0  0  0  3  0  0  0  0  0  0
  -17.1380  -30.1740   23.8220 C   0  0  0  0  0  3  0  0  0  0  0  0
  -16.2080  -29.2240   23.3650 C   0  0  0  0  0  3  0  0  0  0  0  0
  -16.6570  -27.9860   22.8740 C   0  0  0  0  0  3  0  0  0  0  0  0
  -26.0300  -32.3860   23.7820 C   0  0  0  0  0  3  0  0  0  0  0  0
  -25.8700  -33.7940   24.1860 N   0  0  0  0  0  0  0  0  0  0  0  0
  -26.2270  -34.8510   23.4440 C   0  0  0  0  0  0  0  0  0  0  0  0
  -26.7870  -34.7380   22.3500 O   0  0  0  0  0  0  0  0  0  0  0  0
  -25.3630  -33.9630   25.0420 H   0  0  0  0  0  0  0  0  0  0  0  0
  -24.6650  -36.8220   23.3090 C   0  0  0  0  0  1  0  0  0  0  0  0
  -25.9160  -36.2560   24.0000 C   0  0  0  0  0  3  0  0  0  0  0  0
  -28.1780  -36.8990   24.7090 C   0  0  0  0  0  1  0  0  0  0  0  0
  -27.0360  -37.2110   23.8540 N   0  0  0  0  0  0  0  0  0  0  0  0
  -26.7300  -38.1570   24.0650 H   0  0  0  0  0  0  0  0  0  0  0  0
  -26.6050  -31.5390   24.9840 C   0  0  1  0  0  0  0  0  0  0  0  0
  -25.6180  -31.3750   26.1650 C   0  0  0  0  0  1  0  0  0  0  0  0
  -27.0110  -30.1230   24.5160 C   0  0  0  0  0  1  0  0  0  0  0  0
  -27.8910  -32.2080   25.5280 C   0  0  0  0  0  1  0  0  0  0  0  0
  -32.6940  -18.0860   21.0320 C   0  0  0  0  0  2  0  0  0  0  0  0
  -35.0950  -18.8720   20.6380 C   0  0  0  0  0  1  0  0  0  0  0  0
  -33.7530  -19.1680   21.3120 C   0  0  0  0  0  2  0  0  0  0  0  0
  1  7  1  0
  1 19  1  0
  2  7  1  0
  3  4  1  0
  3  2  1  0
  5  4  1  0
  5 23  1  0
  5  6  1  0
  7  6  1  0
  8  1  2  0
  9 16  1  0
 10 17  1  0
 10  9  2  0
 11 12  2  0
 11 13  1  0
 12 10  1  0
 13 52  1  0
 13 14  2  0
 14  9  1  0
 14 19  1  0
 16 96  1  0
 16 15  1  0
 18 11  1  0
 19 15  1  0
 20 21  2  0
 21 40  1  0
 22 21  1  0
 22 25  1  0
 23 24  1  0
 23 20  1  0
 24 22  2  0
 25 26  1  0
 26 27  2  0
 28 31  1  0
 28 27  1  0
 29 28  2  0
 30 29  1  0
 30 25  2  0
 31 32  1  0
 32 37  2  0
 32 33  1  0
 33 34  2  0
 34 35  1  0
 35 39  1  0
 36 35  2  0
 37 36  1  0
 38 37  1  0
 40 41  1  0
 41 44  1  0
 41 43  1  0
 42 40  2  0
 45 20  1  0
 45 46  1  0
 47 45  1  0
 51 49  1  6
 50 51  1  0
 51 48  1  0
 51 12  1  0
 53 54  2  0
 53 52  1  0
 55 54  1  0
 55 57  1  0
 56 67  2  0
 57 62  1  0
 58 66  1  0
 58 68  1  0
 59 65  1  0
 59 61  1  0
 60 66  1  0
 61 60  1  0
 62 61  2  0
 63 64  1  0
 63 57  2  0
 64 59  2  0
 65 58  1  0
 66 56  1  0
 68 70  2  0
 69 68  1  0
 71 69  1  0
 72 81  2  0
 72 77  1  0
 73 69  1  0
 73 77  1  0
 74 73  1  0
 75 76  1  0
 75 74  1  0
 76 72  1  0
 77 78  2  0
 78 79  1  0
 80 79  2  0
 81 80  1  0
 82 56  1  0
 82 83  1  0
 82 92  1  0
 83 86  1  0
 84 88  1  0
 84 83  1  0
 85 84  2  0
 88 87  1  0
 90 88  1  0
 90 91  1  0
 90 89  1  0
 92 95  1  1
 92 93  1  0
 94 92  1  0
 96 98  1  0
 97 98  1  0
M  ISO  4   1 100  19 100  54 101  55 101
M  END
>  <TORSDO>  (57) 
F 21

>  <SCORE>  (57) 
-14.084

>  <name>  (57) 
56

>  <ligand_id>  (57) 
56

>  <original_smiles>  (57) 
[H]c1c([H])c([H])c2c(c1[H])C([H])([H])C([H])([H])C([H])([H])C2([H])N([H])C(=O)C1([H])N(C(=O)C([H])(N([H])C(=O)C([H])(N([H])C([H])([H])[H])C([H])([H])[H])C(C([H])([H])[H])(C([H])([H])[H])C([H])([H])[H])C([H])([H])c2c([H])c(OC([H])([H])C([H])([H])C([H])([H])c3c4c(c(C([H])([H])[H])c(C(C([H])([H])[H])(C([H])([H])[H])C([H])([H])[H])c3C([H])([H])[H])C([H])(C([H])([H])C([H])([H])C([H])([H])[H])C([H])([H])N4C(=O)N3C([H])([H])C([H])([H])C([H])([H])C([H])(n4nc(-c5c([H])c([H])c(Oc6c([H])c([H])c(F)c([H])c6F)c([H])c5[H])c(C(=O)N([H])[H])c4N([H])[H])C3([H])[H])c([H])c([H])c2C1([H])[H]

>  <smiles>  (57) 
[H]c1c([H])c([H])c2c(c1[H])C([H])([H])C([H])([H])C([H])([H])C2([H])N([H])C(=O)C1([H])N(C(=O)C([H])(N([H])C(=O)C([H])(N([H])C([H])([H])[H])C([H])([H])[H])C(C([H])([H])[H])(C([H])([H])[H])C([H])([H])[H])C([H])([H])c2c([H])c(OC([H])([H])C([H])([H])C([H])([H])c3c4c(c(C([H])([H])[H])c(C(C([H])([H])[H])(C([H])([H])[H])C([H])([H])[H])c3C([H])([H])[H])C([H])(C([H])([H])C([H])([H])C([H])([H])[H])C([H])([H])N4C(=O)N3C([H])([H])C([H])([H])C([H])([H])C([H])(n4nc(-c5c([H])c([H])c(Oc6c([H])c([H])c(F)c([H])c6F)c([H])c5[H])c(C(=O)N([H])[H])c4N([H])[H])C3([H])[H])c([H])c([H])c2C1([H])[H]

$$$$
57:0:0
     RDKit          3D

104112  0  0  1  0  0  0  0  0999 V2000
  -31.8420  -22.2950   17.1800 C   0  0  0  0  0  2  0  0  0  0  0  0
  -29.6010  -23.4780   17.6330 C   0  0  0  0  0  2  0  0  0  0  0  0
  -30.8880  -21.0990   17.0390 C   0  0  0  0  0  2  0  0  0  0  0  0
  -29.1400  -22.2220   18.4130 C   0  0  0  0  0  2  0  0  0  0  0  0
  -31.1350  -23.6690   17.4040 C   0  0  2  0  0  0  0  0  0  0  0  0
  -30.0220  -21.0360   18.2370 N   0  0  1  0  0  4  0  0  0  0  0  0
  -30.6780  -21.1370   18.9960 H   0  0  0  0  0  0  0  0  0  0  0  0
  -31.2660  -24.4750   16.0690 C   0  0  1  0  0  0  0  0  0  0  0  0
  -30.7570  -23.7850   15.0450 F   0  0  0  0  0  0  0  0  0  0  0  0
  -30.6110  -25.6350   16.1450 F   0  0  0  0  0  0  0  0  0  0  0  0
  -32.5430  -24.7370   15.7860 F   0  0  0  0  0  0  0  0  0  0  0  0
  -28.8560  -18.9520   17.3380 C   0  0  0  0  0  1  0  0  0  0  0  0
  -29.3740  -19.7340   18.5640 C   0  0  0  0  0  3  0  0  0  0  0  0
  -30.3130  -18.9070   19.4740 C   0  0  0  0  0  2  0  0  0  0  0  0
  -29.5540  -17.9930   20.4540 C   0  0  0  0  0  2  0  0  0  0  0  0
  -30.3620  -17.5930   21.7050 C   0  0  0  0  0  2  0  0  0  0  0  0
  -31.3620  -16.4410   21.4980 C   0  0  0  0  0  2  0  0  0  0  0  0
  -31.1900  -14.2930   20.2480 C   0  0  0  0  0  0  0  0  0  0  0  0
  -30.7150  -12.2250   18.9960 C   0  0  0  0  0  2  0  0  0  0  0  0
  -29.7510  -12.4970   17.8260 C   0  0  0  0  0  2  0  0  0  0  0  0
  -28.2850  -12.4230   18.2970 C   0  0  0  0  0  2  0  0  0  0  0  0
  -28.0260  -13.2550   19.5790 C   0  0  0  0  0  3  0  0  0  0  0  0
  -29.0890  -12.9520   20.6560 C   0  0  0  0  0  2  0  0  0  0  0  0
  -30.4180  -13.1900   20.0650 N   0  0  0  0  0  0  0  0  0  0  0  0
  -32.2620  -14.4720   19.6640 O   0  0  0  0  0  0  0  0  0  0  0  0
  -30.6960  -15.2060   21.0950 N   0  0  0  0  0  0  0  0  0  0  0  0
  -29.7970  -15.0110   21.5100 H   0  0  0  0  0  0  0  0  0  0  0  0
  -25.6700  -13.9720   20.3440 C   0  0  0  0  0  0  0  0  0  0  0  0
  -24.5780  -13.2430   20.7320 C   0  0  0  0  0  0  0  0  0  0  0  0
  -24.9770  -11.8730   20.6900 C   0  0  0  0  0  0  0  0  0  0  0  0
  -26.6710  -13.0450   20.0860 N   0  0  0  0  0  0  0  0  0  0  0  0
  -26.2580  -11.7800   20.3520 N   0  0  0  0  0  0  0  0  0  0  0  0
  -24.2010  -10.6410   20.8960 C   0  0  0  0  0  0  0  0  0  0  0  0
  -24.5860   -9.6810   21.8580 C   0  0  0  0  0  3  0  0  0  0  0  0
  -23.8170   -8.5110   22.0520 C   0  0  0  0  0  3  0  0  0  0  0  0
  -22.6490   -8.2970   21.2840 C   0  0  0  0  0  0  0  0  0  0  0  0
  -22.2820   -9.2450   20.3110 C   0  0  0  0  0  3  0  0  0  0  0  0
  -23.0500  -10.4050   20.1170 C   0  0  0  0  0  3  0  0  0  0  0  0
  -21.8520   -7.1820   21.3880 O   0  0  0  0  0  0  0  0  0  0  0  0
  -21.7270   -6.4930   22.5660 C   0  0  0  0  0  0  0  0  0  0  0  0
  -21.2400   -7.1080   23.7410 C   0  0  0  0  0  3  0  0  0  0  0  0
  -21.0620   -6.3450   24.9120 C   0  0  0  0  0  3  0  0  0  0  0  0
  -21.3580   -4.9690   24.9100 C   0  0  0  0  0  0  0  0  0  0  0  0
  -21.8360   -4.3530   23.7380 C   0  0  0  0  0  3  0  0  0  0  0  0
  -22.0160   -5.1120   22.5700 C   0  0  0  0  0  0  0  0  0  0  0  0
  -22.4590   -4.5100   21.4390 F   0  0  0  0  0  0  0  0  0  0  0  0
  -21.1740   -4.2340   26.0310 F   0  0  0  0  0  0  0  0  0  0  0  0
  -23.2070  -13.7800   21.0330 C   0  0  0  0  0  0  0  0  0  0  0  0
  -22.4720  -13.1220   21.9210 N   0  0  0  0  0  0  0  0  0  0  0  0
  -22.7970  -14.8160   20.5110 O   0  0  0  0  0  0  0  0  0  0  0  0
  -22.8100  -12.2770   22.3590 H   0  0  0  0  0  0  0  0  0  0  0  0
  -21.5490  -13.4580   22.1550 H   0  0  0  0  0  0  0  0  0  0  0  0
  -25.8900  -15.3350   20.1660 N   0  0  0  0  0  0  0  0  0  0  0  0
  -25.1670  -16.0240   20.3440 H   0  0  0  0  0  0  0  0  0  0  0  0
  -26.7540  -15.7530   19.8400 H   0  0  0  0  0  0  0  0  0  0  0  0
  -31.8870  -24.5180   18.5050 C   0  0  0  0  0  2  0  0  0  0  0  0
  -32.9680  -25.0770   20.6860 C   0  0  0  0  0  1  0  0  0  0  0  0
  -32.0650  -22.8170   20.4450 C   0  0  0  0  0  1  0  0  0  0  0  0
  -31.7870  -24.2910   20.0620 C   0  0  2  0  0  0  0  0  0  0  0  0
  -30.1100  -24.2100   22.0650 C   0  0  0  0  0  1  0  0  0  0  0  0
  -30.4380  -24.8240   20.6860 C   0  0  0  0  0  3  0  0  0  0  0  0
  -30.3480  -26.3700   20.7660 C   0  0  0  0  0  2  0  0  0  0  0  0
  -28.9440  -26.9490   21.0050 C   0  0  0  0  0  2  0  0  0  0  0  0
  -28.0890  -26.8640   19.8530 O   0  0  0  0  0  0  0  0  0  0  0  0
  -24.4670  -31.9610   23.2130 C   0  0  0  0  0  0  0  0  0  0  0  0
  -26.9320  -27.6140   19.9230 C   0  0  0  0  0  0  0  0  0  0  0  0
  -23.1540  -30.6020   21.6080 C   0  0  0  0  0  3  0  0  0  0  0  0
  -24.5130  -29.0800   20.0760 C   0  0  0  0  0  0  0  0  0  0  0  0
  -25.6500  -30.9750   21.2580 C   0  0  0  0  0  2  0  0  0  0  0  0
  -25.6930  -29.6140   20.6000 C   0  0  0  0  0  0  0  0  0  0  0  0
  -26.8960  -28.9000   20.5130 C   0  0  0  0  0  3  0  0  0  0  0  0
  -25.7390  -27.0910   19.3780 C   0  0  0  0  0  3  0  0  0  0  0  0
  -24.5280  -27.8150   19.4570 C   0  0  0  0  0  3  0  0  0  0  0  0
  -23.2730  -29.9360   20.2080 C   0  0  0  0  0  2  0  0  0  0  0  0
  -24.4460  -31.1920   22.0870 N   0  0  0  0  0  0  0  0  0  0  0  0
  -23.4230  -32.2280   23.8240 O   0  0  0  0  0  0  0  0  0  0  0  0
  -22.5490  -29.5700   22.5860 C   0  0  0  0  0  0  0  0  0  0  0  0
  -21.2300  -29.3480   22.4750 N   0  0  0  0  0  0  0  0  0  0  0  0
  -23.2630  -28.9720   23.3950 O   0  0  0  0  0  0  0  0  0  0  0  0
  -20.7150  -29.8830   21.7900 H   0  0  0  0  0  0  0  0  0  0  0  0
  -17.9190  -27.9880   22.9380 C   0  0  0  0  0  0  0  0  0  0  0  0
  -20.4510  -28.3900   23.2570 C   0  0  0  0  0  3  0  0  0  0  0  0
  -20.6440  -26.9500   22.7280 C   0  0  0  0  0  2  0  0  0  0  0  0
  -19.5840  -26.5400   21.7000 C   0  0  0  0  0  2  0  0  0  0  0  0
  -18.1820  -26.6310   22.3100 C   0  0  0  0  0  2  0  0  0  0  0  0
  -18.9840  -28.8220   23.3690 C   0  0  0  0  0  0  0  0  0  0  0  0
  -18.6850  -30.0910   23.9120 C   0  0  0  0  0  3  0  0  0  0  0  0
  -17.3510  -30.5260   24.0330 C   0  0  0  0  0  3  0  0  0  0  0  0
  -16.3000  -29.6890   23.6200 C   0  0  0  0  0  3  0  0  0  0  0  0
  -16.5850  -28.4230   23.0780 C   0  0  0  0  0  3  0  0  0  0  0  0
  -25.7950  -32.5610   23.7760 C   0  0  0  0  0  3  0  0  0  0  0  0
  -26.3680  -31.7610   25.0080 C   0  0  1  0  0  0  0  0  0  0  0  0
  -25.3310  -31.5180   26.1300 C   0  0  0  0  0  1  0  0  0  0  0  0
  -26.9110  -30.3850   24.5550 C   0  0  0  0  0  1  0  0  0  0  0  0
  -27.5650  -32.5280   25.6210 C   0  0  0  0  0  1  0  0  0  0  0  0
  -25.5310  -33.9580   24.1380 N   0  0  0  0  0  0  0  0  0  0  0  0
  -25.8720  -35.0150   23.3880 C   0  0  0  0  0  0  0  0  0  0  0  0
  -26.5140  -34.9120   22.3380 O   0  0  0  0  0  0  0  0  0  0  0  0
  -24.9630  -34.1140   24.9570 H   0  0  0  0  0  0  0  0  0  0  0  0
  -24.1900  -36.8580   23.0900 C   0  0  0  0  0  1  0  0  0  0  0  0
  -25.4300  -36.4060   23.8790 C   0  0  0  0  0  3  0  0  0  0  0  0
  -27.5980  -37.2170   24.6990 C   0  0  0  0  0  1  0  0  0  0  0  0
  -26.4910  -37.4320   23.7710 N   0  0  0  0  0  0  0  0  0  0  0  0
  -26.1120  -38.3600   23.9380 H   0  0  0  0  0  0  0  0  0  0  0  0
  1  5  1  0
  2  4  1  0
  3  1  1  0
  3  6  1  0
  5  2  1  0
  5 56  1  1
  6  4  1  0
  6 13  1  0
  6  7  1  1
  8 10  1  1
  8  5  1  0
  9  8  1  0
 11  8  1  0
 13 12  1  0
 13 14  1  0
 14 15  1  0
 15 16  1  0
 17 16  1  0
 18 26  1  0
 19 24  1  0
 20 21  1  0
 20 19  1  0
 22 21  1  0
 22 31  1  0
 22 23  1  0
 24 18  1  0
 24 23  1  0
 25 18  2  0
 26 17  1  0
 26 27  1  0
 28 29  2  0
 29 48  1  0
 30 29  1  0
 30 33  1  0
 31 28  1  0
 31 32  1  0
 32 30  2  0
 33 34  1  0
 34 35  2  0
 36 39  1  0
 36 35  1  0
 37 36  2  0
 38 37  1  0
 38 33  2  0
 39 40  1  0
 40 45  2  0
 40 41  1  0
 41 42  2  0
 43 42  1  0
 43 47  1  0
 44 43  2  0
 45 44  1  0
 46 45  1  0
 48 49  1  0
 49 52  1  0
 49 51  1  0
 50 48  2  0
 53 28  1  0
 53 54  1  0
 55 53  1  0
 56 59  1  0
 59 58  1  6
 59 57  1  0
 59 61  1  0
 61 62  1  0
 61 60  1  0
 62 63  1  0
 64 66  1  0
 64 63  1  0
 65 76  2  0
 66 71  1  0
 67 75  1  0
 67 77  1  0
 68 74  1  0
 68 70  1  0
 69 75  1  0
 70 69  1  0
 71 70  2  0
 72 73  1  0
 72 66  2  0
 73 68  2  0
 74 67  1  0
 75 65  1  0
 77 79  2  0
 78 77  1  0
 80 78  1  0
 81 90  2  0
 81 86  1  0
 82 78  1  0
 82 86  1  0
 83 82  1  0
 84 85  1  0
 84 83  1  0
 85 81  1  0
 86 87  2  0
 87 88  1  0
 89 88  2  0
 90 89  1  0
 91 65  1  0
 91 96  1  0
 91 92  1  0
 92 95  1  1
 92 93  1  0
 94 92  1  0
 96 99  1  0
 97101  1  0
 97 96  1  0
 98 97  2  0
101100  1  0
103101  1  0
103104  1  0
103102  1  0
M  ISO  4  18 100  26 100  63 101  64 101
M  END
>  <TORSDO>  (58) 
F 27

>  <SCORE>  (58) 
-11.261

>  <name>  (58) 
57

>  <ligand_id>  (58) 
57

>  <original_smiles>  (58) 
[H]c1c([H])c([H])c2c(c1[H])C([H])([H])C([H])([H])C([H])([H])C2([H])N([H])C(=O)C1([H])N(C(=O)C([H])(N([H])C(=O)C([H])(N([H])C([H])([H])[H])C([H])([H])[H])C(C([H])([H])[H])(C([H])([H])[H])C([H])([H])[H])C([H])([H])c2c([H])c(OC([H])([H])C([H])([H])C([H])(C([H])([H])[H])C(C([H])([H])[H])(C([H])([H])[H])C([H])([H])C3(C(F)(F)F)C([H])([H])C([H])([H])[N+]([H])(C([H])(C([H])([H])[H])C([H])([H])C([H])([H])C([H])([H])C([H])([H])N([H])C(=O)N4C([H])([H])C([H])([H])C([H])([H])C([H])(n5nc(-c6c([H])c([H])c(Oc7c([H])c([H])c(F)c([H])c7F)c([H])c6[H])c(C(=O)N([H])[H])c5N([H])[H])C4([H])[H])C([H])([H])C3([H])[H])c([H])c([H])c2C1([H])[H]

>  <smiles>  (58) 
[H]c1c([H])c([H])c2c(c1[H])C([H])([H])C([H])([H])C([H])([H])C2([H])N([H])C(=O)C1([H])N(C(=O)C([H])(N([H])C(=O)C([H])(N([H])C([H])([H])[H])C([H])([H])[H])C(C([H])([H])[H])(C([H])([H])[H])C([H])([H])[H])C([H])([H])c2c([H])c(OC([H])([H])C([H])([H])C([H])(C([H])([H])[H])C(C([H])([H])[H])(C([H])([H])[H])C([H])([H])C3(C(F)(F)F)C([H])([H])C([H])([H])[N+]([H])(C([H])(C([H])([H])[H])C([H])([H])C([H])([H])C([H])([H])C([H])([H])N([H])C(=O)N4C([H])([H])C([H])([H])C([H])([H])C([H])(n5nc(-c6c([H])c([H])c(Oc7c([H])c([H])c(F)c([H])c7F)c([H])c6[H])c(C(=O)N([H])[H])c5N([H])[H])C4([H])[H])C([H])([H])C3([H])[H])c([H])c([H])c2C1([H])[H]

$$$$
58:0:0
     RDKit          3D

 91 99  0  0  1  0  0  0  0  0999 V2000
  -28.3840  -19.6420   20.2460 C   0  0  0  0  0  3  0  0  0  0  0  0
  -29.4180  -20.5850   20.0030 C   0  0  0  0  0  0  0  0  0  0  0  0
  -28.5760  -18.2220   20.3780 C   0  0  0  0  0  0  0  0  0  0  0  0
  -30.7130  -19.9570   19.9710 C   0  0  0  0  0  0  0  0  0  0  0  0
  -30.9230  -18.5100   20.1110 C   0  0  0  0  0  0  0  0  0  0  0  0
  -29.8440  -17.5530   20.2470 C   0  0  0  0  0  0  0  0  0  0  0  0
  -27.3060  -17.4410   20.6620 C   0  0  0  0  0  1  0  0  0  0  0  0
  -31.9200  -20.8640   19.7520 C   0  0  0  0  0  1  0  0  0  0  0  0
  -32.3480  -17.9770   20.1370 C   0  0  0  0  0  1  0  0  0  0  0  0
  -30.6250  -14.9230   19.8180 C   0  0  0  0  0  0  0  0  0  0  0  0
  -30.3560  -12.6660   18.7220 C   0  0  0  0  0  2  0  0  0  0  0  0
  -29.3110  -12.7720   17.5870 C   0  0  0  0  0  2  0  0  0  0  0  0
  -27.8820  -12.5670   18.1310 C   0  0  0  0  0  2  0  0  0  0  0  0
  -27.6170  -13.3870   19.4220 C   0  0  0  0  0  3  0  0  0  0  0  0
  -28.7760  -13.2600   20.4370 C   0  0  0  0  0  2  0  0  0  0  0  0
  -30.0110  -13.6780   19.7570 N   0  0  0  0  0  0  0  0  0  0  0  0
  -31.7620  -15.0190   19.3490 O   0  0  0  0  0  0  0  0  0  0  0  0
  -29.8740  -16.0220   20.2870 N   0  0  0  0  0  0  0  0  0  0  0  0
  -29.0170  -15.6600   20.6750 H   0  0  0  0  0  0  0  0  0  0  0  0
  -25.3040  -13.9310   20.3860 C   0  0  0  0  0  0  0  0  0  0  0  0
  -24.2780  -13.1470   20.8330 C   0  0  0  0  0  0  0  0  0  0  0  0
  -24.7330  -11.8000   20.7000 C   0  0  0  0  0  0  0  0  0  0  0  0
  -26.3230  -13.0680   20.0210 N   0  0  0  0  0  0  0  0  0  0  0  0
  -25.9920  -11.7750   20.2710 N   0  0  0  0  0  0  0  0  0  0  0  0
  -24.0180  -10.5350   20.9030 C   0  0  0  0  0  0  0  0  0  0  0  0
  -24.4820   -9.5610   21.8130 C   0  0  0  0  0  3  0  0  0  0  0  0
  -23.7650   -8.3620   22.0040 C   0  0  0  0  0  3  0  0  0  0  0  0
  -22.5670   -8.1290   21.2860 C   0  0  0  0  0  0  0  0  0  0  0  0
  -22.1220   -9.0900   20.3630 C   0  0  0  0  0  3  0  0  0  0  0  0
  -22.8400  -10.2820   20.1700 C   0  0  0  0  0  3  0  0  0  0  0  0
  -21.8180   -6.9810   21.3890 O   0  0  0  0  0  0  0  0  0  0  0  0
  -21.7510   -6.2680   22.5590 C   0  0  0  0  0  0  0  0  0  0  0  0
  -21.2450   -6.8330   23.7500 C   0  0  0  0  0  3  0  0  0  0  0  0
  -21.1290   -6.0450   24.9110 C   0  0  0  0  0  3  0  0  0  0  0  0
  -21.5120   -4.6890   24.8820 C   0  0  0  0  0  0  0  0  0  0  0  0
  -22.0070   -4.1220   23.6950 C   0  0  0  0  0  3  0  0  0  0  0  0
  -22.1240   -4.9090   22.5360 C   0  0  0  0  0  0  0  0  0  0  0  0
  -22.5860   -4.3520   21.3900 F   0  0  0  0  0  0  0  0  0  0  0  0
  -21.3920   -3.9280   25.9940 F   0  0  0  0  0  0  0  0  0  0  0  0
  -22.9170  -13.6210   21.2480 C   0  0  0  0  0  0  0  0  0  0  0  0
  -22.2660  -12.9020   22.1550 N   0  0  0  0  0  0  0  0  0  0  0  0
  -22.4410  -14.6660   20.8030 O   0  0  0  0  0  0  0  0  0  0  0  0
  -22.6660  -12.0590   22.5410 H   0  0  0  0  0  0  0  0  0  0  0  0
  -21.3530  -13.2030   22.4680 H   0  0  0  0  0  0  0  0  0  0  0  0
  -25.4340  -15.3020   20.2290 N   0  0  0  0  0  0  0  0  0  0  0  0
  -24.6660  -15.9330   20.4370 H   0  0  0  0  0  0  0  0  0  0  0  0
  -26.2100  -15.7550   19.7670 H   0  0  0  0  0  0  0  0  0  0  0  0
  -29.0520  -22.1130   19.5460 C   0  0  0  0  0  2  0  0  0  0  0  0
  -29.1020  -23.5290   20.3960 C   0  0  0  0  0  3  0  0  0  0  0  0
  -28.4010  -24.8880   19.7590 C   0  0  0  0  0  3  0  0  0  0  0  0
  -28.4260  -26.3140   20.3240 O   0  0  0  0  0  0  0  0  0  0  0  0
  -24.5490  -31.8210   23.1910 C   0  0  0  0  0  0  0  0  0  0  0  0
  -27.3230  -27.2210   20.2080 C   0  0  0  0  0  0  0  0  0  0  0  0
  -23.4200  -30.4030   21.5190 C   0  0  0  0  0  3  0  0  0  0  0  0
  -24.9390  -28.8700   20.1290 C   0  0  0  0  0  0  0  0  0  0  0  0
  -25.9680  -30.7340   21.4220 C   0  0  0  0  0  2  0  0  0  0  0  0
  -26.0860  -29.3490   20.7730 C   0  0  0  0  0  0  0  0  0  0  0  0
  -27.2740  -28.5380   20.8040 C   0  0  0  0  0  3  0  0  0  0  0  0
  -26.1530  -26.8400   19.5090 C   0  0  0  0  0  3  0  0  0  0  0  0
  -24.9820  -27.6250   19.4860 C   0  0  0  0  0  3  0  0  0  0  0  0
  -23.6900  -29.7320   20.1440 C   0  0  0  0  0  2  0  0  0  0  0  0
  -24.6630  -31.0080   22.0970 N   0  0  0  0  0  0  0  0  0  0  0  0
  -23.4450  -32.0830   23.6910 O   0  0  0  0  0  0  0  0  0  0  0  0
  -22.7400  -29.3790   22.4610 C   0  0  0  0  0  0  0  0  0  0  0  0
  -21.4230  -29.1710   22.2870 N   0  0  0  0  0  0  0  0  0  0  0  0
  -23.4010  -28.7740   23.3110 O   0  0  0  0  0  0  0  0  0  0  0  0
  -20.9490  -29.7120   21.5780 H   0  0  0  0  0  0  0  0  0  0  0  0
  -18.0540  -27.9040   22.6920 C   0  0  0  0  0  0  0  0  0  0  0  0
  -20.5990  -28.2170   23.0330 C   0  0  0  0  0  3  0  0  0  0  0  0
  -20.7460  -26.7890   22.4610 C   0  0  0  0  0  2  0  0  0  0  0  0
  -19.6790  -26.4450   21.4150 C   0  0  0  0  0  2  0  0  0  0  0  0
  -18.2760  -26.5600   22.0180 C   0  0  0  0  0  2  0  0  0  0  0  0
  -19.1450  -28.6890   23.1540 C   0  0  0  0  0  0  0  0  0  0  0  0
  -18.8820  -29.9440   23.7430 C   0  0  0  0  0  3  0  0  0  0  0  0
  -17.5630  -30.4190   23.8700 C   0  0  0  0  0  3  0  0  0  0  0  0
  -16.4870  -29.6320   23.4230 C   0  0  0  0  0  3  0  0  0  0  0  0
  -16.7340  -28.3760   22.8410 C   0  0  0  0  0  3  0  0  0  0  0  0
  -25.7990  -32.4770   23.8530 C   0  0  0  0  0  3  0  0  0  0  0  0
  -26.2780  -31.7250   25.1550 C   0  0  1  0  0  0  0  0  0  0  0  0
  -25.1470  -31.4710   26.1800 C   0  0  0  0  0  1  0  0  0  0  0  0
  -26.9050  -30.3560   24.8030 C   0  0  0  0  0  1  0  0  0  0  0  0
  -27.3850  -32.5470   25.8570 C   0  0  0  0  0  1  0  0  0  0  0  0
  -25.4580  -33.8740   24.1630 N   0  0  0  0  0  0  0  0  0  0  0  0
  -25.7750  -34.9260   23.3960 C   0  0  0  0  0  0  0  0  0  0  0  0
  -26.4550  -34.8250   22.3720 O   0  0  0  0  0  0  0  0  0  0  0  0
  -24.8520  -34.0230   24.9560 H   0  0  0  0  0  0  0  0  0  0  0  0
  -24.0060  -36.6770   23.0230 C   0  0  0  0  0  1  0  0  0  0  0  0
  -25.2580  -36.3100   23.8360 C   0  0  0  0  0  3  0  0  0  0  0  0
  -27.3660  -37.2650   24.6570 C   0  0  0  0  0  1  0  0  0  0  0  0
  -26.2660  -37.3850   23.7040 N   0  0  0  0  0  0  0  0  0  0  0  0
  -25.8370  -38.2990   23.8270 H   0  0  0  0  0  0  0  0  0  0  0  0
  1  3  1  0
  2  1  2  0
  3  7  1  0
  4  2  1  0
  4  5  2  0
  5  9  1  0
  5  6  1  0
  6 18  1  0
  6  3  2  0
  8  4  1  0
 10 18  1  0
 11 16  1  0
 12 13  1  0
 12 11  1  0
 14 13  1  0
 14 23  1  0
 14 15  1  0
 16 10  1  0
 16 15  1  0
 17 10  2  0
 18 19  1  0
 20 21  2  0
 21 40  1  0
 22 21  1  0
 22 25  1  0
 23 24  1  0
 23 20  1  0
 24 22  2  0
 25 26  1  0
 26 27  2  0
 28 31  1  0
 28 27  1  0
 29 28  2  0
 30 29  1  0
 30 25  2  0
 31 32  1  0
 32 33  1  0
 33 34  2  0
 35 34  1  0
 35 39  1  0
 36 35  2  0
 37 32  2  0
 37 36  1  0
 38 37  1  0
 40 41  1  0
 41 44  1  0
 41 43  1  0
 42 40  2  0
 45 20  1  0
 45 46  1  0
 47 45  1  0
 48  2  1  0
 48 49  1  0
 50 51  1  0
 50 49  2  0
 52 63  2  0
 53 51  1  0
 53 58  1  0
 54 62  1  0
 54 64  1  0
 55 61  1  0
 55 57  1  0
 56 62  1  0
 57 58  2  0
 57 56  1  0
 59 53  2  0
 60 59  1  0
 60 55  2  0
 61 54  1  0
 62 52  1  0
 64 66  2  0
 65 64  1  0
 67 65  1  0
 68 77  2  0
 68 73  1  0
 69 65  1  0
 69 73  1  0
 70 69  1  0
 71 72  1  0
 71 70  1  0
 72 68  1  0
 73 74  2  0
 74 75  1  0
 76 75  2  0
 77 76  1  0
 78 52  1  0
 78 83  1  0
 78 79  1  0
 79 82  1  1
 79 80  1  0
 81 79  1  0
 83 86  1  0
 84 88  1  0
 84 83  1  0
 85 84  2  0
 88 87  1  0
 90 91  1  0
 90 88  1  0
 90 89  1  0
M  ISO  4  10 100  18 100  50 101  51 101
M  END
>  <TORSDO>  (59) 
F 19

>  <SCORE>  (59) 
-13.672

>  <name>  (59) 
58

>  <ligand_id>  (59) 
58

>  <original_smiles>  (59) 
[H]c1c([H])c([H])c2c(c1[H])C([H])([H])C([H])([H])C([H])([H])C2([H])N([H])C(=O)C1([H])N(C(=O)C([H])(N([H])C(=O)C([H])(N([H])C([H])([H])[H])C([H])([H])[H])C(C([H])([H])[H])(C([H])([H])[H])C([H])([H])[H])C([H])([H])c2c([H])c(OC([H])([H])C([H])([H])C([H])([H])c3c([H])c(C([H])([H])[H])c(N([H])C(=O)N4C([H])([H])C([H])([H])C([H])([H])C([H])(n5nc(-c6c([H])c([H])c(Oc7c([H])c([H])c(F)c([H])c7F)c([H])c6[H])c(C(=O)N([H])[H])c5N([H])[H])C4([H])[H])c(C([H])([H])[H])c3C([H])([H])[H])c([H])c([H])c2C1([H])[H]

>  <smiles>  (59) 
[H]c1c([H])c([H])c2c(c1[H])C([H])([H])C([H])([H])C([H])([H])C2([H])N([H])C(=O)C1([H])N(C(=O)C([H])(N([H])C(=O)C([H])(N([H])C([H])([H])[H])C([H])([H])[H])C(C([H])([H])[H])(C([H])([H])[H])C([H])([H])[H])C([H])([H])c2c([H])c(OC([H])([H])C([H])([H])C([H])([H])c3c([H])c(C([H])([H])[H])c(N([H])C(=O)N4C([H])([H])C([H])([H])C([H])([H])C([H])(n5nc(-c6c([H])c([H])c(Oc7c([H])c([H])c(F)c([H])c7F)c([H])c6[H])c(C(=O)N([H])[H])c5N([H])[H])C4([H])[H])c(C([H])([H])[H])c3C([H])([H])[H])c([H])c([H])c2C1([H])[H]

$$$$
59:0:0
     RDKit          3D

 94 97  0  0  1  0  0  0  0  0999 V2000
  -24.9440  -24.3980   21.0420 C   0  0  0  0  0  3  0  0  0  0  0  0
  -24.6990  -24.4700   19.0290 C   0  0  0  0  0  0  0  0  0  0  0  0
  -26.1890  -21.8810   19.8320 C   0  0  0  0  0  3  0  0  0  0  0  0
  -24.2980  -25.5760   20.1460 C   0  0  0  0  0  3  0  0  0  0  0  0
  -25.5110  -23.0140   18.9110 C   0  0  0  0  0  0  0  0  0  0  0  0
  -25.6960  -22.9230   20.9380 C   0  0  0  0  0  0  0  0  0  0  0  0
  -24.3600  -24.9740   17.6340 C   0  0  0  0  0  1  0  0  0  0  0  0
  -25.7300  -22.7050   17.6070 F   0  0  0  0  0  0  0  0  0  0  0  0
  -26.1260  -22.3580   22.5180 Cl  0  0  0  0  0  0  0  0  0  0  0  0
  -23.4150  -28.1210   19.1040 C   0  0  0  0  0  1  0  0  0  0  0  0
  -23.9860  -27.4920   20.2970 N   0  0  0  0  0  1  0  0  0  0  0  0
  -25.4270  -28.7160   22.5020 C   0  0  0  0  0  2  0  0  0  0  0  0
  -26.8290  -27.9350   23.1680 C   0  0  0  0  0  2  0  0  0  0  0  0
  -28.3170  -28.1980   22.5260 C   0  0  0  0  0  2  0  0  0  0  0  0
  -28.7980  -27.5880   21.2380 O   0  0  0  0  0  0  0  0  0  0  0  0
  -24.3250  -31.8310   23.0680 C   0  0  0  0  0  0  0  0  0  0  0  0
  -28.3390  -28.1290   20.0400 C   0  0  0  0  0  3  0  0  0  0  0  0
  -23.3660  -29.4100   22.0680 C   0  0  0  0  0  2  0  0  0  0  0  0
  -26.2060  -27.5550   21.0400 C   0  0  0  0  0  2  0  0  0  0  0  0
  -25.3910  -30.6590   20.7230 C   0  0  0  0  0  2  0  0  0  0  0  0
  -26.2970  -29.1190   20.3420 C   0  0  0  0  0  3  0  0  0  0  0  0
  -27.6310  -29.3150   20.1580 C   0  0  0  0  0  2  0  0  0  0  0  0
  -27.6110  -27.1830   19.3050 C   0  0  0  0  0  2  0  0  0  0  0  0
  -26.7720  -26.6760   20.2000 C   0  0  0  0  0  2  0  0  0  0  0  0
  -24.2240  -27.4250   22.5430 C   0  0  0  0  0  1  0  0  0  0  0  0
  -24.2600  -30.8750   21.9390 N   0  0  0  0  0  0  0  0  0  0  0  0
  -23.2770  -32.1960   23.6290 O   0  0  0  0  0  0  0  0  0  0  0  0
  -22.4030  -29.4900   23.0740 C   0  0  0  0  0  0  0  0  0  0  0  0
  -21.1540  -29.4110   22.6610 N   0  0  0  0  0  0  0  0  0  0  0  0
  -22.8350  -29.2970   24.1920 O   0  0  0  0  0  0  0  0  0  0  0  0
  -20.9410  -29.6180   21.6950 H   0  0  0  0  0  0  0  0  0  0  0  0
  -17.8640  -28.1790   22.8820 C   0  0  0  0  0  0  0  0  0  0  0  0
  -20.3400  -28.4380   23.3130 C   0  0  0  0  0  3  0  0  0  0  0  0
  -20.5260  -27.0440   22.6590 C   0  0  0  0  0  2  0  0  0  0  0  0
  -19.4910  -26.7450   21.5840 C   0  0  0  0  0  2  0  0  0  0  0  0
  -18.0970  -26.8380   22.1990 C   0  0  0  0  0  2  0  0  0  0  0  0
  -18.9360  -28.9530   23.3660 C   0  0  0  0  0  0  0  0  0  0  0  0
  -18.7110  -30.2300   23.9240 C   0  0  0  0  0  3  0  0  0  0  0  0
  -17.4060  -30.7320   24.0180 C   0  0  0  0  0  3  0  0  0  0  0  0
  -16.3280  -29.9490   23.5680 C   0  0  0  0  0  3  0  0  0  0  0  0
  -16.5570  -28.6800   23.0050 C   0  0  0  0  0  3  0  0  0  0  0  0
  -25.5850  -32.5610   23.8360 C   0  0  0  0  0  3  0  0  0  0  0  0
  -25.2950  -34.0150   24.0780 N   0  0  0  0  0  0  0  0  0  0  0  0
  -25.8740  -35.0880   23.5050 C   0  0  0  0  0  0  0  0  0  0  0  0
  -26.7070  -34.9670   22.6050 O   0  0  0  0  0  0  0  0  0  0  0  0
  -24.5440  -34.1950   24.7280 H   0  0  0  0  0  0  0  0  0  0  0  0
  -24.2040  -36.9450   23.0980 C   0  0  0  0  0  1  0  0  0  0  0  0
  -25.4200  -36.5120   23.9380 C   0  0  0  0  0  3  0  0  0  0  0  0
  -27.5380  -37.4080   24.8200 C   0  0  0  0  0  1  0  0  0  0  0  0
  -26.4700  -37.5620   23.8360 N   0  0  0  0  0  0  0  0  0  0  0  0
  -26.0690  -38.4890   23.9460 H   0  0  0  0  0  0  0  0  0  0  0  0
  -25.9970  -32.0370   25.3220 C   0  0  1  0  0  0  0  0  0  0  0  0
  -24.7960  -31.6680   26.2260 C   0  0  0  0  0  1  0  0  0  0  0  0
  -26.8290  -30.7980   25.2160 C   0  0  0  0  0  1  0  0  0  0  0  0
  -26.8760  -33.0170   26.1560 C   0  0  0  0  0  1  0  0  0  0  0  0
  -27.4870  -20.0650   19.6010 C   0  0  0  0  0 15  0  0  0  0  0  0
  -29.2330  -16.6250   19.5960 C   0  0  0  0  0  0  0  0  0  0  0  0
  -30.0870  -13.9450   18.8600 C   0  0  0  0  0  2  0  0  0  0  0  0
  -29.3430  -12.9900   17.8440 C   0  0  0  0  0  2  0  0  0  0  0  0
  -28.1030  -12.3490   18.4750 C   0  0  0  0  0  2  0  0  0  0  0  0
  -27.4620  -13.3920   19.4030 C   0  0  0  0  0  3  0  0  0  0  0  0
  -28.4180  -14.0770   20.3970 C   0  0  0  0  0  2  0  0  0  0  0  0
  -29.1710  -15.0580   19.5710 N   0  0  0  0  0  0  0  0  0  0  0  0
  -30.5020  -16.6360   19.4040 O   0  0  0  0  0  0  0  0  0  0  0  0
  -28.1010  -18.0250   19.6820 N   0  0  0  0  0  2  0  0  0  0  0  0
  -27.2300  -17.5440   19.8610 H   0  0  0  0  0  0  0  0  0  0  0  0
  -25.2600  -13.8540   20.4650 C   0  0  0  0  0  0  0  0  0  0  0  0
  -24.2540  -13.0580   20.9140 C   0  0  0  0  0  0  0  0  0  0  0  0
  -24.7150  -11.7140   20.7580 C   0  0  0  0  0  0  0  0  0  0  0  0
  -26.2490  -12.9930   20.0510 N   0  0  0  0  0  0  0  0  0  0  0  0
  -25.9600  -11.6930   20.2930 N   0  0  0  0  0  0  0  0  0  0  0  0
  -24.0090  -10.4470   20.9540 C   0  0  0  0  0  0  0  0  0  0  0  0
  -24.4620   -9.4860   21.8830 C   0  0  0  0  0  3  0  0  0  0  0  0
  -23.7470   -8.2830   22.0700 C   0  0  0  0  0  3  0  0  0  0  0  0
  -22.5650   -8.0380   21.3310 C   0  0  0  0  0  0  0  0  0  0  0  0
  -22.1330   -8.9900   20.3910 C   0  0  0  0  0  3  0  0  0  0  0  0
  -22.8480  -10.1820   20.2010 C   0  0  0  0  0  3  0  0  0  0  0  0
  -21.8190   -6.8890   21.4280 O   0  0  0  0  0  0  0  0  0  0  0  0
  -21.6930   -6.2130   22.6150 C   0  0  0  0  0  0  0  0  0  0  0  0
  -21.1090   -6.8100   23.7540 C   0  0  0  0  0  3  0  0  0  0  0  0
  -20.9360   -6.0570   24.9310 C   0  0  0  0  0  3  0  0  0  0  0  0
  -21.3380   -4.7080   24.9710 C   0  0  0  0  0  0  0  0  0  0  0  0
  -21.9170   -4.1120   23.8360 C   0  0  0  0  0  3  0  0  0  0  0  0
  -22.0910   -4.8630   22.6600 C   0  0  0  0  0  0  0  0  0  0  0  0
  -22.6290   -4.2780   21.5630 F   0  0  0  0  0  0  0  0  0  0  0  0
  -21.1650   -3.9810   26.0990 F   0  0  0  0  0  0  0  0  0  0  0  0
  -22.9000  -13.5300   21.3430 C   0  0  0  0  0  0  0  0  0  0  0  0
  -22.2650  -12.8100   22.2570 N   0  0  0  0  0  0  0  0  0  0  0  0
  -22.4240  -14.5770   20.9070 O   0  0  0  0  0  0  0  0  0  0  0  0
  -22.6620  -11.9620   22.6340 H   0  0  0  0  0  0  0  0  0  0  0  0
  -21.3610  -13.1170   22.5900 H   0  0  0  0  0  0  0  0  0  0  0  0
  -25.4160  -15.2310   20.3330 N   0  0  0  0  0  0  0  0  0  0  0  0
  -24.6660  -15.8800   20.5450 H   0  0  0  0  0  0  0  0  0  0  0  0
  -26.1750  -15.6420   19.8120 H   0  0  0  0  0  0  0  0  0  0  0  0
  2  4  1  0
  3  6  2  0
  4  1  2  0
  5  2  2  0
  5  3  1  0
  6  1  1  0
  6  9  1  0
  7  2  1  0
  8  5  1  0
 10 11  1  0
 12 25  1  0
 12 13  1  0
 14 13  1  0
 15 14  1  0
 16 27  2  0
 17 22  1  0
 17 15  1  0
 18 28  1  0
 20 26  1  0
 21 20  1  0
 21 19  1  0
 22 21  1  0
 23 17  1  0
 23 24  1  0
 24 19  1  0
 26 18  1  0
 26 16  1  0
 28 30  2  0
 29 28  1  0
 31 29  1  0
 32 41  2  0
 32 37  1  0
 33 29  1  0
 33 37  1  0
 34 33  1  0
 35 36  1  0
 35 34  1  0
 36 32  1  0
 37 38  2  0
 38 39  1  0
 40 39  2  0
 41 40  1  0
 42 16  1  0
 42 43  1  0
 42 52  1  0
 43 46  1  0
 44 48  1  0
 44 43  1  0
 45 44  2  0
 48 47  1  0
 50 48  1  0
 50 51  1  0
 50 49  1  0
 52 55  1  1
 52 53  1  0
 54 52  1  0
 57 65  1  0
 58 63  1  0
 59 60  1  0
 59 58  1  0
 61 60  1  0
 61 70  1  0
 61 62  1  0
 63 57  1  0
 63 62  1  0
 64 57  2  0
 65 66  1  0
 67 68  2  0
 68 87  1  0
 69 68  1  0
 69 72  1  0
 70 71  1  0
 70 67  1  0
 71 69  2  0
 72 73  1  0
 73 74  2  0
 75 78  1  0
 75 74  1  0
 76 75  2  0
 77 76  1  0
 77 72  2  0
 78 79  1  0
 79 84  2  0
 79 80  1  0
 80 81  2  0
 81 82  1  0
 82 86  1  0
 83 82  2  0
 84 83  1  0
 85 84  1  0
 87 88  1  0
 88 91  1  0
 88 90  1  0
 89 87  2  0
 92 67  1  0
 92 93  1  0
 94 92  1  0
M  ISO  4  14 101  15 101  57 100  65 100
M  END
>  <TORSDO>  (60) 
F 21

>  <SCORE>  (60) 
-11.004

>  <name>  (60) 
59

>  <ligand_id>  (60) 
59

>  <original_smiles>  (60) 
[H]c1c([H])c([H])c2c(c1[H])C([H])([H])C([H])([H])C([H])([H])C2([H])N([H])C(=O)C1([H])N(C(=O)C([H])(N([H])C(=O)C([H])(N([H])C([H])([H])[H])C([H])([H])[H])C(C([H])([H])[H])(C([H])([H])[H])C([H])([H])[H])C([H])([H])c2c([H])c(OC([H])([H])C([H])([H])C([H])([H])N(c3c([H])c(Cl)c(C([H])([H])N([H])C(=O)N4C([H])([H])C([H])([H])C([H])([H])C([H])(n5nc(-c6c([H])c([H])c(Oc7c([H])c([H])c(F)c([H])c7F)c([H])c6[H])c(C(=O)N([H])[H])c5N([H])[H])C4([H])[H])c(F)c3C([H])([H])[H])C([H])([H])[H])c([H])c([H])c2C1([H])[H]

>  <smiles>  (60) 
[H]c1c([H])c([H])c2c(c1[H])C([H])([H])C([H])([H])C([H])([H])C2([H])N([H])C(=O)C1([H])N(C(=O)C([H])(N([H])C(=O)C([H])(N([H])C([H])([H])[H])C([H])([H])[H])C(C([H])([H])[H])(C([H])([H])[H])C([H])([H])[H])C([H])([H])c2c([H])c(OC([H])([H])C([H])([H])C([H])([H])N(c3c([H])c(Cl)c(C([H])([H])N([H])C(=O)N4C([H])([H])C([H])([H])C([H])([H])C([H])(n5nc(-c6c([H])c([H])c(Oc7c([H])c([H])c(F)c([H])c7F)c([H])c6[H])c(C(=O)N([H])[H])c5N([H])[H])C4([H])[H])c(F)c3C([H])([H])[H])C([H])([H])[H])c([H])c([H])c2C1([H])[H]

$$$$
60:0:0
     RDKit          3D

 99108  0  0  1  0  0  0  0  0999 V2000
  -31.4940  -23.4630   19.9610 C   0  0  0  0  0  3  0  0  0  0  0  0
  -30.7990  -24.6890   19.8920 C   0  0  0  0  0  0  0  0  0  0  0  0
  -31.0160  -22.3200   19.2900 C   0  0  0  0  0  0  0  0  0  0  0  0
  -29.5910  -24.7900   19.1470 C   0  0  0  0  0  0  0  0  0  0  0  0
  -29.0710  -23.6170   18.5260 C   0  0  0  0  0  0  0  0  0  0  0  0
  -29.7960  -22.3980   18.5840 C   0  0  0  0  0  0  0  0  0  0  0  0
  -31.3910  -25.8880   20.6210 C   0  0  0  0  0  1  0  0  0  0  0  0
  -27.7430  -23.6470   17.7740 C   0  0  0  0  0  1  0  0  0  0  0  0
  -29.2100  -20.9810   17.7740 Cl  0  0  0  0  0  0  0  0  0  0  0  0
  -31.8550  -21.0400   19.2630 C   0  0  0  0  0  2  0  0  0  0  0  0
  -30.4090  -17.5660   19.5710 C   0  0  0  0  0  2  0  0  0  0  0  0
  -30.9560  -17.5480   22.1490 C   0  0  0  0  0  2  0  0  0  0  0  0
  -31.5710  -18.5790   19.4490 C   0  0  0  0  0  2  0  0  0  0  0  0
  -31.5860  -19.9860   21.4870 C   0  0  0  0  0  2  0  0  0  0  0  0
  -30.7170  -19.0640   22.3770 C   0  0  0  0  0  3  0  0  0  0  0  0
  -30.1340  -16.9680   20.9790 C   0  0  0  0  0  3  0  0  0  0  0  0
  -30.9420  -19.4170   23.8570 C   0  0  0  0  0  1  0  0  0  0  0  0
  -31.2580  -19.9120   20.0400 N   0  0  1  0  0  4  0  0  0  0  0  0
  -30.2650  -20.0530   19.9340 H   0  0  0  0  0  0  0  0  0  0  0  0
  -30.8100  -14.5120   20.5610 C   0  0  0  0  0  0  0  0  0  0  0  0
  -30.5450  -12.3700   19.3650 C   0  0  0  0  0  2  0  0  0  0  0  0
  -29.6220  -12.6140   18.1500 C   0  0  0  0  0  2  0  0  0  0  0  0
  -28.1370  -12.4920   18.5490 C   0  0  0  0  0  2  0  0  0  0  0  0
  -27.7890  -13.3090   19.8210 C   0  0  0  0  0  3  0  0  0  0  0  0
  -28.8160  -13.0200   20.9420 C   0  0  0  0  0  2  0  0  0  0  0  0
  -30.1600  -13.3240   20.4130 N   0  0  0  0  0  0  0  0  0  0  0  0
  -31.9470  -14.7230   20.1300 O   0  0  0  0  0  0  0  0  0  0  0  0
  -30.0200  -15.4970   21.0290 N   0  0  0  0  0  0  0  0  0  0  0  0
  -29.1270  -15.1580   21.3530 H   0  0  0  0  0  0  0  0  0  0  0  0
  -25.3770  -13.9610   20.4490 C   0  0  0  0  0  0  0  0  0  0  0  0
  -24.2890  -13.2090   20.8020 C   0  0  0  0  0  0  0  0  0  0  0  0
  -24.7320  -11.8510   20.8020 C   0  0  0  0  0  0  0  0  0  0  0  0
  -26.4170  -13.0630   20.2620 N   0  0  0  0  0  0  0  0  0  0  0  0
  -26.0290  -11.7900   20.5300 N   0  0  0  0  0  0  0  0  0  0  0  0
  -23.9850  -10.6020   20.9920 C   0  0  0  0  0  0  0  0  0  0  0  0
  -24.3830   -9.6460   21.9540 C   0  0  0  0  0  3  0  0  0  0  0  0
  -23.6430   -8.4570   22.1300 C   0  0  0  0  0  3  0  0  0  0  0  0
  -22.4890   -8.2170   21.3450 C   0  0  0  0  0  0  0  0  0  0  0  0
  -22.1120   -9.1610   20.3750 C   0  0  0  0  0  3  0  0  0  0  0  0
  -22.8520  -10.3420   20.1960 C   0  0  0  0  0  3  0  0  0  0  0  0
  -21.7190   -7.0830   21.4340 O   0  0  0  0  0  0  0  0  0  0  0  0
  -21.6240   -6.3660   22.6000 C   0  0  0  0  0  0  0  0  0  0  0  0
  -21.1540   -6.9500   23.7970 C   0  0  0  0  0  3  0  0  0  0  0  0
  -21.0050   -6.1590   24.9540 C   0  0  0  0  0  3  0  0  0  0  0  0
  -21.3140   -4.7850   24.9140 C   0  0  0  0  0  0  0  0  0  0  0  0
  -21.7760   -4.2010   23.7200 C   0  0  0  0  0  3  0  0  0  0  0  0
  -21.9280   -4.9900   22.5670 C   0  0  0  0  0  0  0  0  0  0  0  0
  -22.3530   -4.4190   21.4140 F   0  0  0  0  0  0  0  0  0  0  0  0
  -21.1630   -4.0230   26.0220 F   0  0  0  0  0  0  0  0  0  0  0  0
  -22.8910  -13.7080   21.0310 C   0  0  0  0  0  0  0  0  0  0  0  0
  -22.1320  -13.0370   21.8920 N   0  0  0  0  0  0  0  0  0  0  0  0
  -22.4790  -14.7300   20.4830 O   0  0  0  0  0  0  0  0  0  0  0  0
  -22.4740  -12.2110   22.3600 H   0  0  0  0  0  0  0  0  0  0  0  0
  -21.1930  -13.3550   22.0840 H   0  0  0  0  0  0  0  0  0  0  0  0
  -25.5670  -15.3260   20.2530 N   0  0  0  0  0  0  0  0  0  0  0  0
  -24.8050  -15.9890   20.3250 H   0  0  0  0  0  0  0  0  0  0  0  0
  -26.4300  -15.7450   19.9290 H   0  0  0  0  0  0  0  0  0  0  0  0
  -28.9060  -26.1600   18.9730 C   0  0  0  0  0  2  0  0  0  0  0  0
  -28.3850  -26.6850   20.1910 O   0  0  0  0  0  0  0  0  0  0  0  0
  -24.6030  -31.8620   23.2290 C   0  0  0  0  0  0  0  0  0  0  0  0
  -27.2170  -27.4140   20.1460 C   0  0  0  0  0  0  0  0  0  0  0  0
  -23.3790  -30.4630   21.5960 C   0  0  0  0  0  3  0  0  0  0  0  0
  -24.8200  -28.9150   20.1690 C   0  0  0  0  0  0  0  0  0  0  0  0
  -25.9040  -30.8080   21.3870 C   0  0  0  0  0  2  0  0  0  0  0  0
  -25.9790  -29.4360   20.7570 C   0  0  0  0  0  0  0  0  0  0  0  0
  -27.1740  -28.6850   20.7600 C   0  0  0  0  0  3  0  0  0  0  0  0
  -26.0360  -26.8990   19.5680 C   0  0  0  0  0  3  0  0  0  0  0  0
  -24.8410  -27.6430   19.5760 C   0  0  0  0  0  3  0  0  0  0  0  0
  -23.5780  -29.7770   20.2170 C   0  0  0  0  0  2  0  0  0  0  0  0
  -24.6470  -31.0590   22.1290 N   0  0  0  0  0  0  0  0  0  0  0  0
  -23.5270  -32.1420   23.7750 O   0  0  0  0  0  0  0  0  0  0  0  0
  -22.7280  -29.4480   22.5630 C   0  0  0  0  0  0  0  0  0  0  0  0
  -21.4050  -29.2600   22.4290 N   0  0  0  0  0  0  0  0  0  0  0  0
  -23.4100  -28.8330   23.3860 O   0  0  0  0  0  0  0  0  0  0  0  0
  -20.9180  -29.8060   21.7330 H   0  0  0  0  0  0  0  0  0  0  0  0
  -18.0360  -28.0420   22.8900 C   0  0  0  0  0  0  0  0  0  0  0  0
  -20.5850  -28.3290   23.2050 C   0  0  0  0  0  3  0  0  0  0  0  0
  -20.7140  -26.8890   22.6600 C   0  0  0  0  0  2  0  0  0  0  0  0
  -19.6340  -26.5370   21.6310 C   0  0  0  0  0  2  0  0  0  0  0  0
  -18.2390  -26.6810   22.2460 C   0  0  0  0  0  2  0  0  0  0  0  0
  -19.1400  -28.8220   23.3270 C   0  0  0  0  0  0  0  0  0  0  0  0
  -18.8990  -30.0960   23.8870 C   0  0  0  0  0  3  0  0  0  0  0  0
  -17.5870  -30.5880   24.0180 C   0  0  0  0  0  3  0  0  0  0  0  0
  -16.4970  -29.8040   23.6000 C   0  0  0  0  0  3  0  0  0  0  0  0
  -16.7220  -28.5340   23.0420 C   0  0  0  0  0  3  0  0  0  0  0  0
  -25.8970  -32.4840   23.8390 C   0  0  0  0  0  3  0  0  0  0  0  0
  -26.4300  -31.7000   25.1010 C   0  0  1  0  0  0  0  0  0  0  0  0
  -25.3510  -31.4550   26.1820 C   0  0  0  0  0  1  0  0  0  0  0  0
  -27.0040  -30.3250   24.6850 C   0  0  0  0  0  1  0  0  0  0  0  0
  -27.5890  -32.4870   25.7560 C   0  0  0  0  0  1  0  0  0  0  0  0
  -25.5960  -33.8800   24.1830 N   0  0  0  0  0  0  0  0  0  0  0  0
  -25.9150  -34.9360   23.4240 C   0  0  0  0  0  0  0  0  0  0  0  0
  -26.5690  -34.8390   22.3810 O   0  0  0  0  0  0  0  0  0  0  0  0
  -25.0140  -34.0290   24.9940 H   0  0  0  0  0  0  0  0  0  0  0  0
  -24.1780  -36.7260   23.1090 C   0  0  0  0  0  1  0  0  0  0  0  0
  -25.4340  -36.3200   23.8970 C   0  0  0  0  0  3  0  0  0  0  0  0
  -27.5810  -37.2030   24.6960 C   0  0  0  0  0  1  0  0  0  0  0  0
  -26.4610  -37.3760   23.7750 N   0  0  0  0  0  0  0  0  0  0  0  0
  -26.0550  -38.2940   23.9370 H   0  0  0  0  0  0  0  0  0  0  0  0
  2  1  1  0
  2  7  1  0
  3  1  2  0
  4  2  2  0
  5  6  2  0
  5  4  1  0
  6  3  1  0
  8  5  1  0
  9  6  1  0
 10  3  1  0
 10 18  1  0
 11 16  1  0
 12 15  1  0
 13 11  1  0
 13 18  1  0
 14 15  1  0
 15 17  1  0
 16 28  1  0
 16 12  1  0
 18 14  1  0
 18 19  1  1
 20 28  1  0
 21 26  1  0
 22 23  1  0
 22 21  1  0
 24 23  1  0
 24 33  1  0
 24 25  1  0
 26 20  1  0
 26 25  1  0
 27 20  2  0
 28 29  1  0
 30 31  2  0
 31 50  1  0
 32 31  1  0
 32 35  1  0
 33 30  1  0
 33 34  1  0
 34 32  2  0
 35 36  1  0
 36 37  2  0
 38 41  1  0
 38 37  1  0
 39 38  2  0
 40 39  1  0
 40 35  2  0
 41 42  1  0
 42 43  1  0
 43 44  2  0
 45 44  1  0
 45 49  1  0
 46 45  2  0
 47 42  2  0
 47 46  1  0
 48 47  1  0
 50 51  1  0
 51 54  1  0
 51 53  1  0
 52 50  2  0
 55 56  1  0
 55 30  1  0
 57 55  1  0
 58  4  1  0
 58 59  1  0
 60 71  2  0
 61 59  1  0
 61 66  1  0
 62 70  1  0
 62 72  1  0
 63 69  1  0
 63 65  1  0
 64 70  1  0
 65 66  2  0
 65 64  1  0
 67 68  1  0
 67 61  2  0
 68 63  2  0
 69 62  1  0
 70 60  1  0
 72 74  2  0
 73 72  1  0
 75 73  1  0
 76 85  2  0
 76 81  1  0
 77 73  1  0
 77 81  1  0
 78 77  1  0
 79 80  1  0
 79 78  1  0
 80 76  1  0
 81 82  2  0
 82 83  1  0
 84 83  2  0
 85 84  1  0
 86 60  1  0
 86 91  1  0
 86 87  1  0
 87 90  1  1
 87 88  1  0
 89 87  1  0
 91 94  1  0
 92 96  1  0
 92 91  1  0
 93 92  2  0
 96 95  1  0
 98 96  1  0
 98 99  1  0
 98 97  1  0
M  ISO  4  20 100  28 100  58 101  59 101
M  END
>  <TORSDO>  (61) 
F 19

>  <SCORE>  (61) 
-14.199

>  <name>  (61) 
60

>  <ligand_id>  (61) 
60

>  <original_smiles>  (61) 
[H]c1c([H])c([H])c2c(c1[H])C([H])([H])C([H])([H])C([H])([H])C2([H])N([H])C(=O)C1([H])N(C(=O)C([H])(N([H])C(=O)C([H])(N([H])C([H])([H])[H])C([H])([H])[H])C(C([H])([H])[H])(C([H])([H])[H])C([H])([H])[H])C([H])([H])c2c([H])c(OC([H])([H])c3c(C([H])([H])[H])c([H])c(C([H])([H])[N+]4([H])C([H])([H])C([H])([H])C([H])(N([H])C(=O)N5C([H])([H])C([H])([H])C([H])([H])C([H])(n6nc(-c7c([H])c([H])c(Oc8c([H])c([H])c(F)c([H])c8F)c([H])c7[H])c(C(=O)N([H])[H])c6N([H])[H])C5([H])[H])C([H])([H])C([H])(C([H])([H])[H])C4([H])[H])c(Cl)c3C([H])([H])[H])c([H])c([H])c2C1([H])[H]

>  <smiles>  (61) 
[H]c1c([H])c([H])c2c(c1[H])C([H])([H])C([H])([H])C([H])([H])C2([H])N([H])C(=O)C1([H])N(C(=O)C([H])(N([H])C(=O)C([H])(N([H])C([H])([H])[H])C([H])([H])[H])C(C([H])([H])[H])(C([H])([H])[H])C([H])([H])[H])C([H])([H])c2c([H])c(OC([H])([H])c3c(C([H])([H])[H])c([H])c(C([H])([H])[N+]4([H])C([H])([H])C([H])([H])C([H])(N([H])C(=O)N5C([H])([H])C([H])([H])C([H])([H])C([H])(n6nc(-c7c([H])c([H])c(Oc8c([H])c([H])c(F)c([H])c8F)c([H])c7[H])c(C(=O)N([H])[H])c6N([H])[H])C5([H])[H])C([H])([H])C([H])(C([H])([H])[H])C4([H])[H])c(Cl)c3C([H])([H])[H])c([H])c([H])c2C1([H])[H]

$$$$
61:0:0
     RDKit          3D

 94102  0  0  1  0  0  0  0  0999 V2000
  -31.3110  -19.1490   22.2840 C   0  0  0  0  0  3  0  0  0  0  0  0
  -31.0790  -19.0230   20.8990 C   0  0  0  0  0  0  0  0  0  0  0  0
  -31.0550  -18.0720   23.1570 C   0  0  0  0  0  0  0  0  0  0  0  0
  -30.3550  -16.7090   21.2490 C   0  0  0  0  0  0  0  0  0  0  0  0
  -30.5980  -17.7990   20.3790 C   0  0  0  0  0  0  0  0  0  0  0  0
  -30.5650  -16.8530   22.6380 C   0  0  0  0  0  0  0  0  0  0  0  0
  -31.3000  -18.2390   24.6460 C   0  0  0  0  0  1  0  0  0  0  0  0
  -30.3280  -17.6910   19.0550 F   0  0  0  0  0  0  0  0  0  0  0  0
  -30.2170  -15.5310   23.7050 Cl  0  0  0  0  0  0  0  0  0  0  0  0
  -30.2410  -14.7570   19.7440 C   0  0  0  0  0  0  0  0  0  0  0  0
  -29.8910  -12.6610   18.4830 C   0  0  0  0  0  2  0  0  0  0  0  0
  -28.8280  -12.8480   17.3830 C   0  0  0  0  0  2  0  0  0  0  0  0
  -27.4110  -12.6270   17.9450 C   0  0  0  0  0  2  0  0  0  0  0  0
  -27.1580  -13.4260   19.2490 C   0  0  0  0  0  3  0  0  0  0  0  0
  -28.3140  -13.2080   20.2490 C   0  0  0  0  0  2  0  0  0  0  0  0
  -29.5790  -13.5810   19.5850 N   0  0  0  0  0  0  0  0  0  0  0  0
  -31.1880  -15.1060   19.0300 O   0  0  0  0  0  0  0  0  0  0  0  0
  -29.8090  -15.4890   20.7770 N   0  0  0  0  0  0  0  0  0  0  0  0
  -29.1540  -15.0300   21.3890 H   0  0  0  0  0  0  0  0  0  0  0  0
  -24.8030  -13.9200   20.1720 C   0  0  0  0  0  0  0  0  0  0  0  0
  -23.8080  -13.0950   20.6270 C   0  0  0  0  0  0  0  0  0  0  0  0
  -24.3260  -11.7670   20.5380 C   0  0  0  0  0  0  0  0  0  0  0  0
  -25.8630  -13.0890   19.8390 N   0  0  0  0  0  0  0  0  0  0  0  0
  -25.5820  -11.7900   20.1140 N   0  0  0  0  0  0  0  0  0  0  0  0
  -23.6780  -10.4710   20.7790 C   0  0  0  0  0  0  0  0  0  0  0  0
  -24.1380   -9.5910   21.7840 C   0  0  0  0  0  3  0  0  0  0  0  0
  -23.4890   -8.3590   22.0070 C   0  0  0  0  0  3  0  0  0  0  0  0
  -22.3660   -7.9960   21.2270 C   0  0  0  0  0  0  0  0  0  0  0  0
  -21.9260   -8.8660   20.2140 C   0  0  0  0  0  3  0  0  0  0  0  0
  -22.5760  -10.0900   19.9880 C   0  0  0  0  0  3  0  0  0  0  0  0
  -21.6880   -6.8080   21.3560 O   0  0  0  0  0  0  0  0  0  0  0  0
  -21.5140   -6.2080   22.5770 C   0  0  0  0  0  0  0  0  0  0  0  0
  -20.8660   -6.8650   23.6460 C   0  0  0  0  0  3  0  0  0  0  0  0
  -20.6450   -6.1870   24.8610 C   0  0  0  0  0  3  0  0  0  0  0  0
  -21.0630   -4.8510   25.0080 C   0  0  0  0  0  0  0  0  0  0  0  0
  -21.7050   -4.1920   23.9430 C   0  0  0  0  0  3  0  0  0  0  0  0
  -21.9270   -4.8690   22.7310 C   0  0  0  0  0  0  0  0  0  0  0  0
  -22.5250   -4.2220   21.7010 F   0  0  0  0  0  0  0  0  0  0  0  0
  -20.8460   -4.1950   26.1720 F   0  0  0  0  0  0  0  0  0  0  0  0
  -22.4220  -13.5050   21.0320 C   0  0  0  0  0  0  0  0  0  0  0  0
  -21.8270  -12.7960   21.9860 N   0  0  0  0  0  0  0  0  0  0  0  0
  -21.8750  -14.4900   20.5380 O   0  0  0  0  0  0  0  0  0  0  0  0
  -22.2840  -11.9990   22.4050 H   0  0  0  0  0  0  0  0  0  0  0  0
  -20.9020  -13.0540   22.3010 H   0  0  0  0  0  0  0  0  0  0  0  0
  -24.8890  -15.2970   19.9980 N   0  0  0  0  0  0  0  0  0  0  0  0
  -24.1080  -15.9170   20.1840 H   0  0  0  0  0  0  0  0  0  0  0  0
  -25.6950  -15.7790   19.6190 H   0  0  0  0  0  0  0  0  0  0  0  0
  -31.3300  -20.2240   19.9960 C   0  0  0  0  0  2  0  0  0  0  0  0
  -30.0540  -21.0500   19.7460 C   0  0  0  0  0  2  0  0  0  0  0  0
  -30.3270  -22.4570   19.1790 C   0  0  0  0  0  2  0  0  0  0  0  0
  -29.0260  -23.2180   18.8670 C   0  0  0  0  0  2  0  0  0  0  0  0
  -29.2080  -24.7350   18.6500 C   0  0  0  0  0  2  0  0  0  0  0  0
  -27.8670  -25.4190   18.3360 C   0  0  0  0  0  2  0  0  0  0  0  0
  -27.9100  -26.8280   18.5760 O   0  0  0  0  0  0  0  0  0  0  0  0
  -24.1950  -31.1100   22.8740 C   0  0  0  0  0  0  0  0  0  0  0  0
  -26.6980  -27.4480   18.8090 C   0  0  0  0  0  0  0  0  0  0  0  0
  -22.8850  -29.9330   21.1380 C   0  0  0  0  0  3  0  0  0  0  0  0
  -24.2450  -28.7630   19.3290 C   0  0  0  0  0  0  0  0  0  0  0  0
  -25.3530  -30.4890   20.7560 C   0  0  0  0  0  2  0  0  0  0  0  0
  -25.4340  -29.2570   19.8790 C   0  0  0  0  0  0  0  0  0  0  0  0
  -26.6620  -28.6090   19.6150 C   0  0  0  0  0  3  0  0  0  0  0  0
  -25.4830  -26.9670   18.2630 C   0  0  0  0  0  3  0  0  0  0  0  0
  -24.2640  -27.6160   18.5200 C   0  0  0  0  0  3  0  0  0  0  0  0
  -22.9730  -29.5150   19.6470 C   0  0  0  0  0  2  0  0  0  0  0  0
  -24.1690  -30.5160   21.6480 N   0  0  0  0  0  0  0  0  0  0  0  0
  -23.1680  -31.2140   23.5590 O   0  0  0  0  0  0  0  0  0  0  0  0
  -22.3910  -28.7220   21.9610 C   0  0  0  0  0  0  0  0  0  0  0  0
  -21.0880  -28.4160   21.8510 N   0  0  0  0  0  0  0  0  0  0  0  0
  -23.1750  -28.0660   22.6530 O   0  0  0  0  0  0  0  0  0  0  0  0
  -20.5110  -29.0090   21.2700 H   0  0  0  0  0  0  0  0  0  0  0  0
  -17.8970  -26.7640   22.2160 C   0  0  0  0  0  0  0  0  0  0  0  0
  -20.4090  -27.2970   22.5040 C   0  0  0  0  0  3  0  0  0  0  0  0
  -20.6720  -25.9720   21.7520 C   0  0  0  0  0  2  0  0  0  0  0  0
  -19.5950  -25.6440   20.7120 C   0  0  0  0  0  2  0  0  0  0  0  0
  -18.2210  -25.5400   21.3770 C   0  0  0  0  0  2  0  0  0  0  0  0
  -18.9240  -27.5970   22.7320 C   0  0  0  0  0  0  0  0  0  0  0  0
  -18.5670  -28.7430   23.4760 C   0  0  0  0  0  3  0  0  0  0  0  0
  -17.2150  -29.0580   23.7100 C   0  0  0  0  0  3  0  0  0  0  0  0
  -16.2030  -28.2200   23.2120 C   0  0  0  0  0  3  0  0  0  0  0  0
  -16.5440  -27.0740   22.4710 C   0  0  0  0  0  3  0  0  0  0  0  0
  -25.5100  -31.7060   23.4660 C   0  0  0  0  0  3  0  0  0  0  0  0
  -25.2150  -33.0750   23.9090 N   0  0  0  0  0  0  0  0  0  0  0  0
  -25.5040  -34.1790   23.2070 C   0  0  0  0  0  0  0  0  0  0  0  0
  -26.1200  -34.1520   22.1390 O   0  0  0  0  0  0  0  0  0  0  0  0
  -24.6650  -33.1690   24.7500 H   0  0  0  0  0  0  0  0  0  0  0  0
  -23.7620  -35.9850   23.0490 C   0  0  0  0  0  1  0  0  0  0  0  0
  -25.0320  -35.5280   23.7830 C   0  0  0  0  0  3  0  0  0  0  0  0
  -27.1910  -36.3600   24.6050 C   0  0  0  0  0  1  0  0  0  0  0  0
  -26.0590  -36.5900   23.7110 N   0  0  0  0  0  0  0  0  0  0  0  0
  -25.6570  -37.4960   23.9350 H   0  0  0  0  0  0  0  0  0  0  0  0
  -26.1020  -30.8510   24.6530 C   0  0  1  0  0  0  0  0  0  0  0  0
  -25.0620  -30.4900   25.7380 C   0  0  0  0  0  1  0  0  0  0  0  0
  -26.7090  -29.5310   24.1210 C   0  0  0  0  0  1  0  0  0  0  0  0
  -27.2550  -31.6250   25.3340 C   0  0  0  0  0  1  0  0  0  0  0  0
  1  3  1  0
  2  1  2  0
  3  7  1  0
  4  6  1  0
  5  2  1  0
  5  4  2  0
  6  3  2  0
  6  9  1  0
  8  5  1  0
 10 18  1  0
 11 16  1  0
 12 13  1  0
 12 11  1  0
 14 13  1  0
 14 23  1  0
 14 15  1  0
 16 10  1  0
 16 15  1  0
 17 10  2  0
 18  4  1  0
 18 19  1  0
 20 21  2  0
 21 40  1  0
 22 21  1  0
 22 25  1  0
 23 24  1  0
 23 20  1  0
 24 22  2  0
 25 26  1  0
 26 27  2  0
 28 31  1  0
 28 27  1  0
 29 28  2  0
 30 29  1  0
 30 25  2  0
 31 32  1  0
 32 37  2  0
 32 33  1  0
 33 34  2  0
 34 35  1  0
 35 39  1  0
 36 35  2  0
 37 36  1  0
 38 37  1  0
 40 41  1  0
 41 44  1  0
 41 43  1  0
 42 40  2  0
 45 20  1  0
 45 46  1  0
 47 45  1  0
 48  2  1  0
 49 48  1  0
 50 49  1  0
 51 50  1  0
 52 51  1  0
 53 54  1  0
 53 52  1  0
 54 56  1  0
 55 66  2  0
 56 61  1  0
 57 65  1  0
 57 67  1  0
 58 64  1  0
 58 60  1  0
 59 65  1  0
 60 59  1  0
 61 60  2  0
 62 63  1  0
 62 56  2  0
 63 58  2  0
 64 57  1  0
 65 55  1  0
 67 69  2  0
 68 67  1  0
 70 68  1  0
 71 80  2  0
 71 76  1  0
 72 68  1  0
 72 76  1  0
 73 72  1  0
 74 75  1  0
 74 73  1  0
 75 71  1  0
 76 77  2  0
 77 78  1  0
 79 78  2  0
 80 79  1  0
 81 55  1  0
 81 82  1  0
 81 91  1  0
 82 85  1  0
 83 87  1  0
 83 82  1  0
 84 83  2  0
 87 86  1  0
 89 87  1  0
 89 90  1  0
 89 88  1  0
 91 94  1  1
 91 92  1  0
 93 91  1  0
M  ISO  4  10 100  18 100  53 101  54 101
M  END
>  <TORSDO>  (62) 
F 22

>  <SCORE>  (62) 
-3.566

>  <name>  (62) 
61

>  <ligand_id>  (62) 
61

>  <original_smiles>  (62) 
[H]c1c([H])c([H])c2c(c1[H])C([H])([H])C([H])([H])C([H])([H])C2([H])N([H])C(=O)C1([H])N(C(=O)C([H])(N([H])C(=O)C([H])(N([H])C([H])([H])[H])C([H])([H])[H])C(C([H])([H])[H])(C([H])([H])[H])C([H])([H])[H])C([H])([H])c2c([H])c(OC([H])([H])C([H])([H])C([H])([H])C([H])([H])C([H])([H])C([H])([H])c3c([H])c(C([H])([H])[H])c(Cl)c(N([H])C(=O)N4C([H])([H])C([H])([H])C([H])([H])C([H])(n5nc(-c6c([H])c([H])c(Oc7c([H])c([H])c(F)c([H])c7F)c([H])c6[H])c(C(=O)N([H])[H])c5N([H])[H])C4([H])[H])c3F)c([H])c([H])c2C1([H])[H]

>  <smiles>  (62) 
[H]c1c([H])c([H])c2c(c1[H])C([H])([H])C([H])([H])C([H])([H])C2([H])N([H])C(=O)C1([H])N(C(=O)C([H])(N([H])C(=O)C([H])(N([H])C([H])([H])[H])C([H])([H])[H])C(C([H])([H])[H])(C([H])([H])[H])C([H])([H])[H])C([H])([H])c2c([H])c(OC([H])([H])C([H])([H])C([H])([H])C([H])([H])C([H])([H])C([H])([H])c3c([H])c(C([H])([H])[H])c(Cl)c(N([H])C(=O)N4C([H])([H])C([H])([H])C([H])([H])C([H])(n5nc(-c6c([H])c([H])c(Oc7c([H])c([H])c(F)c([H])c7F)c([H])c6[H])c(C(=O)N([H])[H])c5N([H])[H])C4([H])[H])c3F)c([H])c([H])c2C1([H])[H]

$$$$
62:0:0
     RDKit          3D

103111  0  0  1  0  0  0  0  0999 V2000
  -28.6520  -24.1110   25.9440 C   0  0  0  0  0  3  0  0  0  0  0  0
  -28.7690  -26.0840   24.5290 C   0  0  0  0  0  3  0  0  0  0  0  0
  -28.3030  -25.4550   25.7010 C   0  0  0  0  0  0  0  0  0  0  0  0
  -29.8380  -23.9990   23.7970 C   0  0  0  0  0  0  0  0  0  0  0  0
  -29.4270  -23.3910   25.0140 C   0  0  0  0  0  0  0  0  0  0  0  0
  -29.5140  -25.3600   23.5800 C   0  0  0  0  0  0  0  0  0  0  0  0
  -29.7590  -22.1140   25.3190 F   0  0  0  0  0  0  0  0  0  0  0  0
  -30.0180  -26.1680   22.1340 Cl  0  0  0  0  0  0  0  0  0  0  0  0
  -30.5640  -23.3410   22.7860 N   0  0  0  0  0  0  0  0  0  0  0  0
  -31.1000  -23.9670   22.1910 H   0  0  0  0  0  0  0  0  0  0  0  0
  -30.1540  -22.0790   22.1780 C   0  0  0  0  0  2  0  0  0  0  0  0
  -29.1240  -22.2390   21.0400 C   0  0  0  0  0  2  0  0  0  0  0  0
  -27.7460  -22.7570   21.4860 C   0  0  0  0  0  2  0  0  0  0  0  0
  -26.7900  -22.9900   20.3100 C   0  0  0  0  0  2  0  0  0  0  0  0
  -25.3930  -23.4440   20.7650 C   0  0  0  0  0  2  0  0  0  0  0  0
  -24.4660  -23.7120   19.5740 C   0  0  0  0  0  2  0  0  0  0  0  0
  -23.0020  -23.9540   19.9750 C   0  0  0  0  0  2  0  0  0  0  0  0
  -22.1200  -24.1010   18.7280 C   0  0  0  0  0  2  0  0  0  0  0  0
  -20.6060  -24.1340   19.0170 C   0  0  0  0  0  2  0  0  0  0  0  0
  -19.7690  -24.2420   17.7310 C   0  0  0  0  0  0  0  0  0  0  0  0
  -17.5660  -24.3210   16.6220 C   0  0  0  0  0  2  0  0  0  0  0  0
  -16.9470  -25.7230   16.7660 C   0  0  0  0  0  2  0  0  0  0  0  0
  -16.1610  -25.8330   18.0860 C   0  0  0  0  0  2  0  0  0  0  0  0
  -16.9820  -25.3500   19.3100 C   0  0  0  0  0  3  0  0  0  0  0  0
  -17.6380  -23.9780   19.0310 C   0  0  0  0  0  2  0  0  0  0  0  0
  -18.4230  -24.0880   17.7920 N   0  0  0  0  0  0  0  0  0  0  0  0
  -20.3520  -24.4870   16.6690 O   0  0  0  0  0  0  0  0  0  0  0  0
  -16.3180  -26.0250   21.7060 C   0  0  0  0  0  0  0  0  0  0  0  0
  -15.2460  -25.6890   22.4870 C   0  0  0  0  0  0  0  0  0  0  0  0
  -14.4640  -24.7790   21.7110 C   0  0  0  0  0  0  0  0  0  0  0  0
  -16.1630  -25.3220   20.5210 N   0  0  0  0  0  0  0  0  0  0  0  0
  -15.0610  -24.5290   20.5540 N   0  0  0  0  0  0  0  0  0  0  0  0
  -13.1530  -24.1750   21.9840 C   0  0  0  0  0  0  0  0  0  0  0  0
  -12.9530  -22.7790   21.9020 C   0  0  0  0  0  3  0  0  0  0  0  0
  -11.6880  -22.2200   22.1850 C   0  0  0  0  0  3  0  0  0  0  0  0
  -10.6090  -23.0560   22.5560 C   0  0  0  0  0  0  0  0  0  0  0  0
  -10.8070  -24.4470   22.6110 C   0  0  0  0  0  3  0  0  0  0  0  0
  -12.0650  -25.0020   22.3250 C   0  0  0  0  0  3  0  0  0  0  0  0
   -9.3390  -22.6040   22.8220 O   0  0  0  0  0  0  0  0  0  0  0  0
   -9.1090  -21.3340   23.2860 C   0  0  0  0  0  0  0  0  0  0  0  0
   -9.7260  -20.8470   24.4590 C   0  0  0  0  0  3  0  0  0  0  0  0
   -9.4090  -19.5600   24.9390 C   0  0  0  0  0  3  0  0  0  0  0  0
   -8.4700  -18.7640   24.2550 C   0  0  0  0  0  0  0  0  0  0  0  0
   -7.8520  -19.2490   23.0890 C   0  0  0  0  0  3  0  0  0  0  0  0
   -8.1680  -20.5330   22.6080 C   0  0  0  0  0  0  0  0  0  0  0  0
   -7.5540  -21.0040   21.4970 F   0  0  0  0  0  0  0  0  0  0  0  0
   -8.1600  -17.5310   24.7190 F   0  0  0  0  0  0  0  0  0  0  0  0
  -14.9100  -26.2530   23.8380 C   0  0  0  0  0  0  0  0  0  0  0  0
  -14.2750  -25.4580   24.6930 N   0  0  0  0  0  0  0  0  0  0  0  0
  -15.2560  -27.3880   24.1610 O   0  0  0  0  0  0  0  0  0  0  0  0
  -14.0100  -24.5190   24.4340 H   0  0  0  0  0  0  0  0  0  0  0  0
  -14.0510  -25.7930   25.6190 H   0  0  0  0  0  0  0  0  0  0  0  0
  -17.4000  -26.8810   21.8960 N   0  0  0  0  0  0  0  0  0  0  0  0
  -17.5030  -27.4450   22.7330 H   0  0  0  0  0  0  0  0  0  0  0  0
  -18.1210  -27.0590   21.2070 H   0  0  0  0  0  0  0  0  0  0  0  0
  -27.4470  -26.2170   26.7020 C   0  0  0  0  0  2  0  0  0  0  0  0
  -26.0010  -26.0970   26.4140 N   0  0  0  0  0  4  0  0  0  0  0  0
  -25.5370  -26.3290   27.2790 H   0  0  0  0  0  0  0  0  0  0  0  0
  -25.7650  -25.1410   26.2090 H   0  0  0  0  0  0  0  0  0  0  0  0
  -25.4580  -27.0200   25.3900 C   0  0  0  0  0  2  0  0  0  0  0  0
  -24.9330  -26.3140   24.1200 C   0  0  0  0  0  2  0  0  0  0  0  0
  -24.4850  -27.2760   23.0020 C   0  0  0  0  0  2  0  0  0  0  0  0
  -23.5810  -28.2770   23.4770 O   0  0  0  0  0  0  0  0  0  0  0  0
  -28.9880  -32.6580   25.0710 C   0  0  0  0  0  0  0  0  0  0  0  0
  -24.0900  -29.2970   24.2480 C   0  0  0  0  0  0  0  0  0  0  0  0
  -27.1420  -32.5600   26.7170 C   0  0  0  0  0  3  0  0  0  0  0  0
  -25.0330  -31.3560   25.9380 C   0  0  0  0  0  0  0  0  0  0  0  0
  -26.7110  -32.1030   24.2390 C   0  0  0  0  0  2  0  0  0  0  0  0
  -25.5960  -31.1760   24.6690 C   0  0  0  0  0  0  0  0  0  0  0  0
  -25.1300  -30.1530   23.8190 C   0  0  0  0  0  3  0  0  0  0  0  0
  -23.5200  -29.4990   25.5220 C   0  0  0  0  0  3  0  0  0  0  0  0
  -23.9910  -30.5180   26.3730 C   0  0  0  0  0  3  0  0  0  0  0  0
  -25.5920  -32.4820   26.7780 C   0  0  0  0  0  2  0  0  0  0  0  0
  -27.6690  -32.4230   25.3200 N   0  0  0  0  0  0  0  0  0  0  0  0
  -29.7510  -33.0330   25.9710 O   0  0  0  0  0  0  0  0  0  0  0  0
  -27.7250  -31.5190   27.6970 C   0  0  0  0  0  0  0  0  0  0  0  0
  -27.8450  -31.9060   28.9770 N   0  0  0  0  0  0  0  0  0  0  0  0
  -28.0310  -30.3870   27.3100 O   0  0  0  0  0  0  0  0  0  0  0  0
  -27.5780  -32.8510   29.2130 H   0  0  0  0  0  0  0  0  0  0  0  0
  -28.7160  -31.9660   32.4810 C   0  0  0  0  0  0  0  0  0  0  0  0
  -28.3350  -31.0840   30.0820 C   0  0  0  0  0  3  0  0  0  0  0  0
  -27.2000  -30.2270   30.6870 C   0  0  0  0  0  2  0  0  0  0  0  0
  -26.5040  -30.9000   31.8760 C   0  0  0  0  0  2  0  0  0  0  0  0
  -27.5110  -31.1940   32.9910 C   0  0  0  0  0  2  0  0  0  0  0  0
  -29.0940  -31.9260   31.1130 C   0  0  0  0  0  0  0  0  0  0  0  0
  -30.2030  -32.6870   30.6880 C   0  0  0  0  0  3  0  0  0  0  0  0
  -30.9320  -33.4720   31.6020 C   0  0  0  0  0  3  0  0  0  0  0  0
  -30.5610  -33.4970   32.9580 C   0  0  0  0  0  3  0  0  0  0  0  0
  -29.4580  -32.7420   33.3950 C   0  0  0  0  0  3  0  0  0  0  0  0
  -29.5940  -32.4990   23.6410 C   0  0  0  0  0  3  0  0  0  0  0  0
  -30.5530  -33.5940   23.4430 N   0  0  0  0  0  0  0  0  0  0  0  0
  -30.2800  -34.7380   22.7990 C   0  0  0  0  0  0  0  0  0  0  0  0
  -29.2010  -34.9480   22.2360 O   0  0  0  0  0  0  0  0  0  0  0  0
  -31.4420  -33.5070   23.9110 H   0  0  0  0  0  0  0  0  0  0  0  0
  -31.0780  -36.8850   23.8360 C   0  0  0  0  0  1  0  0  0  0  0  0
  -31.3790  -35.8170   22.7720 C   0  0  0  0  0  3  0  0  0  0  0  0
  -32.0760  -35.5660   20.4320 C   0  0  0  0  0  1  0  0  0  0  0  0
  -31.5400  -36.4620   21.4520 N   0  0  0  0  0  0  0  0  0  0  0  0
  -32.1570  -37.2670   21.5170 H   0  0  0  0  0  0  0  0  0  0  0  0
  -30.2880  -31.0990   23.4110 C   0  0  1  0  0  0  0  0  0  0  0  0
  -31.2870  -30.7070   24.5230 C   0  0  0  0  0  1  0  0  0  0  0  0
  -29.2320  -29.9730   23.3090 C   0  0  0  0  0  1  0  0  0  0  0  0
  -31.0570  -31.1100   22.0680 C   0  0  0  0  0  1  0  0  0  0  0  0
  2  3  2  0
  3  1  1  0
  3 56  1  0
  4  5  1  0
  5  7  1  0
  5  1  2  0
  6  4  2  0
  6  2  1  0
  8  6  1  0
  9  4  1  0
 10  9  1  0
 11  9  1  0
 12 13  1  0
 12 11  1  0
 14 15  1  0
 14 13  1  0
 16 17  1  0
 16 15  1  0
 18 19  1  0
 18 17  1  0
 20 26  1  0
 20 19  1  0
 21 22  1  0
 21 26  1  0
 22 23  1  0
 24 23  1  0
 24 31  1  0
 25 24  1  0
 26 25  1  0
 27 20  2  0
 28 53  1  0
 28 29  2  0
 29 48  1  0
 30 33  1  0
 30 29  1  0
 31 32  1  0
 31 28  1  0
 32 30  2  0
 33 38  1  0
 34 33  2  0
 34 35  1  0
 35 36  2  0
 36 37  1  0
 36 39  1  0
 38 37  2  0
 39 40  1  0
 40 41  1  0
 41 42  2  0
 43 47  1  0
 43 42  1  0
 44 43  2  0
 45 44  1  0
 45 40  2  0
 46 45  1  0
 48 50  2  0
 48 49  1  0
 49 52  1  0
 51 49  1  0
 53 54  1  0
 55 53  1  0
 57 56  1  0
 57 58  1  0
 59 57  1  0
 60 57  1  0
 61 60  1  0
 62 63  1  0
 62 61  1  0
 63 65  1  0
 64 74  1  0
 64 75  2  0
 65 71  1  0
 66 73  1  0
 66 76  1  0
 67 72  1  0
 67 73  1  0
 68 69  1  0
 68 74  1  0
 69 67  2  0
 70 65  2  0
 70 69  1  0
 71 72  2  0
 74 66  1  0
 76 77  1  0
 77 79  1  0
 78 76  2  0
 80 84  1  0
 80 89  1  0
 81 77  1  0
 81 82  1  0
 81 85  1  0
 82 83  1  0
 83 84  1  0
 85 80  2  0
 86 85  1  0
 86 87  2  0
 87 88  1  0
 88 89  2  0
 90 64  1  0
 91 90  1  0
 91 94  1  0
 92 91  1  0
 93 92  2  0
 96 92  1  0
 96 95  1  0
 97 98  1  0
 98 99  1  0
 98 96  1  0
100 90  1  0
100101  1  1
102100  1  0
103100  1  0
M  ISO  4  19 100  20 100  62 101  63 101
M  END
>  <TORSDO>  (63) 
F 31

>  <SCORE>  (63) 
0.392

>  <name>  (63) 
62

>  <ligand_id>  (63) 
62

>  <original_smiles>  (63) 
[H]c1c([H])c([H])c2c(c1[H])C([H])([H])C([H])([H])C([H])([H])C2([H])N([H])C(=O)C1([H])N(C(=O)C([H])(N([H])C(=O)C([H])(N([H])C([H])([H])[H])C([H])([H])[H])C(C([H])([H])[H])(C([H])([H])[H])C([H])([H])[H])C([H])([H])c2c([H])c(OC([H])([H])C([H])([H])C([H])([H])[N+]([H])([H])C([H])([H])c3c([H])c(F)c(N([H])C([H])([H])C([H])([H])C([H])([H])C([H])([H])C([H])([H])C([H])([H])C([H])([H])C([H])([H])C([H])([H])C(=O)N4C([H])([H])C([H])([H])C([H])([H])C([H])(n5nc(-c6c([H])c([H])c(Oc7c([H])c([H])c(F)c([H])c7F)c([H])c6[H])c(C(=O)N([H])[H])c5N([H])[H])C4([H])[H])c(Cl)c3[H])c([H])c([H])c2C1([H])[H]

>  <smiles>  (63) 
[H]c1c([H])c([H])c2c(c1[H])C([H])([H])C([H])([H])C([H])([H])C2([H])N([H])C(=O)C1([H])N(C(=O)C([H])(N([H])C(=O)C([H])(N([H])C([H])([H])[H])C([H])([H])[H])C(C([H])([H])[H])(C([H])([H])[H])C([H])([H])[H])C([H])([H])c2c([H])c(OC([H])([H])C([H])([H])C([H])([H])[N+]([H])([H])C([H])([H])c3c([H])c(F)c(N([H])C([H])([H])C([H])([H])C([H])([H])C([H])([H])C([H])([H])C([H])([H])C([H])([H])C([H])([H])C([H])([H])C(=O)N4C([H])([H])C([H])([H])C([H])([H])C([H])(n5nc(-c6c([H])c([H])c(Oc7c([H])c([H])c(F)c([H])c7F)c([H])c6[H])c(C(=O)N([H])[H])c5N([H])[H])C4([H])[H])c(Cl)c3[H])c([H])c([H])c2C1([H])[H]

$$$$
63:0:0
     RDKit          3D

 94102  0  0  1  0  0  0  0  0999 V2000
  -30.3820  -18.3170   19.9060 C   0  0  0  0  0  3  0  0  0  0  0  0
  -30.2360  -19.7630   19.8650 C   0  0  0  0  0  0  0  0  0  0  0  0
  -29.2600  -20.5030   20.6350 C   0  0  0  0  0  0  0  0  0  0  0  0
  -28.4040  -19.6220   21.3950 C   0  0  0  0  0  0  0  0  0  0  0  0
  -28.5520  -18.1650   21.4130 C   0  0  0  0  0  0  0  0  0  0  0  0
  -29.5730  -17.4430   20.6940 C   0  0  0  0  0  0  0  0  0  0  0  0
  -27.5810  -17.3470   22.2710 C   0  0  0  0  0  1  0  0  0  0  0  0
  -30.5140  -14.8640   20.4530 C   0  0  0  0  0  0  0  0  0  0  0  0
  -30.4530  -12.5320   19.4870 C   0  0  0  0  0  2  0  0  0  0  0  0
  -29.5240  -12.5280   18.2500 C   0  0  0  0  0  2  0  0  0  0  0  0
  -28.0510  -12.3270   18.6610 C   0  0  0  0  0  2  0  0  0  0  0  0
  -27.6420  -13.2320   19.8530 C   0  0  0  0  0  3  0  0  0  0  0  0
  -28.6840  -13.1720   20.9890 C   0  0  0  0  0  2  0  0  0  0  0  0
  -29.9740  -13.5870   20.4160 N   0  0  0  0  0  0  0  0  0  0  0  0
  -31.6910  -15.0210   20.1050 O   0  0  0  0  0  0  0  0  0  0  0  0
  -29.6410  -15.9250   20.7550 N   0  0  0  0  0  0  0  0  0  0  0  0
  -28.7780  -15.5360   21.0990 H   0  0  0  0  0  0  0  0  0  0  0  0
  -25.2480  -13.8170   20.5650 C   0  0  0  0  0  0  0  0  0  0  0  0
  -24.1790  -13.0420   20.9210 C   0  0  0  0  0  0  0  0  0  0  0  0
  -24.6400  -11.6910   20.8770 C   0  0  0  0  0  0  0  0  0  0  0  0
  -26.2930  -12.9390   20.3270 N   0  0  0  0  0  0  0  0  0  0  0  0
  -25.9330  -11.6530   20.5750 N   0  0  0  0  0  0  0  0  0  0  0  0
  -23.9070  -10.4280   21.0420 C   0  0  0  0  0  0  0  0  0  0  0  0
  -24.3620   -9.4190   21.9190 C   0  0  0  0  0  3  0  0  0  0  0  0
  -23.6290   -8.2230   22.0750 C   0  0  0  0  0  3  0  0  0  0  0  0
  -22.4270   -8.0270   21.3540 C   0  0  0  0  0  0  0  0  0  0  0  0
  -21.9910   -9.0250   20.4640 C   0  0  0  0  0  3  0  0  0  0  0  0
  -22.7240  -10.2130   20.3050 C   0  0  0  0  0  3  0  0  0  0  0  0
  -21.6630   -6.8870   21.4240 O   0  0  0  0  0  0  0  0  0  0  0  0
  -21.6850   -6.0720   22.5280 C   0  0  0  0  0  0  0  0  0  0  0  0
  -21.4010   -6.5630   23.8210 C   0  0  0  0  0  3  0  0  0  0  0  0
  -21.3660   -5.6780   24.9170 C   0  0  0  0  0  3  0  0  0  0  0  0
  -21.6050   -4.3050   24.7230 C   0  0  0  0  0  0  0  0  0  0  0  0
  -21.8820   -3.8140   23.4340 C   0  0  0  0  0  3  0  0  0  0  0  0
  -21.9190   -4.6960   22.3400 C   0  0  0  0  0  0  0  0  0  0  0  0
  -22.1660   -4.2140   21.0980 F   0  0  0  0  0  0  0  0  0  0  0  0
  -21.5630   -3.4530   25.7740 F   0  0  0  0  0  0  0  0  0  0  0  0
  -22.7820  -13.5210   21.1870 C   0  0  0  0  0  0  0  0  0  0  0  0
  -22.0460  -12.8200   22.0440 N   0  0  0  0  0  0  0  0  0  0  0  0
  -22.3500  -14.5510   20.6720 O   0  0  0  0  0  0  0  0  0  0  0  0
  -22.4070  -11.9870   22.4830 H   0  0  0  0  0  0  0  0  0  0  0  0
  -21.1080  -13.1230   22.2640 H   0  0  0  0  0  0  0  0  0  0  0  0
  -25.4130  -15.1880   20.3990 N   0  0  0  0  0  0  0  0  0  0  0  0
  -24.6270  -15.8240   20.4690 H   0  0  0  0  0  0  0  0  0  0  0  0
  -26.2310  -15.6200   19.9900 H   0  0  0  0  0  0  0  0  0  0  0  0
  -30.5010  -20.9800   17.6550 C   0  0  0  0  0  1  0  0  0  0  0  0
  -31.1920  -20.5050   18.9390 C   0  0  0  0  0  2  0  0  0  0  0  0
  -25.9950  -20.4540   21.4260 C   0  0  0  0  0  1  0  0  0  0  0  0
  -27.2820  -20.2520   22.2340 C   0  0  0  0  0  2  0  0  0  0  0  0
  -29.2990  -22.1420   20.8550 C   0  0  0  0  0  2  0  0  0  0  0  0
  -28.5120  -23.3790   20.0700 C   0  0  0  0  0  2  0  0  0  0  0  0
  -27.2340  -24.7750   21.8750 C   0  0  0  0  0  1  0  0  0  0  0  0
  -28.3290  -24.8700   20.7960 C   0  0  0  0  0  3  0  0  0  0  0  0
  -28.3220  -26.2700   20.1490 O   0  0  0  0  0  0  0  0  0  0  0  0
  -24.6390  -31.8470   23.1890 C   0  0  0  0  0  0  0  0  0  0  0  0
  -27.2240  -27.1850   20.1630 C   0  0  0  0  0  0  0  0  0  0  0  0
  -23.4400  -30.4640   21.5340 C   0  0  0  0  0  3  0  0  0  0  0  0
  -24.8910  -28.8900   20.1160 C   0  0  0  0  0  0  0  0  0  0  0  0
  -25.9890  -30.7380   21.3780 C   0  0  0  0  0  2  0  0  0  0  0  0
  -26.0630  -29.3500   20.7290 C   0  0  0  0  0  0  0  0  0  0  0  0
  -27.2340  -28.5120   20.7320 C   0  0  0  0  0  3  0  0  0  0  0  0
  -26.0310  -26.8050   19.5180 C   0  0  0  0  0  3  0  0  0  0  0  0
  -24.8840  -27.6280   19.4970 C   0  0  0  0  0  3  0  0  0  0  0  0
  -23.6660  -29.7890   20.1550 C   0  0  0  0  0  2  0  0  0  0  0  0
  -24.7080  -31.0370   22.0910 N   0  0  0  0  0  0  0  0  0  0  0  0
  -23.5520  -32.1350   23.7140 O   0  0  0  0  0  0  0  0  0  0  0  0
  -22.7540  -29.4560   22.4880 C   0  0  0  0  0  0  0  0  0  0  0  0
  -21.4240  -29.3060   22.3630 N   0  0  0  0  0  0  0  0  0  0  0  0
  -23.4210  -28.8120   23.3020 O   0  0  0  0  0  0  0  0  0  0  0  0
  -20.9470  -29.8760   21.6790 H   0  0  0  0  0  0  0  0  0  0  0  0
  -18.0310  -28.1390   22.8440 C   0  0  0  0  0  0  0  0  0  0  0  0
  -20.5910  -28.3720   23.1250 C   0  0  0  0  0  3  0  0  0  0  0  0
  -20.6810  -26.9430   22.5410 C   0  0  0  0  0  2  0  0  0  0  0  0
  -19.5790  -26.6380   21.5210 C   0  0  0  0  0  2  0  0  0  0  0  0
  -18.1960  -26.7910   22.1600 C   0  0  0  0  0  2  0  0  0  0  0  0
  -19.1560  -28.8870   23.2820 C   0  0  0  0  0  0  0  0  0  0  0  0
  -18.9480  -30.1460   23.8850 C   0  0  0  0  0  3  0  0  0  0  0  0
  -17.6480  -30.6580   24.0550 C   0  0  0  0  0  3  0  0  0  0  0  0
  -16.5370  -29.9090   23.6330 C   0  0  0  0  0  3  0  0  0  0  0  0
  -16.7300  -28.6520   23.0310 C   0  0  0  0  0  3  0  0  0  0  0  0
  -25.9190  -32.4700   23.8270 C   0  0  0  0  0  3  0  0  0  0  0  0
  -25.5970  -33.8510   24.2200 N   0  0  0  0  0  0  0  0  0  0  0  0
  -25.9070  -34.9410   23.5060 C   0  0  0  0  0  0  0  0  0  0  0  0
  -26.5640  -34.8920   22.4630 O   0  0  0  0  0  0  0  0  0  0  0  0
  -25.0110  -33.9620   25.0340 H   0  0  0  0  0  0  0  0  0  0  0  0
  -24.1500  -36.7270   23.2640 C   0  0  0  0  0  1  0  0  0  0  0  0
  -25.4120  -36.3030   24.0320 C   0  0  0  0  0  3  0  0  0  0  0  0
  -27.5580  -37.1780   24.8450 C   0  0  0  0  0  1  0  0  0  0  0  0
  -26.4270  -37.3750   23.9420 N   0  0  0  0  0  0  0  0  0  0  0  0
  -26.0140  -38.2810   24.1440 H   0  0  0  0  0  0  0  0  0  0  0  0
  -26.4530  -31.6520   25.0680 C   0  0  1  0  0  0  0  0  0  0  0  0
  -25.3720  -31.3710   26.1370 C   0  0  0  0  0  1  0  0  0  0  0  0
  -27.0380  -30.2930   24.6200 C   0  0  0  0  0  1  0  0  0  0  0  0
  -27.6060  -32.4260   25.7470 C   0  0  0  0  0  1  0  0  0  0  0  0
  1  6  1  0
  2  1  2  0
  2  3  1  0
  3 50  1  0
  3  4  2  0
  4  5  1  0
  4 49  1  0
  5  7  1  0
  6 16  1  0
  6  5  2  0
  8 16  1  0
  9 14  1  0
 10 11  1  0
 10  9  1  0
 12 11  1  0
 12 21  1  0
 12 13  1  0
 14  8  1  0
 14 13  1  0
 15  8  2  0
 16 17  1  0
 18 19  2  0
 19 38  1  0
 20 19  1  0
 20 23  1  0
 21 18  1  0
 21 22  1  0
 22 20  2  0
 23 24  1  0
 24 25  2  0
 26 29  1  0
 26 25  1  0
 27 26  2  0
 28 27  1  0
 28 23  2  0
 29 30  1  0
 30 31  1  0
 31 32  2  0
 33 32  1  0
 33 37  1  0
 34 33  2  0
 35 30  2  0
 35 34  1  0
 36 35  1  0
 38 39  1  0
 39 42  1  0
 39 41  1  0
 40 38  2  0
 43 44  1  0
 43 18  1  0
 45 43  1  0
 46 47  1  0
 47  2  1  0
 48 49  1  0
 51 53  1  0
 51 50  1  0
 53 52  1  0
 54 56  1  0
 54 53  1  0
 55 66  2  0
 56 61  1  0
 57 65  1  0
 57 67  1  0
 58 64  1  0
 58 60  1  0
 59 65  1  0
 60 61  2  0
 60 59  1  0
 62 56  2  0
 63 62  1  0
 63 58  2  0
 64 57  1  0
 65 55  1  0
 67 69  2  0
 68 67  1  0
 70 68  1  0
 71 80  2  0
 71 76  1  0
 72 68  1  0
 72 76  1  0
 73 72  1  0
 74 75  1  0
 74 73  1  0
 75 71  1  0
 76 77  2  0
 77 78  1  0
 79 78  2  0
 80 79  1  0
 81 55  1  0
 81 82  1  0
 81 91  1  0
 82 85  1  0
 83 87  1  0
 83 82  1  0
 84 83  2  0
 87 86  1  0
 89 87  1  0
 89 90  1  0
 89 88  1  0
 91 94  1  1
 91 92  1  0
 93 91  1  0
M  ISO  4   8 100  16 100  53 101  54 101
M  END
>  <TORSDO>  (64) 
F 21

>  <SCORE>  (64) 
3.474

>  <name>  (64) 
63

>  <ligand_id>  (64) 
63

>  <original_smiles>  (64) 
[H]c1c([H])c([H])c2c(c1[H])C([H])([H])C([H])([H])C([H])([H])C2([H])N([H])C(=O)C1([H])N(C(=O)C([H])(N([H])C(=O)C([H])(N([H])C([H])([H])[H])C([H])([H])[H])C(C([H])([H])[H])(C([H])([H])[H])C([H])([H])[H])C([H])([H])c2c([H])c(OC([H])(C([H])([H])[H])C([H])([H])C([H])([H])c3c(C([H])([H])C([H])([H])[H])c([H])c(N([H])C(=O)N4C([H])([H])C([H])([H])C([H])([H])C([H])(n5nc(-c6c([H])c([H])c(Oc7c([H])c([H])c(F)c([H])c7F)c([H])c6[H])c(C(=O)N([H])[H])c5N([H])[H])C4([H])[H])c(C([H])([H])[H])c3C([H])([H])C([H])([H])[H])c([H])c([H])c2C1([H])[H]

>  <smiles>  (64) 
[H]c1c([H])c([H])c2c(c1[H])C([H])([H])C([H])([H])C([H])([H])C2([H])N([H])C(=O)C1([H])N(C(=O)C([H])(N([H])C(=O)C([H])(N([H])C([H])([H])[H])C([H])([H])[H])C(C([H])([H])[H])(C([H])([H])[H])C([H])([H])[H])C([H])([H])c2c([H])c(OC([H])(C([H])([H])[H])C([H])([H])C([H])([H])c3c(C([H])([H])C([H])([H])[H])c([H])c(N([H])C(=O)N4C([H])([H])C([H])([H])C([H])([H])C([H])(n5nc(-c6c([H])c([H])c(Oc7c([H])c([H])c(F)c([H])c7F)c([H])c6[H])c(C(=O)N([H])[H])c5N([H])[H])C4([H])[H])c(C([H])([H])[H])c3C([H])([H])C([H])([H])[H])c([H])c([H])c2C1([H])[H]

$$$$
64:0:0
     RDKit          3D

 90 98  0  0  1  0  0  0  0  0999 V2000
  -29.4960  -18.9950   20.5400 C   0  0  0  0  0  0  0  0  0  0  0  0
  -29.8130  -20.3260   19.9400 C   0  0  0  0  0  0  0  0  0  0  0  0
  -30.4000  -17.9630   20.1590 C   0  0  0  0  0  0  0  0  0  0  0  0
  -30.8970  -20.0380   19.1910 N   0  0  0  0  0  0  0  0  0  0  0  0
  -31.2350  -18.6850   19.2970 N   0  0  0  0  0  0  0  0  0  0  0  0
  -28.1050  -18.7160   21.5230 Cl  0  0  0  0  0  0  0  0  0  0  0  0
  -31.1170  -15.3590   20.0280 C   0  0  0  0  0  0  0  0  0  0  0  0
  -30.9470  -13.0280   19.0150 C   0  0  0  0  0  2  0  0  0  0  0  0
  -29.9760  -13.0450   17.8110 C   0  0  0  0  0  2  0  0  0  0  0  0
  -28.5210  -12.8500   18.2790 C   0  0  0  0  0  2  0  0  0  0  0  0
  -28.1750  -13.7220   19.5130 C   0  0  0  0  0  3  0  0  0  0  0  0
  -29.2670  -13.6590   20.6030 C   0  0  0  0  0  2  0  0  0  0  0  0
  -30.5230  -14.0910   19.9770 N   0  0  0  0  0  0  0  0  0  0  0  0
  -32.2930  -15.4190   19.6480 O   0  0  0  0  0  0  0  0  0  0  0  0
  -30.3600  -16.5250   20.3850 N   0  0  0  0  0  0  0  0  0  0  0  0
  -29.5170  -16.2590   20.8700 H   0  0  0  0  0  0  0  0  0  0  0  0
  -25.8360  -14.3230   20.3520 C   0  0  0  0  0  0  0  0  0  0  0  0
  -24.7680  -13.5600   20.7320 C   0  0  0  0  0  0  0  0  0  0  0  0
  -25.2000  -12.2000   20.6430 C   0  0  0  0  0  0  0  0  0  0  0  0
  -26.8500  -13.4300   20.0450 N   0  0  0  0  0  0  0  0  0  0  0  0
  -26.4800  -12.1460   20.2870 N   0  0  0  0  0  0  0  0  0  0  0  0
  -24.4520  -10.9470   20.8160 C   0  0  0  0  0  0  0  0  0  0  0  0
  -24.8330   -9.9870   21.7770 C   0  0  0  0  0  3  0  0  0  0  0  0
  -24.0850   -8.8000   21.9410 C   0  0  0  0  0  3  0  0  0  0  0  0
  -22.9440   -8.5660   21.1390 C   0  0  0  0  0  0  0  0  0  0  0  0
  -22.5810   -9.5150   20.1660 C   0  0  0  0  0  3  0  0  0  0  0  0
  -23.3290  -10.6930   20.0030 C   0  0  0  0  0  3  0  0  0  0  0  0
  -22.1740   -7.4300   21.2060 O   0  0  0  0  0  0  0  0  0  0  0  0
  -21.9510   -6.7810   22.3950 C   0  0  0  0  0  0  0  0  0  0  0  0
  -21.2900   -7.4110   23.4730 C   0  0  0  0  0  3  0  0  0  0  0  0
  -21.0190   -6.6870   24.6510 C   0  0  0  0  0  3  0  0  0  0  0  0
  -21.3970   -5.3340   24.7510 C   0  0  0  0  0  0  0  0  0  0  0  0
  -22.0460   -4.7040   23.6740 C   0  0  0  0  0  3  0  0  0  0  0  0
  -22.3200   -5.4260   22.5000 C   0  0  0  0  0  0  0  0  0  0  0  0
  -22.9290   -4.8080   21.4580 F   0  0  0  0  0  0  0  0  0  0  0  0
  -21.1280   -4.6360   25.8790 F   0  0  0  0  0  0  0  0  0  0  0  0
  -23.3920  -14.0600   21.0550 C   0  0  0  0  0  0  0  0  0  0  0  0
  -22.6740  -13.3640   21.9290 N   0  0  0  0  0  0  0  0  0  0  0  0
  -22.9590  -15.1040   20.5700 O   0  0  0  0  0  0  0  0  0  0  0  0
  -23.0320  -12.5150   22.3450 H   0  0  0  0  0  0  0  0  0  0  0  0
  -21.7500  -13.6860   22.1820 H   0  0  0  0  0  0  0  0  0  0  0  0
  -26.0260  -15.6950   20.2120 N   0  0  0  0  0  0  0  0  0  0  0  0
  -25.2720  -16.3590   20.3520 H   0  0  0  0  0  0  0  0  0  0  0  0
  -26.8640  -16.1220   19.8380 H   0  0  0  0  0  0  0  0  0  0  0  0
  -31.8000  -17.3340   17.2770 C   0  0  0  0  0  1  0  0  0  0  0  0
  -32.3140  -18.1950   18.4460 C   0  0  0  0  0  2  0  0  0  0  0  0
  -28.9790  -21.7800   19.7510 C   0  0  0  0  0  2  0  0  0  0  0  0
  -29.4070  -23.4200   20.0140 C   0  0  0  0  0  3  0  0  0  0  0  0
  -28.3990  -24.7800   19.6850 C   0  0  0  0  0  3  0  0  0  0  0  0
  -28.5620  -26.3320   19.9610 O   0  0  0  0  0  0  0  0  0  0  0  0
  -24.5260  -31.7060   23.1240 C   0  0  0  0  0  0  0  0  0  0  0  0
  -27.4470  -27.2710   19.9250 C   0  0  0  0  0  0  0  0  0  0  0  0
  -23.4380  -30.2910   21.4310 C   0  0  0  0  0  3  0  0  0  0  0  0
  -25.0020  -28.8760   19.9480 C   0  0  0  0  0  0  0  0  0  0  0  0
  -25.9690  -30.7340   21.2880 C   0  0  0  0  0  2  0  0  0  0  0  0
  -26.1470  -29.3720   20.5840 C   0  0  0  0  0  0  0  0  0  0  0  0
  -27.3670  -28.5860   20.5540 C   0  0  0  0  0  3  0  0  0  0  0  0
  -26.2670  -26.8920   19.2490 C   0  0  0  0  0  3  0  0  0  0  0  0
  -25.0780  -27.6580   19.2610 C   0  0  0  0  0  3  0  0  0  0  0  0
  -23.7110  -29.6800   20.0310 C   0  0  0  0  0  2  0  0  0  0  0  0
  -24.6650  -30.9350   22.0010 N   0  0  0  0  0  0  0  0  0  0  0  0
  -23.4210  -31.8880   23.6590 O   0  0  0  0  0  0  0  0  0  0  0  0
  -22.8320  -29.2110   22.3580 C   0  0  0  0  0  0  0  0  0  0  0  0
  -21.5190  -28.9500   22.2190 N   0  0  0  0  0  0  0  0  0  0  0  0
  -23.5460  -28.6110   23.1650 O   0  0  0  0  0  0  0  0  0  0  0  0
  -20.9900  -29.5010   21.5560 H   0  0  0  0  0  0  0  0  0  0  0  0
  -18.2260  -27.4410   22.6310 C   0  0  0  0  0  0  0  0  0  0  0  0
  -20.7860  -27.8850   22.9050 C   0  0  0  0  0  0  0  0  0  0  0  0
  -21.0810  -26.5260   22.2080 C   0  0  0  0  0  3  0  0  0  0  0  0
  -19.8990  -25.8910   21.4470 C   0  0  0  0  0  3  0  0  0  0  0  0
  -18.4290  -26.1910   21.7860 C   0  0  0  0  0  3  0  0  0  0  0  0
  -19.3010  -28.2460   23.1010 C   0  0  0  0  0  0  0  0  0  0  0  0
  -18.9970  -29.4520   23.7740 C   0  0  0  0  0  3  0  0  0  0  0  0
  -17.6630  -29.8530   23.9790 C   0  0  0  0  0  3  0  0  0  0  0  0
  -16.6090  -29.0390   23.5330 C   0  0  0  0  0  3  0  0  0  0  0  0
  -16.8950  -27.8340   22.8710 C   0  0  0  0  0  3  0  0  0  0  0  0
  -25.7520  -32.4100   23.7820 C   0  0  0  0  0  3  0  0  0  0  0  0
  -26.2540  -31.6860   25.0910 C   0  0  1  0  0  0  0  0  0  0  0  0
  -25.1310  -31.3990   26.1160 C   0  0  0  0  0  1  0  0  0  0  0  0
  -26.9350  -30.3410   24.7490 C   0  0  0  0  0  1  0  0  0  0  0  0
  -27.3280  -32.5540   25.7900 C   0  0  0  0  0  1  0  0  0  0  0  0
  -25.3650  -33.7990   24.0830 N   0  0  0  0  0  0  0  0  0  0  0  0
  -25.6540  -34.8560   23.3140 C   0  0  0  0  0  0  0  0  0  0  0  0
  -26.3410  -34.7700   22.2940 O   0  0  0  0  0  0  0  0  0  0  0  0
  -24.7560  -33.9350   24.8790 H   0  0  0  0  0  0  0  0  0  0  0  0
  -23.8420  -36.5590   22.9130 C   0  0  0  0  0  1  0  0  0  0  0  0
  -25.0930  -36.2280   23.7450 C   0  0  0  0  0  3  0  0  0  0  0  0
  -27.1590  -37.2470   24.6020 C   0  0  0  0  0  1  0  0  0  0  0  0
  -26.0770  -37.3280   23.6230 N   0  0  0  0  0  0  0  0  0  0  0  0
  -25.6220  -38.2310   23.7290 H   0  0  0  0  0  0  0  0  0  0  0  0
  1  6  1  0
  2  1  1  0
  3 15  1  0
  3  1  2  0
  4  5  1  0
  4  2  2  0
  5  3  1  0
  7 15  1  0
  8 13  1  0
  9 10  1  0
  9  8  1  0
 11 10  1  0
 11 20  1  0
 11 12  1  0
 13  7  1  0
 13 12  1  0
 14  7  2  0
 15 16  1  0
 17 18  2  0
 18 37  1  0
 19 18  1  0
 19 22  1  0
 20 21  1  0
 20 17  1  0
 21 19  2  0
 22 23  1  0
 23 24  2  0
 25 28  1  0
 25 24  1  0
 26 25  2  0
 27 26  1  0
 27 22  2  0
 28 29  1  0
 29 34  2  0
 29 30  1  0
 30 31  2  0
 31 32  1  0
 32 36  1  0
 33 32  2  0
 34 33  1  0
 35 34  1  0
 37 38  1  0
 38 41  1  0
 38 40  1  0
 39 37  2  0
 42 43  1  0
 42 17  1  0
 44 42  1  0
 45 46  1  0
 46  5  1  0
 47  2  1  0
 47 48  1  0
 49 50  1  0
 49 48  2  0
 51 62  2  0
 52 50  1  0
 52 57  1  0
 53 61  1  0
 53 63  1  0
 54 60  1  0
 54 56  1  0
 55 61  1  0
 56 55  1  0
 57 56  2  0
 58 59  1  0
 58 52  2  0
 59 54  2  0
 60 53  1  0
 61 51  1  0
 63 65  2  0
 64 63  1  0
 64 68  1  0
 66 64  1  0
 67 76  2  0
 67 72  1  0
 68 72  1  0
 69 68  2  0
 70 71  2  0
 70 69  1  0
 71 67  1  0
 72 73  2  0
 73 74  1  0
 75 74  2  0
 76 75  1  0
 77 51  1  0
 77 82  1  0
 77 78  1  0
 78 81  1  1
 78 79  1  0
 80 78  1  0
 82 85  1  0
 83 87  1  0
 83 82  1  0
 84 83  2  0
 87 86  1  0
 89 90  1  0
 89 87  1  0
 89 88  1  0
M  ISO  4   7 100  15 100  49 101  50 101
M  END
>  <TORSDO>  (65) 
F 20

>  <SCORE>  (65) 
-12.070

>  <name>  (65) 
64

>  <ligand_id>  (65) 
64

>  <original_smiles>  (65) 
[H]c1c([H])c([H])c2c(c1[H])C([H])([H])C([H])([H])C([H])([H])C2([H])N([H])C(=O)C1([H])N(C(=O)C([H])(N([H])C(=O)C([H])(N([H])C([H])([H])[H])C([H])([H])[H])C(C([H])([H])[H])(C([H])([H])[H])C([H])([H])[H])C([H])([H])c2c([H])c(OC([H])([H])C([H])([H])C([H])([H])c3nn(C([H])([H])C([H])([H])[H])c(N([H])C(=O)N4C([H])([H])C([H])([H])C([H])([H])C([H])(n5nc(-c6c([H])c([H])c(Oc7c([H])c([H])c(F)c([H])c7F)c([H])c6[H])c(C(=O)N([H])[H])c5N([H])[H])C4([H])[H])c3Cl)c([H])c([H])c2C1([H])[H]

>  <smiles>  (65) 
[H]c1c([H])c([H])c2c(c1[H])C([H])([H])C([H])([H])C([H])([H])C2([H])N([H])C(=O)C1([H])N(C(=O)C([H])(N([H])C(=O)C([H])(N([H])C([H])([H])[H])C([H])([H])[H])C(C([H])([H])[H])(C([H])([H])[H])C([H])([H])[H])C([H])([H])c2c([H])c(OC([H])([H])C([H])([H])C([H])([H])c3nn(C([H])([H])C([H])([H])[H])c(N([H])C(=O)N4C([H])([H])C([H])([H])C([H])([H])C([H])(n5nc(-c6c([H])c([H])c(Oc7c([H])c([H])c(F)c([H])c7F)c([H])c6[H])c(C(=O)N([H])[H])c5N([H])[H])C4([H])[H])c3Cl)c([H])c([H])c2C1([H])[H]

$$$$
65:0:0
     RDKit          3D

 95103  0  0  1  0  0  0  0  0999 V2000
  -29.6100  -18.4690   21.0960 C   0  0  0  0  0  3  0  0  0  0  0  0
  -30.9900  -18.1870   21.2280 C   0  0  0  0  0  0  0  0  0  0  0  0
  -31.8860  -19.3040   21.2580 C   0  0  0  0  0  0  0  0  0  0  0  0
  -30.0050  -20.9030   20.9670 C   0  0  0  0  0  0  0  0  0  0  0  0
  -29.1230  -19.7940   20.9940 C   0  0  0  0  0  0  0  0  0  0  0  0
  -31.3890  -20.6350   21.1230 C   0  0  0  0  0  0  0  0  0  0  0  0
  -33.3980  -19.1420   21.4230 C   0  0  0  0  0  1  0  0  0  0  0  0
  -27.4120  -20.0450   20.9370 Cl  0  0  0  0  0  0  0  0  0  0  0  0
  -32.4860  -21.9770   21.2110 Cl  0  0  0  0  0  0  0  0  0  0  0  0
  -29.4910  -22.2290   20.8570 N   0  0  0  0  0  0  0  0  0  0  0  0
  -28.5120  -22.2280   21.1300 H   0  0  0  0  0  0  0  0  0  0  0  0
  -28.7020  -22.4110   18.5290 C   0  0  0  0  0  1  0  0  0  0  0  0
  -29.6760  -22.9600   19.5830 C   0  0  0  0  0  3  0  0  0  0  0  0
  -29.6340  -24.5440   19.7280 C   0  0  0  0  0  3  0  0  0  0  0  0
  -28.7200  -25.3570   18.7380 C   0  0  0  0  0  3  0  0  0  0  0  0
  -28.6880  -26.8070   18.9200 O   0  0  0  0  0  0  0  0  0  0  0  0
  -24.6100  -31.1520   22.8480 C   0  0  0  0  0  0  0  0  0  0  0  0
  -27.4610  -27.4650   19.0060 C   0  0  0  0  0  0  0  0  0  0  0  0
  -23.4430  -29.8950   21.0700 C   0  0  0  0  0  3  0  0  0  0  0  0
  -24.9420  -28.7530   19.3430 C   0  0  0  0  0  0  0  0  0  0  0  0
  -25.9110  -30.5160   20.8190 C   0  0  0  0  0  2  0  0  0  0  0  0
  -26.0810  -29.2750   19.9650 C   0  0  0  0  0  0  0  0  0  0  0  0
  -27.3370  -28.6440   19.7880 C   0  0  0  0  0  3  0  0  0  0  0  0
  -26.3000  -26.9970   18.3430 C   0  0  0  0  0  3  0  0  0  0  0  0
  -25.0540  -27.6230   18.5170 C   0  0  0  0  0  3  0  0  0  0  0  0
  -23.6310  -29.4640   19.5900 C   0  0  0  0  0  2  0  0  0  0  0  0
  -24.6750  -30.5300   21.6360 N   0  0  0  0  0  0  0  0  0  0  0  0
  -23.5430  -31.2270   23.4720 O   0  0  0  0  0  0  0  0  0  0  0  0
  -22.9520  -28.6800   21.8910 C   0  0  0  0  0  0  0  0  0  0  0  0
  -21.6510  -28.3600   21.7730 N   0  0  0  0  0  0  0  0  0  0  0  0
  -23.7380  -28.0330   22.5880 O   0  0  0  0  0  0  0  0  0  0  0  0
  -21.0690  -28.9490   21.1910 H   0  0  0  0  0  0  0  0  0  0  0  0
  -18.4740  -26.6660   22.1530 C   0  0  0  0  0  0  0  0  0  0  0  0
  -20.9820  -27.2360   22.4240 C   0  0  0  0  0  3  0  0  0  0  0  0
  -21.2580  -25.9140   21.6720 C   0  0  0  0  0  2  0  0  0  0  0  0
  -20.1780  -25.5660   20.6430 C   0  0  0  0  0  2  0  0  0  0  0  0
  -18.8110  -25.4420   21.3180 C   0  0  0  0  0  2  0  0  0  0  0  0
  -19.4930  -27.5150   22.6600 C   0  0  0  0  0  0  0  0  0  0  0  0
  -19.1240  -28.6570   23.4040 C   0  0  0  0  0  3  0  0  0  0  0  0
  -17.7700  -28.9520   23.6460 C   0  0  0  0  0  3  0  0  0  0  0  0
  -16.7640  -28.1030   23.1480 C   0  0  0  0  0  3  0  0  0  0  0  0
  -17.1180  -26.9600   22.4100 C   0  0  0  0  0  3  0  0  0  0  0  0
  -25.8670  -31.8150   23.4920 C   0  0  0  0  0  3  0  0  0  0  0  0
  -25.4690  -33.1390   23.9920 N   0  0  0  0  0  0  0  0  0  0  0  0
  -25.7240  -34.2980   23.3700 C   0  0  0  0  0  0  0  0  0  0  0  0
  -26.3940  -34.3670   22.3360 O   0  0  0  0  0  0  0  0  0  0  0  0
  -24.8750  -33.1520   24.8080 H   0  0  0  0  0  0  0  0  0  0  0  0
  -23.8790  -36.0030   23.2110 C   0  0  0  0  0  1  0  0  0  0  0  0
  -25.1370  -35.5820   23.9900 C   0  0  0  0  0  3  0  0  0  0  0  0
  -27.1940  -36.4940   24.9710 C   0  0  0  0  0  1  0  0  0  0  0  0
  -26.0970  -36.7060   24.0320 N   0  0  0  0  0  0  0  0  0  0  0  0
  -25.6280  -37.5710   24.2840 H   0  0  0  0  0  0  0  0  0  0  0  0
  -26.5000  -30.9530   24.6510 C   0  0  1  0  0  0  0  0  0  0  0  0
  -25.4790  -30.5180   25.7270 C   0  0  0  0  0  1  0  0  0  0  0  0
  -27.1660  -29.6760   24.0870 C   0  0  0  0  0  1  0  0  0  0  0  0
  -27.6200  -31.7610   25.3510 C   0  0  0  0  0  1  0  0  0  0  0  0
  -31.4670  -16.7260   21.4600 C   0  0  0  0  0  2  0  0  0  0  0  0
  -31.0910  -14.7390   19.9510 C   0  0  0  0  0  0  0  0  0  0  0  0
  -30.7210  -12.5690   18.8070 C   0  0  0  0  0  2  0  0  0  0  0  0
  -29.7100  -12.6960   17.6540 C   0  0  0  0  0  2  0  0  0  0  0  0
  -28.2770  -12.5030   18.1780 C   0  0  0  0  0  2  0  0  0  0  0  0
  -27.9850  -13.4080   19.4040 C   0  0  0  0  0  3  0  0  0  0  0  0
  -29.0930  -13.2830   20.4730 C   0  0  0  0  0  2  0  0  0  0  0  0
  -30.3870  -13.5770   19.8330 N   0  0  0  0  0  0  0  0  0  0  0  0
  -32.0810  -14.9760   19.2550 O   0  0  0  0  0  0  0  0  0  0  0  0
  -30.6760  -15.6020   20.9100 N   0  0  0  0  0  0  0  0  0  0  0  0
  -29.8820  -15.2960   21.4540 H   0  0  0  0  0  0  0  0  0  0  0  0
  -25.6690  -14.0340   20.3260 C   0  0  0  0  0  0  0  0  0  0  0  0
  -24.6150  -13.2640   20.7410 C   0  0  0  0  0  0  0  0  0  0  0  0
  -25.0360  -11.9070   20.6070 C   0  0  0  0  0  0  0  0  0  0  0  0
  -26.6660  -13.1400   19.9670 N   0  0  0  0  0  0  0  0  0  0  0  0
  -26.2940  -11.8550   20.1920 N   0  0  0  0  0  0  0  0  0  0  0  0
  -24.2950  -10.6530   20.7940 C   0  0  0  0  0  0  0  0  0  0  0  0
  -24.7270   -9.6670   21.7060 C   0  0  0  0  0  3  0  0  0  0  0  0
  -23.9880   -8.4760   21.8780 C   0  0  0  0  0  3  0  0  0  0  0  0
  -22.8020   -8.2670   21.1370 C   0  0  0  0  0  0  0  0  0  0  0  0
  -22.3860   -9.2400   20.2130 C   0  0  0  0  0  3  0  0  0  0  0  0
  -23.1260  -10.4210   20.0400 C   0  0  0  0  0  3  0  0  0  0  0  0
  -22.0310   -7.1330   21.2250 O   0  0  0  0  0  0  0  0  0  0  0  0
  -21.9260   -6.4210   22.3920 C   0  0  0  0  0  0  0  0  0  0  0  0
  -21.4250   -7.0030   23.5770 C   0  0  0  0  0  3  0  0  0  0  0  0
  -21.2660   -6.2160   24.7350 C   0  0  0  0  0  3  0  0  0  0  0  0
  -21.5990   -4.8480   24.7090 C   0  0  0  0  0  0  0  0  0  0  0  0
  -22.0940   -4.2660   23.5290 C   0  0  0  0  0  3  0  0  0  0  0  0
  -22.2530   -5.0500   22.3730 C   0  0  0  0  0  0  0  0  0  0  0  0
  -22.7100   -4.4780   21.2340 F   0  0  0  0  0  0  0  0  0  0  0  0
  -21.4400   -4.0900   25.8200 F   0  0  0  0  0  0  0  0  0  0  0  0
  -23.2590  -13.7560   21.1530 C   0  0  0  0  0  0  0  0  0  0  0  0
  -22.5980  -13.0400   22.0560 N   0  0  0  0  0  0  0  0  0  0  0  0
  -22.7970  -14.8060   20.7120 O   0  0  0  0  0  0  0  0  0  0  0  0
  -22.9840  -12.1860   22.4350 H   0  0  0  0  0  0  0  0  0  0  0  0
  -21.6920  -13.3480   22.3760 H   0  0  0  0  0  0  0  0  0  0  0  0
  -25.8540  -15.4070   20.2130 N   0  0  0  0  0  0  0  0  0  0  0  0
  -25.1090  -16.0610   20.4310 H   0  0  0  0  0  0  0  0  0  0  0  0
  -26.6970  -15.8600   19.8830 H   0  0  0  0  0  0  0  0  0  0  0  0
  1  2  1  0
  2  3  2  0
  2 57  1  0
  3  7  1  0
  4  5  1  0
  4  6  2  0
  5  1  2  0
  6  9  1  0
  6  3  1  0
  8  5  1  0
 10  4  1  0
 10 11  1  0
 13 12  1  0
 13 14  1  0
 13 10  1  0
 15 16  1  0
 15 14  2  0
 16 18  1  0
 17 28  2  0
 18 23  1  0
 19 27  1  0
 19 29  1  0
 20 26  1  0
 20 22  1  0
 21 27  1  0
 22 21  1  0
 23 22  2  0
 24 25  1  0
 24 18  2  0
 25 20  2  0
 26 19  1  0
 27 17  1  0
 29 31  2  0
 30 29  1  0
 32 30  1  0
 33 42  2  0
 33 38  1  0
 34 30  1  0
 34 38  1  0
 35 34  1  0
 36 37  1  0
 36 35  1  0
 37 33  1  0
 38 39  2  0
 39 40  1  0
 41 40  2  0
 42 41  1  0
 43 17  1  0
 43 44  1  0
 43 53  1  0
 44 47  1  0
 45 49  1  0
 45 44  1  0
 46 45  2  0
 49 48  1  0
 49 51  1  0
 51 52  1  0
 51 50  1  0
 53 56  1  1
 53 54  1  0
 55 53  1  0
 58 66  1  0
 59 64  1  0
 60 61  1  0
 60 59  1  0
 62 61  1  0
 62 71  1  0
 62 63  1  0
 64 58  1  0
 64 63  1  0
 65 58  2  0
 66 67  1  0
 66 57  1  0
 68 69  2  0
 69 88  1  0
 70 69  1  0
 70 73  1  0
 71 72  1  0
 71 68  1  0
 72 70  2  0
 73 74  1  0
 74 75  2  0
 76 79  1  0
 76 75  1  0
 77 76  2  0
 78 77  1  0
 78 73  2  0
 79 80  1  0
 80 81  1  0
 81 82  2  0
 83 82  1  0
 83 87  1  0
 84 83  2  0
 85 80  2  0
 85 84  1  0
 86 85  1  0
 88 89  1  0
 89 92  1  0
 89 91  1  0
 90 88  2  0
 93 68  1  0
 93 94  1  0
 95 93  1  0
M  ISO  4  15 101  16 101  58 100  66 100
M  END
>  <TORSDO>  (66) 
F 21

>  <SCORE>  (66) 
-9.805

>  <name>  (66) 
65

>  <ligand_id>  (66) 
65

>  <original_smiles>  (66) 
[H]c1c([H])c([H])c2c(c1[H])C([H])([H])C([H])([H])C([H])([H])C2([H])N([H])C(=O)C1([H])N(C(=O)C([H])(N([H])C(=O)C([H])(N([H])C([H])([H])[H])C([H])([H])[H])C(C([H])([H])[H])(C([H])([H])[H])C([H])([H])[H])C([H])([H])c2c([H])c(OC([H])([H])C([H])([H])C([H])(N([H])c3c(Cl)c([H])c(C([H])([H])N([H])C(=O)N4C([H])([H])C([H])([H])C([H])([H])C([H])(n5nc(-c6c([H])c([H])c(Oc7c([H])c([H])c(F)c([H])c7F)c([H])c6[H])c(C(=O)N([H])[H])c5N([H])[H])C4([H])[H])c(C([H])([H])[H])c3Cl)C([H])([H])[H])c([H])c([H])c2C1([H])[H]

>  <smiles>  (66) 
[H]c1c([H])c([H])c2c(c1[H])C([H])([H])C([H])([H])C([H])([H])C2([H])N([H])C(=O)C1([H])N(C(=O)C([H])(N([H])C(=O)C([H])(N([H])C([H])([H])[H])C([H])([H])[H])C(C([H])([H])[H])(C([H])([H])[H])C([H])([H])[H])C([H])([H])c2c([H])c(OC([H])([H])C([H])([H])C([H])(N([H])c3c(Cl)c([H])c(C([H])([H])N([H])C(=O)N4C([H])([H])C([H])([H])C([H])([H])C([H])(n5nc(-c6c([H])c([H])c(Oc7c([H])c([H])c(F)c([H])c7F)c([H])c6[H])c(C(=O)N([H])[H])c5N([H])[H])C4([H])[H])c(C([H])([H])[H])c3Cl)C([H])([H])[H])c([H])c([H])c2C1([H])[H]

$$$$
66:0:0
     RDKit          3D

 99107  0  0  1  0  0  0  0  0999 V2000
  -27.7680  -26.1110   21.7750 C   0  0  0  0  0  3  0  0  0  0  0  0
  -28.6040  -24.0660   20.1100 C   0  0  0  0  0  3  0  0  0  0  0  0
  -26.9420  -24.9930   21.6310 C   0  0  0  0  0  0  0  0  0  0  0  0
  -28.9050  -26.3180   20.9600 C   0  0  0  0  0  0  0  0  0  0  0  0
  -27.3290  -23.9880   20.7130 C   0  0  0  0  0  0  0  0  0  0  0  0
  -29.4170  -25.2230   20.1930 C   0  0  0  0  0  0  0  0  0  0  0  0
  -25.6610  -24.9410   22.4470 C   0  0  0  0  0  1  0  0  0  0  0  0
  -30.9860  -24.2380   18.5580 C   0  0  0  0  0  1  0  0  0  0  0  0
  -31.7740  -25.5410   20.4610 C   0  0  0  0  0  1  0  0  0  0  0  0
  -30.6760  -25.2870   19.5330 N   0  0  0  0  0  0  0  0  0  0  0  0
  -26.3850  -22.8420   20.3560 C   0  0  0  0  0  2  0  0  0  0  0  0
  -25.3180  -23.2680   19.3200 C   0  0  0  0  0  2  0  0  0  0  0  0
  -25.8990  -24.1890   18.2380 C   0  0  0  0  0  2  0  0  0  0  0  0
  -25.1950  -25.5520   18.1880 C   0  0  0  0  0  2  0  0  0  0  0  0
  -25.9400  -26.6320   17.3880 C   0  0  0  0  0  2  0  0  0  0  0  0
  -27.3300  -27.0650   17.9480 C   0  0  0  0  0  2  0  0  0  0  0  0
  -28.2800  -27.5410   16.8410 C   0  0  0  0  0  2  0  0  0  0  0  0
  -29.6910  -27.9310   17.3440 C   0  0  0  0  0  2  0  0  0  0  0  0
  -30.7770  -27.6470   16.2990 C   0  0  0  0  0  2  0  0  0  0  0  0
  -32.6380  -29.3640   16.0890 C   0  0  0  0  0  0  0  0  0  0  0  0
  -33.4430  -30.6310   14.1310 C   0  0  0  0  0  2  0  0  0  0  0  0
  -32.3080  -31.4940   13.5470 C   0  0  0  0  0  2  0  0  0  0  0  0
  -31.4540  -30.6870   12.5530 C   0  0  0  0  0  2  0  0  0  0  0  0
  -31.0120  -29.3180   13.1200 C   0  0  0  0  0  3  0  0  0  0  0  0
  -32.2370  -28.5770   13.6930 C   0  0  0  0  0  2  0  0  0  0  0  0
  -32.8330  -29.4330   14.7410 N   0  0  0  0  0  0  0  0  0  0  0  0
  -33.0970  -30.1960   16.8790 O   0  0  0  0  0  0  0  0  0  0  0  0
  -32.0780  -28.2580   16.6060 N   0  0  0  0  0  0  0  0  0  0  0  0
  -32.2920  -28.2440   17.5930 H   0  0  0  0  0  0  0  0  0  0  0  0
  -29.0490  -27.9620   12.1600 C   0  0  0  0  0  0  0  0  0  0  0  0
  -28.8520  -27.3660   10.9470 C   0  0  0  0  0  0  0  0  0  0  0  0
  -30.0480  -27.5950   10.2020 C   0  0  0  0  0  0  0  0  0  0  0  0
  -30.3190  -28.5140   12.1170 N   0  0  0  0  0  0  0  0  0  0  0  0
  -30.9360  -28.2410   10.9420 N   0  0  0  0  0  0  0  0  0  0  0  0
  -30.3810  -27.2930    8.8070 C   0  0  0  0  0  0  0  0  0  0  0  0
  -31.4860  -26.4790    8.4690 C   0  0  0  0  0  3  0  0  0  0  0  0
  -31.7720  -26.1970    7.1160 C   0  0  0  0  0  3  0  0  0  0  0  0
  -30.9540  -26.7260    6.0920 C   0  0  0  0  0  0  0  0  0  0  0  0
  -29.8700  -27.5540    6.4360 C   0  0  0  0  0  3  0  0  0  0  0  0
  -29.5890  -27.8400    7.7800 C   0  0  0  0  0  3  0  0  0  0  0  0
  -31.1700  -26.5280    4.7510 O   0  0  0  0  0  0  0  0  0  0  0  0
  -31.7760  -25.3910    4.2850 C   0  0  0  0  0  0  0  0  0  0  0  0
  -31.2290  -24.1070    4.5110 C   0  0  0  0  0  3  0  0  0  0  0  0
  -31.8490  -22.9710    3.9560 C   0  0  0  0  0  3  0  0  0  0  0  0
  -33.0040  -23.1120    3.1630 C   0  0  0  0  0  0  0  0  0  0  0  0
  -33.5490  -24.3900    2.9350 C   0  0  0  0  0  3  0  0  0  0  0  0
  -32.9330  -25.5250    3.4900 C   0  0  0  0  0  0  0  0  0  0  0  0
  -33.4500  -26.7530    3.2480 F   0  0  0  0  0  0  0  0  0  0  0  0
  -33.5950  -22.0210    2.6230 F   0  0  0  0  0  0  0  0  0  0  0  0
  -27.5930  -26.7040   10.4670 C   0  0  0  0  0  0  0  0  0  0  0  0
  -27.7260  -25.6660    9.6570 N   0  0  0  0  0  0  0  0  0  0  0  0
  -26.4830  -27.0770   10.8540 O   0  0  0  0  0  0  0  0  0  0  0  0
  -28.6430  -25.3580    9.3650 H   0  0  0  0  0  0  0  0  0  0  0  0
  -26.9060  -25.1750    9.3290 H   0  0  0  0  0  0  0  0  0  0  0  0
  -28.2400  -28.0960   13.2880 N   0  0  0  0  0  0  0  0  0  0  0  0
  -27.2830  -27.7610   13.3050 H   0  0  0  0  0  0  0  0  0  0  0  0
  -28.4970  -28.6310   14.1050 H   0  0  0  0  0  0  0  0  0  0  0  0
  -29.4500  -27.7400   20.7540 C   0  0  0  0  0  2  0  0  0  0  0  0
  -29.0750  -28.6890   21.7560 O   0  0  0  0  0  0  0  0  0  0  0  0
  -24.3750  -28.1860   27.0040 C   0  0  0  0  0  0  0  0  0  0  0  0
  -27.7620  -28.9380   22.0940 C   0  0  0  0  0  0  0  0  0  0  0  0
  -23.4280  -28.9000   24.8330 C   0  0  0  0  0  3  0  0  0  0  0  0
  -25.1330  -29.4570   23.0080 C   0  0  0  0  0  0  0  0  0  0  0  0
  -25.8700  -29.3780   25.4090 C   0  0  0  0  0  2  0  0  0  0  0  0
  -26.1760  -29.2890   23.9280 C   0  0  0  0  0  0  0  0  0  0  0  0
  -27.4880  -29.0640   23.4730 C   0  0  0  0  0  3  0  0  0  0  0  0
  -26.7020  -29.0620   21.1690 C   0  0  0  0  0  3  0  0  0  0  0  0
  -25.3900  -29.3440   21.6220 C   0  0  0  0  0  3  0  0  0  0  0  0
  -23.7720  -29.7700   23.5940 C   0  0  0  0  0  2  0  0  0  0  0  0
  -24.5760  -28.7700   25.7910 N   0  0  0  0  0  0  0  0  0  0  0  0
  -23.2480  -27.8050   27.3500 O   0  0  0  0  0  0  0  0  0  0  0  0
  -22.8890  -27.5440   24.3310 C   0  0  0  0  0  0  0  0  0  0  0  0
  -21.9320  -27.6030   23.3870 N   0  0  0  0  0  0  0  0  0  0  0  0
  -23.3510  -26.4830   24.7520 O   0  0  0  0  0  0  0  0  0  0  0  0
  -21.5790  -28.5130   23.1320 H   0  0  0  0  0  0  0  0  0  0  0  0
  -19.8590  -26.6420   20.5880 C   0  0  0  0  0  0  0  0  0  0  0  0
  -21.3080  -26.4610   22.7210 C   0  0  0  0  0  3  0  0  0  0  0  0
  -22.3260  -25.6960   21.8430 C   0  0  0  0  0  2  0  0  0  0  0  0
  -22.3350  -26.1430   20.3760 C   0  0  0  0  0  2  0  0  0  0  0  0
  -20.9420  -25.9740   19.7610 C   0  0  0  0  0  2  0  0  0  0  0  0
  -20.0340  -26.8800   21.9760 C   0  0  0  0  0  0  0  0  0  0  0  0
  -19.0080  -27.5290   22.6980 C   0  0  0  0  0  3  0  0  0  0  0  0
  -17.8180  -27.9180   22.0570 C   0  0  0  0  0  3  0  0  0  0  0  0
  -17.6400  -27.6600   20.6860 C   0  0  0  0  0  3  0  0  0  0  0  0
  -18.6600  -27.0270   19.9520 C   0  0  0  0  0  3  0  0  0  0  0  0
  -25.5350  -27.9820   28.0300 C   0  0  0  0  0  3  0  0  0  0  0  0
  -24.9540  -28.0900   29.3740 N   0  0  0  0  0  0  0  0  0  0  0  0
  -25.1060  -29.1440   30.1870 C   0  0  0  0  0  0  0  0  0  0  0  0
  -25.8150  -30.1120   29.8990 O   0  0  0  0  0  0  0  0  0  0  0  0
  -24.3090  -27.3620   29.6450 H   0  0  0  0  0  0  0  0  0  0  0  0
  -23.0590  -29.9440   31.4200 C   0  0  0  0  0  1  0  0  0  0  0  0
  -24.3510  -29.1210   31.5310 C   0  0  0  0  0  3  0  0  0  0  0  0
  -26.3000  -28.7620   32.9830 C   0  0  0  0  0  1  0  0  0  0  0  0
  -25.1600  -29.6160   32.6650 N   0  0  0  0  0  0  0  0  0  0  0  0
  -24.5920  -29.7070   33.5040 H   0  0  0  0  0  0  0  0  0  0  0  0
  -26.2930  -26.6090   27.8480 C   0  0  1  0  0  0  0  0  0  0  0  0
  -25.3850  -25.3660   28.0060 C   0  0  0  0  0  1  0  0  0  0  0  0
  -26.9580  -26.5310   26.4510 C   0  0  0  0  0  1  0  0  0  0  0  0
  -27.4330  -26.5060   28.8880 C   0  0  0  0  0  1  0  0  0  0  0  0
  2  6  2  0
  2  5  1  0
  3  1  1  0
  3  7  1  0
  4  1  2  0
  5  3  2  0
  6  4  1  0
  8 10  1  0
 10  6  1  0
 10  9  1  0
 11  5  1  0
 12 11  1  0
 13 12  1  0
 14 13  1  0
 15 16  1  0
 15 14  1  0
 17 18  1  0
 17 16  1  0
 19 28  1  0
 19 18  1  0
 20 28  1  0
 20 27  2  0
 21 26  1  0
 22 21  1  0
 23 24  1  0
 23 22  1  0
 24 33  1  0
 24 25  1  0
 25 26  1  0
 26 20  1  0
 28 29  1  0
 30 55  1  0
 31 30  2  0
 32 34  2  0
 32 31  1  0
 33 30  1  0
 34 33  1  0
 35 32  1  0
 36 35  1  0
 37 36  2  0
 38 39  2  0
 38 37  1  0
 39 40  1  0
 40 35  2  0
 41 38  1  0
 42 43  1  0
 42 41  1  0
 44 43  2  0
 45 44  1  0
 46 45  2  0
 46 47  1  0
 47 42  2  0
 48 47  1  0
 49 45  1  0
 50 52  2  0
 50 31  1  0
 51 50  1  0
 53 51  1  0
 54 51  1  0
 55 56  1  0
 55 57  1  0
 58  4  1  0
 58 59  1  0
 59 61  1  0
 60 71  2  0
 61 66  1  0
 62 72  1  0
 62 70  1  0
 63 69  1  0
 63 65  1  0
 64 70  1  0
 65 64  1  0
 66 65  2  0
 67 68  1  0
 67 61  2  0
 68 63  2  0
 69 62  1  0
 70 60  1  0
 72 74  2  0
 73 72  1  0
 75 73  1  0
 76 81  1  0
 77 73  1  0
 78 77  1  0
 79 78  1  0
 80 79  1  0
 80 76  1  0
 81 82  2  0
 81 77  1  0
 83 82  1  0
 84 83  2  0
 85 76  2  0
 85 84  1  0
 86 60  1  0
 86 87  1  0
 87 90  1  0
 87 88  1  0
 88 92  1  0
 89 88  2  0
 92 91  1  0
 92 94  1  0
 94 93  1  0
 94 95  1  0
 96 97  1  1
 96 86  1  0
 96 99  1  0
 98 96  1  0
M  ISO  4  20 100  28 100  58 101  59 101
M  END
>  <TORSDO>  (67) 
F 27

>  <SCORE>  (67) 
-4.328

>  <name>  (67) 
66

>  <ligand_id>  (67) 
66

>  <original_smiles>  (67) 
[H]c1c([H])c([H])c2c(c1[H])C([H])([H])C([H])([H])C([H])([H])C2([H])N([H])C(=O)C1([H])N(C(=O)C([H])(N([H])C(=O)C([H])(N([H])C([H])([H])[H])C([H])([H])[H])C(C([H])([H])[H])(C([H])([H])[H])C([H])([H])[H])C([H])([H])c2c([H])c(OC([H])([H])c3c([H])c(C([H])([H])[H])c(C([H])([H])C([H])([H])C([H])([H])C([H])([H])C([H])([H])C([H])([H])C([H])([H])C([H])([H])C([H])([H])N([H])C(=O)N4C([H])([H])C([H])([H])C([H])([H])C([H])(n5nc(-c6c([H])c([H])c(Oc7c([H])c([H])c(F)c([H])c7F)c([H])c6[H])c(C(=O)N([H])[H])c5N([H])[H])C4([H])[H])c([H])c3N(C([H])([H])[H])C([H])([H])[H])c([H])c([H])c2C1([H])[H]

>  <smiles>  (67) 
[H]c1c([H])c([H])c2c(c1[H])C([H])([H])C([H])([H])C([H])([H])C2([H])N([H])C(=O)C1([H])N(C(=O)C([H])(N([H])C(=O)C([H])(N([H])C([H])([H])[H])C([H])([H])[H])C(C([H])([H])[H])(C([H])([H])[H])C([H])([H])[H])C([H])([H])c2c([H])c(OC([H])([H])c3c([H])c(C([H])([H])[H])c(C([H])([H])C([H])([H])C([H])([H])C([H])([H])C([H])([H])C([H])([H])C([H])([H])C([H])([H])C([H])([H])N([H])C(=O)N4C([H])([H])C([H])([H])C([H])([H])C([H])(n5nc(-c6c([H])c([H])c(Oc7c([H])c([H])c(F)c([H])c7F)c([H])c6[H])c(C(=O)N([H])[H])c5N([H])[H])C4([H])[H])c([H])c3N(C([H])([H])[H])C([H])([H])[H])c([H])c([H])c2C1([H])[H]

$$$$
67:0:0
     RDKit          3D

 95102  0  0  1  0  0  0  0  0999 V2000
  -30.8010  -21.1250   21.4610 C   0  0  0  0  0  2  0  0  0  0  0  0
  -31.9250  -17.4410   21.1780 C   0  0  0  0  0  3  0  0  0  0  0  0
  -29.5500  -18.9440   20.8880 C   0  0  0  0  0  0  0  0  0  0  0  0
  -30.7730  -19.6140   21.1800 C   0  0  0  0  0  0  0  0  0  0  0  0
  -30.7070  -16.7650   20.9380 C   0  0  0  0  0  0  0  0  0  0  0  0
  -31.9590  -18.8450   21.3010 C   0  0  0  0  0  0  0  0  0  0  0  0
  -29.5270  -17.5270   20.7880 C   0  0  0  0  0  3  0  0  0  0  0  0
  -28.2450  -19.7210   20.7210 C   0  0  0  0  0  1  0  0  0  0  0  0
  -33.4840  -19.5950   21.6240 Cl  0  0  0  0  0  0  0  0  0  0  0  0
  -28.0320  -16.6930   20.5030 Cl  0  0  0  0  0 15  0  0  0  0  0  0
  -31.1510  -14.4570   20.0100 C   0  0  0  0  0  0  0  0  0  0  0  0
  -30.7240  -12.3770   18.7510 C   0  0  0  0  0  2  0  0  0  0  0  0
  -29.7120  -12.6650   17.6220 C   0  0  0  0  0  2  0  0  0  0  0  0
  -28.2610  -12.5570   18.1340 C   0  0  0  0  0  2  0  0  0  0  0  0
  -28.0310  -13.3410   19.4540 C   0  0  0  0  0  3  0  0  0  0  0  0
  -29.1390  -13.0050   20.4780 C   0  0  0  0  0  2  0  0  0  0  0  0
  -30.4450  -13.3040   19.8570 N   0  0  0  0  0  0  0  0  0  0  0  0
  -32.2060  -14.6800   19.4100 O   0  0  0  0  0  0  0  0  0  0  0  0
  -30.5720  -15.3460   20.8340 N   0  0  0  0  0  0  0  0  0  0  0  0
  -29.7710  -14.9780   21.3270 H   0  0  0  0  0  0  0  0  0  0  0  0
  -25.6880  -13.9970   20.3000 C   0  0  0  0  0  0  0  0  0  0  0  0
  -24.6220  -13.2450   20.7120 C   0  0  0  0  0  0  0  0  0  0  0  0
  -25.0440  -11.8820   20.6270 C   0  0  0  0  0  0  0  0  0  0  0  0
  -26.6970  -13.0950   19.9980 N   0  0  0  0  0  0  0  0  0  0  0  0
  -26.3130  -11.8160   20.2470 N   0  0  0  0  0  0  0  0  0  0  0  0
  -24.2960  -10.6350   20.8310 C   0  0  0  0  0  0  0  0  0  0  0  0
  -24.6930   -9.6870   21.8000 C   0  0  0  0  0  3  0  0  0  0  0  0
  -23.9480   -8.5040   21.9890 C   0  0  0  0  0  3  0  0  0  0  0  0
  -22.7920   -8.2590   21.2090 C   0  0  0  0  0  0  0  0  0  0  0  0
  -22.4150   -9.1950   20.2310 C   0  0  0  0  0  3  0  0  0  0  0  0
  -23.1610  -10.3700   20.0390 C   0  0  0  0  0  3  0  0  0  0  0  0
  -22.0220   -7.1260   21.3060 O   0  0  0  0  0  0  0  0  0  0  0  0
  -21.8150   -6.4960   22.5080 C   0  0  0  0  0  0  0  0  0  0  0  0
  -21.2580   -7.1710   23.6160 C   0  0  0  0  0  3  0  0  0  0  0  0
  -20.9980   -6.4690   24.8090 C   0  0  0  0  0  3  0  0  0  0  0  0
  -21.2830   -5.0930   24.8940 C   0  0  0  0  0  0  0  0  0  0  0  0
  -21.8330   -4.4190   23.7890 C   0  0  0  0  0  3  0  0  0  0  0  0
  -22.0940   -5.1180   22.5990 C   0  0  0  0  0  0  0  0  0  0  0  0
  -22.6040   -4.4580   21.5310 F   0  0  0  0  0  0  0  0  0  0  0  0
  -21.0260   -4.4160   26.0380 F   0  0  0  0  0  0  0  0  0  0  0  0
  -23.2560  -13.7500   21.0750 C   0  0  0  0  0  0  0  0  0  0  0  0
  -22.5790  -13.0800   22.0010 N   0  0  0  0  0  0  0  0  0  0  0  0
  -22.7980  -14.7750   20.5710 O   0  0  0  0  0  0  0  0  0  0  0  0
  -22.9620  -12.2500   22.4300 H   0  0  0  0  0  0  0  0  0  0  0  0
  -21.6640  -13.4010   22.2860 H   0  0  0  0  0  0  0  0  0  0  0  0
  -25.8780  -15.3650   20.1380 N   0  0  0  0  0  0  0  0  0  0  0  0
  -25.1490  -16.0420   20.3300 H   0  0  0  0  0  0  0  0  0  0  0  0
  -26.7400  -15.7910   19.8210 H   0  0  0  0  0  0  0  0  0  0  0  0
  -30.2520  -21.9720   20.3730 N   0  0  0  0  0  4  0  0  0  0  0  0
  -29.4530  -21.5150   19.9680 H   0  0  0  0  0  0  0  0  0  0  0  0
  -30.9530  -22.0570   19.6540 H   0  0  0  0  0  0  0  0  0  0  0  0
  -29.8540  -23.3260   20.8410 C   0  0  0  0  0  2  0  0  0  0  0  0
  -29.3090  -24.2540   19.7300 C   0  0  0  0  0  2  0  0  0  0  0  0
  -28.8830  -25.6320   20.2830 C   0  0  0  0  0  2  0  0  0  0  0  0
  -28.5710  -26.5410   19.2270 O   0  0  0  0  0  0  0  0  0  0  0  0
  -24.6970  -31.3070   22.8500 C   0  0  0  0  0  0  0  0  0  0  0  0
  -27.3840  -27.2140   19.3700 C   0  0  0  0  0  0  0  0  0  0  0  0
  -23.4870  -30.0030   21.1300 C   0  0  0  0  0  3  0  0  0  0  0  0
  -24.9460  -28.6200   19.5600 C   0  0  0  0  0  0  0  0  0  0  0  0
  -25.9920  -30.4560   20.8990 C   0  0  0  0  0  2  0  0  0  0  0  0
  -26.1010  -29.1390   20.1590 C   0  0  0  0  0  0  0  0  0  0  0  0
  -27.3260  -28.4420   20.0640 C   0  0  0  0  0  3  0  0  0  0  0  0
  -26.2160  -26.6980   18.7750 C   0  0  0  0  0  3  0  0  0  0  0  0
  -24.9950  -27.3940   18.8690 C   0  0  0  0  0  3  0  0  0  0  0  0
  -23.6800  -29.4340   19.6980 C   0  0  0  0  0  2  0  0  0  0  0  0
  -24.7450  -30.5990   21.6850 N   0  0  0  0  0  0  0  0  0  0  0  0
  -23.6250  -31.5030   23.4370 O   0  0  0  0  0  0  0  0  0  0  0  0
  -22.8890  -28.8910   22.0230 C   0  0  0  0  0  0  0  0  0  0  0  0
  -21.5670  -28.6830   21.9150 N   0  0  0  0  0  0  0  0  0  0  0  0
  -23.6120  -28.2230   22.7680 O   0  0  0  0  0  0  0  0  0  0  0  0
  -21.0440  -29.2790   21.2880 H   0  0  0  0  0  0  0  0  0  0  0  0
  -18.2400  -27.3600   22.3940 C   0  0  0  0  0  0  0  0  0  0  0  0
  -20.7960  -27.6650   22.6280 C   0  0  0  0  0  3  0  0  0  0  0  0
  -20.9210  -26.2870   21.9380 C   0  0  0  0  0  2  0  0  0  0  0  0
  -19.8030  -26.0160   20.9270 C   0  0  0  0  0  2  0  0  0  0  0  0
  -18.4350  -26.0730   21.6110 C   0  0  0  0  0  2  0  0  0  0  0  0
  -19.3490  -28.1170   22.8580 C   0  0  0  0  0  0  0  0  0  0  0  0
  -19.1130  -29.3250   23.5480 C   0  0  0  0  0  3  0  0  0  0  0  0
  -17.8010  -29.7780   23.7800 C   0  0  0  0  0  3  0  0  0  0  0  0
  -16.7050  -29.0180   23.3330 C   0  0  0  0  0  3  0  0  0  0  0  0
  -16.9270  -27.8110   22.6450 C   0  0  0  0  0  3  0  0  0  0  0  0
  -25.9820  -31.9240   23.4860 C   0  0  0  0  0  3  0  0  0  0  0  0
  -25.6330  -33.2630   23.9790 N   0  0  0  0  0  0  0  0  0  0  0  0
  -25.9240  -34.4050   23.3430 C   0  0  0  0  0  0  0  0  0  0  0  0
  -26.5860  -34.4430   22.3030 O   0  0  0  0  0  0  0  0  0  0  0  0
  -25.0430  -33.3050   24.7970 H   0  0  0  0  0  0  0  0  0  0  0  0
  -24.1430  -36.1730   23.2000 C   0  0  0  0  0  1  0  0  0  0  0  0
  -25.3970  -35.7150   23.9610 C   0  0  0  0  0  3  0  0  0  0  0  0
  -27.5060  -36.5570   24.8940 C   0  0  0  0  0  1  0  0  0  0  0  0
  -26.3990  -36.8040   23.9750 N   0  0  0  0  0  0  0  0  0  0  0  0
  -25.9650  -37.6870   24.2290 H   0  0  0  0  0  0  0  0  0  0  0  0
  -26.5870  -31.0420   24.6460 C   0  0  1  0  0  0  0  0  0  0  0  0
  -25.5530  -30.6380   25.7230 C   0  0  0  0  0  1  0  0  0  0  0  0
  -27.2090  -29.7450   24.0760 C   0  0  0  0  0  1  0  0  0  0  0  0
  -27.7330  -31.8090   25.3460 C   0  0  0  0  0  1  0  0  0  0  0  0
  2  6  1  0
  3  4  1  0
  4  6  2  0
  4  1  1  0
  5  2  2  0
  6  9  1  0
  7  3  2  0
  7  5  1  0
  8  3  1  0
 11 19  1  0
 12 17  1  0
 13 14  1  0
 13 12  1  0
 15 14  1  0
 15 24  1  0
 15 16  1  0
 17 11  1  0
 17 16  1  0
 18 11  2  0
 19  5  1  0
 19 20  1  0
 21 22  2  0
 22 41  1  0
 23 22  1  0
 23 26  1  0
 24 25  1  0
 24 21  1  0
 25 23  2  0
 26 27  1  0
 27 28  2  0
 29 32  1  0
 29 28  1  0
 30 29  2  0
 31 30  1  0
 31 26  2  0
 32 33  1  0
 33 38  2  0
 33 34  1  0
 34 35  2  0
 35 36  1  0
 36 40  1  0
 37 36  2  0
 38 37  1  0
 39 38  1  0
 41 42  1  0
 42 45  1  0
 42 44  1  0
 43 41  2  0
 46 21  1  0
 46 47  1  0
 48 46  1  0
 49 52  1  0
 49  1  1  0
 50 49  1  0
 51 49  1  0
 53 54  1  0
 53 52  1  0
 55 57  1  0
 55 54  1  0
 56 67  2  0
 57 62  1  0
 58 66  1  0
 58 68  1  0
 59 65  1  0
 59 61  1  0
 60 66  1  0
 61 60  1  0
 62 61  2  0
 63 64  1  0
 63 57  2  0
 64 59  2  0
 65 58  1  0
 66 56  1  0
 68 70  2  0
 69 68  1  0
 71 69  1  0
 72 81  2  0
 72 77  1  0
 73 69  1  0
 73 77  1  0
 74 73  1  0
 75 76  1  0
 75 74  1  0
 76 72  1  0
 77 78  2  0
 78 79  1  0
 80 79  2  0
 81 80  1  0
 82 56  1  0
 82 83  1  0
 82 92  1  0
 83 86  1  0
 84 88  1  0
 84 83  1  0
 85 84  2  0
 88 87  1  0
 88 90  1  0
 90 91  1  0
 90 89  1  0
 92 95  1  1
 92 93  1  0
 94 92  1  0
M  ISO  4  11 100  19 100  54 101  55 101
M  END
>  <TORSDO>  (68) 
F 21

>  <SCORE>  (68) 
-11.668

>  <name>  (68) 
67

>  <ligand_id>  (68) 
67

>  <original_smiles>  (68) 
[H]c1c([H])c([H])c2c(c1[H])C([H])([H])C([H])([H])C([H])([H])C2([H])N([H])C(=O)C1([H])N(C(=O)C([H])(N([H])C(=O)C([H])(N([H])C([H])([H])[H])C([H])([H])[H])C(C([H])([H])[H])(C([H])([H])[H])C([H])([H])[H])C([H])([H])c2c([H])c(OC([H])([H])C([H])([H])C([H])([H])[N+]([H])([H])C([H])([H])c3c(Cl)c([H])c(N([H])C(=O)N4C([H])([H])C([H])([H])C([H])([H])C([H])(n5nc(-c6c([H])c([H])c(Oc7c([H])c([H])c(F)c([H])c7F)c([H])c6[H])c(C(=O)N([H])[H])c5N([H])[H])C4([H])[H])c(Cl)c3C([H])([H])[H])c([H])c([H])c2C1([H])[H]

>  <smiles>  (68) 
[H]c1c([H])c([H])c2c(c1[H])C([H])([H])C([H])([H])C([H])([H])C2([H])N([H])C(=O)C1([H])N(C(=O)C([H])(N([H])C(=O)C([H])(N([H])C([H])([H])[H])C([H])([H])[H])C(C([H])([H])[H])(C([H])([H])[H])C([H])([H])[H])C([H])([H])c2c([H])c(OC([H])([H])C([H])([H])C([H])([H])[N+]([H])([H])C([H])([H])c3c(Cl)c([H])c(N([H])C(=O)N4C([H])([H])C([H])([H])C([H])([H])C([H])(n5nc(-c6c([H])c([H])c(Oc7c([H])c([H])c(F)c([H])c7F)c([H])c6[H])c(C(=O)N([H])[H])c5N([H])[H])C4([H])[H])c(Cl)c3C([H])([H])[H])c([H])c([H])c2C1([H])[H]

$$$$
68:0:0
     RDKit          3D

104112  0  0  1  0  0  0  0  0999 V2000
  -29.7980  -21.5180   20.4460 C   0  0  0  0  0  3  0  0  0  0  0  0
  -30.2590  -22.5590   21.2730 C   0  0  0  0  0  0  0  0  0  0  0  0
  -31.2120  -23.6760   19.3130 C   0  0  0  0  0  0  0  0  0  0  0  0
  -30.0050  -21.5600   19.0510 C   0  0  0  0  0  0  0  0  0  0  0  0
  -30.9600  -23.6410   20.7010 C   0  0  0  0  0  0  0  0  0  0  0  0
  -30.7360  -22.6310   18.4860 C   0  0  0  0  0  0  0  0  0  0  0  0
  -31.9990  -24.8320   18.7150 C   0  0  0  0  0  1  0  0  0  0  0  0
  -31.4140  -24.6440   21.4930 F   0  0  0  0  0  0  0  0  0  0  0  0
  -31.0430  -22.6720   16.7800 Cl  0  0  0  0  0  0  0  0  0  0  0  0
  -29.4970  -20.5220   18.2480 N   0  0  0  0  0  0  0  0  0  0  0  0
  -30.5880  -18.6220   17.0220 C   0  0  0  0  0  1  0  0  0  0  0  0
  -29.4980  -18.2470   19.2770 C   0  0  0  0  0  1  0  0  0  0  0  0
  -30.2280  -19.2510   18.3740 C   0  0  0  0  0  3  0  0  0  0  0  0
  -28.3470  -20.9840   16.0620 C   0  0  0  0  0  1  0  0  0  0  0  0
  -28.1950  -20.6840   17.5650 C   0  0  0  0  0  3  0  0  0  0  0  0
  -27.2120  -21.6930   18.2320 C   0  0  0  0  0  2  0  0  0  0  0  0
  -27.6080  -23.1910   18.1860 C   0  0  0  0  0  2  0  0  0  0  0  0
  -26.9080  -24.0400   19.2670 C   0  0  0  0  0  2  0  0  0  0  0  0
  -27.1150  -25.4420   19.0350 O   0  0  0  0  0  0  0  0  0  0  0  0
  -24.6850  -30.7740   23.0840 C   0  0  0  0  0  0  0  0  0  0  0  0
  -26.0790  -26.3250   19.2710 C   0  0  0  0  0  0  0  0  0  0  0  0
  -23.0600  -29.8180   21.4820 C   0  0  0  0  0  3  0  0  0  0  0  0
  -24.0270  -28.2250   19.7420 C   0  0  0  0  0  0  0  0  0  0  0  0
  -25.5670  -29.7440   20.9870 C   0  0  0  0  0  2  0  0  0  0  0  0
  -25.3210  -28.4570   20.2250 C   0  0  0  0  0  0  0  0  0  0  0  0
  -26.3480  -27.5160   19.9860 C   0  0  0  0  0  3  0  0  0  0  0  0
  -24.7680  -26.1200   18.7770 C   0  0  0  0  0  3  0  0  0  0  0  0
  -23.7460  -27.0590   19.0150 C   0  0  0  0  0  3  0  0  0  0  0  0
  -22.9850  -29.2830   20.0280 C   0  0  0  0  0  2  0  0  0  0  0  0
  -24.4670  -30.1150   21.9100 N   0  0  0  0  0  0  0  0  0  0  0  0
  -23.7420  -31.1700   23.7830 O   0  0  0  0  0  0  0  0  0  0  0  0
  -22.3300  -28.8240   22.4130 C   0  0  0  0  0  0  0  0  0  0  0  0
  -20.9910  -28.7770   22.3110 N   0  0  0  0  0  0  0  0  0  0  0  0
  -22.9650  -28.0980   23.1820 O   0  0  0  0  0  0  0  0  0  0  0  0
  -20.5420  -29.4160   21.6710 H   0  0  0  0  0  0  0  0  0  0  0  0
  -17.5490  -27.7560   22.6900 C   0  0  0  0  0  0  0  0  0  0  0  0
  -20.1030  -27.8890   23.0600 C   0  0  0  0  0  3  0  0  0  0  0  0
  -20.1560  -26.4460   22.5040 C   0  0  0  0  0  2  0  0  0  0  0  0
  -19.0800  -26.1660   21.4520 C   0  0  0  0  0  2  0  0  0  0  0  0
  -17.6830  -26.3910   22.0380 C   0  0  0  0  0  2  0  0  0  0  0  0
  -18.6860  -28.4670   23.1570 C   0  0  0  0  0  0  0  0  0  0  0  0
  -18.5100  -29.7480   23.7230 C   0  0  0  0  0  3  0  0  0  0  0  0
  -17.2280  -30.3190   23.8280 C   0  0  0  0  0  3  0  0  0  0  0  0
  -16.1030  -29.6050   23.3810 C   0  0  0  0  0  3  0  0  0  0  0  0
  -16.2640  -28.3250   22.8180 C   0  0  0  0  0  3  0  0  0  0  0  0
  -26.1280  -31.0840   23.5920 C   0  0  0  0  0  3  0  0  0  0  0  0
  -26.1260  -32.4520   24.1290 N   0  0  0  0  0  0  0  0  0  0  0  0
  -26.6130  -33.5220   23.4870 C   0  0  0  0  0  0  0  0  0  0  0  0
  -27.1850  -33.4440   22.3960 O   0  0  0  0  0  0  0  0  0  0  0  0
  -25.6410  -32.5970   25.0030 H   0  0  0  0  0  0  0  0  0  0  0  0
  -25.2860  -35.6550   23.4910 C   0  0  0  0  0  1  0  0  0  0  0  0
  -26.4420  -34.8960   24.1610 C   0  0  0  0  0  3  0  0  0  0  0  0
  -28.7400  -35.2020   24.9700 C   0  0  0  0  0  1  0  0  0  0  0  0
  -27.6680  -35.7240   24.1290 N   0  0  0  0  0  0  0  0  0  0  0  0
  -27.4660  -36.6740   24.4290 H   0  0  0  0  0  0  0  0  0  0  0  0
  -26.6410  -30.0570   24.6740 C   0  0  1  0  0  0  0  0  0  0  0  0
  -25.6600  -29.8480   25.8500 C   0  0  0  0  0  1  0  0  0  0  0  0
  -26.9050  -28.6790   24.0230 C   0  0  0  0  0  1  0  0  0  0  0  0
  -27.9900  -30.5410   25.2590 C   0  0  0  0  0  1  0  0  0  0  0  0
  -30.0150  -22.4890   22.7720 C   0  0  0  0  0  2  0  0  0  0  0  0
  -30.1380  -21.0580   23.3320 C   0  0  0  0  0  2  0  0  0  0  0  0
  -31.4830  -20.3810   23.0090 C   0  0  0  0  0  2  0  0  0  0  0  0
  -31.5300  -18.8760   23.3250 C   0  0  0  0  0  2  0  0  0  0  0  0
  -30.9990  -17.9940   22.1790 C   0  0  0  0  0  2  0  0  0  0  0  0
  -31.4860  -16.5390   22.2760 C   0  0  0  0  0  2  0  0  0  0  0  0
  -31.7560  -15.9050   20.9020 C   0  0  0  0  0  2  0  0  0  0  0  0
  -30.6860  -14.3020   19.3420 C   0  0  0  0  0  0  0  0  0  0  0  0
  -30.3000  -11.9970   18.5670 C   0  0  0  0  0  2  0  0  0  0  0  0
  -29.2220  -11.8510   17.4830 C   0  0  0  0  0  2  0  0  0  0  0  0
  -27.8320  -11.7100   18.1240 C   0  0  0  0  0  2  0  0  0  0  0  0
  -27.5480  -12.8230   19.1650 C   0  0  0  0  0  3  0  0  0  0  0  0
  -28.7170  -12.9700   20.1630 C   0  0  0  0  0  2  0  0  0  0  0  0
  -29.9730  -13.1520   19.4140 N   0  0  0  0  0  0  0  0  0  0  0  0
  -31.4650  -14.5700   18.4220 O   0  0  0  0  0  0  0  0  0  0  0  0
  -30.6890  -14.9970   20.4880 N   0  0  0  0  0  0  0  0  0  0  0  0
  -30.0570  -14.6710   21.2040 H   0  0  0  0  0  0  0  0  0  0  0  0
  -25.3450  -13.5110   20.3100 C   0  0  0  0  0  0  0  0  0  0  0  0
  -24.3070  -12.7740   20.8120 C   0  0  0  0  0  0  0  0  0  0  0  0
  -24.6670  -11.4040   20.6220 C   0  0  0  0  0  0  0  0  0  0  0  0
  -26.2790  -12.5920   19.8530 N   0  0  0  0  0  0  0  0  0  0  0  0
  -25.8800  -11.3160   20.0940 N   0  0  0  0  0  0  0  0  0  0  0  0
  -23.9020  -10.1730   20.8620 C   0  0  0  0  0  0  0  0  0  0  0  0
  -24.3470   -9.1950   21.7790 C   0  0  0  0  0  3  0  0  0  0  0  0
  -23.5860   -8.0280   22.0050 C   0  0  0  0  0  3  0  0  0  0  0  0
  -22.3660   -7.8310   21.3160 C   0  0  0  0  0  0  0  0  0  0  0  0
  -21.9410   -8.7960   20.3860 C   0  0  0  0  0  3  0  0  0  0  0  0
  -22.7010   -9.9550   20.1590 C   0  0  0  0  0  3  0  0  0  0  0  0
  -21.5740   -6.7170   21.4520 O   0  0  0  0  0  0  0  0  0  0  0  0
  -21.4720   -6.0480   22.6450 C   0  0  0  0  0  0  0  0  0  0  0  0
  -21.0330   -6.6880   23.8250 C   0  0  0  0  0  3  0  0  0  0  0  0
  -20.8770   -5.9470   25.0110 C   0  0  0  0  0  3  0  0  0  0  0  0
  -21.1490   -4.5650   25.0220 C   0  0  0  0  0  0  0  0  0  0  0  0
  -21.5810   -3.9250   23.8470 C   0  0  0  0  0  3  0  0  0  0  0  0
  -21.7390   -4.6640   22.6610 C   0  0  0  0  0  0  0  0  0  0  0  0
  -22.1350   -4.0370   21.5280 F   0  0  0  0  0  0  0  0  0  0  0  0
  -20.9920   -3.8510   26.1610 F   0  0  0  0  0  0  0  0  0  0  0  0
  -23.0100  -13.3060   21.3520 C   0  0  0  0  0  0  0  0  0  0  0  0
  -22.4270  -12.6230   22.3320 N   0  0  0  0  0  0  0  0  0  0  0  0
  -22.5290  -14.3600   20.9380 O   0  0  0  0  0  0  0  0  0  0  0  0
  -22.8300  -11.7680   22.6850 H   0  0  0  0  0  0  0  0  0  0  0  0
  -21.5640  -12.9610   22.7340 H   0  0  0  0  0  0  0  0  0  0  0  0
  -25.5650  -14.8800   20.1860 N   0  0  0  0  0  0  0  0  0  0  0  0
  -24.8770  -15.5680   20.4680 H   0  0  0  0  0  0  0  0  0  0  0  0
  -26.3860  -15.2890   19.7560 H   0  0  0  0  0  0  0  0  0  0  0  0
  1  2  1  0
  2 60  1  0
  3  5  1  0
  4  1  2  0
  5  2  2  0
  5  8  1  0
  6  4  1  0
  6  3  2  0
  7  3  1  0
  9  6  1  0
 10 13  1  0
 10  4  1  0
 11 13  1  0
 13 12  1  0
 15 14  1  0
 15 16  1  0
 15 10  1  0
 17 16  1  0
 17 18  1  0
 19 18  1  0
 19 21  1  0
 20 31  2  0
 21 26  1  0
 22 30  1  0
 22 32  1  0
 23 29  1  0
 23 25  1  0
 24 30  1  0
 25 24  1  0
 26 25  2  0
 27 28  1  0
 27 21  2  0
 28 23  2  0
 29 22  1  0
 30 20  1  0
 32 34  2  0
 33 32  1  0
 35 33  1  0
 36 45  2  0
 36 41  1  0
 37 33  1  0
 37 41  1  0
 38 37  1  0
 39 40  1  0
 39 38  1  0
 40 36  1  0
 41 42  2  0
 42 43  1  0
 44 43  2  0
 45 44  1  0
 46 20  1  0
 46 47  1  0
 46 56  1  0
 47 50  1  0
 48 47  1  0
 48 52  1  0
 49 48  2  0
 52 51  1  0
 54 52  1  0
 54 55  1  0
 54 53  1  0
 56 59  1  1
 56 57  1  0
 58 56  1  0
 60 61  1  0
 62 63  1  0
 62 61  1  0
 64 65  1  0
 64 63  1  0
 66 65  1  0
 67 73  1  0
 67 75  1  0
 68 73  1  0
 69 70  1  0
 69 68  1  0
 71 70  1  0
 71 80  1  0
 71 72  1  0
 73 72  1  0
 74 67  2  0
 75 66  1  0
 75 76  1  0
 77 78  2  0
 78 97  1  0
 79 78  1  0
 79 82  1  0
 80 81  1  0
 80 77  1  0
 81 79  2  0
 82 83  1  0
 83 84  2  0
 85 88  1  0
 85 84  1  0
 86 85  2  0
 87 86  1  0
 87 82  2  0
 88 89  1  0
 89 94  2  0
 89 90  1  0
 90 91  2  0
 91 92  1  0
 92 96  1  0
 93 92  2  0
 94 93  1  0
 95 94  1  0
 97 98  1  0
 98100  1  0
 98101  1  0
 99 97  2  0
102 77  1  0
102103  1  0
104102  1  0
M  ISO  4  18 101  19 101  67 100  75 100
M  END
>  <TORSDO>  (69) 
F 29

>  <SCORE>  (69) 
-7.741

>  <name>  (69) 
68

>  <ligand_id>  (69) 
68

>  <original_smiles>  (69) 
[H]c1c([H])c([H])c2c(c1[H])C([H])([H])C([H])([H])C([H])([H])C2([H])N([H])C(=O)C1([H])N(C(=O)C([H])(N([H])C(=O)C([H])(N([H])C([H])([H])[H])C([H])([H])[H])C(C([H])([H])[H])(C([H])([H])[H])C([H])([H])[H])C([H])([H])c2c([H])c(OC([H])([H])C([H])([H])C([H])([H])C([H])(N(c3c([H])c(C([H])([H])C([H])([H])C([H])([H])C([H])([H])C([H])([H])C([H])([H])C([H])([H])N([H])C(=O)N4C([H])([H])C([H])([H])C([H])([H])C([H])(n5nc(-c6c([H])c([H])c(Oc7c([H])c([H])c(F)c([H])c7F)c([H])c6[H])c(C(=O)N([H])[H])c5N([H])[H])C4([H])[H])c(F)c(C([H])([H])[H])c3Cl)C([H])(C([H])([H])[H])C([H])([H])[H])C([H])([H])[H])c([H])c([H])c2C1([H])[H]

>  <smiles>  (69) 
[H]c1c([H])c([H])c2c(c1[H])C([H])([H])C([H])([H])C([H])([H])C2([H])N([H])C(=O)C1([H])N(C(=O)C([H])(N([H])C(=O)C([H])(N([H])C([H])([H])[H])C([H])([H])[H])C(C([H])([H])[H])(C([H])([H])[H])C([H])([H])[H])C([H])([H])c2c([H])c(OC([H])([H])C([H])([H])C([H])([H])C([H])(N(c3c([H])c(C([H])([H])C([H])([H])C([H])([H])C([H])([H])C([H])([H])C([H])([H])C([H])([H])N([H])C(=O)N4C([H])([H])C([H])([H])C([H])([H])C([H])(n5nc(-c6c([H])c([H])c(Oc7c([H])c([H])c(F)c([H])c7F)c([H])c6[H])c(C(=O)N([H])[H])c5N([H])[H])C4([H])[H])c(F)c(C([H])([H])[H])c3Cl)C([H])(C([H])([H])[H])C([H])([H])[H])C([H])([H])[H])c([H])c([H])c2C1([H])[H]

$$$$
69:0:0
     RDKit          3D

103111  0  0  1  0  0  0  0  0999 V2000
  -30.8890  -24.6150   22.1780 C   0  0  0  0  0  3  0  0  0  0  0  0
  -30.0170  -24.6600   23.2830 C   0  0  0  0  0  0  0  0  0  0  0  0
  -29.7870  -23.4730   24.0360 C   0  0  0  0  0  0  0  0  0  0  0  0
  -30.4490  -22.2640   23.6660 C   0  0  0  0  0  0  0  0  0  0  0  0
  -31.2650  -22.2220   22.5000 C   0  0  0  0  0  0  0  0  0  0  0  0
  -31.4760  -23.4090   21.7670 C   0  0  0  0  0  0  0  0  0  0  0  0
  -28.8340  -23.5010   25.2350 C   0  0  0  0  0  1  0  0  0  0  0  0
  -30.2690  -21.0080   24.5160 C   0  0  0  0  0  1  0  0  0  0  0  0
  -32.2360  -23.4060   20.6470 F   0  0  0  0  0  0  0  0  0  0  0  0
  -29.3680  -26.0120   23.6010 C   0  0  0  0  0  2  0  0  0  0  0  0
  -28.1290  -26.2230   22.8210 N   0  0  0  0  0  4  0  0  0  0  0  0
  -28.1830  -25.6610   21.9870 H   0  0  0  0  0  0  0  0  0  0  0  0
  -28.1060  -27.1910   22.5390 H   0  0  0  0  0  0  0  0  0  0  0  0
  -26.8660  -25.9270   23.5270 C   0  0  0  0  0  2  0  0  0  0  0  0
  -25.7520  -25.4600   22.5760 C   0  0  0  0  0  2  0  0  0  0  0  0
  -25.8270  -23.9560   22.2020 C   0  0  0  0  0  2  0  0  0  0  0  0
  -26.1490  -23.6530   20.7250 C   0  0  0  0  0  2  0  0  0  0  0  0
  -27.6340  -23.7920   20.3200 C   0  0  0  0  0  2  0  0  0  0  0  0
  -27.9700  -24.7860   19.1830 C   0  0  0  0  0  2  0  0  0  0  0  0
  -27.9950  -26.1510   19.6170 O   0  0  0  0  0  0  0  0  0  0  0  0
  -24.5310  -31.2340   23.1370 C   0  0  0  0  0  0  0  0  0  0  0  0
  -26.8360  -26.9020   19.6640 C   0  0  0  0  0  0  0  0  0  0  0  0
  -23.2050  -30.0150   21.4460 C   0  0  0  0  0  3  0  0  0  0  0  0
  -24.5250  -28.5200   19.8650 C   0  0  0  0  0  0  0  0  0  0  0  0
  -25.7360  -30.2650   21.1790 C   0  0  0  0  0  2  0  0  0  0  0  0
  -25.7250  -28.9390   20.4520 C   0  0  0  0  0  0  0  0  0  0  0  0
  -26.8800  -28.1380   20.3470 C   0  0  0  0  0  3  0  0  0  0  0  0
  -25.6190  -26.5070   19.0610 C   0  0  0  0  0  3  0  0  0  0  0  0
  -24.4670  -27.3040   19.1650 C   0  0  0  0  0  3  0  0  0  0  0  0
  -23.3340  -29.4310   20.0150 C   0  0  0  0  0  2  0  0  0  0  0  0
  -24.5140  -30.5140   21.9790 N   0  0  0  0  0  0  0  0  0  0  0  0
  -23.4810  -31.5210   23.7280 O   0  0  0  0  0  0  0  0  0  0  0  0
  -22.5250  -28.9630   22.3530 C   0  0  0  0  0  0  0  0  0  0  0  0
  -21.1880  -28.8720   22.2620 N   0  0  0  0  0  0  0  0  0  0  0  0
  -23.1950  -28.2390   23.0930 O   0  0  0  0  0  0  0  0  0  0  0  0
  -20.7120  -29.5110   21.6400 H   0  0  0  0  0  0  0  0  0  0  0  0
  -17.7630  -27.8350   22.7730 C   0  0  0  0  0  0  0  0  0  0  0  0
  -20.3380  -27.9290   22.9860 C   0  0  0  0  0  3  0  0  0  0  0  0
  -20.3430  -26.5390   22.3090 C   0  0  0  0  0  2  0  0  0  0  0  0
  -19.1990  -26.3520   21.3080 C   0  0  0  0  0  2  0  0  0  0  0  0
  -17.8450  -26.5280   22.0010 C   0  0  0  0  0  2  0  0  0  0  0  0
  -18.9350  -28.5000   23.2220 C   0  0  0  0  0  0  0  0  0  0  0  0
  -18.8050  -29.7280   23.9070 C   0  0  0  0  0  3  0  0  0  0  0  0
  -17.5350  -30.2890   24.1430 C   0  0  0  0  0  3  0  0  0  0  0  0
  -16.3790  -29.6180   23.7110 C   0  0  0  0  0  3  0  0  0  0  0  0
  -16.4940  -28.3910   23.0320 C   0  0  0  0  0  3  0  0  0  0  0  0
  -25.8660  -31.7460   23.7620 C   0  0  0  0  0  3  0  0  0  0  0  0
  -25.6750  -33.1590   24.1160 N   0  0  0  0  0  0  0  0  0  0  0  0
  -26.0920  -34.1920   23.3720 C   0  0  0  0  0  0  0  0  0  0  0  0
  -26.7480  -34.0490   22.3360 O   0  0  0  0  0  0  0  0  0  0  0  0
  -25.0960  -33.3520   24.9210 H   0  0  0  0  0  0  0  0  0  0  0  0
  -24.5160  -36.1250   23.0530 C   0  0  0  0  0  1  0  0  0  0  0  0
  -25.7250  -35.6110   23.8510 C   0  0  0  0  0  3  0  0  0  0  0  0
  -27.9320  -36.3030   24.6740 C   0  0  0  0  0  1  0  0  0  0  0  0
  -26.8410  -36.5750   23.7410 N   0  0  0  0  0  0  0  0  0  0  0  0
  -26.5170  -37.5260   23.8960 H   0  0  0  0  0  0  0  0  0  0  0  0
  -26.3250  -30.9060   25.0170 C   0  0  1  0  0  0  0  0  0  0  0  0
  -25.2230  -30.7490   26.0900 C   0  0  0  0  0  1  0  0  0  0  0  0
  -26.7720  -29.4880   24.5930 C   0  0  0  0  0  1  0  0  0  0  0  0
  -27.5530  -31.5800   25.6740 C   0  0  0  0  0  1  0  0  0  0  0  0
  -31.9100  -20.9270   21.9920 C   0  0  0  0  0  2  0  0  0  0  0  0
  -30.9390  -19.7250   21.9770 C   0  0  0  0  0  2  0  0  0  0  0  0
  -31.2950  -18.6280   20.9640 C   0  0  0  0  0  2  0  0  0  0  0  0
  -30.4680  -17.3480   21.1830 C   0  0  0  0  0  2  0  0  0  0  0  0
  -30.5310  -16.4030   19.9760 C   0  0  0  0  0  2  0  0  0  0  0  0
  -30.7080  -13.9410   19.8710 C   0  0  0  0  0  0  0  0  0  0  0  0
  -30.1970  -11.7970   18.8080 C   0  0  0  0  0  2  0  0  0  0  0  0
  -29.1790  -12.0610   17.6850 C   0  0  0  0  0  2  0  0  0  0  0  0
  -27.7390  -11.9880   18.2320 C   0  0  0  0  0  2  0  0  0  0  0  0
  -27.5410  -12.8320   19.5210 C   0  0  0  0  0  3  0  0  0  0  0  0
  -28.6810  -12.5920   20.5370 C   0  0  0  0  0  2  0  0  0  0  0  0
  -29.9640  -12.8080   19.8490 N   0  0  0  0  0  0  0  0  0  0  0  0
  -31.8150  -14.0280   19.3340 O   0  0  0  0  0  0  0  0  0  0  0  0
  -30.0800  -15.0440   20.3010 N   0  0  0  0  0  0  0  0  0  0  0  0
  -29.1600  -14.9290   20.7000 H   0  0  0  0  0  0  0  0  0  0  0  0
  -25.2410  -13.5090   20.4590 C   0  0  0  0  0  0  0  0  0  0  0  0
  -24.1800  -12.7680   20.9110 C   0  0  0  0  0  0  0  0  0  0  0  0
  -24.5820  -11.4010   20.8030 C   0  0  0  0  0  0  0  0  0  0  0  0
  -26.2250  -12.5950   20.1160 N   0  0  0  0  0  0  0  0  0  0  0  0
  -25.8350  -11.3210   20.3780 N   0  0  0  0  0  0  0  0  0  0  0  0
  -23.8240  -10.1640   21.0300 C   0  0  0  0  0  0  0  0  0  0  0  0
  -24.2870   -9.1680   21.9190 C   0  0  0  0  0  3  0  0  0  0  0  0
  -23.5340   -7.9940   22.1340 C   0  0  0  0  0  3  0  0  0  0  0  0
  -22.3020   -7.8090   21.4630 C   0  0  0  0  0  0  0  0  0  0  0  0
  -21.8570   -8.7920   20.5620 C   0  0  0  0  0  3  0  0  0  0  0  0
  -22.6100   -9.9580   20.3440 C   0  0  0  0  0  3  0  0  0  0  0  0
  -21.5160   -6.6890   21.5900 O   0  0  0  0  0  0  0  0  0  0  0  0
  -21.5180   -5.9350   22.7360 C   0  0  0  0  0  0  0  0  0  0  0  0
  -21.1630   -6.4810   23.9890 C   0  0  0  0  0  3  0  0  0  0  0  0
  -21.1100   -5.6530   25.1290 C   0  0  0  0  0  3  0  0  0  0  0  0
  -21.4000   -4.2800   25.0160 C   0  0  0  0  0  0  0  0  0  0  0  0
  -21.7470   -3.7330   23.7670 C   0  0  0  0  0  3  0  0  0  0  0  0
  -21.8010   -4.5580   22.6300 C   0  0  0  0  0  0  0  0  0  0  0  0
  -22.1160   -4.0210   21.4260 F   0  0  0  0  0  0  0  0  0  0  0  0
  -21.3410   -3.4830   26.1090 F   0  0  0  0  0  0  0  0  0  0  0  0
  -22.8340  -13.2900   21.3190 C   0  0  0  0  0  0  0  0  0  0  0  0
  -22.1590  -12.5990   22.2300 N   0  0  0  0  0  0  0  0  0  0  0  0
  -22.3920  -14.3460   20.8680 O   0  0  0  0  0  0  0  0  0  0  0  0
  -22.5320  -11.7450   22.6190 H   0  0  0  0  0  0  0  0  0  0  0  0
  -21.2570  -12.9270   22.5410 H   0  0  0  0  0  0  0  0  0  0  0  0
  -25.4450  -14.8770   20.3000 N   0  0  0  0  0  0  0  0  0  0  0  0
  -24.7170  -15.5580   20.4860 H   0  0  0  0  0  0  0  0  0  0  0  0
  -26.2800  -15.2930   19.9050 H   0  0  0  0  0  0  0  0  0  0  0  0
  1  2  1  0
  2 10  1  0
  2  3  2  0
  3  7  1  0
  4  3  1  0
  4  8  1  0
  5  4  2  0
  6  1  2  0
  6  5  1  0
  9  6  1  0
 11 14  1  0
 11 10  1  0
 12 11  1  0
 13 11  1  0
 15 14  1  0
 16 15  1  0
 17 16  1  0
 18 17  1  0
 19 20  1  0
 19 18  1  0
 20 22  1  0
 21 32  2  0
 22 27  1  0
 23 31  1  0
 23 33  1  0
 24 30  1  0
 24 26  1  0
 25 31  1  0
 26 25  1  0
 27 26  2  0
 28 29  1  0
 28 22  2  0
 29 24  2  0
 30 23  1  0
 31 21  1  0
 33 35  2  0
 34 33  1  0
 36 34  1  0
 37 46  2  0
 37 42  1  0
 38 34  1  0
 38 42  1  0
 39 38  1  0
 40 41  1  0
 40 39  1  0
 41 37  1  0
 42 43  2  0
 43 44  1  0
 45 44  2  0
 46 45  1  0
 47 21  1  0
 47 48  1  0
 47 57  1  0
 48 51  1  0
 49 53  1  0
 49 48  1  0
 50 49  2  0
 53 52  1  0
 55 53  1  0
 55 56  1  0
 55 54  1  0
 57 60  1  1
 57 58  1  0
 59 57  1  0
 61  5  1  0
 62 61  1  0
 63 64  1  0
 63 62  1  0
 65 74  1  0
 65 64  1  0
 66 74  1  0
 67 72  1  0
 68 69  1  0
 68 67  1  0
 70 69  1  0
 70 79  1  0
 70 71  1  0
 72 66  1  0
 72 71  1  0
 73 66  2  0
 74 75  1  0
 76 77  2  0
 77 96  1  0
 78 77  1  0
 78 81  1  0
 79 80  1  0
 79 76  1  0
 80 78  2  0
 81 82  1  0
 82 83  2  0
 84 87  1  0
 84 83  1  0
 85 84  2  0
 86 85  1  0
 86 81  2  0
 87 88  1  0
 88 89  1  0
 89 90  2  0
 91 90  1  0
 91 95  1  0
 92 91  2  0
 93 88  2  0
 93 92  1  0
 94 93  1  0
 96 97  1  0
 97100  1  0
 97 99  1  0
 98 96  2  0
101 76  1  0
101102  1  0
103101  1  0
M  ISO  4  19 101  20 101  66 100  74 100
M  END
>  <TORSDO>  (70) 
F 29

>  <SCORE>  (70) 
-7.082

>  <name>  (70) 
69

>  <ligand_id>  (70) 
69

>  <original_smiles>  (70) 
[H]c1c([H])c([H])c2c(c1[H])C([H])([H])C([H])([H])C([H])([H])C2([H])N([H])C(=O)C1([H])N(C(=O)C([H])(N([H])C(=O)C([H])(N([H])C([H])([H])[H])C([H])([H])[H])C(C([H])([H])[H])(C([H])([H])[H])C([H])([H])[H])C([H])([H])c2c([H])c(OC([H])([H])C([H])([H])C([H])([H])C([H])([H])C([H])([H])C([H])([H])[N+]([H])([H])C([H])([H])c3c([H])c(F)c(C([H])([H])C([H])([H])C([H])([H])C([H])([H])C([H])([H])N([H])C(=O)N4C([H])([H])C([H])([H])C([H])([H])C([H])(n5nc(-c6c([H])c([H])c(Oc7c([H])c([H])c(F)c([H])c7F)c([H])c6[H])c(C(=O)N([H])[H])c5N([H])[H])C4([H])[H])c(C([H])([H])[H])c3C([H])([H])[H])c([H])c([H])c2C1([H])[H]

>  <smiles>  (70) 
[H]c1c([H])c([H])c2c(c1[H])C([H])([H])C([H])([H])C([H])([H])C2([H])N([H])C(=O)C1([H])N(C(=O)C([H])(N([H])C(=O)C([H])(N([H])C([H])([H])[H])C([H])([H])[H])C(C([H])([H])[H])(C([H])([H])[H])C([H])([H])[H])C([H])([H])c2c([H])c(OC([H])([H])C([H])([H])C([H])([H])C([H])([H])C([H])([H])C([H])([H])[N+]([H])([H])C([H])([H])c3c([H])c(F)c(C([H])([H])C([H])([H])C([H])([H])C([H])([H])C([H])([H])N([H])C(=O)N4C([H])([H])C([H])([H])C([H])([H])C([H])(n5nc(-c6c([H])c([H])c(Oc7c([H])c([H])c(F)c([H])c7F)c([H])c6[H])c(C(=O)N([H])[H])c5N([H])[H])C4([H])[H])c(C([H])([H])[H])c3C([H])([H])[H])c([H])c([H])c2C1([H])[H]

$$$$
70:0:0
     RDKit          3D

 98106  0  0  1  0  0  0  0  0999 V2000
  -26.2180  -19.9630   22.5670 N   0  0  0  0  0  4  0  0  0  0  0  0
  -27.0070  -20.3060   22.0490 H   0  0  0  0  0  0  0  0  0  0  0  0
  -26.4970  -19.8820   23.5310 H   0  0  0  0  0  0  0  0  0  0  0  0
  -25.8930  -18.6200   22.0500 C   0  0  0  0  0  2  0  0  0  0  0  0
  -27.9850  -17.7350   20.9610 C   0  0  0  0  0  3  0  0  0  0  0  0
  -27.1270  -17.7190   22.0810 C   0  0  0  0  0  0  0  0  0  0  0  0
  -27.4200  -16.8520   23.1690 C   0  0  0  0  0  0  0  0  0  0  0  0
  -29.3590  -15.9630   21.9290 C   0  0  0  0  0  0  0  0  0  0  0  0
  -29.0940  -16.8720   20.8790 C   0  0  0  0  0  0  0  0  0  0  0  0
  -28.5350  -15.9750   23.0790 C   0  0  0  0  0  0  0  0  0  0  0  0
  -26.5380  -16.8100   24.4160 C   0  0  0  0  0  1  0  0  0  0  0  0
  -29.8660  -16.9100   19.7690 F   0  0  0  0  0  0  0  0  0  0  0  0
  -28.8620  -14.8500   24.3580 Cl  0  0  0  0  0  0  0  0  0  0  0  0
  -30.7420  -14.3390   20.7380 C   0  0  0  0  0  0  0  0  0  0  0  0
  -30.4330  -12.2930   19.3880 C   0  0  0  0  0  2  0  0  0  0  0  0
  -29.4880  -12.5380   18.1940 C   0  0  0  0  0  2  0  0  0  0  0  0
  -28.0140  -12.3750   18.6100 C   0  0  0  0  0  2  0  0  0  0  0  0
  -27.6700  -13.1890   19.8810 C   0  0  0  0  0  3  0  0  0  0  0  0
  -28.7020  -12.8850   20.9910 C   0  0  0  0  0  2  0  0  0  0  0  0
  -30.0550  -13.1950   20.4860 N   0  0  0  0  0  0  0  0  0  0  0  0
  -31.7130  -14.7170   20.0730 O   0  0  0  0  0  0  0  0  0  0  0  0
  -30.3770  -14.9690   21.8630 N   0  0  0  0  0  0  0  0  0  0  0  0
  -30.2820  -14.3270   22.6370 H   0  0  0  0  0  0  0  0  0  0  0  0
  -25.2660  -13.8130   20.5600 C   0  0  0  0  0  0  0  0  0  0  0  0
  -24.1900  -13.0460   20.9170 C   0  0  0  0  0  0  0  0  0  0  0  0
  -24.6410  -11.6910   20.8750 C   0  0  0  0  0  0  0  0  0  0  0  0
  -26.3070  -12.9260   20.3360 N   0  0  0  0  0  0  0  0  0  0  0  0
  -25.9310  -11.6440   20.5740 N   0  0  0  0  0  0  0  0  0  0  0  0
  -23.9080  -10.4300   21.0430 C   0  0  0  0  0  0  0  0  0  0  0  0
  -24.3640   -9.4210   21.9200 C   0  0  0  0  0  3  0  0  0  0  0  0
  -23.6290   -8.2260   22.0770 C   0  0  0  0  0  3  0  0  0  0  0  0
  -22.4270   -8.0310   21.3550 C   0  0  0  0  0  0  0  0  0  0  0  0
  -21.9920   -9.0300   20.4660 C   0  0  0  0  0  3  0  0  0  0  0  0
  -22.7250  -10.2170   20.3060 C   0  0  0  0  0  3  0  0  0  0  0  0
  -21.6630   -6.8910   21.4240 O   0  0  0  0  0  0  0  0  0  0  0  0
  -21.6850   -6.0760   22.5270 C   0  0  0  0  0  0  0  0  0  0  0  0
  -21.4020   -6.5670   23.8220 C   0  0  0  0  0  3  0  0  0  0  0  0
  -21.3660   -5.6810   24.9180 C   0  0  0  0  0  3  0  0  0  0  0  0
  -21.6040   -4.3070   24.7250 C   0  0  0  0  0  0  0  0  0  0  0  0
  -21.8810   -3.8160   23.4370 C   0  0  0  0  0  3  0  0  0  0  0  0
  -21.9200   -4.6980   22.3420 C   0  0  0  0  0  0  0  0  0  0  0  0
  -22.1660   -4.2150   21.1000 F   0  0  0  0  0  0  0  0  0  0  0  0
  -21.5620   -3.4570   25.7790 F   0  0  0  0  0  0  0  0  0  0  0  0
  -22.7930  -13.5250   21.1810 C   0  0  0  0  0  0  0  0  0  0  0  0
  -22.0520  -12.8280   22.0320 N   0  0  0  0  0  0  0  0  0  0  0  0
  -22.3650  -14.5590   20.6690 O   0  0  0  0  0  0  0  0  0  0  0  0
  -22.4150  -11.9950   22.4740 H   0  0  0  0  0  0  0  0  0  0  0  0
  -21.1160  -13.1360   22.2520 H   0  0  0  0  0  0  0  0  0  0  0  0
  -25.4420  -15.1840   20.3870 N   0  0  0  0  0  0  0  0  0  0  0  0
  -24.6460  -15.8110   20.3830 H   0  0  0  0  0  0  0  0  0  0  0  0
  -26.2780  -15.5900   19.9870 H   0  0  0  0  0  0  0  0  0  0  0  0
  -25.1300  -20.9570   22.4480 C   0  0  0  0  0  2  0  0  0  0  0  0
  -25.6260  -22.3880   22.7540 C   0  0  0  0  0  2  0  0  0  0  0  0
  -26.7300  -22.8580   21.7870 C   0  0  0  0  0  2  0  0  0  0  0  0
  -27.1500  -24.3280   21.9640 C   0  0  0  0  0  2  0  0  0  0  0  0
  -28.4130  -24.6310   21.1350 C   0  0  0  0  0  2  0  0  0  0  0  0
  -28.8580  -26.1050   21.1650 C   0  0  0  0  0  2  0  0  0  0  0  0
  -28.4070  -26.7630   19.9880 O   0  0  0  0  0  0  0  0  0  0  0  0
  -24.6110  -31.8670   23.2130 C   0  0  0  0  0  0  0  0  0  0  0  0
  -27.2390  -27.4700   20.0960 C   0  0  0  0  0  0  0  0  0  0  0  0
  -23.3990  -30.4900   21.5520 C   0  0  0  0  0  3  0  0  0  0  0  0
  -24.8470  -28.9550   20.1240 C   0  0  0  0  0  0  0  0  0  0  0  0
  -25.9240  -30.8430   21.3640 C   0  0  0  0  0  2  0  0  0  0  0  0
  -26.0010  -29.4750   20.7250 C   0  0  0  0  0  0  0  0  0  0  0  0
  -27.2030  -28.7350   20.7180 C   0  0  0  0  0  3  0  0  0  0  0  0
  -26.0760  -26.9550   19.4910 C   0  0  0  0  0  3  0  0  0  0  0  0
  -24.8760  -27.6910   19.5070 C   0  0  0  0  0  3  0  0  0  0  0  0
  -23.6080  -29.8190   20.1670 C   0  0  0  0  0  2  0  0  0  0  0  0
  -24.6620  -31.0810   22.1010 N   0  0  0  0  0  0  0  0  0  0  0  0
  -23.5310  -32.1420   23.7530 O   0  0  0  0  0  0  0  0  0  0  0  0
  -22.7390  -29.4650   22.5010 C   0  0  0  0  0  0  0  0  0  0  0  0
  -21.4120  -29.3010   22.3730 N   0  0  0  0  0  0  0  0  0  0  0  0
  -23.4180  -28.8210   23.3050 O   0  0  0  0  0  0  0  0  0  0  0  0
  -20.9270  -29.8700   21.6940 H   0  0  0  0  0  0  0  0  0  0  0  0
  -18.0270  -28.1370   22.8450 C   0  0  0  0  0  0  0  0  0  0  0  0
  -20.5850  -28.3650   23.1320 C   0  0  0  0  0  3  0  0  0  0  0  0
  -20.6760  -26.9380   22.5460 C   0  0  0  0  0  2  0  0  0  0  0  0
  -19.5780  -26.6350   21.5200 C   0  0  0  0  0  2  0  0  0  0  0  0
  -18.1950  -26.7910   22.1580 C   0  0  0  0  0  2  0  0  0  0  0  0
  -19.1500  -28.8820   23.2890 C   0  0  0  0  0  0  0  0  0  0  0  0
  -18.9420  -30.1420   23.8900 C   0  0  0  0  0  3  0  0  0  0  0  0
  -17.6430  -30.6550   24.0550 C   0  0  0  0  0  3  0  0  0  0  0  0
  -16.5340  -29.9050   23.6300 C   0  0  0  0  0  3  0  0  0  0  0  0
  -16.7260  -28.6480   23.0320 C   0  0  0  0  0  3  0  0  0  0  0  0
  -25.9020  -32.4830   23.8410 C   0  0  0  0  0  3  0  0  0  0  0  0
  -25.5890  -33.8640   24.2340 N   0  0  0  0  0  0  0  0  0  0  0  0
  -25.9020  -34.9490   23.5130 C   0  0  0  0  0  0  0  0  0  0  0  0
  -26.5580  -34.8930   22.4690 O   0  0  0  0  0  0  0  0  0  0  0  0
  -25.0050  -33.9800   25.0500 H   0  0  0  0  0  0  0  0  0  0  0  0
  -24.1490  -36.7330   23.2630 C   0  0  0  0  0  1  0  0  0  0  0  0
  -25.4090  -36.3120   24.0340 C   0  0  0  0  0  3  0  0  0  0  0  0
  -27.5580  -37.1810   24.8460 C   0  0  0  0  0  1  0  0  0  0  0  0
  -26.4290  -37.3800   23.9410 N   0  0  0  0  0  0  0  0  0  0  0  0
  -26.0160  -38.2870   24.1400 H   0  0  0  0  0  0  0  0  0  0  0  0
  -26.4440  -31.6620   25.0750 C   0  0  1  0  0  0  0  0  0  0  0  0
  -25.3720  -31.3770   26.1520 C   0  0  0  0  0  1  0  0  0  0  0  0
  -27.0240  -30.3050   24.6130 C   0  0  0  0  0  1  0  0  0  0  0  0
  -27.6030  -32.4330   25.7500 C   0  0  0  0  0  1  0  0  0  0  0  0
  1  3  1  0
  2  1  1  0
  4  6  1  0
  4  1  1  0
  5  6  1  0
  6  7  2  0
  7 11  1  0
  8 10  2  0
  9  5  2  0
  9  8  1  0
 10  7  1  0
 10 13  1  0
 12  9  1  0
 14 22  1  0
 15 20  1  0
 16 17  1  0
 16 15  1  0
 18 17  1  0
 18 27  1  0
 18 19  1  0
 20 14  1  0
 20 19  1  0
 21 14  2  0
 22  8  1  0
 22 23  1  0
 24 25  2  0
 25 44  1  0
 26 25  1  0
 26 29  1  0
 27 24  1  0
 27 28  1  0
 28 26  2  0
 29 30  1  0
 30 31  2  0
 32 35  1  0
 32 31  1  0
 33 32  2  0
 34 33  1  0
 34 29  2  0
 35 36  1  0
 36 37  1  0
 37 38  2  0
 39 38  1  0
 39 43  1  0
 40 39  2  0
 41 36  2  0
 41 40  1  0
 42 41  1  0
 44 45  1  0
 45 48  1  0
 45 47  1  0
 46 44  2  0
 49 24  1  0
 50 49  1  0
 51 49  1  0
 52  1  1  0
 52 53  1  0
 54 55  1  0
 54 53  1  0
 56 57  1  0
 56 55  1  0
 58 60  1  0
 58 57  1  0
 59 70  2  0
 60 65  1  0
 61 69  1  0
 61 71  1  0
 62 68  1  0
 62 64  1  0
 63 69  1  0
 64 63  1  0
 65 64  2  0
 66 67  1  0
 66 60  2  0
 67 62  2  0
 68 61  1  0
 69 59  1  0
 71 73  2  0
 72 71  1  0
 74 72  1  0
 75 84  2  0
 75 80  1  0
 76 72  1  0
 76 80  1  0
 77 76  1  0
 78 79  1  0
 78 77  1  0
 79 75  1  0
 80 81  2  0
 81 82  1  0
 83 82  2  0
 84 83  1  0
 85 59  1  0
 85 86  1  0
 85 95  1  0
 86 89  1  0
 87 91  1  0
 87 86  1  0
 88 87  2  0
 91 90  1  0
 93 91  1  0
 93 94  1  0
 93 92  1  0
 95 98  1  1
 95 96  1  0
 97 95  1  0
M  ISO  4  14 100  22 100  57 101  58 101
M  END
>  <TORSDO>  (71) 
F 24

>  <SCORE>  (71) 
50.081

>  <name>  (71) 
70

>  <ligand_id>  (71) 
70

>  <original_smiles>  (71) 
[H]c1c([H])c([H])c2c(c1[H])C([H])([H])C([H])([H])C([H])([H])C2([H])N([H])C(=O)C1([H])N(C(=O)C([H])(N([H])C(=O)C([H])(N([H])C([H])([H])[H])C([H])([H])[H])C(C([H])([H])[H])(C([H])([H])[H])C([H])([H])[H])C([H])([H])c2c([H])c(OC([H])([H])C([H])([H])C([H])([H])C([H])([H])C([H])([H])C([H])([H])[N+]([H])([H])C([H])([H])c3c([H])c(F)c(N([H])C(=O)N4C([H])([H])C([H])([H])C([H])([H])C([H])(n5nc(-c6c([H])c([H])c(Oc7c([H])c([H])c(F)c([H])c7F)c([H])c6[H])c(C(=O)N([H])[H])c5N([H])[H])C4([H])[H])c(Cl)c3C([H])([H])[H])c([H])c([H])c2C1([H])[H]

>  <smiles>  (71) 
[H]c1c([H])c([H])c2c(c1[H])C([H])([H])C([H])([H])C([H])([H])C2([H])N([H])C(=O)C1([H])N(C(=O)C([H])(N([H])C(=O)C([H])(N([H])C([H])([H])[H])C([H])([H])[H])C(C([H])([H])[H])(C([H])([H])[H])C([H])([H])[H])C([H])([H])c2c([H])c(OC([H])([H])C([H])([H])C([H])([H])C([H])([H])C([H])([H])C([H])([H])[N+]([H])([H])C([H])([H])c3c([H])c(F)c(N([H])C(=O)N4C([H])([H])C([H])([H])C([H])([H])C([H])(n5nc(-c6c([H])c([H])c(Oc7c([H])c([H])c(F)c([H])c7F)c([H])c6[H])c(C(=O)N([H])[H])c5N([H])[H])C4([H])[H])c(Cl)c3C([H])([H])[H])c([H])c([H])c2C1([H])[H]

$$$$
71:0:0
     RDKit          3D

 99109  0  0  1  0  0  0  0  0999 V2000
  -30.4790  -15.2560   20.3260 C   0  0  0  0  0  0  0  0  0  0  0  0
  -30.4370  -12.8020   19.4880 C   0  0  0  0  0  2  0  0  0  0  0  0
  -29.5220  -12.5470   18.2680 C   0  0  0  0  0  2  0  0  0  0  0  0
  -28.0650  -12.2980   18.7040 C   0  0  0  0  0  2  0  0  0  0  0  0
  -27.5980  -13.2570   19.8320 C   0  0  0  0  0  3  0  0  0  0  0  0
  -28.6650  -13.4510   20.9340 C   0  0  0  0  0  2  0  0  0  0  0  0
  -29.8790  -13.9630   20.2620 N   0  0  0  0  0  0  0  0  0  0  0  0
  -31.7170  -15.2040   20.3050 O   0  0  0  0  0  0  0  0  0  0  0  0
  -28.2870  -17.9770   21.3370 C   0  0  0  0  0  0  0  0  0  0  0  0
  -30.0050  -19.4170   20.6460 C   0  0  0  0  0  3  0  0  0  0  0  0
  -28.1600  -18.7640   22.5160 C   0  0  0  0  0  0  0  0  0  0  0  0
  -30.4180  -19.4910   22.0010 C   0  0  0  0  0  3  0  0  0  0  0  0
  -29.3500  -19.4450   22.9800 C   0  0  0  0  0  3  0  0  0  0  0  0
  -29.5050  -17.9690   20.6610 C   0  0  0  0  0  3  0  0  0  0  0  0
  -27.2060  -17.1400   20.7210 C   0  0  0  0  0  2  0  0  0  0  0  0
  -27.4580  -16.9520   19.1880 C   0  0  0  0  0  2  0  0  0  0  0  0
  -28.8910  -16.4510   18.8360 C   0  0  0  0  0  2  0  0  0  0  0  0
  -26.7790  -18.7900   23.1720 C   0  0  0  0  0  1  0  0  0  0  0  0
  -31.9080  -19.6160   22.2720 C   0  0  0  0  0  1  0  0  0  0  0  0
  -29.7920  -16.5420   19.9950 N   0  0  0  0  0  0  0  0  0  0  0  0
  -28.5760  -21.7540   19.2500 C   0  0  0  0  0  2  0  0  0  0  0  0
  -30.0060  -22.2720   21.0570 C   0  0  0  0  0  2  0  0  0  0  0  0
  -27.8350  -23.2540   19.4270 C   0  0  0  0  0  2  0  0  0  0  0  0
  -29.3100  -23.7370   21.2530 C   0  0  0  0  0  2  0  0  0  0  0  0
  -29.2010  -20.9710   20.5250 C   0  0  0  0  0  3  0  0  0  0  0  0
  -28.6510  -24.5200   20.0280 C   0  0  0  0  0  3  0  0  0  0  0  0
  -28.3700  -26.1020   20.2220 O   0  0  0  0  0  0  0  0  0  0  0  0
  -24.6530  -31.8350   23.1710 C   0  0  0  0  0  0  0  0  0  0  0  0
  -27.2500  -27.0440   20.1510 C   0  0  0  0  0  0  0  0  0  0  0  0
  -23.4570  -30.4400   21.5250 C   0  0  0  0  0  3  0  0  0  0  0  0
  -24.9110  -28.8310   20.1200 C   0  0  0  0  0  0  0  0  0  0  0  0
  -26.0150  -30.6750   21.3750 C   0  0  0  0  0  2  0  0  0  0  0  0
  -26.0890  -29.2720   20.7280 C   0  0  0  0  0  0  0  0  0  0  0  0
  -27.2490  -28.3960   20.7220 C   0  0  0  0  0  3  0  0  0  0  0  0
  -26.0340  -26.7090   19.5090 C   0  0  0  0  0  3  0  0  0  0  0  0
  -24.8980  -27.5650   19.5040 C   0  0  0  0  0  3  0  0  0  0  0  0
  -23.6850  -29.7360   20.1560 C   0  0  0  0  0  2  0  0  0  0  0  0
  -24.7290  -31.0080   22.0790 N   0  0  0  0  0  0  0  0  0  0  0  0
  -23.5650  -32.1220   23.6920 O   0  0  0  0  0  0  0  0  0  0  0  0
  -22.7570  -29.4510   22.4890 C   0  0  0  0  0  0  0  0  0  0  0  0
  -21.4260  -29.3030   22.3590 N   0  0  0  0  0  0  0  0  0  0  0  0
  -23.4160  -28.8110   23.3130 O   0  0  0  0  0  0  0  0  0  0  0  0
  -20.9520  -29.8600   21.6630 H   0  0  0  0  0  0  0  0  0  0  0  0
  -18.0290  -28.1360   22.8460 C   0  0  0  0  0  0  0  0  0  0  0  0
  -20.5930  -28.3730   23.1250 C   0  0  0  0  0  3  0  0  0  0  0  0
  -20.6810  -26.9420   22.5420 C   0  0  0  0  0  2  0  0  0  0  0  0
  -19.5790  -26.6350   21.5220 C   0  0  0  0  0  2  0  0  0  0  0  0
  -18.1960  -26.7900   22.1620 C   0  0  0  0  0  2  0  0  0  0  0  0
  -19.1550  -28.8850   23.2830 C   0  0  0  0  0  0  0  0  0  0  0  0
  -18.9480  -30.1450   23.8850 C   0  0  0  0  0  3  0  0  0  0  0  0
  -17.6490  -30.6590   24.0530 C   0  0  0  0  0  3  0  0  0  0  0  0
  -16.5360  -29.9070   23.6370 C   0  0  0  0  0  3  0  0  0  0  0  0
  -16.7280  -28.6490   23.0370 C   0  0  0  0  0  3  0  0  0  0  0  0
  -25.9250  -32.4670   23.8150 C   0  0  0  0  0  3  0  0  0  0  0  0
  -26.4550  -31.6580   25.0620 C   0  0  1  0  0  0  0  0  0  0  0  0
  -25.3680  -31.3490   26.1150 C   0  0  0  0  0  1  0  0  0  0  0  0
  -27.0620  -30.3100   24.6200 C   0  0  0  0  0  1  0  0  0  0  0  0
  -27.5900  -32.4440   25.7650 C   0  0  0  0  0  1  0  0  0  0  0  0
  -25.5930  -33.8460   24.2100 N   0  0  0  0  0  0  0  0  0  0  0  0
  -25.9090  -34.9410   23.5030 C   0  0  0  0  0  0  0  0  0  0  0  0
  -26.5740  -34.8950   22.4650 O   0  0  0  0  0  0  0  0  0  0  0  0
  -24.9830  -33.9530   25.0080 H   0  0  0  0  0  0  0  0  0  0  0  0
  -24.1510  -36.7210   23.2650 C   0  0  0  0  0  1  0  0  0  0  0  0
  -25.4160  -36.3020   24.0300 C   0  0  0  0  0  3  0  0  0  0  0  0
  -27.5600  -37.1790   24.8460 C   0  0  0  0  0  1  0  0  0  0  0  0
  -26.4290  -37.3780   23.9420 N   0  0  0  0  0  0  0  0  0  0  0  0
  -26.0140  -38.2840   24.1470 H   0  0  0  0  0  0  0  0  0  0  0  0
  -25.1960  -13.7700   20.5560 C   0  0  0  0  0  0  0  0  0  0  0  0
  -24.1480  -12.9970   20.9310 C   0  0  0  0  0  0  0  0  0  0  0  0
  -24.6340  -11.6610   20.8910 C   0  0  0  0  0  0  0  0  0  0  0  0
  -26.2730  -12.9250   20.3400 N   0  0  0  0  0  0  0  0  0  0  0  0
  -25.9350  -11.6380   20.6020 N   0  0  0  0  0  0  0  0  0  0  0  0
  -23.9090  -10.4030   21.0500 C   0  0  0  0  0  0  0  0  0  0  0  0
  -24.3640   -9.3970   21.9280 C   0  0  0  0  0  3  0  0  0  0  0  0
  -23.6250   -8.2060   22.0800 C   0  0  0  0  0  3  0  0  0  0  0  0
  -22.4240   -8.0180   21.3580 C   0  0  0  0  0  0  0  0  0  0  0  0
  -21.9920   -9.0150   20.4660 C   0  0  0  0  0  3  0  0  0  0  0  0
  -22.7300  -10.1980   20.3090 C   0  0  0  0  0  3  0  0  0  0  0  0
  -21.6540   -6.8830   21.4260 O   0  0  0  0  0  0  0  0  0  0  0  0
  -21.6800   -6.0690   22.5280 C   0  0  0  0  0  0  0  0  0  0  0  0
  -21.3960   -6.5610   23.8220 C   0  0  0  0  0  3  0  0  0  0  0  0
  -21.3650   -5.6780   24.9190 C   0  0  0  0  0  3  0  0  0  0  0  0
  -21.6060   -4.3050   24.7250 C   0  0  0  0  0  0  0  0  0  0  0  0
  -21.8810   -3.8120   23.4370 C   0  0  0  0  0  3  0  0  0  0  0  0
  -21.9160   -4.6930   22.3410 C   0  0  0  0  0  0  0  0  0  0  0  0
  -22.1650   -4.2140   21.0990 F   0  0  0  0  0  0  0  0  0  0  0  0
  -21.5650   -3.4520   25.7760 F   0  0  0  0  0  0  0  0  0  0  0  0
  -22.7530  -13.4840   21.1890 C   0  0  0  0  0  0  0  0  0  0  0  0
  -22.0190  -12.7940   22.0540 N   0  0  0  0  0  0  0  0  0  0  0  0
  -22.3240  -14.5150   20.6710 O   0  0  0  0  0  0  0  0  0  0  0  0
  -22.3810  -11.9620   22.4950 H   0  0  0  0  0  0  0  0  0  0  0  0
  -21.0890  -13.1090   22.2820 H   0  0  0  0  0  0  0  0  0  0  0  0
  -25.2550  -15.1220   20.3440 N   0  0  0  0  0  0  0  0  0  0  0  0
  -24.4280  -15.7050   20.4070 H   0  0  0  0  0  0  0  0  0  0  0  0
  -26.0640  -15.6040   19.9750 H   0  0  0  0  0  0  0  0  0  0  0  0
  -29.1350  -19.1920   25.5040 C   0  0  0  0  0  1  0  0  0  0  0  0
  -28.3670  -21.3540   24.3600 C   0  0  0  0  0  1  0  0  0  0  0  0
  -30.7470  -20.8540   24.7320 C   0  0  0  0  0  1  0  0  0  0  0  0
  -29.4000  -20.1920   24.3570 C   0  0  2  0  0  0  0  0  0  0  0  0
  2  7  1  0
  3  4  1  0
  3  2  1  0
  5  4  1  0
  5 71  1  0
  5  6  1  0
  7  1  1  0
  7  6  1  0
  8  1  2  0
  9 11  2  0
 10 25  1  0
 10 14  1  0
 10 12  1  0
 11 13  1  0
 11 18  1  0
 12 19  1  0
 12 13  1  0
 13 99  1  0
 14  9  1  0
 15  9  1  0
 16 15  1  0
 17 16  1  0
 17 20  1  0
 20  1  1  0
 20 14  1  0
 21 23  1  0
 22 24  1  0
 23 26  1  0
 25 21  1  0
 25 22  1  0
 26 27  1  0
 26 24  1  0
 28 39  2  0
 29 27  1  0
 29 34  1  0
 30 38  1  0
 30 40  1  0
 31 37  1  0
 31 33  1  0
 32 38  1  0
 33 32  1  0
 34 33  2  0
 35 29  2  0
 36 35  1  0
 36 31  2  0
 37 30  1  0
 38 28  1  0
 40 42  2  0
 41 40  1  0
 43 41  1  0
 44 53  2  0
 44 49  1  0
 45 41  1  0
 45 49  1  0
 46 45  1  0
 47 48  1  0
 47 46  1  0
 48 44  1  0
 49 50  2  0
 50 51  1  0
 52 51  2  0
 53 52  1  0
 54 28  1  0
 54 59  1  0
 54 55  1  0
 55 58  1  1
 55 56  1  0
 57 55  1  0
 59 62  1  0
 60 64  1  0
 60 59  1  0
 61 60  2  0
 64 63  1  0
 66 64  1  0
 66 67  1  0
 66 65  1  0
 68 69  2  0
 69 88  1  0
 70 69  1  0
 70 73  1  0
 71 68  1  0
 71 72  1  0
 72 70  2  0
 73 74  1  0
 74 75  2  0
 76 79  1  0
 76 75  1  0
 77 76  2  0
 78 77  1  0
 78 73  2  0
 79 80  1  0
 80 81  1  0
 81 82  2  0
 83 82  1  0
 83 87  1  0
 84 83  2  0
 85 80  2  0
 85 84  1  0
 86 85  1  0
 88 89  1  0
 89 92  1  0
 89 91  1  0
 90 88  2  0
 93 94  1  0
 93 68  1  0
 95 93  1  0
 99 97  1  6
 99 98  1  0
 99 96  1  0
M  ISO  4   1 100  20 100  26 101  27 101
M  END
>  <TORSDO>  (72) 
F 17

>  <SCORE>  (72) 
16.189

>  <name>  (72) 
71

>  <ligand_id>  (72) 
71

>  <original_smiles>  (72) 
[H]c1c([H])c([H])c2c(c1[H])C([H])([H])C([H])([H])C([H])([H])C2([H])N([H])C(=O)C1([H])N(C(=O)C([H])(N([H])C(=O)C([H])(N([H])C([H])([H])[H])C([H])([H])[H])C(C([H])([H])[H])(C([H])([H])[H])C([H])([H])[H])C([H])([H])c2c([H])c(OC3([H])C([H])([H])C([H])([H])C([H])(c4c5c(c(C([H])([H])[H])c(C(C([H])([H])[H])(C([H])([H])[H])C([H])([H])[H])c4C([H])([H])[H])C([H])([H])C([H])([H])C([H])([H])N5C(=O)N4C([H])([H])C([H])([H])C([H])([H])C([H])(n5nc(-c6c([H])c([H])c(Oc7c([H])c([H])c(F)c([H])c7F)c([H])c6[H])c(C(=O)N([H])[H])c5N([H])[H])C4([H])[H])C([H])([H])C3([H])[H])c([H])c([H])c2C1([H])[H]

>  <smiles>  (72) 
[H]c1c([H])c([H])c2c(c1[H])C([H])([H])C([H])([H])C([H])([H])C2([H])N([H])C(=O)C1([H])N(C(=O)C([H])(N([H])C(=O)C([H])(N([H])C([H])([H])[H])C([H])([H])[H])C(C([H])([H])[H])(C([H])([H])[H])C([H])([H])[H])C([H])([H])c2c([H])c(OC3([H])C([H])([H])C([H])([H])C([H])(c4c5c(c(C([H])([H])[H])c(C(C([H])([H])[H])(C([H])([H])[H])C([H])([H])[H])c4C([H])([H])[H])C([H])([H])C([H])([H])C([H])([H])N5C(=O)N4C([H])([H])C([H])([H])C([H])([H])C([H])(n5nc(-c6c([H])c([H])c(Oc7c([H])c([H])c(F)c([H])c7F)c([H])c6[H])c(C(=O)N([H])[H])c5N([H])[H])C4([H])[H])C([H])([H])C3([H])[H])c([H])c([H])c2C1([H])[H]

$$$$
72:0:0
     RDKit          3D

 98106  0  0  1  0  0  0  0  0999 V2000
  -29.2380  -18.7380   17.7410 C   0  0  0  0  0  3  0  0  0  0  0  0
  -29.0970  -19.3760   18.9890 C   0  0  0  0  0  0  0  0  0  0  0  0
  -30.2000  -19.3700   19.8740 C   0  0  0  0  0  0  0  0  0  0  0  0
  -30.4640  -18.1260   17.4230 C   0  0  0  0  0  0  0  0  0  0  0  0
  -31.3870  -18.7330   19.4610 C   0  0  0  0  0  0  0  0  0  0  0  0
  -30.6680  -17.4220   16.1000 C   0  0  0  0  0  1  0  0  0  0  0  0
  -31.5230  -18.1280   18.2620 N   0  0  0  0  0  0  0  0  0  0  0  0
  -30.1130  -20.1060   21.4400 Cl  0  0  0  0  0  0  0  0  0  0  0  0
  -32.4780  -18.7080   20.3340 N   0  0  0  0  0  0  0  0  0  0  0  0
  -32.2820  -19.2650   21.1580 H   0  0  0  0  0  0  0  0  0  0  0  0
  -33.0710  -17.4070   20.6280 C   0  0  0  0  0  2  0  0  0  0  0  0
  -32.3230  -16.6530   21.7470 C   0  0  0  0  0  2  0  0  0  0  0  0
  -30.8700  -16.2220   21.4220 C   0  0  0  0  0  2  0  0  0  0  0  0
  -30.7770  -14.2630   19.9050 C   0  0  0  0  0  0  0  0  0  0  0  0
  -30.1630  -12.3440   18.4810 C   0  0  0  0  0  2  0  0  0  0  0  0
  -29.1310  -12.6920   17.3940 C   0  0  0  0  0  2  0  0  0  0  0  0
  -27.7020  -12.5420   17.9440 C   0  0  0  0  0  2  0  0  0  0  0  0
  -27.5080  -13.3160   19.2690 C   0  0  0  0  0  3  0  0  0  0  0  0
  -28.6320  -12.9840   20.2710 C   0  0  0  0  0  2  0  0  0  0  0  0
  -29.9490  -13.2170   19.6440 N   0  0  0  0  0  0  0  0  0  0  0  0
  -31.5790  -14.6910   19.0700 O   0  0  0  0  0  0  0  0  0  0  0  0
  -30.7340  -13.9570   22.3700 C   0  0  0  0  0  1  0  0  0  0  0  0
  -30.7080  -14.7870   21.1560 N   0  0  0  0  0  0  0  0  0  0  0  0
  -25.1680  -13.9580   20.1420 C   0  0  0  0  0  0  0  0  0  0  0  0
  -24.1250  -13.2000   20.6040 C   0  0  0  0  0  0  0  0  0  0  0  0
  -24.5730  -11.8440   20.5590 C   0  0  0  0  0  0  0  0  0  0  0  0
  -26.1880  -13.0650   19.8470 N   0  0  0  0  0  0  0  0  0  0  0  0
  -25.8350  -11.7890   20.1530 N   0  0  0  0  0  0  0  0  0  0  0  0
  -23.8560  -10.5900   20.8250 C   0  0  0  0  0  0  0  0  0  0  0  0
  -24.3480   -9.6380   21.7460 C   0  0  0  0  0  3  0  0  0  0  0  0
  -23.6300   -8.4490   21.9980 C   0  0  0  0  0  3  0  0  0  0  0  0
  -22.4080   -8.2020   21.3290 C   0  0  0  0  0  0  0  0  0  0  0  0
  -21.9350   -9.1420   20.3960 C   0  0  0  0  0  3  0  0  0  0  0  0
  -22.6520  -10.3240   20.1440 C   0  0  0  0  0  3  0  0  0  0  0  0
  -21.6570   -7.0630   21.4900 O   0  0  0  0  0  0  0  0  0  0  0  0
  -21.6840   -6.3410   22.6560 C   0  0  0  0  0  0  0  0  0  0  0  0
  -21.3760   -6.9290   23.9030 C   0  0  0  0  0  3  0  0  0  0  0  0
  -21.3470   -6.1350   25.0680 C   0  0  0  0  0  3  0  0  0  0  0  0
  -21.6180   -4.7550   24.9870 C   0  0  0  0  0  0  0  0  0  0  0  0
  -21.9190   -4.1680   23.7460 C   0  0  0  0  0  3  0  0  0  0  0  0
  -21.9480   -4.9580   22.5830 C   0  0  0  0  0  0  0  0  0  0  0  0
  -22.2180   -4.3830   21.3860 F   0  0  0  0  0  0  0  0  0  0  0  0
  -21.5830   -3.9920   26.1040 F   0  0  0  0  0  0  0  0  0  0  0  0
  -22.7550  -13.6910   20.9770 C   0  0  0  0  0  0  0  0  0  0  0  0
  -22.1050  -13.0300   21.9280 N   0  0  0  0  0  0  0  0  0  0  0  0
  -22.2730  -14.6970   20.4570 O   0  0  0  0  0  0  0  0  0  0  0  0
  -22.5100  -12.2180   22.3690 H   0  0  0  0  0  0  0  0  0  0  0  0
  -21.1890  -13.3410   22.2190 H   0  0  0  0  0  0  0  0  0  0  0  0
  -25.3290  -15.3240   19.9310 N   0  0  0  0  0  0  0  0  0  0  0  0
  -24.5770  -15.9880   20.0790 H   0  0  0  0  0  0  0  0  0  0  0  0
  -26.1670  -15.7500   19.5540 H   0  0  0  0  0  0  0  0  0  0  0  0
  -27.7990  -20.0890   19.3440 C   0  0  0  0  0  2  0  0  0  0  0  0
  -27.9040  -21.6090   19.0970 C   0  0  0  0  0  2  0  0  0  0  0  0
  -27.6110  -22.4770   20.3320 C   0  0  0  0  0  2  0  0  0  0  0  0
  -28.3090  -23.8410   20.2430 C   0  0  0  0  0  2  0  0  0  0  0  0
  -28.0430  -24.7450   21.4560 C   0  0  0  0  0  2  0  0  0  0  0  0
  -28.8010  -26.0800   21.3620 C   0  0  0  0  0  2  0  0  0  0  0  0
  -28.5080  -26.7530   20.1400 O   0  0  0  0  0  0  0  0  0  0  0  0
  -24.5370  -31.7960   23.1900 C   0  0  0  0  0  0  0  0  0  0  0  0
  -27.3280  -27.4450   20.1560 C   0  0  0  0  0  0  0  0  0  0  0  0
  -23.3840  -30.3620   21.5330 C   0  0  0  0  0  3  0  0  0  0  0  0
  -24.8930  -28.8580   20.1330 C   0  0  0  0  0  0  0  0  0  0  0  0
  -25.8960  -30.7940   21.3590 C   0  0  0  0  0  2  0  0  0  0  0  0
  -26.0240  -29.4220   20.7360 C   0  0  0  0  0  0  0  0  0  0  0  0
  -27.2460  -28.7210   20.7530 C   0  0  0  0  0  3  0  0  0  0  0  0
  -26.1900  -26.8860   19.5440 C   0  0  0  0  0  3  0  0  0  0  0  0
  -24.9670  -27.5860   19.5370 C   0  0  0  0  0  3  0  0  0  0  0  0
  -23.6260  -29.6810   20.1580 C   0  0  0  0  0  2  0  0  0  0  0  0
  -24.6240  -30.9980   22.0870 N   0  0  0  0  0  0  0  0  0  0  0  0
  -23.4440  -32.0430   23.7160 O   0  0  0  0  0  0  0  0  0  0  0  0
  -22.7460  -29.3290   22.4870 C   0  0  0  0  0  0  0  0  0  0  0  0
  -21.4270  -29.1240   22.3490 N   0  0  0  0  0  0  0  0  0  0  0  0
  -23.4340  -28.7130   23.3050 O   0  0  0  0  0  0  0  0  0  0  0  0
  -20.9330  -29.6760   21.6620 H   0  0  0  0  0  0  0  0  0  0  0  0
  -18.0670  -27.8830   22.8170 C   0  0  0  0  0  0  0  0  0  0  0  0
  -20.6190  -28.1720   23.1100 C   0  0  0  0  0  3  0  0  0  0  0  0
  -20.7450  -26.7460   22.5270 C   0  0  0  0  0  2  0  0  0  0  0  0
  -19.6540  -26.4110   21.5050 C   0  0  0  0  0  2  0  0  0  0  0  0
  -18.2660  -26.5370   22.1390 C   0  0  0  0  0  2  0  0  0  0  0  0
  -19.1730  -28.6580   23.2580 C   0  0  0  0  0  0  0  0  0  0  0  0
  -18.9330  -29.9170   23.8480 C   0  0  0  0  0  3  0  0  0  0  0  0
  -17.6220  -30.4020   24.0060 C   0  0  0  0  0  3  0  0  0  0  0  0
  -16.5310  -29.6230   23.5820 C   0  0  0  0  0  3  0  0  0  0  0  0
  -16.7540  -28.3660   22.9950 C   0  0  0  0  0  3  0  0  0  0  0  0
  -25.8020  -32.4560   23.8250 C   0  0  0  0  0  3  0  0  0  0  0  0
  -26.3310  -31.6920   25.1000 C   0  0  1  0  0  0  0  0  0  0  0  0
  -25.2380  -31.4150   26.1580 C   0  0  0  0  0  1  0  0  0  0  0  0
  -26.9590  -30.3370   24.6980 C   0  0  0  0  0  1  0  0  0  0  0  0
  -27.4520  -32.5170   25.7780 C   0  0  0  0  0  1  0  0  0  0  0  0
  -25.4580  -33.8450   24.1540 N   0  0  0  0  0  0  0  0  0  0  0  0
  -25.7720  -34.9040   23.3960 C   0  0  0  0  0  0  0  0  0  0  0  0
  -26.4560  -34.8180   22.3720 O   0  0  0  0  0  0  0  0  0  0  0  0
  -24.8620  -33.9860   24.9560 H   0  0  0  0  0  0  0  0  0  0  0  0
  -24.0030  -36.6510   23.0240 C   0  0  0  0  0  1  0  0  0  0  0  0
  -25.2470  -36.2790   23.8480 C   0  0  0  0  0  3  0  0  0  0  0  0
  -27.3500  -37.2180   24.6980 C   0  0  0  0  0  1  0  0  0  0  0  0
  -26.2530  -37.3590   23.7440 N   0  0  0  0  0  0  0  0  0  0  0  0
  -25.8210  -38.2660   23.8920 H   0  0  0  0  0  0  0  0  0  0  0  0
  1  2  1  0
  2 52  1  0
  2  3  2  0
  3  8  1  0
  4  1  2  0
  4  7  1  0
  5  3  1  0
  5  9  1  0
  6  4  1  0
  7  5  2  0
  9 11  1  0
  9 10  1  0
 11 12  1  0
 13 12  1  0
 14 23  1  0
 15 20  1  0
 16 17  1  0
 16 15  1  0
 18 17  1  0
 18 27  1  0
 18 19  1  0
 20 14  1  0
 20 19  1  0
 21 14  2  0
 23 13  1  0
 23 22  1  0
 24 25  2  0
 25 44  1  0
 26 25  1  0
 26 29  1  0
 27 24  1  0
 27 28  1  0
 28 26  2  0
 29 30  1  0
 30 31  2  0
 32 35  1  0
 32 31  1  0
 33 32  2  0
 34 33  1  0
 34 29  2  0
 35 36  1  0
 36 37  1  0
 37 38  2  0
 39 38  1  0
 39 43  1  0
 40 39  2  0
 41 36  2  0
 41 40  1  0
 42 41  1  0
 44 45  1  0
 45 48  1  0
 45 47  1  0
 46 44  2  0
 49 50  1  0
 49 24  1  0
 51 49  1  0
 53 52  1  0
 53 54  1  0
 55 54  1  0
 55 56  1  0
 57 56  1  0
 58 60  1  0
 58 57  1  0
 59 70  2  0
 60 65  1  0
 61 69  1  0
 61 71  1  0
 62 68  1  0
 62 64  1  0
 63 69  1  0
 64 65  2  0
 64 63  1  0
 66 60  2  0
 67 66  1  0
 67 62  2  0
 68 61  1  0
 69 59  1  0
 71 73  2  0
 72 71  1  0
 74 72  1  0
 75 84  2  0
 75 80  1  0
 76 72  1  0
 76 80  1  0
 77 76  1  0
 78 79  1  0
 78 77  1  0
 79 75  1  0
 80 81  2  0
 81 82  1  0
 83 82  2  0
 84 83  1  0
 85 59  1  0
 85 90  1  0
 85 86  1  0
 86 89  1  1
 86 87  1  0
 88 86  1  0
 90 93  1  0
 91 95  1  0
 91 90  1  0
 92 91  2  0
 95 94  1  0
 97 95  1  0
 97 98  1  0
 97 96  1  0
M  ISO  4  14 100  23 100  57 101  58 101
M  END
>  <TORSDO>  (73) 
F 26

>  <SCORE>  (73) 
-8.296

>  <name>  (73) 
72

>  <ligand_id>  (73) 
72

>  <original_smiles>  (73) 
[H]c1c([H])c([H])c2c(c1[H])C([H])([H])C([H])([H])C([H])([H])C2([H])N([H])C(=O)C1([H])N(C(=O)C([H])(N([H])C(=O)C([H])(N([H])C([H])([H])[H])C([H])([H])[H])C(C([H])([H])[H])(C([H])([H])[H])C([H])([H])[H])C([H])([H])c2c([H])c(OC([H])([H])C([H])([H])C([H])([H])C([H])([H])C([H])([H])C([H])([H])c3c([H])c(C([H])([H])[H])nc(N([H])C([H])([H])C([H])([H])C([H])([H])N(C(=O)N4C([H])([H])C([H])([H])C([H])([H])C([H])(n5nc(-c6c([H])c([H])c(Oc7c([H])c([H])c(F)c([H])c7F)c([H])c6[H])c(C(=O)N([H])[H])c5N([H])[H])C4([H])[H])C([H])([H])[H])c3Cl)c([H])c([H])c2C1([H])[H]

>  <smiles>  (73) 
[H]c1c([H])c([H])c2c(c1[H])C([H])([H])C([H])([H])C([H])([H])C2([H])N([H])C(=O)C1([H])N(C(=O)C([H])(N([H])C(=O)C([H])(N([H])C([H])([H])[H])C([H])([H])[H])C(C([H])([H])[H])(C([H])([H])[H])C([H])([H])[H])C([H])([H])c2c([H])c(OC([H])([H])C([H])([H])C([H])([H])C([H])([H])C([H])([H])C([H])([H])c3c([H])c(C([H])([H])[H])nc(N([H])C([H])([H])C([H])([H])C([H])([H])N(C(=O)N4C([H])([H])C([H])([H])C([H])([H])C([H])(n5nc(-c6c([H])c([H])c(Oc7c([H])c([H])c(F)c([H])c7F)c([H])c6[H])c(C(=O)N([H])[H])c5N([H])[H])C4([H])[H])C([H])([H])[H])c3Cl)c([H])c([H])c2C1([H])[H]

$$$$
73:0:0
     RDKit          3D

 91 99  0  0  1  0  0  0  0  0999 V2000
  -30.5480  -20.5530   20.8800 C   0  0  0  0  0  3  0  0  0  0  0  0
  -29.3050  -20.3720   20.2610 C   0  0  0  0  0  0  0  0  0  0  0  0
  -29.8830  -17.7820   20.4360 C   0  0  0  0  0  0  0  0  0  0  0  0
  -28.9980  -18.9220   20.0580 C   0  0  0  0  0  0  0  0  0  0  0  0
  -31.0540  -18.2450   21.0990 C   0  0  0  0  0  0  0  0  0  0  0  0
  -32.0580  -17.3260   21.7730 C   0  0  0  0  0  1  0  0  0  0  0  0
  -31.3630  -19.5520   21.2830 N   0  0  0  0  0  0  0  0  0  0  0  0
  -27.4810  -18.4990   19.3470 Cl  0  0  0  0  0  0  0  0  0  0  0  0
  -30.3490  -15.0850   20.0320 C   0  0  0  0  0  0  0  0  0  0  0  0
  -30.1750  -12.7670   19.0060 C   0  0  0  0  0  2  0  0  0  0  0  0
  -29.1710  -12.7520   17.8320 C   0  0  0  0  0  2  0  0  0  0  0  0
  -27.7390  -12.5100   18.3460 C   0  0  0  0  0  2  0  0  0  0  0  0
  -27.3980  -13.3890   19.5780 C   0  0  0  0  0  3  0  0  0  0  0  0
  -28.5210  -13.3810   20.6370 C   0  0  0  0  0  2  0  0  0  0  0  0
  -29.7450  -13.8290   19.9620 N   0  0  0  0  0  0  0  0  0  0  0  0
  -31.5250  -15.1460   19.6650 O   0  0  0  0  0  0  0  0  0  0  0  0
  -29.5830  -16.2680   20.2760 N   0  0  0  0  0  0  0  0  0  0  0  0
  -28.5980  -16.0590   20.3360 H   0  0  0  0  0  0  0  0  0  0  0  0
  -25.0620  -13.9130   20.4800 C   0  0  0  0  0  0  0  0  0  0  0  0
  -24.0290  -13.1130   20.8850 C   0  0  0  0  0  0  0  0  0  0  0  0
  -24.5050  -11.7700   20.7790 C   0  0  0  0  0  0  0  0  0  0  0  0
  -26.0970  -13.0560   20.1460 N   0  0  0  0  0  0  0  0  0  0  0  0
  -25.7750  -11.7600   20.3910 N   0  0  0  0  0  0  0  0  0  0  0  0
  -23.8010  -10.4940   20.9650 C   0  0  0  0  0  0  0  0  0  0  0  0
  -24.2510   -9.5300   21.8940 C   0  0  0  0  0  3  0  0  0  0  0  0
  -23.5450   -8.3200   22.0700 C   0  0  0  0  0  3  0  0  0  0  0  0
  -22.3750   -8.0640   21.3160 C   0  0  0  0  0  0  0  0  0  0  0  0
  -21.9440   -9.0170   20.3760 C   0  0  0  0  0  3  0  0  0  0  0  0
  -22.6510  -10.2190   20.1990 C   0  0  0  0  0  3  0  0  0  0  0  0
  -21.6390   -6.9070   21.4020 O   0  0  0  0  0  0  0  0  0  0  0  0
  -21.5620   -6.1880   22.5680 C   0  0  0  0  0  0  0  0  0  0  0  0
  -21.0380   -6.7470   23.7540 C   0  0  0  0  0  3  0  0  0  0  0  0
  -20.9110   -5.9510   24.9100 C   0  0  0  0  0  3  0  0  0  0  0  0
  -21.2990   -4.5990   24.8810 C   0  0  0  0  0  0  0  0  0  0  0  0
  -21.8160   -4.0390   23.6990 C   0  0  0  0  0  3  0  0  0  0  0  0
  -21.9440   -4.8320   22.5450 C   0  0  0  0  0  0  0  0  0  0  0  0
  -22.4230   -4.2820   21.4030 F   0  0  0  0  0  0  0  0  0  0  0  0
  -21.1710   -3.8320   25.9890 F   0  0  0  0  0  0  0  0  0  0  0  0
  -22.6460  -13.5650   21.2530 C   0  0  0  0  0  0  0  0  0  0  0  0
  -21.9730  -12.8260   22.1270 N   0  0  0  0  0  0  0  0  0  0  0  0
  -22.1740  -14.6070   20.8010 O   0  0  0  0  0  0  0  0  0  0  0  0
  -22.3690  -11.9830   22.5150 H   0  0  0  0  0  0  0  0  0  0  0  0
  -21.0470  -13.1090   22.4160 H   0  0  0  0  0  0  0  0  0  0  0  0
  -25.1980  -15.2910   20.3410 N   0  0  0  0  0  0  0  0  0  0  0  0
  -24.4240  -15.9220   20.5160 H   0  0  0  0  0  0  0  0  0  0  0  0
  -26.0000  -15.7570   19.9380 H   0  0  0  0  0  0  0  0  0  0  0  0
  -28.2800  -21.7430   18.3170 C   0  0  0  0  0  1  0  0  0  0  0  0
  -28.4350  -21.7320   19.8480 C   0  0  0  0  0  3  0  0  0  0  0  0
  -28.7840  -23.3410   20.3000 C   0  0  0  0  0  3  0  0  0  0  0  0
  -27.8420  -24.7170   19.9510 C   0  0  0  0  0  3  0  0  0  0  0  0
  -28.1130  -26.2360   20.2320 O   0  0  0  0  0  0  0  0  0  0  0  0
  -24.5800  -31.9770   23.2500 C   0  0  0  0  0  0  0  0  0  0  0  0
  -27.0730  -27.2400   20.1690 C   0  0  0  0  0  0  0  0  0  0  0  0
  -23.3460  -30.5970   21.6240 C   0  0  0  0  0  3  0  0  0  0  0  0
  -24.7600  -29.0150   20.1720 C   0  0  0  0  0  0  0  0  0  0  0  0
  -25.9000  -30.8380   21.4250 C   0  0  0  0  0  2  0  0  0  0  0  0
  -25.9520  -29.4470   20.7670 C   0  0  0  0  0  0  0  0  0  0  0  0
  -27.1090  -28.5760   20.7480 C   0  0  0  0  0  3  0  0  0  0  0  0
  -25.8550  -26.9170   19.5300 C   0  0  0  0  0  3  0  0  0  0  0  0
  -24.7250  -27.7640   19.5360 C   0  0  0  0  0  3  0  0  0  0  0  0
  -23.5420  -29.9240   20.2400 C   0  0  0  0  0  2  0  0  0  0  0  0
  -24.6300  -31.1600   22.1540 N   0  0  0  0  0  0  0  0  0  0  0  0
  -23.5040  -32.2700   23.7930 O   0  0  0  0  0  0  0  0  0  0  0  0
  -22.6720  -29.5930   22.5930 C   0  0  0  0  0  0  0  0  0  0  0  0
  -21.3470  -29.4060   22.4590 N   0  0  0  0  0  0  0  0  0  0  0  0
  -23.3440  -28.9850   23.4290 O   0  0  0  0  0  0  0  0  0  0  0  0
  -20.8590  -29.9480   21.7590 H   0  0  0  0  0  0  0  0  0  0  0  0
  -17.9770  -28.1670   22.9480 C   0  0  0  0  0  0  0  0  0  0  0  0
  -20.5300  -28.4680   23.2350 C   0  0  0  0  0  3  0  0  0  0  0  0
  -20.6560  -27.0290   22.6820 C   0  0  0  0  0  2  0  0  0  0  0  0
  -19.5680  -26.6780   21.6620 C   0  0  0  0  0  2  0  0  0  0  0  0
  -18.1790  -26.8110   22.2910 C   0  0  0  0  0  2  0  0  0  0  0  0
  -19.0800  -28.9510   23.3770 C   0  0  0  0  0  0  0  0  0  0  0  0
  -18.8370  -30.2170   23.9520 C   0  0  0  0  0  3  0  0  0  0  0  0
  -17.5240  -30.7000   24.1020 C   0  0  0  0  0  3  0  0  0  0  0  0
  -16.4350  -29.9130   23.6880 C   0  0  0  0  0  3  0  0  0  0  0  0
  -16.6620  -28.6480   23.1170 C   0  0  0  0  0  3  0  0  0  0  0  0
  -25.8720  -32.6010   23.8610 C   0  0  0  0  0  3  0  0  0  0  0  0
  -26.3990  -31.8180   25.1260 C   0  0  1  0  0  0  0  0  0  0  0  0
  -25.3130  -31.5600   26.1960 C   0  0  0  0  0  1  0  0  0  0  0  0
  -26.9910  -30.4490   24.7200 C   0  0  0  0  0  1  0  0  0  0  0  0
  -27.5460  -32.6140   25.7930 C   0  0  0  0  0  1  0  0  0  0  0  0
  -25.5720  -33.9980   24.2130 N   0  0  0  0  0  0  0  0  0  0  0  0
  -25.8680  -35.0590   23.4510 C   0  0  0  0  0  0  0  0  0  0  0  0
  -26.4890  -34.9650   22.3880 O   0  0  0  0  0  0  0  0  0  0  0  0
  -25.0140  -34.1450   25.0410 H   0  0  0  0  0  0  0  0  0  0  0  0
  -24.1100  -36.8460   23.2150 C   0  0  0  0  0  1  0  0  0  0  0  0
  -25.4040  -36.4450   23.9420 C   0  0  0  0  0  3  0  0  0  0  0  0
  -27.5750  -37.3510   24.6470 C   0  0  0  0  0  1  0  0  0  0  0  0
  -26.4210  -37.5050   23.7650 N   0  0  0  0  0  0  0  0  0  0  0  0
  -26.0160  -38.4230   23.9290 H   0  0  0  0  0  0  0  0  0  0  0  0
  1  7  1  0
  2  1  2  0
  3  5  1  0
  4  2  1  0
  4  3  2  0
  5  7  2  0
  5  6  1  0
  8  4  1  0
  9 17  1  0
 10 15  1  0
 11 12  1  0
 11 10  1  0
 13 12  1  0
 13 22  1  0
 13 14  1  0
 15  9  1  0
 15 14  1  0
 16  9  2  0
 17 18  1  0
 17  3  1  0
 19 20  2  0
 20 39  1  0
 21 20  1  0
 21 24  1  0
 22 23  1  0
 22 19  1  0
 23 21  2  0
 24 25  1  0
 25 26  2  0
 27 30  1  0
 27 26  1  0
 28 27  2  0
 29 28  1  0
 29 24  2  0
 30 31  1  0
 31 32  1  0
 32 33  2  0
 34 33  1  0
 34 38  1  0
 35 34  2  0
 36 31  2  0
 36 35  1  0
 37 36  1  0
 39 40  1  0
 40 43  1  0
 40 42  1  0
 41 39  2  0
 44 19  1  0
 44 45  1  0
 46 44  1  0
 48 47  1  0
 48  2  1  0
 48 49  1  0
 50 51  1  0
 50 49  2  0
 52 63  2  0
 53 51  1  0
 53 58  1  0
 54 62  1  0
 54 64  1  0
 55 61  1  0
 55 57  1  0
 56 62  1  0
 57 56  1  0
 58 57  2  0
 59 60  1  0
 59 53  2  0
 60 55  2  0
 61 54  1  0
 62 52  1  0
 64 66  2  0
 65 64  1  0
 67 65  1  0
 68 77  2  0
 68 73  1  0
 69 65  1  0
 69 73  1  0
 70 69  1  0
 71 72  1  0
 71 70  1  0
 72 68  1  0
 73 74  2  0
 74 75  1  0
 76 75  2  0
 77 76  1  0
 78 52  1  0
 78 83  1  0
 78 79  1  0
 79 82  1  1
 79 80  1  0
 81 79  1  0
 83 86  1  0
 84 88  1  0
 84 83  1  0
 85 84  2  0
 88 87  1  0
 90 91  1  0
 90 88  1  0
 90 89  1  0
M  ISO  4   9 100  17 100  50 101  51 101
M  END
>  <TORSDO>  (74) 
F 19

>  <SCORE>  (74) 
-14.664

>  <name>  (74) 
73

>  <ligand_id>  (74) 
73

>  <original_smiles>  (74) 
[H]c1nc(C([H])([H])[H])c(N([H])C(=O)N2C([H])([H])C([H])([H])C([H])([H])C([H])(n3nc(-c4c([H])c([H])c(Oc5c([H])c([H])c(F)c([H])c5F)c([H])c4[H])c(C(=O)N([H])[H])c3N([H])[H])C2([H])[H])c(Cl)c1C([H])(C([H])([H])[H])C([H])([H])C([H])([H])Oc1c([H])c([H])c2c(c1[H])C([H])([H])N(C(=O)C([H])(N([H])C(=O)C([H])(N([H])C([H])([H])[H])C([H])([H])[H])C(C([H])([H])[H])(C([H])([H])[H])C([H])([H])[H])C([H])(C(=O)N([H])C1([H])c3c([H])c([H])c([H])c([H])c3C([H])([H])C([H])([H])C1([H])[H])C2([H])[H]

>  <smiles>  (74) 
[H]c1nc(C([H])([H])[H])c(N([H])C(=O)N2C([H])([H])C([H])([H])C([H])([H])C([H])(n3nc(-c4c([H])c([H])c(Oc5c([H])c([H])c(F)c([H])c5F)c([H])c4[H])c(C(=O)N([H])[H])c3N([H])[H])C2([H])[H])c(Cl)c1C([H])(C([H])([H])[H])C([H])([H])C([H])([H])Oc1c([H])c([H])c2c(c1[H])C([H])([H])N(C(=O)C([H])(N([H])C(=O)C([H])(N([H])C([H])([H])[H])C([H])([H])[H])C(C([H])([H])[H])(C([H])([H])[H])C([H])([H])[H])C([H])(C(=O)N([H])C1([H])c3c([H])c([H])c([H])c([H])c3C([H])([H])C([H])([H])C1([H])[H])C2([H])[H]

$$$$
74:0:0
     RDKit          3D

 96104  0  0  1  0  0  0  0  0999 V2000
  -30.7950  -18.0490   21.2550 C   0  0  0  0  0  0  0  0  0  0  0  0
  -29.0030  -17.9270   19.6240 C   0  0  0  0  0  0  0  0  0  0  0  0
  -29.9230  -20.1580   20.2370 C   0  0  0  0  0  0  0  0  0  0  0  0
  -29.8970  -17.2350   20.5000 C   0  0  0  0  0  0  0  0  0  0  0  0
  -30.8020  -19.4730   21.1180 C   0  0  0  0  0  0  0  0  0  0  0  0
  -29.0280  -19.3550   19.4830 C   0  0  0  0  0  0  0  0  0  0  0  0
  -31.7690  -17.4100   22.2340 C   0  0  0  0  0  1  0  0  0  0  0  0
  -27.9930  -17.1050   18.8340 C   0  0  0  0  0  1  0  0  0  0  0  0
  -31.6920  -20.1980   21.8410 F   0  0  0  0  0  0  0  0  0  0  0  0
  -27.9680  -20.1570   18.3700 Cl  0  0  0  0  0  0  0  0  0  0  0  0
  -30.5440  -14.7270   20.3570 C   0  0  0  0  0  0  0  0  0  0  0  0
  -30.3250  -12.4900   19.2880 C   0  0  0  0  0  2  0  0  0  0  0  0
  -29.3740  -12.5990   18.0740 C   0  0  0  0  0  2  0  0  0  0  0  0
  -27.9050  -12.4290   18.5100 C   0  0  0  0  0  2  0  0  0  0  0  0
  -27.5420  -13.3030   19.7390 C   0  0  0  0  0  3  0  0  0  0  0  0
  -28.6050  -13.1710   20.8550 C   0  0  0  0  0  2  0  0  0  0  0  0
  -29.9150  -13.5100   20.2740 N   0  0  0  0  0  0  0  0  0  0  0  0
  -31.7100  -14.8750   19.9830 O   0  0  0  0  0  0  0  0  0  0  0  0
  -29.7500  -15.7880   20.7100 N   0  0  0  0  0  0  0  0  0  0  0  0
  -28.8150  -15.4940   20.9470 H   0  0  0  0  0  0  0  0  0  0  0  0
  -25.1360  -13.8970   20.4430 C   0  0  0  0  0  0  0  0  0  0  0  0
  -24.0750  -13.1240   20.8230 C   0  0  0  0  0  0  0  0  0  0  0  0
  -24.5480  -11.7780   20.8040 C   0  0  0  0  0  0  0  0  0  0  0  0
  -26.1920  -13.0240   20.2240 N   0  0  0  0  0  0  0  0  0  0  0  0
  -25.8390  -11.7430   20.5020 N   0  0  0  0  0  0  0  0  0  0  0  0
  -23.8260  -10.5150   20.9980 C   0  0  0  0  0  0  0  0  0  0  0  0
  -24.2510   -9.5620   21.9500 C   0  0  0  0  0  3  0  0  0  0  0  0
  -23.5300   -8.3630   22.1300 C   0  0  0  0  0  3  0  0  0  0  0  0
  -22.3710   -8.1090   21.3610 C   0  0  0  0  0  0  0  0  0  0  0  0
  -21.9630   -9.0510   20.3990 C   0  0  0  0  0  3  0  0  0  0  0  0
  -22.6850  -10.2430   20.2170 C   0  0  0  0  0  3  0  0  0  0  0  0
  -21.6210   -6.9610   21.4530 O   0  0  0  0  0  0  0  0  0  0  0  0
  -21.5610   -6.2340   22.6140 C   0  0  0  0  0  0  0  0  0  0  0  0
  -21.1060   -6.7990   23.8250 C   0  0  0  0  0  3  0  0  0  0  0  0
  -20.9920   -5.9960   24.9770 C   0  0  0  0  0  3  0  0  0  0  0  0
  -21.3260   -4.6300   24.9210 C   0  0  0  0  0  0  0  0  0  0  0  0
  -21.7770   -4.0640   23.7150 C   0  0  0  0  0  3  0  0  0  0  0  0
  -21.8910   -4.8640   22.5640 C   0  0  0  0  0  0  0  0  0  0  0  0
  -22.3050   -4.3090   21.3990 F   0  0  0  0  0  0  0  0  0  0  0  0
  -21.2130   -3.8570   26.0260 F   0  0  0  0  0  0  0  0  0  0  0  0
  -22.6730  -13.5990   21.0790 C   0  0  0  0  0  0  0  0  0  0  0  0
  -21.9400  -12.9070   21.9430 N   0  0  0  0  0  0  0  0  0  0  0  0
  -22.2360  -14.6190   20.5480 O   0  0  0  0  0  0  0  0  0  0  0  0
  -22.3040  -12.0810   22.3950 H   0  0  0  0  0  0  0  0  0  0  0  0
  -21.0010  -13.2080   22.1590 H   0  0  0  0  0  0  0  0  0  0  0  0
  -25.2690  -15.2640   20.2390 N   0  0  0  0  0  0  0  0  0  0  0  0
  -24.4510  -15.8630   20.2550 H   0  0  0  0  0  0  0  0  0  0  0  0
  -26.0300  -15.6570   19.7080 H   0  0  0  0  0  0  0  0  0  0  0  0
  -30.0640  -21.7040   19.9890 C   0  0  0  0  0  2  0  0  0  0  0  0
  -28.9670  -22.6570   20.4050 N   0  0  0  0  0  4  0  0  0  0  0  0
  -28.8200  -22.5410   21.3960 H   0  0  0  0  0  0  0  0  0  0  0  0
  -28.1230  -22.3630   19.9350 H   0  0  0  0  0  0  0  0  0  0  0  0
  -29.2070  -24.1320   20.1050 C   0  0  0  0  0  2  0  0  0  0  0  0
  -27.9710  -25.1510   22.1160 C   0  0  0  0  0  1  0  0  0  0  0  0
  -28.0980  -25.1600   20.5860 C   0  0  0  0  0  3  0  0  0  0  0  0
  -28.2920  -26.5750   20.1920 O   0  0  0  0  0  0  0  0  0  0  0  0
  -24.5570  -31.9410   23.2540 C   0  0  0  0  0  0  0  0  0  0  0  0
  -27.1640  -27.4050   20.1720 C   0  0  0  0  0  0  0  0  0  0  0  0
  -23.3470  -30.5390   21.6200 C   0  0  0  0  0  3  0  0  0  0  0  0
  -24.7890  -28.9910   20.1880 C   0  0  0  0  0  0  0  0  0  0  0  0
  -25.8830  -30.8640   21.4250 C   0  0  0  0  0  2  0  0  0  0  0  0
  -25.9610  -29.4890   20.7740 C   0  0  0  0  0  0  0  0  0  0  0  0
  -27.1530  -28.7070   20.7560 C   0  0  0  0  0  3  0  0  0  0  0  0
  -25.9730  -26.9620   19.5550 C   0  0  0  0  0  3  0  0  0  0  0  0
  -24.7940  -27.7300   19.5750 C   0  0  0  0  0  3  0  0  0  0  0  0
  -23.5530  -29.8620   20.2390 C   0  0  0  0  0  2  0  0  0  0  0  0
  -24.6140  -31.1340   22.1550 N   0  0  0  0  0  0  0  0  0  0  0  0
  -23.4770  -32.2190   23.7920 O   0  0  0  0  0  0  0  0  0  0  0  0
  -22.6890  -29.5220   22.5810 C   0  0  0  0  0  0  0  0  0  0  0  0
  -21.3630  -29.3440   22.4540 N   0  0  0  0  0  0  0  0  0  0  0  0
  -23.3680  -28.8980   23.4000 O   0  0  0  0  0  0  0  0  0  0  0  0
  -20.8760  -29.9030   21.7690 H   0  0  0  0  0  0  0  0  0  0  0  0
  -17.9850  -28.1530   22.9600 C   0  0  0  0  0  0  0  0  0  0  0  0
  -20.5470  -28.4050   23.2230 C   0  0  0  0  0  3  0  0  0  0  0  0
  -20.6420  -26.9750   22.6440 C   0  0  0  0  0  2  0  0  0  0  0  0
  -19.5360  -26.6560   21.6330 C   0  0  0  0  0  2  0  0  0  0  0  0
  -18.1570  -26.8050   22.2810 C   0  0  0  0  0  2  0  0  0  0  0  0
  -19.1080  -28.9100   23.3880 C   0  0  0  0  0  0  0  0  0  0  0  0
  -18.8980  -30.1730   23.9820 C   0  0  0  0  0  3  0  0  0  0  0  0
  -17.5960  -30.6800   24.1550 C   0  0  0  0  0  3  0  0  0  0  0  0
  -16.4860  -29.9180   23.7480 C   0  0  0  0  0  3  0  0  0  0  0  0
  -16.6810  -28.6560   23.1550 C   0  0  0  0  0  3  0  0  0  0  0  0
  -25.8430  -32.5720   23.8710 C   0  0  0  0  0  3  0  0  0  0  0  0
  -26.3540  -31.8080   25.1520 C   0  0  1  0  0  0  0  0  0  0  0  0
  -25.2550  -31.5810   26.2200 C   0  0  0  0  0  1  0  0  0  0  0  0
  -26.9370  -30.4280   24.7680 C   0  0  0  0  0  1  0  0  0  0  0  0
  -27.5080  -32.6030   25.8090 C   0  0  0  0  0  1  0  0  0  0  0  0
  -25.5440  -33.9740   24.1920 N   0  0  0  0  0  0  0  0  0  0  0  0
  -25.8870  -35.0190   23.4280 C   0  0  0  0  0  0  0  0  0  0  0  0
  -26.5620  -34.9060   22.4010 O   0  0  0  0  0  0  0  0  0  0  0  0
  -24.9450  -34.1370   24.9880 H   0  0  0  0  0  0  0  0  0  0  0  0
  -24.1840  -36.8270   23.0390 C   0  0  0  0  0  1  0  0  0  0  0  0
  -25.4060  -36.4150   23.8730 C   0  0  0  0  0  3  0  0  0  0  0  0
  -27.5350  -37.2820   24.7340 C   0  0  0  0  0  1  0  0  0  0  0  0
  -26.4510  -37.4560   23.7700 N   0  0  0  0  0  0  0  0  0  0  0  0
  -26.0530  -38.3810   23.9080 H   0  0  0  0  0  0  0  0  0  0  0  0
  1  7  1  0
  2  4  1  0
  3  5  2  0
  4 19  1  0
  4  1  2  0
  5  1  1  0
  5  9  1  0
  6  2  2  0
  6  3  1  0
  8  2  1  0
 10  6  1  0
 11 19  1  0
 12 17  1  0
 13 14  1  0
 13 12  1  0
 15 14  1  0
 15 24  1  0
 15 16  1  0
 17 11  1  0
 17 16  1  0
 18 11  2  0
 19 20  1  0
 21 22  2  0
 22 41  1  0
 23 22  1  0
 23 26  1  0
 24 21  1  0
 24 25  1  0
 25 23  2  0
 26 27  1  0
 27 28  2  0
 29 32  1  0
 29 28  1  0
 30 29  2  0
 31 30  1  0
 31 26  2  0
 32 33  1  0
 33 34  1  0
 34 35  2  0
 36 35  1  0
 36 40  1  0
 37 36  2  0
 38 33  2  0
 38 37  1  0
 39 38  1  0
 41 42  1  0
 42 45  1  0
 42 44  1  0
 43 41  2  0
 46 47  1  0
 46 21  1  0
 48 46  1  0
 49  3  1  0
 49 50  1  0
 50 51  1  0
 52 50  1  0
 53 50  1  0
 53 55  1  0
 55 54  1  0
 56 55  1  0
 57 68  2  0
 58 56  1  0
 58 63  1  0
 59 67  1  0
 59 69  1  0
 60 66  1  0
 60 62  1  0
 61 67  1  0
 62 61  1  0
 63 62  2  0
 64 65  1  0
 64 58  2  0
 65 60  2  0
 66 59  1  0
 67 57  1  0
 69 71  2  0
 70 69  1  0
 72 70  1  0
 73 82  2  0
 73 78  1  0
 74 70  1  0
 74 78  1  0
 75 74  1  0
 76 77  1  0
 76 75  1  0
 77 73  1  0
 78 79  2  0
 79 80  1  0
 81 80  2  0
 82 81  1  0
 83 57  1  0
 83 88  1  0
 83 84  1  0
 84 87  1  1
 84 85  1  0
 86 84  1  0
 88 91  1  0
 89 93  1  0
 89 88  1  0
 90 89  2  0
 93 92  1  0
 95 93  1  0
 95 96  1  0
 95 94  1  0
M  ISO  4  11 100  19 100  55 101  56 101
M  END
>  <TORSDO>  (75) 
F 20

>  <SCORE>  (75) 
-13.609

>  <name>  (75) 
74

>  <ligand_id>  (75) 
74

>  <original_smiles>  (75) 
[H]c1c([H])c([H])c2c(c1[H])C([H])([H])C([H])([H])C([H])([H])C2([H])N([H])C(=O)C1([H])N(C(=O)C([H])(N([H])C(=O)C([H])(N([H])C([H])([H])[H])C([H])([H])[H])C(C([H])([H])[H])(C([H])([H])[H])C([H])([H])[H])C([H])([H])c2c([H])c(OC([H])(C([H])([H])[H])C([H])([H])[N+]([H])([H])C([H])([H])c3c(F)c(C([H])([H])[H])c(N([H])C(=O)N4C([H])([H])C([H])([H])C([H])([H])C([H])(n5nc(-c6c([H])c([H])c(Oc7c([H])c([H])c(F)c([H])c7F)c([H])c6[H])c(C(=O)N([H])[H])c5N([H])[H])C4([H])[H])c(C([H])([H])[H])c3Cl)c([H])c([H])c2C1([H])[H]

>  <smiles>  (75) 
[H]c1c([H])c([H])c2c(c1[H])C([H])([H])C([H])([H])C([H])([H])C2([H])N([H])C(=O)C1([H])N(C(=O)C([H])(N([H])C(=O)C([H])(N([H])C([H])([H])[H])C([H])([H])[H])C(C([H])([H])[H])(C([H])([H])[H])C([H])([H])[H])C([H])([H])c2c([H])c(OC([H])(C([H])([H])[H])C([H])([H])[N+]([H])([H])C([H])([H])c3c(F)c(C([H])([H])[H])c(N([H])C(=O)N4C([H])([H])C([H])([H])C([H])([H])C([H])(n5nc(-c6c([H])c([H])c(Oc7c([H])c([H])c(F)c([H])c7F)c([H])c6[H])c(C(=O)N([H])[H])c5N([H])[H])C4([H])[H])c(C([H])([H])[H])c3Cl)c([H])c([H])c2C1([H])[H]

$$$$
75:0:0
     RDKit          3D

 90 98  0  0  1  0  0  0  0  0999 V2000
  -30.6540  -19.9870   20.4750 C   0  0  0  0  0  3  0  0  0  0  0  0
  -28.3270  -19.7400   20.2310 C   0  0  0  0  0  3  0  0  0  0  0  0
  -29.3850  -20.6600   20.4280 C   0  0  0  0  0  0  0  0  0  0  0  0
  -30.8430  -18.5410   20.3820 C   0  0  0  0  0  0  0  0  0  0  0  0
  -28.4960  -18.3110   20.1650 C   0  0  0  0  0  0  0  0  0  0  0  0
  -29.7500  -17.6080   20.2610 C   0  0  0  0  0  0  0  0  0  0  0  0
  -32.2670  -18.0260   20.4490 C   0  0  0  0  0  1  0  0  0  0  0  0
  -27.2360  -17.5090   20.0100 C   0  0  0  0  0  1  0  0  0  0  0  0
  -30.5440  -14.9500   20.0250 C   0  0  0  0  0  0  0  0  0  0  0  0
  -30.3320  -12.6490   19.0010 C   0  0  0  0  0  2  0  0  0  0  0  0
  -29.3230  -12.6950   17.8300 C   0  0  0  0  0  2  0  0  0  0  0  0
  -27.8840  -12.4870   18.3390 C   0  0  0  0  0  2  0  0  0  0  0  0
  -27.5600  -13.3570   19.5830 C   0  0  0  0  0  3  0  0  0  0  0  0
  -28.6870  -13.2910   20.6400 C   0  0  0  0  0  2  0  0  0  0  0  0
  -29.9370  -13.6990   19.9780 N   0  0  0  0  0  0  0  0  0  0  0  0
  -31.7210  -15.0360   19.6660 O   0  0  0  0  0  0  0  0  0  0  0  0
  -29.7270  -16.0740   20.2800 N   0  0  0  0  0  0  0  0  0  0  0  0
  -28.8010  -15.7360   20.4860 H   0  0  0  0  0  0  0  0  0  0  0  0
  -25.2020  -13.9000   20.4390 C   0  0  0  0  0  0  0  0  0  0  0  0
  -24.1690  -13.1230   20.8680 C   0  0  0  0  0  0  0  0  0  0  0  0
  -24.6400  -11.7790   20.7870 C   0  0  0  0  0  0  0  0  0  0  0  0
  -26.2480  -13.0420   20.1430 N   0  0  0  0  0  0  0  0  0  0  0  0
  -25.9160  -11.7540   20.4130 N   0  0  0  0  0  0  0  0  0  0  0  0
  -23.9220  -10.5170   20.9860 C   0  0  0  0  0  0  0  0  0  0  0  0
  -24.3800   -9.5460   21.9010 C   0  0  0  0  0  3  0  0  0  0  0  0
  -23.6590   -8.3480   22.0900 C   0  0  0  0  0  3  0  0  0  0  0  0
  -22.4670   -8.1150   21.3630 C   0  0  0  0  0  0  0  0  0  0  0  0
  -22.0270   -9.0770   20.4380 C   0  0  0  0  0  3  0  0  0  0  0  0
  -22.7480  -10.2670   20.2460 C   0  0  0  0  0  3  0  0  0  0  0  0
  -21.7150   -6.9700   21.4640 O   0  0  0  0  0  0  0  0  0  0  0  0
  -21.6830   -6.2320   22.6210 C   0  0  0  0  0  0  0  0  0  0  0  0
  -21.2540   -6.7860   23.8470 C   0  0  0  0  0  3  0  0  0  0  0  0
  -21.1720   -5.9730   24.9950 C   0  0  0  0  0  3  0  0  0  0  0  0
  -21.5070   -4.6080   24.9170 C   0  0  0  0  0  0  0  0  0  0  0  0
  -21.9280   -4.0540   23.6960 C   0  0  0  0  0  3  0  0  0  0  0  0
  -22.0140   -4.8640   22.5500 C   0  0  0  0  0  0  0  0  0  0  0  0
  -22.4010   -4.3220   21.3710 F   0  0  0  0  0  0  0  0  0  0  0  0
  -21.4190   -3.8260   26.0180 F   0  0  0  0  0  0  0  0  0  0  0  0
  -22.7890  -13.6000   21.2170 C   0  0  0  0  0  0  0  0  0  0  0  0
  -22.1030  -12.8900   22.1030 N   0  0  0  0  0  0  0  0  0  0  0  0
  -22.3330  -14.6410   20.7410 O   0  0  0  0  0  0  0  0  0  0  0  0
  -22.4900  -12.0500   22.5090 H   0  0  0  0  0  0  0  0  0  0  0  0
  -21.1800  -13.1910   22.3810 H   0  0  0  0  0  0  0  0  0  0  0  0
  -25.3050  -15.2610   20.2390 N   0  0  0  0  0  0  0  0  0  0  0  0
  -24.4770  -15.8430   20.3050 H   0  0  0  0  0  0  0  0  0  0  0  0
  -26.0270  -15.6660   19.6620 H   0  0  0  0  0  0  0  0  0  0  0  0
  -29.1100  -22.2040   20.8770 C   0  0  0  0  0  3  0  0  0  0  0  0
  -28.8720  -23.5610   19.9660 C   0  0  0  0  0  3  0  0  0  0  0  0
  -28.2390  -24.9290   20.6590 C   0  0  0  0  0  2  0  0  0  0  0  0
  -28.3750  -26.3720   20.1790 O   0  0  0  0  0  0  0  0  0  0  0  0
  -24.6060  -31.8770   23.2300 C   0  0  0  0  0  0  0  0  0  0  0  0
  -27.2650  -27.2660   20.1930 C   0  0  0  0  0  0  0  0  0  0  0  0
  -23.4260  -30.4770   21.5760 C   0  0  0  0  0  3  0  0  0  0  0  0
  -24.8990  -28.9220   20.1640 C   0  0  0  0  0  0  0  0  0  0  0  0
  -25.9720  -30.7890   21.4190 C   0  0  0  0  0  2  0  0  0  0  0  0
  -26.0660  -29.4030   20.7690 C   0  0  0  0  0  0  0  0  0  0  0  0
  -27.2540  -28.5930   20.7610 C   0  0  0  0  0  3  0  0  0  0  0  0
  -26.0700  -26.8560   19.5670 C   0  0  0  0  0  3  0  0  0  0  0  0
  -24.9090  -27.6570   19.5500 C   0  0  0  0  0  3  0  0  0  0  0  0
  -23.6600  -29.8010   20.1980 C   0  0  0  0  0  2  0  0  0  0  0  0
  -24.6870  -31.0680   22.1310 N   0  0  0  0  0  0  0  0  0  0  0  0
  -23.5150  -32.1480   23.7540 O   0  0  0  0  0  0  0  0  0  0  0  0
  -22.7530  -29.4600   22.5310 C   0  0  0  0  0  0  0  0  0  0  0  0
  -21.4270  -29.2880   22.4010 N   0  0  0  0  0  0  0  0  0  0  0  0
  -23.4280  -28.8280   23.3490 O   0  0  0  0  0  0  0  0  0  0  0  0
  -20.9390  -29.8490   21.7160 H   0  0  0  0  0  0  0  0  0  0  0  0
  -18.0440  -28.0990   22.9090 C   0  0  0  0  0  0  0  0  0  0  0  0
  -20.6060  -28.3430   23.1640 C   0  0  0  0  0  3  0  0  0  0  0  0
  -20.6970  -26.9180   22.5710 C   0  0  0  0  0  2  0  0  0  0  0  0
  -19.5850  -26.6140   21.5610 C   0  0  0  0  0  2  0  0  0  0  0  0
  -18.2090  -26.7580   22.2140 C   0  0  0  0  0  2  0  0  0  0  0  0
  -19.1700  -28.8500   23.3410 C   0  0  0  0  0  0  0  0  0  0  0  0
  -18.9600  -30.1040   23.9530 C   0  0  0  0  0  3  0  0  0  0  0  0
  -17.6600  -30.6080   24.1370 C   0  0  0  0  0  3  0  0  0  0  0  0
  -16.5480  -29.8560   23.7190 C   0  0  0  0  0  3  0  0  0  0  0  0
  -16.7410  -28.6020   23.1110 C   0  0  0  0  0  3  0  0  0  0  0  0
  -25.8770  -32.5180   23.8670 C   0  0  0  0  0  3  0  0  0  0  0  0
  -26.3740  -31.7580   25.1580 C   0  0  1  0  0  0  0  0  0  0  0  0
  -25.2650  -31.5290   26.2110 C   0  0  0  0  0  1  0  0  0  0  0  0
  -26.9640  -30.3770   24.7900 C   0  0  0  0  0  1  0  0  0  0  0  0
  -27.5140  -32.5590   25.8310 C   0  0  0  0  0  1  0  0  0  0  0  0
  -25.5590  -33.9180   24.1840 N   0  0  0  0  0  0  0  0  0  0  0  0
  -25.9020  -34.9700   23.4270 C   0  0  0  0  0  0  0  0  0  0  0  0
  -26.5850  -34.8620   22.4050 O   0  0  0  0  0  0  0  0  0  0  0  0
  -24.9530  -34.0750   24.9760 H   0  0  0  0  0  0  0  0  0  0  0  0
  -24.1850  -36.7680   23.0390 C   0  0  0  0  0  1  0  0  0  0  0  0
  -25.4100  -36.3610   23.8720 C   0  0  0  0  0  3  0  0  0  0  0  0
  -27.5300  -37.2450   24.7430 C   0  0  0  0  0  1  0  0  0  0  0  0
  -26.4480  -37.4110   23.7750 N   0  0  0  0  0  0  0  0  0  0  0  0
  -26.0430  -38.3330   23.9080 H   0  0  0  0  0  0  0  0  0  0  0  0
  2  3  2  0
  3  1  1  0
  3 47  1  0
  4  7  1  0
  4  1  2  0
  5  2  1  0
  5  6  2  0
  6 17  1  0
  6  4  1  0
  8  5  1  0
  9 17  1  0
 10 15  1  0
 11 12  1  0
 11 10  1  0
 13 12  1  0
 13 22  1  0
 13 14  1  0
 15  9  1  0
 15 14  1  0
 16  9  2  0
 17 18  1  0
 19 20  2  0
 20 39  1  0
 21 20  1  0
 21 24  1  0
 22 23  1  0
 22 19  1  0
 23 21  2  0
 24 25  1  0
 25 26  2  0
 27 30  1  0
 27 26  1  0
 28 27  2  0
 29 28  1  0
 29 24  2  0
 30 31  1  0
 31 32  1  0
 32 33  2  0
 34 33  1  0
 34 38  1  0
 35 34  2  0
 36 31  2  0
 36 35  1  0
 37 36  1  0
 39 40  1  0
 40 43  1  0
 40 42  1  0
 41 39  2  0
 44 45  1  0
 44 19  1  0
 46 44  1  0
 48 49  1  0
 48 47  2  0
 50 52  1  0
 50 49  1  0
 51 62  2  0
 52 57  1  0
 53 61  1  0
 53 63  1  0
 54 60  1  0
 54 56  1  0
 55 61  1  0
 56 55  1  0
 57 56  2  0
 58 52  2  0
 59 58  1  0
 59 54  2  0
 60 53  1  0
 61 51  1  0
 63 65  2  0
 64 63  1  0
 66 64  1  0
 67 76  2  0
 67 72  1  0
 68 64  1  0
 68 72  1  0
 69 68  1  0
 70 71  1  0
 70 69  1  0
 71 67  1  0
 72 73  2  0
 73 74  1  0
 75 74  2  0
 76 75  1  0
 77 51  1  0
 77 82  1  0
 77 78  1  0
 78 81  1  1
 78 79  1  0
 80 78  1  0
 82 85  1  0
 83 87  1  0
 83 82  1  0
 84 83  2  0
 87 86  1  0
 89 87  1  0
 89 90  1  0
 89 88  1  0
M  ISO  4   9 100  17 100  49 101  50 101
M  END
>  <TORSDO>  (76) 
F 19

>  <SCORE>  (76) 
-14.576

>  <name>  (76) 
75

>  <ligand_id>  (76) 
75

>  <original_smiles>  (76) 
[H]c1c([H])c([H])c2c(c1[H])C([H])([H])C([H])([H])C([H])([H])C2([H])N([H])C(=O)C1([H])N(C(=O)C([H])(N([H])C(=O)C([H])(N([H])C([H])([H])[H])C([H])([H])[H])C(C([H])([H])[H])(C([H])([H])[H])C([H])([H])[H])C([H])([H])c2c([H])c(OC([H])([H])C([H])([H])C([H])([H])c3c([H])c(C([H])([H])[H])c(N([H])C(=O)N4C([H])([H])C([H])([H])C([H])([H])C([H])(n5nc(-c6c([H])c([H])c(Oc7c([H])c([H])c(F)c([H])c7F)c([H])c6[H])c(C(=O)N([H])[H])c5N([H])[H])C4([H])[H])c(C([H])([H])[H])c3[H])c([H])c([H])c2C1([H])[H]

>  <smiles>  (76) 
[H]c1c([H])c([H])c2c(c1[H])C([H])([H])C([H])([H])C([H])([H])C2([H])N([H])C(=O)C1([H])N(C(=O)C([H])(N([H])C(=O)C([H])(N([H])C([H])([H])[H])C([H])([H])[H])C(C([H])([H])[H])(C([H])([H])[H])C([H])([H])[H])C([H])([H])c2c([H])c(OC([H])([H])C([H])([H])C([H])([H])c3c([H])c(C([H])([H])[H])c(N([H])C(=O)N4C([H])([H])C([H])([H])C([H])([H])C([H])(n5nc(-c6c([H])c([H])c(Oc7c([H])c([H])c(F)c([H])c7F)c([H])c6[H])c(C(=O)N([H])[H])c5N([H])[H])C4([H])[H])c(C([H])([H])[H])c3[H])c([H])c([H])c2C1([H])[H]

$$$$
76:0:0
     RDKit          3D

 92100  0  0  1  0  0  0  0  0999 V2000
  -29.8630  -20.9110   19.4000 C   0  0  0  0  0  2  0  0  0  0  0  0
  -30.7760  -14.5250   20.0430 C   0  0  0  0  0  0  0  0  0  0  0  0
  -30.3510  -12.3410   19.0010 C   0  0  0  0  0  2  0  0  0  0  0  0
  -29.3620  -12.4920   17.8280 C   0  0  0  0  0  2  0  0  0  0  0  0
  -27.9040  -12.3820   18.3300 C   0  0  0  0  0  2  0  0  0  0  0  0
  -27.6080  -13.2380   19.5890 C   0  0  0  0  0  3  0  0  0  0  0  0
  -28.7370  -13.1350   20.6460 C   0  0  0  0  0  2  0  0  0  0  0  0
  -30.0280  -13.3840   19.9840 N   0  0  0  0  0  0  0  0  0  0  0  0
  -31.9740  -14.5290   19.7600 O   0  0  0  0  0  0  0  0  0  0  0  0
  -29.8250  -17.6560   21.3790 C   0  0  0  0  0  3  0  0  0  0  0  0
  -31.3400  -18.8500   19.4230 C   0  0  0  0  0  3  0  0  0  0  0  0
  -30.3210  -19.6050   20.0290 C   0  0  0  0  0  0  0  0  0  0  0  0
  -29.6250  -19.0170   21.1010 C   0  0  0  0  0  0  0  0  0  0  0  0
  -30.6740  -16.9220   20.5290 C   0  0  0  0  0  0  0  0  0  0  0  0
  -29.1310  -16.0140   19.0220 C   0  0  0  0  0  1  0  0  0  0  0  0
  -31.5390  -17.5510   19.6950 N   0  0  0  0  0  0  0  0  0  0  0  0
  -30.0980  -15.7030   20.0890 N   0  0  0  0  0  0  0  0  0  0  0  0
  -28.6550  -19.6980   21.7550 F   0  0  0  0  0  0  0  0  0  0  0  0
  -25.2690  -13.8960   20.4150 C   0  0  0  0  0  0  0  0  0  0  0  0
  -24.2050  -13.1360   20.8140 C   0  0  0  0  0  0  0  0  0  0  0  0
  -24.6500  -11.7800   20.7610 C   0  0  0  0  0  0  0  0  0  0  0  0
  -26.2890  -12.9930   20.1410 N   0  0  0  0  0  0  0  0  0  0  0  0
  -25.9260  -11.7200   20.4130 N   0  0  0  0  0  0  0  0  0  0  0  0
  -23.9240  -10.5250   20.9660 C   0  0  0  0  0  0  0  0  0  0  0  0
  -24.3810   -9.5550   21.8850 C   0  0  0  0  0  3  0  0  0  0  0  0
  -23.6570   -8.3600   22.0770 C   0  0  0  0  0  3  0  0  0  0  0  0
  -22.4660   -8.1280   21.3480 C   0  0  0  0  0  0  0  0  0  0  0  0
  -22.0300   -9.0870   20.4170 C   0  0  0  0  0  3  0  0  0  0  0  0
  -22.7540  -10.2750   20.2210 C   0  0  0  0  0  3  0  0  0  0  0  0
  -21.7120   -6.9860   21.4520 O   0  0  0  0  0  0  0  0  0  0  0  0
  -21.6810   -6.2490   22.6090 C   0  0  0  0  0  0  0  0  0  0  0  0
  -21.2670   -6.8080   23.8380 C   0  0  0  0  0  3  0  0  0  0  0  0
  -21.1830   -5.9970   24.9870 C   0  0  0  0  0  3  0  0  0  0  0  0
  -21.5030   -4.6280   24.9080 C   0  0  0  0  0  0  0  0  0  0  0  0
  -21.9090   -4.0690   23.6840 C   0  0  0  0  0  3  0  0  0  0  0  0
  -21.9950   -4.8770   22.5370 C   0  0  0  0  0  0  0  0  0  0  0  0
  -22.3680   -4.3290   21.3560 F   0  0  0  0  0  0  0  0  0  0  0  0
  -21.4140   -3.8480   26.0100 F   0  0  0  0  0  0  0  0  0  0  0  0
  -22.8230  -13.6280   21.1340 C   0  0  0  0  0  0  0  0  0  0  0  0
  -22.1160  -12.9350   22.0200 N   0  0  0  0  0  0  0  0  0  0  0  0
  -22.3790  -14.6600   20.6350 O   0  0  0  0  0  0  0  0  0  0  0  0
  -22.4880  -12.0980   22.4470 H   0  0  0  0  0  0  0  0  0  0  0  0
  -21.1900  -13.2480   22.2760 H   0  0  0  0  0  0  0  0  0  0  0  0
  -25.4440  -15.2650   20.2380 N   0  0  0  0  0  0  0  0  0  0  0  0
  -24.6970  -15.9340   20.3950 H   0  0  0  0  0  0  0  0  0  0  0  0
  -26.3000  -15.6940   19.9110 H   0  0  0  0  0  0  0  0  0  0  0  0
  -30.9330  -22.0050   19.2950 C   0  0  0  0  0  2  0  0  0  0  0  0
  -30.8990  -23.0280   20.4390 C   0  0  0  0  0  2  0  0  0  0  0  0
  -29.7070  -23.9990   20.3450 C   0  0  0  0  0  2  0  0  0  0  0  0
  -29.8120  -25.1420   21.3590 C   0  0  0  0  0  2  0  0  0  0  0  0
  -28.5840  -26.0560   21.3610 C   0  0  0  0  0  2  0  0  0  0  0  0
  -28.4650  -26.7670   20.1360 O   0  0  0  0  0  0  0  0  0  0  0  0
  -24.5490  -31.8380   23.1850 C   0  0  0  0  0  0  0  0  0  0  0  0
  -27.3070  -27.4950   20.1060 C   0  0  0  0  0  0  0  0  0  0  0  0
  -23.3860  -30.4200   21.5230 C   0  0  0  0  0  3  0  0  0  0  0  0
  -24.8830  -28.9210   20.1050 C   0  0  0  0  0  0  0  0  0  0  0  0
  -25.9020  -30.8350   21.3510 C   0  0  0  0  0  2  0  0  0  0  0  0
  -26.0220  -29.4720   20.7100 C   0  0  0  0  0  0  0  0  0  0  0  0
  -27.2380  -28.7650   20.7130 C   0  0  0  0  0  3  0  0  0  0  0  0
  -26.1650  -26.9490   19.4860 C   0  0  0  0  0  3  0  0  0  0  0  0
  -24.9470  -27.6570   19.4890 C   0  0  0  0  0  3  0  0  0  0  0  0
  -23.6270  -29.7580   20.1400 C   0  0  0  0  0  2  0  0  0  0  0  0
  -24.6320  -31.0440   22.0810 N   0  0  0  0  0  0  0  0  0  0  0  0
  -23.4580  -32.0920   23.7130 O   0  0  0  0  0  0  0  0  0  0  0  0
  -22.7410  -29.3830   22.4700 C   0  0  0  0  0  0  0  0  0  0  0  0
  -21.4170  -29.1950   22.3400 N   0  0  0  0  0  0  0  0  0  0  0  0
  -23.4270  -28.7540   23.2800 O   0  0  0  0  0  0  0  0  0  0  0  0
  -20.9230  -29.7680   21.6720 H   0  0  0  0  0  0  0  0  0  0  0  0
  -18.0470  -27.9810   22.8130 C   0  0  0  0  0  0  0  0  0  0  0  0
  -20.6040  -28.2460   23.0960 C   0  0  0  0  0  3  0  0  0  0  0  0
  -20.7140  -26.8210   22.5050 C   0  0  0  0  0  2  0  0  0  0  0  0
  -19.6160  -26.5040   21.4840 C   0  0  0  0  0  2  0  0  0  0  0  0
  -18.2310  -26.6380   22.1260 C   0  0  0  0  0  2  0  0  0  0  0  0
  -19.1620  -28.7420   23.2550 C   0  0  0  0  0  0  0  0  0  0  0  0
  -18.9360  -29.9990   23.8590 C   0  0  0  0  0  3  0  0  0  0  0  0
  -17.6290  -30.4940   24.0230 C   0  0  0  0  0  3  0  0  0  0  0  0
  -16.5290  -29.7300   23.5980 C   0  0  0  0  0  3  0  0  0  0  0  0
  -16.7390  -28.4750   22.9980 C   0  0  0  0  0  3  0  0  0  0  0  0
  -25.8190  -32.4880   23.8200 C   0  0  0  0  0  3  0  0  0  0  0  0
  -25.4880  -33.8810   24.1510 N   0  0  0  0  0  0  0  0  0  0  0  0
  -25.8080  -34.9380   23.3930 C   0  0  0  0  0  0  0  0  0  0  0  0
  -26.4870  -34.8490   22.3660 O   0  0  0  0  0  0  0  0  0  0  0  0
  -24.8860  -34.0260   24.9470 H   0  0  0  0  0  0  0  0  0  0  0  0
  -24.0550  -36.7020   23.0280 C   0  0  0  0  0  1  0  0  0  0  0  0
  -25.2950  -36.3190   23.8490 C   0  0  0  0  0  3  0  0  0  0  0  0
  -27.4090  -37.2370   24.6950 C   0  0  0  0  0  1  0  0  0  0  0  0
  -26.3120  -37.3870   23.7420 N   0  0  0  0  0  0  0  0  0  0  0  0
  -25.8910  -38.3020   23.8880 H   0  0  0  0  0  0  0  0  0  0  0  0
  -26.3390  -31.7170   25.0920 C   0  0  1  0  0  0  0  0  0  0  0  0
  -25.2430  -31.4510   26.1500 C   0  0  0  0  0  1  0  0  0  0  0  0
  -26.9460  -30.3540   24.6890 C   0  0  0  0  0  1  0  0  0  0  0  0
  -27.4730  -32.5230   25.7680 C   0  0  0  0  0  1  0  0  0  0  0  0
  1 12  1  0
  2 17  1  0
  3  8  1  0
  4  5  1  0
  4  3  1  0
  6  5  1  0
  6 22  1  0
  6  7  1  0
  8  2  1  0
  8  7  1  0
  9  2  2  0
 11 16  2  0
 11 12  1  0
 12 13  2  0
 13 10  1  0
 13 18  1  0
 14 10  2  0
 15 17  1  0
 16 14  1  0
 17 14  1  0
 19 20  2  0
 20 39  1  0
 21 20  1  0
 21 24  1  0
 22 23  1  0
 22 19  1  0
 23 21  2  0
 24 25  1  0
 25 26  2  0
 27 30  1  0
 27 26  1  0
 28 27  2  0
 29 28  1  0
 29 24  2  0
 30 31  1  0
 31 32  1  0
 32 33  2  0
 34 33  1  0
 34 38  1  0
 35 34  2  0
 36 31  2  0
 36 35  1  0
 37 36  1  0
 39 40  1  0
 40 43  1  0
 40 42  1  0
 41 39  2  0
 44 45  1  0
 44 19  1  0
 46 44  1  0
 47  1  1  0
 47 48  1  0
 49 48  1  0
 49 50  1  0
 50 51  1  0
 52 51  1  0
 53 64  2  0
 54 52  1  0
 54 59  1  0
 55 63  1  0
 55 65  1  0
 56 62  1  0
 56 58  1  0
 57 63  1  0
 58 59  2  0
 58 57  1  0
 60 61  1  0
 60 54  2  0
 61 56  2  0
 62 55  1  0
 63 53  1  0
 65 67  2  0
 66 65  1  0
 68 66  1  0
 69 78  2  0
 69 74  1  0
 70 66  1  0
 70 74  1  0
 71 70  1  0
 72 73  1  0
 72 71  1  0
 73 69  1  0
 74 75  2  0
 75 76  1  0
 77 76  2  0
 78 77  1  0
 79 53  1  0
 79 80  1  0
 79 89  1  0
 80 83  1  0
 81 85  1  0
 81 80  1  0
 82 81  2  0
 85 84  1  0
 87 85  1  0
 87 88  1  0
 87 86  1  0
 89 92  1  1
 89 90  1  0
 91 89  1  0
M  ISO  4   2 100  17 100  51 101  52 101
M  END
>  <TORSDO>  (77) 
F 21

>  <SCORE>  (77) 
-12.735

>  <name>  (77) 
76

>  <ligand_id>  (77) 
76

>  <original_smiles>  (77) 
[H]c1nc(N(C(=O)N2C([H])([H])C([H])([H])C([H])([H])C([H])(n3nc(-c4c([H])c([H])c(Oc5c([H])c([H])c(F)c([H])c5F)c([H])c4[H])c(C(=O)N([H])[H])c3N([H])[H])C2([H])[H])C([H])([H])[H])c([H])c(F)c1C([H])([H])C([H])([H])C([H])([H])C([H])([H])C([H])([H])C([H])([H])Oc1c([H])c([H])c2c(c1[H])C([H])([H])N(C(=O)C([H])(N([H])C(=O)C([H])(N([H])C([H])([H])[H])C([H])([H])[H])C(C([H])([H])[H])(C([H])([H])[H])C([H])([H])[H])C([H])(C(=O)N([H])C1([H])c3c([H])c([H])c([H])c([H])c3C([H])([H])C([H])([H])C1([H])[H])C2([H])[H]

>  <smiles>  (77) 
[H]c1nc(N(C(=O)N2C([H])([H])C([H])([H])C([H])([H])C([H])(n3nc(-c4c([H])c([H])c(Oc5c([H])c([H])c(F)c([H])c5F)c([H])c4[H])c(C(=O)N([H])[H])c3N([H])[H])C2([H])[H])C([H])([H])[H])c([H])c(F)c1C([H])([H])C([H])([H])C([H])([H])C([H])([H])C([H])([H])C([H])([H])Oc1c([H])c([H])c2c(c1[H])C([H])([H])N(C(=O)C([H])(N([H])C(=O)C([H])(N([H])C([H])([H])[H])C([H])([H])[H])C(C([H])([H])[H])(C([H])([H])[H])C([H])([H])[H])C([H])(C(=O)N([H])C1([H])c3c([H])c([H])c([H])c([H])c3C([H])([H])C([H])([H])C1([H])[H])C2([H])[H]

$$$$
77:0:0
     RDKit          3D

 90 98  0  0  1  0  0  0  0  0999 V2000
  -30.0030  -19.8380   21.0220 C   0  0  0  0  0  3  0  0  0  0  0  0
  -28.1140  -21.0770   19.5090 C   0  0  0  0  0  0  0  0  0  0  0  0
  -28.6960  -22.1760   20.3420 C   0  0  0  0  0  0  0  0  0  0  0  0
  -29.3860  -18.7330   20.2350 C   0  0  0  0  0  0  0  0  0  0  0  0
  -29.6930  -21.3430   21.0860 C   0  0  0  0  0  0  0  0  0  0  0  0
  -28.4000  -19.5650   19.4920 C   0  0  0  0  0  0  0  0  0  0  0  0
  -27.0430  -21.5480   18.5340 C   0  0  0  0  0  1  0  0  0  0  0  0
  -30.6220  -22.2080   22.2560 Cl  0  0  0  0  0  0  0  0  0  0  0  0
  -27.3960  -18.5930   18.4680 Cl  0  0  0  0  0  0  0  0  0  0  0  0
  -30.2870  -15.6940   20.1630 C   0  0  0  0  0  0  0  0  0  0  0  0
  -30.3480  -13.1760   19.2790 C   0  0  0  0  0  2  0  0  0  0  0  0
  -29.4130  -12.8160   18.0910 C   0  0  0  0  0  2  0  0  0  0  0  0
  -27.9960  -12.4760   18.5810 C   0  0  0  0  0  2  0  0  0  0  0  0
  -27.5300  -13.4570   19.6800 C   0  0  0  0  0  3  0  0  0  0  0  0
  -28.6000  -13.7210   20.7650 C   0  0  0  0  0  2  0  0  0  0  0  0
  -29.7620  -14.3360   20.0830 N   0  0  0  0  0  0  0  0  0  0  0  0
  -31.5190  -15.6530   19.9790 O   0  0  0  0  0  0  0  0  0  0  0  0
  -29.4740  -17.0110   20.2210 N   0  0  0  0  0  0  0  0  0  0  0  0
  -28.5220  -16.6820   20.1510 H   0  0  0  0  0  0  0  0  0  0  0  0
  -25.1920  -13.9890   20.5200 C   0  0  0  0  0  0  0  0  0  0  0  0
  -24.1390  -13.2070   20.9020 C   0  0  0  0  0  0  0  0  0  0  0  0
  -24.6010  -11.8560   20.8290 C   0  0  0  0  0  0  0  0  0  0  0  0
  -26.2250  -13.1180   20.2310 N   0  0  0  0  0  0  0  0  0  0  0  0
  -25.8860  -11.8260   20.4830 N   0  0  0  0  0  0  0  0  0  0  0  0
  -23.8720  -10.5940   21.0100 C   0  0  0  0  0  0  0  0  0  0  0  0
  -24.3120   -9.6080   21.9210 C   0  0  0  0  0  3  0  0  0  0  0  0
  -23.5790   -8.4140   22.0940 C   0  0  0  0  0  3  0  0  0  0  0  0
  -22.3910   -8.1960   21.3580 C   0  0  0  0  0  0  0  0  0  0  0  0
  -21.9690   -9.1700   20.4360 C   0  0  0  0  0  3  0  0  0  0  0  0
  -22.7040  -10.3550   20.2600 C   0  0  0  0  0  3  0  0  0  0  0  0
  -21.6290   -7.0560   21.4410 O   0  0  0  0  0  0  0  0  0  0  0  0
  -21.5830   -6.3030   22.5880 C   0  0  0  0  0  0  0  0  0  0  0  0
  -21.1500   -6.8440   23.8170 C   0  0  0  0  0  3  0  0  0  0  0  0
  -21.0510   -6.0190   24.9540 C   0  0  0  0  0  3  0  0  0  0  0  0
  -21.3760   -4.6520   24.8630 C   0  0  0  0  0  0  0  0  0  0  0  0
  -21.8030   -4.1090   23.6390 C   0  0  0  0  0  3  0  0  0  0  0  0
  -21.9020   -4.9330   22.5030 C   0  0  0  0  0  0  0  0  0  0  0  0
  -22.2930   -4.4000   21.3200 F   0  0  0  0  0  0  0  0  0  0  0  0
  -21.2750   -3.8560   25.9540 F   0  0  0  0  0  0  0  0  0  0  0  0
  -22.7510  -13.6840   21.2110 C   0  0  0  0  0  0  0  0  0  0  0  0
  -22.0400  -12.9760   22.0810 N   0  0  0  0  0  0  0  0  0  0  0  0
  -22.3090  -14.7220   20.7210 O   0  0  0  0  0  0  0  0  0  0  0  0
  -22.4120  -12.1370   22.5000 H   0  0  0  0  0  0  0  0  0  0  0  0
  -21.1100  -13.2770   22.3320 H   0  0  0  0  0  0  0  0  0  0  0  0
  -25.3500  -15.3630   20.3610 N   0  0  0  0  0  0  0  0  0  0  0  0
  -24.5720  -16.0040   20.4810 H   0  0  0  0  0  0  0  0  0  0  0  0
  -26.1630  -15.8020   19.9540 H   0  0  0  0  0  0  0  0  0  0  0  0
  -26.5320  -23.7480   20.9710 C   0  0  0  0  0  1  0  0  0  0  0  0
  -28.0320  -23.9020   20.6710 C   0  0  0  0  0  3  0  0  0  0  0  0
  -28.2330  -25.6040   20.2760 O   0  0  0  0  0  0  0  0  0  0  0  0
  -24.6490  -31.8900   23.1870 C   0  0  0  0  0  0  0  0  0  0  0  0
  -27.2510  -26.8120   20.2770 C   0  0  0  0  0  0  0  0  0  0  0  0
  -23.4890  -30.4620   21.5590 C   0  0  0  0  0  3  0  0  0  0  0  0
  -24.9650  -28.8190   20.1790 C   0  0  0  0  0  0  0  0  0  0  0  0
  -26.0670  -30.6310   21.4570 C   0  0  0  0  0  2  0  0  0  0  0  0
  -26.1510  -29.1920   20.8200 C   0  0  0  0  0  0  0  0  0  0  0  0
  -27.2820  -28.2170   20.8370 C   0  0  0  0  0  3  0  0  0  0  0  0
  -26.0340  -26.6600   19.5630 C   0  0  0  0  0  3  0  0  0  0  0  0
  -24.9430  -27.5770   19.5260 C   0  0  0  0  0  3  0  0  0  0  0  0
  -23.7470  -29.7550   20.1990 C   0  0  0  0  0  2  0  0  0  0  0  0
  -24.7580  -31.0270   22.1210 N   0  0  0  0  0  0  0  0  0  0  0  0
  -23.5490  -32.1840   23.6860 O   0  0  0  0  0  0  0  0  0  0  0  0
  -22.7760  -29.4850   22.5350 C   0  0  0  0  0  0  0  0  0  0  0  0
  -21.4450  -29.3200   22.4070 N   0  0  0  0  0  0  0  0  0  0  0  0
  -23.4330  -28.8730   23.3800 O   0  0  0  0  0  0  0  0  0  0  0  0
  -20.9650  -29.8640   21.7040 H   0  0  0  0  0  0  0  0  0  0  0  0
  -18.0620  -28.1050   22.9360 C   0  0  0  0  0  0  0  0  0  0  0  0
  -20.6230  -28.3860   23.1870 C   0  0  0  0  0  3  0  0  0  0  0  0
  -20.7280  -26.9510   22.6210 C   0  0  0  0  0  2  0  0  0  0  0  0
  -19.6250  -26.6190   21.6120 C   0  0  0  0  0  2  0  0  0  0  0  0
  -18.2440  -26.7570   22.2590 C   0  0  0  0  0  2  0  0  0  0  0  0
  -19.1790  -28.8770   23.3560 C   0  0  0  0  0  0  0  0  0  0  0  0
  -18.9520  -30.1350   23.9550 C   0  0  0  0  0  3  0  0  0  0  0  0
  -17.6440  -30.6240   24.1330 C   0  0  0  0  0  3  0  0  0  0  0  0
  -16.5430  -29.8510   23.7260 C   0  0  0  0  0  3  0  0  0  0  0  0
  -16.7530  -28.5930   23.1320 C   0  0  0  0  0  3  0  0  0  0  0  0
  -25.9000  -32.5620   23.8290 C   0  0  0  0  0  3  0  0  0  0  0  0
  -25.5590  -33.9630   24.1470 N   0  0  0  0  0  0  0  0  0  0  0  0
  -25.8930  -35.0270   23.4030 C   0  0  0  0  0  0  0  0  0  0  0  0
  -26.5770  -34.9320   22.3820 O   0  0  0  0  0  0  0  0  0  0  0  0
  -24.9490  -34.1070   24.9380 H   0  0  0  0  0  0  0  0  0  0  0  0
  -24.1620  -36.8220   23.0350 C   0  0  0  0  0  1  0  0  0  0  0  0
  -25.3910  -36.4130   23.8620 C   0  0  0  0  0  3  0  0  0  0  0  0
  -27.5030  -37.3130   24.7380 C   0  0  0  0  0  1  0  0  0  0  0  0
  -26.4210  -37.4730   23.7720 N   0  0  0  0  0  0  0  0  0  0  0  0
  -26.0050  -38.3900   23.9110 H   0  0  0  0  0  0  0  0  0  0  0  0
  -26.3950  -31.8230   25.1350 C   0  0  1  0  0  0  0  0  0  0  0  0
  -25.2810  -31.5980   26.1850 C   0  0  0  0  0  1  0  0  0  0  0  0
  -27.0010  -30.4440   24.7990 C   0  0  0  0  0  1  0  0  0  0  0  0
  -27.5230  -32.6450   25.8040 C   0  0  0  0  0  1  0  0  0  0  0  0
  1  5  1  0
  2  3  1  0
  3 49  1  0
  3  5  2  0
  4  1  2  0
  5  8  1  0
  6  2  2  0
  6  4  1  0
  7  2  1  0
  9  6  1  0
 10 18  1  0
 11 16  1  0
 12 13  1  0
 12 11  1  0
 14 13  1  0
 14 23  1  0
 14 15  1  0
 16 10  1  0
 16 15  1  0
 17 10  2  0
 18  4  1  0
 19 18  1  0
 20 21  2  0
 21 40  1  0
 22 21  1  0
 22 25  1  0
 23 24  1  0
 23 20  1  0
 24 22  2  0
 25 26  1  0
 26 27  2  0
 28 31  1  0
 28 27  1  0
 29 28  2  0
 30 29  1  0
 30 25  2  0
 31 32  1  0
 32 33  1  0
 33 34  2  0
 35 34  1  0
 35 39  1  0
 36 35  2  0
 37 32  2  0
 37 36  1  0
 38 37  1  0
 40 41  1  0
 41 44  1  0
 41 43  1  0
 42 40  2  0
 45 46  1  0
 45 20  1  0
 47 45  1  0
 49 48  1  0
 50 52  1  0
 50 49  1  0
 51 62  2  0
 52 57  1  0
 53 61  1  0
 53 63  1  0
 54 60  1  0
 54 56  1  0
 55 61  1  0
 56 57  2  0
 56 55  1  0
 58 52  2  0
 59 58  1  0
 59 54  2  0
 60 53  1  0
 61 51  1  0
 63 65  2  0
 64 63  1  0
 66 64  1  0
 67 76  2  0
 67 72  1  0
 68 64  1  0
 68 72  1  0
 69 68  1  0
 70 71  1  0
 70 69  1  0
 71 67  1  0
 72 73  2  0
 73 74  1  0
 75 74  2  0
 76 75  1  0
 77 51  1  0
 77 78  1  0
 77 87  1  0
 78 81  1  0
 79 83  1  0
 79 78  1  0
 80 79  2  0
 83 82  1  0
 85 83  1  0
 85 86  1  0
 85 84  1  0
 87 90  1  1
 87 88  1  0
 89 87  1  0
M  ISO  4  10 100  18 100  49 101  50 101
M  END
>  <TORSDO>  (78) 
F 17

>  <SCORE>  (78) 
-17.091

>  <name>  (78) 
77

>  <ligand_id>  (78) 
77

>  <original_smiles>  (78) 
[H]c1c([H])c([H])c2c(c1[H])C([H])([H])C([H])([H])C([H])([H])C2([H])N([H])C(=O)C1([H])N(C(=O)C([H])(N([H])C(=O)C([H])(N([H])C([H])([H])[H])C([H])([H])[H])C(C([H])([H])[H])(C([H])([H])[H])C([H])([H])[H])C([H])([H])c2c([H])c(OC([H])(c3c(Cl)c([H])c(N([H])C(=O)N4C([H])([H])C([H])([H])C([H])([H])C([H])(n5nc(-c6c([H])c([H])c(Oc7c([H])c([H])c(F)c([H])c7F)c([H])c6[H])c(C(=O)N([H])[H])c5N([H])[H])C4([H])[H])c(Cl)c3C([H])([H])[H])C([H])([H])[H])c([H])c([H])c2C1([H])[H]

>  <smiles>  (78) 
[H]c1c([H])c([H])c2c(c1[H])C([H])([H])C([H])([H])C([H])([H])C2([H])N([H])C(=O)C1([H])N(C(=O)C([H])(N([H])C(=O)C([H])(N([H])C([H])([H])[H])C([H])([H])[H])C(C([H])([H])[H])(C([H])([H])[H])C([H])([H])[H])C([H])([H])c2c([H])c(OC([H])(c3c(Cl)c([H])c(N([H])C(=O)N4C([H])([H])C([H])([H])C([H])([H])C([H])(n5nc(-c6c([H])c([H])c(Oc7c([H])c([H])c(F)c([H])c7F)c([H])c6[H])c(C(=O)N([H])[H])c5N([H])[H])C4([H])[H])c(Cl)c3C([H])([H])[H])C([H])([H])[H])c([H])c([H])c2C1([H])[H]

$$$$
78:0:0
     RDKit          3D

 91 99  0  0  1  0  0  0  0  0999 V2000
  -28.3380  -19.9520   19.8590 C   0  0  0  0  0  3  0  0  0  0  0  0
  -30.1580  -20.9130   21.1000 C   0  0  0  0  0  3  0  0  0  0  0  0
  -28.9760  -21.1170   20.3570 C   0  0  0  0  0  0  0  0  0  0  0  0
  -30.0160  -18.4240   20.8450 C   0  0  0  0  0  0  0  0  0  0  0  0
  -28.8350  -18.6370   20.0820 C   0  0  0  0  0  0  0  0  0  0  0  0
  -30.6670  -19.6030   21.3330 C   0  0  0  0  0  0  0  0  0  0  0  0
  -27.9590  -17.3280   19.3710 Cl  0  0  0  0  0  0  0  0  0  0  0  0
  -32.1400  -19.4790   22.2300 Cl  0  0  0  0  0  0  0  0  0  0  0  0
  -28.3340  -22.5040   20.0500 C   0  0  0  0  0  2  0  0  0  0  0  0
  -28.9490  -23.8930   20.4940 C   0  0  0  0  0  2  0  0  0  0  0  0
  -28.0140  -25.0800   20.0340 C   0  0  0  0  0  2  0  0  0  0  0  0
  -28.2950  -26.5040   20.2840 O   0  0  0  0  0  0  0  0  0  0  0  0
  -24.6230  -31.9240   23.2630 C   0  0  0  0  0  0  0  0  0  0  0  0
  -27.1910  -27.3690   20.2020 C   0  0  0  0  0  0  0  0  0  0  0  0
  -23.4030  -30.5350   21.6270 C   0  0  0  0  0  3  0  0  0  0  0  0
  -24.8390  -28.9860   20.1960 C   0  0  0  0  0  0  0  0  0  0  0  0
  -25.9430  -30.8420   21.4370 C   0  0  0  0  0  2  0  0  0  0  0  0
  -26.0110  -29.4660   20.7920 C   0  0  0  0  0  0  0  0  0  0  0  0
  -27.1910  -28.6660   20.7930 C   0  0  0  0  0  3  0  0  0  0  0  0
  -25.9970  -26.9530   19.5600 C   0  0  0  0  0  3  0  0  0  0  0  0
  -24.8310  -27.7320   19.5740 C   0  0  0  0  0  3  0  0  0  0  0  0
  -23.6080  -29.8660   20.2460 C   0  0  0  0  0  2  0  0  0  0  0  0
  -24.6760  -31.1160   22.1660 N   0  0  0  0  0  0  0  0  0  0  0  0
  -23.5420  -32.2100   23.8000 O   0  0  0  0  0  0  0  0  0  0  0  0
  -22.7400  -29.5190   22.5870 C   0  0  0  0  0  0  0  0  0  0  0  0
  -21.4130  -29.3470   22.4610 N   0  0  0  0  0  0  0  0  0  0  0  0
  -23.4160  -28.8890   23.4050 O   0  0  0  0  0  0  0  0  0  0  0  0
  -20.9260  -29.9080   21.7740 H   0  0  0  0  0  0  0  0  0  0  0  0
  -18.0290  -28.1730   22.9610 C   0  0  0  0  0  0  0  0  0  0  0  0
  -20.5880  -28.4170   23.2330 C   0  0  0  0  0  3  0  0  0  0  0  0
  -20.6830  -26.9830   22.6640 C   0  0  0  0  0  2  0  0  0  0  0  0
  -19.5810  -26.6620   21.6500 C   0  0  0  0  0  2  0  0  0  0  0  0
  -18.1980  -26.8200   22.2910 C   0  0  0  0  0  2  0  0  0  0  0  0
  -19.1530  -28.9300   23.3900 C   0  0  0  0  0  0  0  0  0  0  0  0
  -18.9410  -30.1960   23.9760 C   0  0  0  0  0  3  0  0  0  0  0  0
  -17.6390  -30.7080   24.1360 C   0  0  0  0  0  3  0  0  0  0  0  0
  -16.5300  -29.9490   23.7240 C   0  0  0  0  0  3  0  0  0  0  0  0
  -16.7260  -28.6830   23.1430 C   0  0  0  0  0  3  0  0  0  0  0  0
  -25.9130  -32.5460   23.8810 C   0  0  0  0  0  3  0  0  0  0  0  0
  -26.4260  -31.7700   25.1550 C   0  0  1  0  0  0  0  0  0  0  0  0
  -25.3340  -31.5420   26.2250 C   0  0  0  0  0  1  0  0  0  0  0  0
  -26.9970  -30.3880   24.7600 C   0  0  0  0  0  1  0  0  0  0  0  0
  -27.5850  -32.5550   25.8120 C   0  0  0  0  0  1  0  0  0  0  0  0
  -25.6150  -33.9460   24.2100 N   0  0  0  0  0  0  0  0  0  0  0  0
  -25.9410  -34.9950   23.4430 C   0  0  0  0  0  0  0  0  0  0  0  0
  -26.5970  -34.8850   22.4030 O   0  0  0  0  0  0  0  0  0  0  0  0
  -25.0300  -34.1070   25.0170 H   0  0  0  0  0  0  0  0  0  0  0  0
  -24.2120  -36.7910   23.1120 C   0  0  0  0  0  1  0  0  0  0  0  0
  -25.4670  -36.3870   23.9020 C   0  0  0  0  0  3  0  0  0  0  0  0
  -27.6210  -37.2680   24.6860 C   0  0  0  0  0  1  0  0  0  0  0  0
  -26.5010  -37.4370   23.7630 N   0  0  0  0  0  0  0  0  0  0  0  0
  -26.1010  -38.3590   23.9170 H   0  0  0  0  0  0  0  0  0  0  0  0
  -30.6800  -17.0290   21.1430 C   0  0  0  0  0  2  0  0  0  0  0  0
  -30.6780  -14.5890   20.4490 C   0  0  0  0  0  0  0  0  0  0  0  0
  -30.3560  -12.3890   19.3510 C   0  0  0  0  0  2  0  0  0  0  0  0
  -29.4130  -12.5350   18.1390 C   0  0  0  0  0  2  0  0  0  0  0  0
  -27.9460  -12.3830   18.5830 C   0  0  0  0  0  2  0  0  0  0  0  0
  -27.6010  -13.2550   19.8200 C   0  0  0  0  0  3  0  0  0  0  0  0
  -28.6660  -13.1160   20.9300 C   0  0  0  0  0  2  0  0  0  0  0  0
  -29.9750  -13.4210   20.3360 N   0  0  0  0  0  0  0  0  0  0  0  0
  -31.8320  -14.6790   20.0290 O   0  0  0  0  0  0  0  0  0  0  0  0
  -30.0300  -15.6980   20.9010 N   0  0  0  0  0  0  0  0  0  0  0  0
  -29.0610  -15.5960   21.1640 H   0  0  0  0  0  0  0  0  0  0  0  0
  -25.2120  -13.8460   20.5590 C   0  0  0  0  0  0  0  0  0  0  0  0
  -24.1480  -13.0700   20.9300 C   0  0  0  0  0  0  0  0  0  0  0  0
  -24.6110  -11.7190   20.8910 C   0  0  0  0  0  0  0  0  0  0  0  0
  -26.2570  -12.9690   20.3160 N   0  0  0  0  0  0  0  0  0  0  0  0
  -25.9010  -11.6850   20.5760 N   0  0  0  0  0  0  0  0  0  0  0  0
  -23.8870  -10.4560   21.0790 C   0  0  0  0  0  0  0  0  0  0  0  0
  -24.3360   -9.4760   21.9910 C   0  0  0  0  0  3  0  0  0  0  0  0
  -23.6120   -8.2770   22.1680 C   0  0  0  0  0  3  0  0  0  0  0  0
  -22.4240   -8.0510   21.4340 C   0  0  0  0  0  0  0  0  0  0  0  0
  -21.9930   -9.0200   20.5100 C   0  0  0  0  0  3  0  0  0  0  0  0
  -22.7190  -10.2100   20.3300 C   0  0  0  0  0  3  0  0  0  0  0  0
  -21.6700   -6.9050   21.5210 O   0  0  0  0  0  0  0  0  0  0  0  0
  -21.6500   -6.1420   22.6600 C   0  0  0  0  0  0  0  0  0  0  0  0
  -21.2590   -6.6740   23.9080 C   0  0  0  0  0  3  0  0  0  0  0  0
  -21.1870   -5.8370   25.0390 C   0  0  0  0  0  3  0  0  0  0  0  0
  -21.4950   -4.4680   24.9240 C   0  0  0  0  0  0  0  0  0  0  0  0
  -21.8770   -3.9340   23.6810 C   0  0  0  0  0  3  0  0  0  0  0  0
  -21.9520   -4.7690   22.5520 C   0  0  0  0  0  0  0  0  0  0  0  0
  -22.3030   -4.2460   21.3510 F   0  0  0  0  0  0  0  0  0  0  0  0
  -21.4170   -3.6610   26.0080 F   0  0  0  0  0  0  0  0  0  0  0  0
  -22.7520  -13.5440   21.2110 C   0  0  0  0  0  0  0  0  0  0  0  0
  -22.0310  -12.8480   22.0820 N   0  0  0  0  0  0  0  0  0  0  0  0
  -22.3090  -14.5690   20.6930 O   0  0  0  0  0  0  0  0  0  0  0  0
  -22.4030  -12.0200   22.5240 H   0  0  0  0  0  0  0  0  0  0  0  0
  -21.0950  -13.1470   22.3110 H   0  0  0  0  0  0  0  0  0  0  0  0
  -25.3700  -15.2190   20.3880 N   0  0  0  0  0  0  0  0  0  0  0  0
  -24.5960  -15.8620   20.5080 H   0  0  0  0  0  0  0  0  0  0  0  0
  -26.2100  -15.6710   20.0470 H   0  0  0  0  0  0  0  0  0  0  0  0
  1  5  2  0
  1  3  1  0
  2  6  1  0
  3  2  2  0
  4 53  1  0
  4  6  2  0
  5  4  1  0
  6  8  1  0
  7  5  1  0
  9  3  1  0
  9 10  1  0
 11 12  1  0
 11 10  1  0
 13 24  2  0
 14 12  1  0
 14 19  1  0
 15 23  1  0
 15 25  1  0
 16 22  1  0
 16 18  1  0
 17 23  1  0
 18 19  2  0
 18 17  1  0
 20 21  1  0
 20 14  2  0
 21 16  2  0
 22 15  1  0
 23 13  1  0
 25 27  2  0
 26 25  1  0
 28 26  1  0
 29 38  2  0
 29 34  1  0
 30 26  1  0
 30 34  1  0
 31 30  1  0
 32 33  1  0
 32 31  1  0
 33 29  1  0
 34 35  2  0
 35 36  1  0
 37 36  2  0
 38 37  1  0
 39 13  1  0
 39 44  1  0
 39 40  1  0
 40 43  1  1
 40 41  1  0
 42 40  1  0
 44 47  1  0
 45 49  1  0
 45 44  1  0
 46 45  2  0
 49 48  1  0
 51 49  1  0
 51 52  1  0
 51 50  1  0
 54 62  1  0
 55 60  1  0
 56 57  1  0
 56 55  1  0
 58 57  1  0
 58 67  1  0
 58 59  1  0
 60 54  1  0
 60 59  1  0
 61 54  2  0
 62 53  1  0
 62 63  1  0
 64 65  2  0
 65 84  1  0
 66 65  1  0
 66 69  1  0
 67 64  1  0
 67 68  1  0
 68 66  2  0
 69 70  1  0
 70 71  2  0
 72 75  1  0
 72 71  1  0
 73 72  2  0
 74 73  1  0
 74 69  2  0
 75 76  1  0
 76 77  1  0
 77 78  2  0
 79 78  1  0
 79 83  1  0
 80 79  2  0
 81 76  2  0
 81 80  1  0
 82 81  1  0
 84 85  1  0
 85 88  1  0
 85 87  1  0
 86 84  2  0
 89 90  1  0
 89 64  1  0
 91 89  1  0
M  ISO  4  11 101  12 101  54 100  62 100
M  END
>  <TORSDO>  (79) 
F 20

>  <SCORE>  (79) 
-14.222

>  <name>  (79) 
78

>  <ligand_id>  (79) 
78

>  <original_smiles>  (79) 
[H]c1c([H])c([H])c2c(c1[H])C([H])([H])C([H])([H])C([H])([H])C2([H])N([H])C(=O)C1([H])N(C(=O)C([H])(N([H])C(=O)C([H])(N([H])C([H])([H])[H])C([H])([H])[H])C(C([H])([H])[H])(C([H])([H])[H])C([H])([H])[H])C([H])([H])c2c([H])c(OC([H])([H])C([H])([H])C([H])([H])c3c([H])c(Cl)c(C([H])([H])N([H])C(=O)N4C([H])([H])C([H])([H])C([H])([H])C([H])(n5nc(-c6c([H])c([H])c(Oc7c([H])c([H])c(F)c([H])c7F)c([H])c6[H])c(C(=O)N([H])[H])c5N([H])[H])C4([H])[H])c(Cl)c3[H])c([H])c([H])c2C1([H])[H]

>  <smiles>  (79) 
[H]c1c([H])c([H])c2c(c1[H])C([H])([H])C([H])([H])C([H])([H])C2([H])N([H])C(=O)C1([H])N(C(=O)C([H])(N([H])C(=O)C([H])(N([H])C([H])([H])[H])C([H])([H])[H])C(C([H])([H])[H])(C([H])([H])[H])C([H])([H])[H])C([H])([H])c2c([H])c(OC([H])([H])C([H])([H])C([H])([H])c3c([H])c(Cl)c(C([H])([H])N([H])C(=O)N4C([H])([H])C([H])([H])C([H])([H])C([H])(n5nc(-c6c([H])c([H])c(Oc7c([H])c([H])c(F)c([H])c7F)c([H])c6[H])c(C(=O)N([H])[H])c5N([H])[H])C4([H])[H])c(Cl)c3[H])c([H])c([H])c2C1([H])[H]

$$$$
79:0:0
     RDKit          3D

104107  0  0  1  0  0  0  0  0999 V2000
  -29.1490  -19.7470   16.7910 C   0  0  0  0  0  2  0  0  0  0  0  0
  -30.8720  -18.7050   18.1850 C   0  0  0  0  0  0  0  0  0  0  0  0
  -29.6370  -19.0220   17.9540 N   0  0  0  0  0  0  0  0  0  0  0  0
  -31.0490  -15.1710   19.8920 C   0  0  0  0  0  2  0  0  0  0  0  0
  -29.9850  -15.4420   20.9650 C   0  0  0  0  0  2  0  0  0  0  0  0
  -30.0720  -17.9200   20.4450 C   0  0  0  0  0  2  0  0  0  0  0  0
  -31.0820  -17.6690   19.2980 C   0  0  0  0  0  3  0  0  0  0  0  0
  -30.9790  -16.2050   18.7530 C   0  0  0  0  0  3  0  0  0  0  0  0
  -30.1390  -16.8530   21.5460 C   0  0  0  0  0  3  0  0  0  0  0  0
  -32.0500  -15.8790   17.6890 C   0  0  0  0  0  1  0  0  0  0  0  0
  -31.3060  -16.9500   22.1860 F   0  0  0  0  0  0  0  0  0  0  0  0
  -32.1700  -19.1290   17.4120 C   0  0  1  0  0  0  0  0  0  0  0  0
  -32.2950  -18.3730   16.3210 F   0  0  0  0  0  0  0  0  0  0  0  0
  -32.0730  -20.3870   17.0010 F   0  0  0  0  0  0  0  0  0  0  0  0
  -33.5530  -19.0630   18.1800 C   0  0  0  0  0  2  0  0  0  0  0  0
  -33.8330  -19.8090   20.6670 C   0  0  0  0  0  0  0  0  0  0  0  0
  -33.0860  -20.6530   22.8920 C   0  0  0  0  0  2  0  0  0  0  0  0
  -31.6430  -20.1670   23.1640 C   0  0  0  0  0  2  0  0  0  0  0  0
  -30.5910  -21.0630   22.4720 C   0  0  0  0  0  2  0  0  0  0  0  0
  -30.9450  -21.3530   20.9890 C   0  0  0  0  0  3  0  0  0  0  0  0
  -32.4030  -21.8520   20.9020 C   0  0  0  0  0  2  0  0  0  0  0  0
  -33.2640  -20.7800   21.4350 N   0  0  0  0  0  0  0  0  0  0  0  0
  -34.4690  -18.8590   21.1450 O   0  0  0  0  0  0  0  0  0  0  0  0
  -33.5330  -19.9600   19.3530 N   0  0  0  0  0  0  0  0  0  0  0  0
  -33.0540  -20.8270   19.1640 H   0  0  0  0  0  0  0  0  0  0  0  0
  -29.9820  -22.7980   19.0860 C   0  0  0  0  0  0  0  0  0  0  0  0
  -28.8880  -23.6160   19.0260 C   0  0  0  0  0  0  0  0  0  0  0  0
  -28.2840  -23.5540   20.3180 C   0  0  0  0  0  0  0  0  0  0  0  0
  -30.0190  -22.3030   20.3800 N   0  0  0  0  0  0  0  0  0  0  0  0
  -29.0100  -22.8030   21.1350 N   0  0  0  0  0  0  0  0  0  0  0  0
  -27.0230  -24.1190   20.8090 C   0  0  0  0  0  0  0  0  0  0  0  0
  -27.0020  -25.2050   21.7100 C   0  0  0  0  0  3  0  0  0  0  0  0
  -25.7750  -25.7410   22.1550 C   0  0  0  0  0  3  0  0  0  0  0  0
  -24.5540  -25.1920   21.6960 C   0  0  0  0  0  0  0  0  0  0  0  0
  -24.5810  -24.0950   20.8180 C   0  0  0  0  0  3  0  0  0  0  0  0
  -25.8030  -23.5590   20.3790 C   0  0  0  0  0  3  0  0  0  0  0  0
  -23.3140  -25.6300   22.0950 O   0  0  0  0  0  0  0  0  0  0  0  0
  -23.0820  -26.9480   22.3960 C   0  0  0  0  0  0  0  0  0  0  0  0
  -22.9070  -27.9230   21.3890 C   0  0  0  0  0  3  0  0  0  0  0  0
  -22.5990  -29.2520   21.7420 C   0  0  0  0  0  3  0  0  0  0  0  0
  -22.4580  -29.6060   23.0980 C   0  0  0  0  0  0  0  0  0  0  0  0
  -22.6270  -28.6350   24.1010 C   0  0  0  0  0  3  0  0  0  0  0  0
  -22.9350  -27.3100   23.7500 C   0  0  0  0  0  0  0  0  0  0  0  0
  -23.0770  -26.3740   24.7190 F   0  0  0  0  0  0  0  0  0  0  0  0
  -22.1550  -30.8810   23.4370 F   0  0  0  0  0  0  0  0  0  0  0  0
  -28.3760  -24.3380   17.8130 C   0  0  0  0  0  0  0  0  0  0  0  0
  -28.0380  -25.6140   17.9600 N   0  0  0  0  0  0  0  0  0  0  0  0
  -28.3200  -23.7870   16.7140 O   0  0  0  0  0  0  0  0  0  0  0  0
  -28.1050  -26.0700   18.8570 H   0  0  0  0  0  0  0  0  0  0  0  0
  -27.7100  -26.1420   17.1650 H   0  0  0  0  0  0  0  0  0  0  0  0
  -30.9280  -22.4250   18.1400 N   0  0  0  0  0  0  0  0  0  0  0  0
  -30.8950  -22.7660   17.1870 H   0  0  0  0  0  0  0  0  0  0  0  0
  -31.7450  -21.8650   18.3370 H   0  0  0  0  0  0  0  0  0  0  0  0
  -29.0270  -18.8220   15.5310 C   0  0  0  0  0  2  0  0  0  0  0  0
  -29.7390  -19.2250   14.2000 C   0  0  0  0  0  2  0  0  0  0  0  0
  -30.6090  -18.0680   13.6010 C   0  0  0  0  0  2  0  0  0  0  0  0
  -30.6600  -17.8920   12.0430 C   0  0  0  0  0  2  0  0  0  0  0  0
  -31.8580  -18.6590   11.3890 C   0  0  0  0  0  2  0  0  0  0  0  0
  -32.2160  -20.1250   11.8670 C   0  0  0  0  0  2  0  0  0  0  0  0
  -33.7020  -20.6370   12.1730 C   0  0  0  0  0  2  0  0  0  0  0  0
  -34.9160  -20.0850   11.2800 C   0  0  0  0  0  2  0  0  0  0  0  0
  -34.8830  -20.8980   10.3270 O   0  0  0  0  0  1  0  0  0  0  0  0
  -36.4090  -17.6590   11.6570 C   0  0  0  0  0 15  0  0  0  0  0  0
  -35.6520  -15.7800   12.2970 O   0  0  0  0  0  1  0  0  0  0  0  0
  -33.6080  -11.9370    9.0670 C   0  0  0  0  0  0  0  0  0  0  0  0
  -35.2370  -14.5900   13.2790 C   0  0  0  0  0  3  0  0  0  0  0  0
  -33.7250  -14.2490    9.8370 C   0  0  0  0  0  3  0  0  0  0  0  0
  -32.9970  -14.8120   12.3000 C   0  0  0  0  0  3  0  0  0  0  0  0
  -32.8210  -12.4890   11.3810 C   0  0  0  0  0  2  0  0  0  0  0  0
  -33.3100  -13.4630   12.4250 C   0  0  0  0  0  3  0  0  0  0  0  0
  -34.5300  -13.3140   13.0890 C   0  0  0  0  0  2  0  0  0  0  0  0
  -34.4170  -15.2290   14.2190 C   0  0  0  0  0  2  0  0  0  0  0  0
  -33.3690  -15.6700   13.3870 C   0  0  0  0  0  2  0  0  0  0  0  0
  -33.0380  -15.2620   10.8520 C   0  0  0  0  0  2  0  0  0  0  0  0
  -33.3280  -12.8410   10.0470 N   0  0  0  0  0  0  0  0  0  0  0  0
  -34.0670  -12.2880    7.9680 O   0  0  0  0  0  0  0  0  0  0  0  0
  -35.2660  -14.1920    9.8170 C   0  0  0  0  0  0  0  0  0  0  0  0
  -35.8600  -14.5890    8.7480 N   0  0  0  0  0  0  0  0  0  0  0  0
  -35.9720  -13.7100   10.6930 O   0  0  0  0  0  0  0  0  0  0  0  0
  -35.3200  -14.8580    7.9390 H   0  0  0  0  0  0  0  0  0  0  0  0
  -38.1710  -14.1290    6.0950 C   0  0  0  0  0  0  0  0  0  0  0  0
  -37.2220  -15.0570    8.8410 C   0  0  0  0  0  2  0  0  0  0  0  0
  -37.7530  -17.2530    8.6520 C   0  0  0  0  0 15  0  0  0  0  0  0
  -38.4010  -17.5500    6.4960 C   0  0  0  0  0 15  0  0  0  0  0  0
  -38.3900  -15.8140    5.4060 C   0  0  0  0  0  1  0  0  0  0  0  0
  -37.6050  -13.8400    7.5190 C   0  0  0  0  0  0  0  0  0  0  0  0
  -37.5990  -12.4550    7.9180 C   0  0  0  0  0  3  0  0  0  0  0  0
  -38.1880  -11.3850    7.2000 C   0  0  0  0  0  3  0  0  0  0  0  0
  -38.9250  -11.6670    6.0450 C   0  0  0  0  0  3  0  0  0  0  0  0
  -38.9290  -13.0000    5.5320 C   0  0  0  0  0  3  0  0  0  0  0  0
  -33.3440  -10.4330    9.2870 C   0  0  0  0  0  3  0  0  0  0  0  0
  -32.5660   -9.9980    8.1260 N   0  0  0  0  0  0  0  0  0  0  0  0
  -31.2450   -9.7950    8.1440 C   0  0  0  0  0  0  0  0  0  0  0  0
  -30.5720   -9.8690    9.1740 O   0  0  0  0  0  0  0  0  0  0  0  0
  -33.0460   -9.9840    7.2390 H   0  0  0  0  0  0  0  0  0  0  0  0
  -29.9940  -10.7310    6.1720 C   0  0  0  0  0  1  0  0  0  0  0  0
  -30.5660   -9.4530    6.8060 C   0  0  0  0  0  3  0  0  0  0  0  0
  -30.0140   -7.0840    7.1220 C   0  0  0  0  0  1  0  0  0  0  0  0
  -29.4990   -8.4390    6.9400 N   0  0  0  0  0  0  0  0  0  0  0  0
  -28.8920   -8.4410    6.1240 H   0  0  0  0  0  0  0  0  0  0  0  0
  -34.6580   -9.5760    9.4390 C   0  0  1  0  0  0  0  0  0  0  0  0
  -35.3320   -9.2090    8.0960 C   0  0  0  0  0  1  0  0  0  0  0  0
  -35.7070  -10.3140   10.3000 C   0  0  0  0  0  1  0  0  0  0  0  0
  -34.3180   -8.2680   10.1880 C   0  0  0  0  0  1  0  0  0  0  0  0
  1  3  1  0
  3  2  2  0
  4  5  1  0
  5  9  1  0
  6  9  1  0
  7  2  1  0
  7  6  1  0
  8 10  1  0
  8  7  1  0
  8  4  1  0
  9 11  1  0
 12 15  1  0
 12  2  1  0
 12 13  1  6
 14 12  1  0
 15 24  1  0
 16 23  2  0
 16 22  1  0
 17 18  1  0
 19 18  1  0
 20 29  1  0
 20 19  1  0
 21 20  1  0
 21 22  1  0
 22 17  1  0
 24 16  1  0
 25 24  1  0
 26 29  1  0
 27 26  2  0
 27 28  1  0
 28 31  1  0
 28 30  2  0
 29 30  1  0
 31 32  1  0
 32 33  2  0
 34 37  1  0
 34 33  1  0
 35 34  2  0
 36 31  2  0
 36 35  1  0
 37 38  1  0
 38 43  1  0
 39 40  1  0
 39 38  2  0
 40 41  2  0
 41 45  1  0
 41 42  1  0
 43 42  2  0
 43 44  1  0
 46 47  1  0
 46 27  1  0
 47 49  1  0
 48 46  2  0
 50 47  1  0
 51 53  1  0
 51 26  1  0
 52 51  1  0
 54  1  1  0
 55 54  1  0
 56 55  1  0
 57 56  1  0
 58 59  1  0
 58 57  1  0
 59 60  1  0
 61 60  1  0
 62 61  1  0
 65 75  1  0
 66 64  1  0
 66 72  1  0
 67 77  1  0
 67 75  1  0
 67 74  1  0
 68 74  1  0
 68 70  1  0
 68 73  1  0
 70 69  1  0
 70 71  1  0
 71 66  1  0
 73 72  1  0
 75 69  1  0
 76 65  2  0
 77 79  2  0
 78 82  1  0
 78 77  1  0
 80 78  1  0
 81 86  1  0
 85 81  1  0
 86 87  2  0
 86 82  1  0
 88 87  1  0
 89 88  2  0
 90 89  1  0
 90 81  2  0
 91 65  1  0
 91101  1  0
 92 93  1  0
 92 91  1  0
 93 94  2  0
 95 92  1  0
 97 96  1  0
 97 99  1  0
 97 93  1  0
 99 98  1  0
100 99  1  0
101104  1  1
101103  1  0
102101  1  0
M  ISO  4  16 100  24 100  63 101  64 101
M  END
>  <TORSDO>  (80) 
F 29

>  <SCORE>  (80) 
-5.082

>  <name>  (80) 
79

>  <ligand_id>  (80) 
79

>  <original_smiles>  (80) 
[H]c1c([H])c([H])c2c(c1[H])C([H])([H])C([H])([H])C([H])([H])C2([H])N([H])C(=O)C1([H])N(C(=O)C([H])(N([H])C(=O)C([H])(N([H])C([H])([H])[H])C([H])([H])[H])C(C([H])([H])[H])(C([H])([H])[H])C([H])([H])[H])C([H])([H])c2c([H])c(OC([H])([H])C(=O)C([H])([H])C([H])([H])C([H])([H])C([H])([H])C([H])([H])C([H])([H])C([H])([H])C([H])([H])N=C(C(F)(F)C([H])([H])N([H])C(=O)N3C([H])([H])C([H])([H])C([H])([H])C([H])(n4nc(-c5c([H])c([H])c(Oc6c([H])c([H])c(F)c([H])c6F)c([H])c5[H])c(C(=O)N([H])[H])c4N([H])[H])C3([H])[H])C3([H])C([H])([H])C([H])(F)C([H])([H])C([H])([H])C3([H])C([H])([H])[H])c([H])c([H])c2C1([H])[H]

>  <smiles>  (80) 
[H]c1c([H])c([H])c2c(c1[H])C([H])([H])C([H])([H])C([H])([H])C2([H])N([H])C(=O)C1([H])N(C(=O)C([H])(N([H])C(=O)C([H])(N([H])C([H])([H])[H])C([H])([H])[H])C(C([H])([H])[H])(C([H])([H])[H])C([H])([H])[H])C([H])([H])c2c([H])c(OC([H])([H])C(=O)C([H])([H])C([H])([H])C([H])([H])C([H])([H])C([H])([H])C([H])([H])C([H])([H])C([H])([H])N=C(C(F)(F)C([H])([H])N([H])C(=O)N3C([H])([H])C([H])([H])C([H])([H])C([H])(n4nc(-c5c([H])c([H])c(Oc6c([H])c([H])c(F)c([H])c6F)c([H])c5[H])c(C(=O)N([H])[H])c4N([H])[H])C3([H])[H])C3([H])C([H])([H])C([H])(F)C([H])([H])C([H])([H])C3([H])C([H])([H])[H])c([H])c([H])c2C1([H])[H]

$$$$
80:0:0
     RDKit          3D

 95103  0  0  1  0  0  0  0  0999 V2000
  -29.4530  -20.4260   17.0100 C   0  0  0  0  0  1  0  0  0  0  0  0
  -29.7260  -21.0580   18.3300 N   0  0  1  0  0  4  0  0  0  0  0  0
  -28.9230  -20.8190   18.8900 H   0  0  0  0  0  0  0  0  0  0  0  0
  -30.9090  -20.5340   19.0760 C   0  0  0  0  0  2  0  0  0  0  0  0
  -30.4810  -18.0990   19.7850 C   0  0  0  0  0  3  0  0  0  0  0  0
  -30.6480  -16.7240   19.5160 C   0  0  0  0  0  0  0  0  0  0  0  0
  -31.3570  -16.3610   18.3390 C   0  0  0  0  0  0  0  0  0  0  0  0
  -31.1030  -19.0340   18.9280 C   0  0  0  0  0  0  0  0  0  0  0  0
  -31.9580  -17.3680   17.5650 C   0  0  0  0  0  0  0  0  0  0  0  0
  -31.8540  -18.6740   17.8670 N   0  0  0  0  0  0  0  0  0  0  0  0
  -31.4800  -15.0700   17.9500 F   0  0  0  0  0  0  0  0  0  0  0  0
  -32.8540  -16.9390   16.1530 Cl  0  0  0  0  0  0  0  0  0  0  0  0
  -30.8180  -14.6340   20.7140 C   0  0  0  0  0  0  0  0  0  0  0  0
  -30.5490  -12.4170   19.7650 C   0  0  0  0  0  2  0  0  0  0  0  0
  -29.6740  -12.5090   18.4990 C   0  0  0  0  0  2  0  0  0  0  0  0
  -28.1890  -12.3790   18.8700 C   0  0  0  0  0  2  0  0  0  0  0  0
  -27.7640  -13.3300   20.0200 C   0  0  0  0  0  3  0  0  0  0  0  0
  -28.7570  -13.2640   21.2040 C   0  0  0  0  0  2  0  0  0  0  0  0
  -30.1140  -13.4780   20.6800 N   0  0  0  0  0  0  0  0  0  0  0  0
  -32.0470  -14.6780   20.6770 O   0  0  0  0  0  0  0  0  0  0  0  0
  -30.1170  -15.7360   20.4030 N   0  0  0  0  0  0  0  0  0  0  0  0
  -29.1210  -15.7380   20.5540 H   0  0  0  0  0  0  0  0  0  0  0  0
  -25.3270  -13.9370   20.5920 C   0  0  0  0  0  0  0  0  0  0  0  0
  -24.2460  -13.1600   20.9070 C   0  0  0  0  0  0  0  0  0  0  0  0
  -24.7220  -11.8130   20.9360 C   0  0  0  0  0  0  0  0  0  0  0  0
  -26.3930  -13.0610   20.4400 N   0  0  0  0  0  0  0  0  0  0  0  0
  -26.0290  -11.7820   20.7130 N   0  0  0  0  0  0  0  0  0  0  0  0
  -24.0000  -10.5480   21.1020 C   0  0  0  0  0  0  0  0  0  0  0  0
  -24.3930   -9.5920   22.0650 C   0  0  0  0  0  3  0  0  0  0  0  0
  -23.6670   -8.3910   22.2190 C   0  0  0  0  0  3  0  0  0  0  0  0
  -22.5350   -8.1360   21.4070 C   0  0  0  0  0  0  0  0  0  0  0  0
  -22.1650   -9.0820   20.4340 C   0  0  0  0  0  3  0  0  0  0  0  0
  -22.8910  -10.2740   20.2800 C   0  0  0  0  0  3  0  0  0  0  0  0
  -21.7850   -6.9860   21.4690 O   0  0  0  0  0  0  0  0  0  0  0  0
  -21.6910   -6.2490   22.6230 C   0  0  0  0  0  0  0  0  0  0  0  0
  -21.2020   -6.8090   23.8230 C   0  0  0  0  0  3  0  0  0  0  0  0
  -21.0530   -6.0030   24.9690 C   0  0  0  0  0  3  0  0  0  0  0  0
  -21.3810   -4.6350   24.9140 C   0  0  0  0  0  0  0  0  0  0  0  0
  -21.8650   -4.0730   23.7190 C   0  0  0  0  0  3  0  0  0  0  0  0
  -22.0150   -4.8780   22.5760 C   0  0  0  0  0  0  0  0  0  0  0  0
  -22.4600   -4.3280   21.4200 F   0  0  0  0  0  0  0  0  0  0  0  0
  -21.2320   -3.8570   26.0110 F   0  0  0  0  0  0  0  0  0  0  0  0
  -22.8300  -13.6270   21.0780 C   0  0  0  0  0  0  0  0  0  0  0  0
  -22.0530  -12.9360   21.9060 N   0  0  0  0  0  0  0  0  0  0  0  0
  -22.4180  -14.6390   20.5130 O   0  0  0  0  0  0  0  0  0  0  0  0
  -22.3940  -12.1130   22.3790 H   0  0  0  0  0  0  0  0  0  0  0  0
  -21.1010  -13.2320   22.0590 H   0  0  0  0  0  0  0  0  0  0  0  0
  -25.4860  -15.3050   20.3950 N   0  0  0  0  0  0  0  0  0  0  0  0
  -24.7020  -15.9480   20.4420 H   0  0  0  0  0  0  0  0  0  0  0  0
  -26.3360  -15.7540   20.0860 H   0  0  0  0  0  0  0  0  0  0  0  0
  -29.7520  -22.5360   18.2200 C   0  0  0  0  0  2  0  0  0  0  0  0
  -29.1090  -23.2200   19.4340 C   0  0  0  0  0  2  0  0  0  0  0  0
  -29.0780  -24.7410   19.2440 C   0  0  0  0  0  2  0  0  0  0  0  0
  -28.3070  -25.4520   20.3580 C   0  0  0  0  0  2  0  0  0  0  0  0
  -28.3430  -26.8510   20.0900 O   0  0  0  0  0  0  0  0  0  0  0  0
  -24.5520  -31.9240   23.2490 C   0  0  0  0  0  0  0  0  0  0  0  0
  -27.1510  -27.5290   20.1040 C   0  0  0  0  0  0  0  0  0  0  0  0
  -23.3190  -30.5320   21.6170 C   0  0  0  0  0  3  0  0  0  0  0  0
  -24.7500  -29.0050   20.1590 C   0  0  0  0  0  0  0  0  0  0  0  0
  -25.8380  -30.8990   21.3830 C   0  0  0  0  0  2  0  0  0  0  0  0
  -25.9120  -29.5360   20.7320 C   0  0  0  0  0  0  0  0  0  0  0  0
  -27.1160  -28.8050   20.6970 C   0  0  0  0  0  3  0  0  0  0  0  0
  -25.9750  -27.0070   19.5190 C   0  0  0  0  0  3  0  0  0  0  0  0
  -24.7730  -27.7380   19.5520 C   0  0  0  0  0  3  0  0  0  0  0  0
  -23.5070  -29.8610   20.2300 C   0  0  0  0  0  2  0  0  0  0  0  0
  -24.5880  -31.1320   22.1400 N   0  0  0  0  0  0  0  0  0  0  0  0
  -23.4810  -32.1910   23.8080 O   0  0  0  0  0  0  0  0  0  0  0  0
  -22.6830  -29.5060   22.5810 C   0  0  0  0  0  0  0  0  0  0  0  0
  -21.3600  -29.3120   22.4600 N   0  0  0  0  0  0  0  0  0  0  0  0
  -23.3780  -28.8830   23.3890 O   0  0  0  0  0  0  0  0  0  0  0  0
  -20.8590  -29.8670   21.7820 H   0  0  0  0  0  0  0  0  0  0  0  0
  -18.0030  -28.0800   22.9660 C   0  0  0  0  0  0  0  0  0  0  0  0
  -20.5580  -28.3710   23.2370 C   0  0  0  0  0  3  0  0  0  0  0  0
  -20.6770  -26.9390   22.6680 C   0  0  0  0  0  2  0  0  0  0  0  0
  -19.5790  -26.5980   21.6550 C   0  0  0  0  0  2  0  0  0  0  0  0
  -18.1950  -26.7290   22.2980 C   0  0  0  0  0  2  0  0  0  0  0  0
  -19.1120  -28.8570   23.3940 C   0  0  0  0  0  0  0  0  0  0  0  0
  -18.8780  -30.1210   23.9780 C   0  0  0  0  0  3  0  0  0  0  0  0
  -17.5690  -30.6110   24.1390 C   0  0  0  0  0  3  0  0  0  0  0  0
  -16.4730  -29.8310   23.7280 C   0  0  0  0  0  3  0  0  0  0  0  0
  -16.6920  -28.5680   23.1500 C   0  0  0  0  0  3  0  0  0  0  0  0
  -25.8490  -32.5490   23.8530 C   0  0  0  0  0  3  0  0  0  0  0  0
  -25.5500  -33.9500   24.1810 N   0  0  0  0  0  0  0  0  0  0  0  0
  -25.8900  -34.9980   23.4190 C   0  0  0  0  0  0  0  0  0  0  0  0
  -26.5600  -34.8880   22.3870 O   0  0  0  0  0  0  0  0  0  0  0  0
  -24.9540  -34.1080   24.9790 H   0  0  0  0  0  0  0  0  0  0  0  0
  -24.1810  -36.8080   23.0530 C   0  0  0  0  0  1  0  0  0  0  0  0
  -25.4120  -36.3910   23.8730 C   0  0  0  0  0  3  0  0  0  0  0  0
  -27.5520  -37.2480   24.7170 C   0  0  0  0  0  1  0  0  0  0  0  0
  -26.4540  -37.4360   23.7730 N   0  0  0  0  0  0  0  0  0  0  0  0
  -26.0540  -38.3560   23.9330 H   0  0  0  0  0  0  0  0  0  0  0  0
  -26.3830  -31.7770   25.1200 C   0  0  1  0  0  0  0  0  0  0  0  0
  -25.3050  -31.5380   26.2020 C   0  0  0  0  0  1  0  0  0  0  0  0
  -26.9610  -30.3980   24.7210 C   0  0  0  0  0  1  0  0  0  0  0  0
  -27.5450  -32.5700   25.7670 C   0  0  0  0  0  1  0  0  0  0  0  0
  1  2  1  0
  2  3  1  1
  2  4  1  0
  6  5  1  0
  6 21  1  0
  7  6  2  0
  8  4  1  0
  8  5  2  0
  9 10  2  0
  9  7  1  0
 10  8  1  0
 11  7  1  0
 12  9  1  0
 14 19  1  0
 15 16  1  0
 15 14  1  0
 17 16  1  0
 17 26  1  0
 17 18  1  0
 19 13  1  0
 19 18  1  0
 20 13  2  0
 21 22  1  0
 21 13  1  0
 23 24  2  0
 24 25  1  0
 24 43  1  0
 25 28  1  0
 26 23  1  0
 26 27  1  0
 27 25  2  0
 28 29  1  0
 29 30  2  0
 31 34  1  0
 31 30  1  0
 32 31  2  0
 33 32  1  0
 33 28  2  0
 34 35  1  0
 35 36  1  0
 36 37  2  0
 38 37  1  0
 38 42  1  0
 39 38  2  0
 40 35  2  0
 40 39  1  0
 41 40  1  0
 43 44  1  0
 44 47  1  0
 44 46  1  0
 45 43  2  0
 48 49  1  0
 48 23  1  0
 50 48  1  0
 51  2  1  0
 51 52  1  0
 53 52  1  0
 53 54  1  0
 55 57  1  0
 55 54  1  0
 56 67  2  0
 57 62  1  0
 58 66  1  0
 58 68  1  0
 59 65  1  0
 59 61  1  0
 60 66  1  0
 61 60  1  0
 62 61  2  0
 63 64  1  0
 63 57  2  0
 64 59  2  0
 65 58  1  0
 66 56  1  0
 68 70  2  0
 69 68  1  0
 71 69  1  0
 72 81  2  0
 72 77  1  0
 73 69  1  0
 73 77  1  0
 74 73  1  0
 75 76  1  0
 75 74  1  0
 76 72  1  0
 77 78  2  0
 78 79  1  0
 80 79  2  0
 81 80  1  0
 82 56  1  0
 82 83  1  0
 82 92  1  0
 83 86  1  0
 84 88  1  0
 84 83  1  0
 85 84  2  0
 88 87  1  0
 90 88  1  0
 90 91  1  0
 90 89  1  0
 92 95  1  1
 92 93  1  0
 94 92  1  0
M  ISO  4  13 100  21 100  54 101  55 101
M  END
>  <TORSDO>  (81) 
F 22

>  <SCORE>  (81) 
-13.028

>  <name>  (81) 
80

>  <ligand_id>  (81) 
80

>  <original_smiles>  (81) 
[H]c1c([H])c([H])c2c(c1[H])C([H])([H])C([H])([H])C([H])([H])C2([H])N([H])C(=O)C1([H])N(C(=O)C([H])(N([H])C(=O)C([H])(N([H])C([H])([H])[H])C([H])([H])[H])C(C([H])([H])[H])(C([H])([H])[H])C([H])([H])[H])C([H])([H])c2c([H])c(OC([H])([H])C([H])([H])C([H])([H])C([H])([H])[N+]([H])(C([H])([H])[H])C([H])([H])c3nc(Cl)c(F)c(N([H])C(=O)N4C([H])([H])C([H])([H])C([H])([H])C([H])(n5nc(-c6c([H])c([H])c(Oc7c([H])c([H])c(F)c([H])c7F)c([H])c6[H])c(C(=O)N([H])[H])c5N([H])[H])C4([H])[H])c3[H])c([H])c([H])c2C1([H])[H]

>  <smiles>  (81) 
[H]c1c([H])c([H])c2c(c1[H])C([H])([H])C([H])([H])C([H])([H])C2([H])N([H])C(=O)C1([H])N(C(=O)C([H])(N([H])C(=O)C([H])(N([H])C([H])([H])[H])C([H])([H])[H])C(C([H])([H])[H])(C([H])([H])[H])C([H])([H])[H])C([H])([H])c2c([H])c(OC([H])([H])C([H])([H])C([H])([H])C([H])([H])[N+]([H])(C([H])([H])[H])C([H])([H])c3nc(Cl)c(F)c(N([H])C(=O)N4C([H])([H])C([H])([H])C([H])([H])C([H])(n5nc(-c6c([H])c([H])c(Oc7c([H])c([H])c(F)c([H])c7F)c([H])c6[H])c(C(=O)N([H])[H])c5N([H])[H])C4([H])[H])c3[H])c([H])c([H])c2C1([H])[H]

$$$$
81:0:0
     RDKit          3D

 89 97  0  0  1  0  0  0  0  0999 V2000
  -30.4340  -15.3050   20.3170 C   0  0  0  0  0  0  0  0  0  0  0  0
  -30.4510  -12.8270   19.5380 C   0  0  0  0  0  2  0  0  0  0  0  0
  -29.5610  -12.5460   18.3000 C   0  0  0  0  0  2  0  0  0  0  0  0
  -28.0920  -12.3080   18.7080 C   0  0  0  0  0  2  0  0  0  0  0  0
  -27.6060  -13.2960   19.7980 C   0  0  0  0  0  3  0  0  0  0  0  0
  -28.6360  -13.5070   20.9290 C   0  0  0  0  0  2  0  0  0  0  0  0
  -29.8730  -13.9940   20.2900 N   0  0  0  0  0  0  0  0  0  0  0  0
  -31.6750  -15.2940   20.2940 O   0  0  0  0  0  0  0  0  0  0  0  0
  -30.6330  -19.0590   20.5890 C   0  0  0  0  0  3  0  0  0  0  0  0
  -30.4990  -20.5370   20.6220 C   0  0  0  0  0  0  0  0  0  0  0  0
  -29.2950  -21.3150   20.3150 C   0  0  0  0  0  0  0  0  0  0  0  0
  -28.2930  -20.3170   20.0060 C   0  0  0  0  0  0  0  0  0  0  0  0
  -29.5910  -18.1250   20.2390 C   0  0  0  0  0  0  0  0  0  0  0  0
  -31.7410  -21.3160   21.0130 C   0  0  0  0  0  1  0  0  0  0  0  0
  -26.8970  -20.8020   19.6810 C   0  0  0  0  0  1  0  0  0  0  0  0
  -28.8150  -16.3060   18.7980 C   0  0  0  0  0  1  0  0  0  0  0  0
  -28.4490  -18.9020   19.9720 N   0  0  0  0  0  0  0  0  0  0  0  0
  -29.6510  -16.5320   19.9870 N   0  0  0  0  0  0  0  0  0  0  0  0
  -25.2240  -13.8990   20.4790 C   0  0  0  0  0  0  0  0  0  0  0  0
  -24.1440  -13.1340   20.8180 C   0  0  0  0  0  0  0  0  0  0  0  0
  -24.6060  -11.7820   20.8220 C   0  0  0  0  0  0  0  0  0  0  0  0
  -26.2670  -13.0090   20.2830 N   0  0  0  0  0  0  0  0  0  0  0  0
  -25.9060  -11.7320   20.5580 N   0  0  0  0  0  0  0  0  0  0  0  0
  -23.8720  -10.5260   21.0030 C   0  0  0  0  0  0  0  0  0  0  0  0
  -24.2850   -9.5600   21.9460 C   0  0  0  0  0  3  0  0  0  0  0  0
  -23.5510   -8.3670   22.1150 C   0  0  0  0  0  3  0  0  0  0  0  0
  -22.3900   -8.1330   21.3410 C   0  0  0  0  0  0  0  0  0  0  0  0
  -21.9970   -9.0870   20.3860 C   0  0  0  0  0  3  0  0  0  0  0  0
  -22.7320  -10.2710   20.2140 C   0  0  0  0  0  3  0  0  0  0  0  0
  -21.6270   -6.9930   21.4210 O   0  0  0  0  0  0  0  0  0  0  0  0
  -21.5680   -6.2490   22.5720 C   0  0  0  0  0  0  0  0  0  0  0  0
  -21.1470   -6.8040   23.7990 C   0  0  0  0  0  3  0  0  0  0  0  0
  -21.0320   -5.9850   24.9400 C   0  0  0  0  0  3  0  0  0  0  0  0
  -21.3300   -4.6130   24.8550 C   0  0  0  0  0  0  0  0  0  0  0  0
  -21.7460   -4.0560   23.6320 C   0  0  0  0  0  3  0  0  0  0  0  0
  -21.8610   -4.8720   22.4930 C   0  0  0  0  0  0  0  0  0  0  0  0
  -22.2410   -4.3270   21.3130 F   0  0  0  0  0  0  0  0  0  0  0  0
  -21.2130   -3.8240   25.9480 F   0  0  0  0  0  0  0  0  0  0  0  0
  -22.7410  -13.6210   21.0300 C   0  0  0  0  0  0  0  0  0  0  0  0
  -21.9810  -12.9480   21.8860 N   0  0  0  0  0  0  0  0  0  0  0  0
  -22.3250  -14.6360   20.4720 O   0  0  0  0  0  0  0  0  0  0  0  0
  -22.3290  -12.1290   22.3640 H   0  0  0  0  0  0  0  0  0  0  0  0
  -21.0370  -13.2560   22.0680 H   0  0  0  0  0  0  0  0  0  0  0  0
  -25.4010  -15.2670   20.2910 N   0  0  0  0  0  0  0  0  0  0  0  0
  -24.6400  -15.9320   20.3780 H   0  0  0  0  0  0  0  0  0  0  0  0
  -26.2770  -15.7020   20.0350 H   0  0  0  0  0  0  0  0  0  0  0  0
  -29.2250  -23.0560   20.4090 C   0  0  0  0  0  3  0  0  0  0  0  0
  -28.1220  -24.3870   20.0300 C   0  0  0  0  0  3  0  0  0  0  0  0
  -28.3070  -25.9950   20.2140 O   0  0  0  0  0  0  0  0  0  0  0  0
  -24.6800  -31.8350   23.2140 C   0  0  0  0  0  0  0  0  0  0  0  0
  -27.2670  -27.0430   20.1500 C   0  0  0  0  0  0  0  0  0  0  0  0
  -23.4930  -30.4570   21.5530 C   0  0  0  0  0  3  0  0  0  0  0  0
  -24.9500  -28.8770   20.1190 C   0  0  0  0  0  0  0  0  0  0  0  0
  -26.0560  -30.6910   21.4140 C   0  0  0  0  0  2  0  0  0  0  0  0
  -26.1320  -29.2930   20.7430 C   0  0  0  0  0  0  0  0  0  0  0  0
  -27.2860  -28.3980   20.7310 C   0  0  0  0  0  3  0  0  0  0  0  0
  -26.0530  -26.7610   19.4860 C   0  0  0  0  0  3  0  0  0  0  0  0
  -24.9310  -27.6300   19.4710 C   0  0  0  0  0  3  0  0  0  0  0  0
  -23.7270  -29.7880   20.1700 C   0  0  0  0  0  2  0  0  0  0  0  0
  -24.7640  -31.0190   22.1150 N   0  0  0  0  0  0  0  0  0  0  0  0
  -23.5890  -32.1160   23.7350 O   0  0  0  0  0  0  0  0  0  0  0  0
  -22.7970  -29.4490   22.5040 C   0  0  0  0  0  0  0  0  0  0  0  0
  -21.4660  -29.2990   22.3820 N   0  0  0  0  0  0  0  0  0  0  0  0
  -23.4610  -28.8020   23.3170 O   0  0  0  0  0  0  0  0  0  0  0  0
  -20.9830  -29.8730   21.7050 H   0  0  0  0  0  0  0  0  0  0  0  0
  -18.0710  -28.1260   22.8910 C   0  0  0  0  0  0  0  0  0  0  0  0
  -20.6360  -28.3550   23.1390 C   0  0  0  0  0  3  0  0  0  0  0  0
  -20.7150  -26.9350   22.5320 C   0  0  0  0  0  2  0  0  0  0  0  0
  -19.6000  -26.6480   21.5200 C   0  0  0  0  0  2  0  0  0  0  0  0
  -18.2260  -26.7930   22.1790 C   0  0  0  0  0  2  0  0  0  0  0  0
  -19.2020  -28.8680   23.3270 C   0  0  0  0  0  0  0  0  0  0  0  0
  -18.9990  -30.1150   23.9550 C   0  0  0  0  0  3  0  0  0  0  0  0
  -17.7010  -30.6230   24.1490 C   0  0  0  0  0  3  0  0  0  0  0  0
  -16.5850  -29.8790   23.7280 C   0  0  0  0  0  3  0  0  0  0  0  0
  -16.7710  -28.6320   23.1040 C   0  0  0  0  0  3  0  0  0  0  0  0
  -25.9480  -32.4690   23.8620 C   0  0  0  0  0  3  0  0  0  0  0  0
  -25.6270  -33.8610   24.2210 N   0  0  0  0  0  0  0  0  0  0  0  0
  -25.9400  -34.9350   23.4840 C   0  0  0  0  0  0  0  0  0  0  0  0
  -26.5920  -34.8590   22.4410 O   0  0  0  0  0  0  0  0  0  0  0  0
  -25.0460  -33.9930   25.0360 H   0  0  0  0  0  0  0  0  0  0  0  0
  -24.1810  -36.7200   23.2230 C   0  0  0  0  0  1  0  0  0  0  0  0
  -25.4550  -36.3130   23.9830 C   0  0  0  0  0  3  0  0  0  0  0  0
  -27.6080  -37.2110   24.7520 C   0  0  0  0  0  1  0  0  0  0  0  0
  -26.4710  -37.3800   23.8500 N   0  0  0  0  0  0  0  0  0  0  0  0
  -26.0610  -38.2930   24.0250 H   0  0  0  0  0  0  0  0  0  0  0  0
  -26.4520  -31.6830   25.1360 C   0  0  1  0  0  0  0  0  0  0  0  0
  -25.3480  -31.4370   26.1930 C   0  0  0  0  0  1  0  0  0  0  0  0
  -27.0370  -30.3090   24.7410 C   0  0  0  0  0  1  0  0  0  0  0  0
  -27.5960  -32.4690   25.8190 C   0  0  0  0  0  1  0  0  0  0  0  0
  2  7  1  0
  3  4  1  0
  3  2  1  0
  5  4  1  0
  5 22  1  0
  5  6  1  0
  7  1  1  0
  7  6  1  0
  8  1  2  0
  9 10  1  0
 10 14  1  0
 11 47  1  0
 11 10  2  0
 12 11  1  0
 13  9  2  0
 15 12  1  0
 16 18  1  0
 17 12  2  0
 17 13  1  0
 18 13  1  0
 18  1  1  0
 19 20  2  0
 20 21  1  0
 20 39  1  0
 21 24  1  0
 22 19  1  0
 22 23  1  0
 23 21  2  0
 24 25  1  0
 25 26  2  0
 27 30  1  0
 27 26  1  0
 28 27  2  0
 29 28  1  0
 29 24  2  0
 30 31  1  0
 31 32  1  0
 32 33  2  0
 34 33  1  0
 34 38  1  0
 35 34  2  0
 36 31  2  0
 36 35  1  0
 37 36  1  0
 39 40  1  0
 40 43  1  0
 40 42  1  0
 41 39  2  0
 44 45  1  0
 44 19  1  0
 46 44  1  0
 48 49  1  0
 48 47  2  0
 50 61  2  0
 51 49  1  0
 51 56  1  0
 52 60  1  0
 52 62  1  0
 53 59  1  0
 53 55  1  0
 54 60  1  0
 55 54  1  0
 56 55  2  0
 57 51  2  0
 58 57  1  0
 58 53  2  0
 59 52  1  0
 60 50  1  0
 62 64  2  0
 63 62  1  0
 65 63  1  0
 66 75  2  0
 66 71  1  0
 67 63  1  0
 67 71  1  0
 68 67  1  0
 69 70  1  0
 69 68  1  0
 70 66  1  0
 71 72  2  0
 72 73  1  0
 74 73  2  0
 75 74  1  0
 76 50  1  0
 76 77  1  0
 76 86  1  0
 77 80  1  0
 78 82  1  0
 78 77  1  0
 79 78  2  0
 82 81  1  0
 84 82  1  0
 84 85  1  0
 84 83  1  0
 86 89  1  1
 86 87  1  0
 88 86  1  0
M  ISO  4   1 100  18 100  48 101  49 101
M  END
>  <TORSDO>  (82) 
F 17

>  <SCORE>  (82) 
-15.601

>  <name>  (82) 
81

>  <ligand_id>  (82) 
81

>  <original_smiles>  (82) 
[H]c1c([H])c([H])c2c(c1[H])C([H])([H])C([H])([H])C([H])([H])C2([H])N([H])C(=O)C1([H])N(C(=O)C([H])(N([H])C(=O)C([H])(N([H])C([H])([H])[H])C([H])([H])[H])C(C([H])([H])[H])(C([H])([H])[H])C([H])([H])[H])C([H])([H])c2c([H])c(OC([H])([H])C([H])([H])c3c(C([H])([H])[H])nc(N(C(=O)N4C([H])([H])C([H])([H])C([H])([H])C([H])(n5nc(-c6c([H])c([H])c(Oc7c([H])c([H])c(F)c([H])c7F)c([H])c6[H])c(C(=O)N([H])[H])c5N([H])[H])C4([H])[H])C([H])([H])[H])c([H])c3C([H])([H])[H])c([H])c([H])c2C1([H])[H]

>  <smiles>  (82) 
[H]c1c([H])c([H])c2c(c1[H])C([H])([H])C([H])([H])C([H])([H])C2([H])N([H])C(=O)C1([H])N(C(=O)C([H])(N([H])C(=O)C([H])(N([H])C([H])([H])[H])C([H])([H])[H])C(C([H])([H])[H])(C([H])([H])[H])C([H])([H])[H])C([H])([H])c2c([H])c(OC([H])([H])C([H])([H])c3c(C([H])([H])[H])nc(N(C(=O)N4C([H])([H])C([H])([H])C([H])([H])C([H])(n5nc(-c6c([H])c([H])c(Oc7c([H])c([H])c(F)c([H])c7F)c([H])c6[H])c(C(=O)N([H])[H])c5N([H])[H])C4([H])[H])C([H])([H])[H])c([H])c3C([H])([H])[H])c([H])c([H])c2C1([H])[H]

$$$$
82:0:0
     RDKit          3D

 97105  0  0  1  0  0  0  0  0999 V2000
  -28.7490  -23.0150   19.5590 C   0  0  0  0  0  3  0  0  0  0  0  0
  -27.8890  -23.0860   18.3530 N   0  0  0  0  0  4  0  0  0  0  0  0
  -28.1570  -23.9260   17.8620 H   0  0  0  0  0  0  0  0  0  0  0  0
  -28.0970  -22.3120   17.7460 H   0  0  0  0  0  0  0  0  0  0  0  0
  -25.8320  -21.7280   18.8460 C   0  0  0  0  0  1  0  0  0  0  0  0
  -25.7100  -23.8090   17.4180 C   0  0  0  0  0  1  0  0  0  0  0  0
  -26.4220  -23.1270   18.5940 C   0  0  0  0  0  3  0  0  0  0  0  0
  -30.7290  -22.0970   18.0120 C   0  0  0  0  0  1  0  0  0  0  0  0
  -29.9850  -21.7540   19.3130 C   0  0  0  0  0  3  0  0  0  0  0  0
  -29.4320  -17.6190   19.1170 C   0  0  0  0  0  2  0  0  0  0  0  0
  -29.3060  -17.8840   20.6160 C   0  0  0  0  0  2  0  0  0  0  0  0
  -30.5610  -18.5210   18.6380 C   0  0  0  0  0  3  0  0  0  0  0  0
  -30.1930  -19.9870   19.5690 C   0  0  0  0  0  3  0  0  0  0  0  0
  -29.3790  -19.4230   20.7960 C   0  0  1  0  0  0  0  0  0  0  0  0
  -27.9080  -19.8640   20.7960 C   0  0  0  0  0  1  0  0  0  0  0  0
  -30.0600  -19.8170   22.1310 C   0  0  0  0  0  1  0  0  0  0  0  0
  -32.9880  -18.0050   19.7470 C   0  0  0  0  0  1  0  0  0  0  0  0
  -32.6070  -17.9460   17.3450 C   0  0  0  0  0  1  0  0  0  0  0  0
  -31.9790  -17.4830   18.7010 C   0  0  2  0  0  0  0  0  0  0  0  0
  -32.2550  -15.7520   18.7310 C   0  0  0  0  0  0  0  0  0  0  0  0
  -32.0330  -13.1850   18.7190 C   0  0  0  0  0  2  0  0  0  0  0  0
  -31.0700  -12.6700   17.6240 C   0  0  0  0  0  2  0  0  0  0  0  0
  -29.6480  -12.5760   18.1920 C   0  0  0  0  0  2  0  0  0  0  0  0
  -29.2590  -13.8570   18.9760 C   0  0  0  0  0  3  0  0  0  0  0  0
  -30.3650  -14.3580   19.9440 C   0  0  0  0  0  2  0  0  0  0  0  0
  -31.5930  -14.5690   19.1590 N   0  0  0  0  0  0  0  0  0  0  0  0
  -33.3750  -15.4600   18.2930 O   0  0  0  0  0  0  0  0  0  0  0  0
  -27.1180  -14.7080   20.0720 C   0  0  0  0  0  0  0  0  0  0  0  0
  -25.9950  -14.0750   20.5310 C   0  0  0  0  0  0  0  0  0  0  0  0
  -26.2240  -12.6780   20.3440 C   0  0  0  0  0  0  0  0  0  0  0  0
  -27.9650  -13.7070   19.6340 N   0  0  0  0  0  0  0  0  0  0  0  0
  -27.4440  -12.4710   19.8580 N   0  0  0  0  0  0  0  0  0  0  0  0
  -25.3240  -11.5310   20.5400 C   0  0  0  0  0  0  0  0  0  0  0  0
  -25.6180  -10.5010   21.4610 C   0  0  0  0  0  3  0  0  0  0  0  0
  -24.7220   -9.4290   21.6480 C   0  0  0  0  0  3  0  0  0  0  0  0
  -23.5140   -9.3780   20.9110 C   0  0  0  0  0  0  0  0  0  0  0  0
  -23.2390  -10.3880   19.9720 C   0  0  0  0  0  3  0  0  0  0  0  0
  -24.1370  -11.4540   19.7840 C   0  0  0  0  0  3  0  0  0  0  0  0
  -22.5950   -8.3620   21.0080 O   0  0  0  0  0  0  0  0  0  0  0  0
  -22.3360   -7.7340   22.2020 C   0  0  0  0  0  0  0  0  0  0  0  0
  -21.9110   -8.4520   23.3410 C   0  0  0  0  0  3  0  0  0  0  0  0
  -21.5870   -7.7640   24.5260 C   0  0  0  0  0  3  0  0  0  0  0  0
  -21.6850   -6.3580   24.5730 C   0  0  0  0  0  0  0  0  0  0  0  0
  -22.1080   -5.6420   23.4380 C   0  0  0  0  0  3  0  0  0  0  0  0
  -22.4280   -6.3300   22.2550 C   0  0  0  0  0  0  0  0  0  0  0  0
  -22.8120   -5.6340   21.1600 F   0  0  0  0  0  0  0  0  0  0  0  0
  -21.3690   -5.6950   25.7090 F   0  0  0  0  0  0  0  0  0  0  0  0
  -24.7430  -14.7370   21.0170 C   0  0  0  0  0  0  0  0  0  0  0  0
  -24.0550  -14.1110   21.9670 N   0  0  0  0  0  0  0  0  0  0  0  0
  -24.3940  -15.8380   20.5980 O   0  0  0  0  0  0  0  0  0  0  0  0
  -24.3580  -13.2130   22.3160 H   0  0  0  0  0  0  0  0  0  0  0  0
  -23.2130  -14.5290   22.3430 H   0  0  0  0  0  0  0  0  0  0  0  0
  -27.4780  -16.0420   19.9690 N   0  0  0  0  0  0  0  0  0  0  0  0
  -26.8690  -16.8040   20.2470 H   0  0  0  0  0  0  0  0  0  0  0  0
  -28.3590  -16.3620   19.5890 H   0  0  0  0  0  0  0  0  0  0  0  0
  -28.8140  -24.6300   20.2850 C   0  0  0  0  0  2  0  0  0  0  0  0
  -28.7590  -26.1890   19.8400 O   0  0  0  0  0  0  0  0  0  0  0  0
  -24.7480  -31.6430   23.0780 C   0  0  0  0  0  0  0  0  0  0  0  0
  -27.6460  -27.1460   19.9160 C   0  0  0  0  0  0  0  0  0  0  0  0
  -23.6610  -30.2290   21.3770 C   0  0  0  0  0  3  0  0  0  0  0  0
  -25.2220  -28.8200   19.8950 C   0  0  0  0  0  0  0  0  0  0  0  0
  -26.1930  -30.6620   21.2420 C   0  0  0  0  0  2  0  0  0  0  0  0
  -26.3670  -29.2920   20.5460 C   0  0  0  0  0  0  0  0  0  0  0  0
  -27.5790  -28.4790   20.5330 C   0  0  0  0  0  3  0  0  0  0  0  0
  -26.4690  -26.8160   19.2100 C   0  0  0  0  0  3  0  0  0  0  0  0
  -25.2940  -27.6040   19.2010 C   0  0  0  0  0  3  0  0  0  0  0  0
  -23.9350  -29.6360   19.9700 C   0  0  0  0  0  2  0  0  0  0  0  0
  -24.8860  -30.8690   21.9550 N   0  0  0  0  0  0  0  0  0  0  0  0
  -23.6390  -31.8270   23.6060 O   0  0  0  0  0  0  0  0  0  0  0  0
  -23.0540  -29.1370   22.2930 C   0  0  0  0  0  0  0  0  0  0  0  0
  -21.7470  -28.8590   22.1380 N   0  0  0  0  0  0  0  0  0  0  0  0
  -23.7640  -28.5420   23.1080 O   0  0  0  0  0  0  0  0  0  0  0  0
  -21.2250  -29.3940   21.4590 H   0  0  0  0  0  0  0  0  0  0  0  0
  -18.4770  -27.3360   22.5300 C   0  0  0  0  0  0  0  0  0  0  0  0
  -20.9980  -27.8260   22.8610 C   0  0  0  0  0  3  0  0  0  0  0  0
  -21.2420  -26.4310   22.2420 C   0  0  0  0  0  2  0  0  0  0  0  0
  -20.1920  -26.0420   21.1950 C   0  0  0  0  0  2  0  0  0  0  0  0
  -18.7910  -26.0340   21.8130 C   0  0  0  0  0  2  0  0  0  0  0  0
  -19.5130  -28.1850   23.0060 C   0  0  0  0  0  0  0  0  0  0  0  0
  -19.1640  -29.4000   23.6340 C   0  0  0  0  0  3  0  0  0  0  0  0
  -17.8150  -29.7690   23.7950 C   0  0  0  0  0  3  0  0  0  0  0  0
  -16.7950  -28.9190   23.3320 C   0  0  0  0  0  3  0  0  0  0  0  0
  -17.1280  -27.7040   22.7080 C   0  0  0  0  0  3  0  0  0  0  0  0
  -25.9700  -32.3460   23.7410 C   0  0  0  0  0  3  0  0  0  0  0  0
  -25.5610  -33.7140   24.0960 N   0  0  0  0  0  0  0  0  0  0  0  0
  -25.8410  -34.8090   23.3750 C   0  0  0  0  0  0  0  0  0  0  0  0
  -26.5330  -34.7770   22.3550 O   0  0  0  0  0  0  0  0  0  0  0  0
  -24.9370  -33.8080   24.8840 H   0  0  0  0  0  0  0  0  0  0  0  0
  -24.0090  -36.5050   23.0420 C   0  0  0  0  0  1  0  0  0  0  0  0
  -25.2640  -36.1560   23.8600 C   0  0  0  0  0  3  0  0  0  0  0  0
  -27.3300  -37.1450   24.7460 C   0  0  0  0  0  1  0  0  0  0  0  0
  -26.2310  -37.2730   23.7910 N   0  0  0  0  0  0  0  0  0  0  0  0
  -25.7690  -38.1620   23.9590 H   0  0  0  0  0  0  0  0  0  0  0  0
  -26.5040  -31.5870   25.0170 C   0  0  1  0  0  0  0  0  0  0  0  0
  -25.4040  -31.2530   26.0550 C   0  0  0  0  0  1  0  0  0  0  0  0
  -27.1870  -30.2590   24.6180 C   0  0  0  0  0  1  0  0  0  0  0  0
  -27.5870  -32.4400   25.7160 C   0  0  0  0  0  1  0  0  0  0  0  0
  1 56  1  0
  2  7  1  0
  2  1  1  0
  3  2  1  0
  4  2  1  0
  6  7  1  0
  7  5  1  0
  9  8  1  0
  9  1  1  0
 10 11  1  0
 11 14  1  0
 12 19  1  0
 12 10  1  0
 12 13  1  0
 13  9  1  0
 13 14  1  0
 14 16  1  1
 15 14  1  0
 19 18  1  6
 19 20  1  0
 19 17  1  0
 20 26  1  0
 21 26  1  0
 22 23  1  0
 22 21  1  0
 24 23  1  0
 24 31  1  0
 24 25  1  0
 26 25  1  0
 27 20  2  0
 28 29  2  0
 29 48  1  0
 30 29  1  0
 30 33  1  0
 31 32  1  0
 31 28  1  0
 32 30  2  0
 33 34  1  0
 34 35  2  0
 36 39  1  0
 36 35  1  0
 37 36  2  0
 38 37  1  0
 38 33  2  0
 39 40  1  0
 40 45  2  0
 40 41  1  0
 41 42  2  0
 42 43  1  0
 43 47  1  0
 44 43  2  0
 45 44  1  0
 46 45  1  0
 48 49  1  0
 49 51  1  0
 49 52  1  0
 50 48  2  0
 53 28  1  0
 53 54  1  0
 55 53  1  0
 57 59  1  0
 57 56  1  0
 58 69  2  0
 59 64  1  0
 60 68  1  0
 60 70  1  0
 61 67  1  0
 61 63  1  0
 62 68  1  0
 63 62  1  0
 64 63  2  0
 65 59  2  0
 66 65  1  0
 66 61  2  0
 67 60  1  0
 68 58  1  0
 70 72  2  0
 71 70  1  0
 73 71  1  0
 74 83  2  0
 74 79  1  0
 75 71  1  0
 75 79  1  0
 76 75  1  0
 77 78  1  0
 77 76  1  0
 78 74  1  0
 79 80  2  0
 80 81  1  0
 82 81  2  0
 83 82  1  0
 84 58  1  0
 84 85  1  0
 84 94  1  0
 85 88  1  0
 86 90  1  0
 86 85  1  0
 87 86  2  0
 90 89  1  0
 92 90  1  0
 92 93  1  0
 92 91  1  0
 94 97  1  1
 94 95  1  0
 96 94  1  0
M  ISO  4  19 100  20 100  56 101  57 101
M  END
>  <TORSDO>  (83) 
F 22

>  <SCORE>  (83) 
-11.313

>  <name>  (83) 
82

>  <ligand_id>  (83) 
82

>  <original_smiles>  (83) 
[H]c1c([H])c([H])c2c(c1[H])C([H])([H])C([H])([H])C([H])([H])C2([H])N([H])C(=O)C1([H])N(C(=O)C([H])(N([H])C(=O)C([H])(N([H])C([H])([H])[H])C([H])([H])[H])C(C([H])([H])[H])(C([H])([H])[H])C([H])([H])[H])C([H])([H])c2c([H])c(OC([H])([H])C([H])(C([H])(C([H])([H])[H])C3([H])C([H])(C(C(=O)N4C([H])([H])C([H])([H])C([H])([H])C([H])(n5nc(-c6c([H])c([H])c(Oc7c([H])c([H])c(F)c([H])c7F)c([H])c6[H])c(C(=O)N([H])[H])c5N([H])[H])C4([H])[H])(C([H])([H])[H])C([H])([H])[H])C([H])([H])C([H])([H])C3(C([H])([H])[H])C([H])([H])[H])[N+]([H])([H])C([H])(C([H])([H])[H])C([H])([H])[H])c([H])c([H])c2C1([H])[H]

>  <smiles>  (83) 
[H]c1c([H])c([H])c2c(c1[H])C([H])([H])C([H])([H])C([H])([H])C2([H])N([H])C(=O)C1([H])N(C(=O)C([H])(N([H])C(=O)C([H])(N([H])C([H])([H])[H])C([H])([H])[H])C(C([H])([H])[H])(C([H])([H])[H])C([H])([H])[H])C([H])([H])c2c([H])c(OC([H])([H])C([H])(C([H])(C([H])([H])[H])C3([H])C([H])(C(C(=O)N4C([H])([H])C([H])([H])C([H])([H])C([H])(n5nc(-c6c([H])c([H])c(Oc7c([H])c([H])c(F)c([H])c7F)c([H])c6[H])c(C(=O)N([H])[H])c5N([H])[H])C4([H])[H])(C([H])([H])[H])C([H])([H])[H])C([H])([H])C([H])([H])C3(C([H])([H])[H])C([H])([H])[H])[N+]([H])([H])C([H])(C([H])([H])[H])C([H])([H])[H])c([H])c([H])c2C1([H])[H]

$$$$
83:0:0
     RDKit          3D

 92100  0  0  1  0  0  0  0  0999 V2000
  -31.6920  -17.4540   21.1400 C   0  0  0  0  0  3  0  0  0  0  0  0
  -29.5750  -19.2670   20.8260 C   0  0  0  0  0  3  0  0  0  0  0  0
  -31.9200  -18.8440   21.3050 C   0  0  0  0  0  0  0  0  0  0  0  0
  -30.8470  -19.7680   21.1710 C   0  0  0  0  0  0  0  0  0  0  0  0
  -30.4020  -16.9520   20.8350 C   0  0  0  0  0  0  0  0  0  0  0  0
  -29.3520  -17.8840   20.6690 C   0  0  0  0  0  0  0  0  0  0  0  0
  -33.3220  -19.3100   21.6660 C   0  0  0  0  0  1  0  0  0  0  0  0
  -27.7570  -17.3420   20.3040 Cl  0  0  0  0  0  0  0  0  0  0  0  0
  -30.7390  -14.5540   20.1200 C   0  0  0  0  0  0  0  0  0  0  0  0
  -30.3630  -12.4050   18.9610 C   0  0  0  0  0  2  0  0  0  0  0  0
  -29.3630  -12.6150   17.8040 C   0  0  0  0  0  2  0  0  0  0  0  0
  -27.9110  -12.4870   18.3010 C   0  0  0  0  0  2  0  0  0  0  0  0
  -27.6370  -13.3180   19.5840 C   0  0  0  0  0  3  0  0  0  0  0  0
  -28.7450  -13.0870   20.6400 C   0  0  0  0  0  2  0  0  0  0  0  0
  -30.0450  -13.3860   20.0110 N   0  0  0  0  0  0  0  0  0  0  0  0
  -31.8340  -14.7240   19.5770 O   0  0  0  0  0  0  0  0  0  0  0  0
  -30.0880  -15.5530   20.7480 N   0  0  0  0  0  0  0  0  0  0  0  0
  -29.1590  -15.3120   21.0600 H   0  0  0  0  0  0  0  0  0  0  0  0
  -25.2700  -13.9280   20.3940 C   0  0  0  0  0  0  0  0  0  0  0  0
  -24.2180  -13.1620   20.8140 C   0  0  0  0  0  0  0  0  0  0  0  0
  -24.6710  -11.8090   20.7560 C   0  0  0  0  0  0  0  0  0  0  0  0
  -26.3060  -13.0470   20.1220 N   0  0  0  0  0  0  0  0  0  0  0  0
  -25.9470  -11.7640   20.3920 N   0  0  0  0  0  0  0  0  0  0  0  0
  -23.9440  -10.5530   20.9670 C   0  0  0  0  0  0  0  0  0  0  0  0
  -24.4070   -9.5760   21.8760 C   0  0  0  0  0  3  0  0  0  0  0  0
  -23.6800   -8.3830   22.0760 C   0  0  0  0  0  3  0  0  0  0  0  0
  -22.4750   -8.1600   21.3680 C   0  0  0  0  0  0  0  0  0  0  0  0
  -22.0300   -9.1260   20.4480 C   0  0  0  0  0  3  0  0  0  0  0  0
  -22.7580  -10.3100   20.2450 C   0  0  0  0  0  3  0  0  0  0  0  0
  -21.7150   -7.0210   21.4800 O   0  0  0  0  0  0  0  0  0  0  0  0
  -21.7020   -6.2750   22.6310 C   0  0  0  0  0  0  0  0  0  0  0  0
  -21.3250   -6.8300   23.8740 C   0  0  0  0  0  3  0  0  0  0  0  0
  -21.2600   -6.0110   25.0180 C   0  0  0  0  0  3  0  0  0  0  0  0
  -21.5590   -4.6380   24.9210 C   0  0  0  0  0  0  0  0  0  0  0  0
  -21.9290   -4.0850   23.6830 C   0  0  0  0  0  3  0  0  0  0  0  0
  -21.9970   -4.9000   22.5410 C   0  0  0  0  0  0  0  0  0  0  0  0
  -22.3340   -4.3560   21.3470 F   0  0  0  0  0  0  0  0  0  0  0  0
  -21.4880   -3.8490   26.0190 F   0  0  0  0  0  0  0  0  0  0  0  0
  -22.8390  -13.6510   21.1560 C   0  0  0  0  0  0  0  0  0  0  0  0
  -22.1550  -12.9630   22.0620 N   0  0  0  0  0  0  0  0  0  0  0  0
  -22.3800  -14.6760   20.6540 O   0  0  0  0  0  0  0  0  0  0  0  0
  -22.5400  -12.1350   22.4900 H   0  0  0  0  0  0  0  0  0  0  0  0
  -21.2320  -13.2720   22.3340 H   0  0  0  0  0  0  0  0  0  0  0  0
  -25.4170  -15.2940   20.2050 N   0  0  0  0  0  0  0  0  0  0  0  0
  -24.6580  -15.9430   20.3740 H   0  0  0  0  0  0  0  0  0  0  0  0
  -26.2740  -15.7590   19.9320 H   0  0  0  0  0  0  0  0  0  0  0  0
  -30.9900  -21.2600   21.5170 C   0  0  0  0  0  2  0  0  0  0  0  0
  -30.8830  -22.2860   20.3540 C   0  0  0  0  0  2  0  0  0  0  0  0
  -29.5190  -23.0210   20.2140 C   0  0  0  0  0  2  0  0  0  0  0  0
  -29.6370  -24.5360   19.8750 C   0  0  0  0  0  2  0  0  0  0  0  0
  -28.2780  -25.2380   19.6340 C   0  0  0  0  0  2  0  0  0  0  0  0
  -28.3810  -26.6770   19.6540 O   0  0  0  0  0  0  0  0  0  0  0  0
  -24.5140  -31.6250   23.0390 C   0  0  0  0  0  0  0  0  0  0  0  0
  -27.1930  -27.3880   19.6930 C   0  0  0  0  0  0  0  0  0  0  0  0
  -23.3090  -30.2900   21.3430 C   0  0  0  0  0  3  0  0  0  0  0  0
  -24.7670  -28.8560   19.8190 C   0  0  0  0  0  0  0  0  0  0  0  0
  -25.8270  -30.7040   21.1260 C   0  0  0  0  0  2  0  0  0  0  0  0
  -25.9270  -29.3690   20.4110 C   0  0  0  0  0  0  0  0  0  0  0  0
  -27.1430  -28.6460   20.3410 C   0  0  0  0  0  3  0  0  0  0  0  0
  -26.0060  -26.8940   19.0970 C   0  0  0  0  0  3  0  0  0  0  0  0
  -24.8020  -27.6170   19.1590 C   0  0  0  0  0  3  0  0  0  0  0  0
  -23.5100  -29.6890   19.9270 C   0  0  0  0  0  2  0  0  0  0  0  0
  -24.5690  -30.8860   21.8930 N   0  0  0  0  0  0  0  0  0  0  0  0
  -23.4380  -31.8480   23.6080 O   0  0  0  0  0  0  0  0  0  0  0  0
  -22.6920  -29.2080   22.2580 C   0  0  0  0  0  0  0  0  0  0  0  0
  -21.3660  -29.0170   22.1490 N   0  0  0  0  0  0  0  0  0  0  0  0
  -23.3990  -28.5450   23.0210 O   0  0  0  0  0  0  0  0  0  0  0  0
  -20.8550  -29.6070   21.5080 H   0  0  0  0  0  0  0  0  0  0  0  0
  -18.0150  -27.7660   22.6600 C   0  0  0  0  0  0  0  0  0  0  0  0
  -20.5780  -28.0250   22.8810 C   0  0  0  0  0  3  0  0  0  0  0  0
  -20.6740  -26.6330   22.2140 C   0  0  0  0  0  2  0  0  0  0  0  0
  -19.5480  -26.3650   21.2100 C   0  0  0  0  0  2  0  0  0  0  0  0
  -18.1830  -26.4620   21.8980 C   0  0  0  0  0  2  0  0  0  0  0  0
  -19.1400  -28.5080   23.1060 C   0  0  0  0  0  0  0  0  0  0  0  0
  -18.9290  -29.7330   23.7770 C   0  0  0  0  0  3  0  0  0  0  0  0
  -17.6270  -30.2130   24.0090 C   0  0  0  0  0  3  0  0  0  0  0  0
  -16.5170  -29.4670   23.5780 C   0  0  0  0  0  3  0  0  0  0  0  0
  -16.7120  -28.2450   22.9080 C   0  0  0  0  0  3  0  0  0  0  0  0
  -25.7980  -32.2470   23.6730 C   0  0  0  0  0  3  0  0  0  0  0  0
  -25.4750  -33.6270   24.0600 N   0  0  0  0  0  0  0  0  0  0  0  0
  -25.7890  -34.7120   23.3430 C   0  0  0  0  0  0  0  0  0  0  0  0
  -26.4520  -34.6590   22.3030 O   0  0  0  0  0  0  0  0  0  0  0  0
  -24.8830  -33.7390   24.8710 H   0  0  0  0  0  0  0  0  0  0  0  0
  -24.0260  -36.4880   23.0850 C   0  0  0  0  0  1  0  0  0  0  0  0
  -25.2880  -36.0740   23.8600 C   0  0  0  0  0  3  0  0  0  0  0  0
  -27.4210  -36.9640   24.6870 C   0  0  0  0  0  1  0  0  0  0  0  0
  -26.3010  -37.1480   23.7690 N   0  0  0  0  0  0  0  0  0  0  0  0
  -25.8820  -38.0550   23.9560 H   0  0  0  0  0  0  0  0  0  0  0  0
  -26.3370  -31.4310   24.9110 C   0  0  1  0  0  0  0  0  0  0  0  0
  -25.2610  -31.1450   25.9840 C   0  0  0  0  0  1  0  0  0  0  0  0
  -26.9270  -30.0770   24.4540 C   0  0  0  0  0  1  0  0  0  0  0  0
  -27.4880  -32.2120   25.5910 C   0  0  0  0  0  1  0  0  0  0  0  0
  1  3  1  0
  2  4  1  0
  3  7  1  0
  4  3  2  0
  4 47  1  0
  5  1  2  0
  6  2  2  0
  6  5  1  0
  8  6  1  0
  9 17  1  0
 10 15  1  0
 11 12  1  0
 11 10  1  0
 13 12  1  0
 13 22  1  0
 13 14  1  0
 15  9  1  0
 15 14  1  0
 16  9  2  0
 17  5  1  0
 17 18  1  0
 19 20  2  0
 20 39  1  0
 21 20  1  0
 21 24  1  0
 22 23  1  0
 22 19  1  0
 23 21  2  0
 24 25  1  0
 25 26  2  0
 27 30  1  0
 27 26  1  0
 28 27  2  0
 29 28  1  0
 29 24  2  0
 30 31  1  0
 31 32  1  0
 32 33  2  0
 34 33  1  0
 34 38  1  0
 35 34  2  0
 36 31  2  0
 36 35  1  0
 37 36  1  0
 39 40  1  0
 40 43  1  0
 40 42  1  0
 41 39  2  0
 44 45  1  0
 44 19  1  0
 46 44  1  0
 48 47  1  0
 49 48  1  0
 50 49  1  0
 51 52  1  0
 51 50  1  0
 52 54  1  0
 53 64  2  0
 54 59  1  0
 55 63  1  0
 55 65  1  0
 56 62  1  0
 56 58  1  0
 57 63  1  0
 58 57  1  0
 59 58  2  0
 60 61  1  0
 60 54  2  0
 61 56  2  0
 62 55  1  0
 63 53  1  0
 65 67  2  0
 66 65  1  0
 68 66  1  0
 69 78  2  0
 69 74  1  0
 70 66  1  0
 70 74  1  0
 71 70  1  0
 72 73  1  0
 72 71  1  0
 73 69  1  0
 74 75  2  0
 75 76  1  0
 77 76  2  0
 78 77  1  0
 79 53  1  0
 79 80  1  0
 79 89  1  0
 80 83  1  0
 81 85  1  0
 81 80  1  0
 82 81  2  0
 85 84  1  0
 87 85  1  0
 87 88  1  0
 87 86  1  0
 89 92  1  1
 89 90  1  0
 91 89  1  0
M  ISO  4   9 100  17 100  51 101  52 101
M  END
>  <TORSDO>  (84) 
F 21

>  <SCORE>  (84) 
-13.226

>  <name>  (84) 
83

>  <ligand_id>  (84) 
83

>  <original_smiles>  (84) 
[H]c1c([H])c([H])c2c(c1[H])C([H])([H])C([H])([H])C([H])([H])C2([H])N([H])C(=O)C1([H])N(C(=O)C([H])(N([H])C(=O)C([H])(N([H])C([H])([H])[H])C([H])([H])[H])C(C([H])([H])[H])(C([H])([H])[H])C([H])([H])[H])C([H])([H])c2c([H])c(OC([H])([H])C([H])([H])C([H])([H])C([H])([H])C([H])([H])c3c([H])c(Cl)c(N([H])C(=O)N4C([H])([H])C([H])([H])C([H])([H])C([H])(n5nc(-c6c([H])c([H])c(Oc7c([H])c([H])c(F)c([H])c7F)c([H])c6[H])c(C(=O)N([H])[H])c5N([H])[H])C4([H])[H])c([H])c3C([H])([H])[H])c([H])c([H])c2C1([H])[H]

>  <smiles>  (84) 
[H]c1c([H])c([H])c2c(c1[H])C([H])([H])C([H])([H])C([H])([H])C2([H])N([H])C(=O)C1([H])N(C(=O)C([H])(N([H])C(=O)C([H])(N([H])C([H])([H])[H])C([H])([H])[H])C(C([H])([H])[H])(C([H])([H])[H])C([H])([H])[H])C([H])([H])c2c([H])c(OC([H])([H])C([H])([H])C([H])([H])C([H])([H])C([H])([H])c3c([H])c(Cl)c(N([H])C(=O)N4C([H])([H])C([H])([H])C([H])([H])C([H])(n5nc(-c6c([H])c([H])c(Oc7c([H])c([H])c(F)c([H])c7F)c([H])c6[H])c(C(=O)N([H])[H])c5N([H])[H])C4([H])[H])c([H])c3C([H])([H])[H])c([H])c([H])c2C1([H])[H]

$$$$
84:0:0
     RDKit          3D

 94102  0  0  1  0  0  0  0  0999 V2000
  -30.3320  -21.6500   20.2490 C   0  0  0  0  0  2  0  0  0  0  0  0
  -29.8860  -17.8450   19.2560 C   0  0  0  0  0  3  0  0  0  0  0  0
  -30.3260  -19.3930   21.5400 C   0  0  0  0  0  3  0  0  0  0  0  0
  -29.8520  -19.2730   19.1770 C   0  0  0  0  0  0  0  0  0  0  0  0
  -30.1050  -20.0910   20.3230 C   0  0  0  0  0  0  0  0  0  0  0  0
  -30.1390  -17.1570   20.4740 C   0  0  0  0  0  0  0  0  0  0  0  0
  -30.3210  -17.9710   21.6220 C   0  0  0  0  0  0  0  0  0  0  0  0
  -29.5660  -19.9090   17.8250 C   0  0  0  0  0  1  0  0  0  0  0  0
  -30.5660  -17.2320   23.1650 Cl  0  0  0  0  0  0  0  0  0  0  0  0
  -30.8170  -14.7090   20.0390 C   0  0  0  0  0  0  0  0  0  0  0  0
  -30.5770  -12.5000   18.9280 C   0  0  0  0  0  2  0  0  0  0  0  0
  -29.5510  -12.6510   17.7830 C   0  0  0  0  0  2  0  0  0  0  0  0
  -28.1110  -12.4600   18.3020 C   0  0  0  0  0  2  0  0  0  0  0  0
  -27.8260  -13.2760   19.5910 C   0  0  0  0  0  3  0  0  0  0  0  0
  -28.9600  -13.0910   20.6270 C   0  0  0  0  0  2  0  0  0  0  0  0
  -30.2260  -13.4740   19.9800 N   0  0  0  0  0  0  0  0  0  0  0  0
  -31.9130  -14.9250   19.5120 O   0  0  0  0  0  0  0  0  0  0  0  0
  -30.0770  -15.7030   20.6070 N   0  0  0  0  0  0  0  0  0  0  0  0
  -29.3270  -15.3710   21.1950 H   0  0  0  0  0  0  0  0  0  0  0  0
  -25.4850  -13.8200   20.5050 C   0  0  0  0  0  0  0  0  0  0  0  0
  -24.4520  -13.0190   20.9150 C   0  0  0  0  0  0  0  0  0  0  0  0
  -24.9190  -11.6750   20.7860 C   0  0  0  0  0  0  0  0  0  0  0  0
  -26.5150  -12.9610   20.1560 N   0  0  0  0  0  0  0  0  0  0  0  0
  -26.1830  -11.6640   20.3830 N   0  0  0  0  0  0  0  0  0  0  0  0
  -24.2160  -10.3990   20.9670 C   0  0  0  0  0  0  0  0  0  0  0  0
  -24.6490   -9.4480   21.9170 C   0  0  0  0  0  3  0  0  0  0  0  0
  -23.9470   -8.2340   22.0860 C   0  0  0  0  0  3  0  0  0  0  0  0
  -22.7990   -7.9620   21.3060 C   0  0  0  0  0  0  0  0  0  0  0  0
  -22.3860   -8.9030   20.3450 C   0  0  0  0  0  3  0  0  0  0  0  0
  -23.0880  -10.1080   20.1750 C   0  0  0  0  0  3  0  0  0  0  0  0
  -22.0700   -6.8000   21.3830 O   0  0  0  0  0  0  0  0  0  0  0  0
  -21.8990   -6.1370   22.5710 C   0  0  0  0  0  0  0  0  0  0  0  0
  -21.2930   -6.7520   23.6890 C   0  0  0  0  0  3  0  0  0  0  0  0
  -21.0730   -6.0120   24.8670 C   0  0  0  0  0  3  0  0  0  0  0  0
  -21.4470   -4.6550   24.9270 C   0  0  0  0  0  0  0  0  0  0  0  0
  -22.0440   -4.0390   23.8140 C   0  0  0  0  0  3  0  0  0  0  0  0
  -22.2660   -4.7770   22.6390 C   0  0  0  0  0  0  0  0  0  0  0  0
  -22.8230   -4.1730   21.5620 F   0  0  0  0  0  0  0  0  0  0  0  0
  -21.2280   -3.9420   26.0570 F   0  0  0  0  0  0  0  0  0  0  0  0
  -23.0740  -13.4690   21.3080 C   0  0  0  0  0  0  0  0  0  0  0  0
  -22.4270  -12.7460   22.2150 N   0  0  0  0  0  0  0  0  0  0  0  0
  -22.5820  -14.4970   20.8450 O   0  0  0  0  0  0  0  0  0  0  0  0
  -22.8370  -11.9180   22.6180 H   0  0  0  0  0  0  0  0  0  0  0  0
  -21.5050  -13.0310   22.5150 H   0  0  0  0  0  0  0  0  0  0  0  0
  -25.6300  -15.1980   20.3840 N   0  0  0  0  0  0  0  0  0  0  0  0
  -24.8720  -15.8430   20.5780 H   0  0  0  0  0  0  0  0  0  0  0  0
  -26.4490  -15.6540   20.0010 H   0  0  0  0  0  0  0  0  0  0  0  0
  -29.1630  -22.6130   20.2900 N   0  0  0  0  0  4  0  0  0  0  0  0
  -28.5740  -22.3490   21.0640 H   0  0  0  0  0  0  0  0  0  0  0  0
  -28.6310  -22.4460   19.4490 H   0  0  0  0  0  0  0  0  0  0  0  0
  -30.0480  -24.4650   21.7740 C   0  0  0  0  0  1  0  0  0  0  0  0
  -29.4850  -24.1090   20.3820 C   0  0  0  0  0  3  0  0  0  0  0  0
  -28.2820  -25.0980   20.0400 C   0  0  0  0  0  2  0  0  0  0  0  0
  -28.4920  -26.5580   20.1820 O   0  0  0  0  0  0  0  0  0  0  0  0
  -24.7120  -31.8800   23.2500 C   0  0  0  0  0  0  0  0  0  0  0  0
  -27.3640  -27.3930   20.1320 C   0  0  0  0  0  0  0  0  0  0  0  0
  -23.5300  -30.5170   21.5660 C   0  0  0  0  0  3  0  0  0  0  0  0
  -24.9980  -28.9980   20.1290 C   0  0  0  0  0  0  0  0  0  0  0  0
  -26.0720  -30.8380   21.4240 C   0  0  0  0  0  2  0  0  0  0  0  0
  -26.1590  -29.4750   20.7480 C   0  0  0  0  0  0  0  0  0  0  0  0
  -27.3450  -28.6850   20.7390 C   0  0  0  0  0  3  0  0  0  0  0  0
  -26.1750  -26.9650   19.4920 C   0  0  0  0  0  3  0  0  0  0  0  0
  -25.0060  -27.7480   19.4930 C   0  0  0  0  0  3  0  0  0  0  0  0
  -23.7620  -29.8700   20.1760 C   0  0  0  0  0  2  0  0  0  0  0  0
  -24.7900  -31.0940   22.1370 N   0  0  0  0  0  0  0  0  0  0  0  0
  -23.6210  -32.1490   23.7740 O   0  0  0  0  0  0  0  0  0  0  0  0
  -22.8530  -29.4800   22.4940 C   0  0  0  0  0  0  0  0  0  0  0  0
  -21.5340  -29.2910   22.3290 N   0  0  0  0  0  0  0  0  0  0  0  0
  -23.5170  -28.8520   23.3220 O   0  0  0  0  0  0  0  0  0  0  0  0
  -21.0580  -29.8520   21.6360 H   0  0  0  0  0  0  0  0  0  0  0  0
  -18.1540  -28.0650   22.7240 C   0  0  0  0  0  0  0  0  0  0  0  0
  -20.7020  -28.3390   23.0660 C   0  0  0  0  0  3  0  0  0  0  0  0
  -20.8310  -26.9150   22.4750 C   0  0  0  0  0  2  0  0  0  0  0  0
  -19.7580  -26.5980   21.4280 C   0  0  0  0  0  2  0  0  0  0  0  0
  -18.3590  -26.7260   22.0370 C   0  0  0  0  0  2  0  0  0  0  0  0
  -19.2560  -28.8290   23.1930 C   0  0  0  0  0  0  0  0  0  0  0  0
  -19.0110  -30.0830   23.7950 C   0  0  0  0  0  3  0  0  0  0  0  0
  -17.6980  -30.5720   23.9340 C   0  0  0  0  0  3  0  0  0  0  0  0
  -16.6110  -29.8040   23.4810 C   0  0  0  0  0  3  0  0  0  0  0  0
  -16.8390  -28.5530   22.8800 C   0  0  0  0  0  3  0  0  0  0  0  0
  -25.9850  -32.4980   23.9030 C   0  0  0  0  0  3  0  0  0  0  0  0
  -26.4670  -31.7140   25.1850 C   0  0  1  0  0  0  0  0  0  0  0  0
  -25.3440  -31.4780   26.2240 C   0  0  0  0  0  1  0  0  0  0  0  0
  -27.0460  -30.3330   24.7960 C   0  0  0  0  0  1  0  0  0  0  0  0
  -27.6070  -32.4960   25.8800 C   0  0  0  0  0  1  0  0  0  0  0  0
  -25.6760  -33.8950   24.2380 N   0  0  0  0  0  0  0  0  0  0  0  0
  -26.0120  -34.9510   23.4840 C   0  0  0  0  0  0  0  0  0  0  0  0
  -26.6810  -34.8510   22.4520 O   0  0  0  0  0  0  0  0  0  0  0  0
  -25.0730  -34.0460   25.0330 H   0  0  0  0  0  0  0  0  0  0  0  0
  -24.2730  -36.7430   23.1620 C   0  0  0  0  0  1  0  0  0  0  0  0
  -25.5300  -36.3380   23.9500 C   0  0  0  0  0  3  0  0  0  0  0  0
  -27.6740  -37.2330   24.7470 C   0  0  0  0  0  1  0  0  0  0  0  0
  -26.5570  -37.3930   23.8190 N   0  0  0  0  0  0  0  0  0  0  0  0
  -26.1490  -38.3110   23.9710 H   0  0  0  0  0  0  0  0  0  0  0  0
  1 48  1  0
  1  5  1  0
  2  6  1  0
  3  7  1  0
  4  2  2  0
  4  5  1  0
  5  3  2  0
  6 18  1  0
  6  7  2  0
  7  9  1  0
  8  4  1  0
 10 18  1  0
 11 16  1  0
 12 13  1  0
 12 11  1  0
 14 13  1  0
 14 23  1  0
 14 15  1  0
 16 10  1  0
 16 15  1  0
 17 10  2  0
 18 19  1  0
 20 21  2  0
 21 40  1  0
 22 21  1  0
 22 25  1  0
 23 24  1  0
 23 20  1  0
 24 22  2  0
 25 26  1  0
 26 27  2  0
 28 31  1  0
 28 27  1  0
 29 28  2  0
 30 29  1  0
 30 25  2  0
 31 32  1  0
 32 37  2  0
 32 33  1  0
 33 34  2  0
 34 35  1  0
 35 39  1  0
 36 35  2  0
 37 36  1  0
 38 37  1  0
 40 41  1  0
 41 44  1  0
 41 43  1  0
 42 40  2  0
 45 20  1  0
 45 46  1  0
 47 45  1  0
 48 52  1  0
 48 49  1  0
 50 48  1  0
 52 51  1  0
 53 54  1  0
 53 52  1  0
 55 66  2  0
 56 54  1  0
 56 61  1  0
 57 65  1  0
 57 67  1  0
 58 64  1  0
 58 60  1  0
 59 65  1  0
 60 59  1  0
 61 60  2  0
 62 63  1  0
 62 56  2  0
 63 58  2  0
 64 57  1  0
 65 55  1  0
 67 69  2  0
 68 67  1  0
 70 68  1  0
 71 80  2  0
 71 76  1  0
 72 68  1  0
 72 76  1  0
 73 72  1  0
 74 75  1  0
 74 73  1  0
 75 71  1  0
 76 77  2  0
 77 78  1  0
 79 78  2  0
 80 79  1  0
 81 55  1  0
 81 86  1  0
 81 82  1  0
 82 85  1  1
 82 83  1  0
 84 82  1  0
 86 89  1  0
 87 91  1  0
 87 86  1  0
 88 87  2  0
 91 90  1  0
 93 91  1  0
 93 94  1  0
 93 92  1  0
M  ISO  4  10 100  18 100  53 101  54 101
M  END
>  <TORSDO>  (85) 
F 20

>  <SCORE>  (85) 
-13.113

>  <name>  (85) 
84

>  <ligand_id>  (85) 
84

>  <original_smiles>  (85) 
[H]c1c([H])c([H])c2c(c1[H])C([H])([H])C([H])([H])C([H])([H])C2([H])N([H])C(=O)C1([H])N(C(=O)C([H])(N([H])C(=O)C([H])(N([H])C([H])([H])[H])C([H])([H])[H])C(C([H])([H])[H])(C([H])([H])[H])C([H])([H])[H])C([H])([H])c2c([H])c(OC([H])([H])C([H])(C([H])([H])[H])[N+]([H])([H])C([H])([H])c3c([H])c(Cl)c(N([H])C(=O)N4C([H])([H])C([H])([H])C([H])([H])C([H])(n5nc(-c6c([H])c([H])c(Oc7c([H])c([H])c(F)c([H])c7F)c([H])c6[H])c(C(=O)N([H])[H])c5N([H])[H])C4([H])[H])c([H])c3C([H])([H])[H])c([H])c([H])c2C1([H])[H]

>  <smiles>  (85) 
[H]c1c([H])c([H])c2c(c1[H])C([H])([H])C([H])([H])C([H])([H])C2([H])N([H])C(=O)C1([H])N(C(=O)C([H])(N([H])C(=O)C([H])(N([H])C([H])([H])[H])C([H])([H])[H])C(C([H])([H])[H])(C([H])([H])[H])C([H])([H])[H])C([H])([H])c2c([H])c(OC([H])([H])C([H])(C([H])([H])[H])[N+]([H])([H])C([H])([H])c3c([H])c(Cl)c(N([H])C(=O)N4C([H])([H])C([H])([H])C([H])([H])C([H])(n5nc(-c6c([H])c([H])c(Oc7c([H])c([H])c(F)c([H])c7F)c([H])c6[H])c(C(=O)N([H])[H])c5N([H])[H])C4([H])[H])c([H])c3C([H])([H])[H])c([H])c([H])c2C1([H])[H]

$$$$
85:0:0
     RDKit          3D

 97105  0  0  1  0  0  0  0  0999 V2000
  -31.1700  -23.4570   21.2420 C   0  0  0  0  0  2  0  0  0  0  0  0
  -30.2740  -24.4950   20.6670 N   0  0  0  0  0  4  0  0  0  0  0  0
  -30.1560  -24.2820   19.6870 H   0  0  0  0  0  0  0  0  0  0  0  0
  -30.7670  -25.3750   20.6970 H   0  0  0  0  0  0  0  0  0  0  0  0
  -28.3000  -23.3420   21.7080 C   0  0  0  0  0  1  0  0  0  0  0  0
  -29.0810  -25.5600   22.5970 C   0  0  0  0  0  1  0  0  0  0  0  0
  -28.9430  -24.7000   21.3190 C   0  0  1  0  0  0  0  0  0  0  0  0
  -27.9760  -25.4090   20.3240 C   0  0  0  0  0  2  0  0  0  0  0  0
  -28.1910  -26.8300   20.2020 O   0  0  0  0  0  0  0  0  0  0  0  0
  -24.4410  -31.9920   23.3380 C   0  0  0  0  0  0  0  0  0  0  0  0
  -27.0430  -27.6010   20.1570 C   0  0  0  0  0  0  0  0  0  0  0  0
  -23.2230  -30.6430   21.6630 C   0  0  0  0  0  3  0  0  0  0  0  0
  -24.6640  -29.1350   20.1930 C   0  0  0  0  0  0  0  0  0  0  0  0
  -25.7530  -30.9850   21.4700 C   0  0  0  0  0  2  0  0  0  0  0  0
  -25.8260  -29.6290   20.7980 C   0  0  0  0  0  0  0  0  0  0  0  0
  -27.0210  -28.8720   20.7750 C   0  0  0  0  0  3  0  0  0  0  0  0
  -25.8660  -27.1380   19.5200 C   0  0  0  0  0  3  0  0  0  0  0  0
  -24.6800  -27.8890   19.5470 C   0  0  0  0  0  3  0  0  0  0  0  0
  -23.4250  -29.9990   20.2650 C   0  0  0  0  0  2  0  0  0  0  0  0
  -24.4910  -31.2190   22.2150 N   0  0  0  0  0  0  0  0  0  0  0  0
  -23.3620  -32.2600   23.8830 O   0  0  0  0  0  0  0  0  0  0  0  0
  -22.5650  -29.6010   22.5960 C   0  0  0  0  0  0  0  0  0  0  0  0
  -21.2510  -29.3850   22.4210 N   0  0  0  0  0  0  0  0  0  0  0  0
  -23.2360  -28.9880   23.4330 O   0  0  0  0  0  0  0  0  0  0  0  0
  -20.7720  -29.9330   21.7200 H   0  0  0  0  0  0  0  0  0  0  0  0
  -17.8990  -28.0810   22.7630 C   0  0  0  0  0  0  0  0  0  0  0  0
  -20.4300  -28.4250   23.1570 C   0  0  0  0  0  3  0  0  0  0  0  0
  -20.6080  -26.9940   22.6010 C   0  0  0  0  0  2  0  0  0  0  0  0
  -19.5690  -26.6270   21.5370 C   0  0  0  0  0  2  0  0  0  0  0  0
  -18.1530  -26.7320   22.1110 C   0  0  0  0  0  2  0  0  0  0  0  0
  -18.9700  -28.8830   23.2400 C   0  0  0  0  0  0  0  0  0  0  0  0
  -18.6810  -30.1440   23.8050 C   0  0  0  0  0  3  0  0  0  0  0  0
  -17.3540  -30.6040   23.8990 C   0  0  0  0  0  3  0  0  0  0  0  0
  -16.2970  -29.7990   23.4380 C   0  0  0  0  0  3  0  0  0  0  0  0
  -16.5710  -28.5400   22.8770 C   0  0  0  0  0  3  0  0  0  0  0  0
  -25.7330  -32.5950   23.9730 C   0  0  0  0  0  3  0  0  0  0  0  0
  -25.4500  -33.9980   24.3000 N   0  0  0  0  0  0  0  0  0  0  0  0
  -25.8170  -35.0430   23.5440 C   0  0  0  0  0  0  0  0  0  0  0  0
  -26.5000  -34.9240   22.5240 O   0  0  0  0  0  0  0  0  0  0  0  0
  -24.8490  -34.1680   25.0940 H   0  0  0  0  0  0  0  0  0  0  0  0
  -24.1370  -36.8730   23.1520 C   0  0  0  0  0  1  0  0  0  0  0  0
  -25.3500  -36.4420   23.9920 C   0  0  0  0  0  3  0  0  0  0  0  0
  -27.4820  -37.2790   24.8760 C   0  0  0  0  0  1  0  0  0  0  0  0
  -26.4080  -37.4710   23.9040 N   0  0  0  0  0  0  0  0  0  0  0  0
  -26.0190  -38.4000   24.0400 H   0  0  0  0  0  0  0  0  0  0  0  0
  -26.2220  -31.8100   25.2530 C   0  0  1  0  0  0  0  0  0  0  0  0
  -25.1090  -31.5680   26.2990 C   0  0  0  0  0  1  0  0  0  0  0  0
  -26.8040  -30.4340   24.8550 C   0  0  0  0  0  1  0  0  0  0  0  0
  -27.3660  -32.5920   25.9400 C   0  0  0  0  0  1  0  0  0  0  0  0
  -31.1060  -22.1100   20.4810 C   0  0  0  0  0  2  0  0  0  0  0  0
  -31.8540  -20.9760   21.2150 C   0  0  0  0  0  2  0  0  0  0  0  0
  -32.1990  -19.7460   20.3490 C   0  0  0  0  0  2  0  0  0  0  0  0
  -31.2110  -17.3460   20.8780 C   0  0  0  0  0  0  0  0  0  0  0  0
  -31.1570  -18.6500   20.3050 C   0  0  0  0  0  0  0  0  0  0  0  0
  -30.1130  -16.6950   20.3970 C   0  0  0  0  0  0  0  0  0  0  0  0
  -28.2100  -17.4060   18.8250 C   0  0  0  0  0  1  0  0  0  0  0  0
  -30.0580  -18.7890   19.5610 N   0  0  0  0  0  0  0  0  0  0  0  0
  -29.4150  -17.5910   19.6100 N   0  0  0  0  0  0  0  0  0  0  0  0
  -32.4610  -16.6980   21.8810 Cl  0  0  0  0  0  0  0  0  0  0  0  0
  -30.3790  -14.3970   19.8980 C   0  0  0  0  0  0  0  0  0  0  0  0
  -29.9910  -12.2570   18.7520 C   0  0  0  0  0  2  0  0  0  0  0  0
  -28.9310  -12.4510   17.6500 C   0  0  0  0  0  2  0  0  0  0  0  0
  -27.5140  -12.2630   18.2220 C   0  0  0  0  0  2  0  0  0  0  0  0
  -27.2770  -13.0740   19.5240 C   0  0  0  0  0  3  0  0  0  0  0  0
  -28.4470  -12.8850   20.5180 C   0  0  0  0  0  2  0  0  0  0  0  0
  -29.7020  -13.2210   19.8250 N   0  0  0  0  0  0  0  0  0  0  0  0
  -31.4310  -14.5930   19.2820 O   0  0  0  0  0  0  0  0  0  0  0  0
  -29.7820  -15.3890   20.5750 N   0  0  0  0  0  0  0  0  0  0  0  0
  -28.8790  -15.1930   20.9730 H   0  0  0  0  0  0  0  0  0  0  0  0
  -24.9370  -13.5840   20.4660 C   0  0  0  0  0  0  0  0  0  0  0  0
  -23.9370  -12.7680   20.9250 C   0  0  0  0  0  0  0  0  0  0  0  0
  -24.4400  -11.4350   20.8320 C   0  0  0  0  0  0  0  0  0  0  0  0
  -25.9870  -12.7450   20.1260 N   0  0  0  0  0  0  0  0  0  0  0  0
  -25.6970  -11.4470   20.4030 N   0  0  0  0  0  0  0  0  0  0  0  0
  -23.7790  -10.1450   21.0710 C   0  0  0  0  0  0  0  0  0  0  0  0
  -24.2760   -9.2240   22.0200 C   0  0  0  0  0  3  0  0  0  0  0  0
  -23.6100   -8.0000   22.2460 C   0  0  0  0  0  3  0  0  0  0  0  0
  -22.4340   -7.6860   21.5220 C   0  0  0  0  0  0  0  0  0  0  0  0
  -21.9570   -8.5970   20.5630 C   0  0  0  0  0  3  0  0  0  0  0  0
  -22.6240   -9.8130   20.3370 C   0  0  0  0  0  3  0  0  0  0  0  0
  -21.7380   -6.5090   21.6560 O   0  0  0  0  0  0  0  0  0  0  0  0
  -21.7070   -5.8220   22.8430 C   0  0  0  0  0  0  0  0  0  0  0  0
  -21.1960   -6.4000   24.0270 C   0  0  0  0  0  3  0  0  0  0  0  0
  -21.1190   -5.6350   25.2070 C   0  0  0  0  0  3  0  0  0  0  0  0
  -21.5420   -4.2930   25.2050 C   0  0  0  0  0  0  0  0  0  0  0  0
  -22.0470   -3.7140   24.0290 C   0  0  0  0  0  3  0  0  0  0  0  0
  -22.1250   -4.4750   22.8490 C   0  0  0  0  0  0  0  0  0  0  0  0
  -22.5920   -3.9070   21.7120 F   0  0  0  0  0  0  0  0  0  0  0  0
  -21.4620   -3.5560   26.3380 F   0  0  0  0  0  0  0  0  0  0  0  0
  -22.5570  -13.1940   21.3370 C   0  0  0  0  0  0  0  0  0  0  0  0
  -21.9360  -12.4610   22.2540 N   0  0  0  0  0  0  0  0  0  0  0  0
  -22.0380  -14.2120   20.8800 O   0  0  0  0  0  0  0  0  0  0  0  0
  -22.3670  -11.6370   22.6470 H   0  0  0  0  0  0  0  0  0  0  0  0
  -21.0160  -12.7310   22.5730 H   0  0  0  0  0  0  0  0  0  0  0  0
  -25.0330  -14.9620   20.2910 N   0  0  0  0  0  0  0  0  0  0  0  0
  -24.2540  -15.5830   20.4820 H   0  0  0  0  0  0  0  0  0  0  0  0
  -25.8290  -15.4360   19.8870 H   0  0  0  0  0  0  0  0  0  0  0  0
  2  4  1  0
  2  1  1  0
  2  7  1  0
  3  2  1  0
  7  5  1  1
  7  6  1  0
  8  7  1  0
  9  8  1  0
 10 21  2  0
 11  9  1  0
 11 16  1  0
 12 20  1  0
 12 22  1  0
 13 19  1  0
 13 15  1  0
 14 20  1  0
 15 14  1  0
 16 15  2  0
 17 18  1  0
 17 11  2  0
 18 13  2  0
 19 12  1  0
 20 10  1  0
 22 24  2  0
 23 22  1  0
 25 23  1  0
 26 35  2  0
 26 31  1  0
 27 23  1  0
 27 31  1  0
 28 27  1  0
 29 30  1  0
 29 28  1  0
 30 26  1  0
 31 32  2  0
 32 33  1  0
 34 33  2  0
 35 34  1  0
 36 10  1  0
 36 37  1  0
 36 46  1  0
 37 40  1  0
 38 42  1  0
 38 37  1  0
 39 38  2  0
 42 41  1  0
 44 42  1  0
 44 45  1  0
 44 43  1  0
 46 49  1  1
 46 47  1  0
 48 46  1  0
 50 51  1  0
 50  1  1  0
 52 51  1  0
 53 59  1  0
 54 52  1  0
 54 53  1  0
 55 68  1  0
 55 53  2  0
 56 58  1  0
 57 58  1  0
 57 54  2  0
 58 55  1  0
 60 68  1  0
 61 66  1  0
 62 63  1  0
 62 61  1  0
 64 63  1  0
 64 73  1  0
 64 65  1  0
 66 60  1  0
 66 65  1  0
 67 60  2  0
 68 69  1  0
 70 71  2  0
 71 90  1  0
 72 71  1  0
 72 75  1  0
 73 74  1  0
 73 70  1  0
 74 72  2  0
 75 76  1  0
 76 77  2  0
 78 81  1  0
 78 77  1  0
 79 78  2  0
 80 79  1  0
 80 75  2  0
 81 82  1  0
 82 87  2  0
 82 83  1  0
 83 84  2  0
 85 84  1  0
 85 89  1  0
 86 85  2  0
 87 86  1  0
 88 87  1  0
 90 91  1  0
 91 94  1  0
 91 93  1  0
 92 90  2  0
 95 70  1  0
 95 96  1  0
 97 95  1  0
M  ISO  4   8 101   9 101  60 100  68 100
M  END
>  <TORSDO>  (86) 
F 23

>  <SCORE>  (86) 
-10.760

>  <name>  (86) 
85

>  <ligand_id>  (86) 
85

>  <original_smiles>  (86) 
[H]c1c([H])c([H])c2c(c1[H])C([H])([H])C([H])([H])C([H])([H])C2([H])N([H])C(=O)C1([H])N(C(=O)C([H])(N([H])C(=O)C([H])(N([H])C([H])([H])[H])C([H])([H])[H])C(C([H])([H])[H])(C([H])([H])[H])C([H])([H])[H])C([H])([H])c2c([H])c(OC([H])([H])C(C([H])([H])[H])(C([H])([H])[H])[N+]([H])([H])C([H])([H])C([H])([H])C([H])([H])C([H])([H])c3nn(C([H])([H])[H])c(N([H])C(=O)N4C([H])([H])C([H])([H])C([H])([H])C([H])(n5nc(-c6c([H])c([H])c(Oc7c([H])c([H])c(F)c([H])c7F)c([H])c6[H])c(C(=O)N([H])[H])c5N([H])[H])C4([H])[H])c3Cl)c([H])c([H])c2C1([H])[H]

>  <smiles>  (86) 
[H]c1c([H])c([H])c2c(c1[H])C([H])([H])C([H])([H])C([H])([H])C2([H])N([H])C(=O)C1([H])N(C(=O)C([H])(N([H])C(=O)C([H])(N([H])C([H])([H])[H])C([H])([H])[H])C(C([H])([H])[H])(C([H])([H])[H])C([H])([H])[H])C([H])([H])c2c([H])c(OC([H])([H])C(C([H])([H])[H])(C([H])([H])[H])[N+]([H])([H])C([H])([H])C([H])([H])C([H])([H])C([H])([H])c3nn(C([H])([H])[H])c(N([H])C(=O)N4C([H])([H])C([H])([H])C([H])([H])C([H])(n5nc(-c6c([H])c([H])c(Oc7c([H])c([H])c(F)c([H])c7F)c([H])c6[H])c(C(=O)N([H])[H])c5N([H])[H])C4([H])[H])c3Cl)c([H])c([H])c2C1([H])[H]

$$$$
86:0:0
     RDKit          3D

 89 97  0  0  1  0  0  0  0  0999 V2000
  -28.1500  -20.3210   20.1670 C   0  0  0  0  0  3  0  0  0  0  0  0
  -30.5780  -19.0450   20.5070 C   0  0  0  0  0  3  0  0  0  0  0  0
  -28.2990  -18.8400   20.1650 C   0  0  0  0  0  0  0  0  0  0  0  0
  -29.1970  -21.3060   20.3470 C   0  0  0  0  0  0  0  0  0  0  0  0
  -29.5290  -18.0570   20.3410 C   0  0  0  0  0  0  0  0  0  0  0  0
  -30.4250  -20.5220   20.5150 C   0  0  0  0  0  0  0  0  0  0  0  0
  -27.0190  -18.0580   19.9480 C   0  0  0  0  0  1  0  0  0  0  0  0
  -31.8850  -21.4150   20.7650 Cl  0  0  0  0  0  0  0  0  0  0  0  0
  -30.4140  -15.2610   20.2370 C   0  0  0  0  0  0  0  0  0  0  0  0
  -30.3930  -12.8460   19.3170 C   0  0  0  0  0  2  0  0  0  0  0  0
  -29.4450  -12.6990   18.0990 C   0  0  0  0  0  2  0  0  0  0  0  0
  -28.0070  -12.4040   18.5680 C   0  0  0  0  0  2  0  0  0  0  0  0
  -27.5740  -13.3430   19.7220 C   0  0  0  0  0  3  0  0  0  0  0  0
  -28.6450  -13.4490   20.8290 C   0  0  0  0  0  2  0  0  0  0  0  0
  -29.8740  -13.9500   20.1920 N   0  0  0  0  0  0  0  0  0  0  0  0
  -31.6220  -15.3200   19.9680 O   0  0  0  0  0  0  0  0  0  0  0  0
  -29.5630  -16.4480   20.3850 N   0  0  0  0  0  0  0  0  0  0  0  0
  -28.6310  -16.0970   20.5410 H   0  0  0  0  0  0  0  0  0  0  0  0
  -25.2090  -13.8750   20.5240 C   0  0  0  0  0  0  0  0  0  0  0  0
  -24.1610  -13.0900   20.9090 C   0  0  0  0  0  0  0  0  0  0  0  0
  -24.6370  -11.7440   20.8490 C   0  0  0  0  0  0  0  0  0  0  0  0
  -26.2550  -13.0120   20.2500 N   0  0  0  0  0  0  0  0  0  0  0  0
  -25.9230  -11.7220   20.5110 N   0  0  0  0  0  0  0  0  0  0  0  0
  -23.9200  -10.4760   21.0360 C   0  0  0  0  0  0  0  0  0  0  0  0
  -24.3640   -9.5080   21.9630 C   0  0  0  0  0  3  0  0  0  0  0  0
  -23.6480   -8.3040   22.1370 C   0  0  0  0  0  3  0  0  0  0  0  0
  -22.4730   -8.0630   21.3860 C   0  0  0  0  0  0  0  0  0  0  0  0
  -22.0480   -9.0220   20.4490 C   0  0  0  0  0  3  0  0  0  0  0  0
  -22.7650  -10.2160   20.2720 C   0  0  0  0  0  3  0  0  0  0  0  0
  -21.7250   -6.9140   21.4730 O   0  0  0  0  0  0  0  0  0  0  0  0
  -21.6680   -6.1770   22.6280 C   0  0  0  0  0  0  0  0  0  0  0  0
  -21.1940   -6.7290   23.8400 C   0  0  0  0  0  3  0  0  0  0  0  0
  -21.0850   -5.9170   24.9870 C   0  0  0  0  0  3  0  0  0  0  0  0
  -21.4400   -4.5560   24.9230 C   0  0  0  0  0  0  0  0  0  0  0  0
  -21.9070   -4.0060   23.7170 C   0  0  0  0  0  3  0  0  0  0  0  0
  -22.0180   -4.8130   22.5720 C   0  0  0  0  0  0  0  0  0  0  0  0
  -22.4490   -4.2730   21.4080 F   0  0  0  0  0  0  0  0  0  0  0  0
  -21.3300   -3.7740   26.0230 F   0  0  0  0  0  0  0  0  0  0  0  0
  -22.7660  -13.5580   21.2070 C   0  0  0  0  0  0  0  0  0  0  0  0
  -22.0590  -12.8570   22.0860 N   0  0  0  0  0  0  0  0  0  0  0  0
  -22.3130  -14.5830   20.6970 O   0  0  0  0  0  0  0  0  0  0  0  0
  -22.4400  -12.0330   22.5260 H   0  0  0  0  0  0  0  0  0  0  0  0
  -21.1240  -13.1550   22.3260 H   0  0  0  0  0  0  0  0  0  0  0  0
  -25.3470  -15.2450   20.3500 N   0  0  0  0  0  0  0  0  0  0  0  0
  -24.5450  -15.8610   20.4250 H   0  0  0  0  0  0  0  0  0  0  0  0
  -26.1250  -15.6650   19.8620 H   0  0  0  0  0  0  0  0  0  0  0  0
  -29.1700  -23.0450   20.4040 C   0  0  0  0  0  3  0  0  0  0  0  0
  -28.0300  -24.3820   20.2100 C   0  0  0  0  0  3  0  0  0  0  0  0
  -28.2410  -25.9920   20.3600 O   0  0  0  0  0  0  0  0  0  0  0  0
  -24.6520  -31.9130   23.2730 C   0  0  0  0  0  0  0  0  0  0  0  0
  -27.2090  -27.0500   20.2950 C   0  0  0  0  0  0  0  0  0  0  0  0
  -23.4580  -30.5170   21.6340 C   0  0  0  0  0  3  0  0  0  0  0  0
  -24.9070  -28.9030   20.2280 C   0  0  0  0  0  0  0  0  0  0  0  0
  -26.0250  -30.7260   21.4990 C   0  0  0  0  0  2  0  0  0  0  0  0
  -26.0920  -29.3190   20.8480 C   0  0  0  0  0  0  0  0  0  0  0  0
  -27.2380  -28.4120   20.8560 C   0  0  0  0  0  3  0  0  0  0  0  0
  -25.9910  -26.7670   19.6370 C   0  0  0  0  0  3  0  0  0  0  0  0
  -24.8790  -27.6460   19.6020 C   0  0  0  0  0  3  0  0  0  0  0  0
  -23.6910  -29.8270   20.2610 C   0  0  0  0  0  2  0  0  0  0  0  0
  -24.7320  -31.0780   22.1890 N   0  0  0  0  0  0  0  0  0  0  0  0
  -23.5620  -32.2130   23.7870 O   0  0  0  0  0  0  0  0  0  0  0  0
  -22.7530  -29.5290   22.5990 C   0  0  0  0  0  0  0  0  0  0  0  0
  -21.4240  -29.3710   22.4650 N   0  0  0  0  0  0  0  0  0  0  0  0
  -23.4110  -28.9050   23.4370 O   0  0  0  0  0  0  0  0  0  0  0  0
  -20.9490  -29.9260   21.7660 H   0  0  0  0  0  0  0  0  0  0  0  0
  -18.0270  -28.1980   22.9570 C   0  0  0  0  0  0  0  0  0  0  0  0
  -20.5880  -28.4450   23.2350 C   0  0  0  0  0  3  0  0  0  0  0  0
  -20.6820  -27.0100   22.6670 C   0  0  0  0  0  2  0  0  0  0  0  0
  -19.5820  -26.6910   21.6490 C   0  0  0  0  0  2  0  0  0  0  0  0
  -18.1980  -26.8460   22.2840 C   0  0  0  0  0  2  0  0  0  0  0  0
  -19.1490  -28.9550   23.3900 C   0  0  0  0  0  0  0  0  0  0  0  0
  -18.9320  -30.2180   23.9810 C   0  0  0  0  0  3  0  0  0  0  0  0
  -17.6290  -30.7250   24.1440 C   0  0  0  0  0  3  0  0  0  0  0  0
  -16.5220  -29.9650   23.7270 C   0  0  0  0  0  3  0  0  0  0  0  0
  -16.7220  -28.7040   23.1390 C   0  0  0  0  0  3  0  0  0  0  0  0
  -25.9250  -32.5480   23.9120 C   0  0  0  0  0  3  0  0  0  0  0  0
  -25.6170  -33.9520   24.2350 N   0  0  0  0  0  0  0  0  0  0  0  0
  -25.9410  -35.0040   23.4720 C   0  0  0  0  0  0  0  0  0  0  0  0
  -26.5930  -34.8940   22.4300 O   0  0  0  0  0  0  0  0  0  0  0  0
  -25.0350  -34.1090   25.0440 H   0  0  0  0  0  0  0  0  0  0  0  0
  -24.2050  -36.8010   23.1560 C   0  0  0  0  0  1  0  0  0  0  0  0
  -25.4680  -36.3990   23.9330 C   0  0  0  0  0  3  0  0  0  0  0  0
  -27.6240  -37.2960   24.6970 C   0  0  0  0  0  1  0  0  0  0  0  0
  -26.4980  -37.4510   23.7790 N   0  0  0  0  0  0  0  0  0  0  0  0
  -26.0960  -38.3730   23.9220 H   0  0  0  0  0  0  0  0  0  0  0  0
  -26.4100  -31.7880   25.2070 C   0  0  1  0  0  0  0  0  0  0  0  0
  -25.2980  -31.5750   26.2620 C   0  0  0  0  0  1  0  0  0  0  0  0
  -26.9880  -30.4000   24.8510 C   0  0  0  0  0  1  0  0  0  0  0  0
  -27.5580  -32.5800   25.8770 C   0  0  0  0  0  1  0  0  0  0  0  0
  1  4  1  0
  2  6  1  0
  3  1  2  0
  3  5  1  0
  4 47  1  0
  4  6  2  0
  5 17  1  0
  5  2  2  0
  6  8  1  0
  7  3  1  0
  9 17  1  0
 10 15  1  0
 11 12  1  0
 11 10  1  0
 13 12  1  0
 13 22  1  0
 13 14  1  0
 15  9  1  0
 15 14  1  0
 16  9  2  0
 17 18  1  0
 19 20  2  0
 20 39  1  0
 21 20  1  0
 21 24  1  0
 22 23  1  0
 22 19  1  0
 23 21  2  0
 24 25  1  0
 25 26  2  0
 27 30  1  0
 27 26  1  0
 28 27  2  0
 29 28  1  0
 29 24  2  0
 30 31  1  0
 31 32  1  0
 32 33  2  0
 34 33  1  0
 34 38  1  0
 35 34  2  0
 36 31  2  0
 36 35  1  0
 37 36  1  0
 39 40  1  0
 40 43  1  0
 40 42  1  0
 41 39  2  0
 44 45  1  0
 44 19  1  0
 46 44  1  0
 48 49  1  0
 48 47  2  0
 50 61  2  0
 51 49  1  0
 51 56  1  0
 52 60  1  0
 52 62  1  0
 53 59  1  0
 53 55  1  0
 54 60  1  0
 55 56  2  0
 55 54  1  0
 57 51  2  0
 58 57  1  0
 58 53  2  0
 59 52  1  0
 60 50  1  0
 62 64  2  0
 63 62  1  0
 65 63  1  0
 66 75  2  0
 66 71  1  0
 67 63  1  0
 67 71  1  0
 68 67  1  0
 69 70  1  0
 69 68  1  0
 70 66  1  0
 71 72  2  0
 72 73  1  0
 74 73  2  0
 75 74  1  0
 76 50  1  0
 76 77  1  0
 76 86  1  0
 77 80  1  0
 78 82  1  0
 78 77  1  0
 79 78  2  0
 82 81  1  0
 84 85  1  0
 84 82  1  0
 84 83  1  0
 86 89  1  1
 86 87  1  0
 88 86  1  0
M  ISO  4   9 100  17 100  48 101  49 101
M  END
>  <TORSDO>  (87) 
F 18

>  <SCORE>  (87) 
-16.009

>  <name>  (87) 
86

>  <ligand_id>  (87) 
86

>  <original_smiles>  (87) 
[H]c1c([H])c([H])c2c(c1[H])C([H])([H])C([H])([H])C([H])([H])C2([H])N([H])C(=O)C1([H])N(C(=O)C([H])(N([H])C(=O)C([H])(N([H])C([H])([H])[H])C([H])([H])[H])C(C([H])([H])[H])(C([H])([H])[H])C([H])([H])[H])C([H])([H])c2c([H])c(OC([H])([H])C([H])([H])c3c([H])c(C([H])([H])[H])c(N([H])C(=O)N4C([H])([H])C([H])([H])C([H])([H])C([H])(n5nc(-c6c([H])c([H])c(Oc7c([H])c([H])c(F)c([H])c7F)c([H])c6[H])c(C(=O)N([H])[H])c5N([H])[H])C4([H])[H])c([H])c3Cl)c([H])c([H])c2C1([H])[H]

>  <smiles>  (87) 
[H]c1c([H])c([H])c2c(c1[H])C([H])([H])C([H])([H])C([H])([H])C2([H])N([H])C(=O)C1([H])N(C(=O)C([H])(N([H])C(=O)C([H])(N([H])C([H])([H])[H])C([H])([H])[H])C(C([H])([H])[H])(C([H])([H])[H])C([H])([H])[H])C([H])([H])c2c([H])c(OC([H])([H])C([H])([H])c3c([H])c(C([H])([H])[H])c(N([H])C(=O)N4C([H])([H])C([H])([H])C([H])([H])C([H])(n5nc(-c6c([H])c([H])c(Oc7c([H])c([H])c(F)c([H])c7F)c([H])c6[H])c(C(=O)N([H])[H])c5N([H])[H])C4([H])[H])c([H])c3Cl)c([H])c([H])c2C1([H])[H]

$$$$
87:0:0
     RDKit          3D

 93 91  0  0  1  0  0  0  0  0999 V2000
  -25.4060  -11.6800   18.6060 C   0  0  0  0  0  3  0  0  0  0  0  0
  -24.8410  -11.7410   21.7510 C   0  0  0  0  0 15  0  0  0  0  0  0
  -26.1980  -11.2690   20.2250 C   0  0  0  0  0  2  0  0  0  0  0  0
  -23.3690  -14.0840   19.4350 C   0  0  0  0  0  2  0  0  0  0  0  0
  -24.0800  -12.8730   18.3580 C   0  0  0  0  0  0  0  0  0  0  0  0
  -23.2030  -12.7710   20.8530 C   0  0  0  0  0  2  0  0  0  0  0  0
  -23.7200  -13.1500   16.6940 Cl  0  0  0  0  0  0  0  0  0  0  0  0
  -21.5620  -12.5970   21.4750 Cl  0  0  0  0  0  0  0  0  0  0  0  0
  -28.0840  -11.5860   20.0170 C   0  0  0  0  0  1  0  0  0  0  0  0
  -29.8850  -13.3570   18.5800 C   0  0  0  0  0  1  0  0  0  0  0  0
  -31.4460  -13.2390   20.0230 C   0  0  0  0  0  0  0  0  0  0  0  0
  -30.3310  -11.1120   19.1060 C   0  0  0  0  0  3  0  0  0  0  0  0
  -28.9820  -11.4040   17.7170 C   0  0  0  0  0  3  0  0  0  0  0  0
  -27.7320  -12.8550   18.0280 C   0  0  0  0  0  1  0  0  0  0  0  0
  -27.9980  -13.8680   19.7920 C   0  0  0  0  0  1  0  0  0  0  0  0
  -29.3220  -13.3430   20.9520 C   0  0  0  0  0  1  0  0  0  0  0  0
  -30.5130  -12.2970   20.4190 N   0  0  0  0  0  0  0  0  0  0  0  0
  -32.1090  -14.1170   20.5670 O   0  0  0  0  0  0  0  0  0  0  0  0
  -31.3230  -13.3500   18.7410 N   0  0  0  0  0  0  0  0  0  0  0  0
  -26.3080  -14.7970   21.3350 C   0  0  0  0  0  3  0  0  0  0  0  0
  -25.3440  -14.1080   21.8390 C   0  0  0  0  0  3  0  0  0  0  0  0
  -25.4540  -13.2210   20.6360 C   0  0  0  0  0  2  0  0  0  0  0  0
  -27.0220  -13.8820   20.6730 N   0  0  0  0  0  0  0  0  0  0  0  0
  -26.2330  -13.7500   19.8490 N   0  0  0  0  0  2  0  0  0  0  0  0
  -24.0210  -10.6640   20.2800 C   0  0  0  0  0  3  0  0  0  0  0  0
  -24.4560   -9.4060   21.1470 C   0  0  0  0  0  3  0  0  0  0  0  0
  -23.7770   -8.3520   21.8360 C   0  0  0  0  0  3  0  0  0  0  0  0
  -22.4630   -8.1260   21.4860 C   0  0  0  0  0  0  0  0  0  0  0  0
  -21.9600   -9.0870   20.5590 C   0  0  0  0  0  3  0  0  0  0  0  0
  -22.6610  -10.2530   20.0360 C   0  0  0  0  0  3  0  0  0  0  0  0
  -21.7340   -6.9750   21.8000 O   0  0  0  0  0  0  0  0  0  0  0  0
  -21.7620   -6.2450   22.9860 C   0  0  0  0  0  0  0  0  0  0  0  0
  -21.3530   -6.8020   24.2220 C   0  0  0  0  0  3  0  0  0  0  0  0
  -21.2010   -5.9910   25.3720 C   0  0  0  0  0  3  0  0  0  0  0  0
  -21.4540   -4.6080   25.3070 C   0  0  0  0  0  0  0  0  0  0  0  0
  -21.8620   -4.0370   24.0920 C   0  0  0  0  0  3  0  0  0  0  0  0
  -22.0110   -4.8440   22.9420 C   0  0  0  0  0  0  0  0  0  0  0  0
  -22.3660   -4.2480   21.7790 F   0  0  0  0  0  0  0  0  0  0  0  0
  -21.2940   -3.8310   26.4090 F   0  0  0  0  0  0  0  0  0  0  0  0
  -24.1120  -14.5160   22.7440 C   0  0  0  0  0  0  0  0  0  0  0  0
  -23.7920  -13.6140   23.7050 N   0  0  0  0  0  0  0  0  0  0  0  0
  -23.1380  -15.1180   22.2630 O   0  0  0  0  0  0  0  0  0  0  0  0
  -24.4850  -12.9230   23.9580 H   0  0  0  0  0  0  0  0  0  0  0  0
  -22.9210  -13.6520   24.2080 H   0  0  0  0  0  0  0  0  0  0  0  0
  -26.4830  -16.1030   21.1330 N   0  0  0  0  0  0  0  0  0  0  0  0
  -25.8220  -16.7960   21.4530 H   0  0  0  0  0  0  0  0  0  0  0  0
  -27.0610  -16.4160   20.3610 H   0  0  0  0  0  0  0  0  0  0  0  0
  -31.9180  -15.4760   17.5200 C   0  0  0  0  0  1  0  0  0  0  0  0
  -32.2560  -14.0030   17.8070 C   0  0  0  0  0  2  0  0  0  0  0  0
  -23.8630  -16.5020   19.2980 C   0  0  0  0  0 15  0  0  0  0  0  0
  -24.8850  -18.9080   19.7190 C   0  0  0  0  0 15  0  0  0  0  0  0
  -25.4130  -21.4830   19.4950 C   0  0  0  0  0 15  0  0  0  0  0  0
  -26.3390  -23.6070   19.8170 O   0  0  0  0  0  1  0  0  0  0  0  0
  -24.8040  -31.5320   22.8640 C   0  0  0  0  0  0  0  0  0  0  0  0
  -26.2310  -25.4380   19.8260 C   0  0  0  0  0  0  0  0  0  0  0  0
  -23.5910  -30.1680   21.2630 C   0  0  0  0  0  3  0  0  0  0  0  0
  -24.8360  -28.3770   19.7650 C   0  0  0  0  0  0  0  0  0  0  0  0
  -26.1480  -29.8220   21.2590 C   0  0  0  0  0  2  0  0  0  0  0  0
  -25.9840  -28.3230   20.5350 C   0  0  0  0  0  0  0  0  0  0  0  0
  -26.6770  -26.8870   20.5270 C   0  0  0  0  0  3  0  0  0  0  0  0
  -25.3640  -26.0430   18.8790 C   0  0  0  0  0  3  0  0  0  0  0  0
  -24.6620  -27.3000   18.8890 C   0  0  0  0  0  3  0  0  0  0  0  0
  -23.8090  -29.5290   19.8600 C   0  0  0  0  0  2  0  0  0  0  0  0
  -24.9050  -30.5850   21.8330 N   0  0  0  0  0  0  0  0  0  0  0  0
  -23.7020  -31.8760   23.3400 O   0  0  0  0  0  0  0  0  0  0  0  0
  -22.8590  -29.2000   22.2340 C   0  0  0  0  0  0  0  0  0  0  0  0
  -21.5230  -29.0630   22.1310 N   0  0  0  0  0  0  0  0  0  0  0  0
  -23.5120  -28.5820   23.0810 O   0  0  0  0  0  0  0  0  0  0  0  0
  -21.0360  -29.6130   21.4380 H   0  0  0  0  0  0  0  0  0  0  0  0
  -18.1620  -27.7970   22.6880 C   0  0  0  0  0  0  0  0  0  0  0  0
  -20.7180  -28.1230   22.9220 C   0  0  0  0  0  3  0  0  0  0  0  0
  -20.8410  -26.6860   22.3610 C   0  0  0  0  0  2  0  0  0  0  0  0
  -19.7430  -26.3390   21.3530 C   0  0  0  0  0  2  0  0  0  0  0  0
  -18.3630  -26.4560   22.0040 C   0  0  0  0  0  2  0  0  0  0  0  0
  -19.2660  -28.5880   23.1040 C   0  0  0  0  0  0  0  0  0  0  0  0
  -19.0200  -29.8390   23.7110 C   0  0  0  0  0  3  0  0  0  0  0  0
  -17.7040  -30.3000   23.9030 C   0  0  0  0  0  3  0  0  0  0  0  0
  -16.6160  -29.5080   23.4980 C   0  0  0  0  0  3  0  0  0  0  0  0
  -16.8450  -28.2580   22.8960 C   0  0  0  0  0  3  0  0  0  0  0  0
  -26.0270  -32.2570   23.5150 C   0  0  0  0  0  3  0  0  0  0  0  0
  -25.6140  -33.6190   23.9530 N   0  0  0  0  0  0  0  0  0  0  0  0
  -25.8830  -34.7760   23.3280 C   0  0  0  0  0  0  0  0  0  0  0  0
  -26.5390  -34.8190   22.2860 O   0  0  0  0  0  0  0  0  0  0  0  0
  -25.0180  -33.6540   24.7670 H   0  0  0  0  0  0  0  0  0  0  0  0
  -24.0530  -36.5230   23.2390 C   0  0  0  0  0  1  0  0  0  0  0  0
  -25.3500  -36.0930   23.9480 C   0  0  0  0  0  3  0  0  0  0  0  0
  -27.4710  -37.0270   24.7760 C   0  0  0  0  0  1  0  0  0  0  0  0
  -26.3190  -37.2140   23.8990 N   0  0  0  0  0  0  0  0  0  0  0  0
  -25.8690  -38.0900   24.1510 H   0  0  0  0  0  0  0  0  0  0  0  0
  -26.5990  -31.4910   24.7740 C   0  0  1  0  0  0  0  0  0  0  0  0
  -25.5360  -31.1770   25.8560 C   0  0  0  0  0  1  0  0  0  0  0  0
  -27.2490  -30.1560   24.3710 C   0  0  0  0  0  1  0  0  0  0  0  0
  -27.7200  -32.3310   25.4340 C   0  0  0  0  0  1  0  0  0  0  0  0
  1  3  1  0
  4  6  1  0
  5  1  2  0
  5  4  1  0
  6  8  1  0
  7  5  1  0
  9  3  1  0
 10 19  1  0
 11 17  1  0
 11 18  2  0
 12 17  1  0
 13 14  1  0
 13 12  2  0
 15 23  1  0
 17 16  1  0
 19 11  1  0
 20 45  1  0
 20 21  1  0
 21 40  1  0
 22 21  1  0
 23 20  1  0
 24 22  1  0
 24 23  1  0
 25 26  1  0
 26 27  2  0
 28 31  1  0
 28 27  1  0
 29 28  2  0
 30 25  2  0
 30 29  1  0
 31 32  1  0
 32 33  1  0
 33 34  2  0
 35 34  1  0
 35 39  1  0
 36 35  2  0
 37 32  2  0
 37 36  1  0
 38 37  1  0
 40 41  1  0
 41 43  1  0
 41 44  1  0
 42 40  2  0
 45 46  1  0
 47 45  1  0
 48 49  1  0
 49 19  1  0
 53 55  1  0
 54 65  2  0
 55 60  1  0
 56 64  1  0
 56 66  1  0
 57 63  1  0
 57 59  1  0
 58 64  1  0
 59 58  1  0
 60 59  2  0
 61 62  1  0
 61 55  2  0
 62 57  2  0
 63 56  1  0
 64 54  1  0
 66 68  2  0
 67 66  1  0
 69 67  1  0
 70 79  2  0
 70 75  1  0
 71 67  1  0
 71 75  1  0
 72 71  1  0
 73 74  1  0
 73 72  1  0
 74 70  1  0
 75 76  2  0
 76 77  1  0
 78 77  2  0
 79 78  1  0
 80 54  1  0
 80 81  1  0
 80 90  1  0
 81 84  1  0
 82 86  1  0
 82 81  1  0
 83 82  2  0
 86 85  1  0
 88 86  1  0
 88 89  1  0
 88 87  1  0
 90 93  1  1
 90 91  1  0
 92 90  1  0
M  ISO  4  11 100  19 100  52 101  53 101
M  END
>  <TORSDO>  (88) 
F 22

>  <SCORE>  (88) 
7.744

>  <name>  (88) 
87

>  <ligand_id>  (88) 
87

>  <original_smiles>  (88) 
[H]c1c([H])c([H])c2c(c1[H])C([H])([H])C([H])([H])C([H])([H])C2([H])N([H])C(=O)C1([H])N(C(=O)C([H])(N([H])C(=O)C([H])(N([H])C([H])([H])[H])C([H])([H])[H])C(C([H])([H])[H])(C([H])([H])[H])C([H])([H])[H])C([H])([H])c2c([H])c(OC([H])([H])C([H])([H])C([H])([H])c3c(Cl)c([H])c(C([H])([H])C([H])([H])N(C(=O)N4C([H])([H])C([H])([H])C([H])([H])C([H])(n5nc(-c6c([H])c([H])c(Oc7c([H])c([H])c(F)c([H])c7F)c([H])c6[H])c(C(=O)N([H])[H])c5N([H])[H])C4([H])[H])C([H])([H])C([H])([H])[H])c([H])c3Cl)c([H])c([H])c2C1([H])[H]

>  <smiles>  (88) 
[H]c1c([H])c([H])c2c(c1[H])C([H])([H])C([H])([H])C([H])([H])C2([H])N([H])C(=O)C1([H])N(C(=O)C([H])(N([H])C(=O)C([H])(N([H])C([H])([H])[H])C([H])([H])[H])C(C([H])([H])[H])(C([H])([H])[H])C([H])([H])[H])C([H])([H])c2c([H])c(OC([H])([H])C([H])([H])C([H])([H])c3c(Cl)c([H])c(C([H])([H])C([H])([H])N(C(=O)N4C([H])([H])C([H])([H])C([H])([H])C([H])(n5nc(-c6c([H])c([H])c(Oc7c([H])c([H])c(F)c([H])c7F)c([H])c6[H])c(C(=O)N([H])[H])c5N([H])[H])C4([H])[H])C([H])([H])C([H])([H])[H])c([H])c3Cl)c([H])c([H])c2C1([H])[H]

$$$$
88:0:0
     RDKit          3D

 98106  0  0  1  0  0  0  0  0999 V2000
  -31.7210  -19.7540   18.6490 C   0  0  0  0  0  1  0  0  0  0  0  0
  -31.8210  -19.9630   20.1180 N   0  0  2  0  0  4  0  0  0  0  0  0
  -31.0520  -19.4480   20.5270 H   0  0  0  0  0  0  0  0  0  0  0  0
  -32.2180  -21.8500   21.8210 C   0  0  0  0  0  1  0  0  0  0  0  0
  -31.5760  -21.3980   20.4870 C   0  0  0  0  0  3  0  0  0  0  0  0
  -30.0500  -21.6670   20.5070 C   0  0  0  0  0  2  0  0  0  0  0  0
  -29.5580  -22.8550   19.6560 C   0  0  0  0  0  2  0  0  0  0  0  0
  -29.5870  -24.2480   20.3220 C   0  0  0  0  0  2  0  0  0  0  0  0
  -28.4660  -25.1340   19.7610 C   0  0  0  0  0  2  0  0  0  0  0  0
  -28.4930  -26.4690   20.2720 O   0  0  0  0  0  0  0  0  0  0  0  0
  -24.6060  -31.6800   23.1660 C   0  0  0  0  0  0  0  0  0  0  0  0
  -27.3160  -27.1920   20.2020 C   0  0  0  0  0  0  0  0  0  0  0  0
  -23.4410  -30.2650   21.5070 C   0  0  0  0  0  3  0  0  0  0  0  0
  -24.9250  -28.7110   20.1400 C   0  0  0  0  0  0  0  0  0  0  0  0
  -25.9740  -30.6070   21.3820 C   0  0  0  0  0  2  0  0  0  0  0  0
  -26.0690  -29.2300   20.7570 C   0  0  0  0  0  0  0  0  0  0  0  0
  -27.2640  -28.4760   20.7930 C   0  0  0  0  0  3  0  0  0  0  0  0
  -26.1500  -26.6970   19.5660 C   0  0  0  0  0  3  0  0  0  0  0  0
  -24.9600  -27.4420   19.5430 C   0  0  0  0  0  3  0  0  0  0  0  0
  -23.6870  -29.5750   20.1400 C   0  0  0  0  0  2  0  0  0  0  0  0
  -24.6910  -30.8650   22.0760 N   0  0  0  0  0  0  0  0  0  0  0  0
  -23.5100  -31.9640   23.6680 O   0  0  0  0  0  0  0  0  0  0  0  0
  -22.7600  -29.2530   22.4570 C   0  0  0  0  0  0  0  0  0  0  0  0
  -21.4380  -29.0810   22.2950 N   0  0  0  0  0  0  0  0  0  0  0  0
  -23.4180  -28.6290   23.2930 O   0  0  0  0  0  0  0  0  0  0  0  0
  -20.9710  -29.6360   21.5930 H   0  0  0  0  0  0  0  0  0  0  0  0
  -18.0330  -27.9650   22.7570 C   0  0  0  0  0  0  0  0  0  0  0  0
  -20.5930  -28.1580   23.0530 C   0  0  0  0  0  3  0  0  0  0  0  0
  -20.6670  -26.7290   22.4670 C   0  0  0  0  0  2  0  0  0  0  0  0
  -19.5650  -26.4400   21.4410 C   0  0  0  0  0  2  0  0  0  0  0  0
  -18.1820  -26.6150   22.0750 C   0  0  0  0  0  2  0  0  0  0  0  0
  -19.1660  -28.6960   23.2020 C   0  0  0  0  0  0  0  0  0  0  0  0
  -18.9740  -29.9620   23.7990 C   0  0  0  0  0  3  0  0  0  0  0  0
  -17.6810  -30.4950   23.9550 C   0  0  0  0  0  3  0  0  0  0  0  0
  -16.5610  -29.7600   23.5270 C   0  0  0  0  0  3  0  0  0  0  0  0
  -16.7380  -28.4970   22.9340 C   0  0  0  0  0  3  0  0  0  0  0  0
  -25.8770  -32.3110   23.8130 C   0  0  0  0  0  3  0  0  0  0  0  0
  -25.5540  -33.7030   24.1510 N   0  0  0  0  0  0  0  0  0  0  0  0
  -25.8850  -34.7630   23.4010 C   0  0  0  0  0  0  0  0  0  0  0  0
  -26.5680  -34.6730   22.3780 O   0  0  0  0  0  0  0  0  0  0  0  0
  -24.9510  -33.8480   24.9470 H   0  0  0  0  0  0  0  0  0  0  0  0
  -24.1480  -36.5440   23.0320 C   0  0  0  0  0  1  0  0  0  0  0  0
  -25.3790  -36.1440   23.8610 C   0  0  0  0  0  3  0  0  0  0  0  0
  -27.4930  -37.0380   24.7340 C   0  0  0  0  0  1  0  0  0  0  0  0
  -26.4050  -37.2050   23.7740 N   0  0  0  0  0  0  0  0  0  0  0  0
  -25.9910  -38.1220   23.9210 H   0  0  0  0  0  0  0  0  0  0  0  0
  -26.3780  -31.5280   25.0890 C   0  0  1  0  0  0  0  0  0  0  0  0
  -25.2670  -31.2600   26.1310 C   0  0  0  0  0  1  0  0  0  0  0  0
  -26.9890  -30.1660   24.6880 C   0  0  0  0  0  1  0  0  0  0  0  0
  -27.5030  -32.3290   25.7860 C   0  0  0  0  0  1  0  0  0  0  0  0
  -33.0180  -19.3080   20.7140 C   0  0  0  0  0  2  0  0  0  0  0  0
  -34.1190  -17.4980   19.3230 C   0  0  0  0  0  3  0  0  0  0  0  0
  -34.3380  -16.1510   18.9850 C   0  0  0  0  0  3  0  0  0  0  0  0
  -33.1820  -17.8390   20.3210 C   0  0  0  0  0  0  0  0  0  0  0  0
  -32.6520  -15.4520   20.6170 C   0  0  0  0  0  0  0  0  0  0  0  0
  -33.6250  -15.1290   19.6350 C   0  0  0  0  0  0  0  0  0  0  0  0
  -32.4410  -16.8130   20.9640 C   0  0  0  0  0  0  0  0  0  0  0  0
  -33.9640  -13.4890   19.1960 Cl  0  0  0  0  0  0  0  0  0  0  0  0
  -31.2680  -17.2360   22.1700 Cl  0  0  0  0  0  0  0  0  0  0  0  0
  -31.8530  -14.3390   21.3050 C   0  0  0  0  0  2  0  0  0  0  0  0
  -30.5180  -13.4590   19.3220 C   0  0  0  0  0  0  0  0  0  0  0  0
  -29.6300  -11.6330   17.9270 C   0  0  0  0  0  2  0  0  0  0  0  0
  -28.4630  -12.0390   17.0160 C   0  0  0  0  0  2  0  0  0  0  0  0
  -27.1260  -11.9220   17.7680 C   0  0  0  0  0  2  0  0  0  0  0  0
  -27.1560  -12.6390   19.1410 C   0  0  0  0  0  3  0  0  0  0  0  0
  -28.4060  -12.2360   19.9530 C   0  0  0  0  0  2  0  0  0  0  0  0
  -29.6080  -12.4730   19.1320 N   0  0  0  0  0  0  0  0  0  0  0  0
  -31.2640  -13.8670   18.4300 O   0  0  0  0  0  0  0  0  0  0  0  0
  -30.6780  -13.7930   20.6100 N   0  0  0  0  0  0  0  0  0  0  0  0
  -29.9800  -13.3970   21.2220 H   0  0  0  0  0  0  0  0  0  0  0  0
  -25.0000  -13.3040   20.3860 C   0  0  0  0  0  0  0  0  0  0  0  0
  -23.9990  -12.5570   20.9470 C   0  0  0  0  0  0  0  0  0  0  0  0
  -24.3700  -11.1910   20.7540 C   0  0  0  0  0  0  0  0  0  0  0  0
  -25.9240  -12.3960   19.8920 N   0  0  0  0  0  0  0  0  0  0  0  0
  -25.5580  -11.1160   20.1640 N   0  0  0  0  0  0  0  0  0  0  0  0
  -23.6380   -9.9510   21.0440 C   0  0  0  0  0  0  0  0  0  0  0  0
  -24.1740   -8.9580   21.8920 C   0  0  0  0  0  3  0  0  0  0  0  0
  -23.4420   -7.7830   22.1700 C   0  0  0  0  0  3  0  0  0  0  0  0
  -22.1600   -7.5940   21.6010 C   0  0  0  0  0  0  0  0  0  0  0  0
  -21.6410   -8.5770   20.7390 C   0  0  0  0  0  3  0  0  0  0  0  0
  -22.3730   -9.7430   20.4600 C   0  0  0  0  0  3  0  0  0  0  0  0
  -21.3890   -6.4730   21.7930 O   0  0  0  0  0  0  0  0  0  0  0  0
  -21.4540   -5.7440   22.9530 C   0  0  0  0  0  0  0  0  0  0  0  0
  -21.1810   -6.3220   24.2110 C   0  0  0  0  0  3  0  0  0  0  0  0
  -21.1930   -5.5200   25.3700 C   0  0  0  0  0  3  0  0  0  0  0  0
  -21.4650   -4.1430   25.2720 C   0  0  0  0  0  0  0  0  0  0  0  0
  -21.7330   -3.5650   24.0190 C   0  0  0  0  0  3  0  0  0  0  0  0
  -21.7230   -4.3640   22.8610 C   0  0  0  0  0  0  0  0  0  0  0  0
  -21.9610   -3.7980   21.6520 F   0  0  0  0  0  0  0  0  0  0  0  0
  -21.4690   -3.3700   26.3830 F   0  0  0  0  0  0  0  0  0  0  0  0
  -22.7220  -13.0780   21.5430 C   0  0  0  0  0  0  0  0  0  0  0  0
  -22.1760  -12.3750   22.5310 N   0  0  0  0  0  0  0  0  0  0  0  0
  -22.2260  -14.1380   21.1660 O   0  0  0  0  0  0  0  0  0  0  0  0
  -22.5930  -11.5120   22.8520 H   0  0  0  0  0  0  0  0  0  0  0  0
  -21.3280  -12.7040   22.9700 H   0  0  0  0  0  0  0  0  0  0  0  0
  -25.1950  -14.6740   20.2410 N   0  0  0  0  0  0  0  0  0  0  0  0
  -24.5120  -15.3560   20.5540 H   0  0  0  0  0  0  0  0  0  0  0  0
  -25.9910  -15.0940   19.7780 H   0  0  0  0  0  0  0  0  0  0  0  0
  1  2  1  0
  2  5  1  0
  2  3  1  1
  2 51  1  0
  5  6  1  0
  5  4  1  0
  7  8  1  0
  7  6  1  0
  9 10  1  0
  9  8  1  0
 11 22  2  0
 12 10  1  0
 12 17  1  0
 13 21  1  0
 13 23  1  0
 14 16  1  0
 15 21  1  0
 16 17  2  0
 16 15  1  0
 18 12  2  0
 19 18  1  0
 19 14  2  0
 20 14  1  0
 20 13  1  0
 21 11  1  0
 23 25  2  0
 24 23  1  0
 26 24  1  0
 27 36  2  0
 27 32  1  0
 28 24  1  0
 28 32  1  0
 29 28  1  0
 30 31  1  0
 30 29  1  0
 31 27  1  0
 32 33  2  0
 33 34  1  0
 35 34  2  0
 36 35  1  0
 37 11  1  0
 37 38  1  0
 37 47  1  0
 38 41  1  0
 39 43  1  0
 39 38  1  0
 40 39  2  0
 43 42  1  0
 45 43  1  0
 45 46  1  0
 45 44  1  0
 47 50  1  1
 47 48  1  0
 49 47  1  0
 52 54  1  0
 53 52  2  0
 53 56  1  0
 54 51  1  0
 54 57  2  0
 55 57  1  0
 55 60  1  0
 56 55  2  0
 57 59  1  0
 58 56  1  0
 61 69  1  0
 62 67  1  0
 63 64  1  0
 63 62  1  0
 65 64  1  0
 65 74  1  0
 65 66  1  0
 67 61  1  0
 67 66  1  0
 68 61  2  0
 69 70  1  0
 69 60  1  0
 71 72  2  0
 72 91  1  0
 73 72  1  0
 73 76  1  0
 74 75  1  0
 74 71  1  0
 75 73  2  0
 76 77  1  0
 77 78  2  0
 79 82  1  0
 79 78  1  0
 80 79  2  0
 81 80  1  0
 81 76  2  0
 82 83  1  0
 83 84  1  0
 84 85  2  0
 86 85  1  0
 86 90  1  0
 87 86  2  0
 88 83  2  0
 88 87  1  0
 89 88  1  0
 91 92  1  0
 92 94  1  0
 92 95  1  0
 93 91  2  0
 96 71  1  0
 96 97  1  0
 98 96  1  0
M  ISO  4   9 101  10 101  61 100  69 100
M  END
>  <TORSDO>  (89) 
F 24

>  <SCORE>  (89) 
-8.454

>  <name>  (89) 
88

>  <ligand_id>  (89) 
88

>  <original_smiles>  (89) 
[H]c1c([H])c([H])c2c(c1[H])C([H])([H])C([H])([H])C([H])([H])C2([H])N([H])C(=O)C1([H])N(C(=O)C([H])(N([H])C(=O)C([H])(N([H])C([H])([H])[H])C([H])([H])[H])C(C([H])([H])[H])(C([H])([H])[H])C([H])([H])[H])C([H])([H])c2c([H])c(OC([H])([H])C([H])([H])C([H])([H])C([H])([H])C([H])(C([H])([H])[H])[N+]([H])(C([H])([H])[H])C([H])([H])c3c([H])c([H])c(Cl)c(C([H])([H])N([H])C(=O)N4C([H])([H])C([H])([H])C([H])([H])C([H])(n5nc(-c6c([H])c([H])c(Oc7c([H])c([H])c(F)c([H])c7F)c([H])c6[H])c(C(=O)N([H])[H])c5N([H])[H])C4([H])[H])c3Cl)c([H])c([H])c2C1([H])[H]

>  <smiles>  (89) 
[H]c1c([H])c([H])c2c(c1[H])C([H])([H])C([H])([H])C([H])([H])C2([H])N([H])C(=O)C1([H])N(C(=O)C([H])(N([H])C(=O)C([H])(N([H])C([H])([H])[H])C([H])([H])[H])C(C([H])([H])[H])(C([H])([H])[H])C([H])([H])[H])C([H])([H])c2c([H])c(OC([H])([H])C([H])([H])C([H])([H])C([H])([H])C([H])(C([H])([H])[H])[N+]([H])(C([H])([H])[H])C([H])([H])c3c([H])c([H])c(Cl)c(C([H])([H])N([H])C(=O)N4C([H])([H])C([H])([H])C([H])([H])C([H])(n5nc(-c6c([H])c([H])c(Oc7c([H])c([H])c(F)c([H])c7F)c([H])c6[H])c(C(=O)N([H])[H])c5N([H])[H])C4([H])[H])c3Cl)c([H])c([H])c2C1([H])[H]

$$$$
89:0:0
     RDKit          3D

 93101  0  0  1  0  0  0  0  0999 V2000
  -28.5380  -22.2320   22.4310 C   0  0  0  0  0  1  0  0  0  0  0  0
  -27.0790  -22.0330   20.4920 C   0  0  0  0  0  1  0  0  0  0  0  0
  -28.5770  -22.1050   20.8900 C   0  0  2  0  0  0  0  0  0  0  0  0
  -28.5520  -19.6860   19.6810 C   0  0  0  0  0  3  0  0  0  0  0  0
  -30.6310  -18.5460   21.0930 C   0  0  0  0  0  3  0  0  0  0  0  0
  -28.8150  -18.2710   19.6020 C   0  0  0  0  0  0  0  0  0  0  0  0
  -29.2380  -20.6230   20.5230 C   0  0  0  0  0  0  0  0  0  0  0  0
  -29.8350  -17.6070   20.3600 C   0  0  0  0  0  0  0  0  0  0  0  0
  -30.3660  -19.9770   21.1620 C   0  0  0  0  0  0  0  0  0  0  0  0
  -27.9130  -17.4770   18.6730 C   0  0  0  0  0  1  0  0  0  0  0  0
  -31.4880  -20.9050   22.0940 Cl  0  0  0  0  0  0  0  0  0  0  0  0
  -30.7260  -15.0260   20.2750 C   0  0  0  0  0  0  0  0  0  0  0  0
  -30.6190  -12.7140   19.2770 C   0  0  0  0  0  2  0  0  0  0  0  0
  -29.6520  -12.7280   18.0690 C   0  0  0  0  0  2  0  0  0  0  0  0
  -28.1940  -12.5140   18.5220 C   0  0  0  0  0  2  0  0  0  0  0  0
  -27.8150  -13.3970   19.7410 C   0  0  0  0  0  3  0  0  0  0  0  0
  -28.8970  -13.3410   20.8430 C   0  0  0  0  0  2  0  0  0  0  0  0
  -30.1680  -13.7580   20.2300 N   0  0  0  0  0  0  0  0  0  0  0  0
  -31.9090  -15.1770   19.9490 O   0  0  0  0  0  0  0  0  0  0  0  0
  -29.8500  -16.0980   20.4990 N   0  0  0  0  0  0  0  0  0  0  0  0
  -28.9270  -15.7300   20.6650 H   0  0  0  0  0  0  0  0  0  0  0  0
  -25.4420  -13.9570   20.5350 C   0  0  0  0  0  0  0  0  0  0  0  0
  -24.3860  -13.1710   20.9030 C   0  0  0  0  0  0  0  0  0  0  0  0
  -24.8540  -11.8240   20.8260 C   0  0  0  0  0  0  0  0  0  0  0  0
  -26.4840  -13.0880   20.2520 N   0  0  0  0  0  0  0  0  0  0  0  0
  -26.1380  -11.7980   20.4910 N   0  0  0  0  0  0  0  0  0  0  0  0
  -24.1330  -10.5560   20.9980 C   0  0  0  0  0  0  0  0  0  0  0  0
  -24.5390   -9.6020   21.9560 C   0  0  0  0  0  3  0  0  0  0  0  0
  -23.8200   -8.3990   22.1160 C   0  0  0  0  0  3  0  0  0  0  0  0
  -22.6820   -8.1400   21.3150 C   0  0  0  0  0  0  0  0  0  0  0  0
  -22.2960   -9.0840   20.3470 C   0  0  0  0  0  3  0  0  0  0  0  0
  -23.0150  -10.2790   20.1850 C   0  0  0  0  0  3  0  0  0  0  0  0
  -21.9370   -6.9880   21.3840 O   0  0  0  0  0  0  0  0  0  0  0  0
  -21.7810   -6.3010   22.5600 C   0  0  0  0  0  0  0  0  0  0  0  0
  -21.1930   -6.8950   23.6990 C   0  0  0  0  0  3  0  0  0  0  0  0
  -20.9890   -6.1310   24.8640 C   0  0  0  0  0  3  0  0  0  0  0  0
  -21.3620   -4.7730   24.8920 C   0  0  0  0  0  0  0  0  0  0  0  0
  -21.9430   -4.1800   23.7580 C   0  0  0  0  0  3  0  0  0  0  0  0
  -22.1490   -4.9410   22.5950 C   0  0  0  0  0  0  0  0  0  0  0  0
  -22.6890   -4.3580   21.4980 F   0  0  0  0  0  0  0  0  0  0  0  0
  -21.1590   -4.0360   26.0100 F   0  0  0  0  0  0  0  0  0  0  0  0
  -22.9930  -13.6400   21.2120 C   0  0  0  0  0  0  0  0  0  0  0  0
  -22.2800  -12.9200   22.0710 N   0  0  0  0  0  0  0  0  0  0  0  0
  -22.5460  -14.6780   20.7270 O   0  0  0  0  0  0  0  0  0  0  0  0
  -22.6540  -12.0790   22.4850 H   0  0  0  0  0  0  0  0  0  0  0  0
  -21.3480  -13.2180   22.3200 H   0  0  0  0  0  0  0  0  0  0  0  0
  -25.5920  -15.3320   20.3970 N   0  0  0  0  0  0  0  0  0  0  0  0
  -24.8180  -15.9680   20.5450 H   0  0  0  0  0  0  0  0  0  0  0  0
  -26.4250  -15.7920   20.0600 H   0  0  0  0  0  0  0  0  0  0  0  0
  -29.6630  -23.4430   18.9090 C   0  0  0  0  0  1  0  0  0  0  0  0
  -29.1040  -23.5890   20.3310 C   0  0  0  0  0  3  0  0  0  0  0  0
  -28.0870  -24.9120   20.3950 C   0  0  0  0  0  2  0  0  0  0  0  0
  -28.3940  -26.4020   20.1870 O   0  0  0  0  0  0  0  0  0  0  0  0
  -24.7100  -31.9410   23.2740 C   0  0  0  0  0  0  0  0  0  0  0  0
  -27.3150  -27.3440   20.1560 C   0  0  0  0  0  0  0  0  0  0  0  0
  -23.5120  -30.5690   21.6150 C   0  0  0  0  0  3  0  0  0  0  0  0
  -24.9650  -29.0370   20.1610 C   0  0  0  0  0  0  0  0  0  0  0  0
  -26.0610  -30.8650   21.4470 C   0  0  0  0  0  2  0  0  0  0  0  0
  -26.1420  -29.4890   20.7730 C   0  0  0  0  0  0  0  0  0  0  0  0
  -27.3180  -28.6590   20.7560 C   0  0  0  0  0  3  0  0  0  0  0  0
  -26.1150  -26.9900   19.4960 C   0  0  0  0  0  3  0  0  0  0  0  0
  -24.9620  -27.7980   19.5080 C   0  0  0  0  0  3  0  0  0  0  0  0
  -23.7310  -29.9180   20.2240 C   0  0  0  0  0  2  0  0  0  0  0  0
  -24.7810  -31.1440   22.1680 N   0  0  0  0  0  0  0  0  0  0  0  0
  -23.6240  -32.2110   23.8100 O   0  0  0  0  0  0  0  0  0  0  0  0
  -22.8440  -29.5390   22.5580 C   0  0  0  0  0  0  0  0  0  0  0  0
  -21.5200  -29.3480   22.4160 N   0  0  0  0  0  0  0  0  0  0  0  0
  -23.5170  -28.9140   23.3810 O   0  0  0  0  0  0  0  0  0  0  0  0
  -21.0330  -29.9050   21.7260 H   0  0  0  0  0  0  0  0  0  0  0  0
  -18.1490  -28.1070   22.8780 C   0  0  0  0  0  0  0  0  0  0  0  0
  -20.7030  -28.3930   23.1680 C   0  0  0  0  0  3  0  0  0  0  0  0
  -20.8250  -26.9690   22.5790 C   0  0  0  0  0  2  0  0  0  0  0  0
  -19.7350  -26.6450   21.5530 C   0  0  0  0  0  2  0  0  0  0  0  0
  -18.3470  -26.7680   22.1880 C   0  0  0  0  0  2  0  0  0  0  0  0
  -19.2570  -28.8770   23.3250 C   0  0  0  0  0  0  0  0  0  0  0  0
  -19.0180  -30.1300   23.9310 C   0  0  0  0  0  3  0  0  0  0  0  0
  -17.7070  -30.6140   24.0930 C   0  0  0  0  0  3  0  0  0  0  0  0
  -16.6140  -29.8400   23.6640 C   0  0  0  0  0  3  0  0  0  0  0  0
  -16.8360  -28.5880   23.0630 C   0  0  0  0  0  3  0  0  0  0  0  0
  -25.9880  -32.5700   23.9080 C   0  0  0  0  0  3  0  0  0  0  0  0
  -26.4920  -31.7960   25.1870 C   0  0  1  0  0  0  0  0  0  0  0  0
  -25.3880  -31.5540   26.2430 C   0  0  0  0  0  1  0  0  0  0  0  0
  -27.0800  -30.4190   24.8000 C   0  0  0  0  0  1  0  0  0  0  0  0
  -27.6360  -32.5880   25.8620 C   0  0  0  0  0  1  0  0  0  0  0  0
  -25.6790  -33.9690   24.2440 N   0  0  0  0  0  0  0  0  0  0  0  0
  -25.9860  -35.0240   23.4790 C   0  0  0  0  0  0  0  0  0  0  0  0
  -26.6270  -34.9240   22.4300 O   0  0  0  0  0  0  0  0  0  0  0  0
  -25.1080  -34.1210   25.0620 H   0  0  0  0  0  0  0  0  0  0  0  0
  -24.2360  -36.8070   23.1800 C   0  0  0  0  0  1  0  0  0  0  0  0
  -25.5050  -36.4120   23.9500 C   0  0  0  0  0  3  0  0  0  0  0  0
  -27.6560  -37.3180   24.7150 C   0  0  0  0  0  1  0  0  0  0  0  0
  -26.5260  -37.4710   23.8000 N   0  0  0  0  0  0  0  0  0  0  0  0
  -26.1190  -38.3900   23.9530 H   0  0  0  0  0  0  0  0  0  0  0  0
  3  2  1  6
  3  1  1  0
  4  7  1  0
  5  9  1  0
  6  4  2  0
  6  8  1  0
  7  3  1  0
  7  9  2  0
  8 20  1  0
  8  5  2  0
  9 11  1  0
 10  6  1  0
 12 20  1  0
 13 18  1  0
 14 15  1  0
 14 13  1  0
 16 15  1  0
 16 25  1  0
 16 17  1  0
 18 12  1  0
 18 17  1  0
 19 12  2  0
 20 21  1  0
 22 23  2  0
 23 42  1  0
 24 23  1  0
 24 27  1  0
 25 26  1  0
 25 22  1  0
 26 24  2  0
 27 28  1  0
 28 29  2  0
 30 33  1  0
 30 29  1  0
 31 30  2  0
 32 31  1  0
 32 27  2  0
 33 34  1  0
 34 39  2  0
 34 35  1  0
 35 36  2  0
 36 37  1  0
 37 41  1  0
 38 37  2  0
 39 38  1  0
 40 39  1  0
 42 43  1  0
 43 46  1  0
 43 45  1  0
 44 42  2  0
 47 22  1  0
 47 48  1  0
 49 47  1  0
 51 50  1  0
 51 52  1  0
 51  3  1  0
 53 52  1  0
 54 65  2  0
 55 53  1  0
 55 60  1  0
 56 64  1  0
 56 66  1  0
 57 63  1  0
 57 59  1  0
 58 64  1  0
 59 58  1  0
 60 59  2  0
 61 62  1  0
 61 55  2  0
 62 57  2  0
 63 56  1  0
 64 54  1  0
 66 68  2  0
 67 66  1  0
 69 67  1  0
 70 79  2  0
 70 75  1  0
 71 67  1  0
 71 75  1  0
 72 71  1  0
 73 74  1  0
 73 72  1  0
 74 70  1  0
 75 76  2  0
 76 77  1  0
 78 77  2  0
 79 78  1  0
 80 54  1  0
 80 85  1  0
 80 81  1  0
 81 84  1  1
 81 82  1  0
 83 81  1  0
 85 88  1  0
 86 90  1  0
 86 85  1  0
 87 86  2  0
 90 89  1  0
 92 90  1  0
 92 93  1  0
 92 91  1  0
M  ISO  4  12 100  20 100  52 101  53 101
M  END
>  <TORSDO>  (90) 
F 19

>  <SCORE>  (90) 
-14.271

>  <name>  (90) 
89

>  <ligand_id>  (90) 
89

>  <original_smiles>  (90) 
[H]c1c([H])c([H])c2c(c1[H])C([H])([H])C([H])([H])C([H])([H])C2([H])N([H])C(=O)C1([H])N(C(=O)C([H])(N([H])C(=O)C([H])(N([H])C([H])([H])[H])C([H])([H])[H])C(C([H])([H])[H])(C([H])([H])[H])C([H])([H])[H])C([H])([H])c2c([H])c(OC([H])([H])C([H])(C([H])([H])[H])C(c3c([H])c(C([H])([H])[H])c(N([H])C(=O)N4C([H])([H])C([H])([H])C([H])([H])C([H])(n5nc(-c6c([H])c([H])c(Oc7c([H])c([H])c(F)c([H])c7F)c([H])c6[H])c(C(=O)N([H])[H])c5N([H])[H])C4([H])[H])c([H])c3Cl)(C([H])([H])[H])C([H])([H])[H])c([H])c([H])c2C1([H])[H]

>  <smiles>  (90) 
[H]c1c([H])c([H])c2c(c1[H])C([H])([H])C([H])([H])C([H])([H])C2([H])N([H])C(=O)C1([H])N(C(=O)C([H])(N([H])C(=O)C([H])(N([H])C([H])([H])[H])C([H])([H])[H])C(C([H])([H])[H])(C([H])([H])[H])C([H])([H])[H])C([H])([H])c2c([H])c(OC([H])([H])C([H])(C([H])([H])[H])C(c3c([H])c(C([H])([H])[H])c(N([H])C(=O)N4C([H])([H])C([H])([H])C([H])([H])C([H])(n5nc(-c6c([H])c([H])c(Oc7c([H])c([H])c(F)c([H])c7F)c([H])c6[H])c(C(=O)N([H])[H])c5N([H])[H])C4([H])[H])c([H])c3Cl)(C([H])([H])[H])C([H])([H])[H])c([H])c([H])c2C1([H])[H]

$$$$
90:0:0
     RDKit          3D

105113  0  0  1  0  0  0  0  0999 V2000
  -29.9440  -20.2740   26.5880 C   0  0  0  0  0  3  0  0  0  0  0  0
  -27.1560  -20.7410   26.5440 C   0  0  0  0  0  0  0  0  0  0  0  0
  -29.4540  -21.5880   26.7710 C   0  0  0  0  0  0  0  0  0  0  0  0
  -29.0580  -19.1970   26.3610 C   0  0  0  0  0  0  0  0  0  0  0  0
  -28.0560  -21.8170   26.7440 C   0  0  0  0  0  0  0  0  0  0  0  0
  -27.6640  -19.4340   26.3490 C   0  0  0  0  0  0  0  0  0  0  0  0
  -25.6500  -20.9700   26.5120 C   0  0  0  0  0  1  0  0  0  0  0  0
  -27.4680  -23.4380   26.9430 Cl  0  0  0  0  0  0  0  0  0  0  0  0
  -26.5820  -18.1080   26.0620 Cl  0  0  0  0  0  0  0  0  0  0  0  0
  -29.5290  -17.8940   26.1320 N   0  0  0  0  0  0  0  0  0  0  0  0
  -28.7740  -17.2310   25.9670 H   0  0  0  0  0  0  0  0  0  0  0  0
  -30.6550  -17.7790   25.2150 C   0  0  0  0  0  2  0  0  0  0  0  0
  -30.7140  -16.3980   24.5510 C   0  0  0  0  0  2  0  0  0  0  0  0
  -31.8180  -16.3470   23.4850 C   0  0  0  0  0  2  0  0  0  0  0  0
  -32.0360  -14.9610   22.8660 C   0  0  0  0  0  2  0  0  0  0  0  0
  -30.8720  -14.2300   20.7940 C   0  0  0  0  0  0  0  0  0  0  0  0
  -30.4030  -12.2900   19.3630 C   0  0  0  0  0  2  0  0  0  0  0  0
  -29.4620  -12.5420   18.1780 C   0  0  0  0  0  2  0  0  0  0  0  0
  -27.9970  -12.3820   18.6100 C   0  0  0  0  0  2  0  0  0  0  0  0
  -27.6640  -13.2090   19.8780 C   0  0  0  0  0  3  0  0  0  0  0  0
  -28.7040  -12.9770   20.9960 C   0  0  0  0  0  2  0  0  0  0  0  0
  -30.0580  -13.2060   20.4570 N   0  0  0  0  0  0  0  0  0  0  0  0
  -31.7400  -14.6930   20.0460 O   0  0  0  0  0  0  0  0  0  0  0  0
  -30.8820  -14.4670   22.1120 N   0  0  0  0  0  0  0  0  0  0  0  0
  -30.1620  -13.9960   22.6410 H   0  0  0  0  0  0  0  0  0  0  0  0
  -25.2580  -13.8180   20.5700 C   0  0  0  0  0  0  0  0  0  0  0  0
  -24.1830  -13.0450   20.9180 C   0  0  0  0  0  0  0  0  0  0  0  0
  -24.6390  -11.6930   20.8740 C   0  0  0  0  0  0  0  0  0  0  0  0
  -26.3040  -12.9360   20.3410 N   0  0  0  0  0  0  0  0  0  0  0  0
  -25.9310  -11.6520   20.5760 N   0  0  0  0  0  0  0  0  0  0  0  0
  -23.9070  -10.4310   21.0410 C   0  0  0  0  0  0  0  0  0  0  0  0
  -24.3620   -9.4210   21.9180 C   0  0  0  0  0  3  0  0  0  0  0  0
  -23.6300   -8.2240   22.0750 C   0  0  0  0  0  3  0  0  0  0  0  0
  -22.4270   -8.0280   21.3560 C   0  0  0  0  0  0  0  0  0  0  0  0
  -21.9910   -9.0260   20.4650 C   0  0  0  0  0  3  0  0  0  0  0  0
  -22.7250  -10.2140   20.3050 C   0  0  0  0  0  3  0  0  0  0  0  0
  -21.6650   -6.8870   21.4240 O   0  0  0  0  0  0  0  0  0  0  0  0
  -21.6840   -6.0730   22.5290 C   0  0  0  0  0  0  0  0  0  0  0  0
  -21.4010   -6.5640   23.8220 C   0  0  0  0  0  3  0  0  0  0  0  0
  -21.3660   -5.6790   24.9180 C   0  0  0  0  0  3  0  0  0  0  0  0
  -21.6050   -4.3050   24.7230 C   0  0  0  0  0  0  0  0  0  0  0  0
  -21.8820   -3.8140   23.4350 C   0  0  0  0  0  3  0  0  0  0  0  0
  -21.9200   -4.6960   22.3400 C   0  0  0  0  0  0  0  0  0  0  0  0
  -22.1660   -4.2150   21.0980 F   0  0  0  0  0  0  0  0  0  0  0  0
  -21.5640   -3.4540   25.7740 F   0  0  0  0  0  0  0  0  0  0  0  0
  -22.7850  -13.5240   21.1840 C   0  0  0  0  0  0  0  0  0  0  0  0
  -22.0480  -12.8230   22.0390 N   0  0  0  0  0  0  0  0  0  0  0  0
  -22.3550  -14.5560   20.6700 O   0  0  0  0  0  0  0  0  0  0  0  0
  -22.4110  -11.9900   22.4790 H   0  0  0  0  0  0  0  0  0  0  0  0
  -21.1100  -13.1240   22.2610 H   0  0  0  0  0  0  0  0  0  0  0  0
  -25.4280  -15.1900   20.4120 N   0  0  0  0  0  0  0  0  0  0  0  0
  -24.6650  -15.8470   20.5300 H   0  0  0  0  0  0  0  0  0  0  0  0
  -26.2910  -15.6320   20.1180 H   0  0  0  0  0  0  0  0  0  0  0  0
  -30.3040  -22.6920   26.9650 N   0  0  0  0  0  0  0  0  0  0  0  0
  -29.8760  -23.6050   27.0930 H   0  0  0  0  0  0  0  0  0  0  0  0
  -31.7570  -22.5840   26.9870 C   0  0  0  0  0  2  0  0  0  0  0  0
  -32.4230  -23.9440   26.7320 C   0  0  0  0  0  2  0  0  0  0  0  0
  -32.2660  -24.4230   25.2770 C   0  0  0  0  0  2  0  0  0  0  0  0
  -33.0840  -25.6910   24.9780 C   0  0  0  0  0  2  0  0  0  0  0  0
  -33.0810  -26.0850   23.4920 C   0  0  0  0  0  2  0  0  0  0  0  0
  -31.7510  -26.6830   23.0000 C   0  0  0  0  0  2  0  0  0  0  0  0
  -31.7950  -27.0150   21.4970 C   0  0  0  0  0  2  0  0  0  0  0  0
  -30.4860  -27.5880   20.9200 C   0  0  0  0  0  2  0  0  0  0  0  0
  -29.2680  -26.6690   21.1210 C   0  0  0  0  0  2  0  0  0  0  0  0
  -28.3830  -26.7050   20.0060 O   0  0  0  0  0  0  0  0  0  0  0  0
  -24.6110  -31.8720   23.2140 C   0  0  0  0  0  0  0  0  0  0  0  0
  -27.2480  -27.4740   20.0940 C   0  0  0  0  0  0  0  0  0  0  0  0
  -23.3990  -30.4930   21.5540 C   0  0  0  0  0  3  0  0  0  0  0  0
  -24.8480  -28.9620   20.1220 C   0  0  0  0  0  0  0  0  0  0  0  0
  -25.9220  -30.8460   21.3630 C   0  0  0  0  0  2  0  0  0  0  0  0
  -26.0030  -29.4790   20.7220 C   0  0  0  0  0  0  0  0  0  0  0  0
  -27.2030  -28.7390   20.7200 C   0  0  0  0  0  3  0  0  0  0  0  0
  -26.0820  -26.9680   19.4850 C   0  0  0  0  0  3  0  0  0  0  0  0
  -24.8780  -27.6980   19.5060 C   0  0  0  0  0  3  0  0  0  0  0  0
  -23.6060  -29.8230   20.1700 C   0  0  0  0  0  2  0  0  0  0  0  0
  -24.6620  -31.0850   22.1030 N   0  0  0  0  0  0  0  0  0  0  0  0
  -23.5310  -32.1470   23.7540 O   0  0  0  0  0  0  0  0  0  0  0  0
  -22.7390  -29.4660   22.5030 C   0  0  0  0  0  0  0  0  0  0  0  0
  -21.4130  -29.3020   22.3750 N   0  0  0  0  0  0  0  0  0  0  0  0
  -23.4170  -28.8220   23.3080 O   0  0  0  0  0  0  0  0  0  0  0  0
  -20.9280  -29.8720   21.6950 H   0  0  0  0  0  0  0  0  0  0  0  0
  -18.0270  -28.1400   22.8510 C   0  0  0  0  0  0  0  0  0  0  0  0
  -20.5860  -28.3660   23.1350 C   0  0  0  0  0  3  0  0  0  0  0  0
  -20.6760  -26.9400   22.5430 C   0  0  0  0  0  2  0  0  0  0  0  0
  -19.5730  -26.6400   21.5220 C   0  0  0  0  0  2  0  0  0  0  0  0
  -18.1910  -26.7960   22.1630 C   0  0  0  0  0  2  0  0  0  0  0  0
  -19.1520  -28.8850   23.2940 C   0  0  0  0  0  0  0  0  0  0  0  0
  -18.9450  -30.1460   23.8940 C   0  0  0  0  0  3  0  0  0  0  0  0
  -17.6450  -30.6590   24.0590 C   0  0  0  0  0  3  0  0  0  0  0  0
  -16.5340  -29.9100   23.6340 C   0  0  0  0  0  3  0  0  0  0  0  0
  -16.7270  -28.6530   23.0340 C   0  0  0  0  0  3  0  0  0  0  0  0
  -25.9010  -32.4850   23.8430 C   0  0  0  0  0  3  0  0  0  0  0  0
  -25.5860  -33.8650   24.2330 N   0  0  0  0  0  0  0  0  0  0  0  0
  -25.9030  -34.9490   23.5130 C   0  0  0  0  0  0  0  0  0  0  0  0
  -26.5620  -34.8920   22.4710 O   0  0  0  0  0  0  0  0  0  0  0  0
  -24.9940  -33.9830   25.0420 H   0  0  0  0  0  0  0  0  0  0  0  0
  -24.1470  -36.7320   23.2640 C   0  0  0  0  0  1  0  0  0  0  0  0
  -25.4090  -36.3110   24.0330 C   0  0  0  0  0  3  0  0  0  0  0  0
  -27.5580  -37.1780   24.8440 C   0  0  0  0  0  1  0  0  0  0  0  0
  -26.4260  -37.3810   23.9440 N   0  0  0  0  0  0  0  0  0  0  0  0
  -26.0120  -38.2870   24.1520 H   0  0  0  0  0  0  0  0  0  0  0  0
  -26.4450  -31.6640   25.0750 C   0  0  1  0  0  0  0  0  0  0  0  0
  -25.3730  -31.3720   26.1510 C   0  0  0  0  0  1  0  0  0  0  0  0
  -27.0290  -30.3100   24.6110 C   0  0  0  0  0  1  0  0  0  0  0  0
  -27.6070  -32.4350   25.7460 C   0  0  0  0  0  1  0  0  0  0  0  0
  1  3  1  0
  2  5  1  0
  3 54  1  0
  4  1  2  0
  5  3  2  0
  5  8  1  0
  6  4  1  0
  6  2  2  0
  7  2  1  0
  9  6  1  0
 10  4  1  0
 11 10  1  0
 12 10  1  0
 13 12  1  0
 14 13  1  0
 15 14  1  0
 16 24  1  0
 17 22  1  0
 18 19  1  0
 18 17  1  0
 20 19  1  0
 20 29  1  0
 20 21  1  0
 22 16  1  0
 22 21  1  0
 23 16  2  0
 24 25  1  0
 24 15  1  0
 26 27  2  0
 27 46  1  0
 28 27  1  0
 28 31  1  0
 29 26  1  0
 29 30  1  0
 30 28  2  0
 31 32  1  0
 32 33  2  0
 34 37  1  0
 34 33  1  0
 35 34  2  0
 36 35  1  0
 36 31  2  0
 37 38  1  0
 38 39  1  0
 39 40  2  0
 41 40  1  0
 41 45  1  0
 42 41  2  0
 43 38  2  0
 43 42  1  0
 44 43  1  0
 46 47  1  0
 47 50  1  0
 47 49  1  0
 48 46  2  0
 51 52  1  0
 51 26  1  0
 53 51  1  0
 54 56  1  0
 54 55  1  0
 57 56  1  0
 58 57  1  0
 59 58  1  0
 60 59  1  0
 61 60  1  0
 62 61  1  0
 63 64  1  0
 63 62  1  0
 65 67  1  0
 65 64  1  0
 66 77  2  0
 67 72  1  0
 68 76  1  0
 68 78  1  0
 69 75  1  0
 69 71  1  0
 70 76  1  0
 71 70  1  0
 72 71  2  0
 73 74  1  0
 73 67  2  0
 74 69  2  0
 75 68  1  0
 76 66  1  0
 78 80  2  0
 79 78  1  0
 81 79  1  0
 82 91  2  0
 82 87  1  0
 83 79  1  0
 83 87  1  0
 84 83  1  0
 85 86  1  0
 85 84  1  0
 86 82  1  0
 87 88  2  0
 88 89  1  0
 90 89  2  0
 91 90  1  0
 92 66  1  0
 92 93  1  0
 92102  1  0
 93 96  1  0
 94 98  1  0
 94 93  1  0
 95 94  2  0
 98 97  1  0
100 98  1  0
100101  1  0
100 99  1  0
102105  1  1
102103  1  0
104102  1  0
M  ISO  4  16 100  24 100  64 101  65 101
M  END
>  <TORSDO>  (91) 
F 31

>  <SCORE>  (91) 
56.274

>  <name>  (91) 
90

>  <ligand_id>  (91) 
90

>  <original_smiles>  (91) 
[H]c1c([H])c([H])c2c(c1[H])C([H])([H])C([H])([H])C([H])([H])C2([H])N([H])C(=O)C1([H])N(C(=O)C([H])(N([H])C(=O)C([H])(N([H])C([H])([H])[H])C([H])([H])[H])C(C([H])([H])[H])(C([H])([H])[H])C([H])([H])[H])C([H])([H])c2c([H])c(OC([H])([H])C([H])([H])C([H])([H])C([H])([H])C([H])([H])C([H])([H])C([H])([H])C([H])([H])C([H])([H])N([H])c3c([H])c(N([H])C([H])([H])C([H])([H])C([H])([H])C([H])([H])N([H])C(=O)N4C([H])([H])C([H])([H])C([H])([H])C([H])(n5nc(-c6c([H])c([H])c(Oc7c([H])c([H])c(F)c([H])c7F)c([H])c6[H])c(C(=O)N([H])[H])c5N([H])[H])C4([H])[H])c(Cl)c(C([H])([H])[H])c3Cl)c([H])c([H])c2C1([H])[H]

>  <smiles>  (91) 
[H]c1c([H])c([H])c2c(c1[H])C([H])([H])C([H])([H])C([H])([H])C2([H])N([H])C(=O)C1([H])N(C(=O)C([H])(N([H])C(=O)C([H])(N([H])C([H])([H])[H])C([H])([H])[H])C(C([H])([H])[H])(C([H])([H])[H])C([H])([H])[H])C([H])([H])c2c([H])c(OC([H])([H])C([H])([H])C([H])([H])C([H])([H])C([H])([H])C([H])([H])C([H])([H])C([H])([H])C([H])([H])N([H])c3c([H])c(N([H])C([H])([H])C([H])([H])C([H])([H])C([H])([H])N([H])C(=O)N4C([H])([H])C([H])([H])C([H])([H])C([H])(n5nc(-c6c([H])c([H])c(Oc7c([H])c([H])c(F)c([H])c7F)c([H])c6[H])c(C(=O)N([H])[H])c5N([H])[H])C4([H])[H])c(Cl)c(C([H])([H])[H])c3Cl)c([H])c([H])c2C1([H])[H]

$$$$
91:0:0
     RDKit          3D

 94102  0  0  1  0  0  0  0  0999 V2000
  -28.9910  -20.4660   20.4200 C   0  0  0  0  0  0  0  0  0  0  0  0
  -30.1070  -19.8750   21.1150 C   0  0  0  0  0  0  0  0  0  0  0  0
  -28.2490  -19.4780   19.6830 C   0  0  0  0  0  0  0  0  0  0  0  0
  -29.6100  -17.4670   20.4280 C   0  0  0  0  0  0  0  0  0  0  0  0
  -30.4040  -18.4420   21.1150 C   0  0  0  0  0  0  0  0  0  0  0  0
  -28.5350  -18.0610   19.7060 C   0  0  0  0  0  0  0  0  0  0  0  0
  -30.9780  -20.7920   21.9580 C   0  0  0  0  0  1  0  0  0  0  0  0
  -31.4310  -17.9920   21.8760 F   0  0  0  0  0  0  0  0  0  0  0  0
  -27.6850  -17.2270   19.0510 F   0  0  0  0  0  0  0  0  0  0  0  0
  -30.5020  -14.9000   20.3330 C   0  0  0  0  0  0  0  0  0  0  0  0
  -30.3830  -12.5880   19.3300 C   0  0  0  0  0  2  0  0  0  0  0  0
  -29.4180  -12.6110   18.1210 C   0  0  0  0  0  2  0  0  0  0  0  0
  -27.9560  -12.4100   18.5740 C   0  0  0  0  0  2  0  0  0  0  0  0
  -27.5860  -13.3000   19.7890 C   0  0  0  0  0  3  0  0  0  0  0  0
  -28.6630  -13.2290   20.8930 C   0  0  0  0  0  2  0  0  0  0  0  0
  -29.9400  -13.6340   20.2860 N   0  0  0  0  0  0  0  0  0  0  0  0
  -31.6770  -15.0490   19.9820 O   0  0  0  0  0  0  0  0  0  0  0  0
  -29.6390  -15.9650   20.6100 N   0  0  0  0  0  0  0  0  0  0  0  0
  -28.7160  -15.6030   20.7840 H   0  0  0  0  0  0  0  0  0  0  0  0
  -25.2170  -13.8840   20.5750 C   0  0  0  0  0  0  0  0  0  0  0  0
  -24.1560  -13.1060   20.9530 C   0  0  0  0  0  0  0  0  0  0  0  0
  -24.6120  -11.7540   20.8850 C   0  0  0  0  0  0  0  0  0  0  0  0
  -26.2510  -13.0040   20.2990 N   0  0  0  0  0  0  0  0  0  0  0  0
  -25.8970  -11.7180   20.5490 N   0  0  0  0  0  0  0  0  0  0  0  0
  -23.8840  -10.4900   21.0620 C   0  0  0  0  0  0  0  0  0  0  0  0
  -24.3120   -9.5150   21.9900 C   0  0  0  0  0  3  0  0  0  0  0  0
  -23.5840   -8.3170   22.1560 C   0  0  0  0  0  3  0  0  0  0  0  0
  -22.4140   -8.0870   21.3950 C   0  0  0  0  0  0  0  0  0  0  0  0
  -22.0040   -9.0510   20.4570 C   0  0  0  0  0  3  0  0  0  0  0  0
  -22.7330  -10.2400   20.2880 C   0  0  0  0  0  3  0  0  0  0  0  0
  -21.6570   -6.9420   21.4710 O   0  0  0  0  0  0  0  0  0  0  0  0
  -21.5780   -6.2070   22.6260 C   0  0  0  0  0  0  0  0  0  0  0  0
  -21.0870   -6.7590   23.8290 C   0  0  0  0  0  3  0  0  0  0  0  0
  -20.9570   -5.9500   24.9750 C   0  0  0  0  0  3  0  0  0  0  0  0
  -21.3080   -4.5880   24.9190 C   0  0  0  0  0  0  0  0  0  0  0  0
  -21.7930   -4.0340   23.7210 C   0  0  0  0  0  3  0  0  0  0  0  0
  -21.9250   -4.8410   22.5770 C   0  0  0  0  0  0  0  0  0  0  0  0
  -22.3720   -4.2970   21.4200 F   0  0  0  0  0  0  0  0  0  0  0  0
  -21.1760   -3.8080   26.0170 F   0  0  0  0  0  0  0  0  0  0  0  0
  -22.7660  -13.5830   21.2590 C   0  0  0  0  0  0  0  0  0  0  0  0
  -22.0470  -12.8660   22.1150 N   0  0  0  0  0  0  0  0  0  0  0  0
  -22.3260  -14.6250   20.7750 O   0  0  0  0  0  0  0  0  0  0  0  0
  -22.4140  -12.0230   22.5290 H   0  0  0  0  0  0  0  0  0  0  0  0
  -21.1150  -13.1680   22.3620 H   0  0  0  0  0  0  0  0  0  0  0  0
  -25.3810  -15.2570   20.4180 N   0  0  0  0  0  0  0  0  0  0  0  0
  -24.6050  -15.8980   20.5380 H   0  0  0  0  0  0  0  0  0  0  0  0
  -26.1870  -15.6940   19.9880 H   0  0  0  0  0  0  0  0  0  0  0  0
  -27.1310  -19.8650   18.9420 N   0  0  0  0  0  0  0  0  0  0  0  0
  -26.6510  -20.7190   19.1970 H   0  0  0  0  0  0  0  0  0  0  0  0
  -26.4970  -19.1200   18.6700 H   0  0  0  0  0  0  0  0  0  0  0  0
  -28.3980  -21.9830   20.6640 C   0  0  0  0  0  2  0  0  0  0  0  0
  -28.9970  -23.4840   20.3060 C   0  0  0  0  0  3  0  0  0  0  0  0
  -27.9620  -24.7840   20.3130 C   0  0  0  0  0  3  0  0  0  0  0  0
  -28.2760  -26.2900   20.2530 O   0  0  0  0  0  0  0  0  0  0  0  0
  -24.6260  -31.9190   23.2380 C   0  0  0  0  0  0  0  0  0  0  0  0
  -27.2030  -27.2420   20.2030 C   0  0  0  0  0  0  0  0  0  0  0  0
  -23.4230  -30.5250   21.6000 C   0  0  0  0  0  3  0  0  0  0  0  0
  -24.8680  -28.9570   20.1780 C   0  0  0  0  0  0  0  0  0  0  0  0
  -25.9750  -30.7990   21.4310 C   0  0  0  0  0  2  0  0  0  0  0  0
  -26.0470  -29.4110   20.7810 C   0  0  0  0  0  0  0  0  0  0  0  0
  -27.2170  -28.5700   20.7770 C   0  0  0  0  0  3  0  0  0  0  0  0
  -25.9950  -26.8820   19.5620 C   0  0  0  0  0  3  0  0  0  0  0  0
  -24.8510  -27.7040   19.5550 C   0  0  0  0  0  3  0  0  0  0  0  0
  -23.6400  -29.8490   20.2220 C   0  0  0  0  0  2  0  0  0  0  0  0
  -24.6940  -31.1010   22.1450 N   0  0  0  0  0  0  0  0  0  0  0  0
  -23.5410  -32.2050   23.7660 O   0  0  0  0  0  0  0  0  0  0  0  0
  -22.7460  -29.5160   22.5620 C   0  0  0  0  0  0  0  0  0  0  0  0
  -21.4180  -29.3430   22.4310 N   0  0  0  0  0  0  0  0  0  0  0  0
  -23.4160  -28.8910   23.3870 O   0  0  0  0  0  0  0  0  0  0  0  0
  -20.9350  -29.8980   21.7390 H   0  0  0  0  0  0  0  0  0  0  0  0
  -18.0330  -28.1610   22.9380 C   0  0  0  0  0  0  0  0  0  0  0  0
  -20.5930  -28.4090   23.2020 C   0  0  0  0  0  3  0  0  0  0  0  0
  -20.6870  -26.9770   22.6260 C   0  0  0  0  0  2  0  0  0  0  0  0
  -19.5810  -26.6610   21.6140 C   0  0  0  0  0  2  0  0  0  0  0  0
  -18.2010  -26.8120   22.2600 C   0  0  0  0  0  2  0  0  0  0  0  0
  -19.1560  -28.9180   23.3660 C   0  0  0  0  0  0  0  0  0  0  0  0
  -18.9440  -30.1810   23.9620 C   0  0  0  0  0  3  0  0  0  0  0  0
  -17.6410  -30.6870   24.1320 C   0  0  0  0  0  3  0  0  0  0  0  0
  -16.5320  -29.9270   23.7190 C   0  0  0  0  0  3  0  0  0  0  0  0
  -16.7300  -28.6660   23.1280 C   0  0  0  0  0  3  0  0  0  0  0  0
  -25.9080  -32.5500   23.8630 C   0  0  0  0  0  3  0  0  0  0  0  0
  -26.4110  -31.7850   25.1490 C   0  0  1  0  0  0  0  0  0  0  0  0
  -25.3090  -31.5580   26.2100 C   0  0  0  0  0  1  0  0  0  0  0  0
  -26.9940  -30.4040   24.7730 C   0  0  0  0  0  1  0  0  0  0  0  0
  -27.5590  -32.5820   25.8140 C   0  0  0  0  0  1  0  0  0  0  0  0
  -25.6010  -33.9520   24.1860 N   0  0  0  0  0  0  0  0  0  0  0  0
  -25.9290  -35.0010   23.4210 C   0  0  0  0  0  0  0  0  0  0  0  0
  -26.5890  -34.8910   22.3840 O   0  0  0  0  0  0  0  0  0  0  0  0
  -25.0130  -34.1130   24.9920 H   0  0  0  0  0  0  0  0  0  0  0  0
  -24.2100  -36.8060   23.0680 C   0  0  0  0  0  1  0  0  0  0  0  0
  -25.4510  -36.3950   23.8760 C   0  0  0  0  0  3  0  0  0  0  0  0
  -27.5880  -37.2750   24.7050 C   0  0  0  0  0  1  0  0  0  0  0  0
  -26.4890  -37.4420   23.7580 N   0  0  0  0  0  0  0  0  0  0  0  0
  -26.0870  -38.3650   23.8980 H   0  0  0  0  0  0  0  0  0  0  0  0
  1 51  1  0
  1  2  1  0
  2  5  2  0
  2  7  1  0
  3  6  1  0
  3  1  2  0
  4 18  1  0
  4  5  1  0
  5  8  1  0
  6  4  2  0
  9  6  1  0
 10 18  1  0
 11 16  1  0
 12 13  1  0
 12 11  1  0
 14 13  1  0
 14 23  1  0
 14 15  1  0
 16 10  1  0
 16 15  1  0
 17 10  2  0
 18 19  1  0
 20 21  2  0
 21 40  1  0
 22 21  1  0
 22 25  1  0
 23 24  1  0
 23 20  1  0
 24 22  2  0
 25 26  1  0
 26 27  2  0
 28 31  1  0
 28 27  1  0
 29 28  2  0
 30 29  1  0
 30 25  2  0
 31 32  1  0
 32 33  1  0
 33 34  2  0
 35 34  1  0
 35 39  1  0
 36 35  2  0
 37 32  2  0
 37 36  1  0
 38 37  1  0
 40 41  1  0
 41 44  1  0
 41 43  1  0
 42 40  2  0
 45 46  1  0
 45 20  1  0
 47 45  1  0
 48 49  1  0
 48  3  1  0
 50 48  1  0
 52 53  2  0
 52 51  1  0
 54 53  1  0
 55 66  2  0
 56 54  1  0
 56 61  1  0
 57 65  1  0
 57 67  1  0
 58 64  1  0
 58 60  1  0
 59 65  1  0
 60 59  1  0
 61 60  2  0
 62 56  2  0
 63 62  1  0
 63 58  2  0
 64 57  1  0
 65 55  1  0
 67 69  2  0
 68 67  1  0
 70 68  1  0
 71 80  2  0
 71 76  1  0
 72 68  1  0
 72 76  1  0
 73 72  1  0
 74 75  1  0
 74 73  1  0
 75 71  1  0
 76 77  2  0
 77 78  1  0
 79 78  2  0
 80 79  1  0
 81 55  1  0
 81 86  1  0
 81 82  1  0
 82 85  1  1
 82 83  1  0
 84 82  1  0
 86 89  1  0
 87 91  1  0
 87 86  1  0
 88 87  2  0
 91 90  1  0
 93 91  1  0
 93 94  1  0
 93 92  1  0
M  ISO  4  10 100  18 100  53 101  54 101
M  END
>  <TORSDO>  (92) 
F 20

>  <SCORE>  (92) 
-14.675

>  <name>  (92) 
91

>  <ligand_id>  (92) 
91

>  <original_smiles>  (92) 
[H]c1c([H])c([H])c2c(c1[H])C([H])([H])C([H])([H])C([H])([H])C2([H])N([H])C(=O)C1([H])N(C(=O)C([H])(N([H])C(=O)C([H])(N([H])C([H])([H])[H])C([H])([H])[H])C(C([H])([H])[H])(C([H])([H])[H])C([H])([H])[H])C([H])([H])c2c([H])c(OC([H])([H])C([H])([H])C([H])([H])c3c(N([H])[H])c(F)c(N([H])C(=O)N4C([H])([H])C([H])([H])C([H])([H])C([H])(n5nc(-c6c([H])c([H])c(Oc7c([H])c([H])c(F)c([H])c7F)c([H])c6[H])c(C(=O)N([H])[H])c5N([H])[H])C4([H])[H])c(F)c3C([H])([H])[H])c([H])c([H])c2C1([H])[H]

>  <smiles>  (92) 
[H]c1c([H])c([H])c2c(c1[H])C([H])([H])C([H])([H])C([H])([H])C2([H])N([H])C(=O)C1([H])N(C(=O)C([H])(N([H])C(=O)C([H])(N([H])C([H])([H])[H])C([H])([H])[H])C(C([H])([H])[H])(C([H])([H])[H])C([H])([H])[H])C([H])([H])c2c([H])c(OC([H])([H])C([H])([H])C([H])([H])c3c(N([H])[H])c(F)c(N([H])C(=O)N4C([H])([H])C([H])([H])C([H])([H])C([H])(n5nc(-c6c([H])c([H])c(Oc7c([H])c([H])c(F)c([H])c7F)c([H])c6[H])c(C(=O)N([H])[H])c5N([H])[H])C4([H])[H])c(F)c3C([H])([H])[H])c([H])c([H])c2C1([H])[H]

$$$$
92:0:0
     RDKit          3D

 98106  0  0  1  0  0  0  0  0999 V2000
  -28.9500  -23.8550   19.0640 C   0  0  0  0  0  3  0  0  0  0  0  0
  -29.2840  -23.4340   20.3640 C   0  0  0  0  0  0  0  0  0  0  0  0
  -30.0320  -21.2430   19.4340 C   0  0  0  0  0  0  0  0  0  0  0  0
  -29.1390  -23.0100   17.9510 C   0  0  0  0  0  0  0  0  0  0  0  0
  -29.8260  -22.1240   20.5450 C   0  0  0  0  0  0  0  0  0  0  0  0
  -29.6600  -21.7020   18.1410 C   0  0  0  0  0  0  0  0  0  0  0  0
  -30.2620  -21.6150   22.1430 Cl  0  0  0  0  0  0  0  0  0  0  0  0
  -29.8870  -20.6900   16.7510 Cl  0  0  0  0  0  0  0  0  0  0  0  0
  -28.8420  -23.4540   16.6500 N   0  0  0  0  0  0  0  0  0  0  0  0
  -29.1140  -22.8360   15.8900 H   0  0  0  0  0  0  0  0  0  0  0  0
  -28.6990  -24.8810   16.3690 C   0  0  0  0  0  2  0  0  0  0  0  0
  -28.7200  -25.1690   14.8600 C   0  0  0  0  0  2  0  0  0  0  0  0
  -27.9310  -26.7090   13.0120 C   0  0  0  0  0  1  0  0  0  0  0  0
  -28.2690  -26.5930   14.5060 C   0  0  0  0  0  2  0  0  0  0  0  0
  -29.1080  -24.4240   21.5380 C   0  0  0  0  0  2  0  0  0  0  0  0
  -27.9740  -25.4870   21.4300 C   0  0  0  0  0  2  0  0  0  0  0  0
  -28.2150  -26.5660   20.5130 O   0  0  0  0  0  0  0  0  0  0  0  0
  -24.5060  -31.9410   23.3200 C   0  0  0  0  0  0  0  0  0  0  0  0
  -27.1090  -27.3740   20.4140 C   0  0  0  0  0  0  0  0  0  0  0  0
  -23.3010  -30.5200   21.6920 C   0  0  0  0  0  3  0  0  0  0  0  0
  -24.7500  -28.9130   20.3360 C   0  0  0  0  0  0  0  0  0  0  0  0
  -25.8350  -30.8210   21.5350 C   0  0  0  0  0  2  0  0  0  0  0  0
  -25.9040  -29.4330   20.9360 C   0  0  0  0  0  0  0  0  0  0  0  0
  -27.0910  -28.6690   20.9780 C   0  0  0  0  0  3  0  0  0  0  0  0
  -25.9460  -26.8660   19.8020 C   0  0  0  0  0  3  0  0  0  0  0  0
  -24.7630  -27.6280   19.7660 C   0  0  0  0  0  3  0  0  0  0  0  0
  -23.5230  -29.7960   20.3370 C   0  0  0  0  0  2  0  0  0  0  0  0
  -24.5640  -31.1120   22.2420 N   0  0  0  0  0  0  0  0  0  0  0  0
  -23.4210  -32.2520   23.8310 O   0  0  0  0  0  0  0  0  0  0  0  0
  -22.6100  -29.5430   22.6700 C   0  0  0  0  0  0  0  0  0  0  0  0
  -21.2850  -29.3810   22.5180 N   0  0  0  0  0  0  0  0  0  0  0  0
  -23.2610  -28.9320   23.5220 O   0  0  0  0  0  0  0  0  0  0  0  0
  -20.8250  -29.9200   21.8000 H   0  0  0  0  0  0  0  0  0  0  0  0
  -17.8740  -28.2900   22.9990 C   0  0  0  0  0  0  0  0  0  0  0  0
  -20.4330  -28.4840   23.3000 C   0  0  0  0  0  3  0  0  0  0  0  0
  -20.5050  -27.0380   22.7570 C   0  0  0  0  0  2  0  0  0  0  0  0
  -19.4080  -26.7220   21.7360 C   0  0  0  0  0  2  0  0  0  0  0  0
  -18.0210  -26.9210   22.3570 C   0  0  0  0  0  2  0  0  0  0  0  0
  -19.0060  -29.0300   23.4280 C   0  0  0  0  0  0  0  0  0  0  0  0
  -18.8150  -30.3110   23.9880 C   0  0  0  0  0  3  0  0  0  0  0  0
  -17.5220  -30.8530   24.1230 C   0  0  0  0  0  3  0  0  0  0  0  0
  -16.4030  -30.1100   23.7070 C   0  0  0  0  0  3  0  0  0  0  0  0
  -16.5790  -28.8300   23.1530 C   0  0  0  0  0  3  0  0  0  0  0  0
  -25.7960  -32.5610   23.9480 C   0  0  0  0  0  3  0  0  0  0  0  0
  -26.2820  -31.8030   25.2420 C   0  0  1  0  0  0  0  0  0  0  0  0
  -25.1660  -31.5890   26.2920 C   0  0  0  0  0  1  0  0  0  0  0  0
  -26.8600  -30.4160   24.8780 C   0  0  0  0  0  1  0  0  0  0  0  0
  -27.4280  -32.5970   25.9120 C   0  0  0  0  0  1  0  0  0  0  0  0
  -25.5080  -33.9690   24.2470 N   0  0  0  0  0  0  0  0  0  0  0  0
  -25.8660  -35.0000   23.4680 C   0  0  0  0  0  0  0  0  0  0  0  0
  -26.5430  -34.8640   22.4450 O   0  0  0  0  0  0  0  0  0  0  0  0
  -24.9070  -34.1500   25.0380 H   0  0  0  0  0  0  0  0  0  0  0  0
  -24.1740  -36.8140   23.0570 C   0  0  0  0  0  1  0  0  0  0  0  0
  -25.3980  -36.4050   23.8910 C   0  0  0  0  0  3  0  0  0  0  0  0
  -27.5320  -37.2770   24.7370 C   0  0  0  0  0  1  0  0  0  0  0  0
  -26.4500  -37.4370   23.7690 N   0  0  0  0  0  0  0  0  0  0  0  0
  -26.0590  -38.3690   23.8780 H   0  0  0  0  0  0  0  0  0  0  0  0
  -30.8140  -19.9000   19.5830 C   0  0  0  0  0  2  0  0  0  0  0  0
  -30.0490  -18.5240   19.5720 C   0  0  0  0  0  2  0  0  0  0  0  0
  -30.9640  -17.3000   19.9470 C   0  0  0  0  0  2  0  0  0  0  0  0
  -30.9750  -14.7630   20.0800 C   0  0  0  0  0  0  0  0  0  0  0  0
  -30.6160  -12.5290   19.1050 C   0  0  0  0  0  2  0  0  0  0  0  0
  -29.6460  -12.6400   17.9140 C   0  0  0  0  0  2  0  0  0  0  0  0
  -28.1830  -12.5120   18.3900 C   0  0  0  0  0  2  0  0  0  0  0  0
  -27.8610  -13.3940   19.6280 C   0  0  0  0  0  3  0  0  0  0  0  0
  -28.9690  -13.3200   20.7040 C   0  0  0  0  0  2  0  0  0  0  0  0
  -30.2540  -13.6050   20.0470 N   0  0  0  0  0  0  0  0  0  0  0  0
  -32.1760  -14.7770   19.8170 O   0  0  0  0  0  0  0  0  0  0  0  0
  -30.3100  -15.9560   20.1170 N   0  0  0  0  0  0  0  0  0  0  0  0
  -29.3050  -15.9300   20.1840 H   0  0  0  0  0  0  0  0  0  0  0  0
  -25.4980  -13.9740   20.4590 C   0  0  0  0  0  0  0  0  0  0  0  0
  -24.4400  -13.1950   20.8500 C   0  0  0  0  0  0  0  0  0  0  0  0
  -24.9000  -11.8460   20.7850 C   0  0  0  0  0  0  0  0  0  0  0  0
  -26.5340  -13.0990   20.1730 N   0  0  0  0  0  0  0  0  0  0  0  0
  -26.1810  -11.8120   20.4350 N   0  0  0  0  0  0  0  0  0  0  0  0
  -24.1710  -10.5810   20.9800 C   0  0  0  0  0  0  0  0  0  0  0  0
  -24.5910   -9.6300   21.9340 C   0  0  0  0  0  3  0  0  0  0  0  0
  -23.8670   -8.4320   22.1180 C   0  0  0  0  0  3  0  0  0  0  0  0
  -22.7070   -8.1790   21.3450 C   0  0  0  0  0  0  0  0  0  0  0  0
  -22.3060   -9.1200   20.3800 C   0  0  0  0  0  3  0  0  0  0  0  0
  -23.0320  -10.3090   20.1970 C   0  0  0  0  0  3  0  0  0  0  0  0
  -21.9510   -7.0350   21.4380 O   0  0  0  0  0  0  0  0  0  0  0  0
  -21.8590   -6.3260   22.6080 C   0  0  0  0  0  0  0  0  0  0  0  0
  -21.3400   -6.9010   23.7900 C   0  0  0  0  0  3  0  0  0  0  0  0
  -21.2000   -6.1160   24.9500 C   0  0  0  0  0  3  0  0  0  0  0  0
  -21.5700   -4.7570   24.9320 C   0  0  0  0  0  0  0  0  0  0  0  0
  -22.0780   -4.1810   23.7520 C   0  0  0  0  0  3  0  0  0  0  0  0
  -22.2210   -4.9630   22.5940 C   0  0  0  0  0  0  0  0  0  0  0  0
  -22.6960   -4.4000   21.4570 F   0  0  0  0  0  0  0  0  0  0  0  0
  -21.4220   -3.9990   26.0430 F   0  0  0  0  0  0  0  0  0  0  0  0
  -23.0540  -13.6740   21.1670 C   0  0  0  0  0  0  0  0  0  0  0  0
  -22.3410  -12.9690   22.0420 N   0  0  0  0  0  0  0  0  0  0  0  0
  -22.6080  -14.7100   20.6770 O   0  0  0  0  0  0  0  0  0  0  0  0
  -22.7010  -12.1260   22.4640 H   0  0  0  0  0  0  0  0  0  0  0  0
  -21.4150  -13.2850   22.2890 H   0  0  0  0  0  0  0  0  0  0  0  0
  -25.6460  -15.3460   20.2930 N   0  0  0  0  0  0  0  0  0  0  0  0
  -24.8710  -15.9830   20.4520 H   0  0  0  0  0  0  0  0  0  0  0  0
  -26.4700  -15.8140   19.9350 H   0  0  0  0  0  0  0  0  0  0  0  0
  1  2  1  0
  2  5  2  0
  2 15  1  0
  3 58  1  0
  3  5  1  0
  4  6  1  0
  4  1  2  0
  5  7  1  0
  6  3  2  0
  8  6  1  0
  9  4  1  0
 10  9  1  0
 11  9  1  0
 12 11  1  0
 13 14  1  0
 14 12  1  0
 16 15  1  0
 17 16  1  0
 18 29  2  0
 19 17  1  0
 19 24  1  0
 20 28  1  0
 20 30  1  0
 21 27  1  0
 21 23  1  0
 22 28  1  0
 23 24  2  0
 23 22  1  0
 25 19  2  0
 26 25  1  0
 26 21  2  0
 27 20  1  0
 28 18  1  0
 30 32  2  0
 31 30  1  0
 33 31  1  0
 34 43  2  0
 34 39  1  0
 35 31  1  0
 35 39  1  0
 36 35  1  0
 37 38  1  0
 37 36  1  0
 38 34  1  0
 39 40  2  0
 40 41  1  0
 42 41  2  0
 43 42  1  0
 44 18  1  0
 44 49  1  0
 44 45  1  0
 45 48  1  1
 45 46  1  0
 47 45  1  0
 49 52  1  0
 50 54  1  0
 50 49  1  0
 51 50  2  0
 54 53  1  0
 56 57  1  0
 56 54  1  0
 56 55  1  0
 59 58  1  0
 59 60  1  0
 60 69  1  0
 61 69  1  0
 62 67  1  0
 63 64  1  0
 63 62  1  0
 65 64  1  0
 65 74  1  0
 65 66  1  0
 67 61  1  0
 67 66  1  0
 68 61  2  0
 69 70  1  0
 71 72  2  0
 72 91  1  0
 73 72  1  0
 73 76  1  0
 74 75  1  0
 74 71  1  0
 75 73  2  0
 76 77  1  0
 77 78  2  0
 79 82  1  0
 79 78  1  0
 80 79  2  0
 81 80  1  0
 81 76  2  0
 82 83  1  0
 83 84  1  0
 84 85  2  0
 86 85  1  0
 86 90  1  0
 87 86  2  0
 88 83  2  0
 88 87  1  0
 89 88  1  0
 91 92  1  0
 92 95  1  0
 92 94  1  0
 93 91  2  0
 96 97  1  0
 96 71  1  0
 98 96  1  0
M  ISO  4  16 101  17 101  61 100  69 100
M  END
>  <TORSDO>  (93) 
F 25

>  <SCORE>  (93) 
-11.980

>  <name>  (93) 
92

>  <ligand_id>  (93) 
92

>  <original_smiles>  (93) 
[H]c1c([H])c([H])c2c(c1[H])C([H])([H])C([H])([H])C([H])([H])C2([H])N([H])C(=O)C1([H])N(C(=O)C([H])(N([H])C(=O)C([H])(N([H])C([H])([H])[H])C([H])([H])[H])C(C([H])([H])[H])(C([H])([H])[H])C([H])([H])[H])C([H])([H])c2c([H])c(OC([H])([H])C([H])([H])c3c([H])c(N([H])C([H])([H])C([H])([H])C([H])([H])C([H])([H])[H])c(Cl)c(C([H])([H])C([H])([H])C([H])([H])N([H])C(=O)N4C([H])([H])C([H])([H])C([H])([H])C([H])(n5nc(-c6c([H])c([H])c(Oc7c([H])c([H])c(F)c([H])c7F)c([H])c6[H])c(C(=O)N([H])[H])c5N([H])[H])C4([H])[H])c3Cl)c([H])c([H])c2C1([H])[H]

>  <smiles>  (93) 
[H]c1c([H])c([H])c2c(c1[H])C([H])([H])C([H])([H])C([H])([H])C2([H])N([H])C(=O)C1([H])N(C(=O)C([H])(N([H])C(=O)C([H])(N([H])C([H])([H])[H])C([H])([H])[H])C(C([H])([H])[H])(C([H])([H])[H])C([H])([H])[H])C([H])([H])c2c([H])c(OC([H])([H])C([H])([H])c3c([H])c(N([H])C([H])([H])C([H])([H])C([H])([H])C([H])([H])[H])c(Cl)c(C([H])([H])C([H])([H])C([H])([H])N([H])C(=O)N4C([H])([H])C([H])([H])C([H])([H])C([H])(n5nc(-c6c([H])c([H])c(Oc7c([H])c([H])c(F)c([H])c7F)c([H])c6[H])c(C(=O)N([H])[H])c5N([H])[H])C4([H])[H])c3Cl)c([H])c([H])c2C1([H])[H]

$$$$
93:0:0
     RDKit          3D

 89 97  0  0  1  0  0  0  0  0999 V2000
  -30.2630  -19.8510   22.3130 C   0  0  0  0  0  3  0  0  0  0  0  0
  -29.4200  -19.7310   19.7520 C   0  0  0  0  0  3  0  0  0  0  0  0
  -29.8560  -21.0760   21.7150 C   0  0  0  0  0  0  0  0  0  0  0  0
  -30.2830  -18.5700   21.6940 C   0  0  0  0  0  0  0  0  0  0  0  0
  -29.3770  -21.1600   20.3810 C   0  0  0  0  0  0  0  0  0  0  0  0
  -29.8840  -18.3630   20.3460 C   0  0  0  0  0  0  0  0  0  0  0  0
  -29.9700  -22.3240   22.5760 C   0  0  0  0  0  1  0  0  0  0  0  0
  -30.6960  -17.3960   22.5720 C   0  0  0  0  0  1  0  0  0  0  0  0
  -30.6180  -15.5240   19.8790 C   0  0  0  0  0  0  0  0  0  0  0  0
  -30.5730  -13.0870   18.9330 C   0  0  0  0  0  2  0  0  0  0  0  0
  -29.5750  -12.8520   17.7730 C   0  0  0  0  0  2  0  0  0  0  0  0
  -28.1640  -12.5540   18.3140 C   0  0  0  0  0  2  0  0  0  0  0  0
  -27.7740  -13.5020   19.4740 C   0  0  0  0  0  3  0  0  0  0  0  0
  -28.8970  -13.6660   20.5160 C   0  0  0  0  0  2  0  0  0  0  0  0
  -30.0530  -14.2170   19.7880 N   0  0  0  0  0  0  0  0  0  0  0  0
  -31.8440  -15.5110   19.6880 O   0  0  0  0  0  0  0  0  0  0  0  0
  -29.8350  -16.8030   19.8480 N   0  0  0  0  0  0  0  0  0  0  0  0
  -28.9070  -16.5790   19.5200 H   0  0  0  0  0  0  0  0  0  0  0  0
  -25.4710  -14.0330   20.4240 C   0  0  0  0  0  0  0  0  0  0  0  0
  -24.4350  -13.2450   20.8350 C   0  0  0  0  0  0  0  0  0  0  0  0
  -24.8950  -11.8960   20.7260 C   0  0  0  0  0  0  0  0  0  0  0  0
  -26.4900  -13.1670   20.0730 N   0  0  0  0  0  0  0  0  0  0  0  0
  -26.1620  -11.8720   20.3240 N   0  0  0  0  0  0  0  0  0  0  0  0
  -24.1780  -10.6290   20.9210 C   0  0  0  0  0  0  0  0  0  0  0  0
  -24.6070   -9.6750   21.8700 C   0  0  0  0  0  3  0  0  0  0  0  0
  -23.8870   -8.4760   22.0550 C   0  0  0  0  0  3  0  0  0  0  0  0
  -22.7240   -8.2210   21.2900 C   0  0  0  0  0  0  0  0  0  0  0  0
  -22.3140   -9.1630   20.3300 C   0  0  0  0  0  3  0  0  0  0  0  0
  -23.0340  -10.3550   20.1430 C   0  0  0  0  0  3  0  0  0  0  0  0
  -21.9770   -7.0710   21.3810 O   0  0  0  0  0  0  0  0  0  0  0  0
  -21.8380   -6.3960   22.5670 C   0  0  0  0  0  0  0  0  0  0  0  0
  -21.2550   -6.9980   23.7030 C   0  0  0  0  0  3  0  0  0  0  0  0
  -21.0680   -6.2480   24.8810 C   0  0  0  0  0  3  0  0  0  0  0  0
  -21.4550   -4.8940   24.9240 C   0  0  0  0  0  0  0  0  0  0  0  0
  -22.0320   -4.2910   23.7910 C   0  0  0  0  0  3  0  0  0  0  0  0
  -22.2200   -5.0400   22.6160 C   0  0  0  0  0  0  0  0  0  0  0  0
  -22.7560   -4.4490   21.5220 F   0  0  0  0  0  0  0  0  0  0  0  0
  -21.2700   -4.1700   26.0520 F   0  0  0  0  0  0  0  0  0  0  0  0
  -23.0600  -13.7140   21.2120 C   0  0  0  0  0  0  0  0  0  0  0  0
  -22.3890  -12.9950   22.1040 N   0  0  0  0  0  0  0  0  0  0  0  0
  -22.5920  -14.7540   20.7490 O   0  0  0  0  0  0  0  0  0  0  0  0
  -22.7850  -12.1550   22.4990 H   0  0  0  0  0  0  0  0  0  0  0  0
  -21.4690  -13.2890   22.3960 H   0  0  0  0  0  0  0  0  0  0  0  0
  -25.6220  -15.4120   20.2890 N   0  0  0  0  0  0  0  0  0  0  0  0
  -24.8670  -16.0560   20.4970 H   0  0  0  0  0  0  0  0  0  0  0  0
  -26.4460  -15.8710   19.9270 H   0  0  0  0  0  0  0  0  0  0  0  0
  -29.0570  -22.7940   19.7590 C   0  0  0  0  0  2  0  0  0  0  0  0
  -28.2570  -24.3320   20.3550 C   0  0  0  0  0  2  0  0  0  0  0  0
  -28.4000  -25.9800   20.1180 O   0  0  0  0  0  0  0  0  0  0  0  0
  -24.6930  -31.8780   23.1990 C   0  0  0  0  0  0  0  0  0  0  0  0
  -27.3490  -27.0510   20.1460 C   0  0  0  0  0  0  0  0  0  0  0  0
  -23.5270  -30.4580   21.5630 C   0  0  0  0  0  3  0  0  0  0  0  0
  -25.0050  -28.8880   20.1300 C   0  0  0  0  0  0  0  0  0  0  0  0
  -26.0860  -30.7270   21.4030 C   0  0  0  0  0  2  0  0  0  0  0  0
  -26.1890  -29.3180   20.7420 C   0  0  0  0  0  0  0  0  0  0  0  0
  -27.3580  -28.4240   20.7170 C   0  0  0  0  0  3  0  0  0  0  0  0
  -26.1260  -26.7760   19.4990 C   0  0  0  0  0  3  0  0  0  0  0  0
  -24.9990  -27.6390   19.4880 C   0  0  0  0  0  3  0  0  0  0  0  0
  -23.7660  -29.7830   20.1850 C   0  0  0  0  0  2  0  0  0  0  0  0
  -24.7910  -31.0490   22.1070 N   0  0  0  0  0  0  0  0  0  0  0  0
  -23.5990  -32.1360   23.7280 O   0  0  0  0  0  0  0  0  0  0  0  0
  -22.8610  -29.4440   22.5300 C   0  0  0  0  0  0  0  0  0  0  0  0
  -21.5410  -29.2190   22.3870 N   0  0  0  0  0  0  0  0  0  0  0  0
  -23.5410  -28.8580   23.3760 O   0  0  0  0  0  0  0  0  0  0  0  0
  -21.0440  -29.7510   21.6870 H   0  0  0  0  0  0  0  0  0  0  0  0
  -18.2170  -27.8310   22.8320 C   0  0  0  0  0  0  0  0  0  0  0  0
  -20.7490  -28.2500   23.1530 C   0  0  0  0  0  3  0  0  0  0  0  0
  -20.9450  -26.8140   22.6100 C   0  0  0  0  0  2  0  0  0  0  0  0
  -19.8920  -26.4100   21.5740 C   0  0  0  0  0  2  0  0  0  0  0  0
  -18.4880  -26.4840   22.1820 C   0  0  0  0  0  2  0  0  0  0  0  0
  -19.2780  -28.6660   23.2720 C   0  0  0  0  0  0  0  0  0  0  0  0
  -18.9700  -29.9200   23.8420 C   0  0  0  0  0  3  0  0  0  0  0  0
  -17.6330  -30.3430   23.9740 C   0  0  0  0  0  3  0  0  0  0  0  0
  -16.5870  -29.5070   23.5490 C   0  0  0  0  0  3  0  0  0  0  0  0
  -16.8790  -28.2540   22.9830 C   0  0  0  0  0  3  0  0  0  0  0  0
  -25.9490  -32.5520   23.8290 C   0  0  0  0  0  3  0  0  0  0  0  0
  -25.6000  -33.9460   24.1560 N   0  0  0  0  0  0  0  0  0  0  0  0
  -25.9060  -35.0130   23.4060 C   0  0  0  0  0  0  0  0  0  0  0  0
  -26.5740  -34.9280   22.3720 O   0  0  0  0  0  0  0  0  0  0  0  0
  -25.0030  -34.0810   24.9590 H   0  0  0  0  0  0  0  0  0  0  0  0
  -24.1430  -36.7820   23.0750 C   0  0  0  0  0  1  0  0  0  0  0  0
  -25.3960  -36.3910   23.8750 C   0  0  0  0  0  3  0  0  0  0  0  0
  -27.5090  -37.3280   24.7070 C   0  0  0  0  0  1  0  0  0  0  0  0
  -26.4050  -37.4660   23.7620 N   0  0  0  0  0  0  0  0  0  0  0  0
  -25.9800  -38.3780   23.9060 H   0  0  0  0  0  0  0  0  0  0  0  0
  -26.4680  -31.8090   25.1220 C   0  0  1  0  0  0  0  0  0  0  0  0
  -25.3650  -31.5350   26.1730 C   0  0  0  0  0  1  0  0  0  0  0  0
  -27.1100  -30.4500   24.7590 C   0  0  0  0  0  1  0  0  0  0  0  0
  -27.5750  -32.6500   25.8010 C   0  0  0  0  0  1  0  0  0  0  0  0
  2  6  2  0
  2  5  1  0
  3  1  1  0
  3  7  1  0
  4  1  2  0
  4  8  1  0
  5  3  2  0
  6  4  1  0
 10 15  1  0
 11 12  1  0
 11 10  1  0
 13 12  1  0
 13 22  1  0
 13 14  1  0
 15  9  1  0
 15 14  1  0
 16  9  2  0
 17  9  1  0
 17  6  1  0
 18 17  1  0
 19 20  2  0
 20 39  1  0
 21 20  1  0
 21 24  1  0
 22 23  1  0
 22 19  1  0
 23 21  2  0
 24 25  1  0
 25 26  2  0
 27 30  1  0
 27 26  1  0
 28 27  2  0
 29 28  1  0
 29 24  2  0
 30 31  1  0
 31 36  2  0
 31 32  1  0
 32 33  2  0
 33 34  1  0
 34 38  1  0
 35 34  2  0
 36 35  1  0
 37 36  1  0
 39 40  1  0
 40 43  1  0
 40 42  1  0
 41 39  2  0
 44 19  1  0
 44 45  1  0
 46 44  1  0
 47 48  1  0
 47  5  1  0
 49 51  1  0
 49 48  1  0
 50 61  2  0
 51 56  1  0
 52 60  1  0
 52 62  1  0
 53 59  1  0
 53 55  1  0
 54 60  1  0
 55 54  1  0
 56 55  2  0
 57 51  2  0
 58 57  1  0
 58 53  2  0
 59 52  1  0
 60 50  1  0
 62 64  2  0
 63 62  1  0
 65 63  1  0
 66 75  2  0
 66 71  1  0
 67 63  1  0
 67 71  1  0
 68 67  1  0
 69 70  1  0
 69 68  1  0
 70 66  1  0
 71 72  2  0
 72 73  1  0
 74 73  2  0
 75 74  1  0
 76 50  1  0
 76 77  1  0
 76 86  1  0
 77 80  1  0
 78 82  1  0
 78 77  1  0
 79 78  2  0
 82 81  1  0
 84 82  1  0
 84 85  1  0
 84 83  1  0
 86 89  1  1
 86 87  1  0
 88 86  1  0
M  ISO  4   9 100  17 100  48 101  49 101
M  END
>  <TORSDO>  (94) 
F 18

>  <SCORE>  (94) 
-15.407

>  <name>  (94) 
93

>  <ligand_id>  (94) 
93

>  <original_smiles>  (94) 
[H]c1c([H])c([H])c2c(c1[H])C([H])([H])C([H])([H])C([H])([H])C2([H])N([H])C(=O)C1([H])N(C(=O)C([H])(N([H])C(=O)C([H])(N([H])C([H])([H])[H])C([H])([H])[H])C(C([H])([H])[H])(C([H])([H])[H])C([H])([H])[H])C([H])([H])c2c([H])c(OC([H])([H])C([H])([H])c3c([H])c(N([H])C(=O)N4C([H])([H])C([H])([H])C([H])([H])C([H])(n5nc(-c6c([H])c([H])c(Oc7c([H])c([H])c(F)c([H])c7F)c([H])c6[H])c(C(=O)N([H])[H])c5N([H])[H])C4([H])[H])c(C([H])([H])[H])c([H])c3C([H])([H])[H])c([H])c([H])c2C1([H])[H]

>  <smiles>  (94) 
[H]c1c([H])c([H])c2c(c1[H])C([H])([H])C([H])([H])C([H])([H])C2([H])N([H])C(=O)C1([H])N(C(=O)C([H])(N([H])C(=O)C([H])(N([H])C([H])([H])[H])C([H])([H])[H])C(C([H])([H])[H])(C([H])([H])[H])C([H])([H])[H])C([H])([H])c2c([H])c(OC([H])([H])C([H])([H])c3c([H])c(N([H])C(=O)N4C([H])([H])C([H])([H])C([H])([H])C([H])(n5nc(-c6c([H])c([H])c(Oc7c([H])c([H])c(F)c([H])c7F)c([H])c6[H])c(C(=O)N([H])[H])c5N([H])[H])C4([H])[H])c(C([H])([H])[H])c([H])c3C([H])([H])[H])c([H])c([H])c2C1([H])[H]

$$$$
94:0:0
     RDKit          3D

 99107  0  0  1  0  0  0  0  0999 V2000
  -29.1520  -18.4870   20.0290 C   0  0  0  0  0  3  0  0  0  0  0  0
  -29.6390  -19.8310   19.8960 C   0  0  0  0  0  0  0  0  0  0  0  0
  -31.0600  -20.0220   19.9770 C   0  0  0  0  0  0  0  0  0  0  0  0
  -31.7760  -19.0770   20.7680 C   0  0  0  0  0  0  0  0  0  0  0  0
  -30.0110  -17.4060   20.4200 C   0  0  0  0  0  0  0  0  0  0  0  0
  -31.2780  -17.7640   20.9520 C   0  0  0  0  0  0  0  0  0  0  0  0
  -33.0470  -19.4770   21.5130 C   0  0  0  0  0  1  0  0  0  0  0  0
  -32.2160  -16.6320   21.8840 Cl  0  0  0  0  0  0  0  0  0  0  0  0
  -30.2610  -14.9600   19.9050 C   0  0  0  0  0  0  0  0  0  0  0  0
  -30.0430  -12.7180   18.8910 C   0  0  0  0  0  2  0  0  0  0  0  0
  -29.0110  -12.7660   17.7460 C   0  0  0  0  0  2  0  0  0  0  0  0
  -27.5900  -12.5310   18.2920 C   0  0  0  0  0  2  0  0  0  0  0  0
  -27.2730  -13.3750   19.5530 C   0  0  0  0  0  3  0  0  0  0  0  0
  -28.4210  -13.3460   20.5840 C   0  0  0  0  0  2  0  0  0  0  0  0
  -29.6560  -13.7380   19.8850 N   0  0  0  0  0  0  0  0  0  0  0  0
  -31.3420  -15.1320   19.3320 O   0  0  0  0  0  0  0  0  0  0  0  0
  -29.5710  -16.0220   20.4190 N   0  0  0  0  0  0  0  0  0  0  0  0
  -28.6280  -15.8410   20.7210 H   0  0  0  0  0  0  0  0  0  0  0  0
  -24.9310  -13.7980   20.5100 C   0  0  0  0  0  0  0  0  0  0  0  0
  -23.9440  -12.9530   20.9360 C   0  0  0  0  0  0  0  0  0  0  0  0
  -24.4680  -11.6300   20.7920 C   0  0  0  0  0  0  0  0  0  0  0  0
  -25.9960  -12.9900   20.1440 N   0  0  0  0  0  0  0  0  0  0  0  0
  -25.7270  -11.6770   20.3660 N   0  0  0  0  0  0  0  0  0  0  0  0
  -23.8240  -10.3250   20.9900 C   0  0  0  0  0  0  0  0  0  0  0  0
  -24.3180   -9.3850   21.9190 C   0  0  0  0  0  3  0  0  0  0  0  0
  -23.6670   -8.1450   22.1010 C   0  0  0  0  0  3  0  0  0  0  0  0
  -22.5040   -7.8410   21.3510 C   0  0  0  0  0  0  0  0  0  0  0  0
  -22.0330   -8.7690   20.4070 C   0  0  0  0  0  3  0  0  0  0  0  0
  -22.6880   -9.9980   20.2240 C   0  0  0  0  0  3  0  0  0  0  0  0
  -21.8190   -6.6500   21.4410 O   0  0  0  0  0  0  0  0  0  0  0  0
  -21.7440   -5.9530   22.6160 C   0  0  0  0  0  0  0  0  0  0  0  0
  -21.1360   -6.4950   23.7720 C   0  0  0  0  0  3  0  0  0  0  0  0
  -21.0180   -5.7130   24.9380 C   0  0  0  0  0  3  0  0  0  0  0  0
  -21.5010   -4.3900   24.9520 C   0  0  0  0  0  0  0  0  0  0  0  0
  -22.1010   -3.8490   23.7990 C   0  0  0  0  0  3  0  0  0  0  0  0
  -22.2200   -4.6250   22.6370 C   0  0  0  0  0  0  0  0  0  0  0  0
  -22.7800   -4.0890   21.5250 F   0  0  0  0  0  0  0  0  0  0  0  0
  -21.3820   -3.6380   26.0710 F   0  0  0  0  0  0  0  0  0  0  0  0
  -22.5560  -13.3420   21.3570 C   0  0  0  0  0  0  0  0  0  0  0  0
  -21.9500  -12.5730   22.2550 N   0  0  0  0  0  0  0  0  0  0  0  0
  -22.0200  -14.3600   20.9290 O   0  0  0  0  0  0  0  0  0  0  0  0
  -22.4050  -11.7540   22.6250 H   0  0  0  0  0  0  0  0  0  0  0  0
  -21.0220  -12.8140   22.5730 H   0  0  0  0  0  0  0  0  0  0  0  0
  -24.9990  -15.1840   20.3870 N   0  0  0  0  0  0  0  0  0  0  0  0
  -24.1960  -15.7710   20.5920 H   0  0  0  0  0  0  0  0  0  0  0  0
  -25.7700  -15.6970   19.9780 H   0  0  0  0  0  0  0  0  0  0  0  0
  -31.6790  -22.5240   19.5850 C   0  0  0  0  0  1  0  0  0  0  0  0
  -31.2710  -20.9440   17.6470 C   0  0  0  0  0  1  0  0  0  0  0  0
  -33.3400  -20.8270   18.9100 C   0  0  0  0  0  1  0  0  0  0  0  0
  -31.8120  -21.0750   19.0880 C   0  0  2  0  0  0  0  0  0  0  0  0
  -28.6620  -21.0600   19.9900 C   0  0  0  0  0  2  0  0  0  0  0  0
  -28.0850  -21.6960   18.7540 N   0  0  0  0  0  4  0  0  0  0  0  0
  -27.1590  -21.3180   18.6140 H   0  0  0  0  0  0  0  0  0  0  0  0
  -28.6320  -21.3410   17.9890 H   0  0  0  0  0  0  0  0  0  0  0  0
  -27.9410  -23.6000   17.1400 C   0  0  0  0  0  1  0  0  0  0  0  0
  -28.0960  -23.2190   18.6320 C   0  0  0  0  0  3  0  0  0  0  0  0
  -27.0980  -24.0470   19.5500 C   0  0  0  0  0  2  0  0  0  0  0  0
  -27.5660  -25.4500   20.1650 C   0  0  0  0  0  2  0  0  0  0  0  0
  -27.6290  -26.7500   19.4760 O   0  0  0  0  0  0  0  0  0  0  0  0
  -24.4970  -32.0610   23.3120 C   0  0  0  0  0  0  0  0  0  0  0  0
  -26.5710  -27.6280   19.6950 C   0  0  0  0  0  0  0  0  0  0  0  0
  -23.0800  -30.8070   21.7360 C   0  0  0  0  0  3  0  0  0  0  0  0
  -24.3030  -29.2990   20.0750 C   0  0  0  0  0  0  0  0  0  0  0  0
  -25.5980  -31.0500   21.3000 C   0  0  0  0  0  2  0  0  0  0  0  0
  -25.5510  -29.7120   20.5670 C   0  0  0  0  0  0  0  0  0  0  0  0
  -26.6960  -28.8840   20.3620 C   0  0  0  0  0  3  0  0  0  0  0  0
  -25.3040  -27.2540   19.2120 C   0  0  0  0  0  3  0  0  0  0  0  0
  -24.1770  -28.0750   19.3980 C   0  0  0  0  0  3  0  0  0  0  0  0
  -23.1250  -30.2220   20.3020 C   0  0  0  0  0  2  0  0  0  0  0  0
  -24.4200  -31.3100   22.1740 N   0  0  0  0  0  0  0  0  0  0  0  0
  -23.4810  -32.3460   23.9630 O   0  0  0  0  0  0  0  0  0  0  0  0
  -22.4720  -29.7500   22.6910 C   0  0  0  0  0  0  0  0  0  0  0  0
  -21.1630  -29.4880   22.5450 N   0  0  0  0  0  0  0  0  0  0  0  0
  -23.1760  -29.1730   23.5240 O   0  0  0  0  0  0  0  0  0  0  0  0
  -20.6500  -30.0210   21.8590 H   0  0  0  0  0  0  0  0  0  0  0  0
  -17.9070  -27.9330   22.8500 C   0  0  0  0  0  0  0  0  0  0  0  0
  -20.3870  -28.5070   23.3080 C   0  0  0  0  0  3  0  0  0  0  0  0
  -20.7000  -27.0650   22.8410 C   0  0  0  0  0  2  0  0  0  0  0  0
  -19.7270  -26.5570   21.7690 C   0  0  0  0  0  2  0  0  0  0  0  0
  -18.2900  -26.5760   22.2900 C   0  0  0  0  0  2  0  0  0  0  0  0
  -18.8910  -28.8480   23.3130 C   0  0  0  0  0  0  0  0  0  0  0  0
  -18.4730  -30.1130   23.7890 C   0  0  0  0  0  3  0  0  0  0  0  0
  -17.1080  -30.4590   23.8160 C   0  0  0  0  0  3  0  0  0  0  0  0
  -16.1390  -29.5410   23.3730 C   0  0  0  0  0  3  0  0  0  0  0  0
  -16.5420  -28.2850   22.8910 C   0  0  0  0  0  3  0  0  0  0  0  0
  -25.8550  -32.6090   23.8410 C   0  0  0  0  0  3  0  0  0  0  0  0
  -25.6600  -34.0210   24.2050 N   0  0  0  0  0  0  0  0  0  0  0  0
  -25.9950  -35.0590   23.4270 C   0  0  0  0  0  0  0  0  0  0  0  0
  -26.5680  -34.9200   22.3420 O   0  0  0  0  0  0  0  0  0  0  0  0
  -25.1350  -34.2120   25.0460 H   0  0  0  0  0  0  0  0  0  0  0  0
  -24.3440  -36.9480   23.2470 C   0  0  0  0  0  1  0  0  0  0  0  0
  -25.6360  -36.4720   23.9310 C   0  0  0  0  0  3  0  0  0  0  0  0
  -27.8900  -37.2270   24.5500 C   0  0  0  0  0  1  0  0  0  0  0  0
  -26.7120  -37.4640   23.7190 N   0  0  0  0  0  0  0  0  0  0  0  0
  -26.3780  -38.4040   23.9100 H   0  0  0  0  0  0  0  0  0  0  0  0
  -26.4200  -31.7890   25.0650 C   0  0  1  0  0  0  0  0  0  0  0  0
  -25.3870  -31.5700   26.1970 C   0  0  0  0  0  1  0  0  0  0  0  0
  -26.9170  -30.3960   24.6130 C   0  0  0  0  0  1  0  0  0  0  0  0
  -27.6550  -32.5150   25.6510 C   0  0  0  0  0  1  0  0  0  0  0  0
  1  5  1  0
  2  3  1  0
  2 51  1  0
  2  1  2  0
  3  4  2  0
  4  6  1  0
  4  7  1  0
  5  6  2  0
  6  8  1  0
  9 17  1  0
 10 15  1  0
 11 12  1  0
 11 10  1  0
 13 12  1  0
 13 22  1  0
 13 14  1  0
 15  9  1  0
 15 14  1  0
 16  9  2  0
 17  5  1  0
 17 18  1  0
 19 20  2  0
 20 39  1  0
 21 20  1  0
 21 24  1  0
 22 23  1  0
 22 19  1  0
 23 21  2  0
 24 25  1  0
 25 26  2  0
 27 30  1  0
 27 26  1  0
 28 27  2  0
 29 28  1  0
 29 24  2  0
 30 31  1  0
 31 36  2  0
 31 32  1  0
 32 33  2  0
 33 34  1  0
 34 38  1  0
 35 34  2  0
 36 35  1  0
 37 36  1  0
 39 40  1  0
 40 43  1  0
 40 42  1  0
 41 39  2  0
 44 19  1  0
 44 45  1  0
 46 44  1  0
 50 48  1  6
 49 50  1  0
 50 47  1  0
 50  3  1  0
 52 51  1  0
 53 52  1  0
 54 52  1  0
 56 55  1  0
 56 52  1  0
 56 57  1  0
 57 58  1  0
 59 61  1  0
 59 58  1  0
 60 71  2  0
 61 66  1  0
 62 70  1  0
 62 72  1  0
 63 69  1  0
 63 65  1  0
 64 70  1  0
 65 64  1  0
 66 65  2  0
 67 68  1  0
 67 61  2  0
 68 63  2  0
 69 62  1  0
 70 60  1  0
 72 74  2  0
 73 72  1  0
 75 73  1  0
 76 85  2  0
 76 81  1  0
 77 73  1  0
 77 81  1  0
 78 77  1  0
 79 80  1  0
 79 78  1  0
 80 76  1  0
 81 82  2  0
 82 83  1  0
 84 83  2  0
 85 84  1  0
 86 60  1  0
 86 87  1  0
 86 96  1  0
 87 90  1  0
 88 92  1  0
 88 87  1  0
 89 88  2  0
 92 91  1  0
 94 95  1  0
 94 92  1  0
 94 93  1  0
 96 99  1  1
 96 97  1  0
 98 96  1  0
M  ISO  4   9 100  17 100  58 101  59 101
M  END
>  <TORSDO>  (95) 
F 22

>  <SCORE>  (95) 
-11.494

>  <name>  (95) 
94

>  <ligand_id>  (95) 
94

>  <original_smiles>  (95) 
[H]c1c([H])c([H])c2c(c1[H])C([H])([H])C([H])([H])C([H])([H])C2([H])N([H])C(=O)C1([H])N(C(=O)C([H])(N([H])C(=O)C([H])(N([H])C([H])([H])[H])C([H])([H])[H])C(C([H])([H])[H])(C([H])([H])[H])C([H])([H])[H])C([H])([H])c2c([H])c(OC([H])([H])C([H])([H])C([H])(C([H])([H])[H])[N+]([H])([H])C([H])([H])c3c([H])c(N([H])C(=O)N4C([H])([H])C([H])([H])C([H])([H])C([H])(n5nc(-c6c([H])c([H])c(Oc7c([H])c([H])c(F)c([H])c7F)c([H])c6[H])c(C(=O)N([H])[H])c5N([H])[H])C4([H])[H])c(Cl)c(C([H])([H])[H])c3C(C([H])([H])[H])(C([H])([H])[H])C([H])([H])[H])c([H])c([H])c2C1([H])[H]

>  <smiles>  (95) 
[H]c1c([H])c([H])c2c(c1[H])C([H])([H])C([H])([H])C([H])([H])C2([H])N([H])C(=O)C1([H])N(C(=O)C([H])(N([H])C(=O)C([H])(N([H])C([H])([H])[H])C([H])([H])[H])C(C([H])([H])[H])(C([H])([H])[H])C([H])([H])[H])C([H])([H])c2c([H])c(OC([H])([H])C([H])([H])C([H])(C([H])([H])[H])[N+]([H])([H])C([H])([H])c3c([H])c(N([H])C(=O)N4C([H])([H])C([H])([H])C([H])([H])C([H])(n5nc(-c6c([H])c([H])c(Oc7c([H])c([H])c(F)c([H])c7F)c([H])c6[H])c(C(=O)N([H])[H])c5N([H])[H])C4([H])[H])c(Cl)c(C([H])([H])[H])c3C(C([H])([H])[H])(C([H])([H])[H])C([H])([H])[H])c([H])c([H])c2C1([H])[H]

$$$$
95:0:0
     RDKit          3D

 89 97  0  0  1  0  0  0  0  0999 V2000
  -29.6690  -20.4530   21.3070 C   0  0  0  0  0  3  0  0  0  0  0  0
  -28.7370  -20.4260   19.2050 C   0  0  0  0  0  3  0  0  0  0  0  0
  -29.0720  -21.3230   20.3020 C   0  0  0  0  0  0  0  0  0  0  0  0
  -29.8850  -18.9840   21.2540 C   0  0  0  0  0  0  0  0  0  0  0  0
  -28.9410  -18.9520   19.1330 C   0  0  0  0  0  0  0  0  0  0  0  0
  -29.5590  -18.0990   20.1450 C   0  0  0  0  0  0  0  0  0  0  0  0
  -30.4890  -18.3290   22.4810 C   0  0  0  0  0  1  0  0  0  0  0  0
  -28.4430  -18.2520   17.8820 C   0  0  0  0  0  1  0  0  0  0  0  0
  -30.4080  -15.3160   19.9510 C   0  0  0  0  0  0  0  0  0  0  0  0
  -30.3590  -12.9150   18.9950 C   0  0  0  0  0  2  0  0  0  0  0  0
  -29.3510  -12.7780   17.8280 C   0  0  0  0  0  2  0  0  0  0  0  0
  -27.9330  -12.4900   18.3580 C   0  0  0  0  0  2  0  0  0  0  0  0
  -27.5630  -13.4020   19.5560 C   0  0  0  0  0  3  0  0  0  0  0  0
  -28.6890  -13.4840   20.6070 C   0  0  0  0  0  2  0  0  0  0  0  0
  -29.8790  -14.0040   19.9140 N   0  0  0  0  0  0  0  0  0  0  0  0
  -31.6010  -15.3890   19.6220 O   0  0  0  0  0  0  0  0  0  0  0  0
  -29.5630  -16.4940   20.1680 N   0  0  0  0  0  0  0  0  0  0  0  0
  -28.6340  -16.1550   20.3650 H   0  0  0  0  0  0  0  0  0  0  0  0
  -25.2470  -13.9110   20.5010 C   0  0  0  0  0  0  0  0  0  0  0  0
  -24.2190  -13.1100   20.9130 C   0  0  0  0  0  0  0  0  0  0  0  0
  -24.6890  -11.7670   20.7860 C   0  0  0  0  0  0  0  0  0  0  0  0
  -26.2740  -13.0560   20.1420 N   0  0  0  0  0  0  0  0  0  0  0  0
  -25.9550  -11.7570   20.3810 N   0  0  0  0  0  0  0  0  0  0  0  0
  -23.9830  -10.4910   20.9690 C   0  0  0  0  0  0  0  0  0  0  0  0
  -24.4300   -9.5250   21.8970 C   0  0  0  0  0  3  0  0  0  0  0  0
  -23.7220   -8.3160   22.0700 C   0  0  0  0  0  3  0  0  0  0  0  0
  -22.5510   -8.0640   21.3150 C   0  0  0  0  0  0  0  0  0  0  0  0
  -22.1230   -9.0200   20.3760 C   0  0  0  0  0  3  0  0  0  0  0  0
  -22.8330  -10.2200   20.2010 C   0  0  0  0  0  3  0  0  0  0  0  0
  -21.8130   -6.9090   21.3980 O   0  0  0  0  0  0  0  0  0  0  0  0
  -21.6970   -6.2120   22.5750 C   0  0  0  0  0  0  0  0  0  0  0  0
  -21.1340   -6.7930   23.7320 C   0  0  0  0  0  3  0  0  0  0  0  0
  -20.9680   -6.0200   24.8990 C   0  0  0  0  0  3  0  0  0  0  0  0
  -21.3550   -4.6670   24.9080 C   0  0  0  0  0  0  0  0  0  0  0  0
  -21.9110   -4.0850   23.7550 C   0  0  0  0  0  3  0  0  0  0  0  0
  -22.0780   -4.8560   22.5910 C   0  0  0  0  0  0  0  0  0  0  0  0
  -22.5940   -4.2840   21.4760 F   0  0  0  0  0  0  0  0  0  0  0  0
  -21.1890   -3.9220   26.0250 F   0  0  0  0  0  0  0  0  0  0  0  0
  -22.8420  -13.5630   21.3020 C   0  0  0  0  0  0  0  0  0  0  0  0
  -22.1820  -12.8270   22.1890 N   0  0  0  0  0  0  0  0  0  0  0  0
  -22.3630  -14.6040   20.8550 O   0  0  0  0  0  0  0  0  0  0  0  0
  -22.5840  -11.9850   22.5730 H   0  0  0  0  0  0  0  0  0  0  0  0
  -21.2610  -13.1130   22.4910 H   0  0  0  0  0  0  0  0  0  0  0  0
  -25.3850  -15.2910   20.3730 N   0  0  0  0  0  0  0  0  0  0  0  0
  -24.6150  -15.9220   20.5640 H   0  0  0  0  0  0  0  0  0  0  0  0
  -26.1780  -15.7550   19.9530 H   0  0  0  0  0  0  0  0  0  0  0  0
  -29.1060  -23.0620   20.3330 C   0  0  0  0  0  3  0  0  0  0  0  0
  -27.9660  -24.4200   20.3010 C   0  0  0  0  0  3  0  0  0  0  0  0
  -28.2040  -26.0340   20.3840 O   0  0  0  0  0  0  0  0  0  0  0  0
  -24.6570  -31.9820   23.3010 C   0  0  0  0  0  0  0  0  0  0  0  0
  -27.1800  -27.1010   20.3210 C   0  0  0  0  0  0  0  0  0  0  0  0
  -23.4510  -30.5850   21.6720 C   0  0  0  0  0  3  0  0  0  0  0  0
  -24.8850  -28.9640   20.2620 C   0  0  0  0  0  0  0  0  0  0  0  0
  -26.0150  -30.7870   21.5200 C   0  0  0  0  0  2  0  0  0  0  0  0
  -26.0750  -29.3770   20.8750 C   0  0  0  0  0  0  0  0  0  0  0  0
  -27.2180  -28.4660   20.8780 C   0  0  0  0  0  3  0  0  0  0  0  0
  -25.9590  -26.8240   19.6660 C   0  0  0  0  0  3  0  0  0  0  0  0
  -24.8490  -27.7060   19.6380 C   0  0  0  0  0  3  0  0  0  0  0  0
  -23.6720  -29.8900   20.3010 C   0  0  0  0  0  2  0  0  0  0  0  0
  -24.7300  -31.1440   22.2180 N   0  0  0  0  0  0  0  0  0  0  0  0
  -23.5720  -32.2840   23.8210 O   0  0  0  0  0  0  0  0  0  0  0  0
  -22.7490  -29.6010   22.6430 C   0  0  0  0  0  0  0  0  0  0  0  0
  -21.4230  -29.4250   22.4990 N   0  0  0  0  0  0  0  0  0  0  0  0
  -23.4060  -28.9960   23.4940 O   0  0  0  0  0  0  0  0  0  0  0  0
  -20.9480  -29.9640   21.7890 H   0  0  0  0  0  0  0  0  0  0  0  0
  -18.0410  -28.2020   22.9680 C   0  0  0  0  0  0  0  0  0  0  0  0
  -20.5930  -28.4980   23.2750 C   0  0  0  0  0  3  0  0  0  0  0  0
  -20.7180  -27.0540   22.7330 C   0  0  0  0  0  2  0  0  0  0  0  0
  -19.6380  -26.7000   21.7050 C   0  0  0  0  0  2  0  0  0  0  0  0
  -18.2430  -26.8420   22.3200 C   0  0  0  0  0  2  0  0  0  0  0  0
  -19.1440  -28.9860   23.4010 C   0  0  0  0  0  0  0  0  0  0  0  0
  -18.8990  -30.2550   23.9690 C   0  0  0  0  0  3  0  0  0  0  0  0
  -17.5850  -30.7420   24.1060 C   0  0  0  0  0  3  0  0  0  0  0  0
  -16.4980  -29.9570   23.6860 C   0  0  0  0  0  3  0  0  0  0  0  0
  -16.7260  -28.6890   23.1240 C   0  0  0  0  0  3  0  0  0  0  0  0
  -25.9350  -32.6160   23.9300 C   0  0  0  0  0  3  0  0  0  0  0  0
  -25.6300  -34.0190   24.2580 N   0  0  0  0  0  0  0  0  0  0  0  0
  -25.9310  -35.0710   23.4850 C   0  0  0  0  0  0  0  0  0  0  0  0
  -26.5590  -34.9620   22.4290 O   0  0  0  0  0  0  0  0  0  0  0  0
  -25.0660  -34.1760   25.0800 H   0  0  0  0  0  0  0  0  0  0  0  0
  -24.1690  -36.8520   23.2260 C   0  0  0  0  0  1  0  0  0  0  0  0
  -25.4650  -36.4640   23.9560 C   0  0  0  0  0  3  0  0  0  0  0  0
  -27.6370  -37.3870   24.6400 C   0  0  0  0  0  1  0  0  0  0  0  0
  -26.4790  -37.5230   23.7600 N   0  0  0  0  0  0  0  0  0  0  0  0
  -26.0740  -38.4440   23.9110 H   0  0  0  0  0  0  0  0  0  0  0  0
  -26.4350  -31.8530   25.2190 C   0  0  1  0  0  0  0  0  0  0  0  0
  -25.3270  -31.6160   26.2730 C   0  0  0  0  0  1  0  0  0  0  0  0
  -27.0280  -30.4750   24.8490 C   0  0  0  0  0  1  0  0  0  0  0  0
  -27.5730  -32.6540   25.8940 C   0  0  0  0  0  1  0  0  0  0  0  0
  2  3  1  0
  3 47  1  0
  3  1  2  0
  4  1  1  0
  4  7  1  0
  5  2  2  0
  5  6  1  0
  6 17  1  0
  6  4  2  0
  8  5  1  0
  9 17  1  0
 10 15  1  0
 11 12  1  0
 11 10  1  0
 13 12  1  0
 13 22  1  0
 13 14  1  0
 15  9  1  0
 15 14  1  0
 16  9  2  0
 17 18  1  0
 19 20  2  0
 20 39  1  0
 21 20  1  0
 21 24  1  0
 22 23  1  0
 22 19  1  0
 23 21  2  0
 24 25  1  0
 25 26  2  0
 27 30  1  0
 27 26  1  0
 28 27  2  0
 29 28  1  0
 29 24  2  0
 30 31  1  0
 31 36  2  0
 31 32  1  0
 32 33  2  0
 33 34  1  0
 34 38  1  0
 35 34  2  0
 36 35  1  0
 37 36  1  0
 39 40  1  0
 40 43  1  0
 40 42  1  0
 41 39  2  0
 44 19  1  0
 44 45  1  0
 46 44  1  0
 48 47  2  0
 48 49  1  0
 50 61  2  0
 51 49  1  0
 51 56  1  0
 52 60  1  0
 52 62  1  0
 53 59  1  0
 53 55  1  0
 54 60  1  0
 55 56  2  0
 55 54  1  0
 57 51  2  0
 58 57  1  0
 58 53  2  0
 59 52  1  0
 60 50  1  0
 62 64  2  0
 63 62  1  0
 65 63  1  0
 66 75  2  0
 66 71  1  0
 67 63  1  0
 67 71  1  0
 68 67  1  0
 69 70  1  0
 69 68  1  0
 70 66  1  0
 71 72  2  0
 72 73  1  0
 74 73  2  0
 75 74  1  0
 76 50  1  0
 76 77  1  0
 76 86  1  0
 77 80  1  0
 78 82  1  0
 78 77  1  0
 79 78  2  0
 82 81  1  0
 84 85  1  0
 84 82  1  0
 84 83  1  0
 86 89  1  1
 86 87  1  0
 88 86  1  0
M  ISO  4   9 100  17 100  48 101  49 101
M  END
>  <TORSDO>  (96) 
F 18

>  <SCORE>  (96) 
-15.195

>  <name>  (96) 
95

>  <ligand_id>  (96) 
95

>  <original_smiles>  (96) 
[H]c1c([H])c([H])c2c(c1[H])C([H])([H])C([H])([H])C([H])([H])C2([H])N([H])C(=O)C1([H])N(C(=O)C([H])(N([H])C(=O)C([H])(N([H])C([H])([H])[H])C([H])([H])[H])C(C([H])([H])[H])(C([H])([H])[H])C([H])([H])[H])C([H])([H])c2c([H])c(OC([H])([H])C([H])([H])c3c([H])c(C([H])([H])[H])c(N([H])C(=O)N4C([H])([H])C([H])([H])C([H])([H])C([H])(n5nc(-c6c([H])c([H])c(Oc7c([H])c([H])c(F)c([H])c7F)c([H])c6[H])c(C(=O)N([H])[H])c5N([H])[H])C4([H])[H])c(C([H])([H])[H])c3[H])c([H])c([H])c2C1([H])[H]

>  <smiles>  (96) 
[H]c1c([H])c([H])c2c(c1[H])C([H])([H])C([H])([H])C([H])([H])C2([H])N([H])C(=O)C1([H])N(C(=O)C([H])(N([H])C(=O)C([H])(N([H])C([H])([H])[H])C([H])([H])[H])C(C([H])([H])[H])(C([H])([H])[H])C([H])([H])[H])C([H])([H])c2c([H])c(OC([H])([H])C([H])([H])c3c([H])c(C([H])([H])[H])c(N([H])C(=O)N4C([H])([H])C([H])([H])C([H])([H])C([H])(n5nc(-c6c([H])c([H])c(Oc7c([H])c([H])c(F)c([H])c7F)c([H])c6[H])c(C(=O)N([H])[H])c5N([H])[H])C4([H])[H])c(C([H])([H])[H])c3[H])c([H])c([H])c2C1([H])[H]

$$$$
96:0:0
     RDKit          3D

 95 96  0  0  1  0  0  0  0  0999 V2000
  -24.0600  -13.6110   22.4760 N   0  0  0  0  0  0  0  0  0  0  0  0
  -23.7100  -13.5640   23.4310 H   0  0  0  0  0  0  0  0  0  0  0  0
  -26.6590   -9.9220   20.6880 C   0  0  0  0  0  2  0  0  0  0  0  0
  -24.8970  -11.2140   22.9320 C   0  0  0  0  0  3  0  0  0  0  0  0
  -26.2950  -10.2450   22.4370 C   0  0  0  0  0  0  0  0  0  0  0  0
  -25.8080  -10.6900   19.2820 C   0  0  0  0  0  2  0  0  0  0  0  0
  -23.8310  -12.0260   21.7700 C   0  0  0  0  0  2  0  0  0  0  0  0
  -24.1770  -11.5030   19.7460 C   0  0  0  0  0  3  0  0  0  0  0  0
  -27.2310   -9.7050   23.5030 C   0  0  0  0  0  1  0  0  0  0  0  0
  -23.0690  -11.6350   18.3840 Cl  0  0  0  0  0  0  0  0  0  0  0  0
  -27.0010  -11.6270   18.0240 C   0  0  0  0  0  1  0  0  0  0  0  0
  -30.1870  -12.7540   18.4790 C   0  0  0  0  0  0  0  0  0  0  0  0
  -31.2070  -10.7350   19.0020 C   0  0  0  0  0  2  0  0  0  0  0  0
  -30.0360  -10.1080   18.2710 C   0  0  0  0  0  2  0  0  0  0  0  0
  -28.8380  -10.2960   19.2620 C   0  0  0  0  0  2  0  0  0  0  0  0
  -28.6370  -11.6890   20.2830 C   0  0  0  0  0  3  0  0  0  0  0  0
  -29.9820  -11.9350   20.7910 C   0  0  0  0  0  2  0  0  0  0  0  0
  -30.6670  -11.9820   19.5020 N   0  0  0  0  0  0  0  0  0  0  0  0
  -31.1940  -13.4640   18.2070 O   0  0  0  0  0  0  0  0  0  0  0  0
  -28.6910  -12.5140   17.8910 N   0  0  0  0  0  0  0  0  0  0  0  0
  -28.6110  -13.1470   17.1080 H   0  0  0  0  0  0  0  0  0  0  0  0
  -26.7990  -13.7630   19.8460 C   0  0  0  0  0  0  0  0  0  0  0  0
  -25.5640  -13.6190   20.2420 C   0  0  0  0  0  0  0  0  0  0  0  0
  -25.9020  -12.2980   20.9520 C   0  0  0  0  0  2  0  0  0  0  0  0
  -27.4980  -12.6230   20.3610 N   0  0  0  0  0  0  0  0  0  0  0  0
  -27.0350  -12.4960   21.4750 N   0  0  0  0  0  2  0  0  0  0  0  0
  -24.2290  -10.0380   21.0360 C   0  0  0  0  0  0  0  0  0  0  0  0
  -24.4960   -8.6760   21.5580 C   0  0  0  0  0  3  0  0  0  0  0  0
  -23.6360   -7.6550   21.8770 C   0  0  0  0  0  3  0  0  0  0  0  0
  -22.3450   -7.7250   21.4050 C   0  0  0  0  0  0  0  0  0  0  0  0
  -21.9600   -8.8170   20.6660 C   0  0  0  0  0  3  0  0  0  0  0  0
  -22.8100   -9.9070   20.6200 C   0  0  0  0  0  3  0  0  0  0  0  0
  -21.4390   -6.7520   21.6260 O   0  0  0  0  0  0  0  0  0  0  0  0
  -21.4800   -6.1020   22.8210 C   0  0  0  0  0  0  0  0  0  0  0  0
  -21.3300   -6.7770   24.0520 C   0  0  0  0  0  3  0  0  0  0  0  0
  -21.2790   -6.0320   25.2460 C   0  0  0  0  0  3  0  0  0  0  0  0
  -21.3800   -4.6280   25.1990 C   0  0  0  0  0  0  0  0  0  0  0  0
  -21.5700   -3.9680   23.9720 C   0  0  0  0  0  3  0  0  0  0  0  0
  -21.6270   -4.7090   22.7830 C   0  0  0  0  0  0  0  0  0  0  0  0
  -21.8000   -4.0870   21.5920 F   0  0  0  0  0  0  0  0  0  0  0  0
  -21.2910   -3.9070   26.3380 F   0  0  0  0  0  0  0  0  0  0  0  0
  -24.1380  -14.3370   19.6960 C   0  0  0  0  0  0  0  0  0  0  0  0
  -22.8430  -14.1120   20.1210 N   0  0  0  0  0  0  0  0  0  0  0  0
  -24.0760  -15.0910   18.7960 O   0  0  0  0  0  0  0  0  0  0  0  0
  -22.8710  -13.8560   21.1130 H   0  0  0  0  0  0  0  0  0  0  0  0
  -22.0740  -14.6300   19.7310 H   0  0  0  0  0  0  0  0  0  0  0  0
  -27.2310  -14.7390   19.0330 N   0  0  0  0  0  0  0  0  0  0  0  0
  -26.6280  -15.4790   18.6950 H   0  0  0  0  0  0  0  0  0  0  0  0
  -28.1910  -14.8340   18.7320 H   0  0  0  0  0  0  0  0  0  0  0  0
  -24.9560  -15.2640   22.3520 C   0  0  0  0  0  1  0  0  0  0  0  0
  -25.6180  -16.8640   21.1790 C   0  0  0  0  0 15  0  0  0  0  0  0
  -26.4320  -18.7900   21.1330 C   0  0  0  0  0 15  0  0  0  0  0  0
  -26.9320  -20.4920   20.0220 C   0  0  0  0  0 15  0  0  0  0  0  0
  -27.2180  -22.5600   19.9650 C   0  0  0  0  0 15  0  0  0  0  0  0
  -27.7850  -24.1360   19.0940 O   0  0  0  0  0  1  0  0  0  0  0  0
  -25.1270  -30.5720   22.2590 C   0  0  0  0  0  0  0  0  0  0  0  0
  -27.2620  -25.6180   18.9770 C   0  0  0  0  0  0  0  0  0  0  0  0
  -23.9360  -29.2950   20.5420 C   0  0  0  0  0  3  0  0  0  0  0  0
  -25.3420  -27.8950   18.8810 C   0  0  0  0  0  0  0  0  0  0  0  0
  -26.4960  -29.4910   20.3660 C   0  0  0  0  0  2  0  0  0  0  0  0
  -26.5190  -28.1080   19.6020 C   0  0  0  0  0  0  0  0  0  0  0  0
  -27.5040  -26.9840   19.6200 C   0  0  0  0  0  3  0  0  0  0  0  0
  -26.2360  -25.7540   18.0370 C   0  0  0  0  0  3  0  0  0  0  0  0
  -25.2750  -26.7890   18.0290 C   0  0  0  0  0  3  0  0  0  0  0  0
  -24.1390  -28.8170   19.0760 C   0  0  0  0  0  2  0  0  0  0  0  0
  -25.2140  -29.8290   21.1050 N   0  0  0  0  0  0  0  0  0  0  0  0
  -24.0420  -30.7590   22.8370 O   0  0  0  0  0  0  0  0  0  0  0  0
  -23.3440  -28.1540   21.4140 C   0  0  0  0  0  0  0  0  0  0  0  0
  -22.0230  -27.9100   21.3210 N   0  0  0  0  0  0  0  0  0  0  0  0
  -24.0790  -27.5000   22.1620 O   0  0  0  0  0  0  0  0  0  0  0  0
  -21.4740  -28.4910   20.7060 H   0  0  0  0  0  0  0  0  0  0  0  0
  -18.7590  -26.4120   21.8400 C   0  0  0  0  0  0  0  0  0  0  0  0
  -21.3020  -26.8440   22.0300 C   0  0  0  0  0  3  0  0  0  0  0  0
  -21.4780  -25.4850   21.3140 C   0  0  0  0  0  2  0  0  0  0  0  0
  -20.3590  -25.1810   20.3140 C   0  0  0  0  0  2  0  0  0  0  0  0
  -19.0000  -25.1560   21.0210 C   0  0  0  0  0  2  0  0  0  0  0  0
  -19.8380  -27.2130   22.3010 C   0  0  0  0  0  0  0  0  0  0  0  0
  -19.5520  -28.3850   23.0340 C   0  0  0  0  0  3  0  0  0  0  0  0
  -18.2230  -28.7600   23.3070 C   0  0  0  0  0  3  0  0  0  0  0  0
  -17.1600  -27.9560   22.8570 C   0  0  0  0  0  3  0  0  0  0  0  0
  -17.4290  -26.7840   22.1300 C   0  0  0  0  0  3  0  0  0  0  0  0
  -26.3770  -31.2390   22.9030 C   0  0  0  0  0  3  0  0  0  0  0  0
  -25.9280  -32.4530   23.6170 N   0  0  0  0  0  0  0  0  0  0  0  0
  -26.0300  -33.7070   23.1570 C   0  0  0  0  0  0  0  0  0  0  0  0
  -26.5720  -33.9760   22.0820 O   0  0  0  0  0  0  0  0  0  0  0  0
  -25.4210  -32.3040   24.4770 H   0  0  0  0  0  0  0  0  0  0  0  0
  -24.0650  -35.2540   23.4820 C   0  0  0  0  0  1  0  0  0  0  0  0
  -25.4450  -34.8450   24.0220 C   0  0  0  0  0  3  0  0  0  0  0  0
  -27.5450  -35.8140   24.8540 C   0  0  0  0  0  1  0  0  0  0  0  0
  -26.3150  -36.0390   24.0990 N   0  0  0  0  0  0  0  0  0  0  0  0
  -25.8190  -36.8200   24.5240 H   0  0  0  0  0  0  0  0  0  0  0  0
  -27.1360  -30.2850   23.9070 C   0  0  1  0  0  0  0  0  0  0  0  0
  -26.2210  -29.6590   24.9860 C   0  0  0  0  0  1  0  0  0  0  0  0
  -27.8310  -29.1230   23.1640 C   0  0  0  0  0  1  0  0  0  0  0  0
  -28.2600  -31.0710   24.6250 C   0  0  0  0  0  1  0  0  0  0  0  0
  1  2  1  0
  3  5  1  0
  5  4  2  0
  5  9  1  0
  6  8  1  0
  6  3  1  0
  7  1  1  0
  7  4  1  0
  8 10  1  0
  8 27  1  0
 12 18  1  0
 13 18  1  0
 14 13  1  0
 14 15  1  0
 16 15  1  0
 16 25  1  0
 16 17  1  0
 18 17  1  0
 19 12  2  0
 20 11  1  0
 20 12  1  0
 21 20  1  0
 22 23  2  0
 22 25  1  0
 23 24  1  0
 24 26  1  0
 25 26  1  0
 27 28  1  0
 28 29  2  0
 30 33  1  0
 30 29  1  0
 31 30  2  0
 32 31  1  0
 32 27  2  0
 33 34  1  0
 34 35  1  0
 35 36  2  0
 37 36  1  0
 37 41  1  0
 38 37  2  0
 39 34  2  0
 39 38  1  0
 40 39  1  0
 42 43  1  0
 42 23  1  0
 43 45  1  0
 44 42  2  0
 46 43  1  0
 47 22  1  0
 48 47  1  0
 49 47  1  0
 50  1  1  0
 56 67  2  0
 57 55  1  0
 57 62  1  0
 58 66  1  0
 58 68  1  0
 59 65  1  0
 59 61  1  0
 60 66  1  0
 61 62  2  0
 61 60  1  0
 63 57  2  0
 64 63  1  0
 64 59  2  0
 65 58  1  0
 66 56  1  0
 68 70  2  0
 69 68  1  0
 71 69  1  0
 72 81  2  0
 72 77  1  0
 73 69  1  0
 73 77  1  0
 74 73  1  0
 75 76  1  0
 75 74  1  0
 76 72  1  0
 77 78  2  0
 78 79  1  0
 80 79  2  0
 81 80  1  0
 82 56  1  0
 82 83  1  0
 82 92  1  0
 83 86  1  0
 84 83  1  0
 84 88  1  0
 85 84  2  0
 88 87  1  0
 88 90  1  0
 90 91  1  0
 90 89  1  0
 92 95  1  1
 92 93  1  0
 94 92  1  0
M  ISO  4  12 100  20 100  54 101  55 101
M  END
>  <TORSDO>  (97) 
F 23

>  <SCORE>  (97) 
11.497

>  <name>  (97) 
96

>  <ligand_id>  (97) 
96

>  <original_smiles>  (97) 
[H]c1c([H])c([H])c2c(c1[H])C([H])([H])C([H])([H])C([H])([H])C2([H])N([H])C(=O)C1([H])N(C(=O)C([H])(N([H])C(=O)C([H])(N([H])C([H])([H])[H])C([H])([H])[H])C(C([H])([H])[H])(C([H])([H])[H])C([H])([H])[H])C([H])([H])c2c([H])c(OC([H])([H])C([H])([H])C([H])([H])C([H])([H])C([H])([H])N([H])c3c([H])c(C([H])([H])[H])c([H])c(C([H])([H])N([H])C(=O)N4C([H])([H])C([H])([H])C([H])([H])C([H])(n5nc(-c6c([H])c([H])c(Oc7c([H])c([H])c(F)c([H])c7F)c([H])c6[H])c(C(=O)N([H])[H])c5N([H])[H])C4([H])[H])c3Cl)c([H])c([H])c2C1([H])[H]

>  <smiles>  (97) 
[H]c1c([H])c([H])c2c(c1[H])C([H])([H])C([H])([H])C([H])([H])C2([H])N([H])C(=O)C1([H])N(C(=O)C([H])(N([H])C(=O)C([H])(N([H])C([H])([H])[H])C([H])([H])[H])C(C([H])([H])[H])(C([H])([H])[H])C([H])([H])[H])C([H])([H])c2c([H])c(OC([H])([H])C([H])([H])C([H])([H])C([H])([H])C([H])([H])N([H])c3c([H])c(C([H])([H])[H])c([H])c(C([H])([H])N([H])C(=O)N4C([H])([H])C([H])([H])C([H])([H])C([H])(n5nc(-c6c([H])c([H])c(Oc7c([H])c([H])c(F)c([H])c7F)c([H])c6[H])c(C(=O)N([H])[H])c5N([H])[H])C4([H])[H])c3Cl)c([H])c([H])c2C1([H])[H]

$$$$
97:0:0
     RDKit          3D

 94102  0  0  1  0  0  0  0  0999 V2000
  -30.5190  -20.7910   20.8750 C   0  0  0  0  0  3  0  0  0  0  0  0
  -31.1460  -18.3970   20.7870 C   0  0  0  0  0  3  0  0  0  0  0  0
  -31.4660  -19.7520   21.0980 C   0  0  0  0  0  0  0  0  0  0  0  0
  -29.2350  -20.5660   20.3400 C   0  0  0  0  0  0  0  0  0  0  0  0
  -29.8960  -17.9920   20.2720 C   0  0  0  0  0  0  0  0  0  0  0  0
  -28.9500  -19.1260   20.0650 C   0  0  0  0  0  0  0  0  0  0  0  0
  -27.3780  -18.7290   19.4710 Cl  0  0  0  0  0  0  0  0  0  0  0  0
  -30.4780  -15.3180   20.0160 C   0  0  0  0  0  0  0  0  0  0  0  0
  -30.3910  -12.9520   19.0800 C   0  0  0  0  0  2  0  0  0  0  0  0
  -29.4060  -12.8580   17.8910 C   0  0  0  0  0  2  0  0  0  0  0  0
  -27.9710  -12.6080   18.3910 C   0  0  0  0  0  2  0  0  0  0  0  0
  -27.5850  -13.5360   19.5730 C   0  0  0  0  0  3  0  0  0  0  0  0
  -28.6880  -13.5950   20.6510 C   0  0  0  0  0  2  0  0  0  0  0  0
  -29.9120  -14.0430   19.9770 N   0  0  0  0  0  0  0  0  0  0  0  0
  -31.6790  -15.3980   19.7400 O   0  0  0  0  0  0  0  0  0  0  0  0
  -29.6490  -16.4800   20.0930 N   0  0  0  0  0  0  0  0  0  0  0  0
  -28.6710  -16.2470   20.0410 H   0  0  0  0  0  0  0  0  0  0  0  0
  -25.2370  -14.0590   20.4370 C   0  0  0  0  0  0  0  0  0  0  0  0
  -24.2050  -13.2580   20.8410 C   0  0  0  0  0  0  0  0  0  0  0  0
  -24.6900  -11.9160   20.7620 C   0  0  0  0  0  0  0  0  0  0  0  0
  -26.2810  -13.2040   20.1310 N   0  0  0  0  0  0  0  0  0  0  0  0
  -25.9660  -11.9090   20.3930 N   0  0  0  0  0  0  0  0  0  0  0  0
  -23.9950  -10.6380   20.9600 C   0  0  0  0  0  0  0  0  0  0  0  0
  -24.4580   -9.6780   21.8870 C   0  0  0  0  0  3  0  0  0  0  0  0
  -23.7580   -8.4670   22.0720 C   0  0  0  0  0  3  0  0  0  0  0  0
  -22.5820   -8.2050   21.3310 C   0  0  0  0  0  0  0  0  0  0  0  0
  -22.1380   -9.1530   20.3920 C   0  0  0  0  0  3  0  0  0  0  0  0
  -22.8380  -10.3570   20.2050 C   0  0  0  0  0  3  0  0  0  0  0  0
  -21.8530   -7.0440   21.4260 O   0  0  0  0  0  0  0  0  0  0  0  0
  -21.7930   -6.3250   22.5920 C   0  0  0  0  0  0  0  0  0  0  0  0
  -21.2860   -6.8830   23.7860 C   0  0  0  0  0  3  0  0  0  0  0  0
  -21.1780   -6.0880   24.9440 C   0  0  0  0  0  3  0  0  0  0  0  0
  -21.5680   -4.7350   24.9090 C   0  0  0  0  0  0  0  0  0  0  0  0
  -22.0690   -4.1770   23.7200 C   0  0  0  0  0  3  0  0  0  0  0  0
  -22.1780   -4.9700   22.5640 C   0  0  0  0  0  0  0  0  0  0  0  0
  -22.6410   -4.4210   21.4160 F   0  0  0  0  0  0  0  0  0  0  0  0
  -21.4570   -3.9690   26.0200 F   0  0  0  0  0  0  0  0  0  0  0  0
  -22.8130  -13.7060   21.1820 C   0  0  0  0  0  0  0  0  0  0  0  0
  -22.1410  -12.9880   22.0750 N   0  0  0  0  0  0  0  0  0  0  0  0
  -22.3330  -14.7270   20.6930 O   0  0  0  0  0  0  0  0  0  0  0  0
  -22.5420  -12.1600   22.4890 H   0  0  0  0  0  0  0  0  0  0  0  0
  -21.2110  -13.2720   22.3500 H   0  0  0  0  0  0  0  0  0  0  0  0
  -25.3660  -15.4350   20.2770 N   0  0  0  0  0  0  0  0  0  0  0  0
  -24.5880  -16.0660   20.4290 H   0  0  0  0  0  0  0  0  0  0  0  0
  -26.1710  -15.8990   19.8780 H   0  0  0  0  0  0  0  0  0  0  0  0
  -33.8600  -18.9690   21.6640 C   0  0  0  0  0  1  0  0  0  0  0  0
  -32.5480  -20.3570   23.2590 C   0  0  0  0  0  1  0  0  0  0  0  0
  -32.8150  -20.1090   21.7630 C   0  0  2  0  0  0  0  0  0  0  0  0
  -33.6950  -21.3640   19.6410 C   0  0  0  0  0  1  0  0  0  0  0  0
  -33.4610  -21.3900   21.1620 C   0  0  0  0  0  2  0  0  0  0  0  0
  -28.2480  -21.8850   20.1420 C   0  0  0  0  0  2  0  0  0  0  0  0
  -28.6630  -23.5340   20.2430 C   0  0  0  0  0  3  0  0  0  0  0  0
  -27.6390  -24.8530   19.9200 C   0  0  0  0  0  3  0  0  0  0  0  0
  -27.9410  -26.3920   19.9340 O   0  0  0  0  0  0  0  0  0  0  0  0
  -24.5390  -32.0670   23.2140 C   0  0  0  0  0  0  0  0  0  0  0  0
  -26.8930  -27.3910   19.9390 C   0  0  0  0  0  0  0  0  0  0  0  0
  -23.2290  -30.6990   21.6370 C   0  0  0  0  0  3  0  0  0  0  0  0
  -24.5740  -29.1490   20.0880 C   0  0  0  0  0  0  0  0  0  0  0  0
  -25.7680  -30.9630   21.3050 C   0  0  0  0  0  2  0  0  0  0  0  0
  -25.7950  -29.5810   20.6240 C   0  0  0  0  0  0  0  0  0  0  0  0
  -26.9520  -28.7190   20.5320 C   0  0  0  0  0  3  0  0  0  0  0  0
  -25.6460  -27.0690   19.3580 C   0  0  0  0  0  3  0  0  0  0  0  0
  -24.5140  -27.9090   19.4380 C   0  0  0  0  0  3  0  0  0  0  0  0
  -23.3550  -30.0450   20.2350 C   0  0  0  0  0  2  0  0  0  0  0  0
  -24.5360  -31.2650   22.1050 N   0  0  0  0  0  0  0  0  0  0  0  0
  -23.4910  -32.3450   23.8180 O   0  0  0  0  0  0  0  0  0  0  0  0
  -22.6160  -29.6770   22.6260 C   0  0  0  0  0  0  0  0  0  0  0  0
  -21.3050  -29.4060   22.4960 N   0  0  0  0  0  0  0  0  0  0  0  0
  -23.3220  -29.1280   23.4750 O   0  0  0  0  0  0  0  0  0  0  0  0
  -20.7880  -29.9030   21.7830 H   0  0  0  0  0  0  0  0  0  0  0  0
  -18.0460  -27.8820   22.9220 C   0  0  0  0  0  0  0  0  0  0  0  0
  -20.5450  -28.4370   23.2910 C   0  0  0  0  0  3  0  0  0  0  0  0
  -20.8280  -26.9910   22.8230 C   0  0  0  0  0  2  0  0  0  0  0  0
  -19.8230  -26.4850   21.7830 C   0  0  0  0  0  2  0  0  0  0  0  0
  -18.4000  -26.5190   22.3500 C   0  0  0  0  0  2  0  0  0  0  0  0
  -19.0520  -28.7880   23.3490 C   0  0  0  0  0  0  0  0  0  0  0  0
  -18.6700  -30.0530   23.8420 C   0  0  0  0  0  3  0  0  0  0  0  0
  -17.3120  -30.4170   23.9160 C   0  0  0  0  0  3  0  0  0  0  0  0
  -16.3190  -29.5110   23.5060 C   0  0  0  0  0  3  0  0  0  0  0  0
  -16.6850  -28.2460   23.0140 C   0  0  0  0  0  3  0  0  0  0  0  0
  -25.8550  -32.6940   23.7630 C   0  0  0  0  0  3  0  0  0  0  0  0
  -25.5690  -34.0890   24.1340 N   0  0  0  0  0  0  0  0  0  0  0  0
  -25.8900  -35.1590   23.3940 C   0  0  0  0  0  0  0  0  0  0  0  0
  -26.5260  -35.0740   22.3390 O   0  0  0  0  0  0  0  0  0  0  0  0
  -25.0040  -34.2320   24.9580 H   0  0  0  0  0  0  0  0  0  0  0  0
  -24.1910  -36.9950   23.1260 C   0  0  0  0  0  1  0  0  0  0  0  0
  -25.4380  -36.5430   23.9020 C   0  0  0  0  0  3  0  0  0  0  0  0
  -27.6000  -37.3680   24.7250 C   0  0  0  0  0  1  0  0  0  0  0  0
  -26.4880  -37.5800   23.8020 N   0  0  0  0  0  0  0  0  0  0  0  0
  -26.1010  -38.5030   23.9790 H   0  0  0  0  0  0  0  0  0  0  0  0
  -26.4480  -31.9080   24.9980 C   0  0  1  0  0  0  0  0  0  0  0  0
  -25.4130  -31.6310   26.1140 C   0  0  0  0  0  1  0  0  0  0  0  0
  -27.0320  -30.5480   24.5540 C   0  0  0  0  0  1  0  0  0  0  0  0
  -27.6180  -32.7090   25.6150 C   0  0  0  0  0  1  0  0  0  0  0  0
  1  3  1  0
  2  3  2  0
  3 48  1  0
  4  1  2  0
  5  2  1  0
  6  5  2  0
  6  4  1  0
  7  6  1  0
  8 16  1  0
  9 14  1  0
 10 11  1  0
 10  9  1  0
 12 11  1  0
 12 21  1  0
 12 13  1  0
 14  8  1  0
 14 13  1  0
 15  8  2  0
 16  5  1  0
 17 16  1  0
 18 19  2  0
 19 38  1  0
 20 19  1  0
 20 23  1  0
 21 22  1  0
 21 18  1  0
 22 20  2  0
 23 24  1  0
 24 25  2  0
 26 29  1  0
 26 25  1  0
 27 26  2  0
 28 27  1  0
 28 23  2  0
 29 30  1  0
 30 31  1  0
 31 32  2  0
 33 32  1  0
 33 37  1  0
 34 33  2  0
 35 30  2  0
 35 34  1  0
 36 35  1  0
 38 39  1  0
 39 42  1  0
 39 41  1  0
 40 38  2  0
 43 44  1  0
 43 18  1  0
 45 43  1  0
 48 46  1  1
 48 47  1  0
 49 50  1  0
 50 48  1  0
 51 52  1  0
 51  4  1  0
 53 54  1  0
 53 52  2  0
 54 56  1  0
 55 66  2  0
 56 61  1  0
 57 65  1  0
 57 67  1  0
 58 64  1  0
 58 60  1  0
 59 65  1  0
 60 59  1  0
 61 60  2  0
 62 63  1  0
 62 56  2  0
 63 58  2  0
 64 57  1  0
 65 55  1  0
 67 69  2  0
 68 67  1  0
 70 68  1  0
 71 80  2  0
 71 76  1  0
 72 68  1  0
 72 76  1  0
 73 72  1  0
 74 75  1  0
 74 73  1  0
 75 71  1  0
 76 77  2  0
 77 78  1  0
 79 78  2  0
 80 79  1  0
 81 55  1  0
 81 82  1  0
 81 91  1  0
 82 85  1  0
 83 87  1  0
 83 82  1  0
 84 83  2  0
 87 86  1  0
 89 87  1  0
 89 90  1  0
 89 88  1  0
 91 94  1  1
 91 92  1  0
 93 91  1  0
M  ISO  4   8 100  16 100  53 101  54 101
M  END
>  <TORSDO>  (98) 
F 21

>  <SCORE>  (98) 
-14.463

>  <name>  (98) 
97

>  <ligand_id>  (98) 
97

>  <original_smiles>  (98) 
[H]c1c([H])c([H])c2c(c1[H])C([H])([H])C([H])([H])C([H])([H])C2([H])N([H])C(=O)C1([H])N(C(=O)C([H])(N([H])C(=O)C([H])(N([H])C([H])([H])[H])C([H])([H])[H])C(C([H])([H])[H])(C([H])([H])[H])C([H])([H])[H])C([H])([H])c2c([H])c(OC([H])([H])C([H])([H])C([H])([H])c3c([H])c(C(C([H])([H])[H])(C([H])([H])[H])C([H])([H])C([H])([H])[H])c([H])c(N([H])C(=O)N4C([H])([H])C([H])([H])C([H])([H])C([H])(n5nc(-c6c([H])c([H])c(Oc7c([H])c([H])c(F)c([H])c7F)c([H])c6[H])c(C(=O)N([H])[H])c5N([H])[H])C4([H])[H])c3Cl)c([H])c([H])c2C1([H])[H]

>  <smiles>  (98) 
[H]c1c([H])c([H])c2c(c1[H])C([H])([H])C([H])([H])C([H])([H])C2([H])N([H])C(=O)C1([H])N(C(=O)C([H])(N([H])C(=O)C([H])(N([H])C([H])([H])[H])C([H])([H])[H])C(C([H])([H])[H])(C([H])([H])[H])C([H])([H])[H])C([H])([H])c2c([H])c(OC([H])([H])C([H])([H])C([H])([H])c3c([H])c(C(C([H])([H])[H])(C([H])([H])[H])C([H])([H])C([H])([H])[H])c([H])c(N([H])C(=O)N4C([H])([H])C([H])([H])C([H])([H])C([H])(n5nc(-c6c([H])c([H])c(Oc7c([H])c([H])c(F)c([H])c7F)c([H])c6[H])c(C(=O)N([H])[H])c5N([H])[H])C4([H])[H])c3Cl)c([H])c([H])c2C1([H])[H]

$$$$
98:0:0
     RDKit          3D

 94102  0  0  1  0  0  0  0  0999 V2000
  -31.5750  -19.0430   21.0140 C   0  0  0  0  0  0  0  0  0  0  0  0
  -31.7440  -17.6330   20.8710 C   0  0  0  0  0  0  0  0  0  0  0  0
  -30.2750  -19.6180   20.9950 C   0  0  0  0  0  0  0  0  0  0  0  0
  -29.3210  -17.3780   20.6100 C   0  0  0  0  0  0  0  0  0  0  0  0
  -30.6140  -16.7800   20.6370 C   0  0  0  0  0  0  0  0  0  0  0  0
  -29.1560  -18.7750   20.7940 C   0  0  0  0  0  0  0  0  0  0  0  0
  -32.8110  -19.9190   21.2410 C   0  0  0  0  0  1  0  0  0  0  0  0
  -33.1580  -17.0810   21.0460 C   0  0  0  0  0  1  0  0  0  0  0  0
  -28.0960  -16.4880   20.3930 C   0  0  0  0  0  1  0  0  0  0  0  0
  -27.5620  -19.4660   20.7930 Cl  0  0  0  0  0  0  0  0  0  0  0  0
  -30.9330  -14.5140   19.4950 C   0  0  0  0  0  0  0  0  0  0  0  0
  -30.4750  -12.3560   18.3810 C   0  0  0  0  0  2  0  0  0  0  0  0
  -29.3970  -12.5720   17.3020 C   0  0  0  0  0  2  0  0  0  0  0  0
  -27.9870  -12.4450   17.9060 C   0  0  0  0  0  2  0  0  0  0  0  0
  -27.8100  -13.2880   19.1960 C   0  0  0  0  0  3  0  0  0  0  0  0
  -28.9890  -13.0460   20.1690 C   0  0  0  0  0  2  0  0  0  0  0  0
  -30.2520  -13.3350   19.4630 N   0  0  0  0  0  0  0  0  0  0  0  0
  -31.8070  -14.7650   18.6640 O   0  0  0  0  0  0  0  0  0  0  0  0
  -30.6510  -15.3340   20.5290 N   0  0  0  0  0  0  0  0  0  0  0  0
  -30.0640  -14.8570   21.1980 H   0  0  0  0  0  0  0  0  0  0  0  0
  -25.5180  -13.9090   20.2010 C   0  0  0  0  0  0  0  0  0  0  0  0
  -24.4910  -13.1410   20.6810 C   0  0  0  0  0  0  0  0  0  0  0  0
  -24.9140  -11.7830   20.5420 C   0  0  0  0  0  0  0  0  0  0  0  0
  -26.5150  -13.0220   19.8240 N   0  0  0  0  0  0  0  0  0  0  0  0
  -26.1570  -11.7350   20.0760 N   0  0  0  0  0  0  0  0  0  0  0  0
  -24.1880  -10.5280   20.7680 C   0  0  0  0  0  0  0  0  0  0  0  0
  -24.6110   -9.5890   21.7330 C   0  0  0  0  0  3  0  0  0  0  0  0
  -23.8810   -8.3990   21.9400 C   0  0  0  0  0  3  0  0  0  0  0  0
  -22.7130   -8.1410   21.1830 C   0  0  0  0  0  0  0  0  0  0  0  0
  -22.3070   -9.0720   20.2110 C   0  0  0  0  0  3  0  0  0  0  0  0
  -23.0400  -10.2530   20.0010 C   0  0  0  0  0  3  0  0  0  0  0  0
  -21.9560   -6.9980   21.2970 O   0  0  0  0  0  0  0  0  0  0  0  0
  -21.7460   -6.3960   22.5110 C   0  0  0  0  0  0  0  0  0  0  0  0
  -21.1340   -7.0770   23.5870 C   0  0  0  0  0  3  0  0  0  0  0  0
  -20.8770   -6.3980   24.7940 C   0  0  0  0  0  3  0  0  0  0  0  0
  -21.2210   -5.0400   24.9280 C   0  0  0  0  0  0  0  0  0  0  0  0
  -21.8240   -4.3590   23.8550 C   0  0  0  0  0  3  0  0  0  0  0  0
  -22.0830   -5.0340   22.6500 C   0  0  0  0  0  0  0  0  0  0  0  0
  -22.6450   -4.3660   21.6140 F   0  0  0  0  0  0  0  0  0  0  0  0
  -20.9650   -4.3850   26.0860 F   0  0  0  0  0  0  0  0  0  0  0  0
  -23.1510  -13.6340   21.1490 C   0  0  0  0  0  0  0  0  0  0  0  0
  -22.5340  -12.9370   22.0970 N   0  0  0  0  0  0  0  0  0  0  0  0
  -22.6620  -14.6700   20.7020 O   0  0  0  0  0  0  0  0  0  0  0  0
  -22.9410  -12.0940   22.4750 H   0  0  0  0  0  0  0  0  0  0  0  0
  -21.6460  -13.2620   22.4550 H   0  0  0  0  0  0  0  0  0  0  0  0
  -25.6730  -15.2820   20.0350 N   0  0  0  0  0  0  0  0  0  0  0  0
  -24.9270  -15.9330   20.2500 H   0  0  0  0  0  0  0  0  0  0  0  0
  -26.4520  -15.7240   19.5660 H   0  0  0  0  0  0  0  0  0  0  0  0
  -30.0530  -21.1240   21.2280 C   0  0  0  0  0  2  0  0  0  0  0  0
  -29.4390  -21.8690   20.0180 C   0  0  0  0  0  2  0  0  0  0  0  0
  -28.7290  -23.1850   20.4280 C   0  0  0  0  0  2  0  0  0  0  0  0
  -28.4400  -24.1800   19.2740 C   0  0  0  0  0  2  0  0  0  0  0  0
  -28.1900  -25.6160   19.7920 C   0  0  0  0  0  2  0  0  0  0  0  0
  -27.8980  -26.5400   18.7390 O   0  0  0  0  0  0  0  0  0  0  0  0
  -24.5940  -31.3020   22.8890 C   0  0  0  0  0  0  0  0  0  0  0  0
  -26.7850  -27.3170   18.9590 C   0  0  0  0  0  0  0  0  0  0  0  0
  -23.2070  -30.2380   21.1380 C   0  0  0  0  0  3  0  0  0  0  0  0
  -24.4820  -28.8920   19.3800 C   0  0  0  0  0  0  0  0  0  0  0  0
  -25.7280  -30.5240   20.8090 C   0  0  0  0  0  2  0  0  0  0  0  0
  -25.6990  -29.2700   19.9590 C   0  0  0  0  0  0  0  0  0  0  0  0
  -26.8580  -28.4910   19.7440 C   0  0  0  0  0  3  0  0  0  0  0  0
  -25.5590  -26.9500   18.3760 C   0  0  0  0  0  3  0  0  0  0  0  0
  -24.4040  -27.7330   18.5830 C   0  0  0  0  0  3  0  0  0  0  0  0
  -23.2870  -29.7800   19.6540 C   0  0  0  0  0  2  0  0  0  0  0  0
  -24.5330  -30.6910   21.6720 N   0  0  0  0  0  0  0  0  0  0  0  0
  -23.5670  -31.5290   23.5420 O   0  0  0  0  0  0  0  0  0  0  0  0
  -22.5610  -29.1080   21.9690 C   0  0  0  0  0  0  0  0  0  0  0  0
  -21.2200  -29.0350   21.9490 N   0  0  0  0  0  0  0  0  0  0  0  0
  -23.2590  -28.3050   22.5930 O   0  0  0  0  0  0  0  0  0  0  0  0
  -20.7160  -29.7300   21.4180 H   0  0  0  0  0  0  0  0  0  0  0  0
  -17.8180  -27.9580   22.5250 C   0  0  0  0  0  0  0  0  0  0  0  0
  -20.4020  -28.0270   22.6230 C   0  0  0  0  0  3  0  0  0  0  0  0
  -20.3630  -26.7090   21.8180 C   0  0  0  0  0  2  0  0  0  0  0  0
  -19.1730  -26.6200   20.8550 C   0  0  0  0  0  2  0  0  0  0  0  0
  -17.8520  -26.7330   21.6240 C   0  0  0  0  0  2  0  0  0  0  0  0
  -19.0140  -28.5730   22.9820 C   0  0  0  0  0  0  0  0  0  0  0  0
  -18.9240  -29.7300   23.7890 C   0  0  0  0  0  3  0  0  0  0  0  0
  -17.6710  -30.2710   24.1350 C   0  0  0  0  0  3  0  0  0  0  0  0
  -16.4900  -29.6500   23.6940 C   0  0  0  0  0  3  0  0  0  0  0  0
  -16.5680  -28.4910   22.8990 C   0  0  0  0  0  3  0  0  0  0  0  0
  -25.9530  -31.7650   23.5060 C   0  0  0  0  0  3  0  0  0  0  0  0
  -25.7400  -33.0860   24.1110 N   0  0  0  0  0  0  0  0  0  0  0  0
  -26.1160  -34.2450   23.5550 C   0  0  0  0  0  0  0  0  0  0  0  0
  -26.7530  -34.3060   22.5000 O   0  0  0  0  0  0  0  0  0  0  0  0
  -25.1780  -33.1170   24.9490 H   0  0  0  0  0  0  0  0  0  0  0  0
  -24.5060  -36.1740   23.5950 C   0  0  0  0  0  1  0  0  0  0  0  0
  -25.7270  -35.5460   24.2860 C   0  0  0  0  0  3  0  0  0  0  0  0
  -27.9190  -36.1180   25.2300 C   0  0  0  0  0  1  0  0  0  0  0  0
  -26.8260  -36.5340   24.3550 N   0  0  0  0  0  0  0  0  0  0  0  0
  -26.4820  -37.4340   24.6790 H   0  0  0  0  0  0  0  0  0  0  0  0
  -26.5270  -30.7540   24.5720 C   0  0  1  0  0  0  0  0  0  0  0  0
  -25.5100  -30.3770   25.6750 C   0  0  0  0  0  1  0  0  0  0  0  0
  -26.9970  -29.4510   23.8870 C   0  0  0  0  0  1  0  0  0  0  0  0
  -27.7790  -31.3590   25.2530 C   0  0  0  0  0  1  0  0  0  0  0  0
  1  7  1  0
  2  1  2  0
  2  8  1  0
  3  1  1  0
  3 49  1  0
  4  5  2  0
  4  6  1  0
  5  2  1  0
  6  3  2  0
  9  4  1  0
 10  6  1  0
 11 19  1  0
 12 17  1  0
 13 14  1  0
 13 12  1  0
 15 14  1  0
 15 24  1  0
 15 16  1  0
 17 11  1  0
 17 16  1  0
 18 11  2  0
 19  5  1  0
 19 20  1  0
 21 22  2  0
 22 41  1  0
 23 22  1  0
 23 26  1  0
 24 25  1  0
 24 21  1  0
 25 23  2  0
 26 27  1  0
 27 28  2  0
 29 32  1  0
 29 28  1  0
 30 29  2  0
 31 30  1  0
 31 26  2  0
 32 33  1  0
 33 38  2  0
 33 34  1  0
 34 35  2  0
 35 36  1  0
 36 40  1  0
 37 36  2  0
 38 37  1  0
 39 38  1  0
 41 42  1  0
 42 45  1  0
 42 44  1  0
 43 41  2  0
 46 21  1  0
 46 47  1  0
 48 46  1  0
 50 51  1  0
 50 49  1  0
 52 53  1  0
 52 51  1  0
 54 56  1  0
 54 53  1  0
 55 66  2  0
 56 61  1  0
 57 65  1  0
 57 67  1  0
 58 64  1  0
 58 60  1  0
 59 65  1  0
 60 59  1  0
 61 60  2  0
 62 63  1  0
 62 56  2  0
 63 58  2  0
 64 57  1  0
 65 55  1  0
 67 69  2  0
 68 67  1  0
 70 68  1  0
 71 80  2  0
 71 76  1  0
 72 68  1  0
 72 76  1  0
 73 72  1  0
 74 75  1  0
 74 73  1  0
 75 71  1  0
 76 77  2  0
 77 78  1  0
 79 78  2  0
 80 79  1  0
 81 55  1  0
 81 82  1  0
 81 91  1  0
 82 85  1  0
 83 82  1  0
 83 87  1  0
 84 83  2  0
 87 86  1  0
 87 89  1  0
 89 90  1  0
 89 88  1  0
 91 94  1  1
 91 92  1  0
 93 91  1  0
M  ISO  4  11 100  19 100  53 101  54 101
M  END
>  <TORSDO>  (99) 
F 21

>  <SCORE>  (99) 
-9.633

>  <name>  (99) 
98

>  <ligand_id>  (99) 
98

>  <original_smiles>  (99) 
[H]c1c([H])c([H])c2c(c1[H])C([H])([H])C([H])([H])C([H])([H])C2([H])N([H])C(=O)C1([H])N(C(=O)C([H])(N([H])C(=O)C([H])(N([H])C([H])([H])[H])C([H])([H])[H])C(C([H])([H])[H])(C([H])([H])[H])C([H])([H])[H])C([H])([H])c2c([H])c(OC([H])([H])C([H])([H])C([H])([H])C([H])([H])C([H])([H])c3c(Cl)c(C([H])([H])[H])c(N([H])C(=O)N4C([H])([H])C([H])([H])C([H])([H])C([H])(n5nc(-c6c([H])c([H])c(Oc7c([H])c([H])c(F)c([H])c7F)c([H])c6[H])c(C(=O)N([H])[H])c5N([H])[H])C4([H])[H])c(C([H])([H])[H])c3C([H])([H])[H])c([H])c([H])c2C1([H])[H]

>  <smiles>  (99) 
[H]c1c([H])c([H])c2c(c1[H])C([H])([H])C([H])([H])C([H])([H])C2([H])N([H])C(=O)C1([H])N(C(=O)C([H])(N([H])C(=O)C([H])(N([H])C([H])([H])[H])C([H])([H])[H])C(C([H])([H])[H])(C([H])([H])[H])C([H])([H])[H])C([H])([H])c2c([H])c(OC([H])([H])C([H])([H])C([H])([H])C([H])([H])C([H])([H])c3c(Cl)c(C([H])([H])[H])c(N([H])C(=O)N4C([H])([H])C([H])([H])C([H])([H])C([H])(n5nc(-c6c([H])c([H])c(Oc7c([H])c([H])c(F)c([H])c7F)c([H])c6[H])c(C(=O)N([H])[H])c5N([H])[H])C4([H])[H])c(C([H])([H])[H])c3C([H])([H])[H])c([H])c([H])c2C1([H])[H]

$$$$
99:0:0
     RDKit          3D

 90 92  0  0  1  0  0  0  0  0999 V2000
  -25.3500  -21.6700   20.0120 C   0  0  0  0  0  3  0  0  0  0  0  0
  -27.8290  -21.2580   19.3680 C   0  0  0  0  0  3  0  0  0  0  0  0
  -25.5450  -23.2400   19.8130 C   0  0  0  0  0  3  0  0  0  0  0  0
  -27.6080  -19.6870   19.5640 C   0  0  0  0  0  3  0  0  0  0  0  0
  -26.1530  -20.2330   19.9070 C   0  0  0  0  0  0  0  0  0  0  0  0
  -27.0110  -22.7020   19.4440 C   0  0  0  0  0  0  0  0  0  0  0  0
  -25.0890  -18.9120   20.2610 Cl  0  0  0  0  0  0  0  0  0  0  0  0
  -28.0240  -24.0050   18.9360 Cl  0  0  0  0  0  0  0  0  0  0  0  0
  -29.6230  -16.5020   19.2090 C   0  0  0  0  0  0  0  0  0  0  0  0
  -30.3700  -13.8370   18.4060 C   0  0  0  0  0  2  0  0  0  0  0  0
  -29.5320  -12.9510   17.4040 C   0  0  0  0  0  2  0  0  0  0  0  0
  -28.2750  -12.3830   18.0710 C   0  0  0  0  0  2  0  0  0  0  0  0
  -27.7500  -13.4250   19.0700 C   0  0  0  0  0  3  0  0  0  0  0  0
  -28.7880  -14.0050   20.0350 C   0  0  0  0  0  2  0  0  0  0  0  0
  -29.5400  -14.9550   19.1960 N   0  0  0  0  0  0  0  0  0  0  0  0
  -30.8590  -16.5140   18.8710 O   0  0  0  0  0  0  0  0  0  0  0  0
  -28.5260  -17.8870   19.4310 N   0  0  0  0  0  2  0  0  0  0  0  0
  -29.3570  -18.3600   19.1030 H   0  0  0  0  0  0  0  0  0  0  0  0
  -25.6870  -13.9680   20.3330 C   0  0  0  0  0  0  0  0  0  0  0  0
  -24.6800  -13.2040   20.8310 C   0  0  0  0  0  0  0  0  0  0  0  0
  -25.0520  -11.8450   20.5840 C   0  0  0  0  0  0  0  0  0  0  0  0
  -26.5750  -13.0700   19.7890 N   0  0  0  0  0  0  0  0  0  0  0  0
  -26.2440  -11.7780   20.0070 N   0  0  0  0  0  0  0  0  0  0  0  0
  -24.3030  -10.6080   20.7970 C   0  0  0  0  0  0  0  0  0  0  0  0
  -24.7540   -9.6140   21.6900 C   0  0  0  0  0  3  0  0  0  0  0  0
  -23.9960   -8.4410   21.8900 C   0  0  0  0  0  3  0  0  0  0  0  0
  -22.7750   -8.2600   21.1980 C   0  0  0  0  0  0  0  0  0  0  0  0
  -22.3460   -9.2420   20.2890 C   0  0  0  0  0  3  0  0  0  0  0  0
  -23.1040  -10.4060   20.0860 C   0  0  0  0  0  3  0  0  0  0  0  0
  -21.9820   -7.1460   21.3130 O   0  0  0  0  0  0  0  0  0  0  0  0
  -21.8090   -6.5100   22.5150 C   0  0  0  0  0  0  0  0  0  0  0  0
  -21.2890   -7.1800   23.6440 C   0  0  0  0  0  3  0  0  0  0  0  0
  -21.0610   -6.4680   24.8400 C   0  0  0  0  0  3  0  0  0  0  0  0
  -21.3440   -5.0910   24.9040 C   0  0  0  0  0  0  0  0  0  0  0  0
  -21.8570   -4.4220   23.7790 C   0  0  0  0  0  3  0  0  0  0  0  0
  -22.0870   -5.1310   22.5860 C   0  0  0  0  0  0  0  0  0  0  0  0
  -22.5620   -4.4800   21.4970 F   0  0  0  0  0  0  0  0  0  0  0  0
  -21.1180   -4.4040   26.0480 F   0  0  0  0  0  0  0  0  0  0  0  0
  -23.4010  -13.7220   21.4050 C   0  0  0  0  0  0  0  0  0  0  0  0
  -22.8190  -12.9950   22.3500 N   0  0  0  0  0  0  0  0  0  0  0  0
  -22.9420  -14.8080   21.0520 O   0  0  0  0  0  0  0  0  0  0  0  0
  -23.2140  -12.1160   22.6490 H   0  0  0  0  0  0  0  0  0  0  0  0
  -21.9630  -13.3210   22.7790 H   0  0  0  0  0  0  0  0  0  0  0  0
  -25.9100  -15.3430   20.2610 N   0  0  0  0  0  0  0  0  0  0  0  0
  -25.2610  -16.0180   20.6480 H   0  0  0  0  0  0  0  0  0  0  0  0
  -26.7280  -15.7790   19.8560 H   0  0  0  0  0  0  0  0  0  0  0  0
  -24.1980  -24.9980   19.8530 C   0  0  0  0  0 15  0  0  0  0  0  0
  -23.2610  -27.1690   19.9860 C   0  0  0  0  0 15  0  0  0  0  0  0
  -23.0170  -29.2050   21.8950 C   0  0  0  0  0 15  0  0  0  0  0  0
  -25.4520  -28.5570   22.6610 O   0  0  0  0  0  1  0  0  0  0  0  0
  -24.5380  -31.1800   22.7940 C   0  0  0  0  0  0  0  0  0  0  0  0
  -26.7880  -27.9970   21.8590 C   0  0  0  0  0  3  0  0  0  0  0  0
  -24.6260  -28.6310   20.7540 C   0  0  0  0  0  2  0  0  0  0  0  0
  -26.0320  -28.8750   19.4580 C   0  0  1  0  0  0  0  0  0  0  0  0
  -26.0580  -30.9330   20.9150 C   0  0  0  0  0  2  0  0  0  0  0  0
  -26.7520  -29.7250   20.3920 C   0  0  0  0  0  3  0  0  0  0  0  0
  -27.5130  -29.0860   21.3890 C   0  0  0  0  0  2  0  0  0  0  0  0
  -26.9180  -27.0510   20.6870 C   0  0  0  0  0  2  0  0  0  0  0  0
  -26.4680  -27.5180   19.4010 C   0  0  0  0  0  2  0  0  0  0  0  0
  -24.5270  -29.0180   19.3300 C   0  0  0  0  0  2  0  0  0  0  0  0
  -24.8730  -30.4100   21.5190 N   0  0  0  0  0  2  0  0  0  0  0  0
  -23.3830  -31.2980   23.2590 O   0  0  0  0  0  0  0  0  0  0  0  0
  -23.7960  -26.9880   22.6330 C   0  0  0  0  0  2  0  0  0  0  0  0
  -22.2920  -26.6900   22.5030 N   0  0  0  0  0  0  0  0  0  0  0  0
  -23.7720  -27.3700   23.8150 O   0  0  0  0  0  1  0  0  0  0  0  0
  -22.2220  -26.3150   21.5670 H   0  0  0  0  0  0  0  0  0  0  0  0
  -18.3420  -27.1000   21.7360 C   0  0  0  0  0  0  0  0  0  0  0  0
  -20.7960  -26.8850   22.9420 C   0  0  0  0  0  3  0  0  0  0  0  0
  -20.5440  -25.5330   22.2810 C   0  0  0  0  0  2  0  0  0  0  0  0
  -20.0520  -25.6040   20.8230 C   0  0  0  0  0  2  0  0  0  0  0  0
  -18.5780  -25.8630   20.9090 C   0  0  0  0  0  2  0  0  0  0  0  0
  -19.4080  -27.7270   22.5050 C   0  0  0  0  0  0  0  0  0  0  0  0
  -18.9480  -28.9240   23.1540 C   0  0  0  0  0  3  0  0  0  0  0  0
  -17.6010  -29.4040   23.0840 C   0  0  0  0  0  3  0  0  0  0  0  0
  -16.6040  -28.7010   22.3840 C   0  0  0  0  0  3  0  0  0  0  0  0
  -16.9950  -27.5450   21.7040 C   0  0  0  0  0  3  0  0  0  0  0  0
  -25.5100  -32.0860   23.7860 C   0  0  0  0  0  3  0  0  0  0  0  0
  -25.7930  -31.5180   25.2710 C   0  0  1  0  0  0  0  0  0  0  0  0
  -24.5270  -31.2890   26.1390 C   0  0  0  0  0  1  0  0  0  0  0  0
  -26.5450  -30.1810   25.2050 C   0  0  0  0  0  1  0  0  0  0  0  0
  -26.7210  -32.4640   26.1050 C   0  0  0  0  0  1  0  0  0  0  0  0
  -25.0170  -33.4900   24.0150 N   0  0  0  0  0  0  0  0  0  0  0  0
  -25.4960  -34.6260   23.4630 C   0  0  0  0  0  0  0  0  0  0  0  0
  -26.3680  -34.6010   22.5950 O   0  0  0  0  0  0  0  0  0  0  0  0
  -24.2530  -33.5740   24.6680 H   0  0  0  0  0  0  0  0  0  0  0  0
  -23.7320  -36.3830   22.9850 C   0  0  0  0  0  1  0  0  0  0  0  0
  -24.9140  -36.0060   23.8940 C   0  0  0  0  0  3  0  0  0  0  0  0
  -26.9030  -37.0720   24.9070 C   0  0  0  0  0  1  0  0  0  0  0  0
  -25.8870  -37.1290   23.8620 N   0  0  0  0  0  0  0  0  0  0  0  0
  -25.4010  -38.0190   23.9440 H   0  0  0  0  0  0  0  0  0  0  0  0
  2  6  2  0
  2  4  1  0
  3  1  2  0
  4  5  2  0
  5  1  1  0
  5  7  1  0
  6  3  1  0
  8  6  1  0
  9 17  1  0
 10 15  1  0
 11 12  1  0
 11 10  1  0
 13 12  1  0
 13 22  1  0
 13 14  1  0
 15  9  1  0
 15 14  1  0
 16  9  2  0
 18 17  1  0
 19 20  2  0
 20 39  1  0
 21 24  1  0
 21 20  1  0
 22 23  1  0
 22 19  1  0
 23 21  2  0
 24 25  1  0
 25 26  2  0
 27 30  1  0
 27 26  1  0
 28 27  2  0
 29 28  1  0
 29 24  2  0
 30 31  1  0
 31 36  2  0
 31 32  1  0
 32 33  2  0
 33 34  1  0
 34 38  1  0
 35 34  2  0
 36 35  1  0
 37 36  1  0
 39 40  1  0
 40 42  1  0
 40 43  1  0
 41 39  2  0
 44 19  1  0
 44 45  1  0
 46 44  1  0
 51 62  2  0
 52 50  1  0
 54 56  1  0
 54 53  1  1
 55 61  1  0
 56 55  1  0
 56 57  1  0
 57 52  1  0
 58 52  1  0
 59 54  1  0
 59 58  1  0
 60 54  1  0
 60 53  1  0
 61 51  1  0
 63 65  1  0
 64 63  1  0
 66 64  1  0
 67 72  1  0
 68 64  1  0
 69 68  1  0
 70 71  1  0
 70 69  1  0
 71 67  1  0
 72 68  1  0
 72 73  2  0
 74 73  1  0
 75 74  2  0
 76 67  2  0
 76 75  1  0
 77 51  1  0
 77 82  1  0
 77 78  1  0
 78 81  1  1
 78 79  1  0
 80 78  1  0
 82 85  1  0
 83 87  1  0
 83 82  1  0
 84 83  2  0
 87 86  1  0
 89 87  1  0
 89 90  1  0
 89 88  1  0
M  ISO  4   9 100  17 100  49 101  50 101
M  END
>  <TORSDO>  (100) 
F 19

>  <SCORE>  (100) 
-6.752

>  <name>  (100) 
99

>  <ligand_id>  (100) 
99

>  <original_smiles>  (100) 
[H]c1c([H])c([H])c2c(c1[H])C([H])([H])C([H])([H])C([H])([H])C2([H])N([H])C(=O)C1([H])N(C(=O)C([H])(N([H])C(=O)C([H])(N([H])C([H])([H])[H])C([H])([H])[H])C(C([H])([H])[H])(C([H])([H])[H])C([H])([H])[H])C([H])([H])c2c([H])c(OC([H])([H])C([H])([H])C([H])([H])c3c([H])c(Cl)c(N([H])C(=O)N4C([H])([H])C([H])([H])C([H])([H])C([H])(n5nc(-c6c([H])c([H])c(Oc7c([H])c([H])c(F)c([H])c7F)c([H])c6[H])c(C(=O)N([H])[H])c5N([H])[H])C4([H])[H])c([H])c3Cl)c([H])c([H])c2C1([H])[H]

>  <smiles>  (100) 
[H]c1c([H])c([H])c2c(c1[H])C([H])([H])C([H])([H])C([H])([H])C2([H])N([H])C(=O)C1([H])N(C(=O)C([H])(N([H])C(=O)C([H])(N([H])C([H])([H])[H])C([H])([H])[H])C(C([H])([H])[H])(C([H])([H])[H])C([H])([H])[H])C([H])([H])c2c([H])c(OC([H])([H])C([H])([H])C([H])([H])c3c([H])c(Cl)c(N([H])C(=O)N4C([H])([H])C([H])([H])C([H])([H])C([H])(n5nc(-c6c([H])c([H])c(Oc7c([H])c([H])c(F)c([H])c7F)c([H])c6[H])c(C(=O)N([H])[H])c5N([H])[H])C4([H])[H])c([H])c3Cl)c([H])c([H])c2C1([H])[H]

$$$$
