0:0:0
     RDKit          3D

 92100  0  0  1  0  0  0  0  0999 V2000
  -29.4550  -20.7020   21.2110 C   0  0  0  0  0  0  0  0  0  0  0  0
  -28.4550  -21.5360   20.7840 C   0  0  0  0  0  0  0  0  0  0  0  0
  -29.8260  -21.2770   22.4580 C   0  0  0  0  0  0  0  0  0  0  0  0
  -27.6200  -21.4760   19.5450 C   0  0  0  0  0  1  0  0  0  0  0  0
  -29.2230  -22.4170   22.7340 N   0  0  0  0  0  0  0  0  0  0  0  0
  -28.4230  -22.6100   21.6620 N   0  0  0  0  0  0  0  0  0  0  0  0
  -31.0500  -20.6460   23.4930 Cl  0  0  0  0  0  0  0  0  0  0  0  0
  -30.1130  -19.5530   20.4860 C   0  0  0  0  0  2  0  0  0  0  0  0
  -29.6830  -18.1440   20.9300 C   0  0  0  0  0  2  0  0  0  0  0  0
  -30.6970  -17.1060   20.4030 C   0  0  0  0  0  2  0  0  0  0  0  0
  -31.0390  -14.6660   20.2310 C   0  0  0  0  0  0  0  0  0  0  0  0
  -30.7310  -12.4730   19.1700 C   0  0  0  0  0  2  0  0  0  0  0  0
  -29.7880  -12.6600   17.9620 C   0  0  0  0  0  2  0  0  0  0  0  0
  -28.3100  -12.5640   18.3980 C   0  0  0  0  0  2  0  0  0  0  0  0
  -27.9880  -13.4420   19.6390 C   0  0  0  0  0  3  0  0  0  0  0  0
  -29.0430  -13.2290   20.7490 C   0  0  0  0  0  2  0  0  0  0  0  0
  -30.3690  -13.4890   20.1670 N   0  0  0  0  0  0  0  0  0  0  0  0
  -32.1790  -14.8250   19.7890 O   0  0  0  0  0  0  0  0  0  0  0  0
  -30.2920  -15.7160   20.6110 N   0  0  0  0  0  0  0  0  0  0  0  0
  -29.3450  -15.5310   20.9050 H   0  0  0  0  0  0  0  0  0  0  0  0
  -25.6120  -14.1120   20.3690 C   0  0  0  0  0  0  0  0  0  0  0  0
  -24.5290  -13.3660   20.7510 C   0  0  0  0  0  0  0  0  0  0  0  0
  -24.9600  -12.0030   20.7220 C   0  0  0  0  0  0  0  0  0  0  0  0
  -26.6330  -13.2050   20.1310 N   0  0  0  0  0  0  0  0  0  0  0  0
  -26.2450  -11.9330   20.4020 N   0  0  0  0  0  0  0  0  0  0  0  0
  -24.2080  -10.7580   20.9250 C   0  0  0  0  0  0  0  0  0  0  0  0
  -24.6160   -9.7950   21.8730 C   0  0  0  0  0  3  0  0  0  0  0  0
  -23.8640   -8.6150   22.0640 C   0  0  0  0  0  3  0  0  0  0  0  0
  -22.6930   -8.3880   21.3040 C   0  0  0  0  0  0  0  0  0  0  0  0
  -22.3030   -9.3410   20.3460 C   0  0  0  0  0  3  0  0  0  0  0  0
  -23.0530  -10.5110   20.1550 C   0  0  0  0  0  3  0  0  0  0  0  0
  -21.9200   -7.2560   21.3990 O   0  0  0  0  0  0  0  0  0  0  0  0
  -21.8370   -6.5370   22.5640 C   0  0  0  0  0  0  0  0  0  0  0  0
  -21.3860   -7.1180   23.7690 C   0  0  0  0  0  3  0  0  0  0  0  0
  -21.2510   -6.3260   24.9260 C   0  0  0  0  0  3  0  0  0  0  0  0
  -21.5590   -4.9530   24.8800 C   0  0  0  0  0  0  0  0  0  0  0  0
  -22.0030   -4.3700   23.6800 C   0  0  0  0  0  3  0  0  0  0  0  0
  -22.1390   -5.1600   22.5250 C   0  0  0  0  0  0  0  0  0  0  0  0
  -22.5480   -4.5910   21.3660 F   0  0  0  0  0  0  0  0  0  0  0  0
  -21.4220   -4.1890   25.9880 F   0  0  0  0  0  0  0  0  0  0  0  0
  -23.1450  -13.8760   21.0290 C   0  0  0  0  0  0  0  0  0  0  0  0
  -22.4100  -13.2050   21.9090 N   0  0  0  0  0  0  0  0  0  0  0  0
  -22.7250  -14.9060   20.5030 O   0  0  0  0  0  0  0  0  0  0  0  0
  -22.7610  -12.3710   22.3570 H   0  0  0  0  0  0  0  0  0  0  0  0
  -21.4830  -13.5320   22.1400 H   0  0  0  0  0  0  0  0  0  0  0  0
  -25.8030  -15.4770   20.1850 N   0  0  0  0  0  0  0  0  0  0  0  0
  -25.0450  -16.1410   20.3030 H   0  0  0  0  0  0  0  0  0  0  0  0
  -26.6500  -15.9000   19.8300 H   0  0  0  0  0  0  0  0  0  0  0  0
  -27.8180  -23.9200   21.4730 C   0  0  0  0  0  2  0  0  0  0  0  0
  -28.7150  -24.7400   20.5180 C   0  0  0  0  0  2  0  0  0  0  0  0
  -28.7450  -26.2590   20.7430 C   0  0  0  0  0  2  0  0  0  0  0  0
  -28.4030  -26.9350   19.5370 O   0  0  0  0  0  0  0  0  0  0  0  0
  -24.6440  -31.7610   23.1260 C   0  0  0  0  0  0  0  0  0  0  0  0
  -27.2370  -27.6400   19.6350 C   0  0  0  0  0  0  0  0  0  0  0  0
  -23.3950  -30.4480   21.4380 C   0  0  0  0  0  3  0  0  0  0  0  0
  -24.8160  -29.0530   19.8480 C   0  0  0  0  0  0  0  0  0  0  0  0
  -25.8970  -30.8910   21.1610 C   0  0  0  0  0  2  0  0  0  0  0  0
  -25.9820  -29.5750   20.4190 C   0  0  0  0  0  0  0  0  0  0  0  0
  -27.2010  -28.8740   20.3100 C   0  0  0  0  0  3  0  0  0  0  0  0
  -26.0630  -27.1150   19.0660 C   0  0  0  0  0  3  0  0  0  0  0  0
  -24.8470  -27.8200   19.1710 C   0  0  0  0  0  3  0  0  0  0  0  0
  -23.5560  -29.8700   20.0070 C   0  0  0  0  0  2  0  0  0  0  0  0
  -24.6640  -31.0440   21.9660 N   0  0  0  0  0  0  0  0  0  0  0  0
  -23.5840  -31.9690   23.7310 O   0  0  0  0  0  0  0  0  0  0  0  0
  -22.8120  -29.3460   22.3520 C   0  0  0  0  0  0  0  0  0  0  0  0
  -21.4970  -29.1080   22.2360 N   0  0  0  0  0  0  0  0  0  0  0  0
  -23.5400  -28.7090   23.1190 O   0  0  0  0  0  0  0  0  0  0  0  0
  -20.9700  -29.6790   21.5900 H   0  0  0  0  0  0  0  0  0  0  0  0
  -18.2030  -27.6890   22.6670 C   0  0  0  0  0  0  0  0  0  0  0  0
  -20.7390  -28.0920   22.9640 C   0  0  0  0  0  3  0  0  0  0  0  0
  -20.9310  -26.6950   22.3270 C   0  0  0  0  0  2  0  0  0  0  0  0
  -19.8540  -26.3490   21.2930 C   0  0  0  0  0  2  0  0  0  0  0  0
  -18.4650  -26.3810   21.9390 C   0  0  0  0  0  2  0  0  0  0  0  0
  -19.2720  -28.5000   23.1330 C   0  0  0  0  0  0  0  0  0  0  0  0
  -18.9740  -29.7230   23.7710 C   0  0  0  0  0  3  0  0  0  0  0  0
  -17.6420  -30.1420   23.9420 C   0  0  0  0  0  3  0  0  0  0  0  0
  -16.5880  -29.3250   23.4940 C   0  0  0  0  0  3  0  0  0  0  0  0
  -16.8700  -28.0990   22.8660 C   0  0  0  0  0  3  0  0  0  0  0  0
  -25.9460  -32.3730   23.7330 C   0  0  0  0  0  3  0  0  0  0  0  0
  -25.6310  -33.7460   24.1490 N   0  0  0  0  0  0  0  0  0  0  0  0
  -25.9410  -34.8430   23.4480 C   0  0  0  0  0  0  0  0  0  0  0  0
  -26.5940  -34.8070   22.4000 O   0  0  0  0  0  0  0  0  0  0  0  0
  -25.0500  -33.8470   24.9680 H   0  0  0  0  0  0  0  0  0  0  0  0
  -24.1910  -36.6350   23.2190 C   0  0  0  0  0  1  0  0  0  0  0  0
  -25.4470  -36.1960   23.9900 C   0  0  0  0  0  3  0  0  0  0  0  0
  -27.5830  -37.0560   24.8440 C   0  0  0  0  0  1  0  0  0  0  0  0
  -26.4700  -37.2630   23.9230 N   0  0  0  0  0  0  0  0  0  0  0  0
  -26.0590  -38.1710   24.1200 H   0  0  0  0  0  0  0  0  0  0  0  0
  -26.5260  -31.5400   24.9400 C   0  0  1  0  0  0  0  0  0  0  0  0
  -25.4830  -31.2300   26.0380 C   0  0  0  0  0  1  0  0  0  0  0  0
  -27.1060  -30.1940   24.4450 C   0  0  0  0  0  1  0  0  0  0  0  0
  -27.6980  -32.3100   25.5930 C   0  0  0  0  0  1  0  0  0  0  0  0
  1  3  1  0
  2  1  2  0
  2  6  1  0
  3  5  2  0
  3  7  1  0
  4  2  1  0
  6  5  1  0
  8  9  1  0
  8  1  1  0
 10 19  1  0
 10  9  1  0
 11 19  1  0
 12 17  1  0
 13 14  1  0
 13 12  1  0
 15 14  1  0
 15 24  1  0
 15 16  1  0
 17 11  1  0
 17 16  1  0
 18 11  2  0
 19 20  1  0
 21 22  2  0
 22 41  1  0
 23 22  1  0
 23 26  1  0
 24 21  1  0
 24 25  1  0
 25 23  2  0
 26 27  1  0
 27 28  2  0
 29 32  1  0
 29 28  1  0
 30 29  2  0
 31 30  1  0
 31 26  2  0
 32 33  1  0
 33 34  1  0
 34 35  2  0
 36 35  1  0
 36 40  1  0
 37 36  2  0
 38 33  2  0
 38 37  1  0
 39 38  1  0
 41 42  1  0
 42 45  1  0
 42 44  1  0
 43 41  2  0
 46 47  1  0
 46 21  1  0
 48 46  1  0
 49  6  1  0
 50 51  1  0
 50 49  1  0
 52 54  1  0
 52 51  1  0
 53 64  2  0
 54 59  1  0
 55 63  1  0
 55 65  1  0
 56 62  1  0
 56 58  1  0
 57 63  1  0
 58 57  1  0
 59 58  2  0
 60 61  1  0
 60 54  2  0
 61 56  2  0
 62 55  1  0
 63 53  1  0
 65 67  2  0
 66 65  1  0
 68 66  1  0
 69 78  2  0
 69 74  1  0
 70 66  1  0
 70 74  1  0
 71 70  1  0
 72 73  1  0
 72 71  1  0
 73 69  1  0
 74 75  2  0
 75 76  1  0
 77 76  2  0
 78 77  1  0
 79 53  1  0
 79 80  1  0
 79 89  1  0
 80 83  1  0
 81 85  1  0
 81 80  1  0
 82 81  2  0
 85 84  1  0
 87 85  1  0
 87 88  1  0
 87 86  1  0
 89 92  1  1
 89 90  1  0
 91 89  1  0
M  ISO  4  11 100  19 100  51 101  52 101
M  END
>  <TORSDO>  (1) 
F 22

>  <SCORE>  (1) 
-12.785

>  <name>  (1) 
0

>  <ligand_id>  (1) 
0

>  <original_smiles>  (1) 
[H]c1c([H])c([H])c2c(c1[H])C([H])([H])C([H])([H])C([H])([H])C2([H])N([H])C(=O)C1([H])N(C(=O)C([H])(N([H])C(=O)C([H])(N([H])C([H])([H])[H])C([H])([H])[H])C(C([H])([H])[H])(C([H])([H])[H])C([H])([H])[H])C([H])([H])c2c([H])c(OC([H])([H])C([H])([H])C([H])([H])n3nc(Cl)c(C([H])([H])C([H])([H])C([H])([H])N([H])C(=O)N4C([H])([H])C([H])([H])C([H])([H])C([H])(n5nc(-c6c([H])c([H])c(Oc7c([H])c([H])c(F)c([H])c7F)c([H])c6[H])c(C(=O)N([H])[H])c5N([H])[H])C4([H])[H])c3C([H])([H])[H])c([H])c([H])c2C1([H])[H]

>  <smiles>  (1) 
[H]c1c([H])c([H])c2c(c1[H])C([H])([H])C([H])([H])C([H])([H])C2([H])N([H])C(=O)C1([H])N(C(=O)C([H])(N([H])C(=O)C([H])(N([H])C([H])([H])[H])C([H])([H])[H])C(C([H])([H])[H])(C([H])([H])[H])C([H])([H])[H])C([H])([H])c2c([H])c(OC([H])([H])C([H])([H])C([H])([H])n3nc(Cl)c(C([H])([H])C([H])([H])C([H])([H])N([H])C(=O)N4C([H])([H])C([H])([H])C([H])([H])C([H])(n5nc(-c6c([H])c([H])c(Oc7c([H])c([H])c(F)c([H])c7F)c([H])c6[H])c(C(=O)N([H])[H])c5N([H])[H])C4([H])[H])c3C([H])([H])[H])c([H])c([H])c2C1([H])[H]

$$$$
1:0:0
     RDKit          3D

 95103  0  0  1  0  0  0  0  0999 V2000
  -30.3120  -24.3470   20.8970 C   0  0  0  0  0  3  0  0  0  0  0  0
  -27.8800  -24.2790   21.0560 C   0  0  0  0  0  3  0  0  0  0  0  0
  -29.0810  -25.0160   21.0100 C   0  0  0  0  0  0  0  0  0  0  0  0
  -30.3500  -22.9420   20.8110 C   0  0  0  0  0  0  0  0  0  0  0  0
  -29.1470  -22.1960   20.8570 C   0  0  0  0  0  0  0  0  0  0  0  0
  -27.9080  -22.8740   20.9720 C   0  0  0  0  0  0  0  0  0  0  0  0
  -31.6930  -22.2560   20.6560 C   0  0  0  0  0  1  0  0  0  0  0  0
  -26.4110  -22.0110   20.9650 Cl  0  0  0  0  0  0  0  0  0  0  0  0
  -29.0470  -26.5300   21.0140 C   0  0  0  0  0  2  0  0  0  0  0  0
  -28.5030  -27.0100   19.7890 O   0  0  0  0  0  0  0  0  0  0  0  0
  -24.6980  -31.7950   23.4210 C   0  0  0  0  0  0  0  0  0  0  0  0
  -27.3430  -27.7280   19.9070 C   0  0  0  0  0  0  0  0  0  0  0  0
  -23.4970  -30.6090   21.6070 C   0  0  0  0  0  3  0  0  0  0  0  0
  -24.9550  -29.2140   20.0490 C   0  0  0  0  0  0  0  0  0  0  0  0
  -26.0240  -30.9610   21.4880 C   0  0  0  0  0  2  0  0  0  0  0  0
  -26.1030  -29.6670   20.7100 C   0  0  0  0  0  0  0  0  0  0  0  0
  -27.3010  -28.9300   20.6430 C   0  0  0  0  0  3  0  0  0  0  0  0
  -26.1870  -27.2780   19.2400 C   0  0  0  0  0  3  0  0  0  0  0  0
  -24.9870  -28.0140   19.3140 C   0  0  0  0  0  3  0  0  0  0  0  0
  -23.7180  -30.0750   20.1660 C   0  0  0  0  0  2  0  0  0  0  0  0
  -24.7570  -31.1290   22.2330 N   0  0  0  0  0  0  0  0  0  0  0  0
  -23.6140  -32.0220   23.9730 O   0  0  0  0  0  0  0  0  0  0  0  0
  -22.8140  -29.5000   22.4380 C   0  0  0  0  0  0  0  0  0  0  0  0
  -21.4880  -29.3660   22.2750 N   0  0  0  0  0  0  0  0  0  0  0  0
  -23.4730  -28.7670   23.1790 O   0  0  0  0  0  0  0  0  0  0  0  0
  -21.0190  -30.0080   21.6520 H   0  0  0  0  0  0  0  0  0  0  0  0
  -18.0830  -28.2110   22.5980 C   0  0  0  0  0  0  0  0  0  0  0  0
  -20.6410  -28.3660   22.9210 C   0  0  0  0  0  3  0  0  0  0  0  0
  -20.7160  -27.0120   22.1800 C   0  0  0  0  0  2  0  0  0  0  0  0
  -19.6180  -26.8400   21.1240 C   0  0  0  0  0  2  0  0  0  0  0  0
  -18.2330  -26.9460   21.7680 C   0  0  0  0  0  2  0  0  0  0  0  0
  -19.2150  -28.8860   23.1240 C   0  0  0  0  0  0  0  0  0  0  0  0
  -19.0220  -30.0780   23.8580 C   0  0  0  0  0  3  0  0  0  0  0  0
  -17.7280  -30.5910   24.0680 C   0  0  0  0  0  3  0  0  0  0  0  0
  -16.6100  -29.9090   23.5580 C   0  0  0  0  0  3  0  0  0  0  0  0
  -16.7880  -28.7200   22.8290 C   0  0  0  0  0  3  0  0  0  0  0  0
  -25.9850  -32.3260   24.1280 C   0  0  0  0  0  3  0  0  0  0  0  0
  -25.6980  -33.6840   24.6100 N   0  0  0  0  0  0  0  0  0  0  0  0
  -26.0980  -34.8060   23.9980 C   0  0  0  0  0  0  0  0  0  0  0  0
  -26.8180  -34.8040   22.9950 O   0  0  0  0  0  0  0  0  0  0  0  0
  -25.0730  -33.7630   25.3990 H   0  0  0  0  0  0  0  0  0  0  0  0
  -24.4400  -36.6840   23.7710 C   0  0  0  0  0  1  0  0  0  0  0  0
  -25.6220  -36.1450   24.5930 C   0  0  0  0  0  3  0  0  0  0  0  0
  -27.7300  -36.8500   25.6330 C   0  0  0  0  0  1  0  0  0  0  0  0
  -26.6870  -37.1690   24.6630 N   0  0  0  0  0  0  0  0  0  0  0  0
  -26.2960  -38.0760   24.9040 H   0  0  0  0  0  0  0  0  0  0  0  0
  -26.4740  -31.4030   25.3120 C   0  0  1  0  0  0  0  0  0  0  0  0
  -25.3630  -31.0510   26.3270 C   0  0  0  0  0  1  0  0  0  0  0  0
  -27.0520  -30.0770   24.7650 C   0  0  0  0  0  1  0  0  0  0  0  0
  -27.6210  -32.1010   26.0820 C   0  0  0  0  0  1  0  0  0  0  0  0
  -29.1990  -20.8310   20.7350 O   0  0  0  0  0  0  0  0  0  0  0  0
  -29.4210  -20.1340   21.9560 C   0  0  0  0  0  2  0  0  0  0  0  0
  -29.5410  -18.6360   21.6460 C   0  0  0  0  0  2  0  0  0  0  0  0
  -30.8180  -18.3220   20.8570 C   0  0  0  0  0  2  0  0  0  0  0  0
  -31.2780  -16.8650   20.9470 C   0  0  0  0  0  2  0  0  0  0  0  0
  -32.4880  -16.6210   20.0310 C   0  0  0  0  0  2  0  0  0  0  0  0
  -33.1270  -15.2400   20.2130 C   0  0  0  0  0  2  0  0  0  0  0  0
  -32.1310  -13.2070   19.1630 C   0  0  0  0  0  0  0  0  0  0  0  0
  -31.4980  -10.8420   18.9170 C   0  0  0  0  0  2  0  0  0  0  0  0
  -30.4410  -10.5750   17.8350 C   0  0  0  0  0  2  0  0  0  0  0  0
  -29.0260  -10.7460   18.4110 C   0  0  0  0  0  2  0  0  0  0  0  0
  -28.8530  -12.0950   19.1520 C   0  0  0  0  0  3  0  0  0  0  0  0
  -30.0000  -12.3270   20.1610 C   0  0  0  0  0  2  0  0  0  0  0  0
  -31.2930  -12.1890   19.4630 N   0  0  0  0  0  0  0  0  0  0  0  0
  -32.9630  -13.1720   18.2500 O   0  0  0  0  0  0  0  0  0  0  0  0
  -32.1430  -14.1700   20.0920 N   0  0  0  0  0  0  0  0  0  0  0  0
  -31.4760  -14.0720   20.8430 H   0  0  0  0  0  0  0  0  0  0  0  0
  -26.8270  -13.3010   20.1920 C   0  0  0  0  0  0  0  0  0  0  0  0
  -25.6350  -12.8330   20.6770 C   0  0  0  0  0  0  0  0  0  0  0  0
  -25.6840  -11.4120   20.5420 C   0  0  0  0  0  0  0  0  0  0  0  0
  -27.5430  -12.1810   19.7980 N   0  0  0  0  0  0  0  0  0  0  0  0
  -26.8620  -11.0360   20.0630 N   0  0  0  0  0  0  0  0  0  0  0  0
  -24.6570  -10.3920   20.7900 C   0  0  0  0  0  0  0  0  0  0  0  0
  -24.8670   -9.3400   21.7100 C   0  0  0  0  0  3  0  0  0  0  0  0
  -23.8580   -8.3820   21.9440 C   0  0  0  0  0  3  0  0  0  0  0  0
  -22.6240   -8.4690   21.2590 C   0  0  0  0  0  0  0  0  0  0  0  0
  -22.4280   -9.5040   20.3270 C   0  0  0  0  0  3  0  0  0  0  0  0
  -23.4350  -10.4560   20.0920 C   0  0  0  0  0  3  0  0  0  0  0  0
  -21.5960   -7.5680   21.4020 O   0  0  0  0  0  0  0  0  0  0  0  0
  -21.3850   -6.8980   22.5790 C   0  0  0  0  0  0  0  0  0  0  0  0
  -21.1460   -7.5810   23.7920 C   0  0  0  0  0  3  0  0  0  0  0  0
  -20.8660   -6.8540   24.9660 C   0  0  0  0  0  3  0  0  0  0  0  0
  -20.8140   -5.4480   24.9290 C   0  0  0  0  0  0  0  0  0  0  0  0
  -21.0460   -4.7660   23.7220 C   0  0  0  0  0  3  0  0  0  0  0  0
  -21.3280   -5.4910   22.5490 C   0  0  0  0  0  0  0  0  0  0  0  0
  -21.5300   -4.8290   21.3840 F   0  0  0  0  0  0  0  0  0  0  0  0
  -20.5370   -4.7490   26.0550 F   0  0  0  0  0  0  0  0  0  0  0  0
  -24.4740  -13.6610   21.1490 C   0  0  0  0  0  0  0  0  0  0  0  0
  -23.7050  -13.1490   22.1040 N   0  0  0  0  0  0  0  0  0  0  0  0
  -24.2720  -14.7910   20.7080 O   0  0  0  0  0  0  0  0  0  0  0  0
  -23.8830  -12.2300   22.4810 H   0  0  0  0  0  0  0  0  0  0  0  0
  -22.9260  -13.6830   22.4620 H   0  0  0  0  0  0  0  0  0  0  0  0
  -27.3520  -14.5800   20.0380 N   0  0  0  0  0  0  0  0  0  0  0  0
  -26.8270  -15.4140   20.2740 H   0  0  0  0  0  0  0  0  0  0  0  0
  -28.2590  -14.7830   19.6330 H   0  0  0  0  0  0  0  0  0  0  0  0
  1  3  1  0
  3  9  1  0
  3  2  2  0
  4  5  1  0
  4  1  2  0
  5  6  2  0
  6  2  1  0
  7  4  1  0
  8  6  1  0
 10 12  1  0
 10  9  1  0
 11 22  2  0
 12 17  1  0
 13 21  1  0
 13 23  1  0
 14 20  1  0
 14 16  1  0
 15 21  1  0
 16 15  1  0
 17 16  2  0
 18 19  1  0
 18 12  2  0
 19 14  2  0
 20 13  1  0
 21 11  1  0
 23 25  2  0
 24 23  1  0
 26 24  1  0
 27 36  2  0
 27 32  1  0
 28 24  1  0
 28 32  1  0
 29 28  1  0
 30 31  1  0
 30 29  1  0
 31 27  1  0
 32 33  2  0
 33 34  1  0
 35 34  2  0
 36 35  1  0
 37 11  1  0
 37 38  1  0
 37 47  1  0
 38 41  1  0
 39 43  1  0
 39 38  1  0
 40 39  2  0
 43 42  1  0
 43 45  1  0
 45 46  1  0
 45 44  1  0
 47 50  1  1
 47 48  1  0
 49 47  1  0
 51  5  1  0
 51 52  1  0
 53 52  1  0
 54 55  1  0
 54 53  1  0
 56 57  1  0
 56 55  1  0
 58 64  1  0
 58 66  1  0
 59 64  1  0
 60 61  1  0
 60 59  1  0
 62 61  1  0
 62 71  1  0
 62 63  1  0
 64 63  1  0
 65 58  2  0
 66 57  1  0
 66 67  1  0
 68 69  2  0
 69 88  1  0
 70 69  1  0
 70 73  1  0
 71 72  1  0
 71 68  1  0
 72 70  2  0
 73 74  1  0
 74 75  2  0
 76 79  1  0
 76 75  1  0
 77 76  2  0
 78 77  1  0
 78 73  2  0
 79 80  1  0
 80 81  1  0
 81 82  2  0
 83 82  1  0
 83 87  1  0
 84 83  2  0
 85 80  2  0
 85 84  1  0
 86 85  1  0
 88 89  1  0
 89 92  1  0
 89 91  1  0
 90 88  2  0
 93 68  1  0
 93 94  1  0
 95 93  1  0
M  ISO  4   9 101  10 101  58 100  66 100
M  END
>  <TORSDO>  (2) 
F 24

>  <SCORE>  (2) 
-7.423

>  <name>  (2) 
1

>  <ligand_id>  (2) 
1

>  <original_smiles>  (2) 
[H]c1c([H])c([H])c2c(c1[H])C([H])([H])C([H])([H])C([H])([H])C2([H])N([H])C(=O)C1([H])N(C(=O)C([H])(N([H])C(=O)C([H])(N([H])C([H])([H])[H])C([H])([H])[H])C(C([H])([H])[H])(C([H])([H])[H])C([H])([H])[H])C([H])([H])c2c([H])c(OC([H])([H])c3c([H])c(Cl)c(OC([H])([H])C([H])([H])C([H])([H])C([H])([H])C([H])([H])C([H])([H])N([H])C(=O)N4C([H])([H])C([H])([H])C([H])([H])C([H])(n5nc(-c6c([H])c([H])c(Oc7c([H])c([H])c(F)c([H])c7F)c([H])c6[H])c(C(=O)N([H])[H])c5N([H])[H])C4([H])[H])c(C([H])([H])[H])c3[H])c([H])c([H])c2C1([H])[H]

>  <smiles>  (2) 
[H]c1c([H])c([H])c2c(c1[H])C([H])([H])C([H])([H])C([H])([H])C2([H])N([H])C(=O)C1([H])N(C(=O)C([H])(N([H])C(=O)C([H])(N([H])C([H])([H])[H])C([H])([H])[H])C(C([H])([H])[H])(C([H])([H])[H])C([H])([H])[H])C([H])([H])c2c([H])c(OC([H])([H])c3c([H])c(Cl)c(OC([H])([H])C([H])([H])C([H])([H])C([H])([H])C([H])([H])C([H])([H])N([H])C(=O)N4C([H])([H])C([H])([H])C([H])([H])C([H])(n5nc(-c6c([H])c([H])c(Oc7c([H])c([H])c(F)c([H])c7F)c([H])c6[H])c(C(=O)N([H])[H])c5N([H])[H])C4([H])[H])c(C([H])([H])[H])c3[H])c([H])c([H])c2C1([H])[H]

$$$$
2:0:0
     RDKit          3D

 96104  0  0  1  0  0  0  0  0999 V2000
  -31.0730  -21.4250   22.9670 C   0  0  0  0  0  2  0  0  0  0  0  0
  -31.1980  -20.8580   21.5420 C   0  0  0  0  0  2  0  0  0  0  0  0
  -31.8680  -17.0590   21.4920 C   0  0  0  0  0  3  0  0  0  0  0  0
  -29.7080  -18.8390   21.2850 C   0  0  0  0  0  3  0  0  0  0  0  0
  -32.0930  -18.4470   21.6140 C   0  0  0  0  0  0  0  0  0  0  0  0
  -31.0070  -19.3490   21.4870 C   0  0  0  0  0  0  0  0  0  0  0  0
  -30.5710  -16.5550   21.2350 C   0  0  0  0  0  0  0  0  0  0  0  0
  -29.4870  -17.4540   21.1700 C   0  0  0  0  0  0  0  0  0  0  0  0
  -33.5090  -18.9410   21.8670 C   0  0  0  0  0  1  0  0  0  0  0  0
  -27.8780  -16.8730   20.9220 Cl  0  0  0  0  0  0  0  0  0  0  0  0
  -30.7170  -14.3940   20.0470 C   0  0  0  0  0  0  0  0  0  0  0  0
  -30.2210  -12.3930   18.6920 C   0  0  0  0  0  2  0  0  0  0  0  0
  -29.1820  -12.7210   17.6020 C   0  0  0  0  0  2  0  0  0  0  0  0
  -27.7500  -12.5710   18.1500 C   0  0  0  0  0  2  0  0  0  0  0  0
  -27.5470  -13.3050   19.5010 C   0  0  0  0  0  3  0  0  0  0  0  0
  -28.6850  -12.9570   20.4880 C   0  0  0  0  0  2  0  0  0  0  0  0
  -29.9740  -13.2740   19.8440 N   0  0  0  0  0  0  0  0  0  0  0  0
  -31.7040  -14.6730   19.3600 O   0  0  0  0  0  0  0  0  0  0  0  0
  -30.3010  -15.1710   21.0580 N   0  0  0  0  0  0  0  0  0  0  0  0
  -29.4730  -14.8340   21.5270 H   0  0  0  0  0  0  0  0  0  0  0  0
  -25.2010  -13.8860   20.3950 C   0  0  0  0  0  0  0  0  0  0  0  0
  -24.1660  -13.1000   20.8240 C   0  0  0  0  0  0  0  0  0  0  0  0
  -24.6260  -11.7530   20.7240 C   0  0  0  0  0  0  0  0  0  0  0  0
  -26.2320  -13.0170   20.0700 N   0  0  0  0  0  0  0  0  0  0  0  0
  -25.8900  -11.7260   20.3180 N   0  0  0  0  0  0  0  0  0  0  0  0
  -23.9190  -10.4820   20.9330 C   0  0  0  0  0  0  0  0  0  0  0  0
  -24.3930   -9.5140   21.8450 C   0  0  0  0  0  3  0  0  0  0  0  0
  -23.6860   -8.3100   22.0440 C   0  0  0  0  0  3  0  0  0  0  0  0
  -22.4880   -8.0650   21.3290 C   0  0  0  0  0  0  0  0  0  0  0  0
  -22.0330   -9.0220   20.4050 C   0  0  0  0  0  3  0  0  0  0  0  0
  -22.7410  -10.2190   20.2060 C   0  0  0  0  0  3  0  0  0  0  0  0
  -21.7480   -6.9130   21.4370 O   0  0  0  0  0  0  0  0  0  0  0  0
  -21.7060   -6.1910   22.6040 C   0  0  0  0  0  0  0  0  0  0  0  0
  -21.2910   -6.7700   23.8230 C   0  0  0  0  0  3  0  0  0  0  0  0
  -21.1960   -5.9750   24.9830 C   0  0  0  0  0  3  0  0  0  0  0  0
  -21.5060   -4.6030   24.9240 C   0  0  0  0  0  0  0  0  0  0  0  0
  -21.9130   -4.0240   23.7100 C   0  0  0  0  0  3  0  0  0  0  0  0
  -22.0100   -4.8160   22.5520 C   0  0  0  0  0  0  0  0  0  0  0  0
  -22.3840   -4.2490   21.3790 F   0  0  0  0  0  0  0  0  0  0  0  0
  -21.4060   -3.8370   26.0360 F   0  0  0  0  0  0  0  0  0  0  0  0
  -22.7940  -13.5650   21.2200 C   0  0  0  0  0  0  0  0  0  0  0  0
  -22.1450  -12.8520   22.1340 N   0  0  0  0  0  0  0  0  0  0  0  0
  -22.3080  -14.5950   20.7550 O   0  0  0  0  0  0  0  0  0  0  0  0
  -22.5520  -12.0180   22.5310 H   0  0  0  0  0  0  0  0  0  0  0  0
  -21.2280  -13.1430   22.4410 H   0  0  0  0  0  0  0  0  0  0  0  0
  -25.3420  -15.2600   20.2360 N   0  0  0  0  0  0  0  0  0  0  0  0
  -24.5960  -15.9090   20.4580 H   0  0  0  0  0  0  0  0  0  0  0  0
  -26.2030  -15.7200   19.9690 H   0  0  0  0  0  0  0  0  0  0  0  0
  -31.0740  -22.9660   23.0070 C   0  0  0  0  0  2  0  0  0  0  0  0
  -29.7770  -23.5430   22.5870 N   0  0  0  0  0  4  0  0  0  0  0  0
  -29.0770  -23.2960   23.2720 H   0  0  0  0  0  0  0  0  0  0  0  0
  -29.5110  -23.1230   21.7110 H   0  0  0  0  0  0  0  0  0  0  0  0
  -29.7920  -25.0150   22.4240 C   0  0  0  0  0  2  0  0  0  0  0  0
  -28.4530  -25.5760   21.9040 C   0  0  0  0  0  2  0  0  0  0  0  0
  -28.1800  -25.2850   20.4110 C   0  0  0  0  0  2  0  0  0  0  0  0
  -28.1550  -26.4930   19.6570 O   0  0  0  0  0  0  0  0  0  0  0  0
  -24.5420  -31.5980   23.0220 C   0  0  0  0  0  0  0  0  0  0  0  0
  -26.9910  -27.2140   19.7450 C   0  0  0  0  0  0  0  0  0  0  0  0
  -23.2520  -30.2790   21.3720 C   0  0  0  0  0  3  0  0  0  0  0  0
  -24.6270  -28.7440   19.8680 C   0  0  0  0  0  0  0  0  0  0  0  0
  -25.7760  -30.5890   21.1090 C   0  0  0  0  0  2  0  0  0  0  0  0
  -25.8110  -29.2360   20.4340 C   0  0  0  0  0  0  0  0  0  0  0  0
  -26.9970  -28.4780   20.3670 C   0  0  0  0  0  3  0  0  0  0  0  0
  -25.7950  -26.7230   19.1790 C   0  0  0  0  0  3  0  0  0  0  0  0
  -24.6120  -27.4860   19.2390 C   0  0  0  0  0  3  0  0  0  0  0  0
  -23.4060  -29.6310   19.9690 C   0  0  0  0  0  2  0  0  0  0  0  0
  -24.5450  -30.8340   21.8940 N   0  0  0  0  0  0  0  0  0  0  0  0
  -23.4860  -31.8820   23.6020 O   0  0  0  0  0  0  0  0  0  0  0  0
  -22.6020  -29.2470   22.3210 C   0  0  0  0  0  0  0  0  0  0  0  0
  -21.2690  -29.1140   22.2350 N   0  0  0  0  0  0  0  0  0  0  0  0
  -23.2910  -28.5690   23.0870 O   0  0  0  0  0  0  0  0  0  0  0  0
  -20.7760  -29.7140   21.5880 H   0  0  0  0  0  0  0  0  0  0  0  0
  -17.8700  -28.0440   22.8260 C   0  0  0  0  0  0  0  0  0  0  0  0
  -20.4460  -28.1780   22.9980 C   0  0  0  0  0  3  0  0  0  0  0  0
  -20.4600  -26.7720   22.3560 C   0  0  0  0  0  2  0  0  0  0  0  0
  -19.3040  -26.5440   21.3770 C   0  0  0  0  0  2  0  0  0  0  0  0
  -17.9570  -26.7190   22.0870 C   0  0  0  0  0  2  0  0  0  0  0  0
  -19.0390  -28.7360   23.2390 C   0  0  0  0  0  0  0  0  0  0  0  0
  -18.9050  -29.9810   23.8910 C   0  0  0  0  0  3  0  0  0  0  0  0
  -17.6320  -30.5330   24.1320 C   0  0  0  0  0  3  0  0  0  0  0  0
  -16.4780  -29.8360   23.7360 C   0  0  0  0  0  3  0  0  0  0  0  0
  -16.5990  -28.5930   23.0890 C   0  0  0  0  0  3  0  0  0  0  0  0
  -25.8640  -32.1730   23.6230 C   0  0  0  0  0  3  0  0  0  0  0  0
  -25.5960  -33.5560   24.0390 N   0  0  0  0  0  0  0  0  0  0  0  0
  -25.9310  -34.6410   23.3290 C   0  0  0  0  0  0  0  0  0  0  0  0
  -26.5710  -34.5810   22.2750 O   0  0  0  0  0  0  0  0  0  0  0  0
  -25.0280  -33.6780   24.8640 H   0  0  0  0  0  0  0  0  0  0  0  0
  -24.2410  -36.4890   23.1060 C   0  0  0  0  0  1  0  0  0  0  0  0
  -25.4850  -36.0110   23.8720 C   0  0  0  0  0  3  0  0  0  0  0  0
  -27.6540  -36.7970   24.7150 C   0  0  0  0  0  1  0  0  0  0  0  0
  -26.5410  -37.0450   23.8020 N   0  0  0  0  0  0  0  0  0  0  0  0
  -26.1590  -37.9640   24.0090 H   0  0  0  0  0  0  0  0  0  0  0  0
  -26.4180  -31.3240   24.8330 C   0  0  1  0  0  0  0  0  0  0  0  0
  -25.3660  -31.0420   25.9300 C   0  0  0  0  0  1  0  0  0  0  0  0
  -26.9610  -29.9630   24.3370 C   0  0  0  0  0  1  0  0  0  0  0  0
  -27.6070  -32.0630   25.4930 C   0  0  0  0  0  1  0  0  0  0  0  0
  1 49  1  0
  2  1  1  0
  3  5  1  0
  4  6  1  0
  5  9  1  0
  6  2  1  0
  6  5  2  0
  7  3  2  0
  8  7  1  0
  8  4  2  0
 10  8  1  0
 11 19  1  0
 12 17  1  0
 13 14  1  0
 13 12  1  0
 15 14  1  0
 15 24  1  0
 15 16  1  0
 17 11  1  0
 17 16  1  0
 18 11  2  0
 19  7  1  0
 19 20  1  0
 21 22  2  0
 22 41  1  0
 23 22  1  0
 23 26  1  0
 24 25  1  0
 24 21  1  0
 25 23  2  0
 26 27  1  0
 27 28  2  0
 29 32  1  0
 29 28  1  0
 30 29  2  0
 31 30  1  0
 31 26  2  0
 32 33  1  0
 33 34  1  0
 34 35  2  0
 36 35  1  0
 36 40  1  0
 37 36  2  0
 38 33  2  0
 38 37  1  0
 39 38  1  0
 41 42  1  0
 42 45  1  0
 42 44  1  0
 43 41  2  0
 46 21  1  0
 46 47  1  0
 48 46  1  0
 50 49  1  0
 50 51  1  0
 52 50  1  0
 53 50  1  0
 54 53  1  0
 55 54  1  0
 56 58  1  0
 56 55  1  0
 57 68  2  0
 58 63  1  0
 59 67  1  0
 59 69  1  0
 60 66  1  0
 60 62  1  0
 61 67  1  0
 62 61  1  0
 63 62  2  0
 64 65  1  0
 64 58  2  0
 65 60  2  0
 66 59  1  0
 67 57  1  0
 69 71  2  0
 70 69  1  0
 72 70  1  0
 73 82  2  0
 73 78  1  0
 74 70  1  0
 74 78  1  0
 75 74  1  0
 76 77  1  0
 76 75  1  0
 77 73  1  0
 78 79  2  0
 79 80  1  0
 81 80  2  0
 82 81  1  0
 83 57  1  0
 83 84  1  0
 83 93  1  0
 84 87  1  0
 85 89  1  0
 85 84  1  0
 86 85  2  0
 89 88  1  0
 91 89  1  0
 91 92  1  0
 91 90  1  0
 93 96  1  1
 93 94  1  0
 95 93  1  0
M  ISO  4  11 100  19 100  55 101  56 101
M  END
>  <TORSDO>  (3) 
F 23

>  <SCORE>  (3) 
-10.419

>  <name>  (3) 
2

>  <ligand_id>  (3) 
2

>  <original_smiles>  (3) 
[H]c1c([H])c([H])c2c(c1[H])C([H])([H])C([H])([H])C([H])([H])C2([H])N([H])C(=O)C1([H])N(C(=O)C([H])(N([H])C(=O)C([H])(N([H])C([H])([H])[H])C([H])([H])[H])C(C([H])([H])[H])(C([H])([H])[H])C([H])([H])[H])C([H])([H])c2c([H])c(OC([H])([H])C([H])([H])C([H])([H])[N+]([H])([H])C([H])([H])C([H])([H])C([H])([H])c3c([H])c(Cl)c(N([H])C(=O)N4C([H])([H])C([H])([H])C([H])([H])C([H])(n5nc(-c6c([H])c([H])c(Oc7c([H])c([H])c(F)c([H])c7F)c([H])c6[H])c(C(=O)N([H])[H])c5N([H])[H])C4([H])[H])c([H])c3C([H])([H])[H])c([H])c([H])c2C1([H])[H]

>  <smiles>  (3) 
[H]c1c([H])c([H])c2c(c1[H])C([H])([H])C([H])([H])C([H])([H])C2([H])N([H])C(=O)C1([H])N(C(=O)C([H])(N([H])C(=O)C([H])(N([H])C([H])([H])[H])C([H])([H])[H])C(C([H])([H])[H])(C([H])([H])[H])C([H])([H])[H])C([H])([H])c2c([H])c(OC([H])([H])C([H])([H])C([H])([H])[N+]([H])([H])C([H])([H])C([H])([H])C([H])([H])c3c([H])c(Cl)c(N([H])C(=O)N4C([H])([H])C([H])([H])C([H])([H])C([H])(n5nc(-c6c([H])c([H])c(Oc7c([H])c([H])c(F)c([H])c7F)c([H])c6[H])c(C(=O)N([H])[H])c5N([H])[H])C4([H])[H])c([H])c3C([H])([H])[H])c([H])c([H])c2C1([H])[H]

$$$$
3:0:0
     RDKit          3D

 97106  0  0  1  0  0  0  0  0999 V2000
  -29.2480  -21.9040   20.0330 C   0  0  0  0  0  2  0  0  0  0  0  0
  -31.0190  -21.8640   21.7650 C   0  0  0  0  0  2  0  0  0  0  0  0
  -29.5060  -23.4140   19.7940 C   0  0  0  0  0  2  0  0  0  0  0  0
  -31.2870  -23.3640   21.5220 C   0  0  0  0  0  2  0  0  0  0  0  0
  -30.5430  -21.1920   20.4730 C   0  0  0  0  0  3  0  0  0  0  0  0
  -30.1070  -24.1000   20.9770 N   0  0  1  0  0  4  0  0  0  0  0  0
  -29.4120  -24.0950   21.7090 H   0  0  0  0  0  0  0  0  0  0  0  0
  -29.2030  -19.0040   20.6010 C   0  0  0  0  0  3  0  0  0  0  0  0
  -31.5330  -17.4620   20.7830 C   0  0  0  0  0  3  0  0  0  0  0  0
  -30.4570  -19.6590   20.5870 C   0  0  0  0  0  0  0  0  0  0  0  0
  -30.2780  -16.8030   20.7630 C   0  0  0  0  0  0  0  0  0  0  0  0
  -29.1030  -17.5870   20.6750 C   0  0  0  0  0  0  0  0  0  0  0  0
  -31.6270  -18.8640   20.6970 C   0  0  0  0  0  0  0  0  0  0  0  0
  -33.2080  -19.5650   20.7410 Cl  0  0  0  0  0  0  0  0  0  0  0  0
  -30.7430  -14.4110   20.1120 C   0  0  0  0  0  0  0  0  0  0  0  0
  -30.3710  -12.3000   18.8920 C   0  0  0  0  0  2  0  0  0  0  0  0
  -29.3690  -12.5570   17.7480 C   0  0  0  0  0  2  0  0  0  0  0  0
  -27.9200  -12.4020   18.2480 C   0  0  0  0  0  2  0  0  0  0  0  0
  -27.6520  -13.1850   19.5620 C   0  0  0  0  0  3  0  0  0  0  0  0
  -28.7640  -12.9180   20.6020 C   0  0  0  0  0  2  0  0  0  0  0  0
  -30.0600  -13.2400   19.9810 N   0  0  0  0  0  0  0  0  0  0  0  0
  -31.8300  -14.5960   19.5610 O   0  0  0  0  0  0  0  0  0  0  0  0
  -30.1080  -15.3780   20.8030 N   0  0  0  0  0  0  0  0  0  0  0  0
  -29.2690  -15.0780   21.2770 H   0  0  0  0  0  0  0  0  0  0  0  0
  -25.2660  -13.7460   20.3470 C   0  0  0  0  0  0  0  0  0  0  0  0
  -24.2330  -12.9540   20.7730 C   0  0  0  0  0  0  0  0  0  0  0  0
  -24.7280  -11.6140   20.7530 C   0  0  0  0  0  0  0  0  0  0  0  0
  -26.3260  -12.8870   20.0980 N   0  0  0  0  0  0  0  0  0  0  0  0
  -26.0060  -11.6020   20.3960 N   0  0  0  0  0  0  0  0  0  0  0  0
  -24.0420  -10.3370   20.9960 C   0  0  0  0  0  0  0  0  0  0  0  0
  -24.4930   -9.4340   21.9840 C   0  0  0  0  0  3  0  0  0  0  0  0
  -23.8070   -8.2220   22.2120 C   0  0  0  0  0  3  0  0  0  0  0  0
  -22.6550   -7.9040   21.4530 C   0  0  0  0  0  0  0  0  0  0  0  0
  -22.2250   -8.7960   20.4560 C   0  0  0  0  0  3  0  0  0  0  0  0
  -22.9120  -10.0000   20.2250 C   0  0  0  0  0  3  0  0  0  0  0  0
  -21.9410   -6.7380   21.5870 O   0  0  0  0  0  0  0  0  0  0  0  0
  -21.8420   -6.0910   22.7920 C   0  0  0  0  0  0  0  0  0  0  0  0
  -21.3330   -6.7300   23.9430 C   0  0  0  0  0  3  0  0  0  0  0  0
  -21.1850   -6.0060   25.1440 C   0  0  0  0  0  3  0  0  0  0  0  0
  -21.5330   -4.6430   25.1910 C   0  0  0  0  0  0  0  0  0  0  0  0
  -22.0340   -4.0030   24.0450 C   0  0  0  0  0  3  0  0  0  0  0  0
  -22.1850   -4.7250   22.8470 C   0  0  0  0  0  0  0  0  0  0  0  0
  -22.6480   -4.0980   21.7400 F   0  0  0  0  0  0  0  0  0  0  0  0
  -21.3830   -3.9440   26.3410 F   0  0  0  0  0  0  0  0  0  0  0  0
  -22.8350  -13.4010   21.0910 C   0  0  0  0  0  0  0  0  0  0  0  0
  -22.1700  -12.7210   22.0200 N   0  0  0  0  0  0  0  0  0  0  0  0
  -22.3410  -14.3900   20.5500 O   0  0  0  0  0  0  0  0  0  0  0  0
  -22.5830  -11.9210   22.4770 H   0  0  0  0  0  0  0  0  0  0  0  0
  -21.2340  -13.0020   22.2750 H   0  0  0  0  0  0  0  0  0  0  0  0
  -25.3870  -15.1160   20.1350 N   0  0  0  0  0  0  0  0  0  0  0  0
  -24.6070  -15.7530   20.2510 H   0  0  0  0  0  0  0  0  0  0  0  0
  -26.2190  -15.5700   19.7790 H   0  0  0  0  0  0  0  0  0  0  0  0
  -26.7970  -17.5080   20.0040 C   0  0  0  0  0  1  0  0  0  0  0  0
  -27.9070  -16.9010   20.6530 O   0  0  0  0  0  0  0  0  0  0  0  0
  -30.4550  -25.5310   20.7060 C   0  0  0  0  0  2  0  0  0  0  0  0
  -29.3060  -26.5430   20.9020 C   0  0  0  0  0  2  0  0  0  0  0  0
  -28.4900  -26.6280   19.7350 O   0  0  0  0  0  0  0  0  0  0  0  0
  -24.7160  -31.6780   23.1250 C   0  0  0  0  0  0  0  0  0  0  0  0
  -27.3490  -27.3940   19.8380 C   0  0  0  0  0  0  0  0  0  0  0  0
  -23.4860  -30.3200   21.4590 C   0  0  0  0  0  3  0  0  0  0  0  0
  -24.9270  -28.8500   19.9520 C   0  0  0  0  0  0  0  0  0  0  0  0
  -25.9970  -30.7240   21.2160 C   0  0  0  0  0  2  0  0  0  0  0  0
  -26.0860  -29.3740   20.5370 C   0  0  0  0  0  0  0  0  0  0  0  0
  -27.2980  -28.6510   20.4870 C   0  0  0  0  0  3  0  0  0  0  0  0
  -26.1770  -26.8910   19.2370 C   0  0  0  0  0  3  0  0  0  0  0  0
  -24.9650  -27.6040   19.3020 C   0  0  0  0  0  3  0  0  0  0  0  0
  -23.6720  -29.6880   20.0530 C   0  0  0  0  0  2  0  0  0  0  0  0
  -24.7520  -30.9210   21.9930 N   0  0  0  0  0  0  0  0  0  0  0  0
  -23.6460  -31.9170   23.7020 O   0  0  0  0  0  0  0  0  0  0  0  0
  -22.8710  -29.2590   22.3990 C   0  0  0  0  0  0  0  0  0  0  0  0
  -21.5530  -29.0370   22.2670 N   0  0  0  0  0  0  0  0  0  0  0  0
  -23.5750  -28.6390   23.2000 O   0  0  0  0  0  0  0  0  0  0  0  0
  -21.0450  -29.5890   21.5910 H   0  0  0  0  0  0  0  0  0  0  0  0
  -18.2260  -27.7000   22.7080 C   0  0  0  0  0  0  0  0  0  0  0  0
  -20.7670  -28.0570   23.0170 C   0  0  0  0  0  3  0  0  0  0  0  0
  -20.9360  -26.6390   22.4250 C   0  0  0  0  0  2  0  0  0  0  0  0
  -19.8600  -26.2840   21.3930 C   0  0  0  0  0  2  0  0  0  0  0  0
  -18.4650  -26.3660   22.0190 C   0  0  0  0  0  2  0  0  0  0  0  0
  -19.3080  -28.5000   23.1620 C   0  0  0  0  0  0  0  0  0  0  0  0
  -19.0320  -29.7470   23.7650 C   0  0  0  0  0  3  0  0  0  0  0  0
  -17.7060  -30.1960   23.9190 C   0  0  0  0  0  3  0  0  0  0  0  0
  -16.6390  -29.3930   23.4800 C   0  0  0  0  0  3  0  0  0  0  0  0
  -16.8990  -28.1470   22.8820 C   0  0  0  0  0  3  0  0  0  0  0  0
  -26.0110  -32.3000   23.7360 C   0  0  0  0  0  3  0  0  0  0  0  0
  -26.5840  -31.4750   24.9530 C   0  0  1  0  0  0  0  0  0  0  0  0
  -25.5320  -31.1660   26.0430 C   0  0  0  0  0  1  0  0  0  0  0  0
  -27.1730  -30.1280   24.4690 C   0  0  0  0  0  1  0  0  0  0  0  0
  -27.7440  -32.2540   25.6160 C   0  0  0  0  0  1  0  0  0  0  0  0
  -25.6910  -33.6740   24.1440 N   0  0  0  0  0  0  0  0  0  0  0  0
  -25.9930  -34.7670   23.4310 C   0  0  0  0  0  0  0  0  0  0  0  0
  -26.6440  -34.7250   22.3810 O   0  0  0  0  0  0  0  0  0  0  0  0
  -25.1110  -33.7810   24.9630 H   0  0  0  0  0  0  0  0  0  0  0  0
  -24.2310  -36.5450   23.2010 C   0  0  0  0  0  1  0  0  0  0  0  0
  -25.4960  -36.1240   23.9650 C   0  0  0  0  0  3  0  0  0  0  0  0
  -27.6350  -37.0010   24.7910 C   0  0  0  0  0  1  0  0  0  0  0  0
  -26.5100  -37.1980   23.8810 N   0  0  0  0  0  0  0  0  0  0  0  0
  -26.0930  -38.1030   24.0830 H   0  0  0  0  0  0  0  0  0  0  0  0
  1  5  1  0
  3  1  1  0
  3  6  1  0
  4  2  1  0
  5 10  1  0
  5  2  1  0
  6  4  1  0
  6  7  1  1
  8 12  1  0
 10  8  2  0
 10 13  1  0
 11  9  1  0
 11 23  1  0
 12 11  2  0
 13 14  1  0
 13  9  2  0
 15 23  1  0
 16 21  1  0
 17 18  1  0
 17 16  1  0
 19 18  1  0
 19 28  1  0
 19 20  1  0
 21 15  1  0
 21 20  1  0
 22 15  2  0
 23 24  1  0
 25 26  2  0
 26 45  1  0
 27 26  1  0
 27 30  1  0
 28 25  1  0
 28 29  1  0
 29 27  2  0
 30 31  1  0
 31 32  2  0
 33 36  1  0
 33 32  1  0
 34 33  2  0
 35 34  1  0
 35 30  2  0
 36 37  1  0
 37 42  2  0
 37 38  1  0
 38 39  2  0
 39 40  1  0
 40 44  1  0
 41 40  2  0
 42 41  1  0
 43 42  1  0
 45 46  1  0
 46 49  1  0
 46 48  1  0
 47 45  2  0
 50 51  1  0
 50 25  1  0
 52 50  1  0
 53 54  1  0
 54 12  1  0
 55 56  1  0
 55  6  1  0
 57 59  1  0
 57 56  1  0
 58 69  2  0
 59 64  1  0
 60 68  1  0
 60 70  1  0
 61 67  1  0
 61 63  1  0
 62 68  1  0
 63 62  1  0
 64 63  2  0
 65 66  1  0
 65 59  2  0
 66 61  2  0
 67 60  1  0
 68 58  1  0
 70 72  2  0
 71 70  1  0
 73 71  1  0
 74 83  2  0
 74 79  1  0
 75 71  1  0
 75 79  1  0
 76 75  1  0
 77 78  1  0
 77 76  1  0
 78 74  1  0
 79 80  2  0
 80 81  1  0
 82 81  2  0
 83 82  1  0
 84 58  1  0
 84 89  1  0
 84 85  1  0
 85 88  1  1
 85 86  1  0
 87 85  1  0
 89 92  1  0
 90 94  1  0
 90 89  1  0
 91 90  2  0
 94 93  1  0
 96 94  1  0
 96 97  1  0
 96 95  1  0
M  ISO  4  15 100  23 100  56 101  57 101
M  END
>  <TORSDO>  (4) 
F 20

>  <SCORE>  (4) 
-13.324

>  <name>  (4) 
3

>  <ligand_id>  (4) 
3

>  <original_smiles>  (4) 
[H]c1c([H])c([H])c2c(c1[H])C([H])([H])C([H])([H])C([H])([H])C2([H])N([H])C(=O)C1([H])N(C(=O)C([H])(N([H])C(=O)C([H])(N([H])C([H])([H])[H])C([H])([H])[H])C(C([H])([H])[H])(C([H])([H])[H])C([H])([H])[H])C([H])([H])c2c([H])c(OC([H])([H])C([H])([H])[N+]3([H])C([H])([H])C([H])([H])C([H])(c4c([H])c(OC([H])([H])[H])c(N([H])C(=O)N5C([H])([H])C([H])([H])C([H])([H])C([H])(n6nc(-c7c([H])c([H])c(Oc8c([H])c([H])c(F)c([H])c8F)c([H])c7[H])c(C(=O)N([H])[H])c6N([H])[H])C5([H])[H])c([H])c4Cl)C([H])([H])C3([H])[H])c([H])c([H])c2C1([H])[H]

>  <smiles>  (4) 
[H]c1c([H])c([H])c2c(c1[H])C([H])([H])C([H])([H])C([H])([H])C2([H])N([H])C(=O)C1([H])N(C(=O)C([H])(N([H])C(=O)C([H])(N([H])C([H])([H])[H])C([H])([H])[H])C(C([H])([H])[H])(C([H])([H])[H])C([H])([H])[H])C([H])([H])c2c([H])c(OC([H])([H])C([H])([H])[N+]3([H])C([H])([H])C([H])([H])C([H])(c4c([H])c(OC([H])([H])[H])c(N([H])C(=O)N5C([H])([H])C([H])([H])C([H])([H])C([H])(n6nc(-c7c([H])c([H])c(Oc8c([H])c([H])c(F)c([H])c8F)c([H])c7[H])c(C(=O)N([H])[H])c6N([H])[H])C5([H])[H])c([H])c4Cl)C([H])([H])C3([H])[H])c([H])c([H])c2C1([H])[H]

$$$$
4:0:0
     RDKit          3D

 91 99  0  0  1  0  0  0  0  0999 V2000
  -30.2530  -19.9920   21.8020 C   0  0  0  0  0  3  0  0  0  0  0  0
  -29.2950  -18.5550   20.1010 C   0  0  0  0  0  3  0  0  0  0  0  0
  -30.8590  -18.8540   22.3840 C   0  0  0  0  0  0  0  0  0  0  0  0
  -29.9150  -17.3640   20.6690 C   0  0  0  0  0  0  0  0  0  0  0  0
  -29.4570  -19.9020   20.6360 C   0  0  0  0  0  0  0  0  0  0  0  0
  -30.6990  -17.5660   21.8280 C   0  0  0  0  0  0  0  0  0  0  0  0
  -31.6750  -19.0060   23.6530 C   0  0  0  0  0  1  0  0  0  0  0  0
  -31.2550  -16.5070   22.4670 F   0  0  0  0  0  0  0  0  0  0  0  0
  -30.5170  -14.8730   20.1060 C   0  0  0  0  0  0  0  0  0  0  0  0
  -30.3270  -12.6180   19.0280 C   0  0  0  0  0  2  0  0  0  0  0  0
  -29.3330  -12.7110   17.8500 C   0  0  0  0  0  2  0  0  0  0  0  0
  -27.8830  -12.5150   18.3360 C   0  0  0  0  0  2  0  0  0  0  0  0
  -27.5530  -13.3670   19.5920 C   0  0  0  0  0  3  0  0  0  0  0  0
  -28.6570  -13.2520   20.6620 C   0  0  0  0  0  2  0  0  0  0  0  0
  -29.9180  -13.6390   20.0170 N   0  0  0  0  0  0  0  0  0  0  0  0
  -31.7030  -15.0090   19.7860 O   0  0  0  0  0  0  0  0  0  0  0  0
  -29.6720  -15.9690   20.2220 N   0  0  0  0  0  0  0  0  0  0  0  0
  -28.7010  -15.7380   20.1020 H   0  0  0  0  0  0  0  0  0  0  0  0
  -25.1900  -13.9200   20.4210 C   0  0  0  0  0  0  0  0  0  0  0  0
  -24.1480  -13.1260   20.8200 C   0  0  0  0  0  0  0  0  0  0  0  0
  -24.6280  -11.7830   20.7520 C   0  0  0  0  0  0  0  0  0  0  0  0
  -26.2340  -13.0570   20.1300 N   0  0  0  0  0  0  0  0  0  0  0  0
  -25.9060  -11.7660   20.3950 N   0  0  0  0  0  0  0  0  0  0  0  0
  -23.9260  -10.5090   20.9520 C   0  0  0  0  0  0  0  0  0  0  0  0
  -24.3830   -9.5530   21.8860 C   0  0  0  0  0  3  0  0  0  0  0  0
  -23.6790   -8.3430   22.0740 C   0  0  0  0  0  3  0  0  0  0  0  0
  -22.5060   -8.0810   21.3270 C   0  0  0  0  0  0  0  0  0  0  0  0
  -22.0700   -9.0250   20.3810 C   0  0  0  0  0  3  0  0  0  0  0  0
  -22.7730  -10.2270   20.1910 C   0  0  0  0  0  3  0  0  0  0  0  0
  -21.7730   -6.9240   21.4240 O   0  0  0  0  0  0  0  0  0  0  0  0
  -21.7190   -6.2020   22.5880 C   0  0  0  0  0  0  0  0  0  0  0  0
  -21.2430   -6.7650   23.7920 C   0  0  0  0  0  3  0  0  0  0  0  0
  -21.1380   -5.9680   24.9500 C   0  0  0  0  0  3  0  0  0  0  0  0
  -21.5000   -4.6080   24.9040 C   0  0  0  0  0  0  0  0  0  0  0  0
  -21.9700   -4.0440   23.7040 C   0  0  0  0  0  3  0  0  0  0  0  0
  -22.0760   -4.8390   22.5500 C   0  0  0  0  0  0  0  0  0  0  0  0
  -22.5090   -4.2860   21.3920 F   0  0  0  0  0  0  0  0  0  0  0  0
  -21.3920   -3.8400   26.0130 F   0  0  0  0  0  0  0  0  0  0  0  0
  -22.7550  -13.5800   21.1490 C   0  0  0  0  0  0  0  0  0  0  0  0
  -22.0680  -12.8570   22.0250 N   0  0  0  0  0  0  0  0  0  0  0  0
  -22.2880  -14.6110   20.6650 O   0  0  0  0  0  0  0  0  0  0  0  0
  -22.4610  -12.0220   22.4340 H   0  0  0  0  0  0  0  0  0  0  0  0
  -21.1370  -13.1420   22.2930 H   0  0  0  0  0  0  0  0  0  0  0  0
  -25.3240  -15.2970   20.2580 N   0  0  0  0  0  0  0  0  0  0  0  0
  -24.5480  -15.9290   20.4210 H   0  0  0  0  0  0  0  0  0  0  0  0
  -26.1370  -15.7650   19.8810 H   0  0  0  0  0  0  0  0  0  0  0  0
  -28.8690  -21.0740   20.0570 O   0  0  0  0  0  0  0  0  0  0  0  0
  -28.9580  -22.4330   20.6900 C   0  0  0  0  0  3  0  0  0  0  0  0
  -28.4370  -23.7750   19.9310 C   0  0  0  0  0  3  0  0  0  0  0  0
  -28.2590  -25.1670   20.7480 C   0  0  0  0  0  2  0  0  0  0  0  0
  -28.3550  -26.5370   20.1380 O   0  0  0  0  0  0  0  0  0  0  0  0
  -24.6140  -31.9600   23.2160 C   0  0  0  0  0  0  0  0  0  0  0  0
  -27.2410  -27.3990   20.1530 C   0  0  0  0  0  0  0  0  0  0  0  0
  -23.4170  -30.5660   21.5660 C   0  0  0  0  0  3  0  0  0  0  0  0
  -24.8780  -29.0210   20.1350 C   0  0  0  0  0  0  0  0  0  0  0  0
  -25.9580  -30.8900   21.3870 C   0  0  0  0  0  2  0  0  0  0  0  0
  -26.0460  -29.5110   20.7340 C   0  0  0  0  0  0  0  0  0  0  0  0
  -27.2340  -28.7150   20.7230 C   0  0  0  0  0  3  0  0  0  0  0  0
  -26.0520  -26.9640   19.5360 C   0  0  0  0  0  3  0  0  0  0  0  0
  -24.8860  -27.7570   19.5220 C   0  0  0  0  0  3  0  0  0  0  0  0
  -23.6390  -29.8970   20.1830 C   0  0  0  0  0  2  0  0  0  0  0  0
  -24.6820  -31.1570   22.1130 N   0  0  0  0  0  0  0  0  0  0  0  0
  -23.5280  -32.2280   23.7530 O   0  0  0  0  0  0  0  0  0  0  0  0
  -22.7600  -29.5400   22.5220 C   0  0  0  0  0  0  0  0  0  0  0  0
  -21.4370  -29.3440   22.3860 N   0  0  0  0  0  0  0  0  0  0  0  0
  -23.4410  -28.9240   23.3460 O   0  0  0  0  0  0  0  0  0  0  0  0
  -20.9450  -29.8980   21.7000 H   0  0  0  0  0  0  0  0  0  0  0  0
  -18.0770  -28.0870   22.8500 C   0  0  0  0  0  0  0  0  0  0  0  0
  -20.6270  -28.3940   23.1520 C   0  0  0  0  0  3  0  0  0  0  0  0
  -20.7610  -26.9610   22.5850 C   0  0  0  0  0  2  0  0  0  0  0  0
  -19.6790  -26.6130   21.5580 C   0  0  0  0  0  2  0  0  0  0  0  0
  -18.2860  -26.7380   22.1820 C   0  0  0  0  0  2  0  0  0  0  0  0
  -19.1750  -28.8700   23.2920 C   0  0  0  0  0  0  0  0  0  0  0  0
  -18.9270  -30.1310   23.8770 C   0  0  0  0  0  3  0  0  0  0  0  0
  -17.6110  -30.6080   24.0250 C   0  0  0  0  0  3  0  0  0  0  0  0
  -16.5270  -29.8210   23.6020 C   0  0  0  0  0  3  0  0  0  0  0  0
  -16.7600  -28.5640   23.0180 C   0  0  0  0  0  3  0  0  0  0  0  0
  -25.8910  -32.5990   23.8410 C   0  0  0  0  0  3  0  0  0  0  0  0
  -26.4040  -31.8350   25.1240 C   0  0  1  0  0  0  0  0  0  0  0  0
  -25.3060  -31.5920   26.1850 C   0  0  0  0  0  1  0  0  0  0  0  0
  -27.0020  -30.4610   24.7400 C   0  0  0  0  0  1  0  0  0  0  0  0
  -27.5440  -32.6390   25.7940 C   0  0  0  0  0  1  0  0  0  0  0  0
  -25.5770  -33.9980   24.1680 N   0  0  0  0  0  0  0  0  0  0  0  0
  -25.9100  -35.0520   23.4100 C   0  0  0  0  0  0  0  0  0  0  0  0
  -26.5810  -34.9480   22.3790 O   0  0  0  0  0  0  0  0  0  0  0  0
  -24.9840  -34.1510   24.9690 H   0  0  0  0  0  0  0  0  0  0  0  0
  -24.1870  -36.8480   23.0450 C   0  0  0  0  0  1  0  0  0  0  0  0
  -25.4200  -36.4390   23.8660 C   0  0  0  0  0  3  0  0  0  0  0  0
  -27.5470  -37.3240   24.7180 C   0  0  0  0  0  1  0  0  0  0  0  0
  -26.4540  -37.4920   23.7630 N   0  0  0  0  0  0  0  0  0  0  0  0
  -26.0480  -38.4110   23.9080 H   0  0  0  0  0  0  0  0  0  0  0  0
  1  3  1  0
  2  5  1  0
  2  4  2  0
  3  7  1  0
  4  6  1  0
  5  1  2  0
  6  3  2  0
  6  8  1  0
  9 17  1  0
 10 15  1  0
 11 12  1  0
 11 10  1  0
 13 12  1  0
 13 22  1  0
 13 14  1  0
 15  9  1  0
 15 14  1  0
 16  9  2  0
 17  4  1  0
 18 17  1  0
 19 20  2  0
 20 39  1  0
 21 20  1  0
 21 24  1  0
 22 23  1  0
 22 19  1  0
 23 21  2  0
 24 25  1  0
 25 26  2  0
 27 30  1  0
 27 26  1  0
 28 27  2  0
 29 28  1  0
 29 24  2  0
 30 31  1  0
 31 32  1  0
 32 33  2  0
 34 33  1  0
 34 38  1  0
 35 34  2  0
 36 31  2  0
 36 35  1  0
 37 36  1  0
 39 40  1  0
 40 43  1  0
 40 42  1  0
 41 39  2  0
 44 45  1  0
 44 19  1  0
 46 44  1  0
 47  5  1  0
 47 48  1  0
 49 48  2  0
 49 50  1  0
 51 53  1  0
 51 50  1  0
 52 63  2  0
 53 58  1  0
 54 62  1  0
 54 64  1  0
 55 61  1  0
 55 57  1  0
 56 62  1  0
 57 56  1  0
 58 57  2  0
 59 53  2  0
 60 59  1  0
 60 55  2  0
 61 54  1  0
 62 52  1  0
 64 66  2  0
 65 64  1  0
 67 65  1  0
 68 77  2  0
 68 73  1  0
 69 65  1  0
 69 73  1  0
 70 69  1  0
 71 72  1  0
 71 70  1  0
 72 68  1  0
 73 74  2  0
 74 75  1  0
 76 75  2  0
 77 76  1  0
 78 52  1  0
 78 83  1  0
 78 79  1  0
 79 82  1  1
 79 80  1  0
 81 79  1  0
 83 86  1  0
 84 88  1  0
 84 83  1  0
 85 84  2  0
 88 87  1  0
 90 88  1  0
 90 91  1  0
 90 89  1  0
M  ISO  4   9 100  17 100  50 101  51 101
M  END
>  <TORSDO>  (5) 
F 20

>  <SCORE>  (5) 
-13.251

>  <name>  (5) 
4

>  <ligand_id>  (5) 
4

>  <original_smiles>  (5) 
[H]c1c([H])c([H])c2c(c1[H])C([H])([H])C([H])([H])C([H])([H])C2([H])N([H])C(=O)C1([H])N(C(=O)C([H])(N([H])C(=O)C([H])(N([H])C([H])([H])[H])C([H])([H])[H])C(C([H])([H])[H])(C([H])([H])[H])C([H])([H])[H])C([H])([H])c2c([H])c(OC([H])([H])C([H])([H])C([H])([H])Oc3c([H])c(N([H])C(=O)N4C([H])([H])C([H])([H])C([H])([H])C([H])(n5nc(-c6c([H])c([H])c(Oc7c([H])c([H])c(F)c([H])c7F)c([H])c6[H])c(C(=O)N([H])[H])c5N([H])[H])C4([H])[H])c(F)c(C([H])([H])[H])c3[H])c([H])c([H])c2C1([H])[H]

>  <smiles>  (5) 
[H]c1c([H])c([H])c2c(c1[H])C([H])([H])C([H])([H])C([H])([H])C2([H])N([H])C(=O)C1([H])N(C(=O)C([H])(N([H])C(=O)C([H])(N([H])C([H])([H])[H])C([H])([H])[H])C(C([H])([H])[H])(C([H])([H])[H])C([H])([H])[H])C([H])([H])c2c([H])c(OC([H])([H])C([H])([H])C([H])([H])Oc3c([H])c(N([H])C(=O)N4C([H])([H])C([H])([H])C([H])([H])C([H])(n5nc(-c6c([H])c([H])c(Oc7c([H])c([H])c(F)c([H])c7F)c([H])c6[H])c(C(=O)N([H])[H])c5N([H])[H])C4([H])[H])c(F)c(C([H])([H])[H])c3[H])c([H])c([H])c2C1([H])[H]

$$$$
5:0:0
     RDKit          3D

 96104  0  0  1  0  0  0  0  0999 V2000
  -29.1430  -20.1130   20.4440 C   0  0  0  0  0  3  0  0  0  0  0  0
  -30.9680  -21.6730   19.0110 C   0  0  0  0  0  3  0  0  0  0  0  0
  -29.5930  -21.3280   20.9950 C   0  0  0  0  0  0  0  0  0  0  0  0
  -29.6030  -19.6610   19.1920 C   0  0  0  0  0  0  0  0  0  0  0  0
  -30.5000  -22.1350   20.2600 C   0  0  0  0  0  0  0  0  0  0  0  0
  -30.5300  -20.4480   18.4700 C   0  0  0  0  0  0  0  0  0  0  0  0
  -29.0700  -21.7170   22.3680 C   0  0  0  0  0  1  0  0  0  0  0  0
  -31.1300  -19.9670   16.9190 Cl  0  0  0  0  0  0  0  0  0  0  0  0
  -29.0440  -18.3640   18.6200 C   0  0  0  0  0  2  0  0  0  0  0  0
  -28.8540  -17.2170   19.6290 C   0  0  0  0  0  2  0  0  0  0  0  0
  -30.1180  -16.8200   20.4170 C   0  0  0  0  0  2  0  0  0  0  0  0
  -30.6930  -14.4230   20.4930 C   0  0  0  0  0  0  0  0  0  0  0  0
  -30.3630  -12.2860   19.3430 C   0  0  0  0  0  2  0  0  0  0  0  0
  -29.4300  -12.5370   18.1430 C   0  0  0  0  0  2  0  0  0  0  0  0
  -27.9530  -12.4260   18.5680 C   0  0  0  0  0  2  0  0  0  0  0  0
  -27.6260  -13.2380   19.8500 C   0  0  0  0  0  3  0  0  0  0  0  0
  -28.6770  -12.9820   20.9550 C   0  0  0  0  0  2  0  0  0  0  0  0
  -30.0130  -13.2540   20.3920 N   0  0  0  0  0  0  0  0  0  0  0  0
  -31.8130  -14.6040   20.0080 O   0  0  0  0  0  0  0  0  0  0  0  0
  -29.9660  -15.4570   20.9330 N   0  0  0  0  0  0  0  0  0  0  0  0
  -29.0950  -15.2280   21.3900 H   0  0  0  0  0  0  0  0  0  0  0  0
  -25.2200  -13.8570   20.5290 C   0  0  0  0  0  0  0  0  0  0  0  0
  -24.1480  -13.0910   20.8940 C   0  0  0  0  0  0  0  0  0  0  0  0
  -24.6060  -11.7360   20.8750 C   0  0  0  0  0  0  0  0  0  0  0  0
  -26.2660  -12.9730   20.3160 N   0  0  0  0  0  0  0  0  0  0  0  0
  -25.8970  -11.6920   20.5800 N   0  0  0  0  0  0  0  0  0  0  0  0
  -23.8770  -10.4760   21.0690 C   0  0  0  0  0  0  0  0  0  0  0  0
  -24.3170   -9.5020   21.9930 C   0  0  0  0  0  3  0  0  0  0  0  0
  -23.5920   -8.3060   22.1730 C   0  0  0  0  0  3  0  0  0  0  0  0
  -22.4100   -8.0750   21.4300 C   0  0  0  0  0  0  0  0  0  0  0  0
  -21.9860   -9.0390   20.4950 C   0  0  0  0  0  3  0  0  0  0  0  0
  -22.7150  -10.2260   20.3130 C   0  0  0  0  0  3  0  0  0  0  0  0
  -21.6520   -6.9330   21.5200 O   0  0  0  0  0  0  0  0  0  0  0  0
  -21.6310   -6.1720   22.6620 C   0  0  0  0  0  0  0  0  0  0  0  0
  -21.2520   -6.7120   23.9110 C   0  0  0  0  0  3  0  0  0  0  0  0
  -21.1750   -5.8790   25.0440 C   0  0  0  0  0  3  0  0  0  0  0  0
  -21.4710   -4.5060   24.9320 C   0  0  0  0  0  0  0  0  0  0  0  0
  -21.8410   -3.9650   23.6880 C   0  0  0  0  0  3  0  0  0  0  0  0
  -21.9180   -4.7960   22.5570 C   0  0  0  0  0  0  0  0  0  0  0  0
  -22.2570   -4.2660   21.3560 F   0  0  0  0  0  0  0  0  0  0  0  0
  -21.3910   -3.7030   26.0180 F   0  0  0  0  0  0  0  0  0  0  0  0
  -22.7470  -13.5710   21.1510 C   0  0  0  0  0  0  0  0  0  0  0  0
  -22.0090  -12.8840   22.0130 N   0  0  0  0  0  0  0  0  0  0  0  0
  -22.3140  -14.5950   20.6210 O   0  0  0  0  0  0  0  0  0  0  0  0
  -22.3670  -12.0580   22.4670 H   0  0  0  0  0  0  0  0  0  0  0  0
  -21.0720  -13.1930   22.2280 H   0  0  0  0  0  0  0  0  0  0  0  0
  -25.3880  -15.2270   20.3430 N   0  0  0  0  0  0  0  0  0  0  0  0
  -24.6240  -15.8860   20.4510 H   0  0  0  0  0  0  0  0  0  0  0  0
  -26.2430  -15.6560   20.0110 H   0  0  0  0  0  0  0  0  0  0  0  0
  -31.0110  -23.4780   20.7740 C   0  0  0  0  0  2  0  0  0  0  0  0
  -29.9590  -24.5150   20.7880 N   0  0  0  0  0  4  0  0  0  0  0  0
  -29.3360  -24.3190   21.5540 H   0  0  0  0  0  0  0  0  0  0  0  0
  -29.4210  -24.4570   19.9360 H   0  0  0  0  0  0  0  0  0  0  0  0
  -30.4820  -25.8960   20.9080 C   0  0  0  0  0  2  0  0  0  0  0  0
  -29.3630  -26.9300   21.0880 C   0  0  0  0  0  2  0  0  0  0  0  0
  -28.3820  -26.7230   20.0740 O   0  0  0  0  0  0  0  0  0  0  0  0
  -24.5910  -31.8880   23.2260 C   0  0  0  0  0  0  0  0  0  0  0  0
  -27.2390  -27.4870   20.1400 C   0  0  0  0  0  0  0  0  0  0  0  0
  -23.3740  -30.4860   21.5840 C   0  0  0  0  0  3  0  0  0  0  0  0
  -24.8230  -28.9520   20.1520 C   0  0  0  0  0  0  0  0  0  0  0  0
  -25.8880  -30.8620   21.3690 C   0  0  0  0  0  2  0  0  0  0  0  0
  -25.9740  -29.4900   20.7410 C   0  0  0  0  0  0  0  0  0  0  0  0
  -27.1800  -28.7650   20.7420 C   0  0  0  0  0  3  0  0  0  0  0  0
  -26.0760  -26.9580   19.5450 C   0  0  0  0  0  3  0  0  0  0  0  0
  -24.8670  -27.6810   19.5510 C   0  0  0  0  0  3  0  0  0  0  0  0
  -23.5760  -29.8040   20.2020 C   0  0  0  0  0  2  0  0  0  0  0  0
  -24.6360  -31.0920   22.1200 N   0  0  0  0  0  0  0  0  0  0  0  0
  -23.5150  -32.1600   23.7740 O   0  0  0  0  0  0  0  0  0  0  0  0
  -22.7280  -29.4660   22.5490 C   0  0  0  0  0  0  0  0  0  0  0  0
  -21.4040  -29.2850   22.4280 N   0  0  0  0  0  0  0  0  0  0  0  0
  -23.4160  -28.8440   23.3610 O   0  0  0  0  0  0  0  0  0  0  0  0
  -20.9120  -29.8490   21.7510 H   0  0  0  0  0  0  0  0  0  0  0  0
  -18.0360  -28.0760   22.9140 C   0  0  0  0  0  0  0  0  0  0  0  0
  -20.5890  -28.3450   23.1990 C   0  0  0  0  0  3  0  0  0  0  0  0
  -20.7000  -26.9120   22.6280 C   0  0  0  0  0  2  0  0  0  0  0  0
  -19.6040  -26.5800   21.6100 C   0  0  0  0  0  2  0  0  0  0  0  0
  -18.2200  -26.7230   22.2470 C   0  0  0  0  0  2  0  0  0  0  0  0
  -19.1490  -28.8440   23.3460 C   0  0  0  0  0  0  0  0  0  0  0  0
  -18.9240  -30.1090   23.9290 C   0  0  0  0  0  3  0  0  0  0  0  0
  -17.6170  -30.6090   24.0820 C   0  0  0  0  0  3  0  0  0  0  0  0
  -16.5170  -29.8400   23.6630 C   0  0  0  0  0  3  0  0  0  0  0  0
  -16.7280  -28.5730   23.0890 C   0  0  0  0  0  3  0  0  0  0  0  0
  -25.8830  -32.5120   23.8400 C   0  0  0  0  0  3  0  0  0  0  0  0
  -25.5810  -33.9080   24.1830 N   0  0  0  0  0  0  0  0  0  0  0  0
  -25.9080  -34.9640   23.4250 C   0  0  0  0  0  0  0  0  0  0  0  0
  -26.5690  -34.8640   22.3870 O   0  0  0  0  0  0  0  0  0  0  0  0
  -24.9960  -34.0600   24.9930 H   0  0  0  0  0  0  0  0  0  0  0  0
  -24.1770  -36.7560   23.0870 C   0  0  0  0  0  1  0  0  0  0  0  0
  -25.4230  -36.3490   23.8900 C   0  0  0  0  0  3  0  0  0  0  0  0
  -27.5650  -37.2280   24.7100 C   0  0  0  0  0  1  0  0  0  0  0  0
  -26.4560  -37.4030   23.7760 N   0  0  0  0  0  0  0  0  0  0  0  0
  -26.0520  -38.3230   23.9310 H   0  0  0  0  0  0  0  0  0  0  0  0
  -26.4170  -31.7280   25.1010 C   0  0  1  0  0  0  0  0  0  0  0  0
  -25.3380  -31.4820   26.1830 C   0  0  0  0  0  1  0  0  0  0  0  0
  -26.9970  -30.3560   24.6830 C   0  0  0  0  0  1  0  0  0  0  0  0
  -27.5770  -32.5140   25.7550 C   0  0  0  0  0  1  0  0  0  0  0  0
  1  3  1  0
  2  5  1  0
  3  7  1  0
  4  1  2  0
  5 50  1  0
  5  3  2  0
  6  2  2  0
  6  4  1  0
  8  6  1  0
  9  4  1  0
  9 10  1  0
 10 11  1  0
 11 20  1  0
 12 20  1  0
 13 18  1  0
 14 15  1  0
 14 13  1  0
 16 15  1  0
 16 25  1  0
 16 17  1  0
 18 12  1  0
 18 17  1  0
 19 12  2  0
 20 21  1  0
 22 23  2  0
 23 42  1  0
 24 23  1  0
 24 27  1  0
 25 22  1  0
 25 26  1  0
 26 24  2  0
 27 28  1  0
 28 29  2  0
 30 33  1  0
 30 29  1  0
 31 30  2  0
 32 31  1  0
 32 27  2  0
 33 34  1  0
 34 35  1  0
 35 36  2  0
 37 36  1  0
 37 41  1  0
 38 37  2  0
 39 34  2  0
 39 38  1  0
 40 39  1  0
 42 43  1  0
 43 46  1  0
 43 45  1  0
 44 42  2  0
 47 48  1  0
 47 22  1  0
 49 47  1  0
 50 51  1  0
 51 54  1  0
 51 52  1  0
 53 51  1  0
 54 55  1  0
 56 58  1  0
 56 55  1  0
 57 68  2  0
 58 63  1  0
 59 67  1  0
 59 69  1  0
 60 66  1  0
 60 62  1  0
 61 67  1  0
 62 63  2  0
 62 61  1  0
 64 65  1  0
 64 58  2  0
 65 60  2  0
 66 59  1  0
 67 57  1  0
 69 71  2  0
 70 69  1  0
 72 70  1  0
 73 82  2  0
 73 78  1  0
 74 70  1  0
 74 78  1  0
 75 74  1  0
 76 77  1  0
 76 75  1  0
 77 73  1  0
 78 79  2  0
 79 80  1  0
 81 80  2  0
 82 81  1  0
 83 57  1  0
 83 84  1  0
 83 93  1  0
 84 87  1  0
 85 89  1  0
 85 84  1  0
 86 85  2  0
 89 88  1  0
 91 89  1  0
 91 92  1  0
 91 90  1  0
 93 96  1  1
 93 94  1  0
 95 93  1  0
M  ISO  4  12 100  20 100  55 101  56 101
M  END
>  <TORSDO>  (6) 
F 23

>  <SCORE>  (6) 
-13.109

>  <name>  (6) 
5

>  <ligand_id>  (6) 
5

>  <original_smiles>  (6) 
[H]c1c([H])c([H])c2c(c1[H])C([H])([H])C([H])([H])C([H])([H])C2([H])N([H])C(=O)C1([H])N(C(=O)C([H])(N([H])C(=O)C([H])(N([H])C([H])([H])[H])C([H])([H])[H])C(C([H])([H])[H])(C([H])([H])[H])C([H])([H])[H])C([H])([H])c2c([H])c(OC([H])([H])C([H])([H])[N+]([H])([H])C([H])([H])c3c([H])c(Cl)c(C([H])([H])C([H])([H])C([H])([H])N([H])C(=O)N4C([H])([H])C([H])([H])C([H])([H])C([H])(n5nc(-c6c([H])c([H])c(Oc7c([H])c([H])c(F)c([H])c7F)c([H])c6[H])c(C(=O)N([H])[H])c5N([H])[H])C4([H])[H])c([H])c3C([H])([H])[H])c([H])c([H])c2C1([H])[H]

>  <smiles>  (6) 
[H]c1c([H])c([H])c2c(c1[H])C([H])([H])C([H])([H])C([H])([H])C2([H])N([H])C(=O)C1([H])N(C(=O)C([H])(N([H])C(=O)C([H])(N([H])C([H])([H])[H])C([H])([H])[H])C(C([H])([H])[H])(C([H])([H])[H])C([H])([H])[H])C([H])([H])c2c([H])c(OC([H])([H])C([H])([H])[N+]([H])([H])C([H])([H])c3c([H])c(Cl)c(C([H])([H])C([H])([H])C([H])([H])N([H])C(=O)N4C([H])([H])C([H])([H])C([H])([H])C([H])(n5nc(-c6c([H])c([H])c(Oc7c([H])c([H])c(F)c([H])c7F)c([H])c6[H])c(C(=O)N([H])[H])c5N([H])[H])C4([H])[H])c([H])c3C([H])([H])[H])c([H])c([H])c2C1([H])[H]

$$$$
6:0:0
     RDKit          3D

 94103  0  0  1  0  0  0  0  0999 V2000
  -30.5350  -15.0960   20.4160 C   0  0  0  0  0  0  0  0  0  0  0  0
  -30.4930  -12.6960   19.5650 C   0  0  0  0  0  2  0  0  0  0  0  0
  -29.5880  -12.4550   18.3280 C   0  0  0  0  0  2  0  0  0  0  0  0
  -28.0900  -12.3720   18.7040 C   0  0  0  0  0  2  0  0  0  0  0  0
  -27.6470  -13.3160   19.8540 C   0  0  0  0  0  3  0  0  0  0  0  0
  -28.6860  -13.3870   20.9900 C   0  0  0  0  0  2  0  0  0  0  0  0
  -29.9490  -13.8200   20.3800 N   0  0  0  0  0  0  0  0  0  0  0  0
  -31.7710  -15.1250   20.4200 O   0  0  0  0  0  0  0  0  0  0  0  0
  -30.8760  -17.9020   18.8100 C   0  0  0  0  0  3  0  0  0  0  0  0
  -30.1560  -17.7500   19.9580 C   0  0  0  0  0  3  0  0  0  0  0  0
  -30.6670  -16.7270   17.8920 C   0  0  0  0  0  2  0  0  0  0  0  0
  -28.6000  -19.3550   18.7130 C   0  0  0  0  0  2  0  0  0  0  0  0
  -29.7580  -19.9160   17.8390 C   0  0  0  0  0  2  0  0  0  0  0  0
  -29.5160  -16.0170   18.5930 C   0  0  0  0  0  2  0  0  0  0  0  0
  -29.1050  -19.0560   20.1480 C   0  0  0  0  0  3  0  0  0  0  0  0
  -31.1410  -19.2460   18.1100 C   0  0  2  0  0  0  0  0  0  0  0  0
  -31.9090  -19.1080   16.7680 C   0  0  0  0  0  1  0  0  0  0  0  0
  -32.0800  -20.1210   18.9790 C   0  0  0  0  0  1  0  0  0  0  0  0
  -29.7780  -16.2690   20.0140 N   0  0  0  0  0  0  0  0  0  0  0  0
  -25.2460  -13.8750   20.5530 C   0  0  0  0  0  0  0  0  0  0  0  0
  -24.1800  -13.0920   20.9000 C   0  0  0  0  0  0  0  0  0  0  0  0
  -24.6600  -11.7450   20.8890 C   0  0  0  0  0  0  0  0  0  0  0  0
  -26.3040  -13.0070   20.3400 N   0  0  0  0  0  0  0  0  0  0  0  0
  -25.9600  -11.7230   20.6160 N   0  0  0  0  0  0  0  0  0  0  0  0
  -23.9450  -10.4740   21.0660 C   0  0  0  0  0  0  0  0  0  0  0  0
  -24.3740   -9.5120   22.0060 C   0  0  0  0  0  3  0  0  0  0  0  0
  -23.6600   -8.3060   22.1720 C   0  0  0  0  0  3  0  0  0  0  0  0
  -22.5030   -8.0530   21.3990 C   0  0  0  0  0  0  0  0  0  0  0  0
  -22.0920   -9.0050   20.4490 C   0  0  0  0  0  3  0  0  0  0  0  0
  -22.8070  -10.2020   20.2800 C   0  0  0  0  0  3  0  0  0  0  0  0
  -21.7630   -6.8980   21.4730 O   0  0  0  0  0  0  0  0  0  0  0  0
  -21.7090   -6.1510   22.6220 C   0  0  0  0  0  0  0  0  0  0  0  0
  -21.2590   -6.6950   23.8440 C   0  0  0  0  0  3  0  0  0  0  0  0
  -21.1540   -5.8750   24.9850 C   0  0  0  0  0  3  0  0  0  0  0  0
  -21.4880   -4.5100   24.9050 C   0  0  0  0  0  0  0  0  0  0  0  0
  -21.9300   -3.9640   23.6870 C   0  0  0  0  0  3  0  0  0  0  0  0
  -22.0380   -4.7820   22.5490 C   0  0  0  0  0  0  0  0  0  0  0  0
  -22.4440   -4.2460   21.3730 F   0  0  0  0  0  0  0  0  0  0  0  0
  -21.3800   -3.7190   25.9990 F   0  0  0  0  0  0  0  0  0  0  0  0
  -22.7700  -13.5510   21.1310 C   0  0  0  0  0  0  0  0  0  0  0  0
  -22.0300  -12.8590   21.9890 N   0  0  0  0  0  0  0  0  0  0  0  0
  -22.3310  -14.5640   20.5860 O   0  0  0  0  0  0  0  0  0  0  0  0
  -22.3970  -12.0410   22.4530 H   0  0  0  0  0  0  0  0  0  0  0  0
  -21.0810  -13.1470   22.1830 H   0  0  0  0  0  0  0  0  0  0  0  0
  -25.4040  -15.2460   20.3710 N   0  0  0  0  0  0  0  0  0  0  0  0
  -24.6390  -15.9060   20.4600 H   0  0  0  0  0  0  0  0  0  0  0  0
  -26.2700  -15.6780   20.0760 H   0  0  0  0  0  0  0  0  0  0  0  0
  -29.4460  -20.5050   20.7340 N   0  0  0  0  0  4  0  0  0  0  0  0
  -30.3510  -20.7410   20.3580 H   0  0  0  0  0  0  0  0  0  0  0  0
  -29.5810  -20.4030   21.7280 H   0  0  0  0  0  0  0  0  0  0  0  0
  -28.5210  -21.7910   20.4930 C   0  0  0  0  0  2  0  0  0  0  0  0
  -28.9250  -23.3960   20.8150 C   0  0  0  0  0  3  0  0  0  0  0  0
  -27.9590  -24.7110   20.3860 C   0  0  0  0  0  3  0  0  0  0  0  0
  -28.2400  -26.2320   20.5530 O   0  0  0  0  0  0  0  0  0  0  0  0
  -24.6080  -31.9860   23.3210 C   0  0  0  0  0  0  0  0  0  0  0  0
  -27.1940  -27.2150   20.4230 C   0  0  0  0  0  0  0  0  0  0  0  0
  -23.4220  -30.5740   21.6850 C   0  0  0  0  0  3  0  0  0  0  0  0
  -24.8810  -28.9690   20.3070 C   0  0  0  0  0  0  0  0  0  0  0  0
  -25.9780  -30.8220   21.5550 C   0  0  0  0  0  2  0  0  0  0  0  0
  -26.0520  -29.4190   20.9300 C   0  0  0  0  0  0  0  0  0  0  0  0
  -27.2100  -28.5580   20.9720 C   0  0  0  0  0  3  0  0  0  0  0  0
  -26.0030  -26.8640   19.7490 C   0  0  0  0  0  3  0  0  0  0  0  0
  -24.8700  -27.7060   19.6990 C   0  0  0  0  0  3  0  0  0  0  0  0
  -23.6590  -29.8750   20.3200 C   0  0  0  0  0  2  0  0  0  0  0  0
  -24.6890  -31.1490   22.2420 N   0  0  0  0  0  0  0  0  0  0  0  0
  -23.5170  -32.2880   23.8280 O   0  0  0  0  0  0  0  0  0  0  0  0
  -22.7210  -29.5860   22.6510 C   0  0  0  0  0  0  0  0  0  0  0  0
  -21.3940  -29.4230   22.5020 N   0  0  0  0  0  0  0  0  0  0  0  0
  -23.3750  -28.9690   23.4950 O   0  0  0  0  0  0  0  0  0  0  0  0
  -20.9260  -29.9690   21.7930 H   0  0  0  0  0  0  0  0  0  0  0  0
  -17.9970  -28.2580   22.9630 C   0  0  0  0  0  0  0  0  0  0  0  0
  -20.5520  -28.5070   23.2760 C   0  0  0  0  0  3  0  0  0  0  0  0
  -20.6550  -27.0630   22.7300 C   0  0  0  0  0  2  0  0  0  0  0  0
  -19.5700  -26.7290   21.7010 C   0  0  0  0  0  2  0  0  0  0  0  0
  -18.1770  -26.8950   22.3140 C   0  0  0  0  0  2  0  0  0  0  0  0
  -19.1130  -29.0210   23.3990 C   0  0  0  0  0  0  0  0  0  0  0  0
  -18.8900  -30.2950   23.9660 C   0  0  0  0  0  3  0  0  0  0  0  0
  -17.5860  -30.8060   24.0990 C   0  0  0  0  0  3  0  0  0  0  0  0
  -16.4840  -30.0410   23.6790 C   0  0  0  0  0  3  0  0  0  0  0  0
  -16.6910  -28.7690   23.1170 C   0  0  0  0  0  3  0  0  0  0  0  0
  -25.8830  -32.6190   23.9570 C   0  0  0  0  0  3  0  0  0  0  0  0
  -26.3660  -31.8650   25.2560 C   0  0  1  0  0  0  0  0  0  0  0  0
  -25.2490  -31.6550   26.3050 C   0  0  0  0  0  1  0  0  0  0  0  0
  -26.9450  -30.4750   24.9030 C   0  0  0  0  0  1  0  0  0  0  0  0
  -27.5140  -32.6580   25.9250 C   0  0  0  0  0  1  0  0  0  0  0  0
  -25.5790  -34.0270   24.2620 N   0  0  0  0  0  0  0  0  0  0  0  0
  -25.9160  -35.0660   23.4870 C   0  0  0  0  0  0  0  0  0  0  0  0
  -26.5810  -34.9410   22.4560 O   0  0  0  0  0  0  0  0  0  0  0  0
  -24.9880  -34.1980   25.0620 H   0  0  0  0  0  0  0  0  0  0  0  0
  -24.1860  -36.8570   23.1230 C   0  0  0  0  0  1  0  0  0  0  0  0
  -25.4400  -36.4660   23.9220 C   0  0  0  0  0  3  0  0  0  0  0  0
  -27.5890  -37.3650   24.6990 C   0  0  0  0  0  1  0  0  0  0  0  0
  -26.4720  -37.5140   23.7690 N   0  0  0  0  0  0  0  0  0  0  0  0
  -26.0710  -38.4390   23.9000 H   0  0  0  0  0  0  0  0  0  0  0  0
  1  8  2  0
  2  7  1  0
  3  4  1  0
  3  2  1  0
  5  4  1  0
  5 23  1  0
  5  6  1  0
  7  1  1  0
  7  6  1  0
  9 11  1  0
  9 10  1  0
 10 19  1  0
 10 15  1  0
 11 14  1  0
 12 15  1  0
 13 16  1  0
 13 12  1  0
 14 19  1  0
 15 48  1  0
 16  9  1  0
 16 18  1  1
 17 16  1  0
 19  1  1  0
 20 21  2  0
 21 40  1  0
 22 21  1  0
 22 25  1  0
 23 20  1  0
 23 24  1  0
 24 22  2  0
 25 26  1  0
 26 27  2  0
 28 31  1  0
 28 27  1  0
 29 28  2  0
 30 29  1  0
 30 25  2  0
 31 32  1  0
 32 33  1  0
 33 34  2  0
 35 34  1  0
 35 39  1  0
 36 35  2  0
 37 32  2  0
 37 36  1  0
 38 37  1  0
 40 41  1  0
 41 44  1  0
 41 43  1  0
 42 40  2  0
 45 46  1  0
 45 20  1  0
 47 45  1  0
 48 50  1  0
 49 48  1  0
 51 48  1  0
 51 52  1  0
 53 54  1  0
 53 52  2  0
 55 66  2  0
 56 54  1  0
 56 61  1  0
 57 65  1  0
 57 67  1  0
 58 64  1  0
 58 60  1  0
 59 65  1  0
 60 61  2  0
 60 59  1  0
 62 56  2  0
 63 62  1  0
 63 58  2  0
 64 57  1  0
 65 55  1  0
 67 69  2  0
 68 67  1  0
 70 68  1  0
 71 80  2  0
 71 76  1  0
 72 68  1  0
 72 76  1  0
 73 72  1  0
 74 75  1  0
 74 73  1  0
 75 71  1  0
 76 77  2  0
 77 78  1  0
 79 78  2  0
 80 79  1  0
 81 55  1  0
 81 86  1  0
 81 82  1  0
 82 85  1  1
 82 83  1  0
 84 82  1  0
 86 89  1  0
 87 91  1  0
 87 86  1  0
 88 87  2  0
 91 90  1  0
 93 94  1  0
 93 91  1  0
 93 92  1  0
M  ISO  4   1 100  19 100  53 101  54 101
M  END
>  <TORSDO>  (7) 
F 19

>  <SCORE>  (7) 
-13.602

>  <name>  (7) 
6

>  <ligand_id>  (7) 
6

>  <original_smiles>  (7) 
[H]c1c([H])c([H])c2c(c1[H])C([H])([H])C([H])([H])C([H])([H])C2([H])N([H])C(=O)C1([H])N(C(=O)C([H])(N([H])C(=O)C([H])(N([H])C([H])([H])[H])C([H])([H])[H])C(C([H])([H])[H])(C([H])([H])[H])C([H])([H])[H])C([H])([H])c2c([H])c(OC([H])([H])C([H])([H])C([H])([H])[N+]([H])([H])C3([H])C4=C(C([H])([H])C([H])([H])N4C(=O)N4C([H])([H])C([H])([H])C([H])([H])C([H])(n5nc(-c6c([H])c([H])c(Oc7c([H])c([H])c(F)c([H])c7F)c([H])c6[H])c(C(=O)N([H])[H])c5N([H])[H])C4([H])[H])C(C([H])([H])[H])(C([H])([H])[H])C([H])([H])C3([H])[H])c([H])c([H])c2C1([H])[H]

>  <smiles>  (7) 
[H]c1c([H])c([H])c2c(c1[H])C([H])([H])C([H])([H])C([H])([H])C2([H])N([H])C(=O)C1([H])N(C(=O)C([H])(N([H])C(=O)C([H])(N([H])C([H])([H])[H])C([H])([H])[H])C(C([H])([H])[H])(C([H])([H])[H])C([H])([H])[H])C([H])([H])c2c([H])c(OC([H])([H])C([H])([H])C([H])([H])[N+]([H])([H])C3([H])C4=C(C([H])([H])C([H])([H])N4C(=O)N4C([H])([H])C([H])([H])C([H])([H])C([H])(n5nc(-c6c([H])c([H])c(Oc7c([H])c([H])c(F)c([H])c7F)c([H])c6[H])c(C(=O)N([H])[H])c5N([H])[H])C4([H])[H])C(C([H])([H])[H])(C([H])([H])[H])C([H])([H])C3([H])[H])c([H])c([H])c2C1([H])[H]

$$$$
7:0:0
     RDKit          3D

 93101  0  0  1  0  0  0  0  0999 V2000
  -30.1970  -21.6640   20.3450 C   0  0  0  0  0  2  0  0  0  0  0  0
  -29.4240  -19.3060   19.5090 C   0  0  0  0  0  3  0  0  0  0  0  0
  -30.5770  -17.9680   21.6710 C   0  0  0  0  0  3  0  0  0  0  0  0
  -30.0150  -20.1080   20.5260 C   0  0  0  0  0  0  0  0  0  0  0  0
  -30.0120  -17.1720   20.6430 C   0  0  0  0  0  0  0  0  0  0  0  0
  -29.4060  -17.8790   19.5650 C   0  0  0  0  0  0  0  0  0  0  0  0
  -30.5860  -19.3940   21.6180 C   0  0  0  0  0  0  0  0  0  0  0  0
  -28.5940  -17.0100   18.3090 Cl  0  0  0  0  0  0  0  0  0  0  0  0
  -31.3430  -20.2460   22.9170 Cl  0  0  0  0  0  0  0  0  0  0  0  0
  -30.6680  -14.7190   20.2730 C   0  0  0  0  0  0  0  0  0  0  0  0
  -30.4410  -12.5150   19.1480 C   0  0  0  0  0  2  0  0  0  0  0  0
  -29.4640  -12.6700   17.9600 C   0  0  0  0  0  2  0  0  0  0  0  0
  -28.0040  -12.4950   18.4220 C   0  0  0  0  0  2  0  0  0  0  0  0
  -27.6740  -13.3340   19.6840 C   0  0  0  0  0  3  0  0  0  0  0  0
  -28.7560  -13.1420   20.7720 C   0  0  0  0  0  2  0  0  0  0  0  0
  -30.0550  -13.4990   20.1780 N   0  0  0  0  0  0  0  0  0  0  0  0
  -31.7980  -14.9160   19.8160 O   0  0  0  0  0  0  0  0  0  0  0  0
  -29.9100  -15.7260   20.7990 N   0  0  0  0  0  0  0  0  0  0  0  0
  -29.0430  -15.4040   21.2010 H   0  0  0  0  0  0  0  0  0  0  0  0
  -25.2980  -13.9190   20.4760 C   0  0  0  0  0  0  0  0  0  0  0  0
  -24.2410  -13.1360   20.8550 C   0  0  0  0  0  0  0  0  0  0  0  0
  -24.7050  -11.7850   20.7840 C   0  0  0  0  0  0  0  0  0  0  0  0
  -26.3370  -13.0450   20.1950 N   0  0  0  0  0  0  0  0  0  0  0  0
  -25.9860  -11.7560   20.4400 N   0  0  0  0  0  0  0  0  0  0  0  0
  -23.9850  -10.5180   20.9660 C   0  0  0  0  0  0  0  0  0  0  0  0
  -24.4020   -9.5600   21.9170 C   0  0  0  0  0  3  0  0  0  0  0  0
  -23.6820   -8.3580   22.0850 C   0  0  0  0  0  3  0  0  0  0  0  0
  -22.5330   -8.1040   21.3010 C   0  0  0  0  0  0  0  0  0  0  0  0
  -22.1330   -9.0520   20.3410 C   0  0  0  0  0  3  0  0  0  0  0  0
  -22.8540  -10.2440   20.1710 C   0  0  0  0  0  3  0  0  0  0  0  0
  -21.7880   -6.9520   21.3760 O   0  0  0  0  0  0  0  0  0  0  0  0
  -21.6580   -6.2530   22.5500 C   0  0  0  0  0  0  0  0  0  0  0  0
  -21.0650   -6.8270   23.6970 C   0  0  0  0  0  3  0  0  0  0  0  0
  -20.8870   -6.0530   24.8610 C   0  0  0  0  0  3  0  0  0  0  0  0
  -21.2900   -4.7050   24.8790 C   0  0  0  0  0  0  0  0  0  0  0  0
  -21.8750   -4.1290   23.7370 C   0  0  0  0  0  3  0  0  0  0  0  0
  -22.0550   -4.9010   22.5750 C   0  0  0  0  0  0  0  0  0  0  0  0
  -22.5990   -4.3340   21.4720 F   0  0  0  0  0  0  0  0  0  0  0  0
  -21.1130   -3.9590   25.9950 F   0  0  0  0  0  0  0  0  0  0  0  0
  -22.8510  -13.6060   21.1710 C   0  0  0  0  0  0  0  0  0  0  0  0
  -22.1490  -12.8960   22.0470 N   0  0  0  0  0  0  0  0  0  0  0  0
  -22.3970  -14.6390   20.6800 O   0  0  0  0  0  0  0  0  0  0  0  0
  -22.5290  -12.0600   22.4660 H   0  0  0  0  0  0  0  0  0  0  0  0
  -21.2190  -13.1960   22.3040 H   0  0  0  0  0  0  0  0  0  0  0  0
  -25.4580  -15.2930   20.3270 N   0  0  0  0  0  0  0  0  0  0  0  0
  -24.6950  -15.9440   20.4810 H   0  0  0  0  0  0  0  0  0  0  0  0
  -26.2920  -15.7390   19.9660 H   0  0  0  0  0  0  0  0  0  0  0  0
  -29.0370  -22.6240   20.4920 N   0  0  0  0  0  4  0  0  0  0  0  0
  -28.5900  -22.4490   21.3790 H   0  0  0  0  0  0  0  0  0  0  0  0
  -28.3700  -22.3880   19.7740 H   0  0  0  0  0  0  0  0  0  0  0  0
  -29.3800  -24.1110   20.4020 C   0  0  0  0  0  3  0  0  0  0  0  0
  -28.1820  -25.1190   20.1330 C   0  0  0  0  0  3  0  0  0  0  0  0
  -28.4050  -26.5800   20.2640 O   0  0  0  0  0  0  0  0  0  0  0  0
  -24.6910  -31.9800   23.2860 C   0  0  0  0  0  0  0  0  0  0  0  0
  -27.2800  -27.4200   20.2220 C   0  0  0  0  0  0  0  0  0  0  0  0
  -23.4700  -30.5720   21.6680 C   0  0  0  0  0  3  0  0  0  0  0  0
  -24.9070  -29.0220   20.2320 C   0  0  0  0  0  0  0  0  0  0  0  0
  -26.0060  -30.8980   21.4530 C   0  0  0  0  0  2  0  0  0  0  0  0
  -26.0820  -29.5180   20.8120 C   0  0  0  0  0  0  0  0  0  0  0  0
  -27.2720  -28.7300   20.7940 C   0  0  0  0  0  3  0  0  0  0  0  0
  -26.0780  -26.9800   19.6170 C   0  0  0  0  0  3  0  0  0  0  0  0
  -24.9090  -27.7600   19.6230 C   0  0  0  0  0  3  0  0  0  0  0  0
  -23.6670  -29.8890   20.2900 C   0  0  0  0  0  2  0  0  0  0  0  0
  -24.7420  -31.1680   22.1920 N   0  0  0  0  0  0  0  0  0  0  0  0
  -23.6140  -32.2590   23.8330 O   0  0  0  0  0  0  0  0  0  0  0  0
  -22.8210  -29.5580   22.6410 C   0  0  0  0  0  0  0  0  0  0  0  0
  -21.5020  -29.3400   22.4960 N   0  0  0  0  0  0  0  0  0  0  0  0
  -23.5020  -28.9700   23.4840 O   0  0  0  0  0  0  0  0  0  0  0  0
  -21.0070  -29.8700   21.7920 H   0  0  0  0  0  0  0  0  0  0  0  0
  -18.1520  -28.0580   22.9600 C   0  0  0  0  0  0  0  0  0  0  0  0
  -20.6960  -28.3990   23.2750 C   0  0  0  0  0  3  0  0  0  0  0  0
  -20.8490  -26.9550   22.7410 C   0  0  0  0  0  2  0  0  0  0  0  0
  -19.7810  -26.5750   21.7120 C   0  0  0  0  0  2  0  0  0  0  0  0
  -18.3820  -26.6970   22.3250 C   0  0  0  0  0  2  0  0  0  0  0  0
  -19.2390  -28.8630   23.3910 C   0  0  0  0  0  0  0  0  0  0  0  0
  -18.9710  -30.1350   23.9440 C   0  0  0  0  0  3  0  0  0  0  0  0
  -17.6500  -30.6030   24.0670 C   0  0  0  0  0  3  0  0  0  0  0  0
  -16.5770  -29.7940   23.6520 C   0  0  0  0  0  3  0  0  0  0  0  0
  -16.8290  -28.5230   23.1060 C   0  0  0  0  0  3  0  0  0  0  0  0
  -25.9810  -32.6180   23.8900 C   0  0  0  0  0  3  0  0  0  0  0  0
  -26.5150  -31.8520   25.1630 C   0  0  1  0  0  0  0  0  0  0  0  0
  -25.4320  -31.5940   26.2360 C   0  0  0  0  0  1  0  0  0  0  0  0
  -27.1170  -30.4840   24.7640 C   0  0  0  0  0  1  0  0  0  0  0  0
  -27.6570  -32.6630   25.8200 C   0  0  0  0  0  1  0  0  0  0  0  0
  -25.6710  -34.0150   24.2190 N   0  0  0  0  0  0  0  0  0  0  0  0
  -25.9610  -35.0650   23.4380 C   0  0  0  0  0  0  0  0  0  0  0  0
  -26.5870  -34.9580   22.3790 O   0  0  0  0  0  0  0  0  0  0  0  0
  -25.1100  -34.1720   25.0430 H   0  0  0  0  0  0  0  0  0  0  0  0
  -24.2000  -36.8360   23.1460 C   0  0  0  0  0  1  0  0  0  0  0  0
  -25.4810  -36.4530   23.9030 C   0  0  0  0  0  3  0  0  0  0  0  0
  -27.6350  -37.3790   24.6340 C   0  0  0  0  0  1  0  0  0  0  0  0
  -26.4960  -37.5160   23.7300 N   0  0  0  0  0  0  0  0  0  0  0  0
  -26.0840  -38.4350   23.8760 H   0  0  0  0  0  0  0  0  0  0  0  0
  1 48  1  0
  1  4  1  0
  2  6  2  0
  2  4  1  0
  4  7  2  0
  5 18  1  0
  5  3  2  0
  6  5  1  0
  7  3  1  0
  7  9  1  0
  8  6  1  0
 10 18  1  0
 11 16  1  0
 12 13  1  0
 12 11  1  0
 14 13  1  0
 14 23  1  0
 14 15  1  0
 16 10  1  0
 16 15  1  0
 17 10  2  0
 18 19  1  0
 20 21  2  0
 21 40  1  0
 22 21  1  0
 22 25  1  0
 23 24  1  0
 23 20  1  0
 24 22  2  0
 25 26  1  0
 26 27  2  0
 28 31  1  0
 28 27  1  0
 29 28  2  0
 30 29  1  0
 30 25  2  0
 31 32  1  0
 32 37  2  0
 32 33  1  0
 33 34  2  0
 34 35  1  0
 35 39  1  0
 36 35  2  0
 37 36  1  0
 38 37  1  0
 40 41  1  0
 41 44  1  0
 41 43  1  0
 42 40  2  0
 45 20  1  0
 45 46  1  0
 47 45  1  0
 48 49  1  0
 50 48  1  0
 51 48  1  0
 52 53  1  0
 52 51  2  0
 54 65  2  0
 55 53  1  0
 55 60  1  0
 56 64  1  0
 56 66  1  0
 57 63  1  0
 57 59  1  0
 58 64  1  0
 59 58  1  0
 60 59  2  0
 61 62  1  0
 61 55  2  0
 62 57  2  0
 63 56  1  0
 64 54  1  0
 66 68  2  0
 67 66  1  0
 69 67  1  0
 70 79  2  0
 70 75  1  0
 71 67  1  0
 71 75  1  0
 72 71  1  0
 73 74  1  0
 73 72  1  0
 74 70  1  0
 75 76  2  0
 76 77  1  0
 78 77  2  0
 79 78  1  0
 80 54  1  0
 80 85  1  0
 80 81  1  0
 81 84  1  1
 81 82  1  0
 83 81  1  0
 85 88  1  0
 86 90  1  0
 86 85  1  0
 87 86  2  0
 90 89  1  0
 92 93  1  0
 92 90  1  0
 92 91  1  0
M  ISO  4  10 100  18 100  52 101  53 101
M  END
>  <TORSDO>  (8) 
F 20

>  <SCORE>  (8) 
-13.838

>  <name>  (8) 
7

>  <ligand_id>  (8) 
7

>  <original_smiles>  (8) 
[H]c1c([H])c([H])c2c(c1[H])C([H])([H])C([H])([H])C([H])([H])C2([H])N([H])C(=O)C1([H])N(C(=O)C([H])(N([H])C(=O)C([H])(N([H])C([H])([H])[H])C([H])([H])[H])C(C([H])([H])[H])(C([H])([H])[H])C([H])([H])[H])C([H])([H])c2c([H])c(OC([H])([H])C([H])([H])[N+]([H])([H])C([H])([H])c3c([H])c(Cl)c(N([H])C(=O)N4C([H])([H])C([H])([H])C([H])([H])C([H])(n5nc(-c6c([H])c([H])c(Oc7c([H])c([H])c(F)c([H])c7F)c([H])c6[H])c(C(=O)N([H])[H])c5N([H])[H])C4([H])[H])c([H])c3Cl)c([H])c([H])c2C1([H])[H]

>  <smiles>  (8) 
[H]c1c([H])c([H])c2c(c1[H])C([H])([H])C([H])([H])C([H])([H])C2([H])N([H])C(=O)C1([H])N(C(=O)C([H])(N([H])C(=O)C([H])(N([H])C([H])([H])[H])C([H])([H])[H])C(C([H])([H])[H])(C([H])([H])[H])C([H])([H])[H])C([H])([H])c2c([H])c(OC([H])([H])C([H])([H])[N+]([H])([H])C([H])([H])c3c([H])c(Cl)c(N([H])C(=O)N4C([H])([H])C([H])([H])C([H])([H])C([H])(n5nc(-c6c([H])c([H])c(Oc7c([H])c([H])c(F)c([H])c7F)c([H])c6[H])c(C(=O)N([H])[H])c5N([H])[H])C4([H])[H])c([H])c3Cl)c([H])c([H])c2C1([H])[H]

$$$$
8:0:0
     RDKit          3D

 93101  0  0  1  0  0  0  0  0999 V2000
  -29.4790  -21.4390   20.6890 N   0  0  0  0  0  4  0  0  0  0  0  0
  -30.1460  -21.3000   19.9490 H   0  0  0  0  0  0  0  0  0  0  0  0
  -29.9920  -21.6230   21.5350 H   0  0  0  0  0  0  0  0  0  0  0  0
  -28.6940  -20.1700   20.8840 C   0  0  0  0  0  2  0  0  0  0  0  0
  -29.1720  -18.0620   19.5290 C   0  0  0  0  0  3  0  0  0  0  0  0
  -30.3030  -16.0330   20.3990 C   0  0  0  0  0  0  0  0  0  0  0  0
  -29.6230  -16.7310   19.3500 C   0  0  0  0  0  0  0  0  0  0  0  0
  -29.3890  -18.7830   20.7210 C   0  0  0  0  0  0  0  0  0  0  0  0
  -30.1000  -18.1140   21.7610 C   0  0  0  0  0  0  0  0  0  0  0  0
  -30.5340  -16.7540   21.6050 C   0  0  0  0  0  0  0  0  0  0  0  0
  -29.3460  -16.1050   17.9870 C   0  0  0  0  0  1  0  0  0  0  0  0
  -30.3920  -18.8450   23.0660 C   0  0  0  0  0  1  0  0  0  0  0  0
  -31.3840  -15.9750   22.9010 Cl  0  0  0  0  0  0  0  0  0  0  0  0
  -30.9550  -14.6700   20.1350 C   0  0  0  0  0  0  0  0  0  0  0  0
  -30.5560  -12.5030   19.0310 C   0  0  0  0  0  2  0  0  0  0  0  0
  -29.5860  -12.7190   17.8500 C   0  0  0  0  0  2  0  0  0  0  0  0
  -28.1250  -12.6030   18.3230 C   0  0  0  0  0  2  0  0  0  0  0  0
  -27.8340  -13.4190   19.6120 C   0  0  0  0  0  3  0  0  0  0  0  0
  -28.9370  -13.2370   20.6780 C   0  0  0  0  0  2  0  0  0  0  0  0
  -30.2330  -13.5130   20.0550 N   0  0  0  0  0  0  0  0  0  0  0  0
  -32.1220  -14.7190   19.7420 O   0  0  0  0  0  0  0  0  0  0  0  0
  -25.4770  -14.0040   20.4490 C   0  0  0  0  0  0  0  0  0  0  0  0
  -24.4220  -13.2260   20.8420 C   0  0  0  0  0  0  0  0  0  0  0  0
  -24.8750  -11.8740   20.7600 C   0  0  0  0  0  0  0  0  0  0  0  0
  -26.5070  -13.1270   20.1480 N   0  0  0  0  0  0  0  0  0  0  0  0
  -26.1540  -11.8400   20.3990 N   0  0  0  0  0  0  0  0  0  0  0  0
  -24.1480  -10.6110   20.9510 C   0  0  0  0  0  0  0  0  0  0  0  0
  -24.5590   -9.6590   21.9090 C   0  0  0  0  0  3  0  0  0  0  0  0
  -23.8340   -8.4610   22.0870 C   0  0  0  0  0  3  0  0  0  0  0  0
  -22.6830   -8.2030   21.3040 C   0  0  0  0  0  0  0  0  0  0  0  0
  -22.2900   -9.1450   20.3370 C   0  0  0  0  0  3  0  0  0  0  0  0
  -23.0170  -10.3350   20.1580 C   0  0  0  0  0  3  0  0  0  0  0  0
  -21.9310   -7.0580   21.3910 O   0  0  0  0  0  0  0  0  0  0  0  0
  -21.7920   -6.3740   22.5720 C   0  0  0  0  0  0  0  0  0  0  0  0
  -21.2850   -6.9920   23.7350 C   0  0  0  0  0  3  0  0  0  0  0  0
  -21.0920   -6.2340   24.9080 C   0  0  0  0  0  3  0  0  0  0  0  0
  -21.3940   -4.8600   24.9180 C   0  0  0  0  0  0  0  0  0  0  0  0
  -21.8940   -4.2410   23.7590 C   0  0  0  0  0  3  0  0  0  0  0  0
  -22.0900   -4.9950   22.5890 C   0  0  0  0  0  0  0  0  0  0  0  0
  -22.5520   -4.3890   21.4690 F   0  0  0  0  0  0  0  0  0  0  0  0
  -21.2030   -4.1310   26.0420 F   0  0  0  0  0  0  0  0  0  0  0  0
  -23.0370  -13.7020   21.1740 C   0  0  0  0  0  0  0  0  0  0  0  0
  -22.3500  -13.0160   22.0790 N   0  0  0  0  0  0  0  0  0  0  0  0
  -22.5720  -14.7200   20.6640 O   0  0  0  0  0  0  0  0  0  0  0  0
  -22.7360  -12.1950   22.5190 H   0  0  0  0  0  0  0  0  0  0  0  0
  -21.4210  -13.3180   22.3380 H   0  0  0  0  0  0  0  0  0  0  0  0
  -25.6410  -15.3780   20.3020 N   0  0  0  0  0  0  0  0  0  0  0  0
  -24.8800  -16.0280   20.4610 H   0  0  0  0  0  0  0  0  0  0  0  0
  -26.4820  -15.8230   19.9600 H   0  0  0  0  0  0  0  0  0  0  0  0
  -28.6080  -22.6240   20.3570 C   0  0  0  0  0  2  0  0  0  0  0  0
  -29.2300  -24.0770   20.3850 C   0  0  0  0  0  2  0  0  0  0  0  0
  -28.1860  -25.1530   19.9240 C   0  0  0  0  0  2  0  0  0  0  0  0
  -28.4420  -26.5900   20.0610 O   0  0  0  0  0  0  0  0  0  0  0  0
  -24.6670  -31.8140   23.2150 C   0  0  0  0  0  0  0  0  0  0  0  0
  -27.3090  -27.4090   20.0220 C   0  0  0  0  0  0  0  0  0  0  0  0
  -23.4600  -30.4320   21.5640 C   0  0  0  0  0  3  0  0  0  0  0  0
  -24.9130  -28.9510   20.0820 C   0  0  0  0  0  0  0  0  0  0  0  0
  -25.9860  -30.8070   21.3470 C   0  0  0  0  0  2  0  0  0  0  0  0
  -26.0790  -29.4500   20.6730 C   0  0  0  0  0  0  0  0  0  0  0  0
  -27.2810  -28.6900   20.6410 C   0  0  0  0  0  3  0  0  0  0  0  0
  -26.1190  -26.9660   19.3900 C   0  0  0  0  0  3  0  0  0  0  0  0
  -24.9320  -27.7120   19.4320 C   0  0  0  0  0  3  0  0  0  0  0  0
  -23.6600  -29.7960   20.1650 C   0  0  0  0  0  2  0  0  0  0  0  0
  -24.7240  -31.0340   22.0990 N   0  0  0  0  0  0  0  0  0  0  0  0
  -23.5890  -32.0630   23.7710 O   0  0  0  0  0  0  0  0  0  0  0  0
  -22.8350  -29.3790   22.5110 C   0  0  0  0  0  0  0  0  0  0  0  0
  -21.5150  -29.1600   22.3830 N   0  0  0  0  0  0  0  0  0  0  0  0
  -23.5350  -28.7650   23.3200 O   0  0  0  0  0  0  0  0  0  0  0  0
  -21.0080  -29.7090   21.7020 H   0  0  0  0  0  0  0  0  0  0  0  0
  -18.1810  -27.8460   22.8550 C   0  0  0  0  0  0  0  0  0  0  0  0
  -20.7250  -28.1920   23.1440 C   0  0  0  0  0  3  0  0  0  0  0  0
  -20.8830  -26.7680   22.5650 C   0  0  0  0  0  2  0  0  0  0  0  0
  -19.7990  -26.4100   21.5430 C   0  0  0  0  0  2  0  0  0  0  0  0
  -18.4100  -26.5060   22.1770 C   0  0  0  0  0  2  0  0  0  0  0  0
  -19.2680  -28.6450   23.2960 C   0  0  0  0  0  0  0  0  0  0  0  0
  -19.0030  -29.8980   23.8900 C   0  0  0  0  0  3  0  0  0  0  0  0
  -17.6800  -30.3540   24.0480 C   0  0  0  0  0  3  0  0  0  0  0  0
  -16.6070  -29.5530   23.6230 C   0  0  0  0  0  3  0  0  0  0  0  0
  -16.8570  -28.3020   23.0340 C   0  0  0  0  0  3  0  0  0  0  0  0
  -25.9510  -32.4560   23.8270 C   0  0  0  0  0  3  0  0  0  0  0  0
  -25.6200  -33.8380   24.2000 N   0  0  0  0  0  0  0  0  0  0  0  0
  -25.9140  -34.9170   23.4630 C   0  0  0  0  0  0  0  0  0  0  0  0
  -26.5680  -34.8560   22.4180 O   0  0  0  0  0  0  0  0  0  0  0  0
  -25.0410  -33.9600   25.0180 H   0  0  0  0  0  0  0  0  0  0  0  0
  -24.1420  -36.6810   23.1950 C   0  0  0  0  0  1  0  0  0  0  0  0
  -25.4080  -36.2820   23.9700 C   0  0  0  0  0  3  0  0  0  0  0  0
  -27.5390  -37.1910   24.7810 C   0  0  0  0  0  1  0  0  0  0  0  0
  -26.4150  -37.3600   23.8640 N   0  0  0  0  0  0  0  0  0  0  0  0
  -25.9920  -38.2670   24.0460 H   0  0  0  0  0  0  0  0  0  0  0  0
  -26.5090  -31.6600   25.0700 C   0  0  1  0  0  0  0  0  0  0  0  0
  -25.4430  -31.3700   26.1510 C   0  0  0  0  0  1  0  0  0  0  0  0
  -27.1140  -30.3090   24.6290 C   0  0  0  0  0  1  0  0  0  0  0  0
  -27.6550  -32.4610   25.7330 C   0  0  0  0  0  1  0  0  0  0  0  0
  1  4  1  0
  1  3  1  0
  2  1  1  0
  5  8  1  0
  6 10  2  0
  7  5  2  0
  7  6  1  0
  8  4  1  0
  8  9  2  0
  9 12  1  0
 10  9  1  0
 10 13  1  0
 11  7  1  0
 14  6  1  0
 15 20  1  0
 16 17  1  0
 16 15  1  0
 18 17  1  0
 18 25  1  0
 18 19  1  0
 20 14  1  0
 20 19  1  0
 21 14  2  0
 22 23  2  0
 23 42  1  0
 24 23  1  0
 24 27  1  0
 25 26  1  0
 25 22  1  0
 26 24  2  0
 27 28  1  0
 28 29  2  0
 30 33  1  0
 30 29  1  0
 31 30  2  0
 32 31  1  0
 32 27  2  0
 33 34  1  0
 34 39  2  0
 34 35  1  0
 35 36  2  0
 36 37  1  0
 37 41  1  0
 38 37  2  0
 39 38  1  0
 40 39  1  0
 42 43  1  0
 43 46  1  0
 43 45  1  0
 44 42  2  0
 47 22  1  0
 47 48  1  0
 49 47  1  0
 50 51  1  0
 50  1  1  0
 52 53  1  0
 52 51  1  0
 54 65  2  0
 55 53  1  0
 55 60  1  0
 56 64  1  0
 56 66  1  0
 57 63  1  0
 57 59  1  0
 58 64  1  0
 59 58  1  0
 60 59  2  0
 61 62  1  0
 61 55  2  0
 62 57  2  0
 63 56  1  0
 64 54  1  0
 66 68  2  0
 67 66  1  0
 69 67  1  0
 70 79  2  0
 70 75  1  0
 71 67  1  0
 71 75  1  0
 72 71  1  0
 73 74  1  0
 73 72  1  0
 74 70  1  0
 75 76  2  0
 76 77  1  0
 78 77  2  0
 79 78  1  0
 80 54  1  0
 80 81  1  0
 80 90  1  0
 81 84  1  0
 82 86  1  0
 82 81  1  0
 83 82  2  0
 86 85  1  0
 88 86  1  0
 88 89  1  0
 88 87  1  0
 90 93  1  1
 90 91  1  0
 92 90  1  0
M  ISO  4   6 100  14 100  52 101  53 101
M  END
>  <TORSDO>  (9) 
F 21

>  <SCORE>  (9) 
-10.487

>  <name>  (9) 
8

>  <ligand_id>  (9) 
8

>  <original_smiles>  (9) 
[H]c1c([H])c([H])c2c(c1[H])C([H])([H])C([H])([H])C([H])([H])C2([H])N([H])C(=O)C1([H])N(C(=O)C([H])(N([H])C(=O)C([H])(N([H])C([H])([H])[H])C([H])([H])[H])C(C([H])([H])[H])(C([H])([H])[H])C([H])([H])[H])C([H])([H])c2c([H])c(OC([H])([H])C([H])([H])C([H])([H])[N+]([H])([H])C([H])([H])c3c([H])c(C([H])([H])[H])c(C(=O)N4C([H])([H])C([H])([H])C([H])([H])C([H])(n5nc(-c6c([H])c([H])c(Oc7c([H])c([H])c(F)c([H])c7F)c([H])c6[H])c(C(=O)N([H])[H])c5N([H])[H])C4([H])[H])c(Cl)c3C([H])([H])[H])c([H])c([H])c2C1([H])[H]

>  <smiles>  (9) 
[H]c1c([H])c([H])c2c(c1[H])C([H])([H])C([H])([H])C([H])([H])C2([H])N([H])C(=O)C1([H])N(C(=O)C([H])(N([H])C(=O)C([H])(N([H])C([H])([H])[H])C([H])([H])[H])C(C([H])([H])[H])(C([H])([H])[H])C([H])([H])[H])C([H])([H])c2c([H])c(OC([H])([H])C([H])([H])C([H])([H])[N+]([H])([H])C([H])([H])c3c([H])c(C([H])([H])[H])c(C(=O)N4C([H])([H])C([H])([H])C([H])([H])C([H])(n5nc(-c6c([H])c([H])c(Oc7c([H])c([H])c(F)c([H])c7F)c([H])c6[H])c(C(=O)N([H])[H])c5N([H])[H])C4([H])[H])c(Cl)c3C([H])([H])[H])c([H])c([H])c2C1([H])[H]

$$$$
9:0:0
     RDKit          3D

 98107  0  0  1  0  0  0  0  0999 V2000
  -30.1510  -19.9910   20.9150 C   0  0  0  0  0  2  0  0  0  0  0  0
  -28.3230  -19.4250   19.4630 C   0  0  0  0  0  2  0  0  0  0  0  0
  -30.2620  -18.4720   21.4310 C   0  0  0  0  0  2  0  0  0  0  0  0
  -28.2370  -17.9330   20.0070 C   0  0  0  0  0  2  0  0  0  0  0  0
  -28.7590  -20.5630   20.4630 C   0  0  0  0  0  3  0  0  0  0  0  0
  -29.4870  -17.2840   20.7190 C   0  0  0  0  0  3  0  0  0  0  0  0
  -30.7440  -14.8820   20.4240 C   0  0  0  0  0  0  0  0  0  0  0  0
  -30.4580  -12.5960   19.4190 C   0  0  0  0  0  2  0  0  0  0  0  0
  -29.5360  -12.5720   18.1860 C   0  0  0  0  0  2  0  0  0  0  0  0
  -28.0670  -12.4040   18.6190 C   0  0  0  0  0  2  0  0  0  0  0  0
  -27.6720  -13.3250   19.8060 C   0  0  0  0  0  3  0  0  0  0  0  0
  -28.7360  -13.3530   20.9220 C   0  0  0  0  0  2  0  0  0  0  0  0
  -29.9990  -13.7220   20.2750 N   0  0  0  0  0  0  0  0  0  0  0  0
  -31.9640  -14.7210   20.3780 O   0  0  0  0  0  0  0  0  0  0  0  0
  -30.2590  -16.1490   19.9920 N   0  0  0  0  0  0  0  0  0  0  0  0
  -25.2920  -13.8900   20.5460 C   0  0  0  0  0  0  0  0  0  0  0  0
  -24.2280  -13.1110   20.9020 C   0  0  0  0  0  0  0  0  0  0  0  0
  -24.6950  -11.7600   20.8650 C   0  0  0  0  0  0  0  0  0  0  0  0
  -26.3380  -13.0170   20.3080 N   0  0  0  0  0  0  0  0  0  0  0  0
  -25.9890  -11.7290   20.5670 N   0  0  0  0  0  0  0  0  0  0  0  0
  -23.9680  -10.4950   21.0370 C   0  0  0  0  0  0  0  0  0  0  0  0
  -24.3740   -9.5310   21.9860 C   0  0  0  0  0  3  0  0  0  0  0  0
  -23.6450   -8.3330   22.1480 C   0  0  0  0  0  3  0  0  0  0  0  0
  -22.4950   -8.0880   21.3590 C   0  0  0  0  0  0  0  0  0  0  0  0
  -22.1080   -9.0410   20.4010 C   0  0  0  0  0  3  0  0  0  0  0  0
  -22.8380  -10.2310   20.2370 C   0  0  0  0  0  3  0  0  0  0  0  0
  -21.7430   -6.9420   21.4280 O   0  0  0  0  0  0  0  0  0  0  0  0
  -21.6380   -6.2180   22.5900 C   0  0  0  0  0  0  0  0  0  0  0  0
  -21.1270   -6.7830   23.7790 C   0  0  0  0  0  3  0  0  0  0  0  0
  -20.9730   -5.9820   24.9290 C   0  0  0  0  0  3  0  0  0  0  0  0
  -21.3200   -4.6180   24.8900 C   0  0  0  0  0  0  0  0  0  0  0  0
  -21.8250   -4.0530   23.7060 C   0  0  0  0  0  3  0  0  0  0  0  0
  -21.9800   -4.8500   22.5590 C   0  0  0  0  0  0  0  0  0  0  0  0
  -22.4450   -4.2940   21.4150 F   0  0  0  0  0  0  0  0  0  0  0  0
  -21.1660   -3.8500   25.9930 F   0  0  0  0  0  0  0  0  0  0  0  0
  -22.8270  -13.5840   21.1570 C   0  0  0  0  0  0  0  0  0  0  0  0
  -22.0810  -12.8750   21.9960 N   0  0  0  0  0  0  0  0  0  0  0  0
  -22.4030  -14.6220   20.6500 O   0  0  0  0  0  0  0  0  0  0  0  0
  -22.4360  -12.0380   22.4330 H   0  0  0  0  0  0  0  0  0  0  0  0
  -21.1410  -13.1800   22.2070 H   0  0  0  0  0  0  0  0  0  0  0  0
  -25.4570  -15.2630   20.3800 N   0  0  0  0  0  0  0  0  0  0  0  0
  -24.6870  -15.9140   20.4840 H   0  0  0  0  0  0  0  0  0  0  0  0
  -26.3110  -15.7020   20.0620 H   0  0  0  0  0  0  0  0  0  0  0  0
  -30.8610  -16.6880   18.7380 C   0  0  0  0  0  2  0  0  0  0  0  0
  -32.3910  -17.0390   18.7110 C   0  0  0  0  0  2  0  0  0  0  0  0
  -33.5730  -21.1470   19.5510 C   0  0  0  0  0  3  0  0  0  0  0  0
  -33.5780  -18.7790   20.1160 C   0  0  0  0  0  3  0  0  0  0  0  0
  -32.8180  -20.8710   18.3920 C   0  0  0  0  0  0  0  0  0  0  0  0
  -32.7800  -18.4890   18.9850 C   0  0  0  0  0  0  0  0  0  0  0  0
  -33.9540  -20.1020   20.4110 C   0  0  0  0  0  0  0  0  0  0  0  0
  -32.4150  -19.5440   18.1080 C   0  0  0  0  0  0  0  0  0  0  0  0
  -32.4580  -22.0130   17.4610 C   0  0  0  0  0  1  0  0  0  0  0  0
  -34.8680  -20.4470   21.8320 Cl  0  0  0  0  0  0  0  0  0  0  0  0
  -31.4960  -19.2210   16.6780 Cl  0  0  0  0  0  0  0  0  0  0  0  0
  -28.7100  -22.0870   19.8120 C   0  0  0  0  0  2  0  0  0  0  0  0
  -28.4330  -23.5180   20.5830 C   0  0  0  0  0  3  0  0  0  0  0  0
  -28.3660  -24.9300   19.7330 C   0  0  0  0  0  3  0  0  0  0  0  0
  -28.3110  -26.3470   20.3000 O   0  0  0  0  0  0  0  0  0  0  0  0
  -24.6050  -31.8960   23.2300 C   0  0  0  0  0  0  0  0  0  0  0  0
  -27.2090  -27.2440   20.2040 C   0  0  0  0  0  0  0  0  0  0  0  0
  -23.4080  -30.4840   21.6020 C   0  0  0  0  0  3  0  0  0  0  0  0
  -24.8590  -28.9250   20.1760 C   0  0  0  0  0  0  0  0  0  0  0  0
  -25.9520  -30.7830   21.4230 C   0  0  0  0  0  2  0  0  0  0  0  0
  -26.0320  -29.3960   20.7770 C   0  0  0  0  0  0  0  0  0  0  0  0
  -27.2060  -28.5690   20.7790 C   0  0  0  0  0  3  0  0  0  0  0  0
  -26.0070  -26.8510   19.5750 C   0  0  0  0  0  3  0  0  0  0  0  0
  -24.8570  -27.6650   19.5600 C   0  0  0  0  0  3  0  0  0  0  0  0
  -23.6240  -29.8060   20.2240 C   0  0  0  0  0  2  0  0  0  0  0  0
  -24.6750  -31.0750   22.1410 N   0  0  0  0  0  0  0  0  0  0  0  0
  -23.5190  -32.1760   23.7610 O   0  0  0  0  0  0  0  0  0  0  0  0
  -22.7460  -29.4720   22.5710 C   0  0  0  0  0  0  0  0  0  0  0  0
  -21.4210  -29.2860   22.4440 N   0  0  0  0  0  0  0  0  0  0  0  0
  -23.4250  -28.8570   23.3980 O   0  0  0  0  0  0  0  0  0  0  0  0
  -20.9310  -29.8330   21.7490 H   0  0  0  0  0  0  0  0  0  0  0  0
  -18.0470  -28.0780   22.9640 C   0  0  0  0  0  0  0  0  0  0  0  0
  -20.6050  -28.3490   23.2210 C   0  0  0  0  0  3  0  0  0  0  0  0
  -20.7080  -26.9150   22.6500 C   0  0  0  0  0  2  0  0  0  0  0  0
  -19.6030  -26.5850   21.6420 C   0  0  0  0  0  2  0  0  0  0  0  0
  -18.2240  -26.7270   22.2910 C   0  0  0  0  0  2  0  0  0  0  0  0
  -19.1640  -28.8460   23.3860 C   0  0  0  0  0  0  0  0  0  0  0  0
  -18.9430  -30.1100   23.9760 C   0  0  0  0  0  3  0  0  0  0  0  0
  -17.6360  -30.6040   24.1500 C   0  0  0  0  0  3  0  0  0  0  0  0
  -16.5340  -29.8330   23.7400 C   0  0  0  0  0  3  0  0  0  0  0  0
  -16.7400  -28.5720   23.1530 C   0  0  0  0  0  3  0  0  0  0  0  0
  -25.8820  -32.5400   23.8510 C   0  0  0  0  0  3  0  0  0  0  0  0
  -25.5650  -33.9410   24.1700 N   0  0  0  0  0  0  0  0  0  0  0  0
  -25.8950  -34.9920   23.4080 C   0  0  0  0  0  0  0  0  0  0  0  0
  -26.5670  -34.8860   22.3790 O   0  0  0  0  0  0  0  0  0  0  0  0
  -24.9640  -34.0960   24.9660 H   0  0  0  0  0  0  0  0  0  0  0  0
  -24.1720  -36.7870   23.0320 C   0  0  0  0  0  1  0  0  0  0  0  0
  -25.4030  -36.3830   23.8570 C   0  0  0  0  0  3  0  0  0  0  0  0
  -27.5240  -37.2740   24.7170 C   0  0  0  0  0  1  0  0  0  0  0  0
  -26.4390  -37.4340   23.7530 N   0  0  0  0  0  0  0  0  0  0  0  0
  -26.0310  -38.3560   23.8850 H   0  0  0  0  0  0  0  0  0  0  0  0
  -26.3970  -31.7850   25.1370 C   0  0  1  0  0  0  0  0  0  0  0  0
  -25.3000  -31.5460   26.2010 C   0  0  0  0  0  1  0  0  0  0  0  0
  -26.9940  -30.4080   24.7660 C   0  0  0  0  0  1  0  0  0  0  0  0
  -27.5390  -32.5940   25.7960 C   0  0  0  0  0  1  0  0  0  0  0  0
  1  3  1  0
  2  4  1  0
  2  5  1  0
  4  6  1  0
  5 55  1  0
  5  1  1  0
  6 15  1  0
  6  3  1  0
  8 13  1  0
  9 10  1  0
  9  8  1  0
 11 10  1  0
 11 19  1  0
 11 12  1  0
 13  7  1  0
 13 12  1  0
 14  7  2  0
 15  7  1  0
 16 17  2  0
 17 36  1  0
 18 17  1  0
 18 21  1  0
 19 16  1  0
 19 20  1  0
 20 18  2  0
 21 22  1  0
 22 23  2  0
 24 27  1  0
 24 23  1  0
 25 24  2  0
 26 25  1  0
 26 21  2  0
 27 28  1  0
 28 29  1  0
 29 30  2  0
 31 30  1  0
 31 35  1  0
 32 31  2  0
 33 28  2  0
 33 32  1  0
 34 33  1  0
 36 37  1  0
 37 40  1  0
 37 39  1  0
 38 36  2  0
 41 42  1  0
 41 16  1  0
 43 41  1  0
 44 15  1  0
 45 44  1  0
 45 49  1  0
 46 50  1  0
 47 50  2  0
 48 46  2  0
 49 47  1  0
 50 53  1  0
 51 48  1  0
 51 49  2  0
 52 48  1  0
 54 51  1  0
 55 56  1  0
 57 58  1  0
 57 56  2  0
 59 70  2  0
 60 58  1  0
 60 65  1  0
 61 69  1  0
 61 71  1  0
 62 68  1  0
 62 64  1  0
 63 69  1  0
 64 65  2  0
 64 63  1  0
 66 60  2  0
 67 66  1  0
 67 62  2  0
 68 61  1  0
 69 59  1  0
 71 73  2  0
 72 71  1  0
 74 72  1  0
 75 84  2  0
 75 80  1  0
 76 72  1  0
 76 80  1  0
 77 76  1  0
 78 79  1  0
 78 77  1  0
 79 75  1  0
 80 81  2  0
 81 82  1  0
 83 82  2  0
 84 83  1  0
 85 59  1  0
 85 86  1  0
 85 95  1  0
 86 89  1  0
 87 91  1  0
 87 86  1  0
 88 87  2  0
 91 90  1  0
 93 91  1  0
 93 94  1  0
 93 92  1  0
 95 98  1  1
 95 96  1  0
 97 95  1  0
M  ISO  4   7 100  15 100  57 101  58 101
M  END
>  <TORSDO>  (10) 
F 22

>  <SCORE>  (10) 
-13.644

>  <name>  (10) 
9

>  <ligand_id>  (10) 
9

>  <original_smiles>  (10) 
[H]c1c([H])c([H])c2c(c1[H])C([H])([H])C([H])([H])C([H])([H])C2([H])N([H])C(=O)C1([H])N(C(=O)C([H])(N([H])C(=O)C([H])(N([H])C([H])([H])[H])C([H])([H])[H])C(C([H])([H])[H])(C([H])([H])[H])C([H])([H])[H])C([H])([H])c2c([H])c(OC([H])([H])C([H])([H])C([H])([H])C3([H])C([H])([H])C([H])([H])C([H])(N(C(=O)N4C([H])([H])C([H])([H])C([H])([H])C([H])(n5nc(-c6c([H])c([H])c(Oc7c([H])c([H])c(F)c([H])c7F)c([H])c6[H])c(C(=O)N([H])[H])c5N([H])[H])C4([H])[H])C([H])([H])C([H])([H])c4c([H])c(Cl)c([H])c(C([H])([H])[H])c4Cl)C([H])([H])C3([H])[H])c([H])c([H])c2C1([H])[H]

>  <smiles>  (10) 
[H]c1c([H])c([H])c2c(c1[H])C([H])([H])C([H])([H])C([H])([H])C2([H])N([H])C(=O)C1([H])N(C(=O)C([H])(N([H])C(=O)C([H])(N([H])C([H])([H])[H])C([H])([H])[H])C(C([H])([H])[H])(C([H])([H])[H])C([H])([H])[H])C([H])([H])c2c([H])c(OC([H])([H])C([H])([H])C([H])([H])C3([H])C([H])([H])C([H])([H])C([H])(N(C(=O)N4C([H])([H])C([H])([H])C([H])([H])C([H])(n5nc(-c6c([H])c([H])c(Oc7c([H])c([H])c(F)c([H])c7F)c([H])c6[H])c(C(=O)N([H])[H])c5N([H])[H])C4([H])[H])C([H])([H])C([H])([H])c4c([H])c(Cl)c([H])c(C([H])([H])[H])c4Cl)C([H])([H])C3([H])[H])c([H])c([H])c2C1([H])[H]

$$$$
10:0:0
     RDKit          3D

101109  0  0  1  0  0  0  0  0999 V2000
  -26.2420  -24.7490   17.1910 C   0  0  0  0  0  3  0  0  0  0  0  0
  -28.4050  -23.6720   16.9600 C   0  0  0  0  0  3  0  0  0  0  0  0
  -27.6480  -24.8220   17.2600 C   0  0  0  0  0  0  0  0  0  0  0  0
  -26.3510  -22.3340   16.8070 C   0  0  0  0  0  0  0  0  0  0  0  0
  -25.5930  -23.5170   17.0020 C   0  0  0  0  0  0  0  0  0  0  0  0
  -27.7640  -22.4440   16.7000 C   0  0  0  0  0  0  0  0  0  0  0  0
  -23.8640  -23.5110   17.0490 Cl  0  0  0  0  0  0  0  0  0  0  0  0
  -28.7560  -21.0810   16.3060 Cl  0  0  0  0  0  0  0  0  0  0  0  0
  -28.3200  -26.1170   17.7070 C   0  0  0  0  0  2  0  0  0  0  0  0
  -28.8300  -26.0320   19.1740 C   0  0  0  0  0  2  0  0  0  0  0  0
  -28.8180  -27.2830   19.8790 O   0  0  0  0  0  0  0  0  0  0  0  0
  -24.9230  -31.8500   23.7420 C   0  0  0  0  0  0  0  0  0  0  0  0
  -27.6070  -27.9270   20.0550 C   0  0  0  0  0  0  0  0  0  0  0  0
  -23.7360  -30.7080   21.9010 C   0  0  0  0  0  3  0  0  0  0  0  0
  -25.2000  -29.3940   20.2960 C   0  0  0  0  0  0  0  0  0  0  0  0
  -26.2630  -31.1000   21.7770 C   0  0  0  0  0  2  0  0  0  0  0  0
  -26.3570  -29.8360   20.9480 C   0  0  0  0  0  0  0  0  0  0  0  0
  -27.5660  -29.1140   20.8230 C   0  0  0  0  0  3  0  0  0  0  0  0
  -26.4020  -27.4600   19.4820 C   0  0  0  0  0  3  0  0  0  0  0  0
  -25.2130  -28.1970   19.5660 C   0  0  0  0  0  3  0  0  0  0  0  0
  -23.9580  -30.2380   20.4410 C   0  0  0  0  0  2  0  0  0  0  0  0
  -24.9920  -31.2250   22.5330 N   0  0  0  0  0  0  0  0  0  0  0  0
  -23.8360  -32.0390   24.3030 O   0  0  0  0  0  0  0  0  0  0  0  0
  -23.0760  -29.5550   22.6940 C   0  0  0  0  0  0  0  0  0  0  0  0
  -21.7660  -29.3520   22.4760 N   0  0  0  0  0  0  0  0  0  0  0  0
  -23.7420  -28.8520   23.4570 O   0  0  0  0  0  0  0  0  0  0  0  0
  -21.2880  -29.9820   21.8460 H   0  0  0  0  0  0  0  0  0  0  0  0
  -18.4430  -27.9400   22.5470 C   0  0  0  0  0  0  0  0  0  0  0  0
  -20.9470  -28.3010   23.0780 C   0  0  0  0  0  3  0  0  0  0  0  0
  -21.1840  -26.9430   22.3830 C   0  0  0  0  0  2  0  0  0  0  0  0
  -20.1980  -26.6640   21.2460 C   0  0  0  0  0  2  0  0  0  0  0  0
  -18.7600  -26.6740   21.7690 C   0  0  0  0  0  2  0  0  0  0  0  0
  -19.4720  -28.7140   23.1450 C   0  0  0  0  0  0  0  0  0  0  0  0
  -19.1310  -29.9040   23.8260 C   0  0  0  0  0  3  0  0  0  0  0  0
  -17.7910  -30.3250   23.9100 C   0  0  0  0  0  3  0  0  0  0  0  0
  -16.7720  -29.5490   23.3290 C   0  0  0  0  0  3  0  0  0  0  0  0
  -17.0990  -28.3560   22.6580 C   0  0  0  0  0  3  0  0  0  0  0  0
  -26.2020  -32.3800   24.4590 C   0  0  0  0  0  3  0  0  0  0  0  0
  -26.6760  -31.4530   25.6440 C   0  0  1  0  0  0  0  0  0  0  0  0
  -25.5520  -31.1010   26.6460 C   0  0  0  0  0  1  0  0  0  0  0  0
  -27.2560  -30.1280   25.0970 C   0  0  0  0  0  1  0  0  0  0  0  0
  -27.8170  -32.1460   26.4260 C   0  0  0  0  0  1  0  0  0  0  0  0
  -25.9040  -33.7340   24.9420 N   0  0  0  0  0  0  0  0  0  0  0  0
  -26.3010  -34.8600   24.3330 C   0  0  0  0  0  0  0  0  0  0  0  0
  -27.0230  -34.8630   23.3340 O   0  0  0  0  0  0  0  0  0  0  0  0
  -25.2630  -33.8080   25.7190 H   0  0  0  0  0  0  0  0  0  0  0  0
  -24.6260  -36.7250   24.1120 C   0  0  0  0  0  1  0  0  0  0  0  0
  -25.8170  -36.1960   24.9290 C   0  0  0  0  0  3  0  0  0  0  0  0
  -27.9310  -36.9130   25.9520 C   0  0  0  0  0  1  0  0  0  0  0  0
  -26.8750  -37.2280   24.9940 N   0  0  0  0  0  0  0  0  0  0  0  0
  -26.4810  -38.1320   25.2410 H   0  0  0  0  0  0  0  0  0  0  0  0
  -25.6480  -20.9700   16.7300 C   0  0  0  0  0  2  0  0  0  0  0  0
  -26.4450  -19.8300   17.2410 N   0  0  0  0  0  4  0  0  0  0  0  0
  -27.1070  -19.6110   16.5110 H   0  0  0  0  0  0  0  0  0  0  0  0
  -25.8310  -19.0360   17.3400 H   0  0  0  0  0  0  0  0  0  0  0  0
  -27.2170  -20.0240   18.4930 C   0  0  0  0  0  2  0  0  0  0  0  0
  -28.4160  -19.0610   18.5170 C   0  0  0  0  0  2  0  0  0  0  0  0
  -29.5610  -19.4520   19.4700 C   0  0  0  0  0  2  0  0  0  0  0  0
  -30.6950  -18.4140   19.3560 C   0  0  0  0  0  2  0  0  0  0  0  0
  -31.7150  -19.0120   21.6030 C   0  0  0  0  0  1  0  0  0  0  0  0
  -32.7960  -19.8270   19.4800 C   0  0  0  0  0  1  0  0  0  0  0  0
  -32.0160  -18.6640   20.1320 C   0  0  2  0  0  0  0  0  0  0  0  0
  -32.8650  -17.3600   20.1100 C   0  0  0  0  0  2  0  0  0  0  0  0
  -34.0990  -16.0760   18.3030 C   0  0  0  0  0  0  0  0  0  0  0  0
  -33.9190  -13.8660   17.2450 C   0  0  0  0  0  2  0  0  0  0  0  0
  -32.5570  -13.7680   16.5280 C   0  0  0  0  0  2  0  0  0  0  0  0
  -31.4680  -13.2820   17.5050 C   0  0  0  0  0  2  0  0  0  0  0  0
  -31.4650  -14.0540   18.8540 C   0  0  0  0  0  3  0  0  0  0  0  0
  -32.9010  -14.1380   19.4210 C   0  0  0  0  0  2  0  0  0  0  0  0
  -33.7430  -14.7680   18.3940 N   0  0  0  0  0  0  0  0  0  0  0  0
  -34.9160  -16.4870   17.4770 O   0  0  0  0  0  0  0  0  0  0  0  0
  -33.2030  -16.9720   18.7400 N   0  0  0  0  0  0  0  0  0  0  0  0
  -33.2270  -17.7920   18.1520 H   0  0  0  0  0  0  0  0  0  0  0  0
  -29.5610  -14.0720   20.5830 C   0  0  0  0  0  0  0  0  0  0  0  0
  -28.9150  -13.0680   21.2490 C   0  0  0  0  0  0  0  0  0  0  0  0
  -29.5300  -11.8540   20.8140 C   0  0  0  0  0  0  0  0  0  0  0  0
  -30.5300  -13.4590   19.8060 N   0  0  0  0  0  0  0  0  0  0  0  0
  -30.5340  -12.1150   19.9870 N   0  0  0  0  0  0  0  0  0  0  0  0
  -29.1830  -10.4560   21.0910 C   0  0  0  0  0  0  0  0  0  0  0  0
  -30.1770   -9.4770   21.3100 C   0  0  0  0  0  3  0  0  0  0  0  0
  -29.8170   -8.1420   21.5920 C   0  0  0  0  0  3  0  0  0  0  0  0
  -28.4520   -7.7770   21.6600 C   0  0  0  0  0  0  0  0  0  0  0  0
  -27.4660   -8.7520   21.4220 C   0  0  0  0  0  3  0  0  0  0  0  0
  -27.8270  -10.0780   21.1350 C   0  0  0  0  0  3  0  0  0  0  0  0
  -28.0090   -6.5010   21.9070 O   0  0  0  0  0  0  0  0  0  0  0  0
  -28.8400   -5.5350   22.4160 C   0  0  0  0  0  0  0  0  0  0  0  0
  -29.7610   -5.8140   23.4490 C   0  0  0  0  0  3  0  0  0  0  0  0
  -30.5470   -4.7780   23.9900 C   0  0  0  0  0  3  0  0  0  0  0  0
  -30.4100   -3.4620   23.5070 C   0  0  0  0  0  0  0  0  0  0  0  0
  -29.4890   -3.1810   22.4830 C   0  0  0  0  0  3  0  0  0  0  0  0
  -28.7040   -4.2140   21.9410 C   0  0  0  0  0  0  0  0  0  0  0  0
  -27.8040   -3.9350   20.9680 F   0  0  0  0  0  0  0  0  0  0  0  0
  -31.1590   -2.4650   24.0320 F   0  0  0  0  0  0  0  0  0  0  0  0
  -27.7320  -13.2160   22.1630 C   0  0  0  0  0  0  0  0  0  0  0  0
  -27.5970  -12.3230   23.1360 N   0  0  0  0  0  0  0  0  0  0  0  0
  -26.9480  -14.1570   22.0440 O   0  0  0  0  0  0  0  0  0  0  0  0
  -28.2530  -11.5610   23.2320 H   0  0  0  0  0  0  0  0  0  0  0  0
  -26.8300  -12.3960   23.7870 H   0  0  0  0  0  0  0  0  0  0  0  0
  -29.3900  -15.4490   20.5610 N   0  0  0  0  0  0  0  0  0  0  0  0
  -28.6560  -15.9090   21.0860 H   0  0  0  0  0  0  0  0  0  0  0  0
  -29.9160  -16.0750   19.9660 H   0  0  0  0  0  0  0  0  0  0  0  0
  1  3  1  0
  2  3  2  0
  3  9  1  0
  4  5  1  0
  5  7  1  0
  5  1  2  0
  6  4  2  0
  6  2  1  0
  8  6  1  0
  9 10  1  0
 10 11  1  0
 11 13  1  0
 12 23  2  0
 13 18  1  0
 14 22  1  0
 14 24  1  0
 15 21  1  0
 15 17  1  0
 16 22  1  0
 17 16  1  0
 18 17  2  0
 19 20  1  0
 19 13  2  0
 20 15  2  0
 21 14  1  0
 22 12  1  0
 24 26  2  0
 25 24  1  0
 27 25  1  0
 28 37  2  0
 28 33  1  0
 29 25  1  0
 29 33  1  0
 30 29  1  0
 31 32  1  0
 31 30  1  0
 32 28  1  0
 33 34  2  0
 34 35  1  0
 36 35  2  0
 37 36  1  0
 38 12  1  0
 38 43  1  0
 38 39  1  0
 39 42  1  1
 39 40  1  0
 41 39  1  0
 43 46  1  0
 44 48  1  0
 44 43  1  0
 45 44  2  0
 48 47  1  0
 48 50  1  0
 50 51  1  0
 50 49  1  0
 52  4  1  0
 52 53  1  0
 53 55  1  0
 53 56  1  0
 54 53  1  0
 56 57  1  0
 57 58  1  0
 59 58  1  0
 59 62  1  0
 62 61  1  6
 62 60  1  0
 63 62  1  0
 64 70  1  0
 64 72  1  0
 65 70  1  0
 66 65  1  0
 66 67  1  0
 68 67  1  0
 68 69  1  0
 68 77  1  0
 70 69  1  0
 71 64  2  0
 72 63  1  0
 73 72  1  0
 74 75  2  0
 75 94  1  0
 76 79  1  0
 76 75  1  0
 77 78  1  0
 77 74  1  0
 78 76  2  0
 79 84  2  0
 79 80  1  0
 80 81  2  0
 81 82  1  0
 82 85  1  0
 83 82  2  0
 84 83  1  0
 85 86  1  0
 86 87  1  0
 87 88  2  0
 89 88  1  0
 89 93  1  0
 90 89  2  0
 91 86  2  0
 91 90  1  0
 92 91  1  0
 94 95  1  0
 95 97  1  0
 95 98  1  0
 96 94  2  0
 99 74  1  0
 99100  1  0
101 99  1  0
M  ISO  4  10 101  11 101  64 100  72 100
M  END
>  <TORSDO>  (11) 
F 26

>  <SCORE>  (11) 
-2.911

>  <name>  (11) 
10

>  <ligand_id>  (11) 
10

>  <original_smiles>  (11) 
[H]c1c([H])c([H])c2c(c1[H])C([H])([H])C([H])([H])C([H])([H])C2([H])N([H])C(=O)C1([H])N(C(=O)C([H])(N([H])C(=O)C([H])(N([H])C([H])([H])[H])C([H])([H])[H])C(C([H])([H])[H])(C([H])([H])[H])C([H])([H])[H])C([H])([H])c2c([H])c(OC([H])([H])C([H])([H])c3c([H])c(Cl)c(C([H])([H])[N+]([H])([H])C([H])([H])C([H])([H])C([H])([H])C([H])([H])C(C([H])([H])[H])(C([H])([H])[H])C([H])([H])N([H])C(=O)N4C([H])([H])C([H])([H])C([H])([H])C([H])(n5nc(-c6c([H])c([H])c(Oc7c([H])c([H])c(F)c([H])c7F)c([H])c6[H])c(C(=O)N([H])[H])c5N([H])[H])C4([H])[H])c(Cl)c3[H])c([H])c([H])c2C1([H])[H]

>  <smiles>  (11) 
[H]c1c([H])c([H])c2c(c1[H])C([H])([H])C([H])([H])C([H])([H])C2([H])N([H])C(=O)C1([H])N(C(=O)C([H])(N([H])C(=O)C([H])(N([H])C([H])([H])[H])C([H])([H])[H])C(C([H])([H])[H])(C([H])([H])[H])C([H])([H])[H])C([H])([H])c2c([H])c(OC([H])([H])C([H])([H])c3c([H])c(Cl)c(C([H])([H])[N+]([H])([H])C([H])([H])C([H])([H])C([H])([H])C([H])([H])C(C([H])([H])[H])(C([H])([H])[H])C([H])([H])N([H])C(=O)N4C([H])([H])C([H])([H])C([H])([H])C([H])(n5nc(-c6c([H])c([H])c(Oc7c([H])c([H])c(F)c([H])c7F)c([H])c6[H])c(C(=O)N([H])[H])c5N([H])[H])C4([H])[H])c(Cl)c3[H])c([H])c([H])c2C1([H])[H]

$$$$
11:0:0
     RDKit          3D

 93101  0  0  1  0  0  0  0  0999 V2000
  -29.5190  -22.3010   18.8320 C   0  0  0  0  0  3  0  0  0  0  0  0
  -29.4620  -21.3550   19.9020 C   0  0  0  0  0  0  0  0  0  0  0  0
  -29.2720  -21.8670   21.2000 C   0  0  0  0  0  0  0  0  0  0  0  0
  -29.3540  -23.6970   19.0890 C   0  0  0  0  0  0  0  0  0  0  0  0
  -29.1230  -23.2610   21.3700 C   0  0  0  0  0  0  0  0  0  0  0  0
  -29.1430  -24.1470   20.3450 N   0  0  0  0  0  0  0  0  0  0  0  0
  -29.1760  -21.0290   22.2610 F   0  0  0  0  0  0  0  0  0  0  0  0
  -27.6040  -24.7430   22.7530 C   0  0  0  0  0  1  0  0  0  0  0  0
  -28.8490  -23.8460   22.7430 C   0  0  0  0  0  2  0  0  0  0  0  0
  -29.4350  -19.8210   19.6790 C   0  0  0  0  0  2  0  0  0  0  0  0
  -30.7130  -18.9780   20.0060 C   0  0  0  0  0  2  0  0  0  0  0  0
  -30.6920  -17.9520   21.1920 C   0  0  0  0  0  2  0  0  0  0  0  0
  -31.1370  -15.5080   20.5730 C   0  0  0  0  0  0  0  0  0  0  0  0
  -31.0380  -13.2220   19.6230 C   0  0  0  0  0  2  0  0  0  0  0  0
  -30.1570  -13.2430   18.3570 C   0  0  0  0  0  2  0  0  0  0  0  0
  -28.6670  -13.0660   18.7190 C   0  0  0  0  0  2  0  0  0  0  0  0
  -28.2150  -14.0030   19.8720 C   0  0  0  0  0  3  0  0  0  0  0  0
  -29.2130  -13.9470   21.0490 C   0  0  0  0  0  2  0  0  0  0  0  0
  -30.5440  -14.2810   20.5190 N   0  0  0  0  0  0  0  0  0  0  0  0
  -32.3040  -15.6960   20.2180 O   0  0  0  0  0  0  0  0  0  0  0  0
  -30.3230  -16.5420   20.8990 N   0  0  0  0  0  0  0  0  0  0  0  0
  -29.3700  -16.2840   21.1090 H   0  0  0  0  0  0  0  0  0  0  0  0
  -25.7960  -14.5820   20.5230 C   0  0  0  0  0  0  0  0  0  0  0  0
  -24.7180  -13.7970   20.8340 C   0  0  0  0  0  0  0  0  0  0  0  0
  -25.1850  -12.4480   20.7800 C   0  0  0  0  0  0  0  0  0  0  0  0
  -26.8500  -13.7100   20.3000 N   0  0  0  0  0  0  0  0  0  0  0  0
  -26.4840  -12.4200   20.5120 N   0  0  0  0  0  0  0  0  0  0  0  0
  -24.4570  -11.1790   20.9070 C   0  0  0  0  0  0  0  0  0  0  0  0
  -24.8310  -10.2060   21.8600 C   0  0  0  0  0  3  0  0  0  0  0  0
  -24.1040   -9.0010   21.9760 C   0  0  0  0  0  3  0  0  0  0  0  0
  -22.9890   -8.7620   21.1390 C   0  0  0  0  0  0  0  0  0  0  0  0
  -22.6350   -9.7240   20.1760 C   0  0  0  0  0  3  0  0  0  0  0  0
  -23.3620  -10.9190   20.0580 C   0  0  0  0  0  3  0  0  0  0  0  0
  -22.2400   -7.6110   21.1620 O   0  0  0  0  0  0  0  0  0  0  0  0
  -22.0660   -6.8890   22.3160 C   0  0  0  0  0  0  0  0  0  0  0  0
  -21.4700   -7.4530   23.4660 C   0  0  0  0  0  3  0  0  0  0  0  0
  -21.2480   -6.6550   24.6060 C   0  0  0  0  0  3  0  0  0  0  0  0
  -21.6110   -5.2960   24.5970 C   0  0  0  0  0  0  0  0  0  0  0  0
  -22.2000   -4.7310   23.4520 C   0  0  0  0  0  3  0  0  0  0  0  0
  -22.4240   -5.5250   22.3130 C   0  0  0  0  0  0  0  0  0  0  0  0
  -22.9720   -4.9710   21.2050 F   0  0  0  0  0  0  0  0  0  0  0  0
  -21.3910   -4.5270   25.6900 F   0  0  0  0  0  0  0  0  0  0  0  0
  -23.3110  -14.2630   21.0720 C   0  0  0  0  0  0  0  0  0  0  0  0
  -22.5550  -13.5400   21.8920 N   0  0  0  0  0  0  0  0  0  0  0  0
  -22.8880  -15.3030   20.5700 O   0  0  0  0  0  0  0  0  0  0  0  0
  -22.9100  -12.6970   22.3200 H   0  0  0  0  0  0  0  0  0  0  0  0
  -21.6100  -13.8320   22.0920 H   0  0  0  0  0  0  0  0  0  0  0  0
  -25.9620  -15.9580   20.3890 N   0  0  0  0  0  0  0  0  0  0  0  0
  -25.1900  -16.6060   20.4940 H   0  0  0  0  0  0  0  0  0  0  0  0
  -26.8180  -16.4080   20.0910 H   0  0  0  0  0  0  0  0  0  0  0  0
  -29.2600  -24.7600   17.9540 C   0  0  0  0  0  2  0  0  0  0  0  0
  -29.2090  -26.2700   18.3900 C   0  0  0  0  0  2  0  0  0  0  0  0
  -28.5770  -27.2220   17.4820 O   0  0  0  0  0  0  0  0  0  0  0  0
  -24.7350  -30.8730   22.3110 C   0  0  0  0  0  0  0  0  0  0  0  0
  -27.3450  -27.7330   17.8660 C   0  0  0  0  0  0  0  0  0  0  0  0
  -23.4500  -29.6280   20.6060 C   0  0  0  0  0  3  0  0  0  0  0  0
  -24.8010  -28.7310   18.6320 C   0  0  0  0  0  0  0  0  0  0  0  0
  -25.7990  -30.5060   20.0810 C   0  0  0  0  0  2  0  0  0  0  0  0
  -25.9640  -29.3390   19.1240 C   0  0  0  0  0  0  0  0  0  0  0  0
  -27.2380  -28.8550   18.7290 C   0  0  0  0  0  3  0  0  0  0  0  0
  -26.1620  -27.1430   17.3780 C   0  0  0  0  0  3  0  0  0  0  0  0
  -24.8960  -27.6360   17.7550 C   0  0  0  0  0  3  0  0  0  0  0  0
  -23.4750  -29.3010   19.0880 C   0  0  0  0  0  2  0  0  0  0  0  0
  -24.6890  -30.3420   21.0560 N   0  0  0  0  0  0  0  0  0  0  0  0
  -23.7580  -30.8080   23.0720 O   0  0  0  0  0  0  0  0  0  0  0  0
  -23.1760  -28.3240   21.3900 C   0  0  0  0  0  0  0  0  0  0  0  0
  -21.9230  -27.8420   21.3350 N   0  0  0  0  0  0  0  0  0  0  0  0
  -24.0830  -27.7550   22.0040 O   0  0  0  0  0  0  0  0  0  0  0  0
  -21.2350  -28.3690   20.8170 H   0  0  0  0  0  0  0  0  0  0  0  0
  -19.0320  -25.7150   21.7610 C   0  0  0  0  0  0  0  0  0  0  0  0
  -21.4490  -26.6080   21.9620 C   0  0  0  0  0  3  0  0  0  0  0  0
  -21.8670  -25.3680   21.1370 C   0  0  0  0  0  2  0  0  0  0  0  0
  -20.8000  -24.9260   20.1310 C   0  0  0  0  0  2  0  0  0  0  0  0
  -19.4910  -24.5890   20.8500 C   0  0  0  0  0  2  0  0  0  0  0  0
  -19.9500  -26.6710   22.2710 C   0  0  0  0  0  0  0  0  0  0  0  0
  -19.4660  -27.7180   23.0850 C   0  0  0  0  0  3  0  0  0  0  0  0
  -18.0960  -27.8160   23.3940 C   0  0  0  0  0  3  0  0  0  0  0  0
  -17.1940  -26.8570   22.9010 C   0  0  0  0  0  3  0  0  0  0  0  0
  -17.6630  -25.8090   22.0900 C   0  0  0  0  0  3  0  0  0  0  0  0
  -26.0040  -31.6070   22.8430 C   0  0  0  0  0  3  0  0  0  0  0  0
  -25.5520  -32.7650   23.6270 N   0  0  0  0  0  0  0  0  0  0  0  0
  -25.5710  -34.0320   23.1920 C   0  0  0  0  0  0  0  0  0  0  0  0
  -26.0430  -34.3580   22.1000 O   0  0  0  0  0  0  0  0  0  0  0  0
  -25.1040  -32.5670   24.5090 H   0  0  0  0  0  0  0  0  0  0  0  0
  -23.5630  -35.4830   23.6240 C   0  0  0  0  0  1  0  0  0  0  0  0
  -24.9700  -35.1090   24.1160 C   0  0  0  0  0  3  0  0  0  0  0  0
  -27.0590  -36.1120   24.9280 C   0  0  0  0  0  1  0  0  0  0  0  0
  -25.8020  -36.3280   24.2160 N   0  0  0  0  0  0  0  0  0  0  0  0
  -25.2950  -37.0730   24.6870 H   0  0  0  0  0  0  0  0  0  0  0  0
  -26.9400  -30.6800   23.7110 C   0  0  1  0  0  0  0  0  0  0  0  0
  -26.1990  -29.9350   24.8460 C   0  0  0  0  0  1  0  0  0  0  0  0
  -27.6320  -29.6180   22.8240 C   0  0  0  0  0  1  0  0  0  0  0  0
  -28.0680  -31.5230   24.3510 C   0  0  0  0  0  1  0  0  0  0  0  0
  1  4  2  0
  1  2  1  0
  2  3  2  0
  3  5  1  0
  3  7  1  0
  4  6  1  0
  5  9  1  0
  6  5  2  0
  9  8  1  0
 10  2  1  0
 10 11  1  0
 11 12  1  0
 13 21  1  0
 14 19  1  0
 15 16  1  0
 15 14  1  0
 17 16  1  0
 17 26  1  0
 17 18  1  0
 19 13  1  0
 19 18  1  0
 20 13  2  0
 21 22  1  0
 21 12  1  0
 23 24  2  0
 24 43  1  0
 25 24  1  0
 25 28  1  0
 26 27  1  0
 26 23  1  0
 27 25  2  0
 28 29  1  0
 29 30  2  0
 31 34  1  0
 31 30  1  0
 32 31  2  0
 33 32  1  0
 33 28  2  0
 34 35  1  0
 35 36  1  0
 36 37  2  0
 38 37  1  0
 38 42  1  0
 39 38  2  0
 40 35  2  0
 40 39  1  0
 41 40  1  0
 43 44  1  0
 44 47  1  0
 44 46  1  0
 45 43  2  0
 48 49  1  0
 48 23  1  0
 50 48  1  0
 51 52  1  0
 51  4  1  0
 53 55  1  0
 53 52  1  0
 54 65  2  0
 55 60  1  0
 56 64  1  0
 56 66  1  0
 57 63  1  0
 57 59  1  0
 58 64  1  0
 59 58  1  0
 60 59  2  0
 61 62  1  0
 61 55  2  0
 62 57  2  0
 63 56  1  0
 64 54  1  0
 66 68  2  0
 67 66  1  0
 69 67  1  0
 70 79  2  0
 70 75  1  0
 71 67  1  0
 71 75  1  0
 72 71  1  0
 73 74  1  0
 73 72  1  0
 74 70  1  0
 75 76  2  0
 76 77  1  0
 78 77  2  0
 79 78  1  0
 80 54  1  0
 80 81  1  0
 80 90  1  0
 81 84  1  0
 82 81  1  0
 82 86  1  0
 83 82  2  0
 86 85  1  0
 86 88  1  0
 88 89  1  0
 88 87  1  0
 90 93  1  1
 90 91  1  0
 92 90  1  0
M  ISO  4  13 100  21 100  52 101  53 101
M  END
>  <TORSDO>  (12) 
F 22

>  <SCORE>  (12) 
-7.329

>  <name>  (12) 
11

>  <ligand_id>  (12) 
11

>  <original_smiles>  (12) 
[H]c1c([H])c([H])c2c(c1[H])C([H])([H])C([H])([H])C([H])([H])C2([H])N([H])C(=O)C1([H])N(C(=O)C([H])(N([H])C(=O)C([H])(N([H])C([H])([H])[H])C([H])([H])[H])C(C([H])([H])[H])(C([H])([H])[H])C([H])([H])[H])C([H])([H])c2c([H])c(OC([H])([H])C([H])([H])c3nc(C([H])([H])C([H])([H])[H])c(F)c(C([H])([H])C([H])([H])C([H])([H])N([H])C(=O)N4C([H])([H])C([H])([H])C([H])([H])C([H])(n5nc(-c6c([H])c([H])c(Oc7c([H])c([H])c(F)c([H])c7F)c([H])c6[H])c(C(=O)N([H])[H])c5N([H])[H])C4([H])[H])c3[H])c([H])c([H])c2C1([H])[H]

>  <smiles>  (12) 
[H]c1c([H])c([H])c2c(c1[H])C([H])([H])C([H])([H])C([H])([H])C2([H])N([H])C(=O)C1([H])N(C(=O)C([H])(N([H])C(=O)C([H])(N([H])C([H])([H])[H])C([H])([H])[H])C(C([H])([H])[H])(C([H])([H])[H])C([H])([H])[H])C([H])([H])c2c([H])c(OC([H])([H])C([H])([H])c3nc(C([H])([H])C([H])([H])[H])c(F)c(C([H])([H])C([H])([H])C([H])([H])N([H])C(=O)N4C([H])([H])C([H])([H])C([H])([H])C([H])(n5nc(-c6c([H])c([H])c(Oc7c([H])c([H])c(F)c([H])c7F)c([H])c6[H])c(C(=O)N([H])[H])c5N([H])[H])C4([H])[H])c3[H])c([H])c([H])c2C1([H])[H]

$$$$
12:0:0
     RDKit          3D

 97105  0  0  1  0  0  0  0  0999 V2000
  -27.1130  -22.2980   21.9730 C   0  0  0  0  0  3  0  0  0  0  0  0
  -28.3690  -22.5630   21.3570 C   0  0  0  0  0  0  0  0  0  0  0  0
  -28.6980  -23.8950   20.9500 C   0  0  0  0  0  0  0  0  0  0  0  0
  -27.7330  -24.9540   21.1030 C   0  0  0  0  0  0  0  0  0  0  0  0
  -26.4620  -24.6390   21.7540 C   0  0  0  0  0  0  0  0  0  0  0  0
  -26.1650  -23.3130   22.1710 C   0  0  0  0  0  0  0  0  0  0  0  0
  -30.1480  -24.2110   20.5230 C   0  0  0  0  0  1  0  0  0  0  0  0
  -25.3610  -25.7120   22.0460 C   0  0  0  0  0  1  0  0  0  0  0  0
  -24.6510  -22.9160   22.9400 Cl  0  0  0  0  0  0  0  0  0  0  0  0
  -29.4090  -21.4240   21.3280 C   0  0  0  0  0  2  0  0  0  0  0  0
  -29.1990  -20.4450   20.2400 N   0  0  0  0  0  4  0  0  0  0  0  0
  -30.0280  -20.4370   19.6670 H   0  0  0  0  0  0  0  0  0  0  0  0
  -28.4380  -20.7710   19.6630 H   0  0  0  0  0  0  0  0  0  0  0  0
  -28.9660  -19.0530   20.6850 C   0  0  0  0  0  2  0  0  0  0  0  0
  -30.2280  -18.3440   21.2600 C   0  0  0  0  0  2  0  0  0  0  0  0
  -31.2710  -17.7700   20.2560 C   0  0  0  0  0  2  0  0  0  0  0  0
  -31.9890  -16.4800   20.7240 C   0  0  0  0  0  2  0  0  0  0  0  0
  -31.5290  -14.3860   19.3910 C   0  0  0  0  0  0  0  0  0  0  0  0
  -31.0950  -12.0510   18.7670 C   0  0  0  0  0  2  0  0  0  0  0  0
  -30.0750  -11.9520   17.6210 C   0  0  0  0  0  2  0  0  0  0  0  0
  -28.6370  -11.9150   18.1820 C   0  0  0  0  0  2  0  0  0  0  0  0
  -28.3780  -13.1230   19.1300 C   0  0  0  0  0  3  0  0  0  0  0  0
  -29.4940  -13.1570   20.1940 C   0  0  0  0  0  2  0  0  0  0  0  0
  -30.7990  -13.2670   19.5140 N   0  0  0  0  0  0  0  0  0  0  0  0
  -32.4200  -14.5440   18.5410 O   0  0  0  0  0  0  0  0  0  0  0  0
  -31.2780  -15.2530   20.3800 N   0  0  0  0  0  0  0  0  0  0  0  0
  -30.5880  -14.8940   21.0190 H   0  0  0  0  0  0  0  0  0  0  0  0
  -26.2510  -14.0580   20.2270 C   0  0  0  0  0  0  0  0  0  0  0  0
  -25.1230  -13.4400   20.6890 C   0  0  0  0  0  0  0  0  0  0  0  0
  -25.3380  -12.0390   20.5100 C   0  0  0  0  0  0  0  0  0  0  0  0
  -27.0810  -13.0420   19.7830 N   0  0  0  0  0  0  0  0  0  0  0  0
  -26.5460  -11.8250   20.0150 N   0  0  0  0  0  0  0  0  0  0  0  0
  -24.4330  -10.9030   20.7060 C   0  0  0  0  0  0  0  0  0  0  0  0
  -24.7630   -9.8370   21.5670 C   0  0  0  0  0  3  0  0  0  0  0  0
  -23.8520   -8.7740   21.7680 C   0  0  0  0  0  3  0  0  0  0  0  0
  -22.6100   -8.7670   21.0940 C   0  0  0  0  0  0  0  0  0  0  0  0
  -22.2870   -9.8210   20.2220 C   0  0  0  0  0  3  0  0  0  0  0  0
  -23.1990  -10.8750   20.0250 C   0  0  0  0  0  3  0  0  0  0  0  0
  -21.6870   -7.7530   21.1870 O   0  0  0  0  0  0  0  0  0  0  0  0
  -21.5450   -7.0140   22.3280 C   0  0  0  0  0  0  0  0  0  0  0  0
  -21.2600   -7.6100   23.5710 C   0  0  0  0  0  3  0  0  0  0  0  0
  -21.0690   -6.8090   24.7130 C   0  0  0  0  0  3  0  0  0  0  0  0
  -21.1490   -5.4050   24.5970 C   0  0  0  0  0  0  0  0  0  0  0  0
  -21.4410   -4.8080   23.3600 C   0  0  0  0  0  3  0  0  0  0  0  0
  -21.6220   -5.6050   22.2190 C   0  0  0  0  0  0  0  0  0  0  0  0
  -21.8700   -5.0310   21.0180 F   0  0  0  0  0  0  0  0  0  0  0  0
  -20.9550   -4.6340   25.6880 F   0  0  0  0  0  0  0  0  0  0  0  0
  -23.8680  -14.1080   21.1680 C   0  0  0  0  0  0  0  0  0  0  0  0
  -23.1640  -13.4770   22.1060 N   0  0  0  0  0  0  0  0  0  0  0  0
  -23.5350  -15.2180   20.7610 O   0  0  0  0  0  0  0  0  0  0  0  0
  -23.4060  -12.5470   22.4290 H   0  0  0  0  0  0  0  0  0  0  0  0
  -22.3570  -13.9220   22.5060 H   0  0  0  0  0  0  0  0  0  0  0  0
  -26.6330  -15.3930   20.1030 N   0  0  0  0  0  0  0  0  0  0  0  0
  -26.0740  -16.1610   20.4520 H   0  0  0  0  0  0  0  0  0  0  0  0
  -27.4520  -15.6910   19.5920 H   0  0  0  0  0  0  0  0  0  0  0  0
  -28.0400  -26.4810   20.8640 C   0  0  0  0  0  2  0  0  0  0  0  0
  -28.2190  -27.2340   19.6020 O   0  0  0  0  0  0  0  0  0  0  0  0
  -24.8100  -32.0960   23.5390 C   0  0  0  0  0  0  0  0  0  0  0  0
  -27.2460  -28.2370   19.5400 C   0  0  0  0  0  0  0  0  0  0  0  0
  -23.5120  -30.9510   21.7900 C   0  0  0  0  0  3  0  0  0  0  0  0
  -24.8600  -29.6870   20.0290 C   0  0  0  0  0  0  0  0  0  0  0  0
  -26.0310  -31.3420   21.4930 C   0  0  0  0  0  2  0  0  0  0  0  0
  -26.0690  -30.1030   20.6150 C   0  0  0  0  0  0  0  0  0  0  0  0
  -27.2540  -29.3700   20.4000 C   0  0  0  0  0  3  0  0  0  0  0  0
  -26.0250  -27.8670   18.9270 C   0  0  0  0  0  3  0  0  0  0  0  0
  -24.8280  -28.5460   19.2130 C   0  0  0  0  0  3  0  0  0  0  0  0
  -23.6290  -30.5100   20.3090 C   0  0  0  0  0  2  0  0  0  0  0  0
  -24.8100  -31.4670   22.3290 N   0  0  0  0  0  0  0  0  0  0  0  0
  -23.7650  -32.2850   24.1720 O   0  0  0  0  0  0  0  0  0  0  0  0
  -22.9040  -29.8010   22.6240 C   0  0  0  0  0  0  0  0  0  0  0  0
  -21.5920  -29.5680   22.4450 N   0  0  0  0  0  0  0  0  0  0  0  0
  -23.6050  -29.1200   23.3730 O   0  0  0  0  0  0  0  0  0  0  0  0
  -21.0930  -30.1420   21.7850 H   0  0  0  0  0  0  0  0  0  0  0  0
  -18.3100  -28.0880   22.6250 C   0  0  0  0  0  0  0  0  0  0  0  0
  -20.8150  -28.5130   23.0920 C   0  0  0  0  0  3  0  0  0  0  0  0
  -21.0810  -27.1580   22.3930 C   0  0  0  0  0  2  0  0  0  0  0  0
  -20.0710  -26.8520   21.2850 C   0  0  0  0  0  2  0  0  0  0  0  0
  -18.6450  -26.8260   21.8440 C   0  0  0  0  0  2  0  0  0  0  0  0
  -19.3260  -28.8920   23.1960 C   0  0  0  0  0  0  0  0  0  0  0  0
  -18.9590  -30.0770   23.8700 C   0  0  0  0  0  3  0  0  0  0  0  0
  -17.6040  -30.4490   23.9830 C   0  0  0  0  0  3  0  0  0  0  0  0
  -16.6010  -29.6360   23.4340 C   0  0  0  0  0  3  0  0  0  0  0  0
  -16.9510  -28.4590   22.7520 C   0  0  0  0  0  3  0  0  0  0  0  0
  -26.1350  -32.6250   24.1730 C   0  0  0  0  0  3  0  0  0  0  0  0
  -25.8700  -33.9850   24.6550 N   0  0  0  0  0  0  0  0  0  0  0  0
  -26.2420  -35.0990   24.0160 C   0  0  0  0  0  0  0  0  0  0  0  0
  -26.9000  -35.0830   22.9700 O   0  0  0  0  0  0  0  0  0  0  0  0
  -25.2520  -34.0620   25.4510 H   0  0  0  0  0  0  0  0  0  0  0  0
  -24.5750  -36.9850   23.8720 C   0  0  0  0  0  1  0  0  0  0  0  0
  -25.8050  -36.4440   24.6210 C   0  0  0  0  0  3  0  0  0  0  0  0
  -27.9770  -37.1510   25.5270 C   0  0  0  0  0  1  0  0  0  0  0  0
  -26.8760  -37.4600   24.6180 N   0  0  0  0  0  0  0  0  0  0  0  0
  -26.5070  -38.3710   24.8670 H   0  0  0  0  0  0  0  0  0  0  0  0
  -26.6670  -31.7070   25.3420 C   0  0  1  0  0  0  0  0  0  0  0  0
  -25.5960  -31.3840   26.4130 C   0  0  0  0  0  1  0  0  0  0  0  0
  -27.1900  -30.3590   24.7830 C   0  0  0  0  0  1  0  0  0  0  0  0
  -27.8640  -32.3940   26.0380 C   0  0  0  0  0  1  0  0  0  0  0  0
  1  6  1  0
  2  1  2  0
  3  4  2  0
  3  2  1  0
  4  5  1  0
  5  8  1  0
  5  6  2  0
  6  9  1  0
  7  3  1  0
 10  2  1  0
 11 14  1  0
 11 10  1  0
 12 11  1  0
 13 11  1  0
 14 15  1  0
 16 17  1  0
 16 15  1  0
 18 24  1  0
 18 26  1  0
 19 24  1  0
 20 21  1  0
 20 19  1  0
 22 21  1  0
 22 31  1  0
 22 23  1  0
 24 23  1  0
 25 18  2  0
 26 17  1  0
 26 27  1  0
 28 29  2  0
 29 48  1  0
 30 29  1  0
 30 33  1  0
 31 32  1  0
 31 28  1  0
 32 30  2  0
 33 34  1  0
 34 35  2  0
 36 39  1  0
 36 35  1  0
 37 36  2  0
 38 37  1  0
 38 33  2  0
 39 40  1  0
 40 41  1  0
 41 42  2  0
 43 42  1  0
 43 47  1  0
 44 43  2  0
 45 40  2  0
 45 44  1  0
 46 45  1  0
 48 49  1  0
 49 51  1  0
 49 52  1  0
 50 48  2  0
 53 28  1  0
 53 54  1  0
 55 53  1  0
 56  4  1  0
 57 56  1  0
 58 69  2  0
 59 57  1  0
 59 64  1  0
 60 68  1  0
 60 70  1  0
 61 67  1  0
 61 63  1  0
 62 68  1  0
 63 62  1  0
 64 63  2  0
 65 66  1  0
 65 59  2  0
 66 61  2  0
 67 60  1  0
 68 58  1  0
 70 72  2  0
 71 70  1  0
 73 71  1  0
 74 83  2  0
 74 79  1  0
 75 71  1  0
 75 79  1  0
 76 75  1  0
 77 78  1  0
 77 76  1  0
 78 74  1  0
 79 80  2  0
 80 81  1  0
 82 81  2  0
 83 82  1  0
 84 58  1  0
 84 85  1  0
 84 94  1  0
 85 88  1  0
 86 90  1  0
 86 85  1  0
 87 86  2  0
 90 89  1  0
 92 90  1  0
 92 93  1  0
 92 91  1  0
 94 97  1  1
 94 95  1  0
 96 94  1  0
M  ISO  4  18 100  26 100  56 101  57 101
M  END
>  <TORSDO>  (13) 
F 23

>  <SCORE>  (13) 
-9.154

>  <name>  (13) 
12

>  <ligand_id>  (13) 
12

>  <original_smiles>  (13) 
[H]c1c([H])c([H])c2c(c1[H])C([H])([H])C([H])([H])C([H])([H])C2([H])N([H])C(=O)C1([H])N(C(=O)C([H])(N([H])C(=O)C([H])(N([H])C([H])([H])[H])C([H])([H])[H])C(C([H])([H])[H])(C([H])([H])[H])C([H])([H])[H])C([H])([H])c2c([H])c(OC([H])([H])c3c(C([H])([H])[H])c(Cl)c([H])c(C([H])([H])[N+]([H])([H])C([H])([H])C([H])([H])C([H])([H])C([H])([H])N([H])C(=O)N4C([H])([H])C([H])([H])C([H])([H])C([H])(n5nc(-c6c([H])c([H])c(Oc7c([H])c([H])c(F)c([H])c7F)c([H])c6[H])c(C(=O)N([H])[H])c5N([H])[H])C4([H])[H])c3C([H])([H])[H])c([H])c([H])c2C1([H])[H]

>  <smiles>  (13) 
[H]c1c([H])c([H])c2c(c1[H])C([H])([H])C([H])([H])C([H])([H])C2([H])N([H])C(=O)C1([H])N(C(=O)C([H])(N([H])C(=O)C([H])(N([H])C([H])([H])[H])C([H])([H])[H])C(C([H])([H])[H])(C([H])([H])[H])C([H])([H])[H])C([H])([H])c2c([H])c(OC([H])([H])c3c(C([H])([H])[H])c(Cl)c([H])c(C([H])([H])[N+]([H])([H])C([H])([H])C([H])([H])C([H])([H])C([H])([H])N([H])C(=O)N4C([H])([H])C([H])([H])C([H])([H])C([H])(n5nc(-c6c([H])c([H])c(Oc7c([H])c([H])c(F)c([H])c7F)c([H])c6[H])c(C(=O)N([H])[H])c5N([H])[H])C4([H])[H])c3C([H])([H])[H])c([H])c([H])c2C1([H])[H]

$$$$
13:0:0
     RDKit          3D

 93101  0  0  1  0  0  0  0  0999 V2000
  -28.8700  -22.5640   20.7290 C   0  0  0  0  0  0  0  0  0  0  0  0
  -28.5330  -23.7640   20.0940 C   0  0  0  0  0  0  0  0  0  0  0  0
  -29.1150  -21.2650   19.9860 C   0  0  0  0  0  0  0  0  0  0  0  0
  -28.8960  -21.3460   18.6500 C   0  0  0  0  0  0  0  0  0  0  0  0
  -28.3610  -23.7390   18.6360 C   0  0  0  0  0  0  0  0  0  0  0  0
  -28.9590  -22.5170   22.2510 C   0  0  0  0  0  1  0  0  0  0  0  0
  -29.1140  -20.2560   17.6160 C   0  0  0  0  0  1  0  0  0  0  0  0
  -28.5010  -22.5410   18.0420 N   0  0  0  0  0  0  0  0  0  0  0  0
  -28.0830  -24.7180   17.9410 O   0  0  0  0  0  0  0  0  0  0  0  0
  -28.3680  -22.5150   17.0420 H   0  0  0  0  0  0  0  0  0  0  0  0
  -29.7170  -19.9480   20.6730 C   0  0  0  0  0  2  0  0  0  0  0  0
  -29.3980  -18.4250   20.2280 C   0  0  0  0  0  3  0  0  0  0  0  0
  -30.2250  -17.2390   20.9290 C   0  0  0  0  0  3  0  0  0  0  0  0
  -30.5760  -14.6900   20.4080 C   0  0  0  0  0  0  0  0  0  0  0  0
  -30.3560  -12.4430   19.3500 C   0  0  0  0  0  2  0  0  0  0  0  0
  -29.4090  -12.5380   18.1340 C   0  0  0  0  0  2  0  0  0  0  0  0
  -27.9410  -12.3670   18.5720 C   0  0  0  0  0  2  0  0  0  0  0  0
  -27.5770  -13.2520   19.7940 C   0  0  0  0  0  3  0  0  0  0  0  0
  -28.6380  -13.1370   20.9100 C   0  0  0  0  0  2  0  0  0  0  0  0
  -29.9370  -13.4780   20.3170 N   0  0  0  0  0  0  0  0  0  0  0  0
  -31.7560  -14.8060   20.0640 O   0  0  0  0  0  0  0  0  0  0  0  0
  -29.8110  -15.7950   20.7100 N   0  0  0  0  0  0  0  0  0  0  0  0
  -28.8440  -15.5880   20.9100 H   0  0  0  0  0  0  0  0  0  0  0  0
  -25.1890  -13.8500   20.5200 C   0  0  0  0  0  0  0  0  0  0  0  0
  -24.1230  -13.0780   20.8940 C   0  0  0  0  0  0  0  0  0  0  0  0
  -24.5860  -11.7270   20.8680 C   0  0  0  0  0  0  0  0  0  0  0  0
  -26.2320  -12.9690   20.2860 N   0  0  0  0  0  0  0  0  0  0  0  0
  -25.8760  -11.6870   20.5570 N   0  0  0  0  0  0  0  0  0  0  0  0
  -23.8600  -10.4650   21.0620 C   0  0  0  0  0  0  0  0  0  0  0  0
  -24.3030   -9.4910   21.9840 C   0  0  0  0  0  3  0  0  0  0  0  0
  -23.5770   -8.2950   22.1660 C   0  0  0  0  0  3  0  0  0  0  0  0
  -22.3930   -8.0630   21.4270 C   0  0  0  0  0  0  0  0  0  0  0  0
  -21.9690   -9.0260   20.4940 C   0  0  0  0  0  3  0  0  0  0  0  0
  -22.6960  -10.2140   20.3090 C   0  0  0  0  0  3  0  0  0  0  0  0
  -21.6370   -6.9200   21.5210 O   0  0  0  0  0  0  0  0  0  0  0  0
  -21.6160   -6.1630   22.6650 C   0  0  0  0  0  0  0  0  0  0  0  0
  -21.2330   -6.7070   23.9100 C   0  0  0  0  0  3  0  0  0  0  0  0
  -21.1570   -5.8770   25.0460 C   0  0  0  0  0  3  0  0  0  0  0  0
  -21.4530   -4.5050   24.9380 C   0  0  0  0  0  0  0  0  0  0  0  0
  -21.8280   -3.9610   23.6970 C   0  0  0  0  0  3  0  0  0  0  0  0
  -21.9050   -4.7880   22.5630 C   0  0  0  0  0  0  0  0  0  0  0  0
  -22.2470   -4.2540   21.3660 F   0  0  0  0  0  0  0  0  0  0  0  0
  -21.3720   -3.7060   26.0290 F   0  0  0  0  0  0  0  0  0  0  0  0
  -22.7270  -13.5560   21.1670 C   0  0  0  0  0  0  0  0  0  0  0  0
  -22.0010  -12.8610   22.0360 N   0  0  0  0  0  0  0  0  0  0  0  0
  -22.2880  -14.5800   20.6440 O   0  0  0  0  0  0  0  0  0  0  0  0
  -22.3690  -12.0320   22.4790 H   0  0  0  0  0  0  0  0  0  0  0  0
  -21.0630  -13.1620   22.2630 H   0  0  0  0  0  0  0  0  0  0  0  0
  -25.3540  -15.2200   20.3350 N   0  0  0  0  0  0  0  0  0  0  0  0
  -24.5830  -15.8730   20.4300 H   0  0  0  0  0  0  0  0  0  0  0  0
  -26.1940  -15.6540   19.9760 H   0  0  0  0  0  0  0  0  0  0  0  0
  -28.2150  -25.1390   20.8360 C   0  0  0  0  0  2  0  0  0  0  0  0
  -28.3440  -26.4650   20.1700 O   0  0  0  0  0  0  0  0  0  0  0  0
  -24.6180  -31.8730   23.2340 C   0  0  0  0  0  0  0  0  0  0  0  0
  -27.2280  -27.3140   20.1810 C   0  0  0  0  0  0  0  0  0  0  0  0
  -23.4110  -30.4710   21.5970 C   0  0  0  0  0  3  0  0  0  0  0  0
  -24.8600  -28.9160   20.1730 C   0  0  0  0  0  0  0  0  0  0  0  0
  -25.9470  -30.7950   21.4040 C   0  0  0  0  0  2  0  0  0  0  0  0
  -26.0300  -29.4130   20.7630 C   0  0  0  0  0  0  0  0  0  0  0  0
  -27.2200  -28.6260   20.7520 C   0  0  0  0  0  3  0  0  0  0  0  0
  -26.0370  -26.8650   19.5760 C   0  0  0  0  0  3  0  0  0  0  0  0
  -24.8670  -27.6480   19.5680 C   0  0  0  0  0  3  0  0  0  0  0  0
  -23.6220  -29.7890   20.2190 C   0  0  0  0  0  2  0  0  0  0  0  0
  -24.6790  -31.0640   22.1360 N   0  0  0  0  0  0  0  0  0  0  0  0
  -23.5350  -32.1480   23.7720 O   0  0  0  0  0  0  0  0  0  0  0  0
  -22.7530  -29.4560   22.5620 C   0  0  0  0  0  0  0  0  0  0  0  0
  -21.4260  -29.2810   22.4410 N   0  0  0  0  0  0  0  0  0  0  0  0
  -23.4340  -28.8290   23.3780 O   0  0  0  0  0  0  0  0  0  0  0  0
  -20.9360  -29.8410   21.7570 H   0  0  0  0  0  0  0  0  0  0  0  0
  -18.0500  -28.0790   22.9420 C   0  0  0  0  0  0  0  0  0  0  0  0
  -20.6070  -28.3430   23.2120 C   0  0  0  0  0  3  0  0  0  0  0  0
  -20.7120  -26.9100   22.6400 C   0  0  0  0  0  2  0  0  0  0  0  0
  -19.6100  -26.5830   21.6270 C   0  0  0  0  0  2  0  0  0  0  0  0
  -18.2280  -26.7280   22.2700 C   0  0  0  0  0  2  0  0  0  0  0  0
  -19.1670  -28.8450   23.3700 C   0  0  0  0  0  0  0  0  0  0  0  0
  -18.9460  -30.1080   23.9590 C   0  0  0  0  0  3  0  0  0  0  0  0
  -17.6400  -30.6080   24.1240 C   0  0  0  0  0  3  0  0  0  0  0  0
  -16.5370  -29.8400   23.7130 C   0  0  0  0  0  3  0  0  0  0  0  0
  -16.7430  -28.5780   23.1270 C   0  0  0  0  0  3  0  0  0  0  0  0
  -25.9010  -32.5090   23.8540 C   0  0  0  0  0  3  0  0  0  0  0  0
  -26.4220  -31.7360   25.1270 C   0  0  1  0  0  0  0  0  0  0  0  0
  -25.3330  -31.4960   26.2000 C   0  0  0  0  0  1  0  0  0  0  0  0
  -27.0040  -30.3600   24.7290 C   0  0  0  0  0  1  0  0  0  0  0  0
  -27.5750  -32.5300   25.7860 C   0  0  0  0  0  1  0  0  0  0  0  0
  -25.5900  -33.9040   24.1900 N   0  0  0  0  0  0  0  0  0  0  0  0
  -25.9170  -34.9610   23.4330 C   0  0  0  0  0  0  0  0  0  0  0  0
  -26.5800  -34.8620   22.3980 O   0  0  0  0  0  0  0  0  0  0  0  0
  -25.0060  -34.0570   24.9990 H   0  0  0  0  0  0  0  0  0  0  0  0
  -24.1820  -36.7510   23.0980 C   0  0  0  0  0  1  0  0  0  0  0  0
  -25.4300  -36.3470   23.8990 C   0  0  0  0  0  3  0  0  0  0  0  0
  -27.5700  -37.2320   24.7150 C   0  0  0  0  0  1  0  0  0  0  0  0
  -26.4600  -37.4020   23.7810 N   0  0  0  0  0  0  0  0  0  0  0  0
  -26.0540  -38.3210   23.9350 H   0  0  0  0  0  0  0  0  0  0  0  0
  1  6  1  0
  2  1  2  0
  2 52  1  0
  3 11  1  0
  3  1  1  0
  4  3  2  0
  5  2  1  0
  7  4  1  0
  8  5  1  0
  8  4  1  0
  9  5  2  0
 10  8  1  0
 12 11  1  0
 12 13  2  0
 14 22  1  0
 15 20  1  0
 16 17  1  0
 16 15  1  0
 18 17  1  0
 18 27  1  0
 18 19  1  0
 20 14  1  0
 20 19  1  0
 21 14  2  0
 22 23  1  0
 22 13  1  0
 24 25  2  0
 25 44  1  0
 26 25  1  0
 26 29  1  0
 27 24  1  0
 27 28  1  0
 28 26  2  0
 29 30  1  0
 30 31  2  0
 32 35  1  0
 32 31  1  0
 33 32  2  0
 34 33  1  0
 34 29  2  0
 35 36  1  0
 36 37  1  0
 37 38  2  0
 39 38  1  0
 39 43  1  0
 40 39  2  0
 41 36  2  0
 41 40  1  0
 42 41  1  0
 44 45  1  0
 45 48  1  0
 45 47  1  0
 46 44  2  0
 49 50  1  0
 49 24  1  0
 51 49  1  0
 53 55  1  0
 53 52  1  0
 54 65  2  0
 55 60  1  0
 56 64  1  0
 56 66  1  0
 57 63  1  0
 57 59  1  0
 58 64  1  0
 59 58  1  0
 60 59  2  0
 61 55  2  0
 62 61  1  0
 62 57  2  0
 63 56  1  0
 64 54  1  0
 66 68  2  0
 67 66  1  0
 69 67  1  0
 70 79  2  0
 70 75  1  0
 71 67  1  0
 71 75  1  0
 72 71  1  0
 73 74  1  0
 73 72  1  0
 74 70  1  0
 75 76  2  0
 76 77  1  0
 78 77  2  0
 79 78  1  0
 80 54  1  0
 80 85  1  0
 80 81  1  0
 81 84  1  1
 81 82  1  0
 83 81  1  0
 85 88  1  0
 86 90  1  0
 86 85  1  0
 87 86  2  0
 90 89  1  0
 92 90  1  0
 92 93  1  0
 92 91  1  0
M  ISO  4  14 100  22 100  52 101  53 101
M  END
>  <TORSDO>  (14) 
F 20

>  <SCORE>  (14) 
-13.956

>  <name>  (14) 
13

>  <ligand_id>  (14) 
13

>  <original_smiles>  (14) 
[H]c1c([H])c([H])c2c(c1[H])C([H])([H])C([H])([H])C([H])([H])C2([H])N([H])C(=O)C1([H])N(C(=O)C([H])(N([H])C(=O)C([H])(N([H])C([H])([H])[H])C([H])([H])[H])C(C([H])([H])[H])(C([H])([H])[H])C([H])([H])[H])C([H])([H])c2c([H])c(OC([H])([H])c3c(C([H])([H])[H])c(C([H])([H])C([H])([H])C([H])([H])N([H])C(=O)N4C([H])([H])C([H])([H])C([H])([H])C([H])(n5nc(-c6c([H])c([H])c(Oc7c([H])c([H])c(F)c([H])c7F)c([H])c6[H])c(C(=O)N([H])[H])c5N([H])[H])C4([H])[H])c(C([H])([H])[H])n([H])c3=O)c([H])c([H])c2C1([H])[H]

>  <smiles>  (14) 
[H]c1c([H])c([H])c2c(c1[H])C([H])([H])C([H])([H])C([H])([H])C2([H])N([H])C(=O)C1([H])N(C(=O)C([H])(N([H])C(=O)C([H])(N([H])C([H])([H])[H])C([H])([H])[H])C(C([H])([H])[H])(C([H])([H])[H])C([H])([H])[H])C([H])([H])c2c([H])c(OC([H])([H])c3c(C([H])([H])[H])c(C([H])([H])C([H])([H])C([H])([H])N([H])C(=O)N4C([H])([H])C([H])([H])C([H])([H])C([H])(n5nc(-c6c([H])c([H])c(Oc7c([H])c([H])c(F)c([H])c7F)c([H])c6[H])c(C(=O)N([H])[H])c5N([H])[H])C4([H])[H])c(C([H])([H])[H])n([H])c3=O)c([H])c([H])c2C1([H])[H]

$$$$
14:0:0
     RDKit          3D

 93101  0  0  1  0  0  0  0  0999 V2000
  -27.7480  -17.8440   19.0810 C   0  0  0  0  0  3  0  0  0  0  0  0
  -28.9620  -17.2130   18.7160 C   0  0  0  0  0  0  0  0  0  0  0  0
  -27.7320  -18.7550   20.1650 C   0  0  0  0  0  0  0  0  0  0  0  0
  -30.1240  -18.8340   19.9520 C   0  0  0  0  0  3  0  0  0  0  0  0
  -30.0980  -17.4380   19.5380 C   0  0  0  0  0  3  0  0  0  0  0  0
  -28.9680  -19.2570   20.6380 C   0  0  0  0  0  0  0  0  0  0  0  0
  -28.9850  -16.2130   17.5770 C   0  0  0  0  0  1  0  0  0  0  0  0
  -26.4200  -19.2630   20.7310 C   0  0  0  0  0  1  0  0  0  0  0  0
  -29.0470  -20.5090   21.8250 Cl  0  0  0  0  0  0  0  0  0  0  0  0
  -31.0200  -15.2370   20.5600 C   0  0  0  0  0  0  0  0  0  0  0  0
  -31.0120  -12.7760   20.1620 C   0  0  0  0  0  2  0  0  0  0  0  0
  -30.2340  -12.5030   18.8530 C   0  0  0  0  0  2  0  0  0  0  0  0
  -28.7140  -12.4120   19.1130 C   0  0  0  0  0  2  0  0  0  0  0  0
  -28.1750  -13.5210   20.0590 C   0  0  0  0  0  3  0  0  0  0  0  0
  -29.0980  -13.7360   21.2800 C   0  0  0  0  0  2  0  0  0  0  0  0
  -30.4520  -14.0020   20.7730 N   0  0  0  0  0  0  0  0  0  0  0  0
  -32.2210  -15.3370   20.2970 O   0  0  0  0  0  0  0  0  0  0  0  0
  -30.1830  -16.3360   20.5190 N   0  0  0  0  0  0  0  0  0  0  0  0
  -29.2800  -16.1090   20.9070 H   0  0  0  0  0  0  0  0  0  0  0  0
  -25.7760  -14.1840   20.7040 C   0  0  0  0  0  0  0  0  0  0  0  0
  -24.6500  -13.4490   20.9400 C   0  0  0  0  0  0  0  0  0  0  0  0
  -25.0400  -12.0820   20.8090 C   0  0  0  0  0  0  0  0  0  0  0  0
  -26.7870  -13.2710   20.4450 N   0  0  0  0  0  0  0  0  0  0  0  0
  -26.3430  -11.9940   20.5670 N   0  0  0  0  0  0  0  0  0  0  0  0
  -24.2340  -10.8560   20.8430 C   0  0  0  0  0  0  0  0  0  0  0  0
  -24.5430   -9.7920   21.7190 C   0  0  0  0  0  3  0  0  0  0  0  0
  -23.7400   -8.6320   21.7450 C   0  0  0  0  0  3  0  0  0  0  0  0
  -22.6130   -8.5310   20.8960 C   0  0  0  0  0  0  0  0  0  0  0  0
  -22.3220   -9.5840   20.0130 C   0  0  0  0  0  3  0  0  0  0  0  0
  -23.1240  -10.7350   19.9840 C   0  0  0  0  0  3  0  0  0  0  0  0
  -21.7880   -7.4350   20.8380 O   0  0  0  0  0  0  0  0  0  0  0  0
  -21.5850   -6.6300   21.9300 C   0  0  0  0  0  0  0  0  0  0  0  0
  -21.0010   -7.1180   23.1190 C   0  0  0  0  0  3  0  0  0  0  0  0
  -20.7470   -6.2380   24.1900 C   0  0  0  0  0  3  0  0  0  0  0  0
  -21.0660   -4.8730   24.0740 C   0  0  0  0  0  0  0  0  0  0  0  0
  -21.6400   -4.3840   22.8860 C   0  0  0  0  0  3  0  0  0  0  0  0
  -21.8960   -5.2600   21.8180 C   0  0  0  0  0  0  0  0  0  0  0  0
  -22.4330   -4.7810   20.6700 F   0  0  0  0  0  0  0  0  0  0  0  0
  -20.8140   -4.0250   25.0980 F   0  0  0  0  0  0  0  0  0  0  0  0
  -23.2700  -13.9890   21.1830 C   0  0  0  0  0  0  0  0  0  0  0  0
  -22.4600  -13.2800   21.9620 N   0  0  0  0  0  0  0  0  0  0  0  0
  -22.9170  -15.0750   20.7210 O   0  0  0  0  0  0  0  0  0  0  0  0
  -22.7530  -12.4070   22.3730 H   0  0  0  0  0  0  0  0  0  0  0  0
  -21.5300  -13.6210   22.1560 H   0  0  0  0  0  0  0  0  0  0  0  0
  -26.0110  -15.5510   20.6790 N   0  0  0  0  0  0  0  0  0  0  0  0
  -25.2700  -16.2110   20.8870 H   0  0  0  0  0  0  0  0  0  0  0  0
  -26.9120  -15.9900   20.5450 H   0  0  0  0  0  0  0  0  0  0  0  0
  -30.6060  -19.8950   18.8840 C   0  0  0  0  0  2  0  0  0  0  0  0
  -30.5620  -21.5130   19.0180 C   0  0  0  0  0  3  0  0  0  0  0  0
  -29.2430  -22.4330   18.9870 C   0  0  0  0  0  3  0  0  0  0  0  0
  -29.4320  -24.0460   18.9580 C   0  0  0  0  0  3  0  0  0  0  0  0
  -28.2330  -25.0480   19.3430 C   0  0  0  0  0  3  0  0  0  0  0  0
  -28.4120  -26.5390   19.2300 O   0  0  0  0  0  0  0  0  0  0  0  0
  -24.5390  -31.4640   22.8810 C   0  0  0  0  0  0  0  0  0  0  0  0
  -27.2660  -27.3630   19.3030 C   0  0  0  0  0  0  0  0  0  0  0  0
  -23.3550  -30.1760   21.1400 C   0  0  0  0  0  3  0  0  0  0  0  0
  -24.8330  -28.8710   19.5160 C   0  0  0  0  0  0  0  0  0  0  0  0
  -25.8720  -30.6470   20.9170 C   0  0  0  0  0  2  0  0  0  0  0  0
  -26.0000  -29.3500   20.1240 C   0  0  0  0  0  0  0  0  0  0  0  0
  -27.2210  -28.6110   20.0050 C   0  0  0  0  0  3  0  0  0  0  0  0
  -26.0770  -26.9620   18.6560 C   0  0  0  0  0  3  0  0  0  0  0  0
  -24.8760  -27.6850   18.7690 C   0  0  0  0  0  3  0  0  0  0  0  0
  -23.5560  -29.6630   19.6930 C   0  0  0  0  0  2  0  0  0  0  0  0
  -24.6090  -30.7780   21.7030 N   0  0  0  0  0  0  0  0  0  0  0  0
  -23.4630  -31.6240   23.4730 O   0  0  0  0  0  0  0  0  0  0  0  0
  -22.7800  -29.0330   22.0130 C   0  0  0  0  0  0  0  0  0  0  0  0
  -21.4580  -28.8040   21.9240 N   0  0  0  0  0  0  0  0  0  0  0  0
  -23.5210  -28.3580   22.7350 O   0  0  0  0  0  0  0  0  0  0  0  0
  -20.9170  -29.3970   21.3140 H   0  0  0  0  0  0  0  0  0  0  0  0
  -18.1840  -27.3530   22.3770 C   0  0  0  0  0  0  0  0  0  0  0  0
  -20.7260  -27.7440   22.6150 C   0  0  0  0  0  3  0  0  0  0  0  0
  -20.8990  -26.3840   21.8940 C   0  0  0  0  0  2  0  0  0  0  0  0
  -19.7860  -26.0930   20.8770 C   0  0  0  0  0  2  0  0  0  0  0  0
  -18.4190  -26.0890   21.5680 C   0  0  0  0  0  2  0  0  0  0  0  0
  -19.2660  -28.1370   22.8520 C   0  0  0  0  0  0  0  0  0  0  0  0
  -18.9910  -29.3210   23.5700 C   0  0  0  0  0  3  0  0  0  0  0  0
  -17.6630  -29.7130   23.8230 C   0  0  0  0  0  3  0  0  0  0  0  0
  -16.5940  -28.9260   23.3600 C   0  0  0  0  0  3  0  0  0  0  0  0
  -16.8560  -27.7490   22.6440 C   0  0  0  0  0  3  0  0  0  0  0  0
  -25.8090  -32.1040   23.5270 C   0  0  0  0  0  3  0  0  0  0  0  0
  -25.4480  -33.4640   23.9540 N   0  0  0  0  0  0  0  0  0  0  0  0
  -25.7470  -34.5820   23.2800 C   0  0  0  0  0  0  0  0  0  0  0  0
  -26.4240  -34.5830   22.2500 O   0  0  0  0  0  0  0  0  0  0  0  0
  -24.8410  -33.5360   24.7560 H   0  0  0  0  0  0  0  0  0  0  0  0
  -23.9720  -36.3510   23.0410 C   0  0  0  0  0  1  0  0  0  0  0  0
  -25.2110  -35.9150   23.8400 C   0  0  0  0  0  3  0  0  0  0  0  0
  -27.2940  -36.7980   24.7950 C   0  0  0  0  0  1  0  0  0  0  0  0
  -26.2130  -37.0020   23.8330 N   0  0  0  0  0  0  0  0  0  0  0  0
  -25.7730  -37.8960   24.0340 H   0  0  0  0  0  0  0  0  0  0  0  0
  -26.3750  -31.2710   24.7390 C   0  0  1  0  0  0  0  0  0  0  0  0
  -25.3170  -30.9380   25.8140 C   0  0  0  0  0  1  0  0  0  0  0  0
  -26.9890  -29.9380   24.2550 C   0  0  0  0  0  1  0  0  0  0  0  0
  -27.5140  -32.0630   25.4260 C   0  0  0  0  0  1  0  0  0  0  0  0
  1  3  1  0
  2  1  2  0
  2  5  1  0
  3  6  2  0
  3  8  1  0
  4 48  1  0
  4  6  1  0
  5  4  1  0
  5 18  1  0
  6  9  1  0
  7  2  1  0
 10 16  1  0
 11 16  1  0
 12 13  1  0
 12 11  1  0
 14 13  1  0
 14 23  1  0
 14 15  1  0
 16 15  1  0
 17 10  2  0
 18 10  1  0
 18 19  1  0
 20 21  2  0
 21 40  1  0
 22 25  1  0
 22 21  1  0
 23 24  1  0
 23 20  1  0
 24 22  2  0
 25 26  1  0
 26 27  2  0
 28 27  1  0
 29 28  2  0
 30 29  1  0
 30 25  2  0
 31 28  1  0
 31 32  1  0
 32 33  1  0
 33 34  2  0
 35 34  1  0
 35 39  1  0
 36 35  2  0
 37 32  2  0
 37 36  1  0
 38 37  1  0
 40 41  1  0
 41 44  1  0
 41 43  1  0
 42 40  2  0
 45 20  1  0
 45 46  1  0
 47 45  1  0
 48 49  1  0
 50 49  2  0
 51 50  1  0
 51 52  2  0
 53 55  1  0
 53 52  1  0
 54 65  2  0
 55 60  1  0
 56 64  1  0
 56 66  1  0
 57 63  1  0
 57 59  1  0
 58 64  1  0
 59 58  1  0
 60 59  2  0
 61 62  1  0
 61 55  2  0
 62 57  2  0
 63 56  1  0
 64 54  1  0
 66 68  2  0
 67 66  1  0
 69 67  1  0
 70 79  2  0
 70 75  1  0
 71 67  1  0
 71 75  1  0
 72 71  1  0
 73 74  1  0
 73 72  1  0
 74 70  1  0
 75 76  2  0
 76 77  1  0
 78 77  2  0
 79 78  1  0
 80 54  1  0
 80 81  1  0
 80 90  1  0
 81 84  1  0
 82 86  1  0
 82 81  1  0
 83 82  2  0
 86 85  1  0
 88 86  1  0
 88 89  1  0
 88 87  1  0
 90 93  1  1
 90 91  1  0
 92 90  1  0
M  ISO  4  10 100  18 100  52 101  53 101
M  END
>  <TORSDO>  (15) 
F 21

>  <SCORE>  (15) 
-6.930

>  <name>  (15) 
14

>  <ligand_id>  (15) 
14

>  <original_smiles>  (15) 
[H]c1c([H])c([H])c2c(c1[H])C([H])([H])C([H])([H])C([H])([H])C2([H])N([H])C(=O)C1([H])N(C(=O)C([H])(N([H])C(=O)C([H])(N([H])C([H])([H])[H])C([H])([H])[H])C(C([H])([H])[H])(C([H])([H])[H])C([H])([H])[H])C([H])([H])c2c([H])c(OC([H])([H])C([H])([H])C([H])([H])C([H])([H])C([H])([H])c3c(Cl)c(C([H])([H])[H])c([H])c(C([H])([H])[H])c3N([H])C(=O)N3C([H])([H])C([H])([H])C([H])([H])C([H])(n4nc(-c5c([H])c([H])c(Oc6c([H])c([H])c(F)c([H])c6F)c([H])c5[H])c(C(=O)N([H])[H])c4N([H])[H])C3([H])[H])c([H])c([H])c2C1([H])[H]

>  <smiles>  (15) 
[H]c1c([H])c([H])c2c(c1[H])C([H])([H])C([H])([H])C([H])([H])C2([H])N([H])C(=O)C1([H])N(C(=O)C([H])(N([H])C(=O)C([H])(N([H])C([H])([H])[H])C([H])([H])[H])C(C([H])([H])[H])(C([H])([H])[H])C([H])([H])[H])C([H])([H])c2c([H])c(OC([H])([H])C([H])([H])C([H])([H])C([H])([H])C([H])([H])c3c(Cl)c(C([H])([H])[H])c([H])c(C([H])([H])[H])c3N([H])C(=O)N3C([H])([H])C([H])([H])C([H])([H])C([H])(n4nc(-c5c([H])c([H])c(Oc6c([H])c([H])c(F)c([H])c6F)c([H])c5[H])c(C(=O)N([H])[H])c4N([H])[H])C3([H])[H])c([H])c([H])c2C1([H])[H]

$$$$
15:0:0
     RDKit          3D

 89 97  0  0  1  0  0  0  0  0999 V2000
  -28.1500  -20.3210   20.1670 C   0  0  0  0  0  3  0  0  0  0  0  0
  -30.5780  -19.0450   20.5070 C   0  0  0  0  0  3  0  0  0  0  0  0
  -28.2990  -18.8400   20.1650 C   0  0  0  0  0  0  0  0  0  0  0  0
  -29.1970  -21.3060   20.3470 C   0  0  0  0  0  0  0  0  0  0  0  0
  -29.5290  -18.0570   20.3410 C   0  0  0  0  0  0  0  0  0  0  0  0
  -30.4250  -20.5220   20.5150 C   0  0  0  0  0  0  0  0  0  0  0  0
  -27.0190  -18.0580   19.9480 C   0  0  0  0  0  1  0  0  0  0  0  0
  -31.8850  -21.4150   20.7650 Cl  0  0  0  0  0  0  0  0  0  0  0  0
  -30.4140  -15.2610   20.2370 C   0  0  0  0  0  0  0  0  0  0  0  0
  -30.3930  -12.8460   19.3170 C   0  0  0  0  0  2  0  0  0  0  0  0
  -29.4450  -12.6990   18.0990 C   0  0  0  0  0  2  0  0  0  0  0  0
  -28.0070  -12.4040   18.5680 C   0  0  0  0  0  2  0  0  0  0  0  0
  -27.5740  -13.3430   19.7220 C   0  0  0  0  0  3  0  0  0  0  0  0
  -28.6450  -13.4490   20.8290 C   0  0  0  0  0  2  0  0  0  0  0  0
  -29.8740  -13.9500   20.1920 N   0  0  0  0  0  0  0  0  0  0  0  0
  -31.6220  -15.3200   19.9680 O   0  0  0  0  0  0  0  0  0  0  0  0
  -29.5630  -16.4480   20.3850 N   0  0  0  0  0  0  0  0  0  0  0  0
  -28.6310  -16.0970   20.5410 H   0  0  0  0  0  0  0  0  0  0  0  0
  -25.2090  -13.8750   20.5240 C   0  0  0  0  0  0  0  0  0  0  0  0
  -24.1610  -13.0900   20.9090 C   0  0  0  0  0  0  0  0  0  0  0  0
  -24.6370  -11.7440   20.8490 C   0  0  0  0  0  0  0  0  0  0  0  0
  -26.2550  -13.0120   20.2500 N   0  0  0  0  0  0  0  0  0  0  0  0
  -25.9230  -11.7220   20.5110 N   0  0  0  0  0  0  0  0  0  0  0  0
  -23.9200  -10.4760   21.0360 C   0  0  0  0  0  0  0  0  0  0  0  0
  -24.3640   -9.5080   21.9630 C   0  0  0  0  0  3  0  0  0  0  0  0
  -23.6480   -8.3040   22.1370 C   0  0  0  0  0  3  0  0  0  0  0  0
  -22.4730   -8.0630   21.3860 C   0  0  0  0  0  0  0  0  0  0  0  0
  -22.0480   -9.0220   20.4490 C   0  0  0  0  0  3  0  0  0  0  0  0
  -22.7650  -10.2160   20.2720 C   0  0  0  0  0  3  0  0  0  0  0  0
  -21.7250   -6.9140   21.4730 O   0  0  0  0  0  0  0  0  0  0  0  0
  -21.6680   -6.1770   22.6280 C   0  0  0  0  0  0  0  0  0  0  0  0
  -21.1940   -6.7290   23.8400 C   0  0  0  0  0  3  0  0  0  0  0  0
  -21.0850   -5.9170   24.9870 C   0  0  0  0  0  3  0  0  0  0  0  0
  -21.4400   -4.5560   24.9230 C   0  0  0  0  0  0  0  0  0  0  0  0
  -21.9070   -4.0060   23.7170 C   0  0  0  0  0  3  0  0  0  0  0  0
  -22.0180   -4.8130   22.5720 C   0  0  0  0  0  0  0  0  0  0  0  0
  -22.4490   -4.2730   21.4080 F   0  0  0  0  0  0  0  0  0  0  0  0
  -21.3300   -3.7740   26.0230 F   0  0  0  0  0  0  0  0  0  0  0  0
  -22.7660  -13.5580   21.2070 C   0  0  0  0  0  0  0  0  0  0  0  0
  -22.0590  -12.8570   22.0860 N   0  0  0  0  0  0  0  0  0  0  0  0
  -22.3130  -14.5830   20.6970 O   0  0  0  0  0  0  0  0  0  0  0  0
  -22.4400  -12.0330   22.5260 H   0  0  0  0  0  0  0  0  0  0  0  0
  -21.1240  -13.1550   22.3260 H   0  0  0  0  0  0  0  0  0  0  0  0
  -25.3470  -15.2450   20.3500 N   0  0  0  0  0  0  0  0  0  0  0  0
  -24.5450  -15.8610   20.4250 H   0  0  0  0  0  0  0  0  0  0  0  0
  -26.1250  -15.6650   19.8620 H   0  0  0  0  0  0  0  0  0  0  0  0
  -29.1700  -23.0450   20.4040 C   0  0  0  0  0  3  0  0  0  0  0  0
  -28.0300  -24.3820   20.2100 C   0  0  0  0  0  3  0  0  0  0  0  0
  -28.2410  -25.9920   20.3600 O   0  0  0  0  0  0  0  0  0  0  0  0
  -24.6520  -31.9130   23.2730 C   0  0  0  0  0  0  0  0  0  0  0  0
  -27.2090  -27.0500   20.2950 C   0  0  0  0  0  0  0  0  0  0  0  0
  -23.4580  -30.5170   21.6340 C   0  0  0  0  0  3  0  0  0  0  0  0
  -24.9070  -28.9030   20.2280 C   0  0  0  0  0  0  0  0  0  0  0  0
  -26.0250  -30.7260   21.4990 C   0  0  0  0  0  2  0  0  0  0  0  0
  -26.0920  -29.3190   20.8480 C   0  0  0  0  0  0  0  0  0  0  0  0
  -27.2380  -28.4120   20.8560 C   0  0  0  0  0  3  0  0  0  0  0  0
  -25.9910  -26.7670   19.6370 C   0  0  0  0  0  3  0  0  0  0  0  0
  -24.8790  -27.6460   19.6020 C   0  0  0  0  0  3  0  0  0  0  0  0
  -23.6910  -29.8270   20.2610 C   0  0  0  0  0  2  0  0  0  0  0  0
  -24.7320  -31.0780   22.1890 N   0  0  0  0  0  0  0  0  0  0  0  0
  -23.5620  -32.2130   23.7870 O   0  0  0  0  0  0  0  0  0  0  0  0
  -22.7530  -29.5290   22.5990 C   0  0  0  0  0  0  0  0  0  0  0  0
  -21.4240  -29.3710   22.4650 N   0  0  0  0  0  0  0  0  0  0  0  0
  -23.4110  -28.9050   23.4370 O   0  0  0  0  0  0  0  0  0  0  0  0
  -20.9490  -29.9260   21.7660 H   0  0  0  0  0  0  0  0  0  0  0  0
  -18.0270  -28.1980   22.9570 C   0  0  0  0  0  0  0  0  0  0  0  0
  -20.5880  -28.4450   23.2350 C   0  0  0  0  0  3  0  0  0  0  0  0
  -20.6820  -27.0100   22.6670 C   0  0  0  0  0  2  0  0  0  0  0  0
  -19.5820  -26.6910   21.6490 C   0  0  0  0  0  2  0  0  0  0  0  0
  -18.1980  -26.8460   22.2840 C   0  0  0  0  0  2  0  0  0  0  0  0
  -19.1490  -28.9550   23.3900 C   0  0  0  0  0  0  0  0  0  0  0  0
  -18.9320  -30.2180   23.9810 C   0  0  0  0  0  3  0  0  0  0  0  0
  -17.6290  -30.7250   24.1440 C   0  0  0  0  0  3  0  0  0  0  0  0
  -16.5220  -29.9650   23.7270 C   0  0  0  0  0  3  0  0  0  0  0  0
  -16.7220  -28.7040   23.1390 C   0  0  0  0  0  3  0  0  0  0  0  0
  -25.9250  -32.5480   23.9120 C   0  0  0  0  0  3  0  0  0  0  0  0
  -25.6170  -33.9520   24.2350 N   0  0  0  0  0  0  0  0  0  0  0  0
  -25.9410  -35.0040   23.4720 C   0  0  0  0  0  0  0  0  0  0  0  0
  -26.5930  -34.8940   22.4300 O   0  0  0  0  0  0  0  0  0  0  0  0
  -25.0350  -34.1090   25.0440 H   0  0  0  0  0  0  0  0  0  0  0  0
  -24.2050  -36.8010   23.1560 C   0  0  0  0  0  1  0  0  0  0  0  0
  -25.4680  -36.3990   23.9330 C   0  0  0  0  0  3  0  0  0  0  0  0
  -27.6240  -37.2960   24.6970 C   0  0  0  0  0  1  0  0  0  0  0  0
  -26.4980  -37.4510   23.7790 N   0  0  0  0  0  0  0  0  0  0  0  0
  -26.0960  -38.3730   23.9220 H   0  0  0  0  0  0  0  0  0  0  0  0
  -26.4100  -31.7880   25.2070 C   0  0  1  0  0  0  0  0  0  0  0  0
  -25.2980  -31.5750   26.2620 C   0  0  0  0  0  1  0  0  0  0  0  0
  -26.9880  -30.4000   24.8510 C   0  0  0  0  0  1  0  0  0  0  0  0
  -27.5580  -32.5800   25.8770 C   0  0  0  0  0  1  0  0  0  0  0  0
  1  4  1  0
  2  6  1  0
  3  1  2  0
  3  5  1  0
  4 47  1  0
  4  6  2  0
  5 17  1  0
  5  2  2  0
  6  8  1  0
  7  3  1  0
  9 17  1  0
 10 15  1  0
 11 12  1  0
 11 10  1  0
 13 12  1  0
 13 22  1  0
 13 14  1  0
 15  9  1  0
 15 14  1  0
 16  9  2  0
 17 18  1  0
 19 20  2  0
 20 39  1  0
 21 20  1  0
 21 24  1  0
 22 23  1  0
 22 19  1  0
 23 21  2  0
 24 25  1  0
 25 26  2  0
 27 30  1  0
 27 26  1  0
 28 27  2  0
 29 28  1  0
 29 24  2  0
 30 31  1  0
 31 32  1  0
 32 33  2  0
 34 33  1  0
 34 38  1  0
 35 34  2  0
 36 31  2  0
 36 35  1  0
 37 36  1  0
 39 40  1  0
 40 43  1  0
 40 42  1  0
 41 39  2  0
 44 45  1  0
 44 19  1  0
 46 44  1  0
 48 49  1  0
 48 47  2  0
 50 61  2  0
 51 49  1  0
 51 56  1  0
 52 60  1  0
 52 62  1  0
 53 59  1  0
 53 55  1  0
 54 60  1  0
 55 56  2  0
 55 54  1  0
 57 51  2  0
 58 57  1  0
 58 53  2  0
 59 52  1  0
 60 50  1  0
 62 64  2  0
 63 62  1  0
 65 63  1  0
 66 75  2  0
 66 71  1  0
 67 63  1  0
 67 71  1  0
 68 67  1  0
 69 70  1  0
 69 68  1  0
 70 66  1  0
 71 72  2  0
 72 73  1  0
 74 73  2  0
 75 74  1  0
 76 50  1  0
 76 77  1  0
 76 86  1  0
 77 80  1  0
 78 82  1  0
 78 77  1  0
 79 78  2  0
 82 81  1  0
 84 85  1  0
 84 82  1  0
 84 83  1  0
 86 89  1  1
 86 87  1  0
 88 86  1  0
M  ISO  4   9 100  17 100  48 101  49 101
M  END
>  <TORSDO>  (16) 
F 18

>  <SCORE>  (16) 
-16.009

>  <name>  (16) 
15

>  <ligand_id>  (16) 
15

>  <original_smiles>  (16) 
[H]c1c([H])c([H])c2c(c1[H])C([H])([H])C([H])([H])C([H])([H])C2([H])N([H])C(=O)C1([H])N(C(=O)C([H])(N([H])C(=O)C([H])(N([H])C([H])([H])[H])C([H])([H])[H])C(C([H])([H])[H])(C([H])([H])[H])C([H])([H])[H])C([H])([H])c2c([H])c(OC([H])([H])C([H])([H])c3c([H])c(C([H])([H])[H])c(N([H])C(=O)N4C([H])([H])C([H])([H])C([H])([H])C([H])(n5nc(-c6c([H])c([H])c(Oc7c([H])c([H])c(F)c([H])c7F)c([H])c6[H])c(C(=O)N([H])[H])c5N([H])[H])C4([H])[H])c([H])c3Cl)c([H])c([H])c2C1([H])[H]

>  <smiles>  (16) 
[H]c1c([H])c([H])c2c(c1[H])C([H])([H])C([H])([H])C([H])([H])C2([H])N([H])C(=O)C1([H])N(C(=O)C([H])(N([H])C(=O)C([H])(N([H])C([H])([H])[H])C([H])([H])[H])C(C([H])([H])[H])(C([H])([H])[H])C([H])([H])[H])C([H])([H])c2c([H])c(OC([H])([H])C([H])([H])c3c([H])c(C([H])([H])[H])c(N([H])C(=O)N4C([H])([H])C([H])([H])C([H])([H])C([H])(n5nc(-c6c([H])c([H])c(Oc7c([H])c([H])c(F)c([H])c7F)c([H])c6[H])c(C(=O)N([H])[H])c5N([H])[H])C4([H])[H])c([H])c3Cl)c([H])c([H])c2C1([H])[H]

$$$$
16:0:0
     RDKit          3D

 94102  0  0  1  0  0  0  0  0999 V2000
  -31.0860  -18.6130   19.4670 C   0  0  0  0  0  3  0  0  0  0  0  0
  -29.4790  -19.7630   20.8620 C   0  0  0  0  0  3  0  0  0  0  0  0
  -30.1540  -18.5300   20.5080 C   0  0  0  0  0  0  0  0  0  0  0  0
  -31.3590  -19.8320   18.8110 C   0  0  0  0  0  0  0  0  0  0  0  0
  -29.7050  -21.0410   20.2100 C   0  0  0  0  0  0  0  0  0  0  0  0
  -30.6710  -21.0330   19.1580 C   0  0  0  0  0  0  0  0  0  0  0  0
  -31.0530  -22.4630   18.2600 Cl  0  0  0  0  0  0  0  0  0  0  0  0
  -32.4510  -19.7990   17.7430 C   0  0  0  0  0  2  0  0  0  0  0  0
  -31.9560  -19.2110   16.4140 C   0  0  0  0  0  2  0  0  0  0  0  0
  -32.6060  -18.3750   14.0910 C   0  0  0  0  0  1  0  0  0  0  0  0
  -33.0950  -19.0030   15.4010 C   0  0  0  0  0  2  0  0  0  0  0  0
  -28.9050  -22.3430   20.7000 C   0  0  0  0  0  2  0  0  0  0  0  0
  -29.0870  -23.8450   20.1200 C   0  0  0  0  0  3  0  0  0  0  0  0
  -28.1870  -25.0390   20.7080 C   0  0  0  0  0  3  0  0  0  0  0  0
  -28.3760  -26.4490   20.2460 O   0  0  0  0  0  0  0  0  0  0  0  0
  -24.6200  -31.8860   23.2190 C   0  0  0  0  0  0  0  0  0  0  0  0
  -27.2590  -27.3050   20.2160 C   0  0  0  0  0  0  0  0  0  0  0  0
  -23.4260  -30.4710   21.5840 C   0  0  0  0  0  3  0  0  0  0  0  0
  -24.8890  -28.9160   20.1710 C   0  0  0  0  0  0  0  0  0  0  0  0
  -25.9610  -30.8000   21.4000 C   0  0  0  0  0  2  0  0  0  0  0  0
  -26.0530  -29.4130   20.7700 C   0  0  0  0  0  0  0  0  0  0  0  0
  -27.2410  -28.6200   20.7810 C   0  0  0  0  0  3  0  0  0  0  0  0
  -26.0750  -26.8680   19.5820 C   0  0  0  0  0  3  0  0  0  0  0  0
  -24.9010  -27.6510   19.5660 C   0  0  0  0  0  3  0  0  0  0  0  0
  -23.6470  -29.7880   20.2090 C   0  0  0  0  0  2  0  0  0  0  0  0
  -24.6880  -31.0710   22.1250 N   0  0  0  0  0  0  0  0  0  0  0  0
  -23.5340  -32.1650   23.7490 O   0  0  0  0  0  0  0  0  0  0  0  0
  -22.7630  -29.4600   22.5510 C   0  0  0  0  0  0  0  0  0  0  0  0
  -21.4370  -29.2840   22.4260 N   0  0  0  0  0  0  0  0  0  0  0  0
  -23.4380  -28.8360   23.3720 O   0  0  0  0  0  0  0  0  0  0  0  0
  -20.9500  -29.8400   21.7380 H   0  0  0  0  0  0  0  0  0  0  0  0
  -18.0560  -28.1010   22.9390 C   0  0  0  0  0  0  0  0  0  0  0  0
  -20.6160  -28.3520   23.2000 C   0  0  0  0  0  3  0  0  0  0  0  0
  -20.7120  -26.9200   22.6260 C   0  0  0  0  0  2  0  0  0  0  0  0
  -19.6070  -26.6000   21.6150 C   0  0  0  0  0  2  0  0  0  0  0  0
  -18.2280  -26.7500   22.2630 C   0  0  0  0  0  2  0  0  0  0  0  0
  -19.1790  -28.8600   23.3640 C   0  0  0  0  0  0  0  0  0  0  0  0
  -18.9670  -30.1230   23.9570 C   0  0  0  0  0  3  0  0  0  0  0  0
  -17.6640  -30.6300   24.1260 C   0  0  0  0  0  3  0  0  0  0  0  0
  -16.5550  -29.8670   23.7200 C   0  0  0  0  0  3  0  0  0  0  0  0
  -16.7520  -28.6050   23.1310 C   0  0  0  0  0  3  0  0  0  0  0  0
  -25.9000  -32.5260   23.8420 C   0  0  0  0  0  3  0  0  0  0  0  0
  -25.5830  -33.9230   24.1730 N   0  0  0  0  0  0  0  0  0  0  0  0
  -25.9090  -34.9790   23.4160 C   0  0  0  0  0  0  0  0  0  0  0  0
  -26.5810  -34.8810   22.3860 O   0  0  0  0  0  0  0  0  0  0  0  0
  -24.9860  -34.0750   24.9720 H   0  0  0  0  0  0  0  0  0  0  0  0
  -24.1750  -36.7690   23.0630 C   0  0  0  0  0  1  0  0  0  0  0  0
  -25.4150  -36.3650   23.8760 C   0  0  0  0  0  3  0  0  0  0  0  0
  -27.5420  -37.2560   24.7210 C   0  0  0  0  0  1  0  0  0  0  0  0
  -26.4440  -37.4240   23.7720 N   0  0  0  0  0  0  0  0  0  0  0  0
  -26.0330  -38.3410   23.9270 H   0  0  0  0  0  0  0  0  0  0  0  0
  -26.4240  -31.7580   25.1170 C   0  0  1  0  0  0  0  0  0  0  0  0
  -25.3320  -31.5090   26.1860 C   0  0  0  0  0  1  0  0  0  0  0  0
  -27.0150  -30.3850   24.7240 C   0  0  0  0  0  1  0  0  0  0  0  0
  -27.5720  -32.5560   25.7790 C   0  0  0  0  0  1  0  0  0  0  0  0
  -30.0730  -17.1830   21.3320 C   0  0  0  0  0  2  0  0  0  0  0  0
  -30.6100  -14.7260   20.4560 C   0  0  0  0  0  0  0  0  0  0  0  0
  -30.4200  -12.4790   19.3650 C   0  0  0  0  0  2  0  0  0  0  0  0
  -29.4750  -12.5670   18.1450 C   0  0  0  0  0  2  0  0  0  0  0  0
  -28.0060  -12.3800   18.5740 C   0  0  0  0  0  2  0  0  0  0  0  0
  -27.6280  -13.2600   19.7960 C   0  0  0  0  0  3  0  0  0  0  0  0
  -28.6860  -13.1430   20.9140 C   0  0  0  0  0  2  0  0  0  0  0  0
  -29.9840  -13.5090   20.3310 N   0  0  0  0  0  0  0  0  0  0  0  0
  -31.8020  -14.8590   20.1690 O   0  0  0  0  0  0  0  0  0  0  0  0
  -29.8060  -15.8110   20.7370 N   0  0  0  0  0  0  0  0  0  0  0  0
  -28.8320  -15.5540   20.7750 H   0  0  0  0  0  0  0  0  0  0  0  0
  -25.2300  -13.8510   20.4910 C   0  0  0  0  0  0  0  0  0  0  0  0
  -24.1630  -13.0740   20.8570 C   0  0  0  0  0  0  0  0  0  0  0  0
  -24.6300  -11.7260   20.8410 C   0  0  0  0  0  0  0  0  0  0  0  0
  -26.2790  -12.9740   20.2760 N   0  0  0  0  0  0  0  0  0  0  0  0
  -25.9250  -11.6910   20.5500 N   0  0  0  0  0  0  0  0  0  0  0  0
  -23.9090  -10.4610   21.0300 C   0  0  0  0  0  0  0  0  0  0  0  0
  -24.3350   -9.5000   21.9730 C   0  0  0  0  0  3  0  0  0  0  0  0
  -23.6110   -8.3030   22.1500 C   0  0  0  0  0  3  0  0  0  0  0  0
  -22.4470   -8.0570   21.3850 C   0  0  0  0  0  0  0  0  0  0  0  0
  -22.0400   -9.0070   20.4320 C   0  0  0  0  0  3  0  0  0  0  0  0
  -22.7640  -10.1960   20.2530 C   0  0  0  0  0  3  0  0  0  0  0  0
  -21.6940   -6.9120   21.4700 O   0  0  0  0  0  0  0  0  0  0  0  0
  -21.6360   -6.1740   22.6250 C   0  0  0  0  0  0  0  0  0  0  0  0
  -21.1990   -6.7330   23.8460 C   0  0  0  0  0  3  0  0  0  0  0  0
  -21.0910   -5.9220   24.9920 C   0  0  0  0  0  3  0  0  0  0  0  0
  -21.4090   -4.5520   24.9190 C   0  0  0  0  0  0  0  0  0  0  0  0
  -21.8410   -3.9930   23.7030 C   0  0  0  0  0  3  0  0  0  0  0  0
  -21.9500   -4.8010   22.5580 C   0  0  0  0  0  0  0  0  0  0  0  0
  -22.3460   -4.2520   21.3830 F   0  0  0  0  0  0  0  0  0  0  0  0
  -21.2960   -3.7720   26.0190 F   0  0  0  0  0  0  0  0  0  0  0  0
  -22.7610  -13.5490   21.1080 C   0  0  0  0  0  0  0  0  0  0  0  0
  -22.0220  -12.8550   21.9680 N   0  0  0  0  0  0  0  0  0  0  0  0
  -22.3270  -14.5700   20.5760 O   0  0  0  0  0  0  0  0  0  0  0  0
  -22.3870  -12.0270   22.4160 H   0  0  0  0  0  0  0  0  0  0  0  0
  -21.0820  -13.1570   22.1810 H   0  0  0  0  0  0  0  0  0  0  0  0
  -25.3900  -15.2210   20.2990 N   0  0  0  0  0  0  0  0  0  0  0  0
  -24.6150  -15.8710   20.3740 H   0  0  0  0  0  0  0  0  0  0  0  0
  -26.2330  -15.6540   19.9430 H   0  0  0  0  0  0  0  0  0  0  0  0
  1  3  1  0
  3  2  2  0
  3 56  1  0
  4  6  1  0
  4  1  2  0
  5 12  1  0
  5  2  1  0
  6  5  2  0
  7  6  1  0
  8  4  1  0
  9  8  1  0
 10 11  1  0
 11  9  1  0
 13 12  1  0
 13 14  2  0
 15 14  1  0
 16 27  2  0
 17 15  1  0
 17 22  1  0
 18 26  1  0
 18 28  1  0
 19 25  1  0
 19 21  1  0
 20 26  1  0
 21 22  2  0
 21 20  1  0
 23 17  2  0
 24 23  1  0
 24 19  2  0
 25 18  1  0
 26 16  1  0
 28 30  2  0
 29 28  1  0
 31 29  1  0
 32 41  2  0
 32 37  1  0
 33 29  1  0
 33 37  1  0
 34 33  1  0
 35 36  1  0
 35 34  1  0
 36 32  1  0
 37 38  2  0
 38 39  1  0
 40 39  2  0
 41 40  1  0
 42 16  1  0
 42 43  1  0
 42 52  1  0
 43 46  1  0
 44 48  1  0
 44 43  1  0
 45 44  2  0
 48 47  1  0
 50 48  1  0
 50 51  1  0
 50 49  1  0
 52 55  1  1
 52 53  1  0
 54 52  1  0
 57 65  1  0
 58 63  1  0
 59 60  1  0
 59 58  1  0
 61 60  1  0
 61 70  1  0
 61 62  1  0
 63 57  1  0
 63 62  1  0
 64 57  2  0
 65 66  1  0
 65 56  1  0
 67 68  2  0
 68 87  1  0
 69 68  1  0
 69 72  1  0
 70 67  1  0
 70 71  1  0
 71 69  2  0
 72 73  1  0
 73 74  2  0
 75 78  1  0
 75 74  1  0
 76 75  2  0
 77 76  1  0
 77 72  2  0
 78 79  1  0
 79 80  1  0
 80 81  2  0
 82 81  1  0
 82 86  1  0
 83 82  2  0
 84 79  2  0
 84 83  1  0
 85 84  1  0
 87 88  1  0
 88 91  1  0
 88 90  1  0
 89 87  2  0
 92 93  1  0
 92 67  1  0
 94 92  1  0
M  ISO  4  14 101  15 101  57 100  65 100
M  END
>  <TORSDO>  (17) 
F 23

>  <SCORE>  (17) 
-12.907

>  <name>  (17) 
16

>  <ligand_id>  (17) 
16

>  <original_smiles>  (17) 
[H]c1c([H])c([H])c2c(c1[H])C([H])([H])C([H])([H])C([H])([H])C2([H])N([H])C(=O)C1([H])N(C(=O)C([H])(N([H])C(=O)C([H])(N([H])C([H])([H])[H])C([H])([H])[H])C(C([H])([H])[H])(C([H])([H])[H])C([H])([H])[H])C([H])([H])c2c([H])c(OC([H])([H])C([H])([H])C([H])([H])c3c([H])c(C([H])([H])N([H])C(=O)N4C([H])([H])C([H])([H])C([H])([H])C([H])(n5nc(-c6c([H])c([H])c(Oc7c([H])c([H])c(F)c([H])c7F)c([H])c6[H])c(C(=O)N([H])[H])c5N([H])[H])C4([H])[H])c([H])c(C([H])([H])C([H])([H])C([H])([H])C([H])([H])[H])c3Cl)c([H])c([H])c2C1([H])[H]

>  <smiles>  (17) 
[H]c1c([H])c([H])c2c(c1[H])C([H])([H])C([H])([H])C([H])([H])C2([H])N([H])C(=O)C1([H])N(C(=O)C([H])(N([H])C(=O)C([H])(N([H])C([H])([H])[H])C([H])([H])[H])C(C([H])([H])[H])(C([H])([H])[H])C([H])([H])[H])C([H])([H])c2c([H])c(OC([H])([H])C([H])([H])C([H])([H])c3c([H])c(C([H])([H])N([H])C(=O)N4C([H])([H])C([H])([H])C([H])([H])C([H])(n5nc(-c6c([H])c([H])c(Oc7c([H])c([H])c(F)c([H])c7F)c([H])c6[H])c(C(=O)N([H])[H])c5N([H])[H])C4([H])[H])c([H])c(C([H])([H])C([H])([H])C([H])([H])C([H])([H])[H])c3Cl)c([H])c([H])c2C1([H])[H]

$$$$
17:0:0
     RDKit          3D

 92100  0  0  1  0  0  0  0  0999 V2000
  -29.1060  -20.6500   21.0010 C   0  0  0  0  0  3  0  0  0  0  0  0
  -30.4880  -20.7000   20.7210 C   0  0  0  0  0  3  0  0  0  0  0  0
  -30.0940  -22.2280   18.8840 C   0  0  0  0  0  0  0  0  0  0  0  0
  -30.8530  -21.9950   20.0560 C   0  0  0  0  0  3  0  0  0  0  0  0
  -28.7230  -21.8610   18.9060 C   0  0  0  0  0  0  0  0  0  0  0  0
  -28.2160  -21.1800   20.0400 C   0  0  0  0  0  0  0  0  0  0  0  0
  -30.6930  -22.9640   17.6950 C   0  0  0  0  0  1  0  0  0  0  0  0
  -27.7870  -22.2250   17.7600 C   0  0  0  0  0  1  0  0  0  0  0  0
  -26.8930  -20.9140   20.1470 F   0  0  0  0  0  0  0  0  0  0  0  0
  -30.9360  -19.1780   20.2490 C   0  0  0  0  0  2  0  0  0  0  0  0
  -30.9640  -17.7940   21.2230 C   0  0  0  0  0  2  0  0  0  0  0  0
  -31.2510  -15.1030   20.5970 C   0  0  0  0  0  0  0  0  0  0  0  0
  -31.0030  -12.8790   19.4070 C   0  0  0  0  0  2  0  0  0  0  0  0
  -30.1240  -13.0160   18.1420 C   0  0  0  0  0  2  0  0  0  0  0  0
  -28.6300  -12.8790   18.4960 C   0  0  0  0  0  2  0  0  0  0  0  0
  -28.2360  -13.7250   19.7360 C   0  0  0  0  0  3  0  0  0  0  0  0
  -29.2350  -13.5510   20.8970 C   0  0  0  0  0  2  0  0  0  0  0  0
  -30.5600  -13.9150   20.3790 N   0  0  0  0  0  0  0  0  0  0  0  0
  -32.4740  -15.0910   20.4280 O   0  0  0  0  0  0  0  0  0  0  0  0
  -30.5500  -16.3240   20.8000 N   0  0  0  0  0  0  0  0  0  0  0  0
  -29.5500  -16.1870   20.7820 H   0  0  0  0  0  0  0  0  0  0  0  0
  -25.8320  -14.4040   20.2960 C   0  0  0  0  0  0  0  0  0  0  0  0
  -24.7170  -13.6730   20.6070 C   0  0  0  0  0  0  0  0  0  0  0  0
  -25.1350  -12.3090   20.6420 C   0  0  0  0  0  0  0  0  0  0  0  0
  -26.8580  -13.4840   20.1510 N   0  0  0  0  0  0  0  0  0  0  0  0
  -26.4430  -12.2210   20.4260 N   0  0  0  0  0  0  0  0  0  0  0  0
  -24.3520  -11.0760   20.8070 C   0  0  0  0  0  0  0  0  0  0  0  0
  -24.7230  -10.0840   21.7420 C   0  0  0  0  0  3  0  0  0  0  0  0
  -23.9420   -8.9180   21.8960 C   0  0  0  0  0  3  0  0  0  0  0  0
  -22.7750   -8.7360   21.1150 C   0  0  0  0  0  0  0  0  0  0  0  0
  -22.4240   -9.7170   20.1700 C   0  0  0  0  0  3  0  0  0  0  0  0
  -23.2050  -10.8730   20.0140 C   0  0  0  0  0  3  0  0  0  0  0  0
  -21.9710   -7.6240   21.1790 O   0  0  0  0  0  0  0  0  0  0  0  0
  -21.8420   -6.8940   22.3340 C   0  0  0  0  0  0  0  0  0  0  0  0
  -21.4200   -7.4840   23.5440 C   0  0  0  0  0  3  0  0  0  0  0  0
  -21.2340   -6.6850   24.6900 C   0  0  0  0  0  3  0  0  0  0  0  0
  -21.4600   -5.2960   24.6250 C   0  0  0  0  0  0  0  0  0  0  0  0
  -21.8740   -4.7070   23.4170 C   0  0  0  0  0  3  0  0  0  0  0  0
  -22.0620   -5.5030   22.2740 C   0  0  0  0  0  0  0  0  0  0  0  0
  -22.4410   -4.9270   21.1080 F   0  0  0  0  0  0  0  0  0  0  0  0
  -21.2740   -4.5260   25.7220 F   0  0  0  0  0  0  0  0  0  0  0  0
  -23.3220  -14.2060   20.7610 C   0  0  0  0  0  0  0  0  0  0  0  0
  -22.5280  -13.5950   21.6340 N   0  0  0  0  0  0  0  0  0  0  0  0
  -22.9450  -15.1980   20.1400 O   0  0  0  0  0  0  0  0  0  0  0  0
  -22.8450  -12.7940   22.1590 H   0  0  0  0  0  0  0  0  0  0  0  0
  -21.5900  -13.9390   21.7830 H   0  0  0  0  0  0  0  0  0  0  0  0
  -26.0530  -15.7620   20.0960 N   0  0  0  0  0  0  0  0  0  0  0  0
  -25.2990  -16.4380   20.1400 H   0  0  0  0  0  0  0  0  0  0  0  0
  -26.9240  -16.1670   19.7840 H   0  0  0  0  0  0  0  0  0  0  0  0
  -31.3040  -23.4160   20.7840 C   0  0  0  0  0  3  0  0  0  0  0  0
  -30.6530  -24.9490   20.4580 C   0  0  0  0  0  3  0  0  0  0  0  0
  -30.7920  -26.3070   21.2100 O   0  0  0  0  0  0  0  0  0  0  0  0
  -26.6300  -31.2200   24.7960 C   0  0  0  0  0  0  0  0  0  0  0  0
  -29.7190  -27.2740   21.2130 C   0  0  0  0  0  0  0  0  0  0  0  0
  -25.6810  -30.1790   22.7750 C   0  0  0  0  0  3  0  0  0  0  0  0
  -27.3470  -28.9580   21.2480 C   0  0  0  0  0  0  0  0  0  0  0  0
  -28.2270  -30.5130   22.9780 C   0  0  0  0  0  2  0  0  0  0  0  0
  -28.4310  -29.2880   22.0710 C   0  0  0  0  0  0  0  0  0  0  0  0
  -29.6220  -28.4670   22.0360 C   0  0  0  0  0  3  0  0  0  0  0  0
  -28.6060  -27.0540   20.3680 C   0  0  0  0  0  3  0  0  0  0  0  0
  -27.4480  -27.8590   20.3860 C   0  0  0  0  0  3  0  0  0  0  0  0
  -26.0880  -29.8090   21.3250 C   0  0  0  0  0  2  0  0  0  0  0  0
  -26.8580  -30.6450   23.5760 N   0  0  0  0  0  0  0  0  0  0  0  0
  -25.4800  -31.3670   25.2360 O   0  0  0  0  0  0  0  0  0  0  0  0
  -24.9370  -28.9810   23.4190 C   0  0  0  0  0  0  0  0  0  0  0  0
  -23.7050  -28.7010   22.9570 N   0  0  0  0  0  0  0  0  0  0  0  0
  -25.4790  -28.3130   24.3030 O   0  0  0  0  0  0  0  0  0  0  0  0
  -23.3160  -29.3010   22.2430 H   0  0  0  0  0  0  0  0  0  0  0  0
  -20.5360  -27.0360   22.3980 C   0  0  0  0  0  0  0  0  0  0  0  0
  -22.8570  -27.5880   23.3960 C   0  0  0  0  0  3  0  0  0  0  0  0
  -23.3240  -26.2490   22.7790 C   0  0  0  0  0  2  0  0  0  0  0  0
  -22.6020  -25.9020   21.4730 C   0  0  0  0  0  2  0  0  0  0  0  0
  -21.0910  -25.8020   21.7050 C   0  0  0  0  0  2  0  0  0  0  0  0
  -21.3680  -27.8820   23.1780 C   0  0  0  0  0  0  0  0  0  0  0  0
  -20.8080  -29.0330   23.7740 C   0  0  0  0  0  3  0  0  0  0  0  0
  -19.4480  -29.3460   23.5980 C   0  0  0  0  0  3  0  0  0  0  0  0
  -18.6240  -28.4980   22.8370 C   0  0  0  0  0  3  0  0  0  0  0  0
  -19.1670  -27.3430   22.2450 C   0  0  0  0  0  3  0  0  0  0  0  0
  -27.8010  -31.7350   25.6850 C   0  0  0  0  0  3  0  0  0  0  0  0
  -27.8270  -31.0700   27.1170 C   0  0  1  0  0  0  0  0  0  0  0  0
  -26.4760  -31.1490   27.8650 C   0  0  0  0  0  1  0  0  0  0  0  0
  -28.2280  -29.5780   27.0290 C   0  0  0  0  0  1  0  0  0  0  0  0
  -28.8970  -31.7650   27.9900 C   0  0  0  0  0  1  0  0  0  0  0  0
  -27.6630  -33.1960   25.8010 N   0  0  0  0  0  0  0  0  0  0  0  0
  -28.3940  -34.0890   25.1200 C   0  0  0  0  0  0  0  0  0  0  0  0
  -29.3120  -33.7620   24.3630 O   0  0  0  0  0  0  0  0  0  0  0  0
  -26.8910  -33.5320   26.3580 H   0  0  0  0  0  0  0  0  0  0  0  0
  -27.2920  -36.1000   24.0790 C   0  0  0  0  0  1  0  0  0  0  0  0
  -28.0570  -35.5810   25.3080 C   0  0  0  0  0  3  0  0  0  0  0  0
  -29.8770  -36.1980   26.8380 C   0  0  0  0  0  1  0  0  0  0  0  0
  -29.2450  -36.4320   25.5430 N   0  0  0  0  0  0  0  0  0  0  0  0
  -29.0010  -37.4160   25.4790 H   0  0  0  0  0  0  0  0  0  0  0  0
  2 10  1  0
  2  1  1  0
  3  5  2  0
  3  4  1  0
  4  2  1  0
  4 50  1  0
  5  6  1  0
  6  9  1  0
  6  1  2  0
  7  3  1  0
  8  5  1  0
 10 11  1  0
 12 20  1  0
 13 18  1  0
 14 15  1  0
 14 13  1  0
 16 15  1  0
 16 25  1  0
 16 17  1  0
 18 12  1  0
 18 17  1  0
 19 12  2  0
 20 11  1  0
 21 20  1  0
 22 23  2  0
 23 24  1  0
 23 42  1  0
 24 27  1  0
 25 22  1  0
 25 26  1  0
 26 24  2  0
 27 28  1  0
 28 29  2  0
 30 33  1  0
 30 29  1  0
 31 30  2  0
 32 31  1  0
 32 27  2  0
 33 34  1  0
 34 35  1  0
 35 36  2  0
 37 36  1  0
 37 41  1  0
 38 37  2  0
 39 34  2  0
 39 38  1  0
 40 39  1  0
 42 43  1  0
 43 46  1  0
 43 45  1  0
 44 42  2  0
 47 48  1  0
 47 22  1  0
 49 47  1  0
 51 50  2  0
 51 52  1  0
 52 54  1  0
 53 64  2  0
 54 59  1  0
 55 65  1  0
 55 63  1  0
 56 62  1  0
 56 58  1  0
 57 63  1  0
 58 57  1  0
 59 58  2  0
 60 61  1  0
 60 54  2  0
 61 56  2  0
 62 55  1  0
 63 53  1  0
 65 67  2  0
 66 65  1  0
 68 66  1  0
 69 74  1  0
 70 66  1  0
 71 70  1  0
 72 73  1  0
 72 71  1  0
 73 69  1  0
 74 70  1  0
 74 75  2  0
 76 75  1  0
 77 76  2  0
 78 69  2  0
 78 77  1  0
 79 53  1  0
 79 84  1  0
 79 80  1  0
 80 81  1  1
 80 83  1  0
 82 80  1  0
 84 87  1  0
 85 89  1  0
 85 84  1  0
 86 85  2  0
 89 88  1  0
 89 91  1  0
 91 90  1  0
 92 91  1  0
M  ISO  4  12 100  20 100  51 101  52 101
M  END
>  <TORSDO>  (18) 
F 20

>  <SCORE>  (18) 
-10.833

>  <name>  (18) 
17

>  <ligand_id>  (18) 
17

>  <original_smiles>  (18) 
[H]c1c([H])c([H])c2c(c1[H])C([H])([H])C([H])([H])C([H])([H])C2([H])N([H])C(=O)C1([H])N(C(=O)C([H])(N([H])C(=O)C([H])(N([H])C([H])([H])[H])C([H])([H])[H])C(C([H])([H])[H])(C([H])([H])[H])C([H])([H])[H])C([H])([H])c2c([H])c(OC([H])([H])C([H])([H])c3c(C([H])([H])[H])c(C([H])([H])[H])c(F)c([H])c3C([H])([H])C([H])([H])N([H])C(=O)N3C([H])([H])C([H])([H])C([H])([H])C([H])(n4nc(-c5c([H])c([H])c(Oc6c([H])c([H])c(F)c([H])c6F)c([H])c5[H])c(C(=O)N([H])[H])c4N([H])[H])C3([H])[H])c([H])c([H])c2C1([H])[H]

>  <smiles>  (18) 
[H]c1c([H])c([H])c2c(c1[H])C([H])([H])C([H])([H])C([H])([H])C2([H])N([H])C(=O)C1([H])N(C(=O)C([H])(N([H])C(=O)C([H])(N([H])C([H])([H])[H])C([H])([H])[H])C(C([H])([H])[H])(C([H])([H])[H])C([H])([H])[H])C([H])([H])c2c([H])c(OC([H])([H])C([H])([H])c3c(C([H])([H])[H])c(C([H])([H])[H])c(F)c([H])c3C([H])([H])C([H])([H])N([H])C(=O)N3C([H])([H])C([H])([H])C([H])([H])C([H])(n4nc(-c5c([H])c([H])c(Oc6c([H])c([H])c(F)c([H])c6F)c([H])c5[H])c(C(=O)N([H])[H])c4N([H])[H])C3([H])[H])c([H])c([H])c2C1([H])[H]

$$$$
18:0:0
     RDKit          3D

 88 96  0  0  1  0  0  0  0  0999 V2000
  -29.3210  -22.6160   21.9380 C   0  0  0  0  0  3  0  0  0  0  0  0
  -28.8720  -22.1870   20.6630 C   0  0  0  0  0  0  0  0  0  0  0  0
  -29.9470  -21.6510   22.6390 C   0  0  0  0  0  0  0  0  0  0  0  0
  -29.3000  -20.6310   20.6370 C   0  0  0  0  0  0  0  0  0  0  0  0
  -30.5470  -21.7670   24.0110 C   0  0  0  0  0  1  0  0  0  0  0  0
  -30.6550  -19.2930   22.3500 C   0  0  0  0  0  1  0  0  0  0  0  0
  -29.9760  -20.5000   21.8750 N   0  0  0  0  0  0  0  0  0  0  0  0
  -28.0660  -23.7820   20.0010 C   0  0  0  0  0  2  0  0  0  0  0  0
  -28.1300  -25.5210   20.3800 O   0  0  0  0  0  0  0  0  0  0  0  0
  -24.6400  -31.8830   23.1950 C   0  0  0  0  0  0  0  0  0  0  0  0
  -27.1680  -26.7500   20.2600 C   0  0  0  0  0  0  0  0  0  0  0  0
  -23.4490  -30.4620   21.5810 C   0  0  0  0  0  3  0  0  0  0  0  0
  -24.8940  -28.7940   20.1810 C   0  0  0  0  0  0  0  0  0  0  0  0
  -26.0270  -30.5990   21.4500 C   0  0  0  0  0  2  0  0  0  0  0  0
  -26.0900  -29.1560   20.8110 C   0  0  0  0  0  0  0  0  0  0  0  0
  -27.2050  -28.1600   20.8220 C   0  0  0  0  0  3  0  0  0  0  0  0
  -25.9400  -26.6080   19.5610 C   0  0  0  0  0  3  0  0  0  0  0  0
  -24.8600  -27.5460   19.5300 C   0  0  0  0  0  3  0  0  0  0  0  0
  -23.6850  -29.7450   20.2180 C   0  0  0  0  0  2  0  0  0  0  0  0
  -24.7300  -31.0160   22.1270 N   0  0  0  0  0  0  0  0  0  0  0  0
  -23.5490  -32.1870   23.7060 O   0  0  0  0  0  0  0  0  0  0  0  0
  -22.7370  -29.4990   22.5700 C   0  0  0  0  0  0  0  0  0  0  0  0
  -21.4050  -29.3390   22.4510 N   0  0  0  0  0  0  0  0  0  0  0  0
  -23.3970  -28.8920   23.4180 O   0  0  0  0  0  0  0  0  0  0  0  0
  -20.9230  -29.8810   21.7460 H   0  0  0  0  0  0  0  0  0  0  0  0
  -18.0260  -28.1040   22.9760 C   0  0  0  0  0  0  0  0  0  0  0  0
  -20.5830  -28.4110   23.2390 C   0  0  0  0  0  3  0  0  0  0  0  0
  -20.7010  -26.9670   22.6980 C   0  0  0  0  0  2  0  0  0  0  0  0
  -19.6070  -26.6090   21.6860 C   0  0  0  0  0  2  0  0  0  0  0  0
  -18.2220  -26.7460   22.3240 C   0  0  0  0  0  2  0  0  0  0  0  0
  -19.1330  -28.8930   23.3910 C   0  0  0  0  0  0  0  0  0  0  0  0
  -18.8910  -30.1580   23.9670 C   0  0  0  0  0  3  0  0  0  0  0  0
  -17.5770  -30.6380   24.1300 C   0  0  0  0  0  3  0  0  0  0  0  0
  -16.4860  -29.8500   23.7270 C   0  0  0  0  0  3  0  0  0  0  0  0
  -16.7110  -28.5840   23.1570 C   0  0  0  0  0  3  0  0  0  0  0  0
  -25.9040  -32.5460   23.8230 C   0  0  0  0  0  3  0  0  0  0  0  0
  -25.5760  -33.9480   24.1490 N   0  0  0  0  0  0  0  0  0  0  0  0
  -25.9050  -35.0140   23.4050 C   0  0  0  0  0  0  0  0  0  0  0  0
  -26.5720  -34.9200   22.3720 O   0  0  0  0  0  0  0  0  0  0  0  0
  -24.9800  -34.0940   24.9500 H   0  0  0  0  0  0  0  0  0  0  0  0
  -24.1720  -36.8180   23.0810 C   0  0  0  0  0  1  0  0  0  0  0  0
  -25.4220  -36.4030   23.8760 C   0  0  0  0  0  3  0  0  0  0  0  0
  -27.5600  -37.2950   24.6950 C   0  0  0  0  0  1  0  0  0  0  0  0
  -26.4520  -37.4590   23.7590 N   0  0  0  0  0  0  0  0  0  0  0  0
  -26.0440  -38.3790   23.9060 H   0  0  0  0  0  0  0  0  0  0  0  0
  -26.4110  -31.8030   25.1210 C   0  0  1  0  0  0  0  0  0  0  0  0
  -25.3110  -31.5870   26.1890 C   0  0  0  0  0  1  0  0  0  0  0  0
  -26.9970  -30.4170   24.7750 C   0  0  0  0  0  1  0  0  0  0  0  0
  -27.5560  -32.6110   25.7750 C   0  0  0  0  0  1  0  0  0  0  0  0
  -29.5040  -18.9220   19.8480 C   0  0  0  0  0  2  0  0  0  0  0  0
  -30.3520  -15.7910   20.0850 C   0  0  0  0  0  0  0  0  0  0  0  0
  -30.4280  -13.2360   19.2600 C   0  0  0  0  0  2  0  0  0  0  0  0
  -29.5140  -12.8550   18.0590 C   0  0  0  0  0  2  0  0  0  0  0  0
  -28.1000  -12.4930   18.5340 C   0  0  0  0  0  2  0  0  0  0  0  0
  -27.6180  -13.4760   19.6260 C   0  0  0  0  0  3  0  0  0  0  0  0
  -28.6710  -13.7760   20.7240 C   0  0  0  0  0  2  0  0  0  0  0  0
  -29.8340  -14.4130   20.0560 N   0  0  0  0  0  0  0  0  0  0  0  0
  -31.5610  -15.7290   19.7880 O   0  0  0  0  0  0  0  0  0  0  0  0
  -29.6040  -17.1630   20.2650 N   0  0  0  0  0  0  0  0  0  0  0  0
  -28.6960  -16.9170   20.6330 H   0  0  0  0  0  0  0  0  0  0  0  0
  -25.2690  -13.9940   20.4300 C   0  0  0  0  0  0  0  0  0  0  0  0
  -24.2200  -13.2100   20.8180 C   0  0  0  0  0  0  0  0  0  0  0  0
  -24.6950  -11.8630   20.7760 C   0  0  0  0  0  0  0  0  0  0  0  0
  -26.3120  -13.1270   20.1660 N   0  0  0  0  0  0  0  0  0  0  0  0
  -25.9820  -11.8370   20.4400 N   0  0  0  0  0  0  0  0  0  0  0  0
  -23.9740  -10.5980   20.9780 C   0  0  0  0  0  0  0  0  0  0  0  0
  -24.4180   -9.6320   21.9070 C   0  0  0  0  0  3  0  0  0  0  0  0
  -23.6930   -8.4350   22.1010 C   0  0  0  0  0  3  0  0  0  0  0  0
  -22.5070   -8.1960   21.3660 C   0  0  0  0  0  0  0  0  0  0  0  0
  -22.0800   -9.1520   20.4260 C   0  0  0  0  0  3  0  0  0  0  0  0
  -22.8060  -10.3390   20.2320 C   0  0  0  0  0  3  0  0  0  0  0  0
  -21.7530   -7.0530   21.4680 O   0  0  0  0  0  0  0  0  0  0  0  0
  -21.7210   -6.3120   22.6220 C   0  0  0  0  0  0  0  0  0  0  0  0
  -21.3070   -6.8660   23.8530 C   0  0  0  0  0  3  0  0  0  0  0  0
  -21.2230   -6.0510   24.9990 C   0  0  0  0  0  3  0  0  0  0  0  0
  -21.5410   -4.6830   24.9170 C   0  0  0  0  0  0  0  0  0  0  0  0
  -21.9480   -4.1280   23.6910 C   0  0  0  0  0  3  0  0  0  0  0  0
  -22.0340   -4.9390   22.5460 C   0  0  0  0  0  0  0  0  0  0  0  0
  -22.4050   -4.3930   21.3630 F   0  0  0  0  0  0  0  0  0  0  0  0
  -21.4540   -3.8990   26.0170 F   0  0  0  0  0  0  0  0  0  0  0  0
  -22.8260  -13.6820   21.1050 C   0  0  0  0  0  0  0  0  0  0  0  0
  -22.1130  -12.9940   21.9890 N   0  0  0  0  0  0  0  0  0  0  0  0
  -22.3770  -14.7020   20.5840 O   0  0  0  0  0  0  0  0  0  0  0  0
  -22.4890  -12.1680   22.4320 H   0  0  0  0  0  0  0  0  0  0  0  0
  -21.1800  -13.2960   22.2250 H   0  0  0  0  0  0  0  0  0  0  0  0
  -25.4200  -15.3660   20.2480 N   0  0  0  0  0  0  0  0  0  0  0  0
  -24.6460  -16.0110   20.3630 H   0  0  0  0  0  0  0  0  0  0  0  0
  -26.2460  -15.8030   19.8620 H   0  0  0  0  0  0  0  0  0  0  0  0
  1  3  2  0
  2  1  1  0
  3  5  1  0
  4  2  2  0
  4  7  1  0
  7  6  1  0
  7  3  1  0
  8  9  1  0
  8  2  1  0
 10 21  2  0
 11  9  1  0
 11 16  1  0
 12 20  1  0
 12 22  1  0
 13 19  1  0
 13 15  1  0
 14 20  1  0
 15 16  2  0
 15 14  1  0
 17 11  2  0
 18 17  1  0
 18 13  2  0
 19 12  1  0
 20 10  1  0
 22 24  2  0
 23 22  1  0
 25 23  1  0
 26 35  2  0
 26 31  1  0
 27 23  1  0
 27 31  1  0
 28 27  1  0
 29 30  1  0
 29 28  1  0
 30 26  1  0
 31 32  2  0
 32 33  1  0
 34 33  2  0
 35 34  1  0
 36 10  1  0
 36 37  1  0
 36 46  1  0
 37 40  1  0
 38 42  1  0
 38 37  1  0
 39 38  2  0
 42 41  1  0
 44 42  1  0
 44 45  1  0
 44 43  1  0
 46 49  1  1
 46 47  1  0
 48 46  1  0
 50 59  1  0
 50  4  1  0
 51 59  1  0
 52 57  1  0
 53 54  1  0
 53 52  1  0
 55 54  1  0
 55 64  1  0
 55 56  1  0
 57 51  1  0
 57 56  1  0
 58 51  2  0
 59 60  1  0
 61 62  2  0
 62 81  1  0
 63 62  1  0
 63 66  1  0
 64 61  1  0
 64 65  1  0
 65 63  2  0
 66 67  1  0
 67 68  2  0
 69 72  1  0
 69 68  1  0
 70 69  2  0
 71 70  1  0
 71 66  2  0
 72 73  1  0
 73 74  1  0
 74 75  2  0
 76 75  1  0
 76 80  1  0
 77 76  2  0
 78 73  2  0
 78 77  1  0
 79 78  1  0
 81 82  1  0
 82 85  1  0
 82 84  1  0
 83 81  2  0
 86 87  1  0
 86 61  1  0
 88 86  1  0
M  ISO  4   8 101   9 101  51 100  59 100
M  END
>  <TORSDO>  (19) 
F 18

>  <SCORE>  (19) 
-16.745

>  <name>  (19) 
18

>  <ligand_id>  (19) 
18

>  <original_smiles>  (19) 
[H]c1c([H])c([H])c2c(c1[H])C([H])([H])C([H])([H])C([H])([H])C2([H])N([H])C(=O)C1([H])N(C(=O)C([H])(N([H])C(=O)C([H])(N([H])C([H])([H])[H])C([H])([H])[H])C(C([H])([H])[H])(C([H])([H])[H])C([H])([H])[H])C([H])([H])c2c([H])c(OC([H])([H])c3c([H])c(C([H])([H])[H])n(C([H])([H])[H])c3C([H])([H])N([H])C(=O)N3C([H])([H])C([H])([H])C([H])([H])C([H])(n4nc(-c5c([H])c([H])c(Oc6c([H])c([H])c(F)c([H])c6F)c([H])c5[H])c(C(=O)N([H])[H])c4N([H])[H])C3([H])[H])c([H])c([H])c2C1([H])[H]

>  <smiles>  (19) 
[H]c1c([H])c([H])c2c(c1[H])C([H])([H])C([H])([H])C([H])([H])C2([H])N([H])C(=O)C1([H])N(C(=O)C([H])(N([H])C(=O)C([H])(N([H])C([H])([H])[H])C([H])([H])[H])C(C([H])([H])[H])(C([H])([H])[H])C([H])([H])[H])C([H])([H])c2c([H])c(OC([H])([H])c3c([H])c(C([H])([H])[H])n(C([H])([H])[H])c3C([H])([H])N([H])C(=O)N3C([H])([H])C([H])([H])C([H])([H])C([H])(n4nc(-c5c([H])c([H])c(Oc6c([H])c([H])c(F)c([H])c6F)c([H])c5[H])c(C(=O)N([H])[H])c4N([H])[H])C3([H])[H])c([H])c([H])c2C1([H])[H]

$$$$
19:0:0
     RDKit          3D

 91 99  0  0  1  0  0  0  0  0999 V2000
  -29.8930  -20.7120   19.5170 C   0  0  0  0  0  0  0  0  0  0  0  0
  -28.9310  -21.8370   19.7260 C   0  0  0  0  0  0  0  0  0  0  0  0
  -29.5790  -19.2580   19.6790 C   0  0  0  0  0  0  0  0  0  0  0  0
  -27.6540  -21.3550   20.1190 C   0  0  0  0  0  0  0  0  0  0  0  0
  -28.2460  -19.0490   20.0950 C   0  0  0  0  0  0  0  0  0  0  0  0
  -31.3100  -21.1020   19.1310 C   0  0  0  0  0  1  0  0  0  0  0  0
  -26.4820  -22.2640   20.4330 C   0  0  0  0  0  1  0  0  0  0  0  0
  -27.7040  -17.6640   20.4030 C   0  0  0  0  0  1  0  0  0  0  0  0
  -27.3530  -20.0450   20.2890 N   0  0  0  0  0  0  0  0  0  0  0  0
  -29.2540  -23.4810   19.6020 C   0  0  0  0  0  3  0  0  0  0  0  0
  -28.2180  -24.8200   19.7840 C   0  0  0  0  0  3  0  0  0  0  0  0
  -28.5210  -26.3500   19.6240 O   0  0  0  0  0  0  0  0  0  0  0  0
  -24.9530  -31.7110   23.2730 C   0  0  0  0  0  0  0  0  0  0  0  0
  -27.4830  -27.3550   19.7050 C   0  0  0  0  0  0  0  0  0  0  0  0
  -23.7510  -30.5560   21.4580 C   0  0  0  0  0  3  0  0  0  0  0  0
  -25.1900  -29.1420   19.8670 C   0  0  0  0  0  0  0  0  0  0  0  0
  -26.3110  -30.7930   21.3540 C   0  0  0  0  0  2  0  0  0  0  0  0
  -26.3700  -29.4870   20.5380 C   0  0  0  0  0  0  0  0  0  0  0  0
  -27.5200  -28.6110   20.4420 C   0  0  0  0  0  3  0  0  0  0  0  0
  -26.2810  -27.1270   19.0020 C   0  0  0  0  0  3  0  0  0  0  0  0
  -25.1570  -27.9760   19.0900 C   0  0  0  0  0  3  0  0  0  0  0  0
  -23.9790  -30.0500   20.0100 C   0  0  0  0  0  2  0  0  0  0  0  0
  -25.0260  -31.0320   22.0860 N   0  0  0  0  0  0  0  0  0  0  0  0
  -23.8640  -31.9440   23.8200 O   0  0  0  0  0  0  0  0  0  0  0  0
  -23.0440  -29.4460   22.2760 C   0  0  0  0  0  0  0  0  0  0  0  0
  -21.7160  -29.3130   22.1090 N   0  0  0  0  0  0  0  0  0  0  0  0
  -23.6930  -28.7120   23.0250 O   0  0  0  0  0  0  0  0  0  0  0  0
  -21.2470  -29.9600   21.4900 H   0  0  0  0  0  0  0  0  0  0  0  0
  -18.3010  -28.1640   22.4830 C   0  0  0  0  0  0  0  0  0  0  0  0
  -20.8700  -28.2990   22.7460 C   0  0  0  0  0  3  0  0  0  0  0  0
  -20.9160  -26.9640   21.9670 C   0  0  0  0  0  2  0  0  0  0  0  0
  -19.7930  -26.8310   20.9320 C   0  0  0  0  0  2  0  0  0  0  0  0
  -18.4240  -26.9270   21.6100 C   0  0  0  0  0  2  0  0  0  0  0  0
  -19.4500  -28.8170   23.0040 C   0  0  0  0  0  0  0  0  0  0  0  0
  -19.2810  -29.9810   23.7820 C   0  0  0  0  0  3  0  0  0  0  0  0
  -17.9960  -30.4960   24.0400 C   0  0  0  0  0  3  0  0  0  0  0  0
  -16.8610  -29.8360   23.5390 C   0  0  0  0  0  3  0  0  0  0  0  0
  -17.0140  -28.6710   22.7670 C   0  0  0  0  0  3  0  0  0  0  0  0
  -26.2320  -32.2410   23.9880 C   0  0  0  0  0  3  0  0  0  0  0  0
  -26.6940  -31.3270   25.1890 C   0  0  1  0  0  0  0  0  0  0  0  0
  -25.5670  -31.0070   26.1990 C   0  0  0  0  0  1  0  0  0  0  0  0
  -27.2540  -29.9820   24.6720 C   0  0  0  0  0  1  0  0  0  0  0  0
  -27.8480  -32.0150   25.9580 C   0  0  0  0  0  1  0  0  0  0  0  0
  -25.9450  -33.6050   24.4660 N   0  0  0  0  0  0  0  0  0  0  0  0
  -26.2760  -34.7260   23.8130 C   0  0  0  0  0  0  0  0  0  0  0  0
  -26.9180  -34.7210   22.7600 O   0  0  0  0  0  0  0  0  0  0  0  0
  -25.3660  -33.6810   25.2890 H   0  0  0  0  0  0  0  0  0  0  0  0
  -24.5490  -36.5550   23.7130 C   0  0  0  0  0  1  0  0  0  0  0  0
  -25.8220  -36.0670   24.4230 C   0  0  0  0  0  3  0  0  0  0  0  0
  -27.9960  -36.8640   25.2440 C   0  0  0  0  0  1  0  0  0  0  0  0
  -26.8580  -37.1220   24.3640 N   0  0  0  0  0  0  0  0  0  0  0  0
  -26.4660  -38.0260   24.6120 H   0  0  0  0  0  0  0  0  0  0  0  0
  -30.6000  -17.9490   19.4970 C   0  0  0  0  0  2  0  0  0  0  0  0
  -31.1060  -15.2360   19.6820 C   0  0  0  0  0  0  0  0  0  0  0  0
  -30.9670  -12.8410   18.8710 C   0  0  0  0  0  2  0  0  0  0  0  0
  -29.9310  -12.6940   17.7330 C   0  0  0  0  0  2  0  0  0  0  0  0
  -28.5290  -12.4420   18.3150 C   0  0  0  0  0  2  0  0  0  0  0  0
  -28.1820  -13.4170   19.4690 C   0  0  0  0  0  3  0  0  0  0  0  0
  -29.3330  -13.5550   20.4910 C   0  0  0  0  0  2  0  0  0  0  0  0
  -30.5310  -13.9670   19.7440 N   0  0  0  0  0  0  0  0  0  0  0  0
  -32.2820  -15.3040   19.3130 O   0  0  0  0  0  0  0  0  0  0  0  0
  -30.3200  -16.4150   19.8050 N   0  0  0  0  0  0  0  0  0  0  0  0
  -29.3590  -16.2100   20.0180 H   0  0  0  0  0  0  0  0  0  0  0  0
  -25.9110  -13.9430   20.5260 C   0  0  0  0  0  0  0  0  0  0  0  0
  -24.8860  -13.1440   20.9540 C   0  0  0  0  0  0  0  0  0  0  0  0
  -25.3270  -11.7990   20.7620 C   0  0  0  0  0  0  0  0  0  0  0  0
  -26.9090  -13.0830   20.0990 N   0  0  0  0  0  0  0  0  0  0  0  0
  -26.5750  -11.7830   20.3060 N   0  0  0  0  0  0  0  0  0  0  0  0
  -24.6100  -10.5270   20.9300 C   0  0  0  0  0  0  0  0  0  0  0  0
  -25.0230   -9.5650   21.8760 C   0  0  0  0  0  3  0  0  0  0  0  0
  -24.3030   -8.3600   22.0330 C   0  0  0  0  0  3  0  0  0  0  0  0
  -23.1550   -8.1110   21.2430 C   0  0  0  0  0  0  0  0  0  0  0  0
  -22.7630   -9.0640   20.2860 C   0  0  0  0  0  3  0  0  0  0  0  0
  -23.4830  -10.2580   20.1260 C   0  0  0  0  0  3  0  0  0  0  0  0
  -22.4090   -6.9580   21.3090 O   0  0  0  0  0  0  0  0  0  0  0  0
  -22.1480   -6.3380   22.5040 C   0  0  0  0  0  0  0  0  0  0  0  0
  -21.4850   -7.0020   23.5600 C   0  0  0  0  0  3  0  0  0  0  0  0
  -21.1740   -6.3050   24.7450 C   0  0  0  0  0  3  0  0  0  0  0  0
  -21.5180   -4.9460   24.8740 C   0  0  0  0  0  0  0  0  0  0  0  0
  -22.1720   -4.2810   23.8210 C   0  0  0  0  0  3  0  0  0  0  0  0
  -22.4850   -4.9770   22.6400 C   0  0  0  0  0  0  0  0  0  0  0  0
  -23.0970   -4.3260   21.6210 F   0  0  0  0  0  0  0  0  0  0  0  0
  -21.2140   -4.2740   26.0100 F   0  0  0  0  0  0  0  0  0  0  0  0
  -23.5330  -13.6020   21.4160 C   0  0  0  0  0  0  0  0  0  0  0  0
  -22.9080  -12.8510   22.3160 N   0  0  0  0  0  0  0  0  0  0  0  0
  -23.0490  -14.6610   21.0190 O   0  0  0  0  0  0  0  0  0  0  0  0
  -23.3180  -11.9930   22.6520 H   0  0  0  0  0  0  0  0  0  0  0  0
  -22.0070  -13.1360   22.6680 H   0  0  0  0  0  0  0  0  0  0  0  0
  -26.0610  -15.3220   20.4300 N   0  0  0  0  0  0  0  0  0  0  0  0
  -25.2950  -15.9510   20.6540 H   0  0  0  0  0  0  0  0  0  0  0  0
  -26.8240  -15.7850   19.9550 H   0  0  0  0  0  0  0  0  0  0  0  0
  1  3  2  0
  1  2  1  0
  2  4  2  0
  3  5  1  0
  4  9  1  0
  4  7  1  0
  5  9  2  0
  5  8  1  0
  6  1  1  0
 10  2  1  0
 10 11  2  0
 12 14  1  0
 12 11  1  0
 13 24  2  0
 14 19  1  0
 15 23  1  0
 15 25  1  0
 16 22  1  0
 16 18  1  0
 17 23  1  0
 18 17  1  0
 19 18  2  0
 20 21  1  0
 20 14  2  0
 21 16  2  0
 22 15  1  0
 23 13  1  0
 25 27  2  0
 26 25  1  0
 28 26  1  0
 29 38  2  0
 29 34  1  0
 30 26  1  0
 30 34  1  0
 31 30  1  0
 32 33  1  0
 32 31  1  0
 33 29  1  0
 34 35  2  0
 35 36  1  0
 37 36  2  0
 38 37  1  0
 39 13  1  0
 39 44  1  0
 39 40  1  0
 40 43  1  1
 40 41  1  0
 42 40  1  0
 44 47  1  0
 45 49  1  0
 45 44  1  0
 46 45  2  0
 49 48  1  0
 51 49  1  0
 51 52  1  0
 51 50  1  0
 53  3  1  0
 53 62  1  0
 54 60  1  0
 54 62  1  0
 55 60  1  0
 56 57  1  0
 56 55  1  0
 58 57  1  0
 58 67  1  0
 58 59  1  0
 60 59  1  0
 61 54  2  0
 62 63  1  0
 64 65  2  0
 65 84  1  0
 66 69  1  0
 66 65  1  0
 67 68  1  0
 67 64  1  0
 68 66  2  0
 69 70  1  0
 70 71  2  0
 72 75  1  0
 72 71  1  0
 73 72  2  0
 74 73  1  0
 74 69  2  0
 75 76  1  0
 76 81  2  0
 76 77  1  0
 77 78  2  0
 78 79  1  0
 79 83  1  0
 80 79  2  0
 81 80  1  0
 82 81  1  0
 84 85  1  0
 85 87  1  0
 85 88  1  0
 86 84  2  0
 89 64  1  0
 89 90  1  0
 91 89  1  0
M  ISO  4  11 101  12 101  54 100  62 100
M  END
>  <TORSDO>  (20) 
F 19

>  <SCORE>  (20) 
-12.192

>  <name>  (20) 
19

>  <ligand_id>  (20) 
19

>  <original_smiles>  (20) 
[H]c1c([H])c([H])c2c(c1[H])C([H])([H])C([H])([H])C([H])([H])C2([H])N([H])C(=O)C1([H])N(C(=O)C([H])(N([H])C(=O)C([H])(N([H])C([H])([H])[H])C([H])([H])[H])C(C([H])([H])[H])(C([H])([H])[H])C([H])([H])[H])C([H])([H])c2c([H])c(OC([H])([H])C([H])([H])c3c(C([H])([H])[H])nc(C([H])([H])[H])c(C([H])([H])N([H])C(=O)N4C([H])([H])C([H])([H])C([H])([H])C([H])(n5nc(-c6c([H])c([H])c(Oc7c([H])c([H])c(F)c([H])c7F)c([H])c6[H])c(C(=O)N([H])[H])c5N([H])[H])C4([H])[H])c3C([H])([H])[H])c([H])c([H])c2C1([H])[H]

>  <smiles>  (20) 
[H]c1c([H])c([H])c2c(c1[H])C([H])([H])C([H])([H])C([H])([H])C2([H])N([H])C(=O)C1([H])N(C(=O)C([H])(N([H])C(=O)C([H])(N([H])C([H])([H])[H])C([H])([H])[H])C(C([H])([H])[H])(C([H])([H])[H])C([H])([H])[H])C([H])([H])c2c([H])c(OC([H])([H])C([H])([H])c3c(C([H])([H])[H])nc(C([H])([H])[H])c(C([H])([H])N([H])C(=O)N4C([H])([H])C([H])([H])C([H])([H])C([H])(n5nc(-c6c([H])c([H])c(Oc7c([H])c([H])c(F)c([H])c7F)c([H])c6[H])c(C(=O)N([H])[H])c5N([H])[H])C4([H])[H])c3C([H])([H])[H])c([H])c([H])c2C1([H])[H]

$$$$
20:0:0
     RDKit          3D

100109  0  0  1  0  0  0  0  0999 V2000
  -28.5990  -21.2860   20.0260 C   0  0  0  0  0  3  0  0  0  0  0  0
  -30.7540  -14.9710   19.6060 C   0  0  0  0  0  0  0  0  0  0  0  0
  -30.5410  -12.5880   18.7100 C   0  0  0  0  0  2  0  0  0  0  0  0
  -29.5250  -12.4720   17.5530 C   0  0  0  0  0  2  0  0  0  0  0  0
  -28.1120  -12.2360   18.1100 C   0  0  0  0  0  2  0  0  0  0  0  0
  -27.7770  -13.1810   19.2930 C   0  0  0  0  0  3  0  0  0  0  0  0
  -28.9190  -13.2800   20.3270 C   0  0  0  0  0  2  0  0  0  0  0  0
  -30.1090  -13.7230   19.5890 N   0  0  0  0  0  0  0  0  0  0  0  0
  -31.9390  -14.9270   19.2510 O   0  0  0  0  0  0  0  0  0  0  0  0
  -29.8970  -18.9310   18.7040 C   0  0  0  0  0  2  0  0  0  0  0  0
  -28.7060  -18.4270   20.6200 C   0  0  0  0  0  2  0  0  0  0  0  0
  -30.6560  -17.4710   18.8360 C   0  0  0  0  0  2  0  0  0  0  0  0
  -29.4300  -16.9670   20.7770 C   0  0  0  0  0  2  0  0  0  0  0  0
  -29.4390  -19.7350   20.0050 C   0  0  0  0  0  3  0  0  0  0  0  0
  -30.0910  -16.2730   19.6090 N   0  0  0  0  0  0  0  0  0  0  0  0
  -25.4580  -13.7240   20.2090 C   0  0  0  0  0  0  0  0  0  0  0  0
  -24.4370  -12.9370   20.6630 C   0  0  0  0  0  0  0  0  0  0  0  0
  -24.9210  -11.5930   20.6180 C   0  0  0  0  0  0  0  0  0  0  0  0
  -26.4940  -12.8600   19.9050 N   0  0  0  0  0  0  0  0  0  0  0  0
  -26.1880  -11.5740   20.2170 N   0  0  0  0  0  0  0  0  0  0  0  0
  -24.2290  -10.3230   20.8800 C   0  0  0  0  0  0  0  0  0  0  0  0
  -24.6430   -9.4520   21.9110 C   0  0  0  0  0  3  0  0  0  0  0  0
  -23.9470   -8.2480   22.1550 C   0  0  0  0  0  3  0  0  0  0  0  0
  -22.8230   -7.9050   21.3660 C   0  0  0  0  0  0  0  0  0  0  0  0
  -22.4280   -8.7640   20.3260 C   0  0  0  0  0  3  0  0  0  0  0  0
  -23.1240   -9.9590   20.0820 C   0  0  0  0  0  3  0  0  0  0  0  0
  -22.1030   -6.7430   21.5140 O   0  0  0  0  0  0  0  0  0  0  0  0
  -21.8990   -6.1740   22.7450 C   0  0  0  0  0  0  0  0  0  0  0  0
  -21.2640   -6.8740   23.7930 C   0  0  0  0  0  3  0  0  0  0  0  0
  -21.0110   -6.2280   25.0190 C   0  0  0  0  0  3  0  0  0  0  0  0
  -21.3850   -4.8830   25.1990 C   0  0  0  0  0  0  0  0  0  0  0  0
  -22.0140   -4.1820   24.1540 C   0  0  0  0  0  3  0  0  0  0  0  0
  -22.2670   -4.8250   22.9300 C   0  0  0  0  0  0  0  0  0  0  0  0
  -22.8550   -4.1400   21.9200 F   0  0  0  0  0  0  0  0  0  0  0  0
  -21.1370   -4.2600   26.3750 F   0  0  0  0  0  0  0  0  0  0  0  0
  -23.0570  -13.3980   21.0270 C   0  0  0  0  0  0  0  0  0  0  0  0
  -22.4190  -12.7290   21.9790 N   0  0  0  0  0  0  0  0  0  0  0  0
  -22.5550  -14.3890   20.4990 O   0  0  0  0  0  0  0  0  0  0  0  0
  -22.8400  -11.9250   22.4240 H   0  0  0  0  0  0  0  0  0  0  0  0
  -21.4990  -13.0250   22.2720 H   0  0  0  0  0  0  0  0  0  0  0  0
  -25.5890  -15.0940   20.0050 N   0  0  0  0  0  0  0  0  0  0  0  0
  -24.8280  -15.7430   20.1730 H   0  0  0  0  0  0  0  0  0  0  0  0
  -26.4200  -15.5430   19.6420 H   0  0  0  0  0  0  0  0  0  0  0  0
  -28.7870  -21.8480   21.4630 C   0  0  0  0  0  2  0  0  0  0  0  0
  -30.1480  -22.5550   21.6830 C   0  0  0  0  0  2  0  0  0  0  0  0
  -32.3070  -21.0810   24.5150 C   0  0  0  0  0  3  0  0  0  0  0  0
  -31.7220  -21.2330   23.2450 C   0  0  0  0  0  0  0  0  0  0  0  0
  -30.7920  -22.2920   23.0490 C   0  0  0  0  0  0  0  0  0  0  0  0
  -30.5100  -23.1330   24.1560 C   0  0  0  0  0  0  0  0  0  0  0  0
  -31.9510  -21.9640   25.5360 C   0  0  0  0  0  0  0  0  0  0  0  0
  -29.5520  -24.3080   24.0690 C   0  0  0  0  0  1  0  0  0  0  0  0
  -31.0780  -22.9650   25.3720 N   0  0  0  0  0  0  0  0  0  0  0  0
  -32.5060  -21.8470   26.7990 N   0  0  0  0  0  0  0  0  0  0  0  0
  -33.0980  -21.0600   27.0400 H   0  0  0  0  0  0  0  0  0  0  0  0
  -32.1740  -22.4080   27.5750 H   0  0  0  0  0  0  0  0  0  0  0  0
  -33.3840  -20.7300   21.3870 C   0  0  0  0  0  1  0  0  0  0  0  0
  -32.1390  -20.2620   22.1480 C   0  0  0  0  0  2  0  0  0  0  0  0
  -28.6920  -22.7240   19.0490 C   0  0  0  0  0  2  0  0  0  0  0  0
  -27.7770  -24.1940   19.2330 C   0  0  0  0  0  2  0  0  0  0  0  0
  -28.0970  -25.7360   18.9670 O   0  0  0  0  0  0  0  0  0  0  0  0
  -24.9450  -31.3270   22.7660 C   0  0  0  0  0  0  0  0  0  0  0  0
  -27.1050  -26.8010   19.0980 C   0  0  0  0  0  0  0  0  0  0  0  0
  -23.5900  -30.1530   21.0790 C   0  0  0  0  0  3  0  0  0  0  0  0
  -24.8710  -28.6800   19.4030 C   0  0  0  0  0  0  0  0  0  0  0  0
  -26.1380  -30.3210   20.7750 C   0  0  0  0  0  2  0  0  0  0  0  0
  -26.1100  -28.9970   19.9750 C   0  0  0  0  0  0  0  0  0  0  0  0
  -27.2260  -28.0810   19.8050 C   0  0  0  0  0  3  0  0  0  0  0  0
  -25.8380  -26.6110   18.5000 C   0  0  0  0  0  3  0  0  0  0  0  0
  -24.7500  -27.5030   18.6500 C   0  0  0  0  0  3  0  0  0  0  0  0
  -23.6970  -29.6230   19.6250 C   0  0  0  0  0  2  0  0  0  0  0  0
  -24.9160  -30.6160   21.5960 N   0  0  0  0  0  0  0  0  0  0  0  0
  -23.9060  -31.5950   23.3900 O   0  0  0  0  0  0  0  0  0  0  0  0
  -22.9250  -29.0770   21.9770 C   0  0  0  0  0  0  0  0  0  0  0  0
  -21.5850  -28.9730   21.9270 N   0  0  0  0  0  0  0  0  0  0  0  0
  -23.6160  -28.3410   22.6850 O   0  0  0  0  0  0  0  0  0  0  0  0
  -21.0810  -29.6220   21.3370 H   0  0  0  0  0  0  0  0  0  0  0  0
  -18.1960  -27.8220   22.5100 C   0  0  0  0  0  0  0  0  0  0  0  0
  -20.7730  -27.9880   22.6480 C   0  0  0  0  0  3  0  0  0  0  0  0
  -20.7940  -26.6150   21.9360 C   0  0  0  0  0  2  0  0  0  0  0  0
  -19.6290  -26.4240   20.9610 C   0  0  0  0  0  2  0  0  0  0  0  0
  -18.2900  -26.5400   21.6960 C   0  0  0  0  0  2  0  0  0  0  0  0
  -19.3620  -28.5090   22.9430 C   0  0  0  0  0  0  0  0  0  0  0  0
  -19.2190  -29.7080   23.6690 C   0  0  0  0  0  3  0  0  0  0  0  0
  -17.9440  -30.2260   23.9630 C   0  0  0  0  0  3  0  0  0  0  0  0
  -16.7930  -29.5360   23.5440 C   0  0  0  0  0  3  0  0  0  0  0  0
  -16.9200  -28.3340   22.8250 C   0  0  0  0  0  3  0  0  0  0  0  0
  -26.2840  -31.8510   23.3700 C   0  0  0  0  0  3  0  0  0  0  0  0
  -26.0250  -33.1790   23.9510 N   0  0  0  0  0  0  0  0  0  0  0  0
  -26.3320  -34.3450   23.3660 C   0  0  0  0  0  0  0  0  0  0  0  0
  -26.9330  -34.4120   22.2900 O   0  0  0  0  0  0  0  0  0  0  0  0
  -25.4860  -33.2000   24.8030 H   0  0  0  0  0  0  0  0  0  0  0  0
  -24.6320  -36.2000   23.4490 C   0  0  0  0  0  1  0  0  0  0  0  0
  -25.9140  -35.6420   24.0880 C   0  0  0  0  0  3  0  0  0  0  0  0
  -28.1200  -36.3460   24.9050 C   0  0  0  0  0  1  0  0  0  0  0  0
  -26.9630  -36.6860   24.0820 N   0  0  0  0  0  0  0  0  0  0  0  0
  -26.5910  -37.5720   24.4110 H   0  0  0  0  0  0  0  0  0  0  0  0
  -26.8890  -30.8860   24.4650 C   0  0  1  0  0  0  0  0  0  0  0  0
  -25.8900  -30.5000   25.5800 C   0  0  0  0  0  1  0  0  0  0  0  0
  -27.4000  -29.5760   23.8220 C   0  0  0  0  0  1  0  0  0  0  0  0
  -28.1100  -31.5580   25.1330 C   0  0  0  0  0  1  0  0  0  0  0  0
  1 58  1  0
  1 44  1  0
  2 15  1  0
  3  8  1  0
  4  5  1  0
  4  3  1  0
  6  5  1  0
  6 19  1  0
  6  7  1  0
  8  2  1  0
  8  7  1  0
  9  2  2  0
 10 12  1  0
 10 14  1  0
 11 13  1  0
 12 15  1  0
 14  1  1  0
 14 11  1  0
 15 13  1  0
 16 17  2  0
 17 36  1  0
 18 17  1  0
 18 21  1  0
 19 16  1  0
 19 20  1  0
 20 18  2  0
 21 22  1  0
 22 23  2  0
 24 27  1  0
 24 23  1  0
 25 24  2  0
 26 25  1  0
 26 21  2  0
 27 28  1  0
 28 33  2  0
 28 29  1  0
 29 30  2  0
 30 31  1  0
 31 35  1  0
 32 31  2  0
 33 32  1  0
 34 33  1  0
 36 37  1  0
 37 40  1  0
 37 39  1  0
 38 36  2  0
 41 42  1  0
 41 16  1  0
 43 41  1  0
 44 45  1  0
 45 48  1  0
 46 50  1  0
 47 46  2  0
 48 47  1  0
 48 49  2  0
 49 52  1  0
 50 53  1  0
 51 49  1  0
 52 50  2  0
 53 54  1  0
 53 55  1  0
 56 57  1  0
 57 47  1  0
 58 59  1  0
 60 62  1  0
 60 59  1  0
 61 72  2  0
 62 67  1  0
 63 71  1  0
 63 73  1  0
 64 70  1  0
 64 66  1  0
 65 71  1  0
 66 65  1  0
 67 66  2  0
 68 69  1  0
 68 62  2  0
 69 64  2  0
 70 63  1  0
 71 61  1  0
 73 75  2  0
 74 73  1  0
 76 74  1  0
 77 86  2  0
 77 82  1  0
 78 74  1  0
 78 82  1  0
 79 78  1  0
 80 81  1  0
 80 79  1  0
 81 77  1  0
 82 83  2  0
 83 84  1  0
 85 84  2  0
 86 85  1  0
 87 61  1  0
 87 88  1  0
 87 97  1  0
 88 91  1  0
 89 88  1  0
 89 93  1  0
 90 89  2  0
 93 92  1  0
 95 93  1  0
 95 96  1  0
 95 94  1  0
 97100  1  1
 97 98  1  0
 99 97  1  0
M  ISO  4   2 100  15 100  59 101  60 101
M  END
>  <TORSDO>  (21) 
F 22

>  <SCORE>  (21) 
-6.982

>  <name>  (21) 
20

>  <ligand_id>  (21) 
20

>  <original_smiles>  (21) 
[H]c1c([H])c([H])c2c(c1[H])C([H])([H])C([H])([H])C([H])([H])C2([H])N([H])C(=O)C1([H])N(C(=O)C([H])(N([H])C(=O)C([H])(N([H])C([H])([H])[H])C([H])([H])[H])C(C([H])([H])[H])(C([H])([H])[H])C([H])([H])[H])C([H])([H])c2c([H])c(OC([H])([H])C([H])([H])C([H])(C([H])([H])C([H])([H])c3c(C([H])([H])[H])nc(N([H])[H])c([H])c3C([H])([H])C([H])([H])[H])C3([H])C([H])([H])C([H])([H])N(C(=O)N4C([H])([H])C([H])([H])C([H])([H])C([H])(n5nc(-c6c([H])c([H])c(Oc7c([H])c([H])c(F)c([H])c7F)c([H])c6[H])c(C(=O)N([H])[H])c5N([H])[H])C4([H])[H])C([H])([H])C3([H])[H])c([H])c([H])c2C1([H])[H]

>  <smiles>  (21) 
[H]c1c([H])c([H])c2c(c1[H])C([H])([H])C([H])([H])C([H])([H])C2([H])N([H])C(=O)C1([H])N(C(=O)C([H])(N([H])C(=O)C([H])(N([H])C([H])([H])[H])C([H])([H])[H])C(C([H])([H])[H])(C([H])([H])[H])C([H])([H])[H])C([H])([H])c2c([H])c(OC([H])([H])C([H])([H])C([H])(C([H])([H])C([H])([H])c3c(C([H])([H])[H])nc(N([H])[H])c([H])c3C([H])([H])C([H])([H])[H])C3([H])C([H])([H])C([H])([H])N(C(=O)N4C([H])([H])C([H])([H])C([H])([H])C([H])(n5nc(-c6c([H])c([H])c(Oc7c([H])c([H])c(F)c([H])c7F)c([H])c6[H])c(C(=O)N([H])[H])c5N([H])[H])C4([H])[H])C([H])([H])C3([H])[H])c([H])c([H])c2C1([H])[H]

$$$$
21:0:0
     RDKit          3D

 98107  0  0  1  0  0  0  0  0999 V2000
  -30.2860  -20.2500   23.9300 C   0  0  0  0  0  3  0  0  0  0  0  0
  -30.3750  -20.8370   22.6600 C   0  0  0  0  0  0  0  0  0  0  0  0
  -30.8300  -18.6090   21.6520 C   0  0  0  0  0  0  0  0  0  0  0  0
  -30.8370  -18.0730   22.9880 C   0  0  0  0  0  0  0  0  0  0  0  0
  -30.5700  -20.0420   21.5020 C   0  0  0  0  0  0  0  0  0  0  0  0
  -30.5120  -18.8850   24.0920 C   0  0  0  0  0  0  0  0  0  0  0  0
  -30.3390  -22.3570   22.5980 C   0  0  0  0  0  2  0  0  0  0  0  0
  -29.0540  -22.9120   21.9830 C   0  0  0  0  0  2  0  0  0  0  0  0
  -29.4200  -21.4120   19.8470 C   0  0  0  0  0  3  0  0  0  0  0  0
  -31.2440  -16.6430   23.3300 C   0  0  0  0  0  1  0  0  0  0  0  0
  -29.0940  -22.9320   20.5040 N   0  0  2  0  0  4  0  0  0  0  0  0
  -30.6170  -20.7570   20.3050 O   0  0  0  0  0  0  0  0  0  0  0  0
  -30.4630  -18.3670   25.3430 F   0  0  0  0  0  0  0  0  0  0  0  0
  -28.1120  -23.0500   20.3000 H   0  0  0  0  0  0  0  0  0  0  0  0
  -29.5250  -20.3660   17.5450 C   0  0  0  0  0  1  0  0  0  0  0  0
  -29.5460  -21.6870   18.3330 C   0  0  0  0  0  2  0  0  0  0  0  0
  -31.1810  -17.6680   20.4420 C   0  0  0  0  0  2  0  0  0  0  0  0
  -31.5440  -15.1130   20.1480 C   0  0  0  0  0  0  0  0  0  0  0  0
  -31.2840  -12.8550   19.1440 C   0  0  0  0  0  2  0  0  0  0  0  0
  -30.3340  -12.9500   17.9300 C   0  0  0  0  0  2  0  0  0  0  0  0
  -28.8650  -12.8140   18.3740 C   0  0  0  0  0  2  0  0  0  0  0  0
  -28.5200  -13.7220   19.5840 C   0  0  0  0  0  3  0  0  0  0  0  0
  -29.5830  -13.6030   20.6980 C   0  0  0  0  0  2  0  0  0  0  0  0
  -30.8920  -13.9090   20.0990 N   0  0  0  0  0  0  0  0  0  0  0  0
  -32.7010  -15.2310   19.7400 O   0  0  0  0  0  0  0  0  0  0  0  0
  -30.8010  -16.2080   20.4860 N   0  0  0  0  0  0  0  0  0  0  0  0
  -29.8490  -16.0170   20.7530 H   0  0  0  0  0  0  0  0  0  0  0  0
  -26.1500  -14.3620   20.3450 C   0  0  0  0  0  0  0  0  0  0  0  0
  -25.0720  -13.6070   20.7190 C   0  0  0  0  0  0  0  0  0  0  0  0
  -25.5040  -12.2460   20.6620 C   0  0  0  0  0  0  0  0  0  0  0  0
  -27.1720  -13.4620   20.0850 N   0  0  0  0  0  0  0  0  0  0  0  0
  -26.7890  -12.1850   20.3360 N   0  0  0  0  0  0  0  0  0  0  0  0
  -24.7510  -10.9980   20.8430 C   0  0  0  0  0  0  0  0  0  0  0  0
  -25.1290  -10.0430   21.8140 C   0  0  0  0  0  3  0  0  0  0  0  0
  -24.3800   -8.8580   21.9820 C   0  0  0  0  0  3  0  0  0  0  0  0
  -23.2390   -8.6200   21.1790 C   0  0  0  0  0  0  0  0  0  0  0  0
  -22.8810   -9.5630   20.1990 C   0  0  0  0  0  3  0  0  0  0  0  0
  -23.6310  -10.7390   20.0290 C   0  0  0  0  0  3  0  0  0  0  0  0
  -22.4660   -7.4870   21.2550 O   0  0  0  0  0  0  0  0  0  0  0  0
  -22.1730   -6.8940   22.4580 C   0  0  0  0  0  0  0  0  0  0  0  0
  -21.5220   -7.5950   23.4950 C   0  0  0  0  0  3  0  0  0  0  0  0
  -21.1790   -6.9280   24.6880 C   0  0  0  0  0  3  0  0  0  0  0  0
  -21.4770   -5.5600   24.8420 C   0  0  0  0  0  0  0  0  0  0  0  0
  -22.1210   -4.8600   23.8070 C   0  0  0  0  0  3  0  0  0  0  0  0
  -22.4650   -5.5240   22.6170 C   0  0  0  0  0  0  0  0  0  0  0  0
  -23.0670   -4.8390   21.6150 F   0  0  0  0  0  0  0  0  0  0  0  0
  -21.1410   -4.9180   25.9840 F   0  0  0  0  0  0  0  0  0  0  0  0
  -23.6890  -14.1110   21.0170 C   0  0  0  0  0  0  0  0  0  0  0  0
  -22.9820  -13.4550   21.9320 N   0  0  0  0  0  0  0  0  0  0  0  0
  -23.2440  -15.1210   20.4730 O   0  0  0  0  0  0  0  0  0  0  0  0
  -23.3540  -12.6380   22.3920 H   0  0  0  0  0  0  0  0  0  0  0  0
  -22.0560  -13.7740   22.1750 H   0  0  0  0  0  0  0  0  0  0  0  0
  -26.3420  -15.7310   20.1820 N   0  0  0  0  0  0  0  0  0  0  0  0
  -25.5870  -16.3980   20.3050 H   0  0  0  0  0  0  0  0  0  0  0  0
  -27.1860  -16.1540   19.8200 H   0  0  0  0  0  0  0  0  0  0  0  0
  -29.6020  -24.2680   19.9510 C   0  0  0  0  0  2  0  0  0  0  0  0
  -28.4700  -25.3900   19.8980 C   0  0  0  0  0  2  0  0  0  0  0  0
  -28.7470  -26.8460   20.0100 O   0  0  0  0  0  0  0  0  0  0  0  0
  -24.9000  -31.8690   23.4990 C   0  0  0  0  0  0  0  0  0  0  0  0
  -27.6250  -27.6980   20.0200 C   0  0  0  0  0  0  0  0  0  0  0  0
  -23.7450  -30.6440   21.6940 C   0  0  0  0  0  3  0  0  0  0  0  0
  -25.2410  -29.2800   20.1400 C   0  0  0  0  0  0  0  0  0  0  0  0
  -26.2850  -31.0070   21.6000 C   0  0  0  0  0  2  0  0  0  0  0  0
  -26.3940  -29.7100   20.8090 C   0  0  0  0  0  0  0  0  0  0  0  0
  -27.5900  -28.9320   20.7410 C   0  0  0  0  0  3  0  0  0  0  0  0
  -26.4450  -27.3310   19.3280 C   0  0  0  0  0  3  0  0  0  0  0  0
  -25.2700  -28.0970   19.3920 C   0  0  0  0  0  3  0  0  0  0  0  0
  -23.9930  -30.1280   20.2550 C   0  0  0  0  0  2  0  0  0  0  0  0
  -24.9950  -31.1830   22.3230 N   0  0  0  0  0  0  0  0  0  0  0  0
  -23.8040  -32.0760   24.0380 O   0  0  0  0  0  0  0  0  0  0  0  0
  -23.0780  -29.5210   22.5250 C   0  0  0  0  0  0  0  0  0  0  0  0
  -21.7600  -29.3320   22.3380 N   0  0  0  0  0  0  0  0  0  0  0  0
  -23.7460  -28.8260   23.2950 O   0  0  0  0  0  0  0  0  0  0  0  0
  -21.2810  -29.9460   21.6950 H   0  0  0  0  0  0  0  0  0  0  0  0
  -18.4050  -27.9980   22.5660 C   0  0  0  0  0  0  0  0  0  0  0  0
  -20.9380  -28.3070   22.9850 C   0  0  0  0  0  3  0  0  0  0  0  0
  -21.1150  -26.9340   22.2960 C   0  0  0  0  0  2  0  0  0  0  0  0
  -20.0720  -26.6680   21.2050 C   0  0  0  0  0  2  0  0  0  0  0  0
  -18.6580  -26.7180   21.7890 C   0  0  0  0  0  2  0  0  0  0  0  0
  -19.4760  -28.7520   23.1150 C   0  0  0  0  0  0  0  0  0  0  0  0
  -19.1880  -29.9530   23.7990 C   0  0  0  0  0  3  0  0  0  0  0  0
  -17.8610  -30.3990   23.9430 C   0  0  0  0  0  3  0  0  0  0  0  0
  -16.8030  -29.6400   23.4120 C   0  0  0  0  0  3  0  0  0  0  0  0
  -17.0750  -28.4420   22.7300 C   0  0  0  0  0  3  0  0  0  0  0  0
  -26.1630  -32.4440   24.2110 C   0  0  0  0  0  3  0  0  0  0  0  0
  -26.6400  -31.5670   25.4330 C   0  0  1  0  0  0  0  0  0  0  0  0
  -25.5150  -31.2490   26.4470 C   0  0  0  0  0  1  0  0  0  0  0  0
  -27.2270  -30.2210   24.9470 C   0  0  0  0  0  1  0  0  0  0  0  0
  -27.7770  -32.2950   26.1870 C   0  0  0  0  0  1  0  0  0  0  0  0
  -25.8420  -33.8100   24.6480 N   0  0  0  0  0  0  0  0  0  0  0  0
  -26.2330  -34.9230   24.0150 C   0  0  0  0  0  0  0  0  0  0  0  0
  -26.9710  -34.9060   23.0250 O   0  0  0  0  0  0  0  0  0  0  0  0
  -25.1970  -33.8970   25.4190 H   0  0  0  0  0  0  0  0  0  0  0  0
  -24.5580  -36.7740   23.7040 C   0  0  0  0  0  1  0  0  0  0  0  0
  -25.7270  -36.2690   24.5660 C   0  0  0  0  0  3  0  0  0  0  0  0
  -27.7960  -37.0340   25.6450 C   0  0  0  0  0  1  0  0  0  0  0  0
  -26.7760  -37.3100   24.6370 N   0  0  0  0  0  0  0  0  0  0  0  0
  -26.3690  -38.2190   24.8390 H   0  0  0  0  0  0  0  0  0  0  0  0
  1  6  1  0
  2  1  2  0
  3  4  1  0
  4 10  1  0
  4  6  2  0
  5  3  2  0
  5  2  1  0
  6 13  1  0
  7  2  1  0
  8  7  1  0
  9 16  1  0
  9 12  1  0
  9 11  1  0
 11  8  1  0
 12  5  1  0
 11 14  1  6
 15 16  1  0
 17 26  1  0
 17  3  1  0
 18 26  1  0
 19 24  1  0
 20 21  1  0
 20 19  1  0
 22 21  1  0
 22 31  1  0
 22 23  1  0
 24 18  1  0
 24 23  1  0
 25 18  2  0
 26 27  1  0
 28 29  2  0
 29 48  1  0
 30 29  1  0
 30 33  1  0
 31 32  1  0
 31 28  1  0
 32 30  2  0
 33 34  1  0
 34 35  2  0
 36 39  1  0
 36 35  1  0
 37 36  2  0
 38 37  1  0
 38 33  2  0
 39 40  1  0
 40 45  2  0
 40 41  1  0
 41 42  2  0
 42 43  1  0
 43 47  1  0
 44 43  2  0
 45 44  1  0
 46 45  1  0
 48 49  1  0
 49 52  1  0
 49 51  1  0
 50 48  2  0
 53 54  1  0
 53 28  1  0
 55 53  1  0
 56 11  1  0
 57 56  1  0
 57 58  1  0
 58 60  1  0
 59 70  2  0
 60 65  1  0
 61 69  1  0
 61 71  1  0
 62 68  1  0
 62 64  1  0
 63 69  1  0
 64 63  1  0
 65 64  2  0
 66 67  1  0
 66 60  2  0
 67 62  2  0
 68 61  1  0
 69 59  1  0
 71 73  2  0
 72 71  1  0
 74 72  1  0
 75 84  2  0
 75 80  1  0
 76 72  1  0
 76 80  1  0
 77 76  1  0
 78 79  1  0
 78 77  1  0
 79 75  1  0
 80 81  2  0
 81 82  1  0
 83 82  2  0
 84 83  1  0
 85 59  1  0
 85 90  1  0
 85 86  1  0
 86 89  1  1
 86 87  1  0
 88 86  1  0
 90 93  1  0
 91 95  1  0
 91 90  1  0
 92 91  2  0
 95 94  1  0
 95 97  1  0
 97 98  1  0
 97 96  1  0
M  ISO  4  18 100  26 100  57 101  58 101
M  END
>  <TORSDO>  (22) 
F 20

>  <SCORE>  (22) 
-9.387

>  <name>  (22) 
21

>  <ligand_id>  (22) 
21

>  <original_smiles>  (22) 
[H]c1c([H])c([H])c2c(c1[H])C([H])([H])C([H])([H])C([H])([H])C2([H])N([H])C(=O)C1([H])N(C(=O)C([H])(N([H])C(=O)C([H])(N([H])C([H])([H])[H])C([H])([H])[H])C(C([H])([H])[H])(C([H])([H])[H])C([H])([H])[H])C([H])([H])c2c([H])c(OC([H])([H])C([H])([H])[N+]3([H])C([H])([H])C([H])([H])c4c([H])c(F)c(C([H])([H])[H])c(C([H])([H])N([H])C(=O)N5C([H])([H])C([H])([H])C([H])([H])C([H])(n6nc(-c7c([H])c([H])c(Oc8c([H])c([H])c(F)c([H])c8F)c([H])c7[H])c(C(=O)N([H])[H])c6N([H])[H])C5([H])[H])c4OC3([H])C([H])([H])C([H])([H])[H])c([H])c([H])c2C1([H])[H]

>  <smiles>  (22) 
[H]c1c([H])c([H])c2c(c1[H])C([H])([H])C([H])([H])C([H])([H])C2([H])N([H])C(=O)C1([H])N(C(=O)C([H])(N([H])C(=O)C([H])(N([H])C([H])([H])[H])C([H])([H])[H])C(C([H])([H])[H])(C([H])([H])[H])C([H])([H])[H])C([H])([H])c2c([H])c(OC([H])([H])C([H])([H])[N+]3([H])C([H])([H])C([H])([H])c4c([H])c(F)c(C([H])([H])[H])c(C([H])([H])N([H])C(=O)N5C([H])([H])C([H])([H])C([H])([H])C([H])(n6nc(-c7c([H])c([H])c(Oc8c([H])c([H])c(F)c([H])c8F)c([H])c7[H])c(C(=O)N([H])[H])c6N([H])[H])C5([H])[H])c4OC3([H])C([H])([H])C([H])([H])[H])c([H])c([H])c2C1([H])[H]

$$$$
22:0:0
     RDKit          3D

 90 98  0  0  1  0  0  0  0  0999 V2000
  -28.6900  -20.3850   19.2500 C   0  0  0  0  0  3  0  0  0  0  0  0
  -28.8840  -18.9110   19.2250 C   0  0  0  0  0  0  0  0  0  0  0  0
  -29.2070  -21.3380   20.2190 C   0  0  0  0  0  0  0  0  0  0  0  0
  -29.6770  -18.1110   20.1550 C   0  0  0  0  0  0  0  0  0  0  0  0
  -29.9800  -20.5280   21.1650 C   0  0  0  0  0  0  0  0  0  0  0  0
  -30.1900  -19.0500   21.1420 C   0  0  0  0  0  0  0  0  0  0  0  0
  -28.1850  -18.1480   18.1150 C   0  0  0  0  0  1  0  0  0  0  0  0
  -30.7480  -21.4030   22.4480 Cl  0  0  0  0  0  0  0  0  0  0  0  0
  -31.1070  -18.3390   22.4280 Cl  0  0  0  0  0  0  0  0  0  0  0  0
  -30.5560  -15.3310   20.0960 C   0  0  0  0  0  0  0  0  0  0  0  0
  -30.5480  -12.9060   19.2020 C   0  0  0  0  0  2  0  0  0  0  0  0
  -29.5780  -12.7280   18.0080 C   0  0  0  0  0  2  0  0  0  0  0  0
  -28.1450  -12.4500   18.4970 C   0  0  0  0  0  2  0  0  0  0  0  0
  -27.7320  -13.3940   19.6560 C   0  0  0  0  0  3  0  0  0  0  0  0
  -28.8230  -13.5100   20.7410 C   0  0  0  0  0  2  0  0  0  0  0  0
  -30.0320  -14.0160   20.0730 N   0  0  0  0  0  0  0  0  0  0  0  0
  -31.7610  -15.4010   19.8190 O   0  0  0  0  0  0  0  0  0  0  0  0
  -29.6890  -16.5070   20.2160 N   0  0  0  0  0  0  0  0  0  0  0  0
  -28.7480  -16.1650   20.3260 H   0  0  0  0  0  0  0  0  0  0  0  0
  -25.3920  -13.9260   20.5260 C   0  0  0  0  0  0  0  0  0  0  0  0
  -24.3490  -13.1330   20.9160 C   0  0  0  0  0  0  0  0  0  0  0  0
  -24.8160  -11.7870   20.8200 C   0  0  0  0  0  0  0  0  0  0  0  0
  -26.4260  -13.0620   20.2090 N   0  0  0  0  0  0  0  0  0  0  0  0
  -26.0940  -11.7670   20.4540 N   0  0  0  0  0  0  0  0  0  0  0  0
  -24.1010  -10.5160   20.9980 C   0  0  0  0  0  0  0  0  0  0  0  0
  -24.5250   -9.5520   21.9390 C   0  0  0  0  0  3  0  0  0  0  0  0
  -23.8070   -8.3490   22.1060 C   0  0  0  0  0  3  0  0  0  0  0  0
  -22.6490   -8.1000   21.3310 C   0  0  0  0  0  0  0  0  0  0  0  0
  -22.2430   -9.0530   20.3800 C   0  0  0  0  0  3  0  0  0  0  0  0
  -22.9620  -10.2470   20.2110 C   0  0  0  0  0  3  0  0  0  0  0  0
  -21.9030   -6.9480   21.4080 O   0  0  0  0  0  0  0  0  0  0  0  0
  -21.7700   -6.2540   22.5830 C   0  0  0  0  0  0  0  0  0  0  0  0
  -21.1880   -6.8360   23.7300 C   0  0  0  0  0  3  0  0  0  0  0  0
  -21.0060   -6.0650   24.8960 C   0  0  0  0  0  3  0  0  0  0  0  0
  -21.3960   -4.7130   24.9140 C   0  0  0  0  0  0  0  0  0  0  0  0
  -21.9710   -4.1300   23.7710 C   0  0  0  0  0  3  0  0  0  0  0  0
  -22.1540   -4.8990   22.6080 C   0  0  0  0  0  0  0  0  0  0  0  0
  -22.6890   -4.3260   21.5020 F   0  0  0  0  0  0  0  0  0  0  0  0
  -21.2150   -3.9690   26.0310 F   0  0  0  0  0  0  0  0  0  0  0  0
  -22.9630  -13.5960   21.2580 C   0  0  0  0  0  0  0  0  0  0  0  0
  -22.2750  -12.8770   22.1370 N   0  0  0  0  0  0  0  0  0  0  0  0
  -22.5000  -14.6310   20.7800 O   0  0  0  0  0  0  0  0  0  0  0  0
  -22.6640  -12.0390   22.5440 H   0  0  0  0  0  0  0  0  0  0  0  0
  -21.3480  -13.1680   22.4090 H   0  0  0  0  0  0  0  0  0  0  0  0
  -25.5390  -15.3030   20.3840 N   0  0  0  0  0  0  0  0  0  0  0  0
  -24.7640  -15.9380   20.5430 H   0  0  0  0  0  0  0  0  0  0  0  0
  -26.3440  -15.7570   19.9770 H   0  0  0  0  0  0  0  0  0  0  0  0
  -29.2160  -23.0800   20.1190 C   0  0  0  0  0  3  0  0  0  0  0  0
  -28.0680  -24.4250   20.2170 C   0  0  0  0  0  3  0  0  0  0  0  0
  -28.2940  -26.0440   20.2210 O   0  0  0  0  0  0  0  0  0  0  0  0
  -24.6970  -31.8990   23.2720 C   0  0  0  0  0  0  0  0  0  0  0  0
  -27.2560  -27.1000   20.1930 C   0  0  0  0  0  0  0  0  0  0  0  0
  -23.4960  -30.5170   21.6260 C   0  0  0  0  0  3  0  0  0  0  0  0
  -24.9410  -28.9370   20.1800 C   0  0  0  0  0  0  0  0  0  0  0  0
  -26.0590  -30.7510   21.4620 C   0  0  0  0  0  2  0  0  0  0  0  0
  -26.1300  -29.3520   20.7930 C   0  0  0  0  0  0  0  0  0  0  0  0
  -27.2840  -28.4550   20.7720 C   0  0  0  0  0  3  0  0  0  0  0  0
  -26.0340  -26.8210   19.5420 C   0  0  0  0  0  3  0  0  0  0  0  0
  -24.9140  -27.6910   19.5350 C   0  0  0  0  0  3  0  0  0  0  0  0
  -23.7180  -29.8490   20.2420 C   0  0  0  0  0  2  0  0  0  0  0  0
  -24.7730  -31.0810   22.1740 N   0  0  0  0  0  0  0  0  0  0  0  0
  -23.6110  -32.1790   23.8050 O   0  0  0  0  0  0  0  0  0  0  0  0
  -22.8130  -29.5070   22.5840 C   0  0  0  0  0  0  0  0  0  0  0  0
  -21.4880  -29.3210   22.4480 N   0  0  0  0  0  0  0  0  0  0  0  0
  -23.4830  -28.8910   23.4180 O   0  0  0  0  0  0  0  0  0  0  0  0
  -21.0000  -29.8700   21.7530 H   0  0  0  0  0  0  0  0  0  0  0  0
  -18.1200  -28.0620   22.9280 C   0  0  0  0  0  0  0  0  0  0  0  0
  -20.6730  -28.3700   23.2120 C   0  0  0  0  0  3  0  0  0  0  0  0
  -20.8020  -26.9400   22.6380 C   0  0  0  0  0  2  0  0  0  0  0  0
  -19.7130  -26.6000   21.6150 C   0  0  0  0  0  2  0  0  0  0  0  0
  -18.3240  -26.7190   22.2490 C   0  0  0  0  0  2  0  0  0  0  0  0
  -19.2220  -28.8460   23.3660 C   0  0  0  0  0  0  0  0  0  0  0  0
  -18.9740  -30.1000   23.9630 C   0  0  0  0  0  3  0  0  0  0  0  0
  -17.6590  -30.5750   24.1250 C   0  0  0  0  0  3  0  0  0  0  0  0
  -16.5710  -29.7910   23.7020 C   0  0  0  0  0  3  0  0  0  0  0  0
  -16.8030  -28.5370   23.1090 C   0  0  0  0  0  3  0  0  0  0  0  0
  -25.9710  -32.5370   23.9040 C   0  0  0  0  0  3  0  0  0  0  0  0
  -25.6580  -33.9360   24.2400 N   0  0  0  0  0  0  0  0  0  0  0  0
  -25.9460  -34.9940   23.4700 C   0  0  0  0  0  0  0  0  0  0  0  0
  -26.5680  -34.8950   22.4090 O   0  0  0  0  0  0  0  0  0  0  0  0
  -25.0970  -34.0860   25.0670 H   0  0  0  0  0  0  0  0  0  0  0  0
  -24.1720  -36.7650   23.2270 C   0  0  0  0  0  1  0  0  0  0  0  0
  -25.4730  -36.3810   23.9510 C   0  0  0  0  0  3  0  0  0  0  0  0
  -27.6400  -37.3150   24.6330 C   0  0  0  0  0  1  0  0  0  0  0  0
  -26.4790  -37.4480   23.7570 N   0  0  0  0  0  0  0  0  0  0  0  0
  -26.0680  -38.3650   23.9130 H   0  0  0  0  0  0  0  0  0  0  0  0
  -26.4760  -31.7690   25.1890 C   0  0  1  0  0  0  0  0  0  0  0  0
  -25.3740  -31.5360   26.2490 C   0  0  0  0  0  1  0  0  0  0  0  0
  -27.0630  -30.3890   24.8130 C   0  0  0  0  0  1  0  0  0  0  0  0
  -27.6220  -32.5650   25.8570 C   0  0  0  0  0  1  0  0  0  0  0  0
  1  3  1  0
  2  1  2  0
  2  4  1  0
  3  5  2  0
  4 18  1  0
  4  6  2  0
  5  8  1  0
  6  5  1  0
  6  9  1  0
  7  2  1  0
 10 18  1  0
 11 16  1  0
 12 13  1  0
 12 11  1  0
 14 13  1  0
 14 23  1  0
 14 15  1  0
 16 10  1  0
 16 15  1  0
 17 10  2  0
 18 19  1  0
 20 21  2  0
 21 40  1  0
 22 21  1  0
 22 25  1  0
 23 24  1  0
 23 20  1  0
 24 22  2  0
 25 26  1  0
 26 27  2  0
 28 31  1  0
 28 27  1  0
 29 28  2  0
 30 29  1  0
 30 25  2  0
 31 32  1  0
 32 37  2  0
 32 33  1  0
 33 34  2  0
 34 35  1  0
 35 39  1  0
 36 35  2  0
 37 36  1  0
 38 37  1  0
 40 41  1  0
 41 44  1  0
 41 43  1  0
 42 40  2  0
 45 20  1  0
 45 46  1  0
 47 45  1  0
 48 49  2  0
 48  3  1  0
 49 50  1  0
 51 62  2  0
 52 50  1  0
 52 57  1  0
 53 61  1  0
 53 63  1  0
 54 60  1  0
 54 56  1  0
 55 61  1  0
 56 55  1  0
 57 56  2  0
 58 52  2  0
 59 58  1  0
 59 54  2  0
 60 53  1  0
 61 51  1  0
 63 65  2  0
 64 63  1  0
 66 64  1  0
 67 76  2  0
 67 72  1  0
 68 64  1  0
 68 72  1  0
 69 68  1  0
 70 71  1  0
 70 69  1  0
 71 67  1  0
 72 73  2  0
 73 74  1  0
 75 74  2  0
 76 75  1  0
 77 51  1  0
 77 78  1  0
 77 87  1  0
 78 81  1  0
 79 83  1  0
 79 78  1  0
 80 79  2  0
 83 82  1  0
 85 86  1  0
 85 83  1  0
 85 84  1  0
 87 90  1  1
 87 88  1  0
 89 87  1  0
M  ISO  4  10 100  18 100  49 101  50 101
M  END
>  <TORSDO>  (23) 
F 18

>  <SCORE>  (23) 
-15.817

>  <name>  (23) 
22

>  <ligand_id>  (23) 
22

>  <original_smiles>  (23) 
[H]c1c([H])c([H])c2c(c1[H])C([H])([H])C([H])([H])C([H])([H])C2([H])N([H])C(=O)C1([H])N(C(=O)C([H])(N([H])C(=O)C([H])(N([H])C([H])([H])[H])C([H])([H])[H])C(C([H])([H])[H])(C([H])([H])[H])C([H])([H])[H])C([H])([H])c2c([H])c(OC([H])([H])C([H])([H])c3c([H])c(C([H])([H])[H])c(N([H])C(=O)N4C([H])([H])C([H])([H])C([H])([H])C([H])(n5nc(-c6c([H])c([H])c(Oc7c([H])c([H])c(F)c([H])c7F)c([H])c6[H])c(C(=O)N([H])[H])c5N([H])[H])C4([H])[H])c(Cl)c3Cl)c([H])c([H])c2C1([H])[H]

>  <smiles>  (23) 
[H]c1c([H])c([H])c2c(c1[H])C([H])([H])C([H])([H])C([H])([H])C2([H])N([H])C(=O)C1([H])N(C(=O)C([H])(N([H])C(=O)C([H])(N([H])C([H])([H])[H])C([H])([H])[H])C(C([H])([H])[H])(C([H])([H])[H])C([H])([H])[H])C([H])([H])c2c([H])c(OC([H])([H])C([H])([H])c3c([H])c(C([H])([H])[H])c(N([H])C(=O)N4C([H])([H])C([H])([H])C([H])([H])C([H])(n5nc(-c6c([H])c([H])c(Oc7c([H])c([H])c(F)c([H])c7F)c([H])c6[H])c(C(=O)N([H])[H])c5N([H])[H])C4([H])[H])c(Cl)c3Cl)c([H])c([H])c2C1([H])[H]

$$$$
23:0:0
     RDKit          3D

 89 97  0  0  1  0  0  0  0  0999 V2000
  -30.1570  -20.8770   19.3060 C   0  0  0  0  0  3  0  0  0  0  0  0
  -27.8590  -21.7310   20.4530 C   0  0  0  0  0  3  0  0  0  0  0  0
  -29.4630  -19.7320   19.8910 C   0  0  0  0  0  0  0  0  0  0  0  0
  -28.5600  -22.8730   19.8620 C   0  0  0  0  0  0  0  0  0  0  0  0
  -28.2620  -20.2980   20.4840 C   0  0  0  0  0  0  0  0  0  0  0  0
  -29.7550  -22.3030   19.2720 C   0  0  0  0  0  0  0  0  0  0  0  0
  -27.4350  -19.4420   21.1280 F   0  0  0  0  0  0  0  0  0  0  0  0
  -30.5690  -23.1470   18.5970 F   0  0  0  0  0  0  0  0  0  0  0  0
  -30.1760  -18.1470   19.9590 C   0  0  0  0  0  2  0  0  0  0  0  0
  -30.4510  -15.2970   19.8910 C   0  0  0  0  0  0  0  0  0  0  0  0
  -30.3150  -12.8900   18.9740 C   0  0  0  0  0  2  0  0  0  0  0  0
  -29.3090  -12.7430   17.8060 C   0  0  0  0  0  2  0  0  0  0  0  0
  -27.8900  -12.4880   18.3430 C   0  0  0  0  0  2  0  0  0  0  0  0
  -27.5340  -13.4290   19.5220 C   0  0  0  0  0  3  0  0  0  0  0  0
  -28.6610  -13.5300   20.5730 C   0  0  0  0  0  2  0  0  0  0  0  0
  -29.8540  -14.0140   19.8620 N   0  0  0  0  0  0  0  0  0  0  0  0
  -31.6470  -15.2950   19.5720 O   0  0  0  0  0  0  0  0  0  0  0  0
  -29.7310  -16.5680   20.0700 N   0  0  0  0  0  0  0  0  0  0  0  0
  -28.7540  -16.4400   20.2850 H   0  0  0  0  0  0  0  0  0  0  0  0
  -25.2290  -13.9850   20.4620 C   0  0  0  0  0  0  0  0  0  0  0  0
  -24.1910  -13.2050   20.8860 C   0  0  0  0  0  0  0  0  0  0  0  0
  -24.6440  -11.8540   20.7860 C   0  0  0  0  0  0  0  0  0  0  0  0
  -26.2450  -13.1100   20.1190 N   0  0  0  0  0  0  0  0  0  0  0  0
  -25.9090  -11.8200   20.3810 N   0  0  0  0  0  0  0  0  0  0  0  0
  -23.9220  -10.5910   20.9940 C   0  0  0  0  0  0  0  0  0  0  0  0
  -24.3940   -9.6080   21.8910 C   0  0  0  0  0  3  0  0  0  0  0  0
  -23.6690   -8.4130   22.0890 C   0  0  0  0  0  3  0  0  0  0  0  0
  -22.4590   -8.1920   21.3890 C   0  0  0  0  0  0  0  0  0  0  0  0
  -22.0060   -9.1630   20.4790 C   0  0  0  0  0  3  0  0  0  0  0  0
  -22.7300  -10.3500   20.2800 C   0  0  0  0  0  3  0  0  0  0  0  0
  -21.7020   -7.0510   21.4990 O   0  0  0  0  0  0  0  0  0  0  0  0
  -21.6900   -6.3030   22.6490 C   0  0  0  0  0  0  0  0  0  0  0  0
  -21.2730   -6.8430   23.8860 C   0  0  0  0  0  3  0  0  0  0  0  0
  -21.2110   -6.0210   25.0290 C   0  0  0  0  0  3  0  0  0  0  0  0
  -21.5540   -4.6580   24.9360 C   0  0  0  0  0  0  0  0  0  0  0  0
  -21.9620   -4.1170   23.7040 C   0  0  0  0  0  3  0  0  0  0  0  0
  -22.0280   -4.9370   22.5640 C   0  0  0  0  0  0  0  0  0  0  0  0
  -22.4020   -4.4050   21.3750 F   0  0  0  0  0  0  0  0  0  0  0  0
  -21.4850   -3.8660   26.0310 F   0  0  0  0  0  0  0  0  0  0  0  0
  -22.8210  -13.6840   21.2660 C   0  0  0  0  0  0  0  0  0  0  0  0
  -22.1520  -12.9720   22.1660 N   0  0  0  0  0  0  0  0  0  0  0  0
  -22.3560  -14.7240   20.8020 O   0  0  0  0  0  0  0  0  0  0  0  0
  -22.5430  -12.1290   22.5610 H   0  0  0  0  0  0  0  0  0  0  0  0
  -21.2360  -13.2730   22.4650 H   0  0  0  0  0  0  0  0  0  0  0  0
  -25.3870  -15.3600   20.3090 N   0  0  0  0  0  0  0  0  0  0  0  0
  -24.6300  -16.0110   20.4920 H   0  0  0  0  0  0  0  0  0  0  0  0
  -26.2060  -15.8080   19.9190 H   0  0  0  0  0  0  0  0  0  0  0  0
  -27.8650  -24.4430   19.6070 C   0  0  0  0  0  2  0  0  0  0  0  0
  -28.2120  -25.9860   19.9840 O   0  0  0  0  0  0  0  0  0  0  0  0
  -24.6080  -31.7990   23.1070 C   0  0  0  0  0  0  0  0  0  0  0  0
  -27.2080  -27.0780   19.9370 C   0  0  0  0  0  0  0  0  0  0  0  0
  -23.4260  -30.4450   21.4250 C   0  0  0  0  0  3  0  0  0  0  0  0
  -24.8910  -28.9130   19.9500 C   0  0  0  0  0  0  0  0  0  0  0  0
  -25.9890  -30.6970   21.2850 C   0  0  0  0  0  2  0  0  0  0  0  0
  -26.0740  -29.3140   20.5840 C   0  0  0  0  0  0  0  0  0  0  0  0
  -27.2300  -28.4170   20.5570 C   0  0  0  0  0  3  0  0  0  0  0  0
  -25.9950  -26.8270   19.2560 C   0  0  0  0  0  3  0  0  0  0  0  0
  -24.8740  -27.6890   19.2680 C   0  0  0  0  0  3  0  0  0  0  0  0
  -23.6620  -29.8130   20.0280 C   0  0  0  0  0  2  0  0  0  0  0  0
  -24.6960  -31.0050   21.9940 N   0  0  0  0  0  0  0  0  0  0  0  0
  -23.5170  -32.0600   23.6390 O   0  0  0  0  0  0  0  0  0  0  0  0
  -22.7450  -29.4070   22.3570 C   0  0  0  0  0  0  0  0  0  0  0  0
  -21.4140  -29.2520   22.2450 N   0  0  0  0  0  0  0  0  0  0  0  0
  -23.4220  -28.7460   23.1490 O   0  0  0  0  0  0  0  0  0  0  0  0
  -20.9210  -29.8370   21.5850 H   0  0  0  0  0  0  0  0  0  0  0  0
  -18.0280  -28.0720   22.7940 C   0  0  0  0  0  0  0  0  0  0  0  0
  -20.5980  -28.2880   22.9920 C   0  0  0  0  0  3  0  0  0  0  0  0
  -20.6590  -26.8860   22.3400 C   0  0  0  0  0  2  0  0  0  0  0  0
  -19.5220  -26.6360   21.3450 C   0  0  0  0  0  2  0  0  0  0  0  0
  -18.1620  -26.7610   22.0390 C   0  0  0  0  0  2  0  0  0  0  0  0
  -19.1700  -28.7970   23.2280 C   0  0  0  0  0  0  0  0  0  0  0  0
  -18.9860  -30.0250   23.8990 C   0  0  0  0  0  3  0  0  0  0  0  0
  -17.6940  -30.5300   24.1370 C   0  0  0  0  0  3  0  0  0  0  0  0
  -16.5670  -29.8030   23.7170 C   0  0  0  0  0  3  0  0  0  0  0  0
  -16.7350  -28.5740   23.0520 C   0  0  0  0  0  3  0  0  0  0  0  0
  -25.8750  -32.4340   23.7570 C   0  0  0  0  0  3  0  0  0  0  0  0
  -25.5540  -33.8300   24.1030 N   0  0  0  0  0  0  0  0  0  0  0  0
  -25.8720  -34.8960   23.3570 C   0  0  0  0  0  0  0  0  0  0  0  0
  -26.5300  -34.8100   22.3160 O   0  0  0  0  0  0  0  0  0  0  0  0
  -24.9700  -33.9710   24.9130 H   0  0  0  0  0  0  0  0  0  0  0  0
  -24.1210  -36.6800   23.0660 C   0  0  0  0  0  1  0  0  0  0  0  0
  -25.3870  -36.2780   23.8390 C   0  0  0  0  0  3  0  0  0  0  0  0
  -27.5300  -37.1810   24.6280 C   0  0  0  0  0  1  0  0  0  0  0  0
  -26.4070  -37.3420   23.7070 N   0  0  0  0  0  0  0  0  0  0  0  0
  -25.9950  -38.2570   23.8690 H   0  0  0  0  0  0  0  0  0  0  0  0
  -26.3660  -31.6570   25.0420 C   0  0  1  0  0  0  0  0  0  0  0  0
  -25.2540  -31.4180   26.0890 C   0  0  0  0  0  1  0  0  0  0  0  0
  -26.9550  -30.2790   24.6620 C   0  0  0  0  0  1  0  0  0  0  0  0
  -27.5060  -32.4470   25.7290 C   0  0  0  0  0  1  0  0  0  0  0  0
  1  3  1  0
  2  5  1  0
  3  9  1  0
  3  5  2  0
  4  2  2  0
  5  7  1  0
  6  1  2  0
  6  4  1  0
  8  6  1  0
  9 18  1  0
 10 18  1  0
 11 16  1  0
 12 13  1  0
 12 11  1  0
 14 13  1  0
 14 23  1  0
 14 15  1  0
 16 10  1  0
 16 15  1  0
 17 10  2  0
 18 19  1  0
 20 21  2  0
 21 40  1  0
 22 21  1  0
 22 25  1  0
 23 24  1  0
 23 20  1  0
 24 22  2  0
 25 26  1  0
 26 27  2  0
 28 31  1  0
 28 27  1  0
 29 28  2  0
 30 29  1  0
 30 25  2  0
 31 32  1  0
 32 33  1  0
 33 34  2  0
 35 34  1  0
 35 39  1  0
 36 35  2  0
 37 32  2  0
 37 36  1  0
 38 37  1  0
 40 41  1  0
 41 44  1  0
 41 43  1  0
 42 40  2  0
 45 20  1  0
 45 46  1  0
 47 45  1  0
 48  4  1  0
 48 49  1  0
 50 61  2  0
 51 49  1  0
 51 56  1  0
 52 60  1  0
 52 62  1  0
 53 59  1  0
 53 55  1  0
 54 60  1  0
 55 54  1  0
 56 55  2  0
 57 58  1  0
 57 51  2  0
 58 53  2  0
 59 52  1  0
 60 50  1  0
 62 64  2  0
 63 62  1  0
 65 63  1  0
 66 75  2  0
 66 71  1  0
 67 63  1  0
 67 71  1  0
 68 67  1  0
 69 70  1  0
 69 68  1  0
 70 66  1  0
 71 72  2  0
 72 73  1  0
 74 73  2  0
 75 74  1  0
 76 50  1  0
 76 77  1  0
 76 86  1  0
 77 80  1  0
 78 82  1  0
 78 77  1  0
 79 78  2  0
 82 81  1  0
 84 82  1  0
 84 85  1  0
 84 83  1  0
 86 89  1  1
 86 87  1  0
 88 86  1  0
M  ISO  4  10 100  18 100  48 101  49 101
M  END
>  <TORSDO>  (24) 
F 18

>  <SCORE>  (24) 
-15.230

>  <name>  (24) 
23

>  <ligand_id>  (24) 
23

>  <original_smiles>  (24) 
[H]c1c([H])c([H])c2c(c1[H])C([H])([H])C([H])([H])C([H])([H])C2([H])N([H])C(=O)C1([H])N(C(=O)C([H])(N([H])C(=O)C([H])(N([H])C([H])([H])[H])C([H])([H])[H])C(C([H])([H])[H])(C([H])([H])[H])C([H])([H])[H])C([H])([H])c2c([H])c(OC([H])([H])c3c([H])c(F)c(C([H])([H])N([H])C(=O)N4C([H])([H])C([H])([H])C([H])([H])C([H])(n5nc(-c6c([H])c([H])c(Oc7c([H])c([H])c(F)c([H])c7F)c([H])c6[H])c(C(=O)N([H])[H])c5N([H])[H])C4([H])[H])c([H])c3F)c([H])c([H])c2C1([H])[H]

>  <smiles>  (24) 
[H]c1c([H])c([H])c2c(c1[H])C([H])([H])C([H])([H])C([H])([H])C2([H])N([H])C(=O)C1([H])N(C(=O)C([H])(N([H])C(=O)C([H])(N([H])C([H])([H])[H])C([H])([H])[H])C(C([H])([H])[H])(C([H])([H])[H])C([H])([H])[H])C([H])([H])c2c([H])c(OC([H])([H])c3c([H])c(F)c(C([H])([H])N([H])C(=O)N4C([H])([H])C([H])([H])C([H])([H])C([H])(n5nc(-c6c([H])c([H])c(Oc7c([H])c([H])c(F)c([H])c7F)c([H])c6[H])c(C(=O)N([H])[H])c5N([H])[H])C4([H])[H])c([H])c3F)c([H])c([H])c2C1([H])[H]

$$$$
24:0:0
     RDKit          3D

 94102  0  0  1  0  0  0  0  0999 V2000
  -29.7790  -20.6400   20.2340 C   0  0  0  0  0  0  0  0  0  0  0  0
  -31.0210  -20.6700   19.5610 C   0  0  0  0  0  0  0  0  0  0  0  0
  -28.9240  -21.8210   19.8690 C   0  0  0  0  0  0  0  0  0  0  0  0
  -29.8540  -21.6160   17.6320 C   0  0  0  0  0  0  0  0  0  0  0  0
  -31.0270  -21.0820   18.2100 C   0  0  0  0  0  0  0  0  0  0  0  0
  -28.7800  -21.9800   18.4730 C   0  0  0  0  0  0  0  0  0  0  0  0
  -29.8080  -21.9320   16.1480 C   0  0  0  0  0  1  0  0  0  0  0  0
  -32.1420  -20.9190   17.4580 F   0  0  0  0  0  0  0  0  0  0  0  0
  -27.7450  -22.6920   17.9680 F   0  0  0  0  0  0  0  0  0  0  0  0
  -33.3280  -21.2480   20.4370 C   0  0  0  0  0  1  0  0  0  0  0  0
  -32.2920  -20.1400   20.2050 C   0  0  0  0  0  2  0  0  0  0  0  0
  -29.2880  -19.0720   20.4760 C   0  0  0  0  0  3  0  0  0  0  0  0
  -30.2480  -17.6890   20.2380 C   0  0  0  0  0  3  0  0  0  0  0  0
  -30.5590  -14.9740   20.1700 C   0  0  0  0  0  0  0  0  0  0  0  0
  -30.3620  -12.6710   19.1340 C   0  0  0  0  0  2  0  0  0  0  0  0
  -29.3930  -12.6990   17.9310 C   0  0  0  0  0  2  0  0  0  0  0  0
  -27.9410  -12.4890   18.4000 C   0  0  0  0  0  2  0  0  0  0  0  0
  -27.5840  -13.3630   19.6320 C   0  0  0  0  0  3  0  0  0  0  0  0
  -28.6750  -13.3150   20.7230 C   0  0  0  0  0  2  0  0  0  0  0  0
  -29.9330  -13.7320   20.0900 N   0  0  0  0  0  0  0  0  0  0  0  0
  -31.7470  -15.0290   19.8380 O   0  0  0  0  0  0  0  0  0  0  0  0
  -29.8280  -16.1720   20.4050 N   0  0  0  0  0  0  0  0  0  0  0  0
  -28.8590  -16.0240   20.6400 H   0  0  0  0  0  0  0  0  0  0  0  0
  -25.2180  -13.9190   20.4300 C   0  0  0  0  0  0  0  0  0  0  0  0
  -24.1690  -13.1340   20.8210 C   0  0  0  0  0  0  0  0  0  0  0  0
  -24.6430  -11.7870   20.7720 C   0  0  0  0  0  0  0  0  0  0  0  0
  -26.2610  -13.0510   20.1600 N   0  0  0  0  0  0  0  0  0  0  0  0
  -25.9260  -11.7620   20.4320 N   0  0  0  0  0  0  0  0  0  0  0  0
  -23.9290  -10.5180   20.9700 C   0  0  0  0  0  0  0  0  0  0  0  0
  -24.3680   -9.5620   21.9110 C   0  0  0  0  0  3  0  0  0  0  0  0
  -23.6520   -8.3590   22.0990 C   0  0  0  0  0  3  0  0  0  0  0  0
  -22.4810   -8.1060   21.3450 C   0  0  0  0  0  0  0  0  0  0  0  0
  -22.0600   -9.0520   20.3930 C   0  0  0  0  0  3  0  0  0  0  0  0
  -22.7780  -10.2450   20.2040 C   0  0  0  0  0  3  0  0  0  0  0  0
  -21.7360   -6.9550   21.4410 O   0  0  0  0  0  0  0  0  0  0  0  0
  -21.6770   -6.2310   22.6040 C   0  0  0  0  0  0  0  0  0  0  0  0
  -21.2000   -6.7920   23.8090 C   0  0  0  0  0  3  0  0  0  0  0  0
  -21.0930   -5.9920   24.9640 C   0  0  0  0  0  3  0  0  0  0  0  0
  -21.4510   -4.6320   24.9160 C   0  0  0  0  0  0  0  0  0  0  0  0
  -21.9210   -4.0700   23.7160 C   0  0  0  0  0  3  0  0  0  0  0  0
  -22.0310   -4.8670   22.5620 C   0  0  0  0  0  0  0  0  0  0  0  0
  -22.4640   -4.3150   21.4030 F   0  0  0  0  0  0  0  0  0  0  0  0
  -21.3410   -3.8610   26.0220 F   0  0  0  0  0  0  0  0  0  0  0  0
  -22.7750  -13.6000   21.1240 C   0  0  0  0  0  0  0  0  0  0  0  0
  -22.0680  -12.8930   21.9970 N   0  0  0  0  0  0  0  0  0  0  0  0
  -22.3220  -14.6280   20.6220 O   0  0  0  0  0  0  0  0  0  0  0  0
  -22.4470  -12.0600   22.4230 H   0  0  0  0  0  0  0  0  0  0  0  0
  -21.1340  -13.1880   22.2450 H   0  0  0  0  0  0  0  0  0  0  0  0
  -25.3640  -15.2930   20.2540 N   0  0  0  0  0  0  0  0  0  0  0  0
  -24.5900  -15.9340   20.3810 H   0  0  0  0  0  0  0  0  0  0  0  0
  -26.1870  -15.7400   19.8720 H   0  0  0  0  0  0  0  0  0  0  0  0
  -28.8900  -23.3080   20.5950 C   0  0  0  0  0  3  0  0  0  0  0  0
  -28.1400  -24.6950   19.9700 C   0  0  0  0  0  3  0  0  0  0  0  0
  -28.2970  -26.1910   20.3890 O   0  0  0  0  0  0  0  0  0  0  0  0
  -24.6040  -31.8750   23.2530 C   0  0  0  0  0  0  0  0  0  0  0  0
  -27.2410  -27.1690   20.2670 C   0  0  0  0  0  0  0  0  0  0  0  0
  -23.4320  -30.4730   21.5990 C   0  0  0  0  0  3  0  0  0  0  0  0
  -24.9070  -28.9050   20.1920 C   0  0  0  0  0  0  0  0  0  0  0  0
  -25.9870  -30.7480   21.4720 C   0  0  0  0  0  2  0  0  0  0  0  0
  -26.0740  -29.3550   20.8240 C   0  0  0  0  0  0  0  0  0  0  0  0
  -27.2400  -28.5000   20.8480 C   0  0  0  0  0  3  0  0  0  0  0  0
  -26.0560  -26.8300   19.5770 C   0  0  0  0  0  3  0  0  0  0  0  0
  -24.9120  -27.6580   19.5530 C   0  0  0  0  0  3  0  0  0  0  0  0
  -23.6740  -29.7960   20.2240 C   0  0  0  0  0  2  0  0  0  0  0  0
  -24.6930  -31.0540   22.1630 N   0  0  0  0  0  0  0  0  0  0  0  0
  -23.5100  -32.1560   23.7650 O   0  0  0  0  0  0  0  0  0  0  0  0
  -22.7450  -29.4640   22.5530 C   0  0  0  0  0  0  0  0  0  0  0  0
  -21.4170  -29.3010   22.4200 N   0  0  0  0  0  0  0  0  0  0  0  0
  -23.4100  -28.8300   23.3770 O   0  0  0  0  0  0  0  0  0  0  0  0
  -20.9370  -29.8620   21.7300 H   0  0  0  0  0  0  0  0  0  0  0  0
  -18.0240  -28.1350   22.9200 C   0  0  0  0  0  0  0  0  0  0  0  0
  -20.5870  -28.3650   23.1830 C   0  0  0  0  0  3  0  0  0  0  0  0
  -20.6700  -26.9380   22.5940 C   0  0  0  0  0  2  0  0  0  0  0  0
  -19.5620  -26.6380   21.5790 C   0  0  0  0  0  2  0  0  0  0  0  0
  -18.1840  -26.7910   22.2280 C   0  0  0  0  0  2  0  0  0  0  0  0
  -19.1520  -28.8810   23.3550 C   0  0  0  0  0  0  0  0  0  0  0  0
  -18.9480  -30.1380   23.9640 C   0  0  0  0  0  3  0  0  0  0  0  0
  -17.6490  -30.6500   24.1400 C   0  0  0  0  0  3  0  0  0  0  0  0
  -16.5350  -29.9010   23.7200 C   0  0  0  0  0  3  0  0  0  0  0  0
  -16.7230  -28.6460   23.1170 C   0  0  0  0  0  3  0  0  0  0  0  0
  -25.8700  -32.5170   23.8970 C   0  0  0  0  0  3  0  0  0  0  0  0
  -25.5530  -33.9200   24.2050 N   0  0  0  0  0  0  0  0  0  0  0  0
  -25.9000  -34.9670   23.4460 C   0  0  0  0  0  0  0  0  0  0  0  0
  -26.5860  -34.8530   22.4260 O   0  0  0  0  0  0  0  0  0  0  0  0
  -24.9420  -34.0800   24.9930 H   0  0  0  0  0  0  0  0  0  0  0  0
  -24.1850  -36.7670   23.0480 C   0  0  0  0  0  1  0  0  0  0  0  0
  -25.4090  -36.3620   23.8840 C   0  0  0  0  0  3  0  0  0  0  0  0
  -27.5260  -37.2530   24.7540 C   0  0  0  0  0  1  0  0  0  0  0  0
  -26.4470  -37.4110   23.7820 N   0  0  0  0  0  0  0  0  0  0  0  0
  -26.0410  -38.3340   23.9080 H   0  0  0  0  0  0  0  0  0  0  0  0
  -26.3540  -31.7630   25.1980 C   0  0  1  0  0  0  0  0  0  0  0  0
  -25.2340  -31.5440   26.2420 C   0  0  0  0  0  1  0  0  0  0  0  0
  -26.9450  -30.3790   24.8470 C   0  0  0  0  0  1  0  0  0  0  0  0
  -27.4890  -32.5670   25.8760 C   0  0  0  0  0  1  0  0  0  0  0  0
  1 12  1  0
  2 11  1  0
  2  1  2  0
  3  1  1  0
  3 52  1  0
  4  5  2  0
  4  6  1  0
  5  2  1  0
  6  3  2  0
  7  4  1  0
  8  5  1  0
  9  6  1  0
 11 10  1  0
 13 22  1  0
 13 12  2  0
 14 22  1  0
 15 20  1  0
 16 17  1  0
 16 15  1  0
 18 17  1  0
 18 27  1  0
 18 19  1  0
 20 14  1  0
 20 19  1  0
 21 14  2  0
 22 23  1  0
 24 25  2  0
 25 44  1  0
 26 25  1  0
 26 29  1  0
 27 24  1  0
 27 28  1  0
 28 26  2  0
 29 30  1  0
 30 31  2  0
 32 35  1  0
 32 31  1  0
 33 32  2  0
 34 33  1  0
 34 29  2  0
 35 36  1  0
 36 37  1  0
 37 38  2  0
 39 38  1  0
 39 43  1  0
 40 39  2  0
 41 36  2  0
 41 40  1  0
 42 41  1  0
 44 45  1  0
 45 48  1  0
 45 47  1  0
 46 44  2  0
 49 50  1  0
 49 24  1  0
 51 49  1  0
 53 54  1  0
 53 52  2  0
 55 66  2  0
 56 54  1  0
 56 61  1  0
 57 65  1  0
 57 67  1  0
 58 64  1  0
 58 60  1  0
 59 65  1  0
 60 61  2  0
 60 59  1  0
 62 56  2  0
 63 62  1  0
 63 58  2  0
 64 57  1  0
 65 55  1  0
 67 69  2  0
 68 67  1  0
 70 68  1  0
 71 80  2  0
 71 76  1  0
 72 68  1  0
 72 76  1  0
 73 72  1  0
 74 75  1  0
 74 73  1  0
 75 71  1  0
 76 77  2  0
 77 78  1  0
 79 78  2  0
 80 79  1  0
 81 55  1  0
 81 82  1  0
 81 91  1  0
 82 85  1  0
 83 87  1  0
 83 82  1  0
 84 83  2  0
 87 86  1  0
 89 87  1  0
 89 90  1  0
 89 88  1  0
 91 94  1  1
 91 92  1  0
 93 91  1  0
M  ISO  4  14 100  22 100  53 101  54 101
M  END
>  <TORSDO>  (25) 
F 21

>  <SCORE>  (25) 
-15.216

>  <name>  (25) 
24

>  <ligand_id>  (25) 
24

>  <original_smiles>  (25) 
[H]c1c([H])c([H])c2c(c1[H])C([H])([H])C([H])([H])C([H])([H])C2([H])N([H])C(=O)C1([H])N(C(=O)C([H])(N([H])C(=O)C([H])(N([H])C([H])([H])[H])C([H])([H])[H])C(C([H])([H])[H])(C([H])([H])[H])C([H])([H])[H])C([H])([H])c2c([H])c(OC([H])([H])C([H])([H])c3c(F)c(C([H])([H])[H])c(F)c(C([H])([H])C([H])([H])[H])c3C([H])([H])C([H])([H])N([H])C(=O)N3C([H])([H])C([H])([H])C([H])([H])C([H])(n4nc(-c5c([H])c([H])c(Oc6c([H])c([H])c(F)c([H])c6F)c([H])c5[H])c(C(=O)N([H])[H])c4N([H])[H])C3([H])[H])c([H])c([H])c2C1([H])[H]

>  <smiles>  (25) 
[H]c1c([H])c([H])c2c(c1[H])C([H])([H])C([H])([H])C([H])([H])C2([H])N([H])C(=O)C1([H])N(C(=O)C([H])(N([H])C(=O)C([H])(N([H])C([H])([H])[H])C([H])([H])[H])C(C([H])([H])[H])(C([H])([H])[H])C([H])([H])[H])C([H])([H])c2c([H])c(OC([H])([H])C([H])([H])c3c(F)c(C([H])([H])[H])c(F)c(C([H])([H])C([H])([H])[H])c3C([H])([H])C([H])([H])N([H])C(=O)N3C([H])([H])C([H])([H])C([H])([H])C([H])(n4nc(-c5c([H])c([H])c(Oc6c([H])c([H])c(F)c([H])c6F)c([H])c5[H])c(C(=O)N([H])[H])c4N([H])[H])C3([H])[H])c([H])c([H])c2C1([H])[H]

$$$$
25:0:0
     RDKit          3D

 98107  0  0  1  0  0  0  0  0999 V2000
  -29.2100  -21.5670   21.4520 N   0  0  0  0  0  4  0  0  0  0  0  0
  -28.6140  -21.3020   22.2200 H   0  0  0  0  0  0  0  0  0  0  0  0
  -30.1610  -21.5540   21.7840 H   0  0  0  0  0  0  0  0  0  0  0  0
  -28.5720  -23.8570   22.2180 C   0  0  0  0  0  2  0  0  0  0  0  0
  -29.9840  -23.5400   20.1430 C   0  0  0  0  0  2  0  0  0  0  0  0
  -28.1500  -25.2530   21.7280 C   0  0  0  0  0  2  0  0  0  0  0  0
  -29.5970  -24.9360   19.6490 C   0  0  0  0  0  2  0  0  0  0  0  0
  -28.8640  -22.9340   21.0180 C   0  0  0  0  0  3  0  0  0  0  0  0
  -29.2390  -25.8640   20.8160 C   0  0  0  0  0  3  0  0  0  0  0  0
  -28.9810  -27.1310   20.2290 O   0  0  0  0  0  0  0  0  0  0  0  0
  -24.6960  -31.8760   23.3020 C   0  0  0  0  0  0  0  0  0  0  0  0
  -27.7280  -27.6790   20.2900 C   0  0  0  0  0  0  0  0  0  0  0  0
  -23.6390  -30.4320   21.5890 C   0  0  0  0  0  3  0  0  0  0  0  0
  -25.2370  -28.9870   20.2250 C   0  0  0  0  0  0  0  0  0  0  0  0
  -26.1390  -30.9410   21.5060 C   0  0  0  0  0  2  0  0  0  0  0  0
  -26.3290  -29.5840   20.8690 C   0  0  0  0  0  0  0  0  0  0  0  0
  -27.5760  -28.9340   20.9030 C   0  0  0  0  0  3  0  0  0  0  0  0
  -26.6280  -27.0740   19.6470 C   0  0  0  0  0  3  0  0  0  0  0  0
  -25.3770  -27.7220   19.6200 C   0  0  0  0  0  3  0  0  0  0  0  0
  -23.9470  -29.7730   20.2170 C   0  0  0  0  0  2  0  0  0  0  0  0
  -24.8400  -31.0980   22.1930 N   0  0  0  0  0  0  0  0  0  0  0  0
  -23.5810  -32.0830   23.7980 O   0  0  0  0  0  0  0  0  0  0  0  0
  -23.0040  -29.3670   22.5100 C   0  0  0  0  0  0  0  0  0  0  0  0
  -21.6990  -29.1180   22.3170 N   0  0  0  0  0  0  0  0  0  0  0  0
  -23.6830  -28.7670   23.3470 O   0  0  0  0  0  0  0  0  0  0  0  0
  -21.2140  -29.6590   21.6140 H   0  0  0  0  0  0  0  0  0  0  0  0
  -18.3610  -27.7880   22.6750 C   0  0  0  0  0  0  0  0  0  0  0  0
  -20.8970  -28.1290   23.0350 C   0  0  0  0  0  3  0  0  0  0  0  0
  -21.0710  -26.7210   22.4220 C   0  0  0  0  0  2  0  0  0  0  0  0
  -20.0130  -26.3870   21.3650 C   0  0  0  0  0  2  0  0  0  0  0  0
  -18.6090  -26.4640   21.9710 C   0  0  0  0  0  2  0  0  0  0  0  0
  -19.4380  -28.5760   23.1610 C   0  0  0  0  0  0  0  0  0  0  0  0
  -19.1550  -29.8160   23.7750 C   0  0  0  0  0  3  0  0  0  0  0  0
  -17.8290  -30.2650   23.9140 C   0  0  0  0  0  3  0  0  0  0  0  0
  -16.7660  -29.4730   23.4470 C   0  0  0  0  0  3  0  0  0  0  0  0
  -17.0330  -28.2360   22.8320 C   0  0  0  0  0  3  0  0  0  0  0  0
  -25.9210  -32.5620   23.9870 C   0  0  0  0  0  3  0  0  0  0  0  0
  -26.4050  -31.8140   25.2900 C   0  0  1  0  0  0  0  0  0  0  0  0
  -25.2610  -31.4650   26.2690 C   0  0  0  0  0  1  0  0  0  0  0  0
  -27.1300  -30.4960   24.9230 C   0  0  0  0  0  1  0  0  0  0  0  0
  -27.4330  -32.6880   26.0470 C   0  0  0  0  0  1  0  0  0  0  0  0
  -25.5370  -33.9470   24.2910 N   0  0  0  0  0  0  0  0  0  0  0  0
  -25.8620  -35.0070   23.5390 C   0  0  0  0  0  0  0  0  0  0  0  0
  -26.5860  -34.9270   22.5430 O   0  0  0  0  0  0  0  0  0  0  0  0
  -24.8980  -34.0800   25.0610 H   0  0  0  0  0  0  0  0  0  0  0  0
  -24.0770  -36.7190   23.0810 C   0  0  0  0  0  1  0  0  0  0  0  0
  -25.2910  -36.3760   23.9590 C   0  0  0  0  0  3  0  0  0  0  0  0
  -27.3440  -37.3530   24.8850 C   0  0  0  0  0  1  0  0  0  0  0  0
  -26.2820  -37.4720   23.8890 N   0  0  0  0  0  0  0  0  0  0  0  0
  -25.8340  -38.3760   24.0130 H   0  0  0  0  0  0  0  0  0  0  0  0
  -29.0360  -20.5600   20.3880 C   0  0  0  0  0  2  0  0  0  0  0  0
  -32.2380  -18.6150   19.5780 C   0  0  0  0  0  3  0  0  0  0  0  0
  -29.9780  -18.3810   21.2350 C   0  0  0  0  0  3  0  0  0  0  0  0
  -32.0540  -17.4540   20.3530 C   0  0  0  0  0  0  0  0  0  0  0  0
  -30.1340  -19.5170   20.4180 C   0  0  0  0  0  0  0  0  0  0  0  0
  -30.9300  -17.3470   21.2060 C   0  0  0  0  0  0  0  0  0  0  0  0
  -31.2850  -19.6460   19.6040 C   0  0  0  0  0  0  0  0  0  0  0  0
  -30.6620  -15.9440   22.1810 Cl  0  0  0  0  0  0  0  0  0  0  0  0
  -31.5350  -21.0390   18.6110 Cl  0  0  0  0  0  0  0  0  0  0  0  0
  -33.0150  -16.2950   20.1700 C   0  0  0  0  0  2  0  0  0  0  0  0
  -32.1890  -14.2590   18.9840 C   0  0  0  0  0  0  0  0  0  0  0  0
  -31.6100  -11.9150   18.5220 C   0  0  0  0  0  2  0  0  0  0  0  0
  -30.5040  -11.7070   17.4780 C   0  0  0  0  0  2  0  0  0  0  0  0
  -29.1160  -11.7760   18.1370 C   0  0  0  0  0  2  0  0  0  0  0  0
  -28.9370  -13.0520   18.9970 C   0  0  0  0  0  3  0  0  0  0  0  0
  -30.1240  -13.2360   19.9660 C   0  0  0  0  0  2  0  0  0  0  0  0
  -31.3910  -13.1930   19.2060 N   0  0  0  0  0  0  0  0  0  0  0  0
  -32.9270  -14.3920   18.0010 O   0  0  0  0  0  0  0  0  0  0  0  0
  -32.2760  -15.0490   20.0580 N   0  0  0  0  0  0  0  0  0  0  0  0
  -31.7200  -14.7770   20.8550 H   0  0  0  0  0  0  0  0  0  0  0  0
  -26.9280  -14.0840   20.2420 C   0  0  0  0  0  0  0  0  0  0  0  0
  -25.7750  -13.5330   20.7340 C   0  0  0  0  0  0  0  0  0  0  0  0
  -25.8590  -12.1340   20.4600 C   0  0  0  0  0  0  0  0  0  0  0  0
  -27.6580  -13.0320   19.7090 N   0  0  0  0  0  0  0  0  0  0  0  0
  -27.0240  -11.8450   19.8930 N   0  0  0  0  0  0  0  0  0  0  0  0
  -24.8760  -11.0600   20.6550 C   0  0  0  0  0  0  0  0  0  0  0  0
  -25.1530   -9.9450   21.4790 C   0  0  0  0  0  3  0  0  0  0  0  0
  -24.1860   -8.9340   21.6640 C   0  0  0  0  0  3  0  0  0  0  0  0
  -22.9270   -9.0320   21.0290 C   0  0  0  0  0  0  0  0  0  0  0  0
  -22.6630  -10.1320   20.1930 C   0  0  0  0  0  3  0  0  0  0  0  0
  -23.6290  -11.1350   20.0040 C   0  0  0  0  0  3  0  0  0  0  0  0
  -21.9360   -8.0850   21.1300 O   0  0  0  0  0  0  0  0  0  0  0  0
  -21.7400   -7.3690   22.2830 C   0  0  0  0  0  0  0  0  0  0  0  0
  -21.4730   -8.0010   23.5170 C   0  0  0  0  0  3  0  0  0  0  0  0
  -21.2100   -7.2260   24.6640 C   0  0  0  0  0  3  0  0  0  0  0  0
  -21.2030   -5.8210   24.5770 C   0  0  0  0  0  0  0  0  0  0  0  0
  -21.4630   -5.1880   23.3470 C   0  0  0  0  0  3  0  0  0  0  0  0
  -21.7270   -5.9620   22.2030 C   0  0  0  0  0  0  0  0  0  0  0  0
  -21.9560   -5.3480   21.0170 F   0  0  0  0  0  0  0  0  0  0  0  0
  -20.9430   -5.0750   25.6760 F   0  0  0  0  0  0  0  0  0  0  0  0
  -24.6150  -14.2710   21.3380 C   0  0  0  0  0  0  0  0  0  0  0  0
  -23.9270  -13.6570   22.2940 N   0  0  0  0  0  0  0  0  0  0  0  0
  -24.3410  -15.4210   20.9980 O   0  0  0  0  0  0  0  0  0  0  0  0
  -24.1650  -12.7190   22.5900 H   0  0  0  0  0  0  0  0  0  0  0  0
  -23.1510  -14.1280   22.7390 H   0  0  0  0  0  0  0  0  0  0  0  0
  -27.4070  -15.3900   20.1860 N   0  0  0  0  0  0  0  0  0  0  0  0
  -26.8720  -16.1800   20.5280 H   0  0  0  0  0  0  0  0  0  0  0  0
  -28.2860  -15.6580   19.7600 H   0  0  0  0  0  0  0  0  0  0  0  0
  1  3  1  0
  1  2  1  0
  5  8  1  0
  6  4  1  0
  7  5  1  0
  7  9  1  0
  8  1  1  0
  8  4  1  0
  9 10  1  0
  9  6  1  0
 10 12  1  0
 11 22  2  0
 12 17  1  0
 13 21  1  0
 13 23  1  0
 14 16  1  0
 15 21  1  0
 16 17  2  0
 16 15  1  0
 18 12  2  0
 19 18  1  0
 19 14  2  0
 20 14  1  0
 20 13  1  0
 21 11  1  0
 23 25  2  0
 24 23  1  0
 26 24  1  0
 27 36  2  0
 27 32  1  0
 28 24  1  0
 28 32  1  0
 29 28  1  0
 30 31  1  0
 30 29  1  0
 31 27  1  0
 32 33  2  0
 33 34  1  0
 35 34  2  0
 36 35  1  0
 37 11  1  0
 37 42  1  0
 37 38  1  0
 38 41  1  1
 38 39  1  0
 40 38  1  0
 42 45  1  0
 43 47  1  0
 43 42  1  0
 44 43  2  0
 47 46  1  0
 49 47  1  0
 49 50  1  0
 49 48  1  0
 51 55  1  0
 51  1  1  0
 52 57  2  0
 52 54  1  0
 54 56  2  0
 55 53  2  0
 56 53  1  0
 56 58  1  0
 57 55  1  0
 59 57  1  0
 60 54  1  0
 61 67  1  0
 61 69  1  0
 62 67  1  0
 63 64  1  0
 63 62  1  0
 65 64  1  0
 65 74  1  0
 65 66  1  0
 67 66  1  0
 68 61  2  0
 69 60  1  0
 69 70  1  0
 71 72  2  0
 72 91  1  0
 73 76  1  0
 73 72  1  0
 74 75  1  0
 74 71  1  0
 75 73  2  0
 76 77  1  0
 77 78  2  0
 79 82  1  0
 79 78  1  0
 80 79  2  0
 81 80  1  0
 81 76  2  0
 82 83  1  0
 83 84  1  0
 84 85  2  0
 86 85  1  0
 86 90  1  0
 87 86  2  0
 88 83  2  0
 88 87  1  0
 89 88  1  0
 91 92  1  0
 92 94  1  0
 92 95  1  0
 93 91  2  0
 96 71  1  0
 96 97  1  0
 98 96  1  0
M  ISO  4   9 101  10 101  61 100  69 100
M  END
>  <TORSDO>  (26) 
F 20

>  <SCORE>  (26) 
-11.556

>  <name>  (26) 
25

>  <ligand_id>  (26) 
25

>  <original_smiles>  (26) 
[H]c1c([H])c([H])c2c(c1[H])C([H])([H])C([H])([H])C([H])([H])C2([H])N([H])C(=O)C1([H])N(C(=O)C([H])(N([H])C(=O)C([H])(N([H])C([H])([H])[H])C([H])([H])[H])C(C([H])([H])[H])(C([H])([H])[H])C([H])([H])[H])C([H])([H])c2c([H])c(OC3([H])C([H])([H])C([H])([H])C([H])([N+]([H])([H])C([H])([H])c4c([H])c(Cl)c(C([H])([H])N([H])C(=O)N5C([H])([H])C([H])([H])C([H])([H])C([H])(n6nc(-c7c([H])c([H])c(Oc8c([H])c([H])c(F)c([H])c8F)c([H])c7[H])c(C(=O)N([H])[H])c6N([H])[H])C5([H])[H])c([H])c4Cl)C([H])([H])C3([H])[H])c([H])c([H])c2C1([H])[H]

>  <smiles>  (26) 
[H]c1c([H])c([H])c2c(c1[H])C([H])([H])C([H])([H])C([H])([H])C2([H])N([H])C(=O)C1([H])N(C(=O)C([H])(N([H])C(=O)C([H])(N([H])C([H])([H])[H])C([H])([H])[H])C(C([H])([H])[H])(C([H])([H])[H])C([H])([H])[H])C([H])([H])c2c([H])c(OC3([H])C([H])([H])C([H])([H])C([H])([N+]([H])([H])C([H])([H])c4c([H])c(Cl)c(C([H])([H])N([H])C(=O)N5C([H])([H])C([H])([H])C([H])([H])C([H])(n6nc(-c7c([H])c([H])c(Oc8c([H])c([H])c(F)c([H])c8F)c([H])c7[H])c(C(=O)N([H])[H])c6N([H])[H])C5([H])[H])c([H])c4Cl)C([H])([H])C3([H])[H])c([H])c([H])c2C1([H])[H]

$$$$
26:0:0
     RDKit          3D

 94102  0  0  1  0  0  0  0  0999 V2000
  -29.7360  -22.5100   17.6440 C   0  0  0  0  0  3  0  0  0  0  0  0
  -30.6670  -23.3330   18.3250 C   0  0  0  0  0  0  0  0  0  0  0  0
  -28.6760  -21.9190   18.3710 C   0  0  0  0  0  0  0  0  0  0  0  0
  -30.3370  -23.7870   19.6300 C   0  0  0  0  0  0  0  0  0  0  0  0
  -28.7800  -21.9370   19.7760 C   0  0  0  0  0  3  0  0  0  0  0  0
  -29.1110  -23.3460   20.1780 C   0  0  0  0  0  3  0  0  0  0  0  0
  -31.8800  -23.8660   17.5870 C   0  0  0  0  0  1  0  0  0  0  0  0
  -27.4830  -21.3250   17.6520 C   0  0  0  0  0  1  0  0  0  0  0  0
  -31.1180  -24.9160   20.2800 C   0  0  0  0  0  1  0  0  0  0  0  0
  -29.5400  -20.5600   20.3400 C   0  0  0  0  0  2  0  0  0  0  0  0
  -27.9170  -18.5500   20.0550 C   0  0  0  0  0  1  0  0  0  0  0  0
  -29.6930  -18.7990   18.3170 C   0  0  0  0  0  1  0  0  0  0  0  0
  -29.3910  -18.9270   19.8250 C   0  0  1  0  0  0  0  0  0  0  0  0
  -30.2930  -17.6570   20.4830 C   0  0  0  0  0  2  0  0  0  0  0  0
  -30.6820  -14.9330   20.1670 C   0  0  0  0  0  0  0  0  0  0  0  0
  -30.5030  -12.6050   19.1790 C   0  0  0  0  0  2  0  0  0  0  0  0
  -29.5400  -12.5980   17.9690 C   0  0  0  0  0  2  0  0  0  0  0  0
  -28.0840  -12.4020   18.4330 C   0  0  0  0  0  2  0  0  0  0  0  0
  -27.7180  -13.3090   19.6360 C   0  0  0  0  0  3  0  0  0  0  0  0
  -28.7990  -13.2860   20.7360 C   0  0  0  0  0  2  0  0  0  0  0  0
  -30.0610  -13.6880   20.1010 N   0  0  0  0  0  0  0  0  0  0  0  0
  -31.8820  -14.9850   19.8810 O   0  0  0  0  0  0  0  0  0  0  0  0
  -29.9240  -16.1210   20.3550 N   0  0  0  0  0  0  0  0  0  0  0  0
  -28.9430  -15.9330   20.4990 H   0  0  0  0  0  0  0  0  0  0  0  0
  -25.3570  -13.9000   20.4280 C   0  0  0  0  0  0  0  0  0  0  0  0
  -24.2950  -13.1320   20.8150 C   0  0  0  0  0  0  0  0  0  0  0  0
  -24.7500  -11.7770   20.7670 C   0  0  0  0  0  0  0  0  0  0  0  0
  -26.3880  -13.0170   20.1610 N   0  0  0  0  0  0  0  0  0  0  0  0
  -26.0340  -11.7340   20.4310 N   0  0  0  0  0  0  0  0  0  0  0  0
  -24.0160  -10.5190   20.9620 C   0  0  0  0  0  0  0  0  0  0  0  0
  -24.4400   -9.5550   21.9030 C   0  0  0  0  0  3  0  0  0  0  0  0
  -23.7060   -8.3630   22.0860 C   0  0  0  0  0  3  0  0  0  0  0  0
  -22.5330   -8.1280   21.3300 C   0  0  0  0  0  0  0  0  0  0  0  0
  -22.1290   -9.0810   20.3780 C   0  0  0  0  0  3  0  0  0  0  0  0
  -22.8630  -10.2630   20.1930 C   0  0  0  0  0  3  0  0  0  0  0  0
  -21.7710   -6.9880   21.4220 O   0  0  0  0  0  0  0  0  0  0  0  0
  -21.6960   -6.2660   22.5860 C   0  0  0  0  0  0  0  0  0  0  0  0
  -21.2030   -6.8300   23.7830 C   0  0  0  0  0  3  0  0  0  0  0  0
  -21.0780   -6.0320   24.9380 C   0  0  0  0  0  3  0  0  0  0  0  0
  -21.4350   -4.6710   24.8960 C   0  0  0  0  0  0  0  0  0  0  0  0
  -21.9210   -4.1060   23.7050 C   0  0  0  0  0  3  0  0  0  0  0  0
  -22.0480   -4.9000   22.5520 C   0  0  0  0  0  0  0  0  0  0  0  0
  -22.4970   -4.3470   21.4000 F   0  0  0  0  0  0  0  0  0  0  0  0
  -21.3080   -3.9020   26.0040 F   0  0  0  0  0  0  0  0  0  0  0  0
  -22.9070  -13.6180   21.1140 C   0  0  0  0  0  0  0  0  0  0  0  0
  -22.1910  -12.9260   21.9930 N   0  0  0  0  0  0  0  0  0  0  0  0
  -22.4670  -14.6470   20.6020 O   0  0  0  0  0  0  0  0  0  0  0  0
  -22.5620  -12.0940   22.4280 H   0  0  0  0  0  0  0  0  0  0  0  0
  -21.2610  -13.2330   22.2360 H   0  0  0  0  0  0  0  0  0  0  0  0
  -25.5250  -15.2710   20.2520 N   0  0  0  0  0  0  0  0  0  0  0  0
  -24.7570  -15.9230   20.3710 H   0  0  0  0  0  0  0  0  0  0  0  0
  -26.3480  -15.7010   19.8540 H   0  0  0  0  0  0  0  0  0  0  0  0
  -28.0240  -24.5840   20.2970 C   0  0  0  0  0  2  0  0  0  0  0  0
  -28.3350  -26.1160   20.3350 O   0  0  0  0  0  0  0  0  0  0  0  0
  -24.6510  -31.8420   23.2030 C   0  0  0  0  0  0  0  0  0  0  0  0
  -27.2780  -27.1000   20.2590 C   0  0  0  0  0  0  0  0  0  0  0  0
  -23.4760  -30.4230   21.5690 C   0  0  0  0  0  3  0  0  0  0  0  0
  -24.9450  -28.8400   20.1800 C   0  0  0  0  0  0  0  0  0  0  0  0
  -26.0320  -30.6950   21.4310 C   0  0  0  0  0  2  0  0  0  0  0  0
  -26.1180  -29.2970   20.7960 C   0  0  0  0  0  0  0  0  0  0  0  0
  -27.2870  -28.4430   20.8160 C   0  0  0  0  0  3  0  0  0  0  0  0
  -26.0760  -26.7510   19.6010 C   0  0  0  0  0  3  0  0  0  0  0  0
  -24.9380  -27.5810   19.5670 C   0  0  0  0  0  3  0  0  0  0  0  0
  -23.7150  -29.7330   20.2000 C   0  0  0  0  0  2  0  0  0  0  0  0
  -24.7390  -31.0090   22.1220 N   0  0  0  0  0  0  0  0  0  0  0  0
  -23.5560  -32.1290   23.7130 O   0  0  0  0  0  0  0  0  0  0  0  0
  -22.7890  -29.4230   22.5330 C   0  0  0  0  0  0  0  0  0  0  0  0
  -21.4620  -29.2560   22.4020 N   0  0  0  0  0  0  0  0  0  0  0  0
  -23.4550  -28.8010   23.3650 O   0  0  0  0  0  0  0  0  0  0  0  0
  -20.9810  -29.8090   21.7050 H   0  0  0  0  0  0  0  0  0  0  0  0
  -18.0700  -28.0940   22.9190 C   0  0  0  0  0  0  0  0  0  0  0  0
  -20.6320  -28.3280   23.1750 C   0  0  0  0  0  3  0  0  0  0  0  0
  -20.7160  -26.8950   22.6010 C   0  0  0  0  0  2  0  0  0  0  0  0
  -19.6060  -26.5830   21.5920 C   0  0  0  0  0  2  0  0  0  0  0  0
  -18.2280  -26.7430   22.2410 C   0  0  0  0  0  2  0  0  0  0  0  0
  -19.1970  -28.8450   23.3430 C   0  0  0  0  0  0  0  0  0  0  0  0
  -18.9930  -30.1080   23.9380 C   0  0  0  0  0  3  0  0  0  0  0  0
  -17.6930  -30.6210   24.1120 C   0  0  0  0  0  3  0  0  0  0  0  0
  -16.5800  -29.8680   23.7030 C   0  0  0  0  0  3  0  0  0  0  0  0
  -16.7690  -28.6050   23.1120 C   0  0  0  0  0  3  0  0  0  0  0  0
  -25.9180  -32.4920   23.8370 C   0  0  0  0  0  3  0  0  0  0  0  0
  -26.4230  -31.7330   25.1250 C   0  0  1  0  0  0  0  0  0  0  0  0
  -25.3160  -31.4830   26.1760 C   0  0  0  0  0  1  0  0  0  0  0  0
  -27.0330  -30.3610   24.7530 C   0  0  0  0  0  1  0  0  0  0  0  0
  -27.5520  -32.5460   25.8030 C   0  0  0  0  0  1  0  0  0  0  0  0
  -25.5910  -33.8890   24.1610 N   0  0  0  0  0  0  0  0  0  0  0  0
  -25.8990  -34.9440   23.3950 C   0  0  0  0  0  0  0  0  0  0  0  0
  -26.5560  -34.8450   22.3560 O   0  0  0  0  0  0  0  0  0  0  0  0
  -25.0050  -34.0390   24.9700 H   0  0  0  0  0  0  0  0  0  0  0  0
  -24.1460  -36.7180   23.0600 C   0  0  0  0  0  1  0  0  0  0  0  0
  -25.4020  -36.3290   23.8550 C   0  0  0  0  0  3  0  0  0  0  0  0
  -27.5290  -37.2530   24.6650 C   0  0  0  0  0  1  0  0  0  0  0  0
  -26.4220  -37.3950   23.7230 N   0  0  0  0  0  0  0  0  0  0  0  0
  -26.0040  -38.3120   23.8600 H   0  0  0  0  0  0  0  0  0  0  0  0
  1  2  1  0
  1  3  2  0
  2  4  2  0
  3  5  1  0
  4  6  1  0
  4  9  1  0
  5  6  1  0
  5 10  1  0
  6 53  1  0
  7  2  1  0
  8  3  1  0
 13 12  1  6
 13 11  1  0
 13 10  1  0
 13 14  1  0
 15 23  1  0
 16 21  1  0
 17 18  1  0
 17 16  1  0
 19 18  1  0
 19 28  1  0
 19 20  1  0
 21 15  1  0
 21 20  1  0
 22 15  2  0
 23 14  1  0
 23 24  1  0
 25 26  2  0
 26 45  1  0
 27 26  1  0
 27 30  1  0
 28 25  1  0
 28 29  1  0
 29 27  2  0
 30 31  1  0
 31 32  2  0
 33 36  1  0
 33 32  1  0
 34 33  2  0
 35 34  1  0
 35 30  2  0
 36 37  1  0
 37 38  1  0
 38 39  2  0
 40 39  1  0
 40 44  1  0
 41 40  2  0
 42 37  2  0
 42 41  1  0
 43 42  1  0
 45 46  1  0
 46 49  1  0
 46 48  1  0
 47 45  2  0
 50 51  1  0
 50 25  1  0
 52 50  1  0
 53 54  1  0
 55 66  2  0
 56 54  1  0
 56 61  1  0
 57 65  1  0
 57 67  1  0
 58 64  1  0
 58 60  1  0
 59 65  1  0
 60 61  2  0
 60 59  1  0
 62 56  2  0
 63 62  1  0
 63 58  2  0
 64 57  1  0
 65 55  1  0
 67 69  2  0
 68 67  1  0
 70 68  1  0
 71 80  2  0
 71 76  1  0
 72 68  1  0
 72 76  1  0
 73 72  1  0
 74 75  1  0
 74 73  1  0
 75 71  1  0
 76 77  2  0
 77 78  1  0
 79 78  2  0
 80 79  1  0
 81 55  1  0
 81 86  1  0
 81 82  1  0
 82 85  1  1
 82 83  1  0
 84 82  1  0
 86 89  1  0
 87 91  1  0
 87 86  1  0
 88 87  2  0
 91 90  1  0
 93 91  1  0
 93 94  1  0
 93 92  1  0
M  ISO  4  15 100  23 100  53 101  54 101
M  END
>  <TORSDO>  (27) 
F 20

>  <SCORE>  (27) 
-14.589

>  <name>  (27) 
26

>  <ligand_id>  (27) 
26

>  <original_smiles>  (27) 
[H]c1c([H])c([H])c2c(c1[H])C([H])([H])C([H])([H])C([H])([H])C2([H])N([H])C(=O)C1([H])N(C(=O)C([H])(N([H])C(=O)C([H])(N([H])C([H])([H])[H])C([H])([H])[H])C(C([H])([H])[H])(C([H])([H])[H])C([H])([H])[H])C([H])([H])c2c([H])c(OC([H])([H])c3c(C([H])([H])[H])c(C([H])([H])[H])c([H])c(C([H])([H])[H])c3C([H])([H])C(C([H])([H])[H])(C([H])([H])[H])C([H])([H])N([H])C(=O)N3C([H])([H])C([H])([H])C([H])([H])C([H])(n4nc(-c5c([H])c([H])c(Oc6c([H])c([H])c(F)c([H])c6F)c([H])c5[H])c(C(=O)N([H])[H])c4N([H])[H])C3([H])[H])c([H])c([H])c2C1([H])[H]

>  <smiles>  (27) 
[H]c1c([H])c([H])c2c(c1[H])C([H])([H])C([H])([H])C([H])([H])C2([H])N([H])C(=O)C1([H])N(C(=O)C([H])(N([H])C(=O)C([H])(N([H])C([H])([H])[H])C([H])([H])[H])C(C([H])([H])[H])(C([H])([H])[H])C([H])([H])[H])C([H])([H])c2c([H])c(OC([H])([H])c3c(C([H])([H])[H])c(C([H])([H])[H])c([H])c(C([H])([H])[H])c3C([H])([H])C(C([H])([H])[H])(C([H])([H])[H])C([H])([H])N([H])C(=O)N3C([H])([H])C([H])([H])C([H])([H])C([H])(n4nc(-c5c([H])c([H])c(Oc6c([H])c([H])c(F)c([H])c6F)c([H])c5[H])c(C(=O)N([H])[H])c4N([H])[H])C3([H])[H])c([H])c([H])c2C1([H])[H]

$$$$
27:0:0
     RDKit          3D

 95103  0  0  1  0  0  0  0  0999 V2000
  -27.7490  -22.1020   18.6910 C   0  0  0  0  0  3  0  0  0  0  0  0
  -25.5070  -21.1590   18.6450 C   0  0  0  0  0  3  0  0  0  0  0  0
  -27.2660  -23.3190   18.1240 C   0  0  0  0  0  0  0  0  0  0  0  0
  -25.8850  -23.4040   17.7440 C   0  0  0  0  0  0  0  0  0  0  0  0
  -26.8810  -21.0040   18.9220 C   0  0  0  0  0  0  0  0  0  0  0  0
  -25.0080  -22.3340   18.0580 C   0  0  0  0  0  0  0  0  0  0  0  0
  -25.3020  -24.6050   17.0140 C   0  0  0  0  0  1  0  0  0  0  0  0
  -23.3050  -22.4510   17.7390 Cl  0  0  0  0  0  0  0  0  0  0  0  0
  -27.2760  -19.7390   19.4110 N   0  0  0  0  0  0  0  0  0  0  0  0
  -26.5840  -18.9940   19.3490 H   0  0  0  0  0  0  0  0  0  0  0  0
  -28.6610  -19.2970   19.5600 C   0  0  0  0  0  2  0  0  0  0  0  0
  -28.7230  -17.7870   19.9110 C   0  0  0  0  0  2  0  0  0  0  0  0
  -30.1390  -17.1830   20.0920 C   0  0  0  0  0  2  0  0  0  0  0  0
  -30.9420  -14.8000   20.3150 C   0  0  0  0  0  0  0  0  0  0  0  0
  -30.7720  -12.5280   19.3820 C   0  0  0  0  0  2  0  0  0  0  0  0
  -29.8560  -12.6280   18.1420 C   0  0  0  0  0  2  0  0  0  0  0  0
  -28.3640  -12.5360   18.5350 C   0  0  0  0  0  2  0  0  0  0  0  0
  -27.9980  -13.4700   19.7190 C   0  0  0  0  0  3  0  0  0  0  0  0
  -29.0160  -13.2870   20.8690 C   0  0  0  0  0  2  0  0  0  0  0  0
  -30.3540  -13.5730   20.3240 N   0  0  0  0  0  0  0  0  0  0  0  0
  -32.0850  -15.0060   19.8900 O   0  0  0  0  0  0  0  0  0  0  0  0
  -30.0750  -15.7950   20.5730 N   0  0  0  0  0  0  0  0  0  0  0  0
  -29.1850  -15.4920   20.9390 H   0  0  0  0  0  0  0  0  0  0  0  0
  -25.6210  -14.1800   20.4070 C   0  0  0  0  0  0  0  0  0  0  0  0
  -24.5180  -13.4530   20.7560 C   0  0  0  0  0  0  0  0  0  0  0  0
  -24.9180  -12.0810   20.7030 C   0  0  0  0  0  0  0  0  0  0  0  0
  -26.6280  -13.2560   20.1710 N   0  0  0  0  0  0  0  0  0  0  0  0
  -26.2060  -11.9880   20.4060 N   0  0  0  0  0  0  0  0  0  0  0  0
  -24.1400  -10.8500   20.8630 C   0  0  0  0  0  0  0  0  0  0  0  0
  -24.5040   -9.8620   21.8050 C   0  0  0  0  0  3  0  0  0  0  0  0
  -23.7300   -8.6920   21.9500 C   0  0  0  0  0  3  0  0  0  0  0  0
  -22.5780   -8.4990   21.1500 C   0  0  0  0  0  0  0  0  0  0  0  0
  -22.2320   -9.4750   20.1990 C   0  0  0  0  0  3  0  0  0  0  0  0
  -23.0060  -10.6370   20.0520 C   0  0  0  0  0  3  0  0  0  0  0  0
  -21.7810   -7.3820   21.2060 O   0  0  0  0  0  0  0  0  0  0  0  0
  -21.6560   -6.6430   22.3550 C   0  0  0  0  0  0  0  0  0  0  0  0
  -21.1570   -7.2030   23.5510 C   0  0  0  0  0  3  0  0  0  0  0  0
  -20.9820   -6.3900   24.6880 C   0  0  0  0  0  3  0  0  0  0  0  0
  -21.2950   -5.0180   24.6290 C   0  0  0  0  0  0  0  0  0  0  0  0
  -21.7870   -4.4590   23.4370 C   0  0  0  0  0  3  0  0  0  0  0  0
  -21.9650   -5.2690   22.3030 C   0  0  0  0  0  0  0  0  0  0  0  0
  -22.4200   -4.7200   21.1490 F   0  0  0  0  0  0  0  0  0  0  0  0
  -21.1170   -4.2350   25.7190 F   0  0  0  0  0  0  0  0  0  0  0  0
  -23.1390  -13.9830   21.0250 C   0  0  0  0  0  0  0  0  0  0  0  0
  -22.3750  -13.3070   21.8740 N   0  0  0  0  0  0  0  0  0  0  0  0
  -22.7500  -15.0360   20.5170 O   0  0  0  0  0  0  0  0  0  0  0  0
  -22.7010  -12.4570   22.3090 H   0  0  0  0  0  0  0  0  0  0  0  0
  -21.4500  -13.6460   22.0980 H   0  0  0  0  0  0  0  0  0  0  0  0
  -25.8470  -15.5440   20.2460 N   0  0  0  0  0  0  0  0  0  0  0  0
  -25.0900  -16.2150   20.3070 H   0  0  0  0  0  0  0  0  0  0  0  0
  -26.6930  -15.9330   19.8590 H   0  0  0  0  0  0  0  0  0  0  0  0
  -28.2450  -24.4790   17.8690 C   0  0  0  0  0  2  0  0  0  0  0  0
  -29.2510  -24.8620   18.9930 C   0  0  0  0  0  2  0  0  0  0  0  0
  -28.6740  -25.3850   20.3380 C   0  0  0  0  0  2  0  0  0  0  0  0
  -28.7060  -26.8150   20.5250 O   0  0  0  0  0  0  0  0  0  0  0  0
  -24.6740  -31.9680   23.3880 C   0  0  0  0  0  0  0  0  0  0  0  0
  -27.5150  -27.5170   20.4920 C   0  0  0  0  0  0  0  0  0  0  0  0
  -23.5620  -30.5110   21.7310 C   0  0  0  0  0  3  0  0  0  0  0  0
  -25.0950  -28.9860   20.3980 C   0  0  0  0  0  0  0  0  0  0  0  0
  -26.0890  -30.9240   21.6140 C   0  0  0  0  0  2  0  0  0  0  0  0
  -26.2270  -29.5460   21.0020 C   0  0  0  0  0  0  0  0  0  0  0  0
  -27.4450  -28.8230   21.0330 C   0  0  0  0  0  3  0  0  0  0  0  0
  -26.3500  -26.9650   19.9150 C   0  0  0  0  0  3  0  0  0  0  0  0
  -25.1510  -27.6910   19.8600 C   0  0  0  0  0  3  0  0  0  0  0  0
  -23.8330  -29.8130   20.3770 C   0  0  0  0  0  2  0  0  0  0  0  0
  -24.7940  -31.1460   22.3080 N   0  0  0  0  0  0  0  0  0  0  0  0
  -23.5660  -32.2280   23.8810 O   0  0  0  0  0  0  0  0  0  0  0  0
  -22.8840  -29.4940   22.6830 C   0  0  0  0  0  0  0  0  0  0  0  0
  -21.5670  -29.2880   22.5110 N   0  0  0  0  0  0  0  0  0  0  0  0
  -23.5460  -28.8940   23.5350 O   0  0  0  0  0  0  0  0  0  0  0  0
  -21.0940  -29.8210   21.7980 H   0  0  0  0  0  0  0  0  0  0  0  0
  -18.1590  -28.1300   22.9210 C   0  0  0  0  0  0  0  0  0  0  0  0
  -20.7210  -28.3510   23.2530 C   0  0  0  0  0  3  0  0  0  0  0  0
  -20.8140  -26.9180   22.6850 C   0  0  0  0  0  2  0  0  0  0  0  0
  -19.7200  -26.6050   21.6470 C   0  0  0  0  0  2  0  0  0  0  0  0
  -18.3220  -26.7800   22.2390 C   0  0  0  0  0  2  0  0  0  0  0  0
  -19.2800  -28.8700   23.3840 C   0  0  0  0  0  0  0  0  0  0  0  0
  -19.0700  -30.1220   23.9980 C   0  0  0  0  0  3  0  0  0  0  0  0
  -17.7700  -30.6450   24.1410 C   0  0  0  0  0  3  0  0  0  0  0  0
  -16.6650  -29.9140   23.6800 C   0  0  0  0  0  3  0  0  0  0  0  0
  -16.8540  -28.6530   23.0820 C   0  0  0  0  0  3  0  0  0  0  0  0
  -25.9180  -32.6400   24.0510 C   0  0  0  0  0  3  0  0  0  0  0  0
  -25.5780  -34.0460   24.3150 N   0  0  0  0  0  0  0  0  0  0  0  0
  -25.9220  -35.0740   23.5270 C   0  0  0  0  0  0  0  0  0  0  0  0
  -26.6330  -34.9390   22.5230 O   0  0  0  0  0  0  0  0  0  0  0  0
  -24.9550  -34.2250   25.0920 H   0  0  0  0  0  0  0  0  0  0  0  0
  -24.1720  -36.8190   23.0480 C   0  0  0  0  0  1  0  0  0  0  0  0
  -25.3990  -36.4760   23.9100 C   0  0  0  0  0  3  0  0  0  0  0  0
  -27.4910  -37.4400   24.7590 C   0  0  0  0  0  1  0  0  0  0  0  0
  -26.4160  -37.5410   23.7740 N   0  0  0  0  0  0  0  0  0  0  0  0
  -25.9920  -38.4590   23.8580 H   0  0  0  0  0  0  0  0  0  0  0  0
  -26.3790  -31.9230   25.3770 C   0  0  1  0  0  0  0  0  0  0  0  0
  -25.2320  -31.6590   26.3820 C   0  0  0  0  0  1  0  0  0  0  0  0
  -27.0400  -30.5640   25.0500 C   0  0  0  0  0  1  0  0  0  0  0  0
  -27.4530  -32.7780   26.0910 C   0  0  0  0  0  1  0  0  0  0  0  0
  1  5  1  0
  2  5  2  0
  3  1  2  0
  4  6  2  0
  4  3  1  0
  5  9  1  0
  6  2  1  0
  7  4  1  0
  8  6  1  0
  9 11  1  0
 10  9  1  0
 11 12  1  0
 12 13  1  0
 13 22  1  0
 14 20  1  0
 14 22  1  0
 15 20  1  0
 16 17  1  0
 16 15  1  0
 18 17  1  0
 18 27  1  0
 18 19  1  0
 20 19  1  0
 21 14  2  0
 22 23  1  0
 24 25  2  0
 25 44  1  0
 26 25  1  0
 26 29  1  0
 27 28  1  0
 27 24  1  0
 28 26  2  0
 29 30  1  0
 30 31  2  0
 32 35  1  0
 32 31  1  0
 33 32  2  0
 34 33  1  0
 34 29  2  0
 35 36  1  0
 36 37  1  0
 37 38  2  0
 39 38  1  0
 39 43  1  0
 40 39  2  0
 41 36  2  0
 41 40  1  0
 42 41  1  0
 44 45  1  0
 45 48  1  0
 45 47  1  0
 46 44  2  0
 49 50  1  0
 49 24  1  0
 51 49  1  0
 52  3  1  0
 52 53  1  0
 53 54  1  0
 54 55  1  0
 56 67  2  0
 57 55  1  0
 57 62  1  0
 58 66  1  0
 58 68  1  0
 59 61  1  0
 60 66  1  0
 61 62  2  0
 61 60  1  0
 63 57  2  0
 64 63  1  0
 64 59  2  0
 65 59  1  0
 65 58  1  0
 66 56  1  0
 68 70  2  0
 69 68  1  0
 71 69  1  0
 72 81  2  0
 72 77  1  0
 73 69  1  0
 73 77  1  0
 74 73  1  0
 75 76  1  0
 75 74  1  0
 76 72  1  0
 77 78  2  0
 78 79  1  0
 80 79  2  0
 81 80  1  0
 82 56  1  0
 82 83  1  0
 82 92  1  0
 83 86  1  0
 84 88  1  0
 84 83  1  0
 85 84  2  0
 88 87  1  0
 90 91  1  0
 90 88  1  0
 90 89  1  0
 92 95  1  1
 92 93  1  0
 94 92  1  0
M  ISO  4  14 100  22 100  54 101  55 101
M  END
>  <TORSDO>  (28) 
F 23

>  <SCORE>  (28) 
-12.293

>  <name>  (28) 
27

>  <ligand_id>  (28) 
27

>  <original_smiles>  (28) 
[H]c1c([H])c([H])c2c(c1[H])C([H])([H])C([H])([H])C([H])([H])C2([H])N([H])C(=O)C1([H])N(C(=O)C([H])(N([H])C(=O)C([H])(N([H])C([H])([H])[H])C([H])([H])[H])C(C([H])([H])[H])(C([H])([H])[H])C([H])([H])[H])C([H])([H])c2c([H])c(OC([H])([H])C([H])([H])C([H])([H])c3c([H])c(N([H])C([H])([H])C([H])([H])C([H])([H])N([H])C(=O)N4C([H])([H])C([H])([H])C([H])([H])C([H])(n5nc(-c6c([H])c([H])c(Oc7c([H])c([H])c(F)c([H])c7F)c([H])c6[H])c(C(=O)N([H])[H])c5N([H])[H])C4([H])[H])c([H])c(Cl)c3C([H])([H])[H])c([H])c([H])c2C1([H])[H]

>  <smiles>  (28) 
[H]c1c([H])c([H])c2c(c1[H])C([H])([H])C([H])([H])C([H])([H])C2([H])N([H])C(=O)C1([H])N(C(=O)C([H])(N([H])C(=O)C([H])(N([H])C([H])([H])[H])C([H])([H])[H])C(C([H])([H])[H])(C([H])([H])[H])C([H])([H])[H])C([H])([H])c2c([H])c(OC([H])([H])C([H])([H])C([H])([H])c3c([H])c(N([H])C([H])([H])C([H])([H])C([H])([H])N([H])C(=O)N4C([H])([H])C([H])([H])C([H])([H])C([H])(n5nc(-c6c([H])c([H])c(Oc7c([H])c([H])c(F)c([H])c7F)c([H])c6[H])c(C(=O)N([H])[H])c5N([H])[H])C4([H])[H])c([H])c(Cl)c3C([H])([H])[H])c([H])c([H])c2C1([H])[H]

$$$$
28:0:0
     RDKit          3D

 91 99  0  0  1  0  0  0  0  0999 V2000
  -28.5070  -21.3720   21.6240 C   0  0  0  0  0  3  0  0  0  0  0  0
  -29.3890  -21.4870   19.0860 C   0  0  0  0  0  3  0  0  0  0  0  0
  -28.9960  -20.1550   21.0570 C   0  0  0  0  0  0  0  0  0  0  0  0
  -28.4400  -22.6470   20.9800 C   0  0  0  0  0  0  0  0  0  0  0  0
  -29.4910  -20.0730   19.7290 C   0  0  0  0  0  0  0  0  0  0  0  0
  -28.8720  -22.8470   19.6470 C   0  0  0  0  0  0  0  0  0  0  0  0
  -28.9970  -18.9160   21.9340 C   0  0  0  0  0  1  0  0  0  0  0  0
  -27.8720  -23.8200   21.7600 C   0  0  0  0  0  1  0  0  0  0  0  0
  -29.9970  -24.7180   18.2260 C   0  0  0  0  0  1  0  0  0  0  0  0
  -27.6320  -24.2060   17.7790 C   0  0  0  0  0  1  0  0  0  0  0  0
  -28.6460  -24.4420   18.9060 C   0  0  1  0  0  0  0  0  0  0  0  0
  -28.4390  -26.0010   19.5130 O   0  0  0  0  0  0  0  0  0  0  0  0
  -24.7290  -31.6740   22.9140 C   0  0  0  0  0  0  0  0  0  0  0  0
  -27.3780  -27.0790   19.4790 C   0  0  0  0  0  0  0  0  0  0  0  0
  -23.5360  -30.3250   21.2390 C   0  0  0  0  0  3  0  0  0  0  0  0
  -24.9950  -28.8870   19.6550 C   0  0  0  0  0  0  0  0  0  0  0  0
  -26.0860  -30.6550   21.0110 C   0  0  0  0  0  2  0  0  0  0  0  0
  -26.1900  -29.2920   20.2580 C   0  0  0  0  0  0  0  0  0  0  0  0
  -27.3650  -28.4080   20.1520 C   0  0  0  0  0  3  0  0  0  0  0  0
  -26.1330  -26.8470   18.8450 C   0  0  0  0  0  3  0  0  0  0  0  0
  -24.9920  -27.6880   18.9300 C   0  0  0  0  0  3  0  0  0  0  0  0
  -23.7390  -29.7450   19.8130 C   0  0  0  0  0  2  0  0  0  0  0  0
  -24.8070  -30.9100   21.7740 N   0  0  0  0  0  0  0  0  0  0  0  0
  -23.6490  -31.8790   23.4920 O   0  0  0  0  0  0  0  0  0  0  0  0
  -22.9270  -29.2400   22.1660 C   0  0  0  0  0  0  0  0  0  0  0  0
  -21.6020  -29.0150   22.0800 N   0  0  0  0  0  0  0  0  0  0  0  0
  -23.6530  -28.6020   22.9320 O   0  0  0  0  0  0  0  0  0  0  0  0
  -21.0640  -29.5840   21.4410 H   0  0  0  0  0  0  0  0  0  0  0  0
  -18.3070  -27.5960   22.6360 C   0  0  0  0  0  0  0  0  0  0  0  0
  -20.8580  -27.9910   22.8230 C   0  0  0  0  0  3  0  0  0  0  0  0
  -21.0130  -26.6020   22.1620 C   0  0  0  0  0  2  0  0  0  0  0  0
  -19.8920  -26.2770   21.1690 C   0  0  0  0  0  2  0  0  0  0  0  0
  -18.5300  -26.3030   21.8700 C   0  0  0  0  0  2  0  0  0  0  0  0
  -19.3980  -28.3970   23.0700 C   0  0  0  0  0  0  0  0  0  0  0  0
  -19.1310  -29.6040   23.7520 C   0  0  0  0  0  3  0  0  0  0  0  0
  -17.8080  -30.0130   24.0020 C   0  0  0  0  0  3  0  0  0  0  0  0
  -16.7320  -29.2120   23.5800 C   0  0  0  0  0  3  0  0  0  0  0  0
  -16.9830  -28.0050   22.9040 C   0  0  0  0  0  3  0  0  0  0  0  0
  -25.9910  -32.3410   23.5370 C   0  0  0  0  0  3  0  0  0  0  0  0
  -25.6130  -33.6900   23.9970 N   0  0  0  0  0  0  0  0  0  0  0  0
  -25.8790  -34.8280   23.3420 C   0  0  0  0  0  0  0  0  0  0  0  0
  -26.5310  -34.8560   22.2940 O   0  0  0  0  0  0  0  0  0  0  0  0
  -25.0280  -33.7380   24.8170 H   0  0  0  0  0  0  0  0  0  0  0  0
  -24.0670  -36.5730   23.1940 C   0  0  0  0  0  1  0  0  0  0  0  0
  -25.3410  -36.1450   23.9410 C   0  0  0  0  0  3  0  0  0  0  0  0
  -27.4440  -37.0510   24.8320 C   0  0  0  0  0  1  0  0  0  0  0  0
  -26.3240  -37.2510   23.9160 N   0  0  0  0  0  0  0  0  0  0  0  0
  -25.8790  -38.1350   24.1480 H   0  0  0  0  0  0  0  0  0  0  0  0
  -26.5990  -31.5140   24.7370 C   0  0  1  0  0  0  0  0  0  0  0  0
  -25.5650  -31.1400   25.8250 C   0  0  0  0  0  1  0  0  0  0  0  0
  -27.2410  -30.1990   24.2350 C   0  0  0  0  0  1  0  0  0  0  0  0
  -27.7320  -32.3240   25.4110 C   0  0  0  0  0  1  0  0  0  0  0  0
  -30.1620  -18.5250   19.1710 C   0  0  0  0  0  2  0  0  0  0  0  0
  -30.8070  -15.6150   19.4300 C   0  0  0  0  0  0  0  0  0  0  0  0
  -30.7770  -13.1190   18.6680 C   0  0  0  0  0  2  0  0  0  0  0  0
  -29.7450  -12.8170   17.5510 C   0  0  0  0  0  2  0  0  0  0  0  0
  -28.3630  -12.5130   18.1550 C   0  0  0  0  0  2  0  0  0  0  0  0
  -27.9970  -13.5100   19.2820 C   0  0  0  0  0  3  0  0  0  0  0  0
  -29.1510  -13.7540   20.2800 C   0  0  0  0  0  2  0  0  0  0  0  0
  -30.2840  -14.2840   19.5010 N   0  0  0  0  0  0  0  0  0  0  0  0
  -31.9850  -15.6230   19.0390 O   0  0  0  0  0  0  0  0  0  0  0  0
  -30.0350  -16.8890   19.5900 N   0  0  0  0  0  0  0  0  0  0  0  0
  -29.1090  -16.6810   19.9310 H   0  0  0  0  0  0  0  0  0  0  0  0
  -25.7680  -14.0400   20.3930 C   0  0  0  0  0  0  0  0  0  0  0  0
  -24.7460  -13.2530   20.8440 C   0  0  0  0  0  0  0  0  0  0  0  0
  -25.1690  -11.9030   20.6460 C   0  0  0  0  0  0  0  0  0  0  0  0
  -26.7450  -13.1710   19.9430 N   0  0  0  0  0  0  0  0  0  0  0  0
  -26.4060  -11.8730   20.1610 N   0  0  0  0  0  0  0  0  0  0  0  0
  -24.4400  -10.6410   20.8360 C   0  0  0  0  0  0  0  0  0  0  0  0
  -24.8560   -9.6820   21.7850 C   0  0  0  0  0  3  0  0  0  0  0  0
  -24.1240   -8.4870   21.9650 C   0  0  0  0  0  3  0  0  0  0  0  0
  -22.9620   -8.2440   21.1940 C   0  0  0  0  0  0  0  0  0  0  0  0
  -22.5650   -9.1930   20.2340 C   0  0  0  0  0  3  0  0  0  0  0  0
  -23.2970  -10.3770   20.0540 C   0  0  0  0  0  3  0  0  0  0  0  0
  -22.2030   -7.1020   21.2820 O   0  0  0  0  0  0  0  0  0  0  0  0
  -21.9590   -6.4910   22.4860 C   0  0  0  0  0  0  0  0  0  0  0  0
  -21.3060   -7.1610   23.5430 C   0  0  0  0  0  3  0  0  0  0  0  0
  -21.0130   -6.4730   24.7380 C   0  0  0  0  0  3  0  0  0  0  0  0
  -21.3620   -5.1170   24.8750 C   0  0  0  0  0  0  0  0  0  0  0  0
  -22.0080   -4.4460   23.8210 C   0  0  0  0  0  3  0  0  0  0  0  0
  -22.3020   -5.1300   22.6280 C   0  0  0  0  0  0  0  0  0  0  0  0
  -22.9050   -4.4740   21.6080 F   0  0  0  0  0  0  0  0  0  0  0  0
  -21.0750   -4.4530   26.0190 F   0  0  0  0  0  0  0  0  0  0  0  0
  -23.4100  -13.7300   21.3310 C   0  0  0  0  0  0  0  0  0  0  0  0
  -22.7970  -12.9970   22.2540 N   0  0  0  0  0  0  0  0  0  0  0  0
  -22.9250  -14.7870   20.9310 O   0  0  0  0  0  0  0  0  0  0  0  0
  -23.2060  -12.1410   22.5970 H   0  0  0  0  0  0  0  0  0  0  0  0
  -21.9050  -13.2970   22.6220 H   0  0  0  0  0  0  0  0  0  0  0  0
  -25.9380  -15.4180   20.2970 N   0  0  0  0  0  0  0  0  0  0  0  0
  -25.2020  -16.0680   20.5530 H   0  0  0  0  0  0  0  0  0  0  0  0
  -26.7220  -15.8690   19.8440 H   0  0  0  0  0  0  0  0  0  0  0  0
  2  6  2  0
  2  5  1  0
  3  1  1  0
  3  7  1  0
  4  1  2  0
  4  8  1  0
  5  3  2  0
  6  4  1  0
 11  9  1  6
 10 11  1  0
 11 12  1  0
 11  6  1  0
 13 24  2  0
 14 12  1  0
 14 19  1  0
 15 23  1  0
 15 25  1  0
 16 22  1  0
 16 18  1  0
 17 23  1  0
 18 17  1  0
 19 18  2  0
 20 21  1  0
 20 14  2  0
 21 16  2  0
 22 15  1  0
 23 13  1  0
 25 27  2  0
 26 25  1  0
 28 26  1  0
 29 38  2  0
 29 34  1  0
 30 26  1  0
 30 34  1  0
 31 30  1  0
 32 33  1  0
 32 31  1  0
 33 29  1  0
 34 35  2  0
 35 36  1  0
 37 36  2  0
 38 37  1  0
 39 13  1  0
 39 40  1  0
 39 49  1  0
 40 43  1  0
 41 45  1  0
 41 40  1  0
 42 41  2  0
 45 44  1  0
 47 45  1  0
 47 48  1  0
 47 46  1  0
 49 52  1  1
 49 50  1  0
 51 49  1  0
 53 62  1  0
 53  5  1  0
 54 60  1  0
 54 62  1  0
 55 60  1  0
 56 57  1  0
 56 55  1  0
 58 57  1  0
 58 67  1  0
 58 59  1  0
 60 59  1  0
 61 54  2  0
 62 63  1  0
 64 65  2  0
 65 84  1  0
 66 69  1  0
 66 65  1  0
 67 68  1  0
 67 64  1  0
 68 66  2  0
 69 70  1  0
 70 71  2  0
 72 75  1  0
 72 71  1  0
 73 72  2  0
 74 73  1  0
 74 69  2  0
 75 76  1  0
 76 81  2  0
 76 77  1  0
 77 78  2  0
 78 79  1  0
 79 83  1  0
 80 79  2  0
 81 80  1  0
 82 81  1  0
 84 85  1  0
 85 87  1  0
 85 88  1  0
 86 84  2  0
 89 64  1  0
 89 90  1  0
 91 89  1  0
M  ISO  4  11 101  12 101  54 100  62 100
M  END
>  <TORSDO>  (29) 
F 18

>  <SCORE>  (29) 
-12.658

>  <name>  (29) 
28

>  <ligand_id>  (29) 
28

>  <original_smiles>  (29) 
[H]c1c([H])c([H])c2c(c1[H])C([H])([H])C([H])([H])C([H])([H])C2([H])N([H])C(=O)C1([H])N(C(=O)C([H])(N([H])C(=O)C([H])(N([H])C([H])([H])[H])C([H])([H])[H])C(C([H])([H])[H])(C([H])([H])[H])C([H])([H])[H])C([H])([H])c2c([H])c(OC(c3c([H])c(C([H])([H])N([H])C(=O)N4C([H])([H])C([H])([H])C([H])([H])C([H])(n5nc(-c6c([H])c([H])c(Oc7c([H])c([H])c(F)c([H])c7F)c([H])c6[H])c(C(=O)N([H])[H])c5N([H])[H])C4([H])[H])c(C([H])([H])[H])c([H])c3C([H])([H])[H])(C([H])([H])[H])C([H])([H])[H])c([H])c([H])c2C1([H])[H]

>  <smiles>  (29) 
[H]c1c([H])c([H])c2c(c1[H])C([H])([H])C([H])([H])C([H])([H])C2([H])N([H])C(=O)C1([H])N(C(=O)C([H])(N([H])C(=O)C([H])(N([H])C([H])([H])[H])C([H])([H])[H])C(C([H])([H])[H])(C([H])([H])[H])C([H])([H])[H])C([H])([H])c2c([H])c(OC(c3c([H])c(C([H])([H])N([H])C(=O)N4C([H])([H])C([H])([H])C([H])([H])C([H])(n5nc(-c6c([H])c([H])c(Oc7c([H])c([H])c(F)c([H])c7F)c([H])c6[H])c(C(=O)N([H])[H])c5N([H])[H])C4([H])[H])c(C([H])([H])[H])c([H])c3C([H])([H])[H])(C([H])([H])[H])C([H])([H])[H])c([H])c([H])c2C1([H])[H]

$$$$
29:0:0
     RDKit          3D

 89 97  0  0  1  0  0  0  0  0999 V2000
  -29.1680  -19.9800   18.6550 C   0  0  0  0  0  3  0  0  0  0  0  0
  -28.8510  -21.1910   17.9780 C   0  0  0  0  0  3  0  0  0  0  0  0
  -29.2990  -19.8890   20.0570 C   0  0  0  0  0  0  0  0  0  0  0  0
  -28.6540  -22.6460   19.9960 C   0  0  0  0  0  0  0  0  0  0  0  0
  -28.6070  -22.4510   18.5980 C   0  0  0  0  0  0  0  0  0  0  0  0
  -29.0150  -21.2900   20.6810 C   0  0  0  0  0  0  0  0  0  0  0  0
  -28.2810  -23.4990   17.8040 F   0  0  0  0  0  0  0  0  0  0  0  0
  -29.1100  -21.3470   22.4030 Cl  0  0  0  0  0  0  0  0  0  0  0  0
  -29.8800  -18.3360   20.6890 C   0  0  0  0  0  2  0  0  0  0  0  0
  -30.4660  -15.3950   20.3670 C   0  0  0  0  0  0  0  0  0  0  0  0
  -30.4940  -12.9170   19.5310 C   0  0  0  0  0  2  0  0  0  0  0  0
  -29.6090  -12.6300   18.2910 C   0  0  0  0  0  2  0  0  0  0  0  0
  -28.1540  -12.3520   18.7060 C   0  0  0  0  0  2  0  0  0  0  0  0
  -27.6600  -13.3500   19.7820 C   0  0  0  0  0  3  0  0  0  0  0  0
  -28.6780  -13.5600   20.9220 C   0  0  0  0  0  2  0  0  0  0  0  0
  -29.9050  -14.0810   20.2920 N   0  0  0  0  0  0  0  0  0  0  0  0
  -31.7030  -15.3720   20.2640 O   0  0  0  0  0  0  0  0  0  0  0  0
  -29.6970  -16.6820   20.3610 N   0  0  0  0  0  0  0  0  0  0  0  0
  -28.7160  -16.4670   20.2690 H   0  0  0  0  0  0  0  0  0  0  0  0
  -25.2730  -13.9150   20.4670 C   0  0  0  0  0  0  0  0  0  0  0  0
  -24.2030  -13.1430   20.8210 C   0  0  0  0  0  0  0  0  0  0  0  0
  -24.6740  -11.7940   20.8320 C   0  0  0  0  0  0  0  0  0  0  0  0
  -26.3230  -13.0380   20.2680 N   0  0  0  0  0  0  0  0  0  0  0  0
  -25.9740  -11.7570   20.5570 N   0  0  0  0  0  0  0  0  0  0  0  0
  -23.9420  -10.5340   21.0240 C   0  0  0  0  0  0  0  0  0  0  0  0
  -24.3590   -9.5750   21.9740 C   0  0  0  0  0  3  0  0  0  0  0  0
  -23.6260   -8.3830   22.1560 C   0  0  0  0  0  3  0  0  0  0  0  0
  -22.4620   -8.1410   21.3880 C   0  0  0  0  0  0  0  0  0  0  0  0
  -22.0650   -9.0880   20.4280 C   0  0  0  0  0  3  0  0  0  0  0  0
  -22.7990  -10.2720   20.2430 C   0  0  0  0  0  3  0  0  0  0  0  0
  -21.7010   -6.9990   21.4780 O   0  0  0  0  0  0  0  0  0  0  0  0
  -21.6480   -6.2600   22.6320 C   0  0  0  0  0  0  0  0  0  0  0  0
  -21.2360   -6.8230   23.8590 C   0  0  0  0  0  3  0  0  0  0  0  0
  -21.1280   -6.0100   25.0050 C   0  0  0  0  0  3  0  0  0  0  0  0
  -21.4220   -4.6370   24.9260 C   0  0  0  0  0  0  0  0  0  0  0  0
  -21.8290   -4.0730   23.7030 C   0  0  0  0  0  3  0  0  0  0  0  0
  -21.9370   -4.8830   22.5590 C   0  0  0  0  0  0  0  0  0  0  0  0
  -22.3080   -4.3300   21.3780 F   0  0  0  0  0  0  0  0  0  0  0  0
  -21.3130   -3.8540   26.0250 F   0  0  0  0  0  0  0  0  0  0  0  0
  -22.7970  -13.6230   21.0350 C   0  0  0  0  0  0  0  0  0  0  0  0
  -22.0440  -12.9480   21.8970 N   0  0  0  0  0  0  0  0  0  0  0  0
  -22.3750  -14.6330   20.4730 O   0  0  0  0  0  0  0  0  0  0  0  0
  -22.3990  -12.1320   22.3730 H   0  0  0  0  0  0  0  0  0  0  0  0
  -21.0990  -13.2540   22.0840 H   0  0  0  0  0  0  0  0  0  0  0  0
  -25.4340  -15.2830   20.2650 N   0  0  0  0  0  0  0  0  0  0  0  0
  -24.6570  -15.9310   20.3360 H   0  0  0  0  0  0  0  0  0  0  0  0
  -26.2770  -15.7170   19.9120 H   0  0  0  0  0  0  0  0  0  0  0  0
  -28.0990  -24.2250   20.5840 C   0  0  0  0  0  2  0  0  0  0  0  0
  -28.2760  -25.8250   20.1320 O   0  0  0  0  0  0  0  0  0  0  0  0
  -24.7060  -31.8570   23.1450 C   0  0  0  0  0  0  0  0  0  0  0  0
  -27.2570  -26.9310   20.1600 C   0  0  0  0  0  0  0  0  0  0  0  0
  -23.5060  -30.4410   21.5310 C   0  0  0  0  0  3  0  0  0  0  0  0
  -24.9510  -28.8230   20.1160 C   0  0  0  0  0  0  0  0  0  0  0  0
  -26.0720  -30.6550   21.3610 C   0  0  0  0  0  2  0  0  0  0  0  0
  -26.1460  -29.2340   20.7200 C   0  0  0  0  0  0  0  0  0  0  0  0
  -27.2950  -28.3130   20.7080 C   0  0  0  0  0  3  0  0  0  0  0  0
  -26.0260  -26.6790   19.5130 C   0  0  0  0  0  3  0  0  0  0  0  0
  -24.9170  -27.5660   19.4910 C   0  0  0  0  0  3  0  0  0  0  0  0
  -23.7300  -29.7440   20.1610 C   0  0  0  0  0  2  0  0  0  0  0  0
  -24.7840  -31.0130   22.0650 N   0  0  0  0  0  0  0  0  0  0  0  0
  -23.6180  -32.1460   23.6730 O   0  0  0  0  0  0  0  0  0  0  0  0
  -22.8230  -29.4520   22.5120 C   0  0  0  0  0  0  0  0  0  0  0  0
  -21.4910  -29.2850   22.4050 N   0  0  0  0  0  0  0  0  0  0  0  0
  -23.4980  -28.8340   23.3380 O   0  0  0  0  0  0  0  0  0  0  0  0
  -20.9980  -29.8350   21.7150 H   0  0  0  0  0  0  0  0  0  0  0  0
  -18.1190  -28.0620   22.9590 C   0  0  0  0  0  0  0  0  0  0  0  0
  -20.6800  -28.3500   23.1930 C   0  0  0  0  0  3  0  0  0  0  0  0
  -20.7850  -26.9130   22.6300 C   0  0  0  0  0  2  0  0  0  0  0  0
  -19.6750  -26.5740   21.6300 C   0  0  0  0  0  2  0  0  0  0  0  0
  -18.2990  -26.7110   22.2880 C   0  0  0  0  0  2  0  0  0  0  0  0
  -19.2360  -28.8390   23.3700 C   0  0  0  0  0  0  0  0  0  0  0  0
  -19.0110  -30.1010   23.9620 C   0  0  0  0  0  3  0  0  0  0  0  0
  -17.7020  -30.5870   24.1440 C   0  0  0  0  0  3  0  0  0  0  0  0
  -16.6010  -29.8100   23.7470 C   0  0  0  0  0  3  0  0  0  0  0  0
  -16.8100  -28.5490   23.1610 C   0  0  0  0  0  3  0  0  0  0  0  0
  -25.9760  -32.5150   23.7640 C   0  0  0  0  0  3  0  0  0  0  0  0
  -25.6400  -33.9040   24.1240 N   0  0  0  0  0  0  0  0  0  0  0  0
  -25.9410  -34.9840   23.3910 C   0  0  0  0  0  0  0  0  0  0  0  0
  -26.5930  -34.9150   22.3450 O   0  0  0  0  0  0  0  0  0  0  0  0
  -25.0570  -34.0280   24.9390 H   0  0  0  0  0  0  0  0  0  0  0  0
  -24.1780  -36.7630   23.1250 C   0  0  0  0  0  1  0  0  0  0  0  0
  -25.4460  -36.3550   23.8930 C   0  0  0  0  0  3  0  0  0  0  0  0
  -27.5880  -37.2590   24.6880 C   0  0  0  0  0  1  0  0  0  0  0  0
  -26.4590  -37.4290   23.7780 N   0  0  0  0  0  0  0  0  0  0  0  0
  -26.0410  -38.3380   23.9560 H   0  0  0  0  0  0  0  0  0  0  0  0
  -26.5180  -31.7430   25.0310 C   0  0  1  0  0  0  0  0  0  0  0  0
  -25.4420  -31.4880   26.1130 C   0  0  0  0  0  1  0  0  0  0  0  0
  -27.1120  -30.3730   24.6330 C   0  0  0  0  0  1  0  0  0  0  0  0
  -27.6680  -32.5470   25.6810 C   0  0  0  0  0  1  0  0  0  0  0  0
  1  3  1  0
  2  5  1  0
  2  1  2  0
  3  6  2  0
  3  9  1  0
  4 48  1  0
  4  6  1  0
  5  4  2  0
  6  8  1  0
  7  5  1  0
 11 16  1  0
 12 13  1  0
 12 11  1  0
 14 13  1  0
 14 23  1  0
 14 15  1  0
 16 10  1  0
 16 15  1  0
 17 10  2  0
 18 10  1  0
 18  9  1  0
 19 18  1  0
 20 21  2  0
 21 22  1  0
 21 40  1  0
 22 25  1  0
 23 20  1  0
 23 24  1  0
 24 22  2  0
 25 26  1  0
 26 27  2  0
 28 31  1  0
 28 27  1  0
 29 28  2  0
 30 29  1  0
 30 25  2  0
 31 32  1  0
 32 33  1  0
 33 34  2  0
 35 34  1  0
 35 39  1  0
 36 35  2  0
 37 32  2  0
 37 36  1  0
 38 37  1  0
 40 41  1  0
 41 44  1  0
 41 43  1  0
 42 40  2  0
 45 46  1  0
 45 20  1  0
 47 45  1  0
 49 51  1  0
 49 48  1  0
 50 61  2  0
 51 56  1  0
 52 60  1  0
 52 62  1  0
 53 59  1  0
 53 55  1  0
 54 60  1  0
 55 54  1  0
 56 55  2  0
 57 51  2  0
 58 57  1  0
 58 53  2  0
 59 52  1  0
 60 50  1  0
 62 64  2  0
 63 62  1  0
 65 63  1  0
 66 75  2  0
 66 71  1  0
 67 63  1  0
 67 71  1  0
 68 67  1  0
 69 70  1  0
 69 68  1  0
 70 66  1  0
 71 72  2  0
 72 73  1  0
 74 73  2  0
 75 74  1  0
 76 50  1  0
 76 77  1  0
 76 86  1  0
 77 80  1  0
 78 82  1  0
 78 77  1  0
 79 78  2  0
 82 81  1  0
 84 82  1  0
 84 85  1  0
 84 83  1  0
 86 89  1  1
 86 87  1  0
 88 86  1  0
M  ISO  4  10 100  18 100  48 101  49 101
M  END
>  <TORSDO>  (30) 
F 18

>  <SCORE>  (30) 
-16.521

>  <name>  (30) 
29

>  <ligand_id>  (30) 
29

>  <original_smiles>  (30) 
[H]c1c([H])c([H])c2c(c1[H])C([H])([H])C([H])([H])C([H])([H])C2([H])N([H])C(=O)C1([H])N(C(=O)C([H])(N([H])C(=O)C([H])(N([H])C([H])([H])[H])C([H])([H])[H])C(C([H])([H])[H])(C([H])([H])[H])C([H])([H])[H])C([H])([H])c2c([H])c(OC([H])([H])c3c(F)c([H])c([H])c(C([H])([H])N([H])C(=O)N4C([H])([H])C([H])([H])C([H])([H])C([H])(n5nc(-c6c([H])c([H])c(Oc7c([H])c([H])c(F)c([H])c7F)c([H])c6[H])c(C(=O)N([H])[H])c5N([H])[H])C4([H])[H])c3Cl)c([H])c([H])c2C1([H])[H]

>  <smiles>  (30) 
[H]c1c([H])c([H])c2c(c1[H])C([H])([H])C([H])([H])C([H])([H])C2([H])N([H])C(=O)C1([H])N(C(=O)C([H])(N([H])C(=O)C([H])(N([H])C([H])([H])[H])C([H])([H])[H])C(C([H])([H])[H])(C([H])([H])[H])C([H])([H])[H])C([H])([H])c2c([H])c(OC([H])([H])c3c(F)c([H])c([H])c(C([H])([H])N([H])C(=O)N4C([H])([H])C([H])([H])C([H])([H])C([H])(n5nc(-c6c([H])c([H])c(Oc7c([H])c([H])c(F)c([H])c7F)c([H])c6[H])c(C(=O)N([H])[H])c5N([H])[H])C4([H])[H])c3Cl)c([H])c([H])c2C1([H])[H]

$$$$
30:0:0
     RDKit          3D

 95103  0  0  1  0  0  0  0  0999 V2000
  -30.8200  -21.4910   20.7420 C   0  0  0  0  0  0  0  0  0  0  0  0
  -29.0940  -18.9480   20.8890 C   0  0  0  0  0  2  0  0  0  0  0  0
  -31.6460  -19.0800   20.8700 C   0  0  0  0  0  2  0  0  0  0  0  0
  -28.8040  -20.2520   20.0550 C   0  0  0  0  0  2  0  0  0  0  0  0
  -31.6880  -20.4020   20.0630 C   0  0  0  0  0  3  0  0  0  0  0  0
  -30.4210  -18.1680   20.6100 C   0  0  0  0  0  3  0  0  0  0  0  0
  -29.4870  -21.4980   20.5130 N   0  0  0  0  0  0  0  0  0  0  0  0
  -31.3660  -22.3500   21.4430 O   0  0  0  0  0  0  0  0  0  0  0  0
  -33.1550  -20.8630   19.8450 C   0  0  0  0  0  2  0  0  0  0  0  0
  -33.3250  -22.0500   18.8750 C   0  0  0  0  0  2  0  0  0  0  0  0
  -34.9650  -23.6370   17.7380 C   0  0  0  0  0  1  0  0  0  0  0  0
  -34.7990  -22.4150   18.6500 C   0  0  0  0  0  2  0  0  0  0  0  0
  -30.5930  -16.8600   21.4760 C   0  0  0  0  0  2  0  0  0  0  0  0
  -30.6650  -14.5510   20.4360 C   0  0  0  0  0  0  0  0  0  0  0  0
  -30.3590  -12.3850   19.2730 C   0  0  0  0  0  2  0  0  0  0  0  0
  -29.4110  -12.5700   18.0710 C   0  0  0  0  0  2  0  0  0  0  0  0
  -27.9410  -12.4250   18.5110 C   0  0  0  0  0  2  0  0  0  0  0  0
  -27.6060  -13.2650   19.7740 C   0  0  0  0  0  3  0  0  0  0  0  0
  -28.6690  -13.0630   20.8770 C   0  0  0  0  0  2  0  0  0  0  0  0
  -29.9810  -13.3790   20.2930 N   0  0  0  0  0  0  0  0  0  0  0  0
  -31.8040  -14.7030   19.9890 O   0  0  0  0  0  0  0  0  0  0  0  0
  -29.9950  -15.5880   20.9950 N   0  0  0  0  0  0  0  0  0  0  0  0
  -29.0420  -15.4030   21.2710 H   0  0  0  0  0  0  0  0  0  0  0  0
  -25.2140  -13.8700   20.4930 C   0  0  0  0  0  0  0  0  0  0  0  0
  -24.1460  -13.0990   20.8640 C   0  0  0  0  0  0  0  0  0  0  0  0
  -24.6070  -11.7470   20.8340 C   0  0  0  0  0  0  0  0  0  0  0  0
  -26.2570  -12.9880   20.2590 N   0  0  0  0  0  0  0  0  0  0  0  0
  -25.8970  -11.7060   20.5240 N   0  0  0  0  0  0  0  0  0  0  0  0
  -23.8790  -10.4850   21.0260 C   0  0  0  0  0  0  0  0  0  0  0  0
  -24.3150   -9.5140   21.9550 C   0  0  0  0  0  3  0  0  0  0  0  0
  -23.5880   -8.3180   22.1350 C   0  0  0  0  0  3  0  0  0  0  0  0
  -22.4110   -8.0840   21.3850 C   0  0  0  0  0  0  0  0  0  0  0  0
  -21.9940   -9.0420   20.4450 C   0  0  0  0  0  3  0  0  0  0  0  0
  -22.7220  -10.2300   20.2640 C   0  0  0  0  0  3  0  0  0  0  0  0
  -21.6550   -6.9400   21.4740 O   0  0  0  0  0  0  0  0  0  0  0  0
  -21.6140   -6.1910   22.6230 C   0  0  0  0  0  0  0  0  0  0  0  0
  -21.2000   -6.7420   23.8560 C   0  0  0  0  0  3  0  0  0  0  0  0
  -21.1070   -5.9200   24.9970 C   0  0  0  0  0  3  0  0  0  0  0  0
  -21.4170   -4.5490   24.9070 C   0  0  0  0  0  0  0  0  0  0  0  0
  -21.8240   -3.9990   23.6790 C   0  0  0  0  0  3  0  0  0  0  0  0
  -21.9190   -4.8180   22.5400 C   0  0  0  0  0  0  0  0  0  0  0  0
  -22.2920   -4.2780   21.3540 F   0  0  0  0  0  0  0  0  0  0  0  0
  -21.3200   -3.7590   26.0010 F   0  0  0  0  0  0  0  0  0  0  0  0
  -22.7500  -13.5770   21.1380 C   0  0  0  0  0  0  0  0  0  0  0  0
  -22.0220  -12.8800   22.0020 N   0  0  0  0  0  0  0  0  0  0  0  0
  -22.3130  -14.6050   20.6210 O   0  0  0  0  0  0  0  0  0  0  0  0
  -22.3880  -12.0480   22.4410 H   0  0  0  0  0  0  0  0  0  0  0  0
  -21.0850  -13.1830   22.2300 H   0  0  0  0  0  0  0  0  0  0  0  0
  -25.3800  -15.2400   20.3130 N   0  0  0  0  0  0  0  0  0  0  0  0
  -24.6120  -15.8950   20.4200 H   0  0  0  0  0  0  0  0  0  0  0  0
  -26.2270  -15.6770   19.9730 H   0  0  0  0  0  0  0  0  0  0  0  0
  -28.6470  -22.6740   20.9080 C   0  0  0  0  0  2  0  0  0  0  0  0
  -28.9340  -24.0510   20.1900 C   0  0  0  0  0  2  0  0  0  0  0  0
  -28.1370  -25.2590   20.7900 C   0  0  0  0  0  2  0  0  0  0  0  0
  -28.3330  -26.5700   20.1770 O   0  0  0  0  0  0  0  0  0  0  0  0
  -24.5880  -31.8730   23.2190 C   0  0  0  0  0  0  0  0  0  0  0  0
  -27.2060  -27.3820   20.1500 C   0  0  0  0  0  0  0  0  0  0  0  0
  -23.3800  -30.4750   21.5790 C   0  0  0  0  0  3  0  0  0  0  0  0
  -24.8300  -28.9360   20.1470 C   0  0  0  0  0  0  0  0  0  0  0  0
  -25.9100  -30.8190   21.3810 C   0  0  0  0  0  2  0  0  0  0  0  0
  -25.9940  -29.4450   20.7370 C   0  0  0  0  0  0  0  0  0  0  0  0
  -27.1910  -28.6790   20.7280 C   0  0  0  0  0  3  0  0  0  0  0  0
  -26.0280  -26.9100   19.5340 C   0  0  0  0  0  3  0  0  0  0  0  0
  -24.8440  -27.6710   19.5380 C   0  0  0  0  0  3  0  0  0  0  0  0
  -23.5880  -29.8000   20.1980 C   0  0  0  0  0  2  0  0  0  0  0  0
  -24.6450  -31.0710   22.1180 N   0  0  0  0  0  0  0  0  0  0  0  0
  -23.5070  -32.1480   23.7600 O   0  0  0  0  0  0  0  0  0  0  0  0
  -22.7250  -29.4540   22.5400 C   0  0  0  0  0  0  0  0  0  0  0  0
  -21.3990  -29.2800   22.4160 N   0  0  0  0  0  0  0  0  0  0  0  0
  -23.4070  -28.8240   23.3510 O   0  0  0  0  0  0  0  0  0  0  0  0
  -20.9070  -29.8410   21.7340 H   0  0  0  0  0  0  0  0  0  0  0  0
  -18.0200  -28.0980   22.9300 C   0  0  0  0  0  0  0  0  0  0  0  0
  -20.5810  -28.3420   23.1880 C   0  0  0  0  0  3  0  0  0  0  0  0
  -20.6720  -26.9140   22.6050 C   0  0  0  0  0  2  0  0  0  0  0  0
  -19.5640  -26.6000   21.5960 C   0  0  0  0  0  2  0  0  0  0  0  0
  -18.1860  -26.7510   22.2480 C   0  0  0  0  0  2  0  0  0  0  0  0
  -19.1440  -28.8530   23.3560 C   0  0  0  0  0  0  0  0  0  0  0  0
  -18.9360  -30.1150   23.9540 C   0  0  0  0  0  3  0  0  0  0  0  0
  -17.6360  -30.6230   24.1280 C   0  0  0  0  0  3  0  0  0  0  0  0
  -16.5250  -29.8670   23.7180 C   0  0  0  0  0  3  0  0  0  0  0  0
  -16.7180  -28.6050   23.1250 C   0  0  0  0  0  3  0  0  0  0  0  0
  -25.8760  -32.5030   23.8390 C   0  0  0  0  0  3  0  0  0  0  0  0
  -25.5680  -33.9000   24.1730 N   0  0  0  0  0  0  0  0  0  0  0  0
  -25.9020  -34.9550   23.4160 C   0  0  0  0  0  0  0  0  0  0  0  0
  -26.5720  -34.8530   22.3850 O   0  0  0  0  0  0  0  0  0  0  0  0
  -24.9750  -34.0540   24.9760 H   0  0  0  0  0  0  0  0  0  0  0  0
  -24.1800  -36.7520   23.0580 C   0  0  0  0  0  1  0  0  0  0  0  0
  -25.4150  -36.3420   23.8760 C   0  0  0  0  0  3  0  0  0  0  0  0
  -27.5470  -37.2160   24.7230 C   0  0  0  0  0  1  0  0  0  0  0  0
  -26.4510  -37.3930   23.7740 N   0  0  0  0  0  0  0  0  0  0  0  0
  -26.0470  -38.3140   23.9260 H   0  0  0  0  0  0  0  0  0  0  0  0
  -26.3970  -31.7270   25.1100 C   0  0  1  0  0  0  0  0  0  0  0  0
  -25.3090  -31.4840   26.1810 C   0  0  0  0  0  1  0  0  0  0  0  0
  -26.9790  -30.3520   24.7090 C   0  0  0  0  0  1  0  0  0  0  0  0
  -27.5510  -32.5180   25.7690 C   0  0  0  0  0  1  0  0  0  0  0  0
  1  8  2  0
  4  7  1  0
  4  2  1  0
  5  9  1  0
  5  1  1  0
  5  3  1  0
  6  3  1  0
  6  2  1  0
  6 13  1  0
  7  1  1  0
  7 52  1  0
 10  9  1  0
 11 12  1  0
 12 10  1  0
 14 22  1  0
 15 20  1  0
 16 17  1  0
 16 15  1  0
 18 17  1  0
 18 27  1  0
 18 19  1  0
 20 14  1  0
 20 19  1  0
 21 14  2  0
 22 23  1  0
 22 13  1  0
 24 25  2  0
 25 44  1  0
 26 25  1  0
 26 29  1  0
 27 24  1  0
 27 28  1  0
 28 26  2  0
 29 30  1  0
 30 31  2  0
 32 35  1  0
 32 31  1  0
 33 32  2  0
 34 33  1  0
 34 29  2  0
 35 36  1  0
 36 37  1  0
 37 38  2  0
 39 38  1  0
 39 43  1  0
 40 39  2  0
 41 36  2  0
 41 40  1  0
 42 41  1  0
 44 45  1  0
 45 48  1  0
 45 47  1  0
 46 44  2  0
 49 50  1  0
 49 24  1  0
 51 49  1  0
 53 54  1  0
 53 52  1  0
 55 54  1  0
 56 67  2  0
 57 55  1  0
 57 62  1  0
 58 66  1  0
 58 68  1  0
 59 65  1  0
 59 61  1  0
 60 66  1  0
 61 60  1  0
 62 61  2  0
 63 64  1  0
 63 57  2  0
 64 59  2  0
 65 58  1  0
 66 56  1  0
 68 70  2  0
 69 68  1  0
 71 69  1  0
 72 81  2  0
 72 77  1  0
 73 69  1  0
 73 77  1  0
 74 73  1  0
 75 76  1  0
 75 74  1  0
 76 72  1  0
 77 78  2  0
 78 79  1  0
 80 79  2  0
 81 80  1  0
 82 56  1  0
 82 83  1  0
 82 92  1  0
 83 86  1  0
 84 88  1  0
 84 83  1  0
 85 84  2  0
 88 87  1  0
 90 88  1  0
 90 91  1  0
 90 89  1  0
 92 95  1  1
 92 93  1  0
 94 92  1  0
M  ISO  4  14 100  22 100  54 101  55 101
M  END
>  <TORSDO>  (31) 
F 23

>  <SCORE>  (31) 
-12.942

>  <name>  (31) 
30

>  <ligand_id>  (31) 
30

>  <original_smiles>  (31) 
[H]c1c([H])c([H])c2c(c1[H])C([H])([H])C([H])([H])C([H])([H])C2([H])N([H])C(=O)C1([H])N(C(=O)C([H])(N([H])C(=O)C([H])(N([H])C([H])([H])[H])C([H])([H])[H])C(C([H])([H])[H])(C([H])([H])[H])C([H])([H])[H])C([H])([H])c2c([H])c(OC([H])([H])C([H])([H])C([H])([H])N3C(=O)C([H])(C([H])([H])C([H])([H])C([H])([H])C([H])([H])[H])C([H])([H])C([H])(C([H])([H])N([H])C(=O)N4C([H])([H])C([H])([H])C([H])([H])C([H])(n5nc(-c6c([H])c([H])c(Oc7c([H])c([H])c(F)c([H])c7F)c([H])c6[H])c(C(=O)N([H])[H])c5N([H])[H])C4([H])[H])C([H])([H])C3([H])[H])c([H])c([H])c2C1([H])[H]

>  <smiles>  (31) 
[H]c1c([H])c([H])c2c(c1[H])C([H])([H])C([H])([H])C([H])([H])C2([H])N([H])C(=O)C1([H])N(C(=O)C([H])(N([H])C(=O)C([H])(N([H])C([H])([H])[H])C([H])([H])[H])C(C([H])([H])[H])(C([H])([H])[H])C([H])([H])[H])C([H])([H])c2c([H])c(OC([H])([H])C([H])([H])C([H])([H])N3C(=O)C([H])(C([H])([H])C([H])([H])C([H])([H])C([H])([H])[H])C([H])([H])C([H])(C([H])([H])N([H])C(=O)N4C([H])([H])C([H])([H])C([H])([H])C([H])(n5nc(-c6c([H])c([H])c(Oc7c([H])c([H])c(F)c([H])c7F)c([H])c6[H])c(C(=O)N([H])[H])c5N([H])[H])C4([H])[H])C([H])([H])C3([H])[H])c([H])c([H])c2C1([H])[H]

$$$$
31:0:0
     RDKit          3D

 91100  0  0  1  0  0  0  0  0999 V2000
  -30.0210  -20.9030   18.7530 C   0  0  0  0  0  3  0  0  0  0  0  0
  -28.6590  -22.2490   20.6950 C   0  0  0  0  0  3  0  0  0  0  0  0
  -29.6170  -22.3200   18.5930 C   0  0  0  0  0  0  0  0  0  0  0  0
  -28.9010  -23.1410   19.5640 C   0  0  0  0  0  0  0  0  0  0  0  0
  -29.7840  -20.0070   19.8720 C   0  0  0  0  0  0  0  0  0  0  0  0
  -29.0730  -20.8240   20.8520 C   0  0  0  0  0  0  0  0  0  0  0  0
  -29.9420  -22.9360   17.2370 C   0  0  0  0  0  2  0  0  0  0  0  0
  -29.5130  -24.4050   17.0600 C   0  0  0  0  0  2  0  0  0  0  0  0
  -28.1260  -24.6970   17.6490 C   0  0  0  0  0  2  0  0  0  0  0  0
  -28.1550  -24.6670   19.1920 C   0  0  0  0  0  3  0  0  0  0  0  0
  -28.6860  -20.0690   22.3540 Cl  0  0  0  0  0  0  0  0  0  0  0  0
  -28.4270  -26.2310   19.5590 O   0  0  0  0  0  0  0  0  0  0  0  0
  -24.8140  -31.8170   23.0850 C   0  0  0  0  0  0  0  0  0  0  0  0
  -27.3870  -27.2960   19.5990 C   0  0  0  0  0  0  0  0  0  0  0  0
  -23.5910  -30.5010   21.4050 C   0  0  0  0  0  3  0  0  0  0  0  0
  -25.0230  -29.0720   19.8020 C   0  0  0  0  0  0  0  0  0  0  0  0
  -26.1390  -30.8250   21.1590 C   0  0  0  0  0  2  0  0  0  0  0  0
  -26.2250  -29.4750   20.3970 C   0  0  0  0  0  0  0  0  0  0  0  0
  -27.4000  -28.6080   20.2780 C   0  0  0  0  0  3  0  0  0  0  0  0
  -26.1410  -27.0430   18.9770 C   0  0  0  0  0  3  0  0  0  0  0  0
  -25.0030  -27.8760   19.0740 C   0  0  0  0  0  3  0  0  0  0  0  0
  -23.7770  -29.9350   19.9710 C   0  0  0  0  0  2  0  0  0  0  0  0
  -24.8710  -31.0700   21.9370 N   0  0  0  0  0  0  0  0  0  0  0  0
  -23.7420  -32.0280   23.6740 O   0  0  0  0  0  0  0  0  0  0  0  0
  -22.9800  -29.4100   22.3210 C   0  0  0  0  0  0  0  0  0  0  0  0
  -21.6630  -29.1590   22.1990 N   0  0  0  0  0  0  0  0  0  0  0  0
  -23.6960  -28.7900   23.1110 O   0  0  0  0  0  0  0  0  0  0  0  0
  -21.1340  -29.7160   21.5420 H   0  0  0  0  0  0  0  0  0  0  0  0
  -18.3830  -27.6740   22.6410 C   0  0  0  0  0  0  0  0  0  0  0  0
  -20.9140  -28.1330   22.9300 C   0  0  0  0  0  3  0  0  0  0  0  0
  -21.1300  -26.7350   22.3030 C   0  0  0  0  0  2  0  0  0  0  0  0
  -20.0600  -26.3640   21.2720 C   0  0  0  0  0  2  0  0  0  0  0  0
  -18.6690  -26.3710   21.9130 C   0  0  0  0  0  2  0  0  0  0  0  0
  -19.4360  -28.5070   23.1040 C   0  0  0  0  0  0  0  0  0  0  0  0
  -19.1120  -29.7210   23.7480 C   0  0  0  0  0  3  0  0  0  0  0  0
  -17.7700  -30.1060   23.9310 C   0  0  0  0  0  3  0  0  0  0  0  0
  -16.7330  -29.2710   23.4810 C   0  0  0  0  0  3  0  0  0  0  0  0
  -17.0400  -28.0560   22.8430 C   0  0  0  0  0  3  0  0  0  0  0  0
  -26.0920  -32.4590   23.7040 C   0  0  0  0  0  3  0  0  0  0  0  0
  -25.7590  -33.8380   24.1010 N   0  0  0  0  0  0  0  0  0  0  0  0
  -26.0230  -34.9320   23.3730 C   0  0  0  0  0  0  0  0  0  0  0  0
  -26.6380  -34.8880   22.3050 O   0  0  0  0  0  0  0  0  0  0  0  0
  -25.2060  -33.9440   24.9390 H   0  0  0  0  0  0  0  0  0  0  0  0
  -24.2260  -36.6880   23.2060 C   0  0  0  0  0  1  0  0  0  0  0  0
  -25.5300  -36.2900   23.9160 C   0  0  0  0  0  3  0  0  0  0  0  0
  -27.6830  -37.2200   24.6440 C   0  0  0  0  0  1  0  0  0  0  0  0
  -26.5220  -37.3790   23.7730 N   0  0  0  0  0  0  0  0  0  0  0  0
  -26.0990  -38.2810   23.9710 H   0  0  0  0  0  0  0  0  0  0  0  0
  -26.6480  -31.6560   24.9450 C   0  0  1  0  0  0  0  0  0  0  0  0
  -25.5830  -31.3670   26.0290 C   0  0  0  0  0  1  0  0  0  0  0  0
  -27.2440  -30.3020   24.5020 C   0  0  0  0  0  1  0  0  0  0  0  0
  -27.8000  -32.4480   25.6070 C   0  0  0  0  0  1  0  0  0  0  0  0
  -30.5430  -18.4500   20.0340 C   0  0  0  0  0  2  0  0  0  0  0  0
  -30.8920  -15.6040   20.0980 C   0  0  0  0  0  0  0  0  0  0  0  0
  -30.8920  -13.1380   19.3370 C   0  0  0  0  0  2  0  0  0  0  0  0
  -29.9820  -12.8750   18.1130 C   0  0  0  0  0  2  0  0  0  0  0  0
  -28.5340  -12.6070   18.5590 C   0  0  0  0  0  2  0  0  0  0  0  0
  -28.0620  -13.6140   19.6390 C   0  0  0  0  0  3  0  0  0  0  0  0
  -29.1010  -13.8290   20.7590 C   0  0  0  0  0  2  0  0  0  0  0  0
  -30.3310  -14.3040   20.1060 N   0  0  0  0  0  0  0  0  0  0  0  0
  -32.1120  -15.6160   19.8860 O   0  0  0  0  0  0  0  0  0  0  0  0
  -30.1280  -16.8600   20.1230 N   0  0  0  0  0  0  0  0  0  0  0  0
  -29.1360  -16.7110   20.2340 H   0  0  0  0  0  0  0  0  0  0  0  0
  -25.6970  -14.1610   20.4250 C   0  0  0  0  0  0  0  0  0  0  0  0
  -24.6400  -13.3760   20.7950 C   0  0  0  0  0  0  0  0  0  0  0  0
  -25.1090  -12.0280   20.7400 C   0  0  0  0  0  0  0  0  0  0  0  0
  -26.7390  -13.2910   20.1580 N   0  0  0  0  0  0  0  0  0  0  0  0
  -26.3980  -12.0010   20.4180 N   0  0  0  0  0  0  0  0  0  0  0  0
  -24.3870  -10.7620   20.9190 C   0  0  0  0  0  0  0  0  0  0  0  0
  -24.7860   -9.8110   21.8840 C   0  0  0  0  0  3  0  0  0  0  0  0
  -24.0600   -8.6120   22.0510 C   0  0  0  0  0  3  0  0  0  0  0  0
  -22.9210   -8.3550   21.2530 C   0  0  0  0  0  0  0  0  0  0  0  0
  -22.5420   -9.2930   20.2770 C   0  0  0  0  0  3  0  0  0  0  0  0
  -23.2680  -10.4840   20.1070 C   0  0  0  0  0  3  0  0  0  0  0  0
  -22.1700   -7.2060   21.3260 O   0  0  0  0  0  0  0  0  0  0  0  0
  -22.0040   -6.5290   22.5080 C   0  0  0  0  0  0  0  0  0  0  0  0
  -21.3900   -7.1270   23.6310 C   0  0  0  0  0  3  0  0  0  0  0  0
  -21.1790   -6.3730   24.8020 C   0  0  0  0  0  3  0  0  0  0  0  0
  -21.5710   -5.0220   24.8510 C   0  0  0  0  0  0  0  0  0  0  0  0
  -22.1780   -4.4240   23.7330 C   0  0  0  0  0  3  0  0  0  0  0  0
  -22.3910   -5.1750   22.5630 C   0  0  0  0  0  0  0  0  0  0  0  0
  -22.9570   -4.5870   21.4810 F   0  0  0  0  0  0  0  0  0  0  0  0
  -21.3610   -4.2950   25.9730 F   0  0  0  0  0  0  0  0  0  0  0  0
  -23.2440  -13.8480   21.0810 C   0  0  0  0  0  0  0  0  0  0  0  0
  -22.5290  -13.1460   21.9510 N   0  0  0  0  0  0  0  0  0  0  0  0
  -22.7990  -14.8730   20.5660 O   0  0  0  0  0  0  0  0  0  0  0  0
  -22.9040  -12.3170   22.3880 H   0  0  0  0  0  0  0  0  0  0  0  0
  -21.5920  -13.4430   22.1860 H   0  0  0  0  0  0  0  0  0  0  0  0
  -25.8530  -15.5340   20.2630 N   0  0  0  0  0  0  0  0  0  0  0  0
  -25.0810  -16.1800   20.3910 H   0  0  0  0  0  0  0  0  0  0  0  0
  -26.6860  -15.9800   19.9030 H   0  0  0  0  0  0  0  0  0  0  0  0
  1  5  1  0
  2  6  1  0
  3  1  2  0
  3  4  1  0
  4  2  2  0
  5 53  1  0
  5  6  2  0
  6 11  1  0
  7  3  1  0
  8  7  1  0
  8  9  1  0
  9 10  1  0
 10 12  1  0
 10  4  1  0
 12 14  1  0
 13 24  2  0
 14 19  1  0
 15 23  1  0
 15 25  1  0
 16 22  1  0
 16 18  1  0
 17 23  1  0
 18 17  1  0
 19 18  2  0
 20 21  1  0
 20 14  2  0
 21 16  2  0
 22 15  1  0
 23 13  1  0
 25 27  2  0
 26 25  1  0
 28 26  1  0
 29 38  2  0
 29 34  1  0
 30 26  1  0
 30 34  1  0
 31 30  1  0
 32 33  1  0
 32 31  1  0
 33 29  1  0
 34 35  2  0
 35 36  1  0
 37 36  2  0
 38 37  1  0
 39 13  1  0
 39 40  1  0
 39 49  1  0
 40 43  1  0
 41 45  1  0
 41 40  1  0
 42 41  2  0
 45 44  1  0
 47 45  1  0
 47 48  1  0
 47 46  1  0
 49 52  1  1
 49 50  1  0
 51 49  1  0
 53 62  1  0
 54 60  1  0
 54 62  1  0
 55 60  1  0
 56 57  1  0
 56 55  1  0
 58 57  1  0
 58 67  1  0
 58 59  1  0
 60 59  1  0
 61 54  2  0
 62 63  1  0
 64 65  2  0
 65 84  1  0
 66 65  1  0
 66 69  1  0
 67 68  1  0
 67 64  1  0
 68 66  2  0
 69 70  1  0
 70 71  2  0
 72 75  1  0
 72 71  1  0
 73 72  2  0
 74 73  1  0
 74 69  2  0
 75 76  1  0
 76 81  2  0
 76 77  1  0
 77 78  2  0
 78 79  1  0
 79 83  1  0
 80 79  2  0
 81 80  1  0
 82 81  1  0
 84 85  1  0
 85 88  1  0
 85 87  1  0
 86 84  2  0
 89 90  1  0
 89 64  1  0
 91 89  1  0
M  ISO  4  10 101  12 101  54 100  62 100
M  END
>  <TORSDO>  (32) 
F 17

>  <SCORE>  (32) 
-12.547

>  <name>  (32) 
31

>  <ligand_id>  (32) 
31

>  <original_smiles>  (32) 
[H]c1c([H])c([H])c2c(c1[H])C([H])([H])C([H])([H])C([H])([H])C2([H])N([H])C(=O)C1([H])N(C(=O)C([H])(N([H])C(=O)C([H])(N([H])C([H])([H])[H])C([H])([H])[H])C(C([H])([H])[H])(C([H])([H])[H])C([H])([H])[H])C([H])([H])c2c([H])c(OC3([H])c4c([H])c(Cl)c(C([H])([H])N([H])C(=O)N5C([H])([H])C([H])([H])C([H])([H])C([H])(n6nc(-c7c([H])c([H])c(Oc8c([H])c([H])c(F)c([H])c8F)c([H])c7[H])c(C(=O)N([H])[H])c6N([H])[H])C5([H])[H])c([H])c4C([H])([H])C([H])([H])C3([H])[H])c([H])c([H])c2C1([H])[H]

>  <smiles>  (32) 
[H]c1c([H])c([H])c2c(c1[H])C([H])([H])C([H])([H])C([H])([H])C2([H])N([H])C(=O)C1([H])N(C(=O)C([H])(N([H])C(=O)C([H])(N([H])C([H])([H])[H])C([H])([H])[H])C(C([H])([H])[H])(C([H])([H])[H])C([H])([H])[H])C([H])([H])c2c([H])c(OC3([H])c4c([H])c(Cl)c(C([H])([H])N([H])C(=O)N5C([H])([H])C([H])([H])C([H])([H])C([H])(n6nc(-c7c([H])c([H])c(Oc8c([H])c([H])c(F)c([H])c8F)c([H])c7[H])c(C(=O)N([H])[H])c6N([H])[H])C5([H])[H])c([H])c4C([H])([H])C([H])([H])C3([H])[H])c([H])c([H])c2C1([H])[H]

$$$$
32:0:0
     RDKit          3D

 89 97  0  0  1  0  0  0  0  0999 V2000
  -30.5270  -15.0100   20.4160 C   0  0  0  0  0  0  0  0  0  0  0  0
  -30.4060  -12.6490   19.4860 C   0  0  0  0  0  2  0  0  0  0  0  0
  -29.4830  -12.5850   18.2470 C   0  0  0  0  0  2  0  0  0  0  0  0
  -28.0200  -12.3660   18.6740 C   0  0  0  0  0  2  0  0  0  0  0  0
  -27.5980  -13.2990   19.8400 C   0  0  0  0  0  3  0  0  0  0  0  0
  -28.6470  -13.3390   20.9720 C   0  0  0  0  0  2  0  0  0  0  0  0
  -29.9160  -13.7540   20.3610 N   0  0  0  0  0  0  0  0  0  0  0  0
  -31.7400  -15.0240   20.1680 O   0  0  0  0  0  0  0  0  0  0  0  0
  -29.1930  -18.8820   20.4100 C   0  0  0  0  0  3  0  0  0  0  0  0
  -31.8090  -19.3320   20.7660 C   0  0  0  0  0  3  0  0  0  0  0  0
  -29.5850  -20.3270   20.4600 C   0  0  0  0  0  0  0  0  0  0  0  0
  -30.9830  -20.4730   20.6570 C   0  0  0  0  0  0  0  0  0  0  0  0
  -30.1140  -17.7110   20.5320 C   0  0  0  0  0  0  0  0  0  0  0  0
  -31.4100  -18.0390   20.7080 N   0  0  0  0  0  0  0  0  0  0  0  0
  -29.7580  -16.2150   20.5080 N   0  0  0  0  0  0  0  0  0  0  0  0
  -31.7640  -22.0090   20.7790 Cl  0  0  0  0  0  0  0  0  0  0  0  0
  -28.7690  -16.0370   20.5680 H   0  0  0  0  0  0  0  0  0  0  0  0
  -25.2140  -13.8640   20.5730 C   0  0  0  0  0  0  0  0  0  0  0  0
  -24.1510  -13.0830   20.9350 C   0  0  0  0  0  0  0  0  0  0  0  0
  -24.6220  -11.7350   20.9030 C   0  0  0  0  0  0  0  0  0  0  0  0
  -26.2610  -12.9910   20.3350 N   0  0  0  0  0  0  0  0  0  0  0  0
  -25.9150  -11.7050   20.6000 N   0  0  0  0  0  0  0  0  0  0  0  0
  -23.8990  -10.4690   21.0830 C   0  0  0  0  0  0  0  0  0  0  0  0
  -24.3350   -9.4930   22.0070 C   0  0  0  0  0  3  0  0  0  0  0  0
  -23.6100   -8.2930   22.1760 C   0  0  0  0  0  3  0  0  0  0  0  0
  -22.4350   -8.0610   21.4230 C   0  0  0  0  0  0  0  0  0  0  0  0
  -22.0190   -9.0250   20.4870 C   0  0  0  0  0  3  0  0  0  0  0  0
  -22.7450  -10.2150   20.3150 C   0  0  0  0  0  3  0  0  0  0  0  0
  -21.6820   -6.9140   21.5020 O   0  0  0  0  0  0  0  0  0  0  0  0
  -21.6390   -6.1600   22.6470 C   0  0  0  0  0  0  0  0  0  0  0  0
  -21.2170   -6.7010   23.8810 C   0  0  0  0  0  3  0  0  0  0  0  0
  -21.1210   -5.8730   25.0160 C   0  0  0  0  0  3  0  0  0  0  0  0
  -21.4360   -4.5050   24.9200 C   0  0  0  0  0  0  0  0  0  0  0  0
  -21.8520   -3.9630   23.6910 C   0  0  0  0  0  3  0  0  0  0  0  0
  -21.9490   -4.7880   22.5570 C   0  0  0  0  0  0  0  0  0  0  0  0
  -22.3290   -4.2560   21.3710 F   0  0  0  0  0  0  0  0  0  0  0  0
  -21.3370   -3.7070   26.0100 F   0  0  0  0  0  0  0  0  0  0  0  0
  -22.7500  -13.5540   21.1960 C   0  0  0  0  0  0  0  0  0  0  0  0
  -22.0200  -12.8580   22.0590 N   0  0  0  0  0  0  0  0  0  0  0  0
  -22.3120  -14.5750   20.6680 O   0  0  0  0  0  0  0  0  0  0  0  0
  -22.3880  -12.0320   22.5090 H   0  0  0  0  0  0  0  0  0  0  0  0
  -21.0800  -13.1560   22.2760 H   0  0  0  0  0  0  0  0  0  0  0  0
  -25.3690  -15.2360   20.3980 N   0  0  0  0  0  0  0  0  0  0  0  0
  -24.5890  -15.8770   20.4940 H   0  0  0  0  0  0  0  0  0  0  0  0
  -26.1960  -15.6770   20.0190 H   0  0  0  0  0  0  0  0  0  0  0  0
  -28.5950  -21.6630   20.3050 C   0  0  0  0  0  2  0  0  0  0  0  0
  -28.9820  -23.3220   20.4060 C   0  0  0  0  0  3  0  0  0  0  0  0
  -27.9370  -24.6370   20.1770 C   0  0  0  0  0  3  0  0  0  0  0  0
  -28.2300  -26.1720   20.3040 O   0  0  0  0  0  0  0  0  0  0  0  0
  -24.6440  -31.9200   23.2470 C   0  0  0  0  0  0  0  0  0  0  0  0
  -27.1820  -27.1670   20.2340 C   0  0  0  0  0  0  0  0  0  0  0  0
  -23.4320  -30.5240   21.6170 C   0  0  0  0  0  3  0  0  0  0  0  0
  -24.8670  -28.9330   20.1960 C   0  0  0  0  0  0  0  0  0  0  0  0
  -25.9870  -30.7710   21.4460 C   0  0  0  0  0  2  0  0  0  0  0  0
  -26.0520  -29.3750   20.8000 C   0  0  0  0  0  0  0  0  0  0  0  0
  -27.2100  -28.5080   20.7990 C   0  0  0  0  0  3  0  0  0  0  0  0
  -25.9700  -26.8310   19.5930 C   0  0  0  0  0  3  0  0  0  0  0  0
  -24.8390  -27.6760   19.5770 C   0  0  0  0  0  3  0  0  0  0  0  0
  -23.6460  -29.8390   20.2420 C   0  0  0  0  0  2  0  0  0  0  0  0
  -24.7080  -31.0930   22.1580 N   0  0  0  0  0  0  0  0  0  0  0  0
  -23.5600  -32.2130   23.7750 O   0  0  0  0  0  0  0  0  0  0  0  0
  -22.7490  -29.5250   22.5850 C   0  0  0  0  0  0  0  0  0  0  0  0
  -21.4200  -29.3620   22.4610 N   0  0  0  0  0  0  0  0  0  0  0  0
  -23.4170  -28.9000   23.4120 O   0  0  0  0  0  0  0  0  0  0  0  0
  -20.9360  -29.9170   21.7680 H   0  0  0  0  0  0  0  0  0  0  0  0
  -18.0330  -28.1800   22.9710 C   0  0  0  0  0  0  0  0  0  0  0  0
  -20.5920  -28.4340   23.2390 C   0  0  0  0  0  3  0  0  0  0  0  0
  -20.6890  -26.9970   22.6760 C   0  0  0  0  0  2  0  0  0  0  0  0
  -19.5870  -26.6700   21.6630 C   0  0  0  0  0  2  0  0  0  0  0  0
  -18.2050  -26.8240   22.3050 C   0  0  0  0  0  2  0  0  0  0  0  0
  -19.1530  -28.9420   23.3960 C   0  0  0  0  0  0  0  0  0  0  0  0
  -18.9370  -30.2090   23.9800 C   0  0  0  0  0  3  0  0  0  0  0  0
  -17.6340  -30.7130   24.1440 C   0  0  0  0  0  3  0  0  0  0  0  0
  -16.5270  -29.9480   23.7340 C   0  0  0  0  0  3  0  0  0  0  0  0
  -16.7270  -28.6830   23.1540 C   0  0  0  0  0  3  0  0  0  0  0  0
  -25.9270  -32.5510   23.8680 C   0  0  0  0  0  3  0  0  0  0  0  0
  -25.6180  -33.9490   24.2080 N   0  0  0  0  0  0  0  0  0  0  0  0
  -25.9290  -35.0070   23.4480 C   0  0  0  0  0  0  0  0  0  0  0  0
  -26.5730  -34.9090   22.4000 O   0  0  0  0  0  0  0  0  0  0  0  0
  -25.0420  -34.0980   25.0240 H   0  0  0  0  0  0  0  0  0  0  0  0
  -24.1790  -36.7940   23.1630 C   0  0  0  0  0  1  0  0  0  0  0  0
  -25.4540  -36.3950   23.9250 C   0  0  0  0  0  3  0  0  0  0  0  0
  -27.6140  -37.2920   24.6730 C   0  0  0  0  0  1  0  0  0  0  0  0
  -26.4760  -37.4530   23.7720 N   0  0  0  0  0  0  0  0  0  0  0  0
  -26.0700  -38.3710   23.9330 H   0  0  0  0  0  0  0  0  0  0  0  0
  -26.4420  -31.7770   25.1440 C   0  0  1  0  0  0  0  0  0  0  0  0
  -25.3500  -31.5440   26.2150 C   0  0  0  0  0  1  0  0  0  0  0  0
  -27.0190  -30.3960   24.7550 C   0  0  0  0  0  1  0  0  0  0  0  0
  -27.5970  -32.5660   25.8040 C   0  0  0  0  0  1  0  0  0  0  0  0
  1 15  1  0
  2  7  1  0
  3  4  1  0
  3  2  1  0
  5  4  1  0
  5 21  1  0
  5  6  1  0
  7  1  1  0
  7  6  1  0
  8  1  2  0
  9 11  2  0
  9 13  1  0
 11 12  1  0
 12 10  2  0
 12 16  1  0
 13 14  2  0
 14 10  1  0
 15 13  1  0
 15 17  1  0
 18 19  2  0
 19 38  1  0
 20 19  1  0
 20 23  1  0
 21 18  1  0
 21 22  1  0
 22 20  2  0
 23 24  1  0
 24 25  2  0
 26 29  1  0
 26 25  1  0
 27 26  2  0
 28 27  1  0
 28 23  2  0
 29 30  1  0
 30 31  1  0
 31 32  2  0
 33 32  1  0
 33 37  1  0
 34 33  2  0
 35 30  2  0
 35 34  1  0
 36 35  1  0
 38 39  1  0
 39 42  1  0
 39 41  1  0
 40 38  2  0
 43 44  1  0
 43 18  1  0
 45 43  1  0
 46 47  1  0
 46 11  1  0
 48 49  1  0
 48 47  2  0
 50 61  2  0
 51 49  1  0
 51 56  1  0
 52 60  1  0
 52 62  1  0
 53 59  1  0
 53 55  1  0
 54 60  1  0
 55 54  1  0
 56 55  2  0
 57 51  2  0
 58 57  1  0
 58 53  2  0
 59 52  1  0
 60 50  1  0
 62 64  2  0
 63 62  1  0
 65 63  1  0
 66 75  2  0
 66 71  1  0
 67 63  1  0
 67 71  1  0
 68 67  1  0
 69 70  1  0
 69 68  1  0
 70 66  1  0
 71 72  2  0
 72 73  1  0
 74 73  2  0
 75 74  1  0
 76 50  1  0
 76 77  1  0
 76 86  1  0
 77 80  1  0
 78 82  1  0
 78 77  1  0
 79 78  2  0
 82 81  1  0
 84 82  1  0
 84 85  1  0
 84 83  1  0
 86 89  1  1
 86 87  1  0
 88 86  1  0
M  ISO  4   1 100  15 100  48 101  49 101
M  END
>  <TORSDO>  (33) 
F 18

>  <SCORE>  (33) 
-16.045

>  <name>  (33) 
32

>  <ligand_id>  (33) 
32

>  <original_smiles>  (33) 
[H]c1nc(N([H])C(=O)N2C([H])([H])C([H])([H])C([H])([H])C([H])(n3nc(-c4c([H])c([H])c(Oc5c([H])c([H])c(F)c([H])c5F)c([H])c4[H])c(C(=O)N([H])[H])c3N([H])[H])C2([H])[H])c([H])c(C([H])([H])C([H])([H])C([H])([H])Oc2c([H])c([H])c3c(c2[H])C([H])([H])N(C(=O)C([H])(N([H])C(=O)C([H])(N([H])C([H])([H])[H])C([H])([H])[H])C(C([H])([H])[H])(C([H])([H])[H])C([H])([H])[H])C([H])(C(=O)N([H])C2([H])c4c([H])c([H])c([H])c([H])c4C([H])([H])C([H])([H])C2([H])[H])C3([H])[H])c1Cl

>  <smiles>  (33) 
[H]c1nc(N([H])C(=O)N2C([H])([H])C([H])([H])C([H])([H])C([H])(n3nc(-c4c([H])c([H])c(Oc5c([H])c([H])c(F)c([H])c5F)c([H])c4[H])c(C(=O)N([H])[H])c3N([H])[H])C2([H])[H])c([H])c(C([H])([H])C([H])([H])C([H])([H])Oc2c([H])c([H])c3c(c2[H])C([H])([H])N(C(=O)C([H])(N([H])C(=O)C([H])(N([H])C([H])([H])[H])C([H])([H])[H])C(C([H])([H])[H])(C([H])([H])[H])C([H])([H])[H])C([H])(C(=O)N([H])C2([H])c4c([H])c([H])c([H])c([H])c4C([H])([H])C([H])([H])C2([H])[H])C3([H])[H])c1Cl

$$$$
33:0:0
     RDKit          3D

 94101  0  0  1  0  0  0  0  0999 V2000
  -30.7080  -19.4910   19.8160 C   0  0  0  0  0  3  0  0  0  0  0  0
  -29.4020  -20.0680   19.8670 C   0  0  0  0  0  0  0  0  0  0  0  0
  -28.3370  -19.1210   19.9830 C   0  0  0  0  0  0  0  0  0  0  0  0
  -29.8970  -17.1440   20.0820 C   0  0  0  0  0  0  0  0  0  0  0  0
  -30.9560  -18.0790   19.9010 C   0  0  0  0  0  0  0  0  0  0  0  0
  -28.5910  -17.7130   20.1330 C   0  0  0  0  0  3  0  0  0  0  0  0
  -26.8930  -19.6180   19.9950 C   0  0  0  0  0  1  0  0  0  0  0  0
  -32.2360  -17.6480   19.8230 F   0  0  0  0  0  0  0  0  0  0  0  0
  -27.2710  -16.6330   20.4420 Cl  0  0  0  0  0 15  0  0  0  0  0  0
  -30.7620  -14.6610   19.7000 C   0  0  0  0  0  0  0  0  0  0  0  0
  -30.5070  -12.3830   18.7060 C   0  0  0  0  0  2  0  0  0  0  0  0
  -29.4550  -12.4660   17.5760 C   0  0  0  0  0  2  0  0  0  0  0  0
  -28.0260  -12.3080   18.1360 C   0  0  0  0  0  2  0  0  0  0  0  0
  -27.7720  -13.1970   19.3820 C   0  0  0  0  0  3  0  0  0  0  0  0
  -28.9260  -13.0630   20.4030 C   0  0  0  0  0  2  0  0  0  0  0  0
  -30.1750  -13.4170   19.7090 N   0  0  0  0  0  0  0  0  0  0  0  0
  -31.8690  -14.8310   19.1820 O   0  0  0  0  0  0  0  0  0  0  0  0
  -29.9830  -15.6740   20.2000 N   0  0  0  0  0  0  0  0  0  0  0  0
  -29.1870  -15.3020   20.6950 H   0  0  0  0  0  0  0  0  0  0  0  0
  -25.4760  -13.8190   20.3580 C   0  0  0  0  0  0  0  0  0  0  0  0
  -24.4330  -13.0580   20.8070 C   0  0  0  0  0  0  0  0  0  0  0  0
  -24.8490  -11.6990   20.6670 C   0  0  0  0  0  0  0  0  0  0  0  0
  -26.4700  -12.9270   19.9870 N   0  0  0  0  0  0  0  0  0  0  0  0
  -26.1010  -11.6430   20.2280 N   0  0  0  0  0  0  0  0  0  0  0  0
  -24.1080  -10.4500   20.8700 C   0  0  0  0  0  0  0  0  0  0  0  0
  -24.5330   -9.4810   21.8060 C   0  0  0  0  0  3  0  0  0  0  0  0
  -23.7920   -8.2950   21.9960 C   0  0  0  0  0  3  0  0  0  0  0  0
  -22.6100   -8.0690   21.2500 C   0  0  0  0  0  0  0  0  0  0  0  0
  -22.2040   -9.0250   20.3030 C   0  0  0  0  0  3  0  0  0  0  0  0
  -22.9460  -10.2030   20.1110 C   0  0  0  0  0  3  0  0  0  0  0  0
  -21.8400   -6.9360   21.3490 O   0  0  0  0  0  0  0  0  0  0  0  0
  -21.6920   -6.2680   22.5380 C   0  0  0  0  0  0  0  0  0  0  0  0
  -21.1500   -6.8950   23.6810 C   0  0  0  0  0  3  0  0  0  0  0  0
  -20.9520   -6.1530   24.8640 C   0  0  0  0  0  3  0  0  0  0  0  0
  -21.2860   -4.7870   24.9020 C   0  0  0  0  0  0  0  0  0  0  0  0
  -21.8210   -4.1600   23.7620 C   0  0  0  0  0  3  0  0  0  0  0  0
  -22.0210   -4.8990   22.5830 C   0  0  0  0  0  0  0  0  0  0  0  0
  -22.5170   -4.2860   21.4820 F   0  0  0  0  0  0  0  0  0  0  0  0
  -21.0890   -4.0710   26.0340 F   0  0  0  0  0  0  0  0  0  0  0  0
  -23.0870  -13.5590   21.2460 C   0  0  0  0  0  0  0  0  0  0  0  0
  -22.4430  -12.8530   22.1700 N   0  0  0  0  0  0  0  0  0  0  0  0
  -22.6210  -14.6090   20.8080 O   0  0  0  0  0  0  0  0  0  0  0  0
  -22.8360  -12.0030   22.5450 H   0  0  0  0  0  0  0  0  0  0  0  0
  -21.5450  -13.1690   22.5070 H   0  0  0  0  0  0  0  0  0  0  0  0
  -25.6500  -15.1900   20.2100 N   0  0  0  0  0  0  0  0  0  0  0  0
  -24.9220  -15.8510   20.4520 H   0  0  0  0  0  0  0  0  0  0  0  0
  -26.4940  -15.6360   19.8770 H   0  0  0  0  0  0  0  0  0  0  0  0
  -29.1570  -21.6430   19.9850 C   0  0  0  0  0  2  0  0  0  0  0  0
  -29.1160  -22.5230   18.7520 N   0  0  0  0  0  4  0  0  0  0  0  0
  -28.7720  -21.9250   18.0180 H   0  0  0  0  0  0  0  0  0  0  0  0
  -30.0680  -22.7420   18.5030 H   0  0  0  0  0  0  0  0  0  0  0  0
  -28.2700  -23.8070   18.6710 C   0  0  0  0  0  2  0  0  0  0  0  0
  -28.5830  -25.0740   19.5890 C   0  0  0  0  0  2  0  0  0  0  0  0
  -28.4230  -26.4760   19.1180 O   0  0  0  0  0  0  0  0  0  0  0  0
  -24.6920  -31.4170   22.8820 C   0  0  0  0  0  0  0  0  0  0  0  0
  -27.2560  -27.2270   19.3070 C   0  0  0  0  0  0  0  0  0  0  0  0
  -23.4530  -30.1900   21.1320 C   0  0  0  0  0  3  0  0  0  0  0  0
  -24.8750  -28.7970   19.5240 C   0  0  0  0  0  0  0  0  0  0  0  0
  -25.9820  -30.5490   20.9170 C   0  0  0  0  0  2  0  0  0  0  0  0
  -26.0540  -29.2420   20.1330 C   0  0  0  0  0  0  0  0  0  0  0  0
  -27.2490  -28.4730   20.0080 C   0  0  0  0  0  3  0  0  0  0  0  0
  -26.0540  -26.8200   18.6960 C   0  0  0  0  0  3  0  0  0  0  0  0
  -24.8760  -27.5920   18.7980 C   0  0  0  0  0  3  0  0  0  0  0  0
  -23.6360  -29.6550   19.6860 C   0  0  0  0  0  2  0  0  0  0  0  0
  -24.7300  -30.7310   21.7020 N   0  0  0  0  0  0  0  0  0  0  0  0
  -23.6230  -31.6270   23.4720 O   0  0  0  0  0  0  0  0  0  0  0  0
  -22.8200  -29.0750   21.9980 C   0  0  0  0  0  0  0  0  0  0  0  0
  -21.4840  -28.9460   21.9340 N   0  0  0  0  0  0  0  0  0  0  0  0
  -23.5280  -28.3340   22.6830 O   0  0  0  0  0  0  0  0  0  0  0  0
  -20.9720  -29.5970   21.3550 H   0  0  0  0  0  0  0  0  0  0  0  0
  -18.1050  -27.7980   22.5230 C   0  0  0  0  0  0  0  0  0  0  0  0
  -20.6840  -27.9360   22.6290 C   0  0  0  0  0  3  0  0  0  0  0  0
  -20.6840  -26.5980   21.8530 C   0  0  0  0  0  2  0  0  0  0  0  0
  -19.4990  -26.4570   20.8920 C   0  0  0  0  0  2  0  0  0  0  0  0
  -18.1750  -26.5530   21.6550 C   0  0  0  0  0  2  0  0  0  0  0  0
  -19.2820  -28.4560   22.9660 C   0  0  0  0  0  0  0  0  0  0  0  0
  -19.1610  -29.6290   23.7430 C   0  0  0  0  0  3  0  0  0  0  0  0
  -17.8940  -30.1420   24.0780 C   0  0  0  0  0  3  0  0  0  0  0  0
  -16.7310  -29.4790   23.6500 C   0  0  0  0  0  3  0  0  0  0  0  0
  -16.8380  -28.3080   22.8770 C   0  0  0  0  0  3  0  0  0  0  0  0
  -25.9880  -31.9870   23.5370 C   0  0  0  0  0  3  0  0  0  0  0  0
  -26.5360  -31.0920   24.7170 C   0  0  1  0  0  0  0  0  0  0  0  0
  -25.4720  -30.7590   25.7890 C   0  0  0  0  0  1  0  0  0  0  0  0
  -27.0940  -29.7560   24.1730 C   0  0  0  0  0  1  0  0  0  0  0  0
  -27.7120  -31.8100   25.4180 C   0  0  0  0  0  1  0  0  0  0  0  0
  -25.6840  -33.3420   24.0190 N   0  0  0  0  0  0  0  0  0  0  0  0
  -26.0140  -34.4710   23.3760 C   0  0  0  0  0  0  0  0  0  0  0  0
  -26.6760  -34.4780   22.3350 O   0  0  0  0  0  0  0  0  0  0  0  0
  -25.0990  -33.4110   24.8370 H   0  0  0  0  0  0  0  0  0  0  0  0
  -24.2870  -36.2930   23.2320 C   0  0  0  0  0  1  0  0  0  0  0  0
  -25.5340  -35.8030   23.9850 C   0  0  0  0  0  3  0  0  0  0  0  0
  -27.6730  -36.5960   24.8930 C   0  0  0  0  0  1  0  0  0  0  0  0
  -26.5680  -36.8600   23.9750 N   0  0  0  0  0  0  0  0  0  0  0  0
  -26.1630  -37.7620   24.2160 H   0  0  0  0  0  0  0  0  0  0  0  0
  1  2  2  0
  1  5  1  0
  2  3  1  0
  2 48  1  0
  3  7  1  0
  3  6  2  0
  4  6  1  0
  4 18  1  0
  5  4  2  0
  8  5  1  0
 10 16  1  0
 10 18  1  0
 11 16  1  0
 12 13  1  0
 12 11  1  0
 14 13  1  0
 14 23  1  0
 14 15  1  0
 16 15  1  0
 17 10  2  0
 18 19  1  0
 20 21  2  0
 21 40  1  0
 22 21  1  0
 22 25  1  0
 23 24  1  0
 23 20  1  0
 24 22  2  0
 25 26  1  0
 26 27  2  0
 28 31  1  0
 28 27  1  0
 29 28  2  0
 30 29  1  0
 30 25  2  0
 31 32  1  0
 32 37  2  0
 32 33  1  0
 33 34  2  0
 34 35  1  0
 35 39  1  0
 36 35  2  0
 37 36  1  0
 38 37  1  0
 40 41  1  0
 41 44  1  0
 41 43  1  0
 42 40  2  0
 45 20  1  0
 45 46  1  0
 47 45  1  0
 49 48  1  0
 50 49  1  0
 51 49  1  0
 52 49  1  0
 52 53  1  0
 54 56  1  0
 54 53  1  0
 55 66  2  0
 56 61  1  0
 57 65  1  0
 57 67  1  0
 58 64  1  0
 58 60  1  0
 59 65  1  0
 60 59  1  0
 61 60  2  0
 62 63  1  0
 62 56  2  0
 63 58  2  0
 64 57  1  0
 65 55  1  0
 67 69  2  0
 68 67  1  0
 70 68  1  0
 71 80  2  0
 71 76  1  0
 72 68  1  0
 72 76  1  0
 73 72  1  0
 74 75  1  0
 74 73  1  0
 75 71  1  0
 76 77  2  0
 77 78  1  0
 79 78  2  0
 80 79  1  0
 81 55  1  0
 81 86  1  0
 81 82  1  0
 82 85  1  1
 82 83  1  0
 84 82  1  0
 86 89  1  0
 87 91  1  0
 87 86  1  0
 88 87  2  0
 91 90  1  0
 93 91  1  0
 93 94  1  0
 93 92  1  0
M  ISO  4  10 100  18 100  53 101  54 101
M  END
>  <TORSDO>  (34) 
F 20

>  <SCORE>  (34) 
-11.829

>  <name>  (34) 
33

>  <ligand_id>  (34) 
33

>  <original_smiles>  (34) 
[H]c1c([H])c([H])c2c(c1[H])C([H])([H])C([H])([H])C([H])([H])C2([H])N([H])C(=O)C1([H])N(C(=O)C([H])(N([H])C(=O)C([H])(N([H])C([H])([H])[H])C([H])([H])[H])C(C([H])([H])[H])(C([H])([H])[H])C([H])([H])[H])C([H])([H])c2c([H])c(OC([H])([H])C([H])([H])[N+]([H])([H])C([H])([H])c3c([H])c(F)c(N([H])C(=O)N4C([H])([H])C([H])([H])C([H])([H])C([H])(n5nc(-c6c([H])c([H])c(Oc7c([H])c([H])c(F)c([H])c7F)c([H])c6[H])c(C(=O)N([H])[H])c5N([H])[H])C4([H])[H])c(Cl)c3C([H])([H])[H])c([H])c([H])c2C1([H])[H]

>  <smiles>  (34) 
[H]c1c([H])c([H])c2c(c1[H])C([H])([H])C([H])([H])C([H])([H])C2([H])N([H])C(=O)C1([H])N(C(=O)C([H])(N([H])C(=O)C([H])(N([H])C([H])([H])[H])C([H])([H])[H])C(C([H])([H])[H])(C([H])([H])[H])C([H])([H])[H])C([H])([H])c2c([H])c(OC([H])([H])C([H])([H])[N+]([H])([H])C([H])([H])c3c([H])c(F)c(N([H])C(=O)N4C([H])([H])C([H])([H])C([H])([H])C([H])(n5nc(-c6c([H])c([H])c(Oc7c([H])c([H])c(F)c([H])c7F)c([H])c6[H])c(C(=O)N([H])[H])c5N([H])[H])C4([H])[H])c(Cl)c3C([H])([H])[H])c([H])c([H])c2C1([H])[H]

$$$$
34:0:0
     RDKit          3D

 89 97  0  0  1  0  0  0  0  0999 V2000
  -28.8890  -20.5490   19.1500 C   0  0  0  0  0  3  0  0  0  0  0  0
  -28.4980  -21.9790   19.1540 C   0  0  0  0  0  0  0  0  0  0  0  0
  -29.5550  -19.8170   20.2150 C   0  0  0  0  0  0  0  0  0  0  0  0
  -28.7360  -22.9110   20.2460 C   0  0  0  0  0  0  0  0  0  0  0  0
  -29.7460  -20.8240   21.2580 C   0  0  0  0  0  0  0  0  0  0  0  0
  -27.7680  -22.5120   17.9270 C   0  0  0  0  0  1  0  0  0  0  0  0
  -29.3530  -22.1950   21.2740 N   0  0  0  0  0  0  0  0  0  0  0  0
  -30.5970  -20.3160   22.6730 Cl  0  0  0  0  0  0  0  0  0  0  0  0
  -30.3010  -18.2410   20.0890 C   0  0  0  0  0  2  0  0  0  0  0  0
  -30.6510  -15.3790   20.1150 C   0  0  0  0  0  0  0  0  0  0  0  0
  -30.5870  -12.9590   19.2100 C   0  0  0  0  0  2  0  0  0  0  0  0
  -29.6210  -12.7750   18.0140 C   0  0  0  0  0  2  0  0  0  0  0  0
  -28.1920  -12.4980   18.5110 C   0  0  0  0  0  2  0  0  0  0  0  0
  -27.7780  -13.4490   19.6610 C   0  0  0  0  0  3  0  0  0  0  0  0
  -28.8660  -13.5810   20.7470 C   0  0  0  0  0  2  0  0  0  0  0  0
  -30.0750  -14.0830   20.0730 N   0  0  0  0  0  0  0  0  0  0  0  0
  -31.8600  -15.3850   19.8430 O   0  0  0  0  0  0  0  0  0  0  0  0
  -29.9050  -16.6430   20.2490 N   0  0  0  0  0  0  0  0  0  0  0  0
  -28.9250  -16.4880   20.4310 H   0  0  0  0  0  0  0  0  0  0  0  0
  -25.4410  -13.9790   20.5340 C   0  0  0  0  0  0  0  0  0  0  0  0
  -24.3950  -13.1900   20.9230 C   0  0  0  0  0  0  0  0  0  0  0  0
  -24.8630  -11.8430   20.8300 C   0  0  0  0  0  0  0  0  0  0  0  0
  -26.4730  -13.1150   20.2170 N   0  0  0  0  0  0  0  0  0  0  0  0
  -26.1410  -11.8210   20.4650 N   0  0  0  0  0  0  0  0  0  0  0  0
  -24.1460  -10.5730   21.0080 C   0  0  0  0  0  0  0  0  0  0  0  0
  -24.5820   -9.6000   21.9350 C   0  0  0  0  0  3  0  0  0  0  0  0
  -23.8620   -8.3980   22.1020 C   0  0  0  0  0  3  0  0  0  0  0  0
  -22.6920   -8.1600   21.3440 C   0  0  0  0  0  0  0  0  0  0  0  0
  -22.2760   -9.1210   20.4060 C   0  0  0  0  0  3  0  0  0  0  0  0
  -22.9960  -10.3140   20.2360 C   0  0  0  0  0  3  0  0  0  0  0  0
  -21.9430   -7.0110   21.4220 O   0  0  0  0  0  0  0  0  0  0  0  0
  -21.8370   -6.2990   22.5890 C   0  0  0  0  0  0  0  0  0  0  0  0
  -21.3120   -6.8710   23.7680 C   0  0  0  0  0  3  0  0  0  0  0  0
  -21.1580   -6.0830   24.9250 C   0  0  0  0  0  3  0  0  0  0  0  0
  -21.5190   -4.7230   24.9050 C   0  0  0  0  0  0  0  0  0  0  0  0
  -22.0360   -4.1500   23.7300 C   0  0  0  0  0  3  0  0  0  0  0  0
  -22.1920   -4.9350   22.5750 C   0  0  0  0  0  0  0  0  0  0  0  0
  -22.6720   -4.3720   21.4400 F   0  0  0  0  0  0  0  0  0  0  0  0
  -21.3620   -3.9630   26.0130 F   0  0  0  0  0  0  0  0  0  0  0  0
  -23.0090  -13.6550   21.2600 C   0  0  0  0  0  0  0  0  0  0  0  0
  -22.3190  -12.9350   22.1360 N   0  0  0  0  0  0  0  0  0  0  0  0
  -22.5480  -14.6900   20.7780 O   0  0  0  0  0  0  0  0  0  0  0  0
  -22.7060  -12.0990   22.5460 H   0  0  0  0  0  0  0  0  0  0  0  0
  -21.3880  -13.2250   22.3990 H   0  0  0  0  0  0  0  0  0  0  0  0
  -25.5940  -15.3560   20.3940 N   0  0  0  0  0  0  0  0  0  0  0  0
  -24.8280  -16.0040   20.5490 H   0  0  0  0  0  0  0  0  0  0  0  0
  -26.4190  -15.8050   20.0180 H   0  0  0  0  0  0  0  0  0  0  0  0
  -27.9830  -24.4630   20.4880 C   0  0  0  0  0  2  0  0  0  0  0  0
  -28.3420  -26.0290   20.1960 O   0  0  0  0  0  0  0  0  0  0  0  0
  -24.7430  -31.9190   23.2370 C   0  0  0  0  0  0  0  0  0  0  0  0
  -27.3270  -27.1110   20.1830 C   0  0  0  0  0  0  0  0  0  0  0  0
  -23.5490  -30.5150   21.6060 C   0  0  0  0  0  3  0  0  0  0  0  0
  -25.0030  -28.9420   20.1670 C   0  0  0  0  0  0  0  0  0  0  0  0
  -26.1100  -30.7680   21.4320 C   0  0  0  0  0  2  0  0  0  0  0  0
  -26.1930  -29.3630   20.7760 C   0  0  0  0  0  0  0  0  0  0  0  0
  -27.3520  -28.4690   20.7590 C   0  0  0  0  0  3  0  0  0  0  0  0
  -26.1070  -26.8410   19.5180 C   0  0  0  0  0  3  0  0  0  0  0  0
  -24.9830  -27.7000   19.5160 C   0  0  0  0  0  3  0  0  0  0  0  0
  -23.7730  -29.8440   20.2240 C   0  0  0  0  0  2  0  0  0  0  0  0
  -24.8230  -31.0930   22.1450 N   0  0  0  0  0  0  0  0  0  0  0  0
  -23.6570  -32.1910   23.7730 O   0  0  0  0  0  0  0  0  0  0  0  0
  -22.8810  -29.5030   22.5720 C   0  0  0  0  0  0  0  0  0  0  0  0
  -21.5540  -29.3090   22.4510 N   0  0  0  0  0  0  0  0  0  0  0  0
  -23.5620  -28.8930   23.3990 O   0  0  0  0  0  0  0  0  0  0  0  0
  -21.0580  -29.8570   21.7620 H   0  0  0  0  0  0  0  0  0  0  0  0
  -18.1990  -28.0290   22.9580 C   0  0  0  0  0  0  0  0  0  0  0  0
  -20.7520  -28.3570   23.2250 C   0  0  0  0  0  3  0  0  0  0  0  0
  -20.8870  -26.9260   22.6570 C   0  0  0  0  0  2  0  0  0  0  0  0
  -19.7950  -26.5700   21.6440 C   0  0  0  0  0  2  0  0  0  0  0  0
  -18.4100  -26.6830   22.2870 C   0  0  0  0  0  2  0  0  0  0  0  0
  -19.2980  -28.8220   23.3850 C   0  0  0  0  0  0  0  0  0  0  0  0
  -19.0450  -30.0800   23.9760 C   0  0  0  0  0  3  0  0  0  0  0  0
  -17.7260  -30.5440   24.1450 C   0  0  0  0  0  3  0  0  0  0  0  0
  -16.6430  -29.7490   23.7320 C   0  0  0  0  0  3  0  0  0  0  0  0
  -16.8810  -28.4930   23.1460 C   0  0  0  0  0  3  0  0  0  0  0  0
  -26.0120  -32.5770   23.8570 C   0  0  0  0  0  3  0  0  0  0  0  0
  -25.6770  -33.9680   24.2040 N   0  0  0  0  0  0  0  0  0  0  0  0
  -25.9600  -35.0370   23.4450 C   0  0  0  0  0  0  0  0  0  0  0  0
  -26.5920  -34.9540   22.3890 O   0  0  0  0  0  0  0  0  0  0  0  0
  -25.1100  -34.1020   25.0290 H   0  0  0  0  0  0  0  0  0  0  0  0
  -24.1780  -36.7970   23.1840 C   0  0  0  0  0  1  0  0  0  0  0  0
  -25.4650  -36.4140   23.9330 C   0  0  0  0  0  3  0  0  0  0  0  0
  -27.6130  -37.3500   24.6730 C   0  0  0  0  0  1  0  0  0  0  0  0
  -26.4670  -37.4900   23.7770 N   0  0  0  0  0  0  0  0  0  0  0  0
  -26.0460  -38.4010   23.9390 H   0  0  0  0  0  0  0  0  0  0  0  0
  -26.5410  -31.8110   25.1330 C   0  0  1  0  0  0  0  0  0  0  0  0
  -25.4560  -31.5600   26.2060 C   0  0  0  0  0  1  0  0  0  0  0  0
  -27.1400  -30.4410   24.7450 C   0  0  0  0  0  1  0  0  0  0  0  0
  -27.6860  -32.6180   25.7890 C   0  0  0  0  0  1  0  0  0  0  0  0
  1  2  2  0
  1  3  1  0
  2  4  1  0
  3  5  2  0
  4 48  1  0
  4  7  2  0
  5  7  1  0
  5  8  1  0
  6  2  1  0
  9  3  1  0
  9 18  1  0
 10 18  1  0
 11 16  1  0
 12 13  1  0
 12 11  1  0
 14 13  1  0
 14 23  1  0
 14 15  1  0
 16 10  1  0
 16 15  1  0
 17 10  2  0
 18 19  1  0
 20 21  2  0
 21 40  1  0
 22 21  1  0
 22 25  1  0
 23 24  1  0
 23 20  1  0
 24 22  2  0
 25 26  1  0
 26 27  2  0
 28 31  1  0
 28 27  1  0
 29 28  2  0
 30 29  1  0
 30 25  2  0
 31 32  1  0
 32 33  1  0
 33 34  2  0
 35 34  1  0
 35 39  1  0
 36 35  2  0
 37 32  2  0
 37 36  1  0
 38 37  1  0
 40 41  1  0
 41 44  1  0
 41 43  1  0
 42 40  2  0
 45 20  1  0
 45 46  1  0
 47 45  1  0
 49 48  1  0
 50 61  2  0
 51 49  1  0
 51 56  1  0
 52 60  1  0
 52 62  1  0
 53 59  1  0
 53 55  1  0
 54 60  1  0
 55 54  1  0
 56 55  2  0
 57 51  2  0
 58 57  1  0
 58 53  2  0
 59 52  1  0
 60 50  1  0
 62 64  2  0
 63 62  1  0
 65 63  1  0
 66 75  2  0
 66 71  1  0
 67 63  1  0
 67 71  1  0
 68 67  1  0
 69 70  1  0
 69 68  1  0
 70 66  1  0
 71 72  2  0
 72 73  1  0
 74 73  2  0
 75 74  1  0
 76 50  1  0
 76 77  1  0
 76 86  1  0
 77 80  1  0
 78 82  1  0
 78 77  1  0
 79 78  2  0
 82 81  1  0
 84 82  1  0
 84 85  1  0
 84 83  1  0
 86 89  1  1
 86 87  1  0
 88 86  1  0
M  ISO  4  10 100  18 100  48 101  49 101
M  END
>  <TORSDO>  (35) 
F 18

>  <SCORE>  (35) 
-15.691

>  <name>  (35) 
34

>  <ligand_id>  (35) 
34

>  <original_smiles>  (35) 
[H]c1c([H])c([H])c2c(c1[H])C([H])([H])C([H])([H])C([H])([H])C2([H])N([H])C(=O)C1([H])N(C(=O)C([H])(N([H])C(=O)C([H])(N([H])C([H])([H])[H])C([H])([H])[H])C(C([H])([H])[H])(C([H])([H])[H])C([H])([H])[H])C([H])([H])c2c([H])c(OC([H])([H])c3nc(Cl)c(C([H])([H])N([H])C(=O)N4C([H])([H])C([H])([H])C([H])([H])C([H])(n5nc(-c6c([H])c([H])c(Oc7c([H])c([H])c(F)c([H])c7F)c([H])c6[H])c(C(=O)N([H])[H])c5N([H])[H])C4([H])[H])c([H])c3C([H])([H])[H])c([H])c([H])c2C1([H])[H]

>  <smiles>  (35) 
[H]c1c([H])c([H])c2c(c1[H])C([H])([H])C([H])([H])C([H])([H])C2([H])N([H])C(=O)C1([H])N(C(=O)C([H])(N([H])C(=O)C([H])(N([H])C([H])([H])[H])C([H])([H])[H])C(C([H])([H])[H])(C([H])([H])[H])C([H])([H])[H])C([H])([H])c2c([H])c(OC([H])([H])c3nc(Cl)c(C([H])([H])N([H])C(=O)N4C([H])([H])C([H])([H])C([H])([H])C([H])(n5nc(-c6c([H])c([H])c(Oc7c([H])c([H])c(F)c([H])c7F)c([H])c6[H])c(C(=O)N([H])[H])c5N([H])[H])C4([H])[H])c([H])c3C([H])([H])[H])c([H])c([H])c2C1([H])[H]

$$$$
35:0:0
     RDKit          3D

103113  0  0  1  0  0  0  0  0999 V2000
  -25.9480  -25.0980   20.3370 C   0  0  0  0  0  3  0  0  0  0  0  0
  -26.1720  -23.6200   20.7800 C   0  0  0  0  0  3  0  0  0  0  0  0
  -27.0910  -22.8980   19.9150 C   0  0  0  0  0  3  0  0  0  0  0  0
  -26.0850  -24.8230   18.7070 C   0  0  0  0  0  3  0  0  0  0  0  0
  -25.9570  -26.7620   20.9600 C   0  0  1  0  0  0  0  0  0  0  0  0
  -26.0510  -27.6530   17.4950 C   0  0  0  0  0  0  0  0  0  0  0  0
  -25.7170  -23.0450   22.0830 C   0  0  0  0  0  1  0  0  0  0  0  0
  -26.1180  -28.4590   16.2170 C   0  0  0  0  0  1  0  0  0  0  0  0
  -25.9700  -25.9780   17.4080 N   0  0  0  0  0  2  0  0  0  0  0  0
  -26.1400  -28.5030   18.9570 N   0  0  0  0  0  2  0  0  0  0  0  0
  -27.3910  -24.1770   19.2810 N   0  0  0  0  0  0  0  0  0  0  0  0
  -25.9050  -26.8010   22.7290 Cl  0  0  0  0  0  0  0  0  0  0  0  0
  -28.1460  -21.4830   20.2210 C   0  0  0  0  0  3  0  0  0  0  0  0
  -28.3910  -19.7380   19.7030 C   0  0  0  0  0  3  0  0  0  0  0  0
  -29.5910  -18.4190   20.1740 C   0  0  0  0  0  2  0  0  0  0  0  0
  -30.6220  -15.5520   20.1930 C   0  0  0  0  0  0  0  0  0  0  0  0
  -30.8610  -13.0440   19.4880 C   0  0  0  0  0  2  0  0  0  0  0  0
  -29.9930  -12.6830   18.2570 C   0  0  0  0  0  2  0  0  0  0  0  0
  -28.5400  -12.4050   18.6840 C   0  0  0  0  0  2  0  0  0  0  0  0
  -28.0290  -13.4530   19.7060 C   0  0  0  0  0  3  0  0  0  0  0  0
  -29.0080  -13.6750   20.8650 C   0  0  0  0  0  2  0  0  0  0  0  0
  -30.2120  -14.1930   20.2250 N   0  0  0  0  0  0  0  0  0  0  0  0
  -31.8600  -15.6430   20.0650 O   0  0  0  0  0  0  0  0  0  0  0  0
  -29.6600  -16.7160   20.1340 N   0  0  0  0  0  0  0  0  0  0  0  0
  -28.7230  -16.3450   20.0950 H   0  0  0  0  0  0  0  0  0  0  0  0
  -25.7030  -14.1000   20.4920 C   0  0  0  0  0  0  0  0  0  0  0  0
  -24.6110  -13.3570   20.8340 C   0  0  0  0  0  0  0  0  0  0  0  0
  -25.0170  -11.9920   20.7400 C   0  0  0  0  0  0  0  0  0  0  0  0
  -26.6950  -13.1860   20.1930 N   0  0  0  0  0  0  0  0  0  0  0  0
  -26.3020  -11.9100   20.4180 N   0  0  0  0  0  0  0  0  0  0  0  0
  -24.2380  -10.7570   20.8670 C   0  0  0  0  0  0  0  0  0  0  0  0
  -24.5970   -9.7490   21.7880 C   0  0  0  0  0  3  0  0  0  0  0  0
  -23.8180   -8.5780   21.9040 C   0  0  0  0  0  3  0  0  0  0  0  0
  -22.6670   -8.4100   21.0970 C   0  0  0  0  0  0  0  0  0  0  0  0
  -22.3290   -9.4070   20.1650 C   0  0  0  0  0  3  0  0  0  0  0  0
  -23.1090  -10.5690   20.0470 C   0  0  0  0  0  3  0  0  0  0  0  0
  -21.8660   -7.2950   21.1230 O   0  0  0  0  0  0  0  0  0  0  0  0
  -21.6630   -6.5820   22.2770 C   0  0  0  0  0  0  0  0  0  0  0  0
  -21.0740   -7.1670   23.4190 C   0  0  0  0  0  3  0  0  0  0  0  0
  -20.8190   -6.3810   24.5600 C   0  0  0  0  0  3  0  0  0  0  0  0
  -21.1440   -5.0120   24.5600 C   0  0  0  0  0  0  0  0  0  0  0  0
  -21.7260   -4.4260   23.4220 C   0  0  0  0  0  3  0  0  0  0  0  0
  -21.9820   -5.2100   22.2820 C   0  0  0  0  0  0  0  0  0  0  0  0
  -22.5240   -4.6370   21.1810 F   0  0  0  0  0  0  0  0  0  0  0  0
  -20.8910   -4.2540   25.6530 F   0  0  0  0  0  0  0  0  0  0  0  0
  -23.2390  -13.8870   21.1210 C   0  0  0  0  0  0  0  0  0  0  0  0
  -22.4870  -13.2070   21.9760 N   0  0  0  0  0  0  0  0  0  0  0  0
  -22.8450  -14.9390   20.6220 O   0  0  0  0  0  0  0  0  0  0  0  0
  -22.8200  -12.3550   22.4050 H   0  0  0  0  0  0  0  0  0  0  0  0
  -21.5610  -13.5440   22.2030 H   0  0  0  0  0  0  0  0  0  0  0  0
  -25.9250  -15.4710   20.3720 N   0  0  0  0  0  0  0  0  0  0  0  0
  -25.1670  -16.1340   20.4860 H   0  0  0  0  0  0  0  0  0  0  0  0
  -26.7350  -15.8830   19.9300 H   0  0  0  0  0  0  0  0  0  0  0  0
  -28.7200  -24.9430   19.9180 C   0  0  0  0  0  3  0  0  0  0  0  0
  -28.6410  -26.3900   20.6520 O   0  0  0  0  0  0  0  0  0  0  0  0
  -24.8840  -32.3110   23.5640 C   0  0  0  0  0  0  0  0  0  0  0  0
  -28.1080  -27.6300   20.1410 C   0  0  0  0  0  3  0  0  0  0  0  0
  -23.5360  -30.9230   21.9930 C   0  0  0  0  0  3  0  0  0  0  0  0
  -24.5990  -28.9160   20.7980 C   0  0  0  0  0  3  0  0  0  0  0  0
  -26.0570  -31.0900   21.7310 C   0  0  0  0  0  2  0  0  0  0  0  0
  -26.0840  -29.6410   21.2490 C   0  0  0  0  0  0  0  0  0  0  0  0
  -27.6440  -29.0350   20.9660 C   0  0  0  0  0  3  0  0  0  0  0  0
  -27.0700  -26.7660   19.4320 C   0  0  0  0  0  2  0  0  0  0  0  0
  -24.5810  -27.3430   19.8850 C   0  0  0  0  0  2  0  0  0  0  0  0
  -23.5790  -30.0390   20.7050 C   0  0  0  0  0  2  0  0  0  0  0  0
  -24.8510  -31.4630   22.4840 N   0  0  0  0  0  0  0  0  0  0  0  0
  -23.8360  -32.6710   24.1180 O   0  0  0  0  0  0  0  0  0  0  0  0
  -22.8580  -30.0180   23.0240 C   0  0  0  0  0  0  0  0  0  0  0  0
  -21.5880  -29.7010   22.7570 N   0  0  0  0  0  0  0  0  0  0  0  0
  -23.4920  -29.5520   23.9720 O   0  0  0  0  0  0  0  0  0  0  0  0
  -21.1520  -30.1280   21.9530 H   0  0  0  0  0  0  0  0  0  0  0  0
  -18.3180  -28.2360   22.9400 C   0  0  0  0  0  0  0  0  0  0  0  0
  -20.7810  -28.7490   23.5000 C   0  0  0  0  0  3  0  0  0  0  0  0
  -21.0860  -27.2990   23.0590 C   0  0  0  0  0  2  0  0  0  0  0  0
  -20.1500  -26.7930   21.9570 C   0  0  0  0  0  2  0  0  0  0  0  0
  -18.6920  -26.8570   22.4230 C   0  0  0  0  0  2  0  0  0  0  0  0
  -19.3040  -29.1310   23.4300 C   0  0  0  0  0  0  0  0  0  0  0  0
  -18.9130  -30.4180   23.8590 C   0  0  0  0  0  3  0  0  0  0  0  0
  -17.5630  -30.8110   23.8160 C   0  0  0  0  0  3  0  0  0  0  0  0
  -16.5860  -29.9130   23.3530 C   0  0  0  0  0  3  0  0  0  0  0  0
  -16.9630  -28.6280   22.9190 C   0  0  0  0  0  3  0  0  0  0  0  0
  -26.2160  -32.8780   24.1620 C   0  0  0  0  0  3  0  0  0  0  0  0
  -26.0000  -34.2980   24.4860 N   0  0  0  0  0  0  0  0  0  0  0  0
  -26.3640  -35.3270   23.7100 C   0  0  0  0  0  0  0  0  0  0  0  0
  -26.9810  -35.1770   22.6520 O   0  0  0  0  0  0  0  0  0  0  0  0
  -25.4410  -34.4920   25.3030 H   0  0  0  0  0  0  0  0  0  0  0  0
  -24.7020  -37.2000   23.4410 C   0  0  0  0  0  1  0  0  0  0  0  0
  -25.9750  -36.7470   24.1740 C   0  0  0  0  0  3  0  0  0  0  0  0
  -28.1940  -37.5510   24.8510 C   0  0  0  0  0  1  0  0  0  0  0  0
  -27.0440  -37.7500   23.9740 N   0  0  0  0  0  0  0  0  0  0  0  0
  -26.6910  -38.6910   24.1230 H   0  0  0  0  0  0  0  0  0  0  0  0
  -26.7090  -32.0990   25.4460 C   0  0  1  0  0  0  0  0  0  0  0  0
  -25.5960  -31.8520   26.4920 C   0  0  0  0  0  1  0  0  0  0  0  0
  -27.3000  -30.7280   25.0490 C   0  0  0  0  0  1  0  0  0  0  0  0
  -27.8430  -32.8860   26.1440 C   0  0  0  0  0  1  0  0  0  0  0  0
  -29.9660  -24.9730   18.9700 C   0  0  0  0  0  2  0  0  0  0  0  0
  -31.7150  -23.1160   18.7730 C   0  0  0  0  0  3  0  0  0  0  0  0
  -29.7040  -22.9850   17.4070 C   0  0  0  0  0  3  0  0  0  0  0  0
  -32.1840  -21.9210   18.1850 C   0  0  0  0  0  3  0  0  0  0  0  0
  -30.1590  -21.7780   16.8420 C   0  0  0  0  0  3  0  0  0  0  0  0
  -30.4620  -23.6510   18.3940 C   0  0  0  0  0  0  0  0  0  0  0  0
  -31.3990  -21.2420   17.2350 C   0  0  0  0  0  0  0  0  0  0  0  0
  -31.8350  -20.0780   16.7000 F   0  0  0  0  0  0  0  0  0  0  0  0
  1  2  1  0
  1  5  1  0
  2  7  1  0
  3 13  1  0
  3  2  1  0
  4 11  1  0
  4  1  1  0
  5 12  1  1
  6 10  2  0
  8  6  1  0
  9  6  1  0
  9  4  1  0
 11  3  1  0
 11 54  1  0
 14 15  1  0
 14 13  2  0
 16 22  1  0
 17 22  1  0
 18 19  1  0
 18 17  1  0
 19 20  1  0
 20 29  1  0
 20 21  1  0
 22 21  1  0
 23 16  2  0
 24 15  1  0
 24 16  1  0
 25 24  1  0
 26 27  2  0
 27 46  1  0
 28 27  1  0
 28 31  1  0
 29 30  1  0
 29 26  1  0
 30 28  2  0
 31 32  1  0
 32 33  2  0
 34 37  1  0
 34 33  1  0
 35 34  2  0
 36 35  1  0
 36 31  2  0
 37 38  1  0
 38 43  2  0
 38 39  1  0
 39 40  2  0
 40 41  1  0
 41 45  1  0
 42 41  2  0
 43 42  1  0
 44 43  1  0
 46 47  1  0
 47 50  1  0
 47 49  1  0
 48 46  2  0
 51 52  1  0
 51 26  1  0
 53 51  1  0
 54 55  1  0
 56 67  2  0
 56 82  1  0
 57 55  1  0
 57 62  1  0
 58 66  1  0
 58 68  1  0
 59 61  1  0
 60 66  1  0
 61 60  1  0
 62 61  2  0
 63 57  1  0
 63  5  1  0
 64 59  1  0
 64  5  1  0
 65 59  1  0
 65 58  1  0
 66 56  1  0
 68 70  2  0
 69 68  1  0
 69 73  1  0
 71 69  1  0
 72 77  1  0
 74 73  1  0
 75 76  1  0
 75 74  1  0
 76 72  1  0
 77 73  1  0
 77 78  2  0
 79 78  1  0
 80 79  2  0
 81 72  2  0
 81 80  1  0
 82 83  1  0
 82 92  1  0
 83 86  1  0
 84 88  1  0
 84 83  1  0
 85 84  2  0
 87 88  1  0
 90 91  1  0
 90 88  1  0
 90 89  1  0
 92 95  1  1
 92 93  1  0
 94 92  1  0
 96 54  1  0
 98101  2  0
 99 97  2  0
100102  2  0
100 98  1  0
101 97  1  0
101 96  1  0
102 99  1  0
103102  1  0
M  ISO  4  16 100  24 100  54 101  55 101
M  END
>  <TORSDO>  (36) 
F 22

>  <SCORE>  (36) 
-13.274

>  <name>  (36) 
35

>  <ligand_id>  (36) 
35

>  <original_smiles>  (36) 
[H]c1c([H])c([H])c2c(c1[H])C([H])([H])C([H])([H])C([H])([H])C2([H])N([H])C(=O)C1([H])N(C(=O)C([H])(N([H])C(=O)C([H])(N([H])C([H])([H])[H])C([H])([H])[H])C(C([H])([H])[H])(C([H])([H])[H])C([H])([H])[H])C([H])([H])c2c([H])c(OC([H])(n3c(C([H])([H])C([H])([H])C([H])([H])N([H])C(=O)N4C([H])([H])C([H])([H])C([H])([H])C([H])(n5nc(-c6c([H])c([H])c(Oc7c([H])c([H])c(F)c([H])c7F)c([H])c6[H])c(C(=O)N([H])[H])c5N([H])[H])C4([H])[H])c(C([H])([H])[H])c4c(Cl)nc(C([H])([H])[H])nc43)C([H])([H])c3c([H])c([H])c(F)c([H])c3[H])c([H])c([H])c2C1([H])[H]

>  <smiles>  (36) 
[H]c1c([H])c([H])c2c(c1[H])C([H])([H])C([H])([H])C([H])([H])C2([H])N([H])C(=O)C1([H])N(C(=O)C([H])(N([H])C(=O)C([H])(N([H])C([H])([H])[H])C([H])([H])[H])C(C([H])([H])[H])(C([H])([H])[H])C([H])([H])[H])C([H])([H])c2c([H])c(OC([H])(n3c(C([H])([H])C([H])([H])C([H])([H])N([H])C(=O)N4C([H])([H])C([H])([H])C([H])([H])C([H])(n5nc(-c6c([H])c([H])c(Oc7c([H])c([H])c(F)c([H])c7F)c([H])c6[H])c(C(=O)N([H])[H])c5N([H])[H])C4([H])[H])c(C([H])([H])[H])c4c(Cl)nc(C([H])([H])[H])nc43)C([H])([H])c3c([H])c([H])c(F)c([H])c3[H])c([H])c([H])c2C1([H])[H]

$$$$
36:0:0
     RDKit          3D

 97106  0  0  1  0  0  0  0  0999 V2000
  -28.9490  -21.1460   21.1130 C   0  0  0  0  0  3  0  0  0  0  0  0
  -29.5890  -21.9130   18.5150 C   0  0  0  0  0  3  0  0  0  0  0  0
  -28.8990  -22.5270   20.7700 C   0  0  0  0  0  0  0  0  0  0  0  0
  -29.2170  -22.9250   19.4390 C   0  0  0  0  0  0  0  0  0  0  0  0
  -29.2970  -20.1440   20.1800 C   0  0  0  0  0  0  0  0  0  0  0  0
  -29.6110  -20.5470   18.8630 C   0  0  0  0  0  0  0  0  0  0  0  0
  -28.6430  -25.0140   21.4020 C   0  0  0  0  0  2  0  0  0  0  0  0
  -28.2940  -25.2720   19.9340 C   0  0  0  0  0  3  0  0  0  0  0  0
  -28.4440  -23.5390   21.8390 C   0  0  2  0  0  0  0  0  0  0  0  0
  -29.1770  -24.4080   18.9850 C   0  0  1  0  0  0  0  0  0  0  0  0
  -29.2370  -23.3480   23.1510 C   0  0  0  0  0  1  0  0  0  0  0  0
  -26.9470  -23.2940   22.1340 C   0  0  0  0  0  1  0  0  0  0  0  0
  -30.6250  -24.9410   18.9450 C   0  0  0  0  0  1  0  0  0  0  0  0
  -28.5770  -24.5410   17.5650 C   0  0  0  0  0  1  0  0  0  0  0  0
  -30.0020  -19.3870   17.6420 Cl  0  0  0  0  0  0  0  0  0  0  0  0
  -28.3760  -26.6970   19.6520 O   0  0  0  0  0  0  0  0  0  0  0  0
  -24.6560  -31.7550   23.0680 C   0  0  0  0  0  0  0  0  0  0  0  0
  -27.2110  -27.4460   19.7080 C   0  0  0  0  0  0  0  0  0  0  0  0
  -23.4100  -30.4440   21.3840 C   0  0  0  0  0  3  0  0  0  0  0  0
  -24.8270  -28.9810   19.8470 C   0  0  0  0  0  0  0  0  0  0  0  0
  -25.9370  -30.7980   21.1530 C   0  0  0  0  0  2  0  0  0  0  0  0
  -26.0020  -29.4610   20.4380 C   0  0  0  0  0  0  0  0  0  0  0  0
  -27.1970  -28.7030   20.3620 C   0  0  0  0  0  3  0  0  0  0  0  0
  -26.0180  -27.0030   19.0920 C   0  0  0  0  0  3  0  0  0  0  0  0
  -24.8310  -27.7510   19.1700 C   0  0  0  0  0  3  0  0  0  0  0  0
  -23.5880  -29.8400   19.9670 C   0  0  0  0  0  2  0  0  0  0  0  0
  -24.6870  -31.0120   21.9260 N   0  0  0  0  0  0  0  0  0  0  0  0
  -23.5870  -32.0030   23.6440 O   0  0  0  0  0  0  0  0  0  0  0  0
  -22.7770  -29.3730   22.3030 C   0  0  0  0  0  0  0  0  0  0  0  0
  -21.4480  -29.2070   22.2030 N   0  0  0  0  0  0  0  0  0  0  0  0
  -23.4780  -28.6990   23.0630 O   0  0  0  0  0  0  0  0  0  0  0  0
  -20.9440  -29.8030   21.5620 H   0  0  0  0  0  0  0  0  0  0  0  0
  -18.0760  -28.0290   22.7470 C   0  0  0  0  0  0  0  0  0  0  0  0
  -20.6450  -28.2330   22.9430 C   0  0  0  0  0  3  0  0  0  0  0  0
  -20.7040  -26.8410   22.2730 C   0  0  0  0  0  2  0  0  0  0  0  0
  -19.5620  -26.5990   21.2820 C   0  0  0  0  0  2  0  0  0  0  0  0
  -18.2060  -26.7220   21.9840 C   0  0  0  0  0  2  0  0  0  0  0  0
  -19.2200  -28.7470   23.1840 C   0  0  0  0  0  0  0  0  0  0  0  0
  -19.0440  -29.9740   23.8590 C   0  0  0  0  0  3  0  0  0  0  0  0
  -17.7550  -30.4820   24.1020 C   0  0  0  0  0  3  0  0  0  0  0  0
  -16.6230  -29.7600   23.6820 C   0  0  0  0  0  3  0  0  0  0  0  0
  -16.7850  -28.5340   23.0110 C   0  0  0  0  0  3  0  0  0  0  0  0
  -25.9570  -32.3520   23.6900 C   0  0  0  0  0  3  0  0  0  0  0  0
  -26.5190  -31.4960   24.8910 C   0  0  1  0  0  0  0  0  0  0  0  0
  -25.4630  -31.1780   25.9750 C   0  0  0  0  0  1  0  0  0  0  0  0
  -27.0950  -30.1540   24.3840 C   0  0  0  0  0  1  0  0  0  0  0  0
  -27.6890  -32.2500   25.5680 C   0  0  0  0  0  1  0  0  0  0  0  0
  -25.6500  -33.7210   24.1260 N   0  0  0  0  0  0  0  0  0  0  0  0
  -25.9410  -34.8250   23.4260 C   0  0  0  0  0  0  0  0  0  0  0  0
  -26.5660  -34.7970   22.3620 O   0  0  0  0  0  0  0  0  0  0  0  0
  -25.0890  -33.8150   24.9600 H   0  0  0  0  0  0  0  0  0  0  0  0
  -24.1850  -36.6170   23.2590 C   0  0  0  0  0  1  0  0  0  0  0  0
  -25.4600  -36.1740   23.9930 C   0  0  0  0  0  3  0  0  0  0  0  0
  -27.6150  -37.0270   24.8060 C   0  0  0  0  0  1  0  0  0  0  0  0
  -26.4790  -37.2430   23.9120 N   0  0  0  0  0  0  0  0  0  0  0  0
  -26.0700  -38.1470   24.1320 H   0  0  0  0  0  0  0  0  0  0  0  0
  -29.2900  -18.6640   20.6060 C   0  0  0  0  0  2  0  0  0  0  0  0
  -30.6930  -18.0160   20.7170 C   0  0  0  0  0  2  0  0  0  0  0  0
  -30.8030  -16.7420   21.6000 C   0  0  0  0  0  2  0  0  0  0  0  0
  -30.8150  -14.5780   20.3150 C   0  0  0  0  0  0  0  0  0  0  0  0
  -30.4830  -12.4590   19.0860 C   0  0  0  0  0  2  0  0  0  0  0  0
  -29.4940  -12.6790   17.9240 C   0  0  0  0  0  2  0  0  0  0  0  0
  -28.0380  -12.5170   18.4040 C   0  0  0  0  0  2  0  0  0  0  0  0
  -27.7420  -13.3320   19.6920 C   0  0  0  0  0  3  0  0  0  0  0  0
  -28.8320  -13.0840   20.7560 C   0  0  0  0  0  2  0  0  0  0  0  0
  -30.1340  -13.4140   20.1510 N   0  0  0  0  0  0  0  0  0  0  0  0
  -31.9050  -14.8000   19.7780 O   0  0  0  0  0  0  0  0  0  0  0  0
  -30.1970  -15.5130   21.0640 N   0  0  0  0  0  0  0  0  0  0  0  0
  -29.2890  -15.2600   21.4240 H   0  0  0  0  0  0  0  0  0  0  0  0
  -25.3690  -13.9290   20.4920 C   0  0  0  0  0  0  0  0  0  0  0  0
  -24.3140  -13.1510   20.8870 C   0  0  0  0  0  0  0  0  0  0  0  0
  -24.7730  -11.8010   20.8180 C   0  0  0  0  0  0  0  0  0  0  0  0
  -26.4050  -13.0510   20.2120 N   0  0  0  0  0  0  0  0  0  0  0  0
  -26.0510  -11.7650   20.4620 N   0  0  0  0  0  0  0  0  0  0  0  0
  -24.0550  -10.5350   21.0150 C   0  0  0  0  0  0  0  0  0  0  0  0
  -24.4970   -9.5750   21.9510 C   0  0  0  0  0  3  0  0  0  0  0  0
  -23.7800   -8.3730   22.1370 C   0  0  0  0  0  3  0  0  0  0  0  0
  -22.6060   -8.1230   21.3850 C   0  0  0  0  0  0  0  0  0  0  0  0
  -22.1840   -9.0730   20.4390 C   0  0  0  0  0  3  0  0  0  0  0  0
  -22.9020  -10.2660   20.2530 C   0  0  0  0  0  3  0  0  0  0  0  0
  -21.8620   -6.9720   21.4780 O   0  0  0  0  0  0  0  0  0  0  0  0
  -21.7910   -6.2540   22.6440 C   0  0  0  0  0  0  0  0  0  0  0  0
  -21.2910   -6.8170   23.8380 C   0  0  0  0  0  3  0  0  0  0  0  0
  -21.1690   -6.0200   24.9950 C   0  0  0  0  0  3  0  0  0  0  0  0
  -21.5390   -4.6620   24.9580 C   0  0  0  0  0  0  0  0  0  0  0  0
  -22.0330   -4.0990   23.7680 C   0  0  0  0  0  3  0  0  0  0  0  0
  -22.1560   -4.8930   22.6140 C   0  0  0  0  0  0  0  0  0  0  0  0
  -22.6120   -4.3400   21.4650 F   0  0  0  0  0  0  0  0  0  0  0  0
  -21.4160   -3.8950   26.0670 F   0  0  0  0  0  0  0  0  0  0  0  0
  -22.9270  -13.6230   21.2160 C   0  0  0  0  0  0  0  0  0  0  0  0
  -22.2300  -12.9130   22.0980 N   0  0  0  0  0  0  0  0  0  0  0  0
  -22.4690  -14.6550   20.7270 O   0  0  0  0  0  0  0  0  0  0  0  0
  -22.6170  -12.0820   22.5210 H   0  0  0  0  0  0  0  0  0  0  0  0
  -21.3000  -13.2050   22.3570 H   0  0  0  0  0  0  0  0  0  0  0  0
  -25.5330  -15.3020   20.3320 N   0  0  0  0  0  0  0  0  0  0  0  0
  -24.7790  -15.9630   20.4840 H   0  0  0  0  0  0  0  0  0  0  0  0
  -26.3760  -15.7370   19.9810 H   0  0  0  0  0  0  0  0  0  0  0  0
  2  6  2  0
  2  4  1  0
  3  1  1  0
  3  9  1  0
  4  3  2  0
  5 57  1  0
  5  1  2  0
  6  5  1  0
  7  9  1  0
  8 16  1  0
  8  7  1  0
  9 12  1  1
  9 11  1  0
 10  4  1  0
 10  8  1  0
 10 13  1  6
 14 10  1  0
 15  6  1  0
 16 18  1  0
 17 28  2  0
 18 23  1  0
 19 27  1  0
 19 29  1  0
 20 26  1  0
 20 22  1  0
 21 27  1  0
 22 21  1  0
 23 22  2  0
 24 25  1  0
 24 18  2  0
 25 20  2  0
 26 19  1  0
 27 17  1  0
 29 31  2  0
 30 29  1  0
 32 30  1  0
 33 42  2  0
 33 38  1  0
 34 30  1  0
 34 38  1  0
 35 34  1  0
 36 37  1  0
 36 35  1  0
 37 33  1  0
 38 39  2  0
 39 40  1  0
 41 40  2  0
 42 41  1  0
 43 17  1  0
 43 48  1  0
 43 44  1  0
 44 47  1  1
 44 45  1  0
 46 44  1  0
 48 51  1  0
 49 53  1  0
 49 48  1  0
 50 49  2  0
 53 52  1  0
 55 53  1  0
 55 56  1  0
 55 54  1  0
 57 58  1  0
 58 59  1  0
 60 68  1  0
 61 66  1  0
 62 63  1  0
 62 61  1  0
 64 63  1  0
 64 73  1  0
 64 65  1  0
 66 60  1  0
 66 65  1  0
 67 60  2  0
 68 69  1  0
 68 59  1  0
 70 71  2  0
 71 90  1  0
 72 71  1  0
 72 75  1  0
 73 74  1  0
 73 70  1  0
 74 72  2  0
 75 76  1  0
 76 77  2  0
 78 81  1  0
 78 77  1  0
 79 78  2  0
 80 79  1  0
 80 75  2  0
 81 82  1  0
 82 83  1  0
 83 84  2  0
 85 84  1  0
 85 89  1  0
 86 85  2  0
 87 82  2  0
 87 86  1  0
 88 87  1  0
 90 91  1  0
 91 94  1  0
 91 93  1  0
 92 90  2  0
 95 96  1  0
 95 70  1  0
 97 95  1  0
M  ISO  4   8 101  16 101  60 100  68 100
M  END
>  <TORSDO>  (37) 
F 19

>  <SCORE>  (37) 
-13.896

>  <name>  (37) 
36

>  <ligand_id>  (37) 
36

>  <original_smiles>  (37) 
[H]c1c([H])c([H])c2c(c1[H])C([H])([H])C([H])([H])C([H])([H])C2([H])N([H])C(=O)C1([H])N(C(=O)C([H])(N([H])C(=O)C([H])(N([H])C([H])([H])[H])C([H])([H])[H])C(C([H])([H])[H])(C([H])([H])[H])C([H])([H])[H])C([H])([H])c2c([H])c(OC3([H])C([H])([H])C(C([H])([H])[H])(C([H])([H])[H])c4c([H])c(C([H])([H])C([H])([H])C([H])([H])N([H])C(=O)N5C([H])([H])C([H])([H])C([H])([H])C([H])(n6nc(-c7c([H])c([H])c(Oc8c([H])c([H])c(F)c([H])c8F)c([H])c7[H])c(C(=O)N([H])[H])c6N([H])[H])C5([H])[H])c(Cl)c([H])c4C3(C([H])([H])[H])C([H])([H])[H])c([H])c([H])c2C1([H])[H]

>  <smiles>  (37) 
[H]c1c([H])c([H])c2c(c1[H])C([H])([H])C([H])([H])C([H])([H])C2([H])N([H])C(=O)C1([H])N(C(=O)C([H])(N([H])C(=O)C([H])(N([H])C([H])([H])[H])C([H])([H])[H])C(C([H])([H])[H])(C([H])([H])[H])C([H])([H])[H])C([H])([H])c2c([H])c(OC3([H])C([H])([H])C(C([H])([H])[H])(C([H])([H])[H])c4c([H])c(C([H])([H])C([H])([H])C([H])([H])N([H])C(=O)N5C([H])([H])C([H])([H])C([H])([H])C([H])(n6nc(-c7c([H])c([H])c(Oc8c([H])c([H])c(F)c([H])c8F)c([H])c7[H])c(C(=O)N([H])[H])c6N([H])[H])C5([H])[H])c(Cl)c([H])c4C3(C([H])([H])[H])C([H])([H])[H])c([H])c([H])c2C1([H])[H]

$$$$
37:0:0
     RDKit          3D

 95103  0  0  1  0  0  0  0  0999 V2000
  -32.0650  -18.2710   19.7930 C   0  0  0  0  0  3  0  0  0  0  0  0
  -31.0350  -18.3630   20.7450 C   0  0  0  0  0  0  0  0  0  0  0  0
  -32.3070  -20.7190   19.7160 C   0  0  0  0  0  0  0  0  0  0  0  0
  -31.1770  -20.8660   20.5750 C   0  0  0  0  0  0  0  0  0  0  0  0
  -32.6940  -19.4240   19.2840 C   0  0  0  0  0  0  0  0  0  0  0  0
  -30.5530  -19.6710   21.0860 C   0  0  0  0  0  0  0  0  0  0  0  0
  -33.1570  -21.9200   19.2730 C   0  0  0  0  0  1  0  0  0  0  0  0
  -33.9980  -19.2030   18.1680 Cl  0  0  0  0  0  0  0  0  0  0  0  0
  -29.2290  -19.8090   22.1940 Cl  0  0  0  0  0  0  0  0  0  0  0  0
  -30.6480  -17.0710   21.5280 C   0  0  0  0  0  2  0  0  0  0  0  0
  -30.7690  -14.8280   20.3160 C   0  0  0  0  0  0  0  0  0  0  0  0
  -30.4670  -12.6590   19.1500 C   0  0  0  0  0  2  0  0  0  0  0  0
  -29.4800  -12.8170   17.9770 C   0  0  0  0  0  2  0  0  0  0  0  0
  -28.0290  -12.6310   18.4600 C   0  0  0  0  0  2  0  0  0  0  0  0
  -27.7030  -13.4710   19.7250 C   0  0  0  0  0  3  0  0  0  0  0  0
  -28.8010  -13.3090   20.7990 C   0  0  0  0  0  2  0  0  0  0  0  0
  -30.0910  -13.6500   20.1760 N   0  0  0  0  0  0  0  0  0  0  0  0
  -31.9080  -14.9860   19.8770 O   0  0  0  0  0  0  0  0  0  0  0  0
  -30.0880  -15.8670   20.8560 N   0  0  0  0  0  0  0  0  0  0  0  0
  -29.1240  -15.6670   21.0720 H   0  0  0  0  0  0  0  0  0  0  0  0
  -25.3220  -14.0220   20.5260 C   0  0  0  0  0  0  0  0  0  0  0  0
  -24.2770  -13.2270   20.9080 C   0  0  0  0  0  0  0  0  0  0  0  0
  -24.7540  -11.8840   20.8340 C   0  0  0  0  0  0  0  0  0  0  0  0
  -26.3730  -13.1620   20.2450 N   0  0  0  0  0  0  0  0  0  0  0  0
  -26.0360  -11.8700   20.4900 N   0  0  0  0  0  0  0  0  0  0  0  0
  -24.0490  -10.6060   21.0150 C   0  0  0  0  0  0  0  0  0  0  0  0
  -24.4920   -9.6450   21.9510 C   0  0  0  0  0  3  0  0  0  0  0  0
  -23.7880   -8.4330   22.1210 C   0  0  0  0  0  3  0  0  0  0  0  0
  -22.6250   -8.1740   21.3550 C   0  0  0  0  0  0  0  0  0  0  0  0
  -22.2000   -9.1260   20.4100 C   0  0  0  0  0  3  0  0  0  0  0  0
  -22.9070  -10.3280   20.2390 C   0  0  0  0  0  3  0  0  0  0  0  0
  -21.8910   -7.0150   21.4370 O   0  0  0  0  0  0  0  0  0  0  0  0
  -21.8190   -6.2880   22.5980 C   0  0  0  0  0  0  0  0  0  0  0  0
  -21.3120   -6.8430   23.7940 C   0  0  0  0  0  3  0  0  0  0  0  0
  -21.1900   -6.0380   24.9460 C   0  0  0  0  0  3  0  0  0  0  0  0
  -21.5640   -4.6820   24.9000 C   0  0  0  0  0  0  0  0  0  0  0  0
  -22.0640   -4.1290   23.7090 C   0  0  0  0  0  3  0  0  0  0  0  0
  -22.1880   -4.9290   22.5600 C   0  0  0  0  0  0  0  0  0  0  0  0
  -22.6500   -4.3850   21.4090 F   0  0  0  0  0  0  0  0  0  0  0  0
  -21.4390   -3.9080   26.0030 F   0  0  0  0  0  0  0  0  0  0  0  0
  -22.8800  -13.6780   21.2300 C   0  0  0  0  0  0  0  0  0  0  0  0
  -22.1860  -12.9570   22.1010 N   0  0  0  0  0  0  0  0  0  0  0  0
  -22.4130  -14.7060   20.7410 O   0  0  0  0  0  0  0  0  0  0  0  0
  -22.5770  -12.1250   22.5190 H   0  0  0  0  0  0  0  0  0  0  0  0
  -21.2520  -13.2420   22.3600 H   0  0  0  0  0  0  0  0  0  0  0  0
  -25.4600  -15.3970   20.3690 N   0  0  0  0  0  0  0  0  0  0  0  0
  -24.6800  -16.0320   20.5000 H   0  0  0  0  0  0  0  0  0  0  0  0
  -26.2870  -15.8520   20.0030 H   0  0  0  0  0  0  0  0  0  0  0  0
  -30.7460  -22.2860   21.0600 C   0  0  0  0  0  2  0  0  0  0  0  0
  -30.0790  -23.1800   20.0540 N   0  0  0  0  0  4  0  0  0  0  0  0
  -29.2280  -22.7280   19.7620 H   0  0  0  0  0  0  0  0  0  0  0  0
  -30.6740  -23.2330   19.2400 H   0  0  0  0  0  0  0  0  0  0  0  0
  -29.7640  -24.5740   20.5400 C   0  0  0  0  0  2  0  0  0  0  0  0
  -28.9550  -25.4810   19.5490 C   0  0  0  0  0  2  0  0  0  0  0  0
  -28.7810  -26.8520   20.0070 O   0  0  0  0  0  0  0  0  0  0  0  0
  -24.6150  -31.7490   23.1000 C   0  0  0  0  0  0  0  0  0  0  0  0
  -27.5570  -27.5200   19.9450 C   0  0  0  0  0  0  0  0  0  0  0  0
  -23.5180  -30.3440   21.3850 C   0  0  0  0  0  3  0  0  0  0  0  0
  -25.0820  -28.9320   19.9420 C   0  0  0  0  0  0  0  0  0  0  0  0
  -26.0310  -30.8280   21.2620 C   0  0  0  0  0  2  0  0  0  0  0  0
  -26.2000  -29.4850   20.5790 C   0  0  0  0  0  0  0  0  0  0  0  0
  -27.4320  -28.7860   20.5810 C   0  0  0  0  0  3  0  0  0  0  0  0
  -26.4150  -27.0040   19.2860 C   0  0  0  0  0  3  0  0  0  0  0  0
  -25.1870  -27.6930   19.2940 C   0  0  0  0  0  3  0  0  0  0  0  0
  -23.7930  -29.7240   19.9890 C   0  0  0  0  0  2  0  0  0  0  0  0
  -24.7370  -30.9880   21.9740 N   0  0  0  0  0  0  0  0  0  0  0  0
  -23.5100  -31.9510   23.6240 O   0  0  0  0  0  0  0  0  0  0  0  0
  -22.9020  -29.2600   22.2990 C   0  0  0  0  0  0  0  0  0  0  0  0
  -21.5820  -29.0430   22.1680 N   0  0  0  0  0  0  0  0  0  0  0  0
  -23.6040  -28.6200   23.0850 O   0  0  0  0  0  0  0  0  0  0  0  0
  -21.0690  -29.6150   21.5110 H   0  0  0  0  0  0  0  0  0  0  0  0
  -18.2480  -27.7430   22.6470 C   0  0  0  0  0  0  0  0  0  0  0  0
  -20.8020  -28.0430   22.8960 C   0  0  0  0  0  3  0  0  0  0  0  0
  -20.9240  -26.6490   22.2360 C   0  0  0  0  0  2  0  0  0  0  0  0
  -19.8130  -26.3620   21.2220 C   0  0  0  0  0  2  0  0  0  0  0  0
  -18.4390  -26.4380   21.8930 C   0  0  0  0  0  2  0  0  0  0  0  0
  -19.3560  -28.5020   23.1060 C   0  0  0  0  0  0  0  0  0  0  0  0
  -19.1200  -29.7250   23.7730 C   0  0  0  0  0  3  0  0  0  0  0  0
  -17.8070  -30.1850   23.9880 C   0  0  0  0  0  3  0  0  0  0  0  0
  -16.7120  -29.4210   23.5500 C   0  0  0  0  0  3  0  0  0  0  0  0
  -16.9340  -28.2020   22.8830 C   0  0  0  0  0  3  0  0  0  0  0  0
  -25.8540  -32.4270   23.7680 C   0  0  0  0  0  3  0  0  0  0  0  0
  -25.4770  -33.8040   24.1150 N   0  0  0  0  0  0  0  0  0  0  0  0
  -25.7800  -34.8830   23.3800 C   0  0  0  0  0  0  0  0  0  0  0  0
  -26.4840  -34.8270   22.3690 O   0  0  0  0  0  0  0  0  0  0  0  0
  -24.8560  -33.9240   24.9010 H   0  0  0  0  0  0  0  0  0  0  0  0
  -23.9930  -36.6100   22.9980 C   0  0  0  0  0  1  0  0  0  0  0  0
  -25.2190  -36.2400   23.8470 C   0  0  0  0  0  3  0  0  0  0  0  0
  -27.2750  -37.1970   24.7840 C   0  0  0  0  0  1  0  0  0  0  0  0
  -26.2100  -37.3370   23.7950 N   0  0  0  0  0  0  0  0  0  0  0  0
  -25.7580  -38.2340   23.9380 H   0  0  0  0  0  0  0  0  0  0  0  0
  -26.3700  -31.6560   25.0450 C   0  0  1  0  0  0  0  0  0  0  0  0
  -25.2610  -31.3570   26.0810 C   0  0  0  0  0  1  0  0  0  0  0  0
  -27.0250  -30.3130   24.6490 C   0  0  0  0  0  1  0  0  0  0  0  0
  -27.4650  -32.4900   25.7530 C   0  0  0  0  0  1  0  0  0  0  0  0
  1  2  1  0
  2  6  2  0
  2 10  1  0
  3  4  2  0
  4 49  1  0
  4  6  1  0
  5  3  1  0
  5  1  2  0
  6  9  1  0
  7  3  1  0
  8  5  1  0
 11 19  1  0
 12 17  1  0
 13 14  1  0
 13 12  1  0
 15 14  1  0
 15 24  1  0
 15 16  1  0
 17 11  1  0
 17 16  1  0
 18 11  2  0
 19 20  1  0
 19 10  1  0
 21 22  2  0
 22 41  1  0
 23 22  1  0
 23 26  1  0
 24 25  1  0
 24 21  1  0
 25 23  2  0
 26 27  1  0
 27 28  2  0
 29 32  1  0
 29 28  1  0
 30 29  2  0
 31 30  1  0
 31 26  2  0
 32 33  1  0
 33 34  1  0
 34 35  2  0
 36 35  1  0
 36 40  1  0
 37 36  2  0
 38 33  2  0
 38 37  1  0
 39 38  1  0
 41 42  1  0
 42 45  1  0
 42 44  1  0
 43 41  2  0
 46 47  1  0
 46 21  1  0
 48 46  1  0
 50 53  1  0
 50 49  1  0
 51 50  1  0
 52 50  1  0
 54 55  1  0
 54 53  1  0
 56 67  2  0
 57 55  1  0
 57 62  1  0
 58 66  1  0
 58 68  1  0
 59 65  1  0
 59 61  1  0
 60 66  1  0
 61 62  2  0
 61 60  1  0
 63 64  1  0
 63 57  2  0
 64 59  2  0
 65 58  1  0
 66 56  1  0
 68 70  2  0
 69 68  1  0
 71 69  1  0
 72 81  2  0
 72 77  1  0
 73 69  1  0
 73 77  1  0
 74 73  1  0
 75 76  1  0
 75 74  1  0
 76 72  1  0
 77 78  2  0
 78 79  1  0
 80 79  2  0
 81 80  1  0
 82 56  1  0
 82 83  1  0
 82 92  1  0
 83 86  1  0
 84 88  1  0
 84 83  1  0
 85 84  2  0
 88 87  1  0
 90 88  1  0
 90 91  1  0
 90 89  1  0
 92 95  1  1
 92 93  1  0
 94 92  1  0
M  ISO  4  11 100  19 100  54 101  55 101
M  END
>  <TORSDO>  (38) 
F 21

>  <SCORE>  (38) 
-12.222

>  <name>  (38) 
37

>  <ligand_id>  (38) 
37

>  <original_smiles>  (38) 
[H]c1c([H])c([H])c2c(c1[H])C([H])([H])C([H])([H])C([H])([H])C2([H])N([H])C(=O)C1([H])N(C(=O)C([H])(N([H])C(=O)C([H])(N([H])C([H])([H])[H])C([H])([H])[H])C(C([H])([H])[H])(C([H])([H])[H])C([H])([H])[H])C([H])([H])c2c([H])c(OC([H])([H])C([H])([H])[N+]([H])([H])C([H])([H])c3c(Cl)c(C([H])([H])N([H])C(=O)N4C([H])([H])C([H])([H])C([H])([H])C([H])(n5nc(-c6c([H])c([H])c(Oc7c([H])c([H])c(F)c([H])c7F)c([H])c6[H])c(C(=O)N([H])[H])c5N([H])[H])C4([H])[H])c([H])c(Cl)c3C([H])([H])[H])c([H])c([H])c2C1([H])[H]

>  <smiles>  (38) 
[H]c1c([H])c([H])c2c(c1[H])C([H])([H])C([H])([H])C([H])([H])C2([H])N([H])C(=O)C1([H])N(C(=O)C([H])(N([H])C(=O)C([H])(N([H])C([H])([H])[H])C([H])([H])[H])C(C([H])([H])[H])(C([H])([H])[H])C([H])([H])[H])C([H])([H])c2c([H])c(OC([H])([H])C([H])([H])[N+]([H])([H])C([H])([H])c3c(Cl)c(C([H])([H])N([H])C(=O)N4C([H])([H])C([H])([H])C([H])([H])C([H])(n5nc(-c6c([H])c([H])c(Oc7c([H])c([H])c(F)c([H])c7F)c([H])c6[H])c(C(=O)N([H])[H])c5N([H])[H])C4([H])[H])c([H])c(Cl)c3C([H])([H])[H])c([H])c([H])c2C1([H])[H]

$$$$
38:0:0
     RDKit          3D

 97105  0  0  1  0  0  0  0  0999 V2000
  -28.5390  -22.9490   17.6490 C   0  0  0  0  0  3  0  0  0  0  0  0
  -30.7800  -23.9010   17.6530 C   0  0  0  0  0  3  0  0  0  0  0  0
  -29.3870  -24.0620   17.7950 C   0  0  0  0  0  0  0  0  0  0  0  0
  -30.4800  -21.4980   17.2930 C   0  0  0  0  0  0  0  0  0  0  0  0
  -29.0760  -21.6710   17.4020 C   0  0  0  0  0  0  0  0  0  0  0  0
  -31.3260  -22.6290   17.4010 C   0  0  0  0  0  0  0  0  0  0  0  0
  -27.9830  -20.3360   17.2940 Cl  0  0  0  0  0  0  0  0  0  0  0  0
  -33.0440  -22.4730   17.2890 Cl  0  0  0  0  0  0  0  0  0  0  0  0
  -28.8160  -25.4130   18.1760 C   0  0  0  0  0  2  0  0  0  0  0  0
  -28.5450  -25.4800   19.6880 C   0  0  0  0  0  2  0  0  0  0  0  0
  -28.4250  -26.8210   20.1380 O   0  0  0  0  0  0  0  0  0  0  0  0
  -24.5640  -31.8760   23.2140 C   0  0  0  0  0  0  0  0  0  0  0  0
  -27.2070  -27.4600   20.1200 C   0  0  0  0  0  0  0  0  0  0  0  0
  -23.3490  -30.4710   21.5790 C   0  0  0  0  0  3  0  0  0  0  0  0
  -24.7940  -28.9300   20.1510 C   0  0  0  0  0  0  0  0  0  0  0  0
  -25.8670  -30.8380   21.3650 C   0  0  0  0  0  2  0  0  0  0  0  0
  -25.9480  -29.4660   20.7320 C   0  0  0  0  0  0  0  0  0  0  0  0
  -27.1520  -28.7350   20.7170 C   0  0  0  0  0  3  0  0  0  0  0  0
  -26.0320  -26.9220   19.5430 C   0  0  0  0  0  3  0  0  0  0  0  0
  -24.8280  -27.6540   19.5580 C   0  0  0  0  0  3  0  0  0  0  0  0
  -23.5490  -29.7860   20.1990 C   0  0  0  0  0  2  0  0  0  0  0  0
  -24.6120  -31.0760   22.1120 N   0  0  0  0  0  0  0  0  0  0  0  0
  -23.4860  -32.1500   23.7600 O   0  0  0  0  0  0  0  0  0  0  0  0
  -22.7040  -29.4510   22.5430 C   0  0  0  0  0  0  0  0  0  0  0  0
  -21.3800  -29.2660   22.4160 N   0  0  0  0  0  0  0  0  0  0  0  0
  -23.3900  -28.8310   23.3600 O   0  0  0  0  0  0  0  0  0  0  0  0
  -20.8900  -29.8190   21.7270 H   0  0  0  0  0  0  0  0  0  0  0  0
  -18.0100  -28.0620   22.9010 C   0  0  0  0  0  0  0  0  0  0  0  0
  -20.5650  -28.3300   23.1880 C   0  0  0  0  0  3  0  0  0  0  0  0
  -20.6760  -26.8960   22.6200 C   0  0  0  0  0  2  0  0  0  0  0  0
  -19.5820  -26.5630   21.6010 C   0  0  0  0  0  2  0  0  0  0  0  0
  -18.1950  -26.7070   22.2370 C   0  0  0  0  0  2  0  0  0  0  0  0
  -19.1240  -28.8300   23.3330 C   0  0  0  0  0  0  0  0  0  0  0  0
  -18.8990  -30.0970   23.9130 C   0  0  0  0  0  3  0  0  0  0  0  0
  -17.5920  -30.5960   24.0680 C   0  0  0  0  0  3  0  0  0  0  0  0
  -16.4930  -29.8250   23.6550 C   0  0  0  0  0  3  0  0  0  0  0  0
  -16.7020  -28.5600   23.0760 C   0  0  0  0  0  3  0  0  0  0  0  0
  -25.8550  -32.5050   23.8270 C   0  0  0  0  0  3  0  0  0  0  0  0
  -25.5530  -33.9050   24.1530 N   0  0  0  0  0  0  0  0  0  0  0  0
  -25.8920  -34.9530   23.3910 C   0  0  0  0  0  0  0  0  0  0  0  0
  -26.5640  -34.8440   22.3630 O   0  0  0  0  0  0  0  0  0  0  0  0
  -24.9570  -34.0650   24.9520 H   0  0  0  0  0  0  0  0  0  0  0  0
  -24.1730  -36.7510   23.0220 C   0  0  0  0  0  1  0  0  0  0  0  0
  -25.4070  -36.3440   23.8420 C   0  0  0  0  0  3  0  0  0  0  0  0
  -27.5410  -37.2190   24.6830 C   0  0  0  0  0  1  0  0  0  0  0  0
  -26.4440  -37.3930   23.7340 N   0  0  0  0  0  0  0  0  0  0  0  0
  -26.0410  -38.3150   23.8810 H   0  0  0  0  0  0  0  0  0  0  0  0
  -26.3770  -31.7350   25.1010 C   0  0  1  0  0  0  0  0  0  0  0  0
  -25.2910  -31.4990   26.1770 C   0  0  0  0  0  1  0  0  0  0  0  0
  -26.9530  -30.3560   24.7030 C   0  0  0  0  0  1  0  0  0  0  0  0
  -27.5350  -32.5250   25.7560 C   0  0  0  0  0  1  0  0  0  0  0  0
  -31.0920  -20.1070   17.1190 C   0  0  0  0  0  2  0  0  0  0  0  0
  -31.7110  -19.6000   18.3650 N   0  0  0  0  0  4  0  0  0  0  0  0
  -32.5220  -20.1700   18.5500 H   0  0  0  0  0  0  0  0  0  0  0  0
  -32.0370  -18.6650   18.1820 H   0  0  0  0  0  0  0  0  0  0  0  0
  -30.8400  -19.5970   19.5690 C   0  0  0  0  0  2  0  0  0  0  0  0
  -31.5330  -18.9810   20.8050 C   0  0  0  0  0  2  0  0  0  0  0  0
  -31.5560  -17.4420   20.8080 C   0  0  0  0  0  2  0  0  0  0  0  0
  -30.2110  -16.8210   21.2550 C   0  0  0  0  0  2  0  0  0  0  0  0
  -30.7400  -14.4390   20.4890 C   0  0  0  0  0  0  0  0  0  0  0  0
  -30.3950  -12.3570   19.2280 C   0  0  0  0  0  2  0  0  0  0  0  0
  -29.4420  -12.6450   18.0500 C   0  0  0  0  0  2  0  0  0  0  0  0
  -27.9680  -12.5230   18.4880 C   0  0  0  0  0  2  0  0  0  0  0  0
  -27.6640  -13.2970   19.7990 C   0  0  0  0  0  3  0  0  0  0  0  0
  -28.7220  -12.9780   20.8790 C   0  0  0  0  0  2  0  0  0  0  0  0
  -30.0540  -13.2810   20.3180 N   0  0  0  0  0  0  0  0  0  0  0  0
  -31.8120  -14.6730   19.9260 O   0  0  0  0  0  0  0  0  0  0  0  0
  -30.0910  -15.3570   21.2200 N   0  0  0  0  0  0  0  0  0  0  0  0
  -29.2570  -14.9960   21.6610 H   0  0  0  0  0  0  0  0  0  0  0  0
  -25.2610  -13.9140   20.4980 C   0  0  0  0  0  0  0  0  0  0  0  0
  -24.1930  -13.1430   20.8740 C   0  0  0  0  0  0  0  0  0  0  0  0
  -24.6530  -11.7910   20.8490 C   0  0  0  0  0  0  0  0  0  0  0  0
  -26.3070  -13.0310   20.2750 N   0  0  0  0  0  0  0  0  0  0  0  0
  -25.9430  -11.7490   20.5400 N   0  0  0  0  0  0  0  0  0  0  0  0
  -23.9280  -10.5310   21.0490 C   0  0  0  0  0  0  0  0  0  0  0  0
  -24.3740   -9.5640   21.9780 C   0  0  0  0  0  3  0  0  0  0  0  0
  -23.6500   -8.3670   22.1670 C   0  0  0  0  0  3  0  0  0  0  0  0
  -22.4690   -8.1270   21.4260 C   0  0  0  0  0  0  0  0  0  0  0  0
  -22.0430   -9.0820   20.4870 C   0  0  0  0  0  3  0  0  0  0  0  0
  -22.7670  -10.2720   20.2960 C   0  0  0  0  0  3  0  0  0  0  0  0
  -21.7180   -6.9810   21.5230 O   0  0  0  0  0  0  0  0  0  0  0  0
  -21.6920   -6.2300   22.6710 C   0  0  0  0  0  0  0  0  0  0  0  0
  -21.3020   -6.7800   23.9130 C   0  0  0  0  0  3  0  0  0  0  0  0
  -21.2240   -5.9580   25.0540 C   0  0  0  0  0  3  0  0  0  0  0  0
  -21.5250   -4.5860   24.9550 C   0  0  0  0  0  0  0  0  0  0  0  0
  -21.9070   -4.0340   23.7190 C   0  0  0  0  0  3  0  0  0  0  0  0
  -21.9880   -4.8550   22.5800 C   0  0  0  0  0  0  0  0  0  0  0  0
  -22.3370   -4.3150   21.3880 F   0  0  0  0  0  0  0  0  0  0  0  0
  -21.4420   -3.7940   26.0500 F   0  0  0  0  0  0  0  0  0  0  0  0
  -22.7960  -13.6220   21.1480 C   0  0  0  0  0  0  0  0  0  0  0  0
  -22.0700  -12.9300   22.0210 N   0  0  0  0  0  0  0  0  0  0  0  0
  -22.3540  -14.6420   20.6230 O   0  0  0  0  0  0  0  0  0  0  0  0
  -22.4400  -12.1050   22.4700 H   0  0  0  0  0  0  0  0  0  0  0  0
  -21.1330  -13.2310   22.2430 H   0  0  0  0  0  0  0  0  0  0  0  0
  -25.4250  -15.2840   20.3120 N   0  0  0  0  0  0  0  0  0  0  0  0
  -24.6580  -15.9380   20.4180 H   0  0  0  0  0  0  0  0  0  0  0  0
  -26.2780  -15.7220   19.9860 H   0  0  0  0  0  0  0  0  0  0  0  0
  1  3  1  0
  2  3  2  0
  3  9  1  0
  4  6  2  0
  4  5  1  0
  5  1  2  0
  6  2  1  0
  7  5  1  0
  8  6  1  0
  9 10  1  0
 10 11  1  0
 12 23  2  0
 13 11  1  0
 13 18  1  0
 14 22  1  0
 14 24  1  0
 15 21  1  0
 15 17  1  0
 16 22  1  0
 17 16  1  0
 18 17  2  0
 19 20  1  0
 19 13  2  0
 20 15  2  0
 21 14  1  0
 22 12  1  0
 24 26  2  0
 25 24  1  0
 27 25  1  0
 28 37  2  0
 28 33  1  0
 29 25  1  0
 29 33  1  0
 30 29  1  0
 31 32  1  0
 31 30  1  0
 32 28  1  0
 33 34  2  0
 34 35  1  0
 36 35  2  0
 37 36  1  0
 38 12  1  0
 38 39  1  0
 38 48  1  0
 39 42  1  0
 40 44  1  0
 40 39  1  0
 41 40  2  0
 44 43  1  0
 46 44  1  0
 46 47  1  0
 46 45  1  0
 48 51  1  1
 48 49  1  0
 50 48  1  0
 52  4  1  0
 52 53  1  0
 53 54  1  0
 53 56  1  0
 55 53  1  0
 56 57  1  0
 57 58  1  0
 58 59  1  0
 60 68  1  0
 61 66  1  0
 62 63  1  0
 62 61  1  0
 64 63  1  0
 64 73  1  0
 64 65  1  0
 66 60  1  0
 66 65  1  0
 67 60  2  0
 68 59  1  0
 68 69  1  0
 70 71  2  0
 71 90  1  0
 72 71  1  0
 72 75  1  0
 73 70  1  0
 73 74  1  0
 74 72  2  0
 75 76  1  0
 76 77  2  0
 78 81  1  0
 78 77  1  0
 79 78  2  0
 80 79  1  0
 80 75  2  0
 81 82  1  0
 82 83  1  0
 83 84  2  0
 85 84  1  0
 85 89  1  0
 86 85  2  0
 87 82  2  0
 87 86  1  0
 88 87  1  0
 90 91  1  0
 91 94  1  0
 91 93  1  0
 92 90  2  0
 95 96  1  0
 95 70  1  0
 97 95  1  0
M  ISO  4  10 101  11 101  60 100  68 100
M  END
>  <TORSDO>  (39) 
F 24

>  <SCORE>  (39) 
-12.616

>  <name>  (39) 
38

>  <ligand_id>  (39) 
38

>  <original_smiles>  (39) 
[H]c1c([H])c([H])c2c(c1[H])C([H])([H])C([H])([H])C([H])([H])C2([H])N([H])C(=O)C1([H])N(C(=O)C([H])(N([H])C(=O)C([H])(N([H])C([H])([H])[H])C([H])([H])[H])C(C([H])([H])[H])(C([H])([H])[H])C([H])([H])[H])C([H])([H])c2c([H])c(OC([H])([H])C([H])([H])c3c([H])c(Cl)c(C([H])([H])[N+]([H])([H])C([H])([H])C([H])([H])C([H])([H])C([H])([H])N([H])C(=O)N4C([H])([H])C([H])([H])C([H])([H])C([H])(n5nc(-c6c([H])c([H])c(Oc7c([H])c([H])c(F)c([H])c7F)c([H])c6[H])c(C(=O)N([H])[H])c5N([H])[H])C4([H])[H])c(Cl)c3[H])c([H])c([H])c2C1([H])[H]

>  <smiles>  (39) 
[H]c1c([H])c([H])c2c(c1[H])C([H])([H])C([H])([H])C([H])([H])C2([H])N([H])C(=O)C1([H])N(C(=O)C([H])(N([H])C(=O)C([H])(N([H])C([H])([H])[H])C([H])([H])[H])C(C([H])([H])[H])(C([H])([H])[H])C([H])([H])[H])C([H])([H])c2c([H])c(OC([H])([H])C([H])([H])c3c([H])c(Cl)c(C([H])([H])[N+]([H])([H])C([H])([H])C([H])([H])C([H])([H])C([H])([H])N([H])C(=O)N4C([H])([H])C([H])([H])C([H])([H])C([H])(n5nc(-c6c([H])c([H])c(Oc7c([H])c([H])c(F)c([H])c7F)c([H])c6[H])c(C(=O)N([H])[H])c5N([H])[H])C4([H])[H])c(Cl)c3[H])c([H])c([H])c2C1([H])[H]

$$$$
39:0:0
     RDKit          3D

 90 98  0  0  1  0  0  0  0  0999 V2000
  -27.8700  -21.1190   20.4540 C   0  0  0  0  0  2  0  0  0  0  0  0
  -29.7440  -23.2660   20.1500 C   0  0  0  0  0  2  0  0  0  0  0  0
  -29.2730  -20.2850   20.0940 C   0  0  0  0  0  3  0  0  0  0  0  0
  -28.3730  -24.1100   20.5400 C   0  0  0  0  0  3  0  0  0  0  0  0
  -30.1570  -21.6450   20.5200 C   0  0  1  0  0  0  0  0  0  0  0  0
  -27.4780  -22.7670   20.0860 C   0  0  2  0  0  0  0  0  0  0  0  0
  -31.5360  -21.4510   19.8550 C   0  0  0  0  0  1  0  0  0  0  0  0
  -30.3940  -21.6070   22.0470 C   0  0  0  0  0  1  0  0  0  0  0  0
  -26.0430  -22.9880   20.5840 C   0  0  0  0  0  1  0  0  0  0  0  0
  -27.4050  -22.8050   18.7540 F   0  0  0  0  0  0  0  0  0  0  0  0
  -28.2740  -25.8080   20.2760 O   0  0  0  0  0  0  0  0  0  0  0  0
  -24.6600  -31.9130   23.2340 C   0  0  0  0  0  0  0  0  0  0  0  0
  -27.2280  -26.9100   20.3070 C   0  0  0  0  0  0  0  0  0  0  0  0
  -23.4810  -30.4980   21.6020 C   0  0  0  0  0  3  0  0  0  0  0  0
  -24.9380  -28.8570   20.2170 C   0  0  0  0  0  0  0  0  0  0  0  0
  -26.0530  -30.6800   21.4800 C   0  0  0  0  0  2  0  0  0  0  0  0
  -26.1250  -29.2490   20.8450 C   0  0  0  0  0  0  0  0  0  0  0  0
  -27.2610  -28.3040   20.8550 C   0  0  0  0  0  3  0  0  0  0  0  0
  -26.0090  -26.6970   19.6210 C   0  0  0  0  0  3  0  0  0  0  0  0
  -24.9110  -27.6030   19.5820 C   0  0  0  0  0  3  0  0  0  0  0  0
  -23.7240  -29.7920   20.2380 C   0  0  0  0  0  2  0  0  0  0  0  0
  -24.7540  -31.0610   22.1580 N   0  0  0  0  0  0  0  0  0  0  0  0
  -23.5660  -32.2090   23.7410 O   0  0  0  0  0  0  0  0  0  0  0  0
  -22.7730  -29.5200   22.5760 C   0  0  0  0  0  0  0  0  0  0  0  0
  -21.4430  -29.3550   22.4430 N   0  0  0  0  0  0  0  0  0  0  0  0
  -23.4290  -28.9060   23.4200 O   0  0  0  0  0  0  0  0  0  0  0  0
  -20.9640  -29.8990   21.7400 H   0  0  0  0  0  0  0  0  0  0  0  0
  -18.0590  -28.1360   22.9410 C   0  0  0  0  0  0  0  0  0  0  0  0
  -20.6160  -28.4230   23.2200 C   0  0  0  0  0  3  0  0  0  0  0  0
  -20.7290  -26.9840   22.6640 C   0  0  0  0  0  2  0  0  0  0  0  0
  -19.6370  -26.6440   21.6450 C   0  0  0  0  0  2  0  0  0  0  0  0
  -18.2500  -26.7830   22.2770 C   0  0  0  0  0  2  0  0  0  0  0  0
  -19.1690  -28.9130   23.3690 C   0  0  0  0  0  0  0  0  0  0  0  0
  -18.9330  -30.1760   23.9550 C   0  0  0  0  0  3  0  0  0  0  0  0
  -17.6220  -30.6630   24.1140 C   0  0  0  0  0  3  0  0  0  0  0  0
  -16.5270  -29.8860   23.6990 C   0  0  0  0  0  3  0  0  0  0  0  0
  -16.7470  -28.6230   23.1190 C   0  0  0  0  0  3  0  0  0  0  0  0
  -25.9230  -32.5680   23.8720 C   0  0  0  0  0  3  0  0  0  0  0  0
  -25.5960  -33.9690   24.1940 N   0  0  0  0  0  0  0  0  0  0  0  0
  -25.9200  -35.0290   23.4410 C   0  0  0  0  0  0  0  0  0  0  0  0
  -26.5850  -34.9300   22.4070 O   0  0  0  0  0  0  0  0  0  0  0  0
  -25.0040  -34.1190   24.9970 H   0  0  0  0  0  0  0  0  0  0  0  0
  -24.1770  -36.8180   23.1140 C   0  0  0  0  0  1  0  0  0  0  0  0
  -25.4330  -36.4180   23.9040 C   0  0  0  0  0  3  0  0  0  0  0  0
  -27.5740  -37.3240   24.7020 C   0  0  0  0  0  1  0  0  0  0  0  0
  -26.4580  -37.4780   23.7720 N   0  0  0  0  0  0  0  0  0  0  0  0
  -26.0470  -38.3960   23.9180 H   0  0  0  0  0  0  0  0  0  0  0  0
  -26.4170  -31.8180   25.1720 C   0  0  1  0  0  0  0  0  0  0  0  0
  -25.3070  -31.5990   26.2260 C   0  0  0  0  0  1  0  0  0  0  0  0
  -27.0080  -30.4340   24.8220 C   0  0  0  0  0  1  0  0  0  0  0  0
  -27.5570  -32.6240   25.8390 C   0  0  0  0  0  1  0  0  0  0  0  0
  -29.8780  -18.5490   20.5500 C   0  0  0  0  0  2  0  0  0  0  0  0
  -30.3660  -15.5450   20.2050 C   0  0  0  0  0  0  0  0  0  0  0  0
  -30.3880  -13.0580   19.3310 C   0  0  0  0  0  2  0  0  0  0  0  0
  -29.4620  -12.7450   18.1250 C   0  0  0  0  0  2  0  0  0  0  0  0
  -28.0320  -12.4360   18.5960 C   0  0  0  0  0  2  0  0  0  0  0  0
  -27.5670  -13.4190   19.6970 C   0  0  0  0  0  3  0  0  0  0  0  0
  -28.6240  -13.6520   20.7970 C   0  0  0  0  0  2  0  0  0  0  0  0
  -29.8090  -14.2170   20.1230 N   0  0  0  0  0  0  0  0  0  0  0  0
  -31.5990  -15.5020   20.0550 O   0  0  0  0  0  0  0  0  0  0  0  0
  -29.6160  -16.8690   20.2610 N   0  0  0  0  0  0  0  0  0  0  0  0
  -28.6240  -16.6760   20.2270 H   0  0  0  0  0  0  0  0  0  0  0  0
  -25.2130  -13.9610   20.4940 C   0  0  0  0  0  0  0  0  0  0  0  0
  -24.1580  -13.1810   20.8740 C   0  0  0  0  0  0  0  0  0  0  0  0
  -24.6290  -11.8320   20.8340 C   0  0  0  0  0  0  0  0  0  0  0  0
  -26.2530  -13.0910   20.2330 N   0  0  0  0  0  0  0  0  0  0  0  0
  -25.9180  -11.8020   20.5070 N   0  0  0  0  0  0  0  0  0  0  0  0
  -23.9060  -10.5680   21.0280 C   0  0  0  0  0  0  0  0  0  0  0  0
  -24.3470   -9.5970   21.9540 C   0  0  0  0  0  3  0  0  0  0  0  0
  -23.6210   -8.4010   22.1390 C   0  0  0  0  0  3  0  0  0  0  0  0
  -22.4380   -8.1670   21.3970 C   0  0  0  0  0  0  0  0  0  0  0  0
  -22.0150   -9.1270   20.4600 C   0  0  0  0  0  3  0  0  0  0  0  0
  -22.7430  -10.3140   20.2730 C   0  0  0  0  0  3  0  0  0  0  0  0
  -21.6820   -7.0230   21.4910 O   0  0  0  0  0  0  0  0  0  0  0  0
  -21.6460   -6.2780   22.6420 C   0  0  0  0  0  0  0  0  0  0  0  0
  -21.2260   -6.8270   23.8730 C   0  0  0  0  0  3  0  0  0  0  0  0
  -21.1370   -6.0080   25.0160 C   0  0  0  0  0  3  0  0  0  0  0  0
  -21.4570   -4.6400   24.9290 C   0  0  0  0  0  0  0  0  0  0  0  0
  -21.8710   -4.0900   23.7030 C   0  0  0  0  0  3  0  0  0  0  0  0
  -21.9610   -4.9070   22.5620 C   0  0  0  0  0  0  0  0  0  0  0  0
  -22.3390   -4.3660   21.3790 F   0  0  0  0  0  0  0  0  0  0  0  0
  -21.3650   -3.8510   26.0260 F   0  0  0  0  0  0  0  0  0  0  0  0
  -22.7630  -13.6560   21.1540 C   0  0  0  0  0  0  0  0  0  0  0  0
  -22.0450  -12.9620   22.0300 N   0  0  0  0  0  0  0  0  0  0  0  0
  -22.3190  -14.6770   20.6320 O   0  0  0  0  0  0  0  0  0  0  0  0
  -22.4180  -12.1350   22.4730 H   0  0  0  0  0  0  0  0  0  0  0  0
  -21.1090  -13.2620   22.2620 H   0  0  0  0  0  0  0  0  0  0  0  0
  -25.3670  -15.3330   20.3160 N   0  0  0  0  0  0  0  0  0  0  0  0
  -24.5950  -15.9810   20.4340 H   0  0  0  0  0  0  0  0  0  0  0  0
  -26.1990  -15.7750   19.9480 H   0  0  0  0  0  0  0  0  0  0  0  0
  2  5  1  0
  2  4  1  0
  3  1  1  0
  3  5  1  0
  3 52  1  0
  4 11  1  0
  5  8  1  1
  6  1  1  0
  6  4  1  0
  6  9  1  1
  7  5  1  0
 10  6  1  0
 11 13  1  0
 12 23  2  0
 13 18  1  0
 14 22  1  0
 14 24  1  0
 15 21  1  0
 15 17  1  0
 16 22  1  0
 17 18  2  0
 17 16  1  0
 19 13  2  0
 20 19  1  0
 20 15  2  0
 21 14  1  0
 22 12  1  0
 24 26  2  0
 25 24  1  0
 27 25  1  0
 28 37  2  0
 28 33  1  0
 29 25  1  0
 29 33  1  0
 30 29  1  0
 31 32  1  0
 31 30  1  0
 32 28  1  0
 33 34  2  0
 34 35  1  0
 36 35  2  0
 37 36  1  0
 38 12  1  0
 38 39  1  0
 38 48  1  0
 39 42  1  0
 40 44  1  0
 40 39  1  0
 41 40  2  0
 44 43  1  0
 46 44  1  0
 46 47  1  0
 46 45  1  0
 48 51  1  1
 48 49  1  0
 50 48  1  0
 53 61  1  0
 54 59  1  0
 55 56  1  0
 55 54  1  0
 57 56  1  0
 57 66  1  0
 57 58  1  0
 59 53  1  0
 59 58  1  0
 60 53  2  0
 61 52  1  0
 62 61  1  0
 63 64  2  0
 64 83  1  0
 65 64  1  0
 65 68  1  0
 66 63  1  0
 66 67  1  0
 67 65  2  0
 68 69  1  0
 69 70  2  0
 71 74  1  0
 71 70  1  0
 72 71  2  0
 73 72  1  0
 73 68  2  0
 74 75  1  0
 75 76  1  0
 76 77  2  0
 78 77  1  0
 78 82  1  0
 79 78  2  0
 80 75  2  0
 80 79  1  0
 81 80  1  0
 83 84  1  0
 84 87  1  0
 84 86  1  0
 85 83  2  0
 88 89  1  0
 88 63  1  0
 90 88  1  0
M  ISO  4   4 101  11 101  53 100  61 100
M  END
>  <TORSDO>  (40) 
F 17

>  <SCORE>  (40) 
-16.696

>  <name>  (40) 
39

>  <ligand_id>  (40) 
39

>  <original_smiles>  (40) 
[H]c1c([H])c([H])c2c(c1[H])C([H])([H])C([H])([H])C([H])([H])C2([H])N([H])C(=O)C1([H])N(C(=O)C([H])(N([H])C(=O)C([H])(N([H])C([H])([H])[H])C([H])([H])[H])C(C([H])([H])[H])(C([H])([H])[H])C([H])([H])[H])C([H])([H])c2c([H])c(OC3([H])C([H])([H])C(C([H])([H])[H])(C([H])([H])[H])C([H])(C([H])([H])N([H])C(=O)N4C([H])([H])C([H])([H])C([H])([H])C([H])(n5nc(-c6c([H])c([H])c(Oc7c([H])c([H])c(F)c([H])c7F)c([H])c6[H])c(C(=O)N([H])[H])c5N([H])[H])C4([H])[H])C([H])([H])C3(F)C([H])([H])[H])c([H])c([H])c2C1([H])[H]

>  <smiles>  (40) 
[H]c1c([H])c([H])c2c(c1[H])C([H])([H])C([H])([H])C([H])([H])C2([H])N([H])C(=O)C1([H])N(C(=O)C([H])(N([H])C(=O)C([H])(N([H])C([H])([H])[H])C([H])([H])[H])C(C([H])([H])[H])(C([H])([H])[H])C([H])([H])[H])C([H])([H])c2c([H])c(OC3([H])C([H])([H])C(C([H])([H])[H])(C([H])([H])[H])C([H])(C([H])([H])N([H])C(=O)N4C([H])([H])C([H])([H])C([H])([H])C([H])(n5nc(-c6c([H])c([H])c(Oc7c([H])c([H])c(F)c([H])c7F)c([H])c6[H])c(C(=O)N([H])[H])c5N([H])[H])C4([H])[H])C([H])([H])C3(F)C([H])([H])[H])c([H])c([H])c2C1([H])[H]

$$$$
40:0:0
     RDKit          3D

 90 98  0  0  1  0  0  0  0  0999 V2000
  -29.4570  -20.1050   18.6180 C   0  0  0  0  0  3  0  0  0  0  0  0
  -29.4760  -20.0040   20.0190 C   0  0  0  0  0  0  0  0  0  0  0  0
  -28.9300  -22.5860   18.5150 C   0  0  0  0  0  0  0  0  0  0  0  0
  -28.8260  -22.7580   19.9260 C   0  0  0  0  0  0  0  0  0  0  0  0
  -29.2130  -21.3140   17.9080 C   0  0  0  0  0  0  0  0  0  0  0  0
  -29.1310  -21.3970   20.6270 C   0  0  0  0  0  0  0  0  0  0  0  0
  -28.6890  -23.8000   17.6230 C   0  0  0  0  0  1  0  0  0  0  0  0
  -29.2640  -21.1730   16.1840 Cl  0  0  0  0  0  0  0  0  0  0  0  0
  -29.0780  -21.4410   22.3500 Cl  0  0  0  0  0  0  0  0  0  0  0  0
  -30.0290  -18.4500   20.6680 C   0  0  0  0  0  2  0  0  0  0  0  0
  -30.6560  -15.5220   20.3100 C   0  0  0  0  0  0  0  0  0  0  0  0
  -30.6950  -13.0420   19.4760 C   0  0  0  0  0  2  0  0  0  0  0  0
  -29.8010  -12.7510   18.2440 C   0  0  0  0  0  2  0  0  0  0  0  0
  -28.3510  -12.4620   18.6740 C   0  0  0  0  0  2  0  0  0  0  0  0
  -27.8610  -13.4570   19.7550 C   0  0  0  0  0  3  0  0  0  0  0  0
  -28.8890  -13.6730   20.8850 C   0  0  0  0  0  2  0  0  0  0  0  0
  -30.1050  -14.2030   20.2430 N   0  0  0  0  0  0  0  0  0  0  0  0
  -31.8900  -15.5110   20.1900 O   0  0  0  0  0  0  0  0  0  0  0  0
  -29.8730  -16.8000   20.3180 N   0  0  0  0  0  0  0  0  0  0  0  0
  -28.8940  -16.5680   20.2430 H   0  0  0  0  0  0  0  0  0  0  0  0
  -25.4840  -14.0070   20.4870 C   0  0  0  0  0  0  0  0  0  0  0  0
  -24.4200  -13.2270   20.8420 C   0  0  0  0  0  0  0  0  0  0  0  0
  -24.8910  -11.8780   20.8180 C   0  0  0  0  0  0  0  0  0  0  0  0
  -26.5320  -13.1340   20.2560 N   0  0  0  0  0  0  0  0  0  0  0  0
  -26.1870  -11.8470   20.5250 N   0  0  0  0  0  0  0  0  0  0  0  0
  -24.1640  -10.6140   20.9960 C   0  0  0  0  0  0  0  0  0  0  0  0
  -24.5630   -9.6600   21.9590 C   0  0  0  0  0  3  0  0  0  0  0  0
  -23.8320   -8.4650   22.1260 C   0  0  0  0  0  3  0  0  0  0  0  0
  -22.6880   -8.2140   21.3320 C   0  0  0  0  0  0  0  0  0  0  0  0
  -22.3090   -9.1560   20.3590 C   0  0  0  0  0  3  0  0  0  0  0  0
  -23.0420  -10.3440   20.1900 C   0  0  0  0  0  3  0  0  0  0  0  0
  -21.9340   -7.0680   21.4060 O   0  0  0  0  0  0  0  0  0  0  0  0
  -21.8160   -6.3580   22.5740 C   0  0  0  0  0  0  0  0  0  0  0  0
  -21.2620   -6.9300   23.7400 C   0  0  0  0  0  3  0  0  0  0  0  0
  -21.0960   -6.1440   24.8980 C   0  0  0  0  0  3  0  0  0  0  0  0
  -21.4740   -4.7880   24.8900 C   0  0  0  0  0  0  0  0  0  0  0  0
  -22.0210   -4.2170   23.7280 C   0  0  0  0  0  3  0  0  0  0  0  0
  -22.1880   -4.9990   22.5720 C   0  0  0  0  0  0  0  0  0  0  0  0
  -22.6970   -4.4380   21.4480 F   0  0  0  0  0  0  0  0  0  0  0  0
  -21.3080   -4.0300   26.0000 F   0  0  0  0  0  0  0  0  0  0  0  0
  -23.0170  -13.7010   21.0870 C   0  0  0  0  0  0  0  0  0  0  0  0
  -22.2780  -13.0100   21.9470 N   0  0  0  0  0  0  0  0  0  0  0  0
  -22.5870  -14.7220   20.5520 O   0  0  0  0  0  0  0  0  0  0  0  0
  -22.6400  -12.1850   22.4000 H   0  0  0  0  0  0  0  0  0  0  0  0
  -21.3370  -13.3130   22.1560 H   0  0  0  0  0  0  0  0  0  0  0  0
  -25.6430  -15.3790   20.3100 N   0  0  0  0  0  0  0  0  0  0  0  0
  -24.8680  -16.0250   20.4100 H   0  0  0  0  0  0  0  0  0  0  0  0
  -26.4800  -15.8200   19.9560 H   0  0  0  0  0  0  0  0  0  0  0  0
  -28.2080  -24.3190   20.5120 C   0  0  0  0  0  2  0  0  0  0  0  0
  -28.3640  -25.9300   20.0760 O   0  0  0  0  0  0  0  0  0  0  0  0
  -24.6510  -31.8500   23.1440 C   0  0  0  0  0  0  0  0  0  0  0  0
  -27.3260  -27.0200   20.1020 C   0  0  0  0  0  0  0  0  0  0  0  0
  -23.4970  -30.4420   21.4890 C   0  0  0  0  0  3  0  0  0  0  0  0
  -24.9860  -28.8750   20.0620 C   0  0  0  0  0  0  0  0  0  0  0  0
  -26.0620  -30.7020   21.3560 C   0  0  0  0  0  2  0  0  0  0  0  0
  -26.1660  -29.2940   20.6910 C   0  0  0  0  0  0  0  0  0  0  0  0
  -27.3310  -28.3920   20.6770 C   0  0  0  0  0  3  0  0  0  0  0  0
  -26.1070  -26.7620   19.4320 C   0  0  0  0  0  3  0  0  0  0  0  0
  -24.9840  -27.6310   19.4130 C   0  0  0  0  0  3  0  0  0  0  0  0
  -23.7500  -29.7750   20.1080 C   0  0  0  0  0  2  0  0  0  0  0  0
  -24.7580  -31.0260   22.0500 N   0  0  0  0  0  0  0  0  0  0  0  0
  -23.5510  -32.1090   23.6610 O   0  0  0  0  0  0  0  0  0  0  0  0
  -22.8190  -29.4230   22.4430 C   0  0  0  0  0  0  0  0  0  0  0  0
  -21.4970  -29.2130   22.2990 N   0  0  0  0  0  0  0  0  0  0  0  0
  -23.4920  -28.8210   23.2840 O   0  0  0  0  0  0  0  0  0  0  0  0
  -21.0040  -29.7510   21.5990 H   0  0  0  0  0  0  0  0  0  0  0  0
  -18.1500  -27.8920   22.7660 C   0  0  0  0  0  0  0  0  0  0  0  0
  -20.6970  -28.2450   23.0570 C   0  0  0  0  0  3  0  0  0  0  0  0
  -20.8540  -26.8200   22.4770 C   0  0  0  0  0  2  0  0  0  0  0  0
  -19.7740  -26.4640   21.4490 C   0  0  0  0  0  2  0  0  0  0  0  0
  -18.3810  -26.5550   22.0790 C   0  0  0  0  0  2  0  0  0  0  0  0
  -19.2380  -28.6920   23.2110 C   0  0  0  0  0  0  0  0  0  0  0  0
  -18.9640  -29.9380   23.8150 C   0  0  0  0  0  3  0  0  0  0  0  0
  -17.6390  -30.3860   23.9770 C   0  0  0  0  0  3  0  0  0  0  0  0
  -16.5680  -29.5840   23.5470 C   0  0  0  0  0  3  0  0  0  0  0  0
  -16.8240  -28.3380   22.9470 C   0  0  0  0  0  3  0  0  0  0  0  0
  -25.9010  -32.5180   23.7900 C   0  0  0  0  0  3  0  0  0  0  0  0
  -25.5560  -33.9140   24.1130 N   0  0  0  0  0  0  0  0  0  0  0  0
  -25.8950  -34.9820   23.3790 C   0  0  0  0  0  0  0  0  0  0  0  0
  -26.5940  -34.8970   22.3660 O   0  0  0  0  0  0  0  0  0  0  0  0
  -24.9380  -34.0540   24.8990 H   0  0  0  0  0  0  0  0  0  0  0  0
  -24.1760  -36.7790   22.9820 C   0  0  0  0  0  1  0  0  0  0  0  0
  -25.3830  -36.3620   23.8380 C   0  0  0  0  0  3  0  0  0  0  0  0
  -27.4650  -37.2560   24.7840 C   0  0  0  0  0  1  0  0  0  0  0  0
  -26.4130  -37.4220   23.7870 N   0  0  0  0  0  0  0  0  0  0  0  0
  -25.9940  -38.3390   23.9190 H   0  0  0  0  0  0  0  0  0  0  0  0
  -26.4010  -31.7710   25.0890 C   0  0  1  0  0  0  0  0  0  0  0  0
  -25.2900  -31.5300   26.1370 C   0  0  0  0  0  1  0  0  0  0  0  0
  -27.0150  -30.3980   24.7350 C   0  0  0  0  0  1  0  0  0  0  0  0
  -27.5260  -32.5910   25.7640 C   0  0  0  0  0  1  0  0  0  0  0  0
  1  2  1  0
  2  6  2  0
  2 10  1  0
  3  4  2  0
  4 49  1  0
  4  6  1  0
  5  3  1  0
  5  1  2  0
  6  9  1  0
  7  3  1  0
  8  5  1  0
 11 19  1  0
 12 17  1  0
 13 14  1  0
 13 12  1  0
 15 14  1  0
 15 24  1  0
 15 16  1  0
 17 11  1  0
 17 16  1  0
 18 11  2  0
 19 10  1  0
 20 19  1  0
 21 22  2  0
 22 41  1  0
 23 22  1  0
 23 26  1  0
 24 21  1  0
 24 25  1  0
 25 23  2  0
 26 27  1  0
 27 28  2  0
 29 32  1  0
 29 28  1  0
 30 29  2  0
 31 30  1  0
 31 26  2  0
 32 33  1  0
 33 34  1  0
 34 35  2  0
 36 35  1  0
 36 40  1  0
 37 36  2  0
 38 33  2  0
 38 37  1  0
 39 38  1  0
 41 42  1  0
 42 45  1  0
 42 44  1  0
 43 41  2  0
 46 47  1  0
 46 21  1  0
 48 46  1  0
 50 52  1  0
 50 49  1  0
 51 62  2  0
 52 57  1  0
 53 61  1  0
 53 63  1  0
 54 60  1  0
 54 56  1  0
 55 61  1  0
 56 55  1  0
 57 56  2  0
 58 52  2  0
 59 58  1  0
 59 54  2  0
 60 53  1  0
 61 51  1  0
 63 65  2  0
 64 63  1  0
 66 64  1  0
 67 76  2  0
 67 72  1  0
 68 64  1  0
 68 72  1  0
 69 68  1  0
 70 71  1  0
 70 69  1  0
 71 67  1  0
 72 73  2  0
 73 74  1  0
 75 74  2  0
 76 75  1  0
 77 51  1  0
 77 78  1  0
 77 87  1  0
 78 81  1  0
 79 83  1  0
 79 78  1  0
 80 79  2  0
 83 82  1  0
 85 83  1  0
 85 86  1  0
 85 84  1  0
 87 90  1  1
 87 88  1  0
 89 87  1  0
M  ISO  4  11 100  19 100  49 101  50 101
M  END
>  <TORSDO>  (41) 
F 18

>  <SCORE>  (41) 
-16.499

>  <name>  (41) 
40

>  <ligand_id>  (41) 
40

>  <original_smiles>  (41) 
[H]c1c([H])c([H])c2c(c1[H])C([H])([H])C([H])([H])C([H])([H])C2([H])N([H])C(=O)C1([H])N(C(=O)C([H])(N([H])C(=O)C([H])(N([H])C([H])([H])[H])C([H])([H])[H])C(C([H])([H])[H])(C([H])([H])[H])C([H])([H])[H])C([H])([H])c2c([H])c(OC([H])([H])c3c(Cl)c(C([H])([H])N([H])C(=O)N4C([H])([H])C([H])([H])C([H])([H])C([H])(n5nc(-c6c([H])c([H])c(Oc7c([H])c([H])c(F)c([H])c7F)c([H])c6[H])c(C(=O)N([H])[H])c5N([H])[H])C4([H])[H])c([H])c(Cl)c3C([H])([H])[H])c([H])c([H])c2C1([H])[H]

>  <smiles>  (41) 
[H]c1c([H])c([H])c2c(c1[H])C([H])([H])C([H])([H])C([H])([H])C2([H])N([H])C(=O)C1([H])N(C(=O)C([H])(N([H])C(=O)C([H])(N([H])C([H])([H])[H])C([H])([H])[H])C(C([H])([H])[H])(C([H])([H])[H])C([H])([H])[H])C([H])([H])c2c([H])c(OC([H])([H])c3c(Cl)c(C([H])([H])N([H])C(=O)N4C([H])([H])C([H])([H])C([H])([H])C([H])(n5nc(-c6c([H])c([H])c(Oc7c([H])c([H])c(F)c([H])c7F)c([H])c6[H])c(C(=O)N([H])[H])c5N([H])[H])C4([H])[H])c([H])c(Cl)c3C([H])([H])[H])c([H])c([H])c2C1([H])[H]

$$$$
41:0:0
     RDKit          3D

 94102  0  0  1  0  0  0  0  0999 V2000
  -29.3790  -17.7840   20.7880 C   0  0  0  0  0  0  0  0  0  0  0  0
  -30.1560  -17.3760   19.7320 C   0  0  0  0  0  0  0  0  0  0  0  0
  -28.3010  -18.8550   19.1080 C   0  0  0  0  0  0  0  0  0  0  0  0
  -28.3690  -18.6870   20.4300 N   0  0  0  0  0  0  0  0  0  0  0  0
  -27.3850  -19.6660   18.4590 N   0  0  0  0  0  0  0  0  0  0  0  0
  -29.5350  -17.9760   18.2150 S   0  0  0  0  0  0  0  0  0  0  0  0
  -27.3420  -19.4720   17.4630 H   0  0  0  0  0  0  0  0  0  0  0  0
  -30.9280  -17.7380   22.7840 C   0  0  0  0  0  1  0  0  0  0  0  0
  -29.5650  -17.3400   22.2090 C   0  0  0  0  0  2  0  0  0  0  0  0
  -31.3600  -16.5000   19.8160 C   0  0  0  0  0  2  0  0  0  0  0  0
  -31.5190  -14.0500   19.4060 C   0  0  0  0  0  0  0  0  0  0  0  0
  -31.0520  -11.7490   18.6800 C   0  0  0  0  0  2  0  0  0  0  0  0
  -30.0260  -11.7830   17.5280 C   0  0  0  0  0  2  0  0  0  0  0  0
  -28.5950  -11.7530   18.1040 C   0  0  0  0  0  2  0  0  0  0  0  0
  -28.3710  -12.8160   19.2140 C   0  0  0  0  0  3  0  0  0  0  0  0
  -29.5150  -12.7750   20.2540 C   0  0  0  0  0  2  0  0  0  0  0  0
  -30.7970  -12.9090   19.5390 N   0  0  0  0  0  0  0  0  0  0  0  0
  -32.5480  -14.1410   18.7370 O   0  0  0  0  0  0  0  0  0  0  0  0
  -30.9610  -15.1130   19.9840 N   0  0  0  0  0  0  0  0  0  0  0  0
  -30.1060  -14.9420   20.4870 H   0  0  0  0  0  0  0  0  0  0  0  0
  -26.1650  -13.6230   20.2530 C   0  0  0  0  0  0  0  0  0  0  0  0
  -25.0680  -12.9480   20.7210 C   0  0  0  0  0  0  0  0  0  0  0  0
  -25.3690  -11.5590   20.5790 C   0  0  0  0  0  0  0  0  0  0  0  0
  -27.0660  -12.6520   19.8530 N   0  0  0  0  0  0  0  0  0  0  0  0
  -26.6010  -11.4010   20.1070 N   0  0  0  0  0  0  0  0  0  0  0  0
  -24.5340  -10.3720   20.8180 C   0  0  0  0  0  0  0  0  0  0  0  0
  -24.8990   -9.3860   21.7620 C   0  0  0  0  0  3  0  0  0  0  0  0
  -24.0690   -8.2660   21.9840 C   0  0  0  0  0  3  0  0  0  0  0  0
  -22.8610   -8.1240   21.2620 C   0  0  0  0  0  0  0  0  0  0  0  0
  -22.5130   -9.0950   20.3070 C   0  0  0  0  0  3  0  0  0  0  0  0
  -23.3420  -10.2070   20.0850 C   0  0  0  0  0  3  0  0  0  0  0  0
  -22.0080   -7.0550   21.3920 O   0  0  0  0  0  0  0  0  0  0  0  0
  -21.8420   -6.4100   22.5900 C   0  0  0  0  0  0  0  0  0  0  0  0
  -21.3480   -7.0790   23.7320 C   0  0  0  0  0  3  0  0  0  0  0  0
  -21.1240   -6.3620   24.9240 C   0  0  0  0  0  3  0  0  0  0  0  0
  -21.3860   -4.9810   24.9760 C   0  0  0  0  0  0  0  0  0  0  0  0
  -21.8710   -4.3120   23.8380 C   0  0  0  0  0  3  0  0  0  0  0  0
  -22.0960   -5.0250   22.6480 C   0  0  0  0  0  0  0  0  0  0  0  0
  -22.5480   -4.3750   21.5480 F   0  0  0  0  0  0  0  0  0  0  0  0
  -21.1620   -4.2890   26.1180 F   0  0  0  0  0  0  0  0  0  0  0  0
  -23.7810  -13.5600   21.1890 C   0  0  0  0  0  0  0  0  0  0  0  0
  -23.1030  -12.9060   22.1280 N   0  0  0  0  0  0  0  0  0  0  0  0
  -23.3920  -14.6460   20.7630 O   0  0  0  0  0  0  0  0  0  0  0  0
  -23.4390  -12.0240   22.4840 H   0  0  0  0  0  0  0  0  0  0  0  0
  -22.2450  -13.2910   22.4930 H   0  0  0  0  0  0  0  0  0  0  0  0
  -26.4640  -14.9700   20.1160 N   0  0  0  0  0  0  0  0  0  0  0  0
  -25.8010  -15.7000   20.3520 H   0  0  0  0  0  0  0  0  0  0  0  0
  -27.3290  -15.3210   19.7200 H   0  0  0  0  0  0  0  0  0  0  0  0
  -26.4310  -20.6750   18.8930 C   0  0  0  0  0  2  0  0  0  0  0  0
  -26.9470  -22.0960   18.6160 C   0  0  0  0  0  2  0  0  0  0  0  0
  -27.8710  -22.6860   19.6990 C   0  0  0  0  0  2  0  0  0  0  0  0
  -28.6470  -23.9110   19.1690 C   0  0  0  0  0  2  0  0  0  0  0  0
  -28.9700  -24.9700   20.2370 C   0  0  0  0  0  2  0  0  0  0  0  0
  -28.9950  -26.2920   19.6900 O   0  0  0  0  0  0  0  0  0  0  0  0
  -25.1620  -31.0840   23.2750 C   0  0  0  0  0  0  0  0  0  0  0  0
  -27.8110  -26.9910   19.7660 C   0  0  0  0  0  0  0  0  0  0  0  0
  -23.9560  -29.8540   21.5020 C   0  0  0  0  0  3  0  0  0  0  0  0
  -25.4050  -28.4600   19.9400 C   0  0  0  0  0  0  0  0  0  0  0  0
  -26.4780  -30.2420   21.3290 C   0  0  0  0  0  2  0  0  0  0  0  0
  -26.5650  -28.9380   20.5590 C   0  0  0  0  0  0  0  0  0  0  0  0
  -27.7750  -28.2150   20.4640 C   0  0  0  0  0  3  0  0  0  0  0  0
  -26.6290  -26.5160   19.1530 C   0  0  0  0  0  3  0  0  0  0  0  0
  -25.4300  -27.2440   19.2370 C   0  0  0  0  0  3  0  0  0  0  0  0
  -24.1590  -29.3060   20.0660 C   0  0  0  0  0  2  0  0  0  0  0  0
  -25.2180  -30.4010   22.0950 N   0  0  0  0  0  0  0  0  0  0  0  0
  -24.0810  -31.2960   23.8410 O   0  0  0  0  0  0  0  0  0  0  0  0
  -23.3020  -28.7450   22.3580 C   0  0  0  0  0  0  0  0  0  0  0  0
  -21.9880  -28.5450   22.1690 N   0  0  0  0  0  0  0  0  0  0  0  0
  -23.9780  -28.0720   23.1400 O   0  0  0  0  0  0  0  0  0  0  0  0
  -21.5010  -29.1660   21.5380 H   0  0  0  0  0  0  0  0  0  0  0  0
  -18.6510  -27.1600   22.4190 C   0  0  0  0  0  0  0  0  0  0  0  0
  -21.1820  -27.5060   22.8120 C   0  0  0  0  0  3  0  0  0  0  0  0
  -21.3820  -26.1360   22.1220 C   0  0  0  0  0  2  0  0  0  0  0  0
  -20.3190  -25.8110   21.0690 C   0  0  0  0  0  2  0  0  0  0  0  0
  -18.9100  -25.8640   21.6660 C   0  0  0  0  0  2  0  0  0  0  0  0
  -19.7160  -27.9360   22.9450 C   0  0  0  0  0  0  0  0  0  0  0  0
  -19.4210  -29.1520   23.6020 C   0  0  0  0  0  3  0  0  0  0  0  0
  -18.0910  -29.5940   23.7370 C   0  0  0  0  0  3  0  0  0  0  0  0
  -17.0410  -28.8160   23.2160 C   0  0  0  0  0  3  0  0  0  0  0  0
  -17.3200  -27.5980   22.5710 C   0  0  0  0  0  3  0  0  0  0  0  0
  -26.4440  -31.6510   23.9560 C   0  0  0  0  0  3  0  0  0  0  0  0
  -26.1550  -33.0330   24.3620 N   0  0  0  0  0  0  0  0  0  0  0  0
  -26.5420  -34.1200   23.6850 C   0  0  0  0  0  0  0  0  0  0  0  0
  -27.2560  -34.0630   22.6790 O   0  0  0  0  0  0  0  0  0  0  0  0
  -25.5310  -33.1520   25.1480 H   0  0  0  0  0  0  0  0  0  0  0  0
  -24.8740  -35.9740   23.3750 C   0  0  0  0  0  1  0  0  0  0  0  0
  -26.0700  -35.4910   24.2110 C   0  0  0  0  0  3  0  0  0  0  0  0
  -28.1870  -36.2690   25.1840 C   0  0  0  0  0  1  0  0  0  0  0  0
  -27.1330  -36.5220   24.2030 N   0  0  0  0  0  0  0  0  0  0  0  0
  -26.7440  -37.4450   24.3840 H   0  0  0  0  0  0  0  0  0  0  0  0
  -26.9260  -30.7920   25.1880 C   0  0  1  0  0  0  0  0  0  0  0  0
  -25.8160  -30.4970   26.2230 C   0  0  0  0  0  1  0  0  0  0  0  0
  -27.4960  -29.4360   24.7110 C   0  0  0  0  0  1  0  0  0  0  0  0
  -28.0780  -31.5250   25.9160 C   0  0  0  0  0  1  0  0  0  0  0  0
  1  9  1  0
  2 10  1  0
  2  1  2  0
  3  4  2  0
  4  1  1  0
  5 49  1  0
  5  3  1  0
  6  3  1  0
  6  2  1  0
  7  5  1  0
  9  8  1  0
 10 19  1  0
 11 17  1  0
 11 19  1  0
 12 17  1  0
 13 14  1  0
 13 12  1  0
 15 14  1  0
 15 24  1  0
 15 16  1  0
 17 16  1  0
 18 11  2  0
 19 20  1  0
 21 22  2  0
 22 41  1  0
 23 22  1  0
 23 26  1  0
 24 25  1  0
 24 21  1  0
 25 23  2  0
 26 27  1  0
 27 28  2  0
 29 32  1  0
 29 28  1  0
 30 29  2  0
 31 30  1  0
 31 26  2  0
 32 33  1  0
 33 38  2  0
 33 34  1  0
 34 35  2  0
 35 36  1  0
 36 40  1  0
 37 36  2  0
 38 37  1  0
 39 38  1  0
 41 42  1  0
 42 44  1  0
 42 45  1  0
 43 41  2  0
 46 21  1  0
 46 47  1  0
 48 46  1  0
 50 49  1  0
 50 51  1  0
 52 51  1  0
 52 53  1  0
 54 56  1  0
 54 53  1  0
 55 66  2  0
 56 61  1  0
 57 65  1  0
 57 67  1  0
 58 64  1  0
 58 60  1  0
 59 65  1  0
 60 59  1  0
 61 60  2  0
 62 63  1  0
 62 56  2  0
 63 58  2  0
 64 57  1  0
 65 55  1  0
 67 69  2  0
 68 67  1  0
 70 68  1  0
 71 80  2  0
 71 76  1  0
 72 68  1  0
 72 76  1  0
 73 72  1  0
 74 75  1  0
 74 73  1  0
 75 71  1  0
 76 77  2  0
 77 78  1  0
 79 78  2  0
 80 79  1  0
 81 55  1  0
 81 82  1  0
 81 91  1  0
 82 85  1  0
 83 87  1  0
 83 82  1  0
 84 83  2  0
 87 86  1  0
 89 87  1  0
 89 90  1  0
 89 88  1  0
 91 94  1  1
 91 92  1  0
 93 91  1  0
M  ISO  4  11 100  19 100  53 101  54 101
M  END
>  <TORSDO>  (42) 
F 23

>  <SCORE>  (42) 
-9.153

>  <name>  (42) 
41

>  <ligand_id>  (42) 
41

>  <original_smiles>  (42) 
[H]c1c([H])c([H])c2c(c1[H])C([H])([H])C([H])([H])C([H])([H])C2([H])N([H])C(=O)C1([H])N(C(=O)C([H])(N([H])C(=O)C([H])(N([H])C([H])([H])[H])C([H])([H])[H])C(C([H])([H])[H])(C([H])([H])[H])C([H])([H])[H])C([H])([H])c2c([H])c(OC([H])([H])C([H])([H])C([H])([H])C([H])([H])C([H])([H])N([H])c3nc(C([H])([H])C([H])([H])[H])c(C([H])([H])N([H])C(=O)N4C([H])([H])C([H])([H])C([H])([H])C([H])(n5nc(-c6c([H])c([H])c(Oc7c([H])c([H])c(F)c([H])c7F)c([H])c6[H])c(C(=O)N([H])[H])c5N([H])[H])C4([H])[H])s3)c([H])c([H])c2C1([H])[H]

>  <smiles>  (42) 
[H]c1c([H])c([H])c2c(c1[H])C([H])([H])C([H])([H])C([H])([H])C2([H])N([H])C(=O)C1([H])N(C(=O)C([H])(N([H])C(=O)C([H])(N([H])C([H])([H])[H])C([H])([H])[H])C(C([H])([H])[H])(C([H])([H])[H])C([H])([H])[H])C([H])([H])c2c([H])c(OC([H])([H])C([H])([H])C([H])([H])C([H])([H])C([H])([H])N([H])c3nc(C([H])([H])C([H])([H])[H])c(C([H])([H])N([H])C(=O)N4C([H])([H])C([H])([H])C([H])([H])C([H])(n5nc(-c6c([H])c([H])c(Oc7c([H])c([H])c(F)c([H])c7F)c([H])c6[H])c(C(=O)N([H])[H])c5N([H])[H])C4([H])[H])s3)c([H])c([H])c2C1([H])[H]

$$$$
42:0:0
     RDKit          3D

 90 98  0  0  1  0  0  0  0  0999 V2000
  -29.5440  -21.3070   21.3860 C   0  0  0  0  0  3  0  0  0  0  0  0
  -28.8140  -21.3120   19.1410 C   0  0  0  0  0  3  0  0  0  0  0  0
  -29.0690  -22.1130   20.2980 C   0  0  0  0  0  0  0  0  0  0  0  0
  -29.6560  -19.1040   20.1200 C   0  0  0  0  0  0  0  0  0  0  0  0
  -29.8300  -19.8890   21.3080 C   0  0  0  0  0  0  0  0  0  0  0  0
  -29.0890  -19.8900   19.0530 C   0  0  0  0  0  0  0  0  0  0  0  0
  -30.5210  -19.1380   22.7010 Cl  0  0  0  0  0  0  0  0  0  0  0  0
  -28.7940  -19.1380   17.5250 Cl  0  0  0  0  0  0  0  0  0  0  0  0
  -29.1270  -23.7500   20.3260 C   0  0  0  0  0  3  0  0  0  0  0  0
  -27.9370  -24.8570   20.0510 C   0  0  0  0  0  3  0  0  0  0  0  0
  -28.1690  -26.3720   20.1830 O   0  0  0  0  0  0  0  0  0  0  0  0
  -24.5090  -31.9350   23.2090 C   0  0  0  0  0  0  0  0  0  0  0  0
  -27.0870  -27.3010   20.1250 C   0  0  0  0  0  0  0  0  0  0  0  0
  -23.2960  -30.5350   21.5810 C   0  0  0  0  0  3  0  0  0  0  0  0
  -24.7370  -28.9870   20.1280 C   0  0  0  0  0  0  0  0  0  0  0  0
  -25.8400  -30.8410   21.3750 C   0  0  0  0  0  2  0  0  0  0  0  0
  -25.9170  -29.4550   20.7190 C   0  0  0  0  0  0  0  0  0  0  0  0
  -27.0940  -28.6270   20.7020 C   0  0  0  0  0  3  0  0  0  0  0  0
  -25.8810  -26.9200   19.4970 C   0  0  0  0  0  3  0  0  0  0  0  0
  -24.7280  -27.7310   19.5020 C   0  0  0  0  0  3  0  0  0  0  0  0
  -23.5010  -29.8670   20.1960 C   0  0  0  0  0  2  0  0  0  0  0  0
  -24.5680  -31.1230   22.1110 N   0  0  0  0  0  0  0  0  0  0  0  0
  -23.4290  -32.2060   23.7550 O   0  0  0  0  0  0  0  0  0  0  0  0
  -22.6430  -29.5150   22.5470 C   0  0  0  0  0  0  0  0  0  0  0  0
  -21.3290  -29.2800   22.3900 N   0  0  0  0  0  0  0  0  0  0  0  0
  -23.3220  -28.9380   23.4000 O   0  0  0  0  0  0  0  0  0  0  0  0
  -20.8360  -29.7990   21.6760 H   0  0  0  0  0  0  0  0  0  0  0  0
  -18.0030  -27.9070   22.7950 C   0  0  0  0  0  0  0  0  0  0  0  0
  -20.5290  -28.3260   23.1620 C   0  0  0  0  0  3  0  0  0  0  0  0
  -20.7360  -26.8820   22.6450 C   0  0  0  0  0  2  0  0  0  0  0  0
  -19.7000  -26.4610   21.6000 C   0  0  0  0  0  2  0  0  0  0  0  0
  -18.2840  -26.5490   22.1790 C   0  0  0  0  0  2  0  0  0  0  0  0
  -19.0570  -28.7480   23.2420 C   0  0  0  0  0  0  0  0  0  0  0  0
  -18.7400  -30.0160   23.7780 C   0  0  0  0  0  3  0  0  0  0  0  0
  -17.4030  -30.4440   23.8730 C   0  0  0  0  0  3  0  0  0  0  0  0
  -16.3630  -29.6030   23.4420 C   0  0  0  0  0  3  0  0  0  0  0  0
  -16.6630  -28.3360   22.9090 C   0  0  0  0  0  3  0  0  0  0  0  0
  -25.7920  -32.5770   23.8180 C   0  0  0  0  0  3  0  0  0  0  0  0
  -26.3090  -31.8240   25.1060 C   0  0  1  0  0  0  0  0  0  0  0  0
  -25.2110  -31.5800   26.1670 C   0  0  0  0  0  1  0  0  0  0  0  0
  -26.9150  -30.4520   24.7310 C   0  0  0  0  0  1  0  0  0  0  0  0
  -27.4440  -32.6380   25.7680 C   0  0  0  0  0  1  0  0  0  0  0  0
  -25.4830  -33.9800   24.1330 N   0  0  0  0  0  0  0  0  0  0  0  0
  -25.7720  -35.0220   23.3420 C   0  0  0  0  0  0  0  0  0  0  0  0
  -26.3950  -34.9030   22.2830 O   0  0  0  0  0  0  0  0  0  0  0  0
  -24.9230  -34.1450   24.9580 H   0  0  0  0  0  0  0  0  0  0  0  0
  -24.0010  -36.7870   23.0560 C   0  0  0  0  0  1  0  0  0  0  0  0
  -25.2970  -36.4170   23.7960 C   0  0  0  0  0  3  0  0  0  0  0  0
  -27.4580  -37.3610   24.4810 C   0  0  0  0  0  1  0  0  0  0  0  0
  -26.3060  -37.4790   23.5900 N   0  0  0  0  0  0  0  0  0  0  0  0
  -25.8950  -38.3980   23.7270 H   0  0  0  0  0  0  0  0  0  0  0  0
  -30.3610  -17.6390   19.8880 C   0  0  0  0  0  2  0  0  0  0  0  0
  -30.5750  -14.9990   19.9030 C   0  0  0  0  0  0  0  0  0  0  0  0
  -30.3680  -12.6790   18.9540 C   0  0  0  0  0  2  0  0  0  0  0  0
  -29.3610  -12.6810   17.7830 C   0  0  0  0  0  2  0  0  0  0  0  0
  -27.9240  -12.4760   18.3040 C   0  0  0  0  0  2  0  0  0  0  0  0
  -27.5990  -13.3700   19.5310 C   0  0  0  0  0  3  0  0  0  0  0  0
  -28.7280  -13.3560   20.5820 C   0  0  0  0  0  2  0  0  0  0  0  0
  -29.9610  -13.7570   19.8940 N   0  0  0  0  0  0  0  0  0  0  0  0
  -31.7470  -15.0660   19.5230 O   0  0  0  0  0  0  0  0  0  0  0  0
  -29.8440  -16.1860   20.1150 N   0  0  0  0  0  0  0  0  0  0  0  0
  -28.8800  -16.0840   20.3890 H   0  0  0  0  0  0  0  0  0  0  0  0
  -25.2850  -13.9080   20.4880 C   0  0  0  0  0  0  0  0  0  0  0  0
  -24.2490  -13.1160   20.8980 C   0  0  0  0  0  0  0  0  0  0  0  0
  -24.7010  -11.7690   20.7520 C   0  0  0  0  0  0  0  0  0  0  0  0
  -26.3010  -13.0450   20.1140 N   0  0  0  0  0  0  0  0  0  0  0  0
  -25.9640  -11.7480   20.3380 N   0  0  0  0  0  0  0  0  0  0  0  0
  -23.9830  -10.4980   20.9240 C   0  0  0  0  0  0  0  0  0  0  0  0
  -24.3810   -9.5480   21.8900 C   0  0  0  0  0  3  0  0  0  0  0  0
  -23.6600   -8.3450   22.0490 C   0  0  0  0  0  3  0  0  0  0  0  0
  -22.5270   -8.0830   21.2420 C   0  0  0  0  0  0  0  0  0  0  0  0
  -22.1490   -9.0230   20.2660 C   0  0  0  0  0  3  0  0  0  0  0  0
  -22.8700  -10.2180   20.1050 C   0  0  0  0  0  3  0  0  0  0  0  0
  -21.7800   -6.9310   21.3100 O   0  0  0  0  0  0  0  0  0  0  0  0
  -21.5470   -6.2940   22.5020 C   0  0  0  0  0  0  0  0  0  0  0  0
  -20.8390   -6.9170   23.5540 C   0  0  0  0  0  3  0  0  0  0  0  0
  -20.5590   -6.2020   24.7350 C   0  0  0  0  0  3  0  0  0  0  0  0
  -20.9760   -4.8640   24.8650 C   0  0  0  0  0  0  0  0  0  0  0  0
  -21.6750   -4.2390   23.8160 C   0  0  0  0  0  3  0  0  0  0  0  0
  -21.9560   -4.9520   22.6380 C   0  0  0  0  0  0  0  0  0  0  0  0
  -22.6110   -4.3390   21.6230 F   0  0  0  0  0  0  0  0  0  0  0  0
  -20.7020   -4.1750   25.9970 F   0  0  0  0  0  0  0  0  0  0  0  0
  -22.8800  -13.5810   21.3040 C   0  0  0  0  0  0  0  0  0  0  0  0
  -22.2200  -12.8440   22.1920 N   0  0  0  0  0  0  0  0  0  0  0  0
  -22.4070  -14.6300   20.8700 O   0  0  0  0  0  0  0  0  0  0  0  0
  -22.6180  -11.9970   22.5660 H   0  0  0  0  0  0  0  0  0  0  0  0
  -21.3040  -13.1360   22.5030 H   0  0  0  0  0  0  0  0  0  0  0  0
  -25.4390  -15.2880   20.3780 N   0  0  0  0  0  0  0  0  0  0  0  0
  -24.6820  -15.9300   20.5860 H   0  0  0  0  0  0  0  0  0  0  0  0
  -26.2450  -15.7470   19.9750 H   0  0  0  0  0  0  0  0  0  0  0  0
  2  3  1  0
  3  9  1  0
  3  1  2  0
  4  5  2  0
  5  1  1  0
  5  7  1  0
  6  2  2  0
  6  4  1  0
  8  6  1  0
 10 11  1  0
 10  9  2  0
 12 23  2  0
 13 11  1  0
 13 18  1  0
 14 22  1  0
 14 24  1  0
 15 21  1  0
 15 17  1  0
 16 22  1  0
 17 16  1  0
 18 17  2  0
 19 20  1  0
 19 13  2  0
 20 15  2  0
 21 14  1  0
 22 12  1  0
 24 26  2  0
 25 24  1  0
 27 25  1  0
 28 37  2  0
 28 33  1  0
 29 25  1  0
 29 33  1  0
 30 29  1  0
 31 32  1  0
 31 30  1  0
 32 28  1  0
 33 34  2  0
 34 35  1  0
 36 35  2  0
 37 36  1  0
 38 12  1  0
 38 43  1  0
 38 39  1  0
 39 42  1  1
 39 40  1  0
 41 39  1  0
 43 46  1  0
 44 48  1  0
 44 43  1  0
 45 44  2  0
 48 47  1  0
 50 51  1  0
 50 48  1  0
 50 49  1  0
 52 61  1  0
 52  4  1  0
 53 61  1  0
 54 59  1  0
 55 56  1  0
 55 54  1  0
 57 56  1  0
 57 66  1  0
 57 58  1  0
 59 53  1  0
 59 58  1  0
 60 53  2  0
 61 62  1  0
 63 64  2  0
 64 83  1  0
 65 64  1  0
 65 68  1  0
 66 67  1  0
 66 63  1  0
 67 65  2  0
 68 69  1  0
 69 70  2  0
 71 74  1  0
 71 70  1  0
 72 71  2  0
 73 72  1  0
 73 68  2  0
 74 75  1  0
 75 80  2  0
 75 76  1  0
 76 77  2  0
 77 78  1  0
 78 82  1  0
 79 78  2  0
 80 79  1  0
 81 80  1  0
 83 84  1  0
 84 87  1  0
 84 86  1  0
 85 83  2  0
 88 63  1  0
 88 89  1  0
 90 88  1  0
M  ISO  4  10 101  11 101  53 100  61 100
M  END
>  <TORSDO>  (43) 
F 19

>  <SCORE>  (43) 
-13.344

>  <name>  (43) 
42

>  <ligand_id>  (43) 
42

>  <original_smiles>  (43) 
[H]c1c([H])c([H])c2c(c1[H])C([H])([H])C([H])([H])C([H])([H])C2([H])N([H])C(=O)C1([H])N(C(=O)C([H])(N([H])C(=O)C([H])(N([H])C([H])([H])[H])C([H])([H])[H])C(C([H])([H])[H])(C([H])([H])[H])C([H])([H])[H])C([H])([H])c2c([H])c(OC([H])([H])C([H])([H])c3c([H])c(Cl)c(C([H])([H])N([H])C(=O)N4C([H])([H])C([H])([H])C([H])([H])C([H])(n5nc(-c6c([H])c([H])c(Oc7c([H])c([H])c(F)c([H])c7F)c([H])c6[H])c(C(=O)N([H])[H])c5N([H])[H])C4([H])[H])c(Cl)c3[H])c([H])c([H])c2C1([H])[H]

>  <smiles>  (43) 
[H]c1c([H])c([H])c2c(c1[H])C([H])([H])C([H])([H])C([H])([H])C2([H])N([H])C(=O)C1([H])N(C(=O)C([H])(N([H])C(=O)C([H])(N([H])C([H])([H])[H])C([H])([H])[H])C(C([H])([H])[H])(C([H])([H])[H])C([H])([H])[H])C([H])([H])c2c([H])c(OC([H])([H])C([H])([H])c3c([H])c(Cl)c(C([H])([H])N([H])C(=O)N4C([H])([H])C([H])([H])C([H])([H])C([H])(n5nc(-c6c([H])c([H])c(Oc7c([H])c([H])c(F)c([H])c7F)c([H])c6[H])c(C(=O)N([H])[H])c5N([H])[H])C4([H])[H])c(Cl)c3[H])c([H])c([H])c2C1([H])[H]

$$$$
43:0:0
     RDKit          3D

 91 99  0  0  1  0  0  0  0  0999 V2000
  -29.8670  -19.8700   19.7860 C   0  0  0  0  0  3  0  0  0  0  0  0
  -28.2600  -18.0730   19.5080 C   0  0  0  0  0  3  0  0  0  0  0  0
  -29.5840  -18.4440   19.7880 C   0  0  0  0  0  0  0  0  0  0  0  0
  -28.8810  -20.9020   19.5120 C   0  0  0  0  0  0  0  0  0  0  0  0
  -27.5600  -20.4300   19.2570 C   0  0  0  0  0  0  0  0  0  0  0  0
  -27.2700  -19.0340   19.2520 C   0  0  0  0  0  0  0  0  0  0  0  0
  -26.4480  -21.4070   18.9350 C   0  0  0  0  0  1  0  0  0  0  0  0
  -25.6880  -18.4230   18.9020 Cl  0  0  0  0  0  0  0  0  0  0  0  0
  -29.2950  -22.4420   19.3290 C   0  0  0  0  0  3  0  0  0  0  0  0
  -28.5140  -23.7540   19.9150 C   0  0  0  0  0  3  0  0  0  0  0  0
  -28.9010  -25.1970   19.3110 C   0  0  0  0  0  2  0  0  0  0  0  0
  -28.6360  -26.4640   20.0440 O   0  0  0  0  0  0  0  0  0  0  0  0
  -24.6200  -31.6120   23.1030 C   0  0  0  0  0  0  0  0  0  0  0  0
  -27.4510  -27.2200   19.9670 C   0  0  0  0  0  0  0  0  0  0  0  0
  -23.4930  -30.2360   21.3840 C   0  0  0  0  0  3  0  0  0  0  0  0
  -25.0220  -28.7520   19.9560 C   0  0  0  0  0  0  0  0  0  0  0  0
  -26.0250  -30.6170   21.2800 C   0  0  0  0  0  2  0  0  0  0  0  0
  -26.1570  -29.2610   20.5970 C   0  0  0  0  0  0  0  0  0  0  0  0
  -27.3660  -28.5040   20.5930 C   0  0  0  0  0  3  0  0  0  0  0  0
  -26.2890  -26.7530   19.3150 C   0  0  0  0  0  3  0  0  0  0  0  0
  -25.0900  -27.5020   19.3120 C   0  0  0  0  0  3  0  0  0  0  0  0
  -23.7590  -29.5940   19.9950 C   0  0  0  0  0  2  0  0  0  0  0  0
  -24.7300  -30.8380   21.9820 N   0  0  0  0  0  0  0  0  0  0  0  0
  -23.5170  -31.8460   23.6200 O   0  0  0  0  0  0  0  0  0  0  0  0
  -22.8240  -29.1830   22.2980 C   0  0  0  0  0  0  0  0  0  0  0  0
  -21.5020  -28.9960   22.1480 N   0  0  0  0  0  0  0  0  0  0  0  0
  -23.4990  -28.5300   23.1000 O   0  0  0  0  0  0  0  0  0  0  0  0
  -21.0120  -29.5440   21.4530 H   0  0  0  0  0  0  0  0  0  0  0  0
  -18.1370  -27.7810   22.6310 C   0  0  0  0  0  0  0  0  0  0  0  0
  -20.6940  -28.0250   22.8850 C   0  0  0  0  0  3  0  0  0  0  0  0
  -20.7850  -26.6240   22.2390 C   0  0  0  0  0  2  0  0  0  0  0  0
  -19.6780  -26.3570   21.2150 C   0  0  0  0  0  2  0  0  0  0  0  0
  -18.3040  -26.4720   21.8750 C   0  0  0  0  0  2  0  0  0  0  0  0
  -19.2600  -28.5180   23.0910 C   0  0  0  0  0  0  0  0  0  0  0  0
  -19.0510  -29.7420   23.7610 C   0  0  0  0  0  3  0  0  0  0  0  0
  -17.7480  -30.2320   23.9670 C   0  0  0  0  0  3  0  0  0  0  0  0
  -16.6400  -29.4970   23.5140 C   0  0  0  0  0  3  0  0  0  0  0  0
  -16.8350  -28.2700   22.8560 C   0  0  0  0  0  3  0  0  0  0  0  0
  -25.8700  -32.2610   23.7760 C   0  0  0  0  0  3  0  0  0  0  0  0
  -26.3580  -31.4820   25.0580 C   0  0  1  0  0  0  0  0  0  0  0  0
  -25.2370  -31.2170   26.0890 C   0  0  0  0  0  1  0  0  0  0  0  0
  -26.9730  -30.1190   24.6650 C   0  0  0  0  0  1  0  0  0  0  0  0
  -27.4740  -32.2850   25.7680 C   0  0  0  0  0  1  0  0  0  0  0  0
  -25.5200  -33.6470   24.1180 N   0  0  0  0  0  0  0  0  0  0  0  0
  -25.8550  -34.7220   23.3930 C   0  0  0  0  0  0  0  0  0  0  0  0
  -26.5590  -34.6560   22.3820 O   0  0  0  0  0  0  0  0  0  0  0  0
  -24.8980  -33.7730   24.9030 H   0  0  0  0  0  0  0  0  0  0  0  0
  -24.0960  -36.4880   23.0300 C   0  0  0  0  0  1  0  0  0  0  0  0
  -25.3250  -36.0910   23.8640 C   0  0  0  0  0  3  0  0  0  0  0  0
  -27.4130  -37.0170   24.7650 C   0  0  0  0  0  1  0  0  0  0  0  0
  -26.3340  -37.1700   23.7950 N   0  0  0  0  0  0  0  0  0  0  0  0
  -25.9010  -38.0780   23.9370 H   0  0  0  0  0  0  0  0  0  0  0  0
  -30.6420  -17.3150   20.1160 C   0  0  0  0  0  2  0  0  0  0  0  0
  -30.9510  -14.7430   20.3010 C   0  0  0  0  0  0  0  0  0  0  0  0
  -30.7230  -12.4300   19.4290 C   0  0  0  0  0  2  0  0  0  0  0  0
  -29.8160  -12.4610   18.1790 C   0  0  0  0  0  2  0  0  0  0  0  0
  -28.3310  -12.3500   18.5770 C   0  0  0  0  0  2  0  0  0  0  0  0
  -27.9440  -13.3110   19.7340 C   0  0  0  0  0  3  0  0  0  0  0  0
  -28.9740  -13.2600   20.8870 C   0  0  0  0  0  2  0  0  0  0  0  0
  -30.2960  -13.5370   20.3080 N   0  0  0  0  0  0  0  0  0  0  0  0
  -32.1430  -14.8110   19.9970 O   0  0  0  0  0  0  0  0  0  0  0  0
  -30.1970  -15.8900   20.4040 N   0  0  0  0  0  0  0  0  0  0  0  0
  -29.2190  -15.7500   20.6040 H   0  0  0  0  0  0  0  0  0  0  0  0
  -25.5600  -13.9780   20.4110 C   0  0  0  0  0  0  0  0  0  0  0  0
  -24.4650  -13.2350   20.7680 C   0  0  0  0  0  0  0  0  0  0  0  0
  -24.8950  -11.8730   20.7670 C   0  0  0  0  0  0  0  0  0  0  0  0
  -26.5840  -13.0680   20.2070 N   0  0  0  0  0  0  0  0  0  0  0  0
  -26.1890  -11.7990   20.4850 N   0  0  0  0  0  0  0  0  0  0  0  0
  -24.1330  -10.6300   20.9610 C   0  0  0  0  0  0  0  0  0  0  0  0
  -24.5310   -9.6620   21.9100 C   0  0  0  0  0  3  0  0  0  0  0  0
  -23.7720   -8.4870   22.0950 C   0  0  0  0  0  3  0  0  0  0  0  0
  -22.5990   -8.2710   21.3330 C   0  0  0  0  0  0  0  0  0  0  0  0
  -22.2210   -9.2270   20.3730 C   0  0  0  0  0  3  0  0  0  0  0  0
  -22.9820  -10.3950   20.1860 C   0  0  0  0  0  3  0  0  0  0  0  0
  -21.8140   -7.1470   21.4260 O   0  0  0  0  0  0  0  0  0  0  0  0
  -21.7430   -6.4080   22.5820 C   0  0  0  0  0  0  0  0  0  0  0  0
  -21.3460   -6.9800   23.8110 C   0  0  0  0  0  3  0  0  0  0  0  0
  -21.2240   -6.1710   24.9570 C   0  0  0  0  0  3  0  0  0  0  0  0
  -21.4860   -4.7900   24.8760 C   0  0  0  0  0  0  0  0  0  0  0  0
  -21.8740   -4.2180   23.6520 C   0  0  0  0  0  3  0  0  0  0  0  0
  -22.0000   -5.0240   22.5080 C   0  0  0  0  0  0  0  0  0  0  0  0
  -22.3550   -4.4640   21.3260 F   0  0  0  0  0  0  0  0  0  0  0  0
  -21.3570   -4.0090   25.9740 F   0  0  0  0  0  0  0  0  0  0  0  0
  -23.0780  -13.7500   21.0060 C   0  0  0  0  0  0  0  0  0  0  0  0
  -22.3250  -13.0960   21.8840 N   0  0  0  0  0  0  0  0  0  0  0  0
  -22.6670  -14.7650   20.4460 O   0  0  0  0  0  0  0  0  0  0  0  0
  -22.6700  -12.2740   22.3590 H   0  0  0  0  0  0  0  0  0  0  0  0
  -21.3890  -13.4190   22.0800 H   0  0  0  0  0  0  0  0  0  0  0  0
  -25.7610  -15.3420   20.2280 N   0  0  0  0  0  0  0  0  0  0  0  0
  -25.0250  -16.0180   20.3960 H   0  0  0  0  0  0  0  0  0  0  0  0
  -26.6210  -15.7730   19.9140 H   0  0  0  0  0  0  0  0  0  0  0  0
  1  3  1  0
  2  3  2  0
  3 53  1  0
  4  1  2  0
  5  4  1  0
  6  5  2  0
  6  2  1  0
  7  5  1  0
  8  6  1  0
  9  4  1  0
  9 10  2  0
 11 10  1  0
 11 12  1  0
 13 24  2  0
 14 12  1  0
 14 19  1  0
 15 23  1  0
 15 25  1  0
 16 22  1  0
 16 18  1  0
 17 23  1  0
 18 17  1  0
 19 18  2  0
 20 14  2  0
 21 20  1  0
 21 16  2  0
 22 15  1  0
 23 13  1  0
 25 27  2  0
 26 25  1  0
 28 26  1  0
 29 38  2  0
 29 34  1  0
 30 26  1  0
 30 34  1  0
 31 30  1  0
 32 33  1  0
 32 31  1  0
 33 29  1  0
 34 35  2  0
 35 36  1  0
 37 36  2  0
 38 37  1  0
 39 13  1  0
 39 44  1  0
 39 40  1  0
 40 43  1  1
 40 41  1  0
 42 40  1  0
 44 47  1  0
 45 49  1  0
 45 44  1  0
 46 45  2  0
 49 48  1  0
 51 49  1  0
 51 52  1  0
 51 50  1  0
 53 62  1  0
 54 60  1  0
 54 62  1  0
 55 60  1  0
 56 57  1  0
 56 55  1  0
 58 57  1  0
 58 67  1  0
 58 59  1  0
 60 59  1  0
 61 54  2  0
 62 63  1  0
 64 65  2  0
 65 84  1  0
 66 65  1  0
 66 69  1  0
 67 64  1  0
 67 68  1  0
 68 66  2  0
 69 70  1  0
 70 71  2  0
 72 75  1  0
 72 71  1  0
 73 72  2  0
 74 73  1  0
 74 69  2  0
 75 76  1  0
 76 77  1  0
 77 78  2  0
 79 78  1  0
 79 83  1  0
 80 79  2  0
 81 76  2  0
 81 80  1  0
 82 81  1  0
 84 85  1  0
 85 88  1  0
 85 87  1  0
 86 84  2  0
 89 90  1  0
 89 64  1  0
 91 89  1  0
M  ISO  4  11 101  12 101  54 100  62 100
M  END
>  <TORSDO>  (44) 
F 20

>  <SCORE>  (44) 
-12.745

>  <name>  (44) 
43

>  <ligand_id>  (44) 
43

>  <original_smiles>  (44) 
[H]c1c([H])c([H])c2c(c1[H])C([H])([H])C([H])([H])C([H])([H])C2([H])N([H])C(=O)C1([H])N(C(=O)C([H])(N([H])C(=O)C([H])(N([H])C([H])([H])[H])C([H])([H])[H])C(C([H])([H])[H])(C([H])([H])[H])C([H])([H])[H])C([H])([H])c2c([H])c(OC([H])([H])C([H])([H])C([H])([H])c3c([H])c(C([H])([H])N([H])C(=O)N4C([H])([H])C([H])([H])C([H])([H])C([H])(n5nc(-c6c([H])c([H])c(Oc7c([H])c([H])c(F)c([H])c7F)c([H])c6[H])c(C(=O)N([H])[H])c5N([H])[H])C4([H])[H])c([H])c(Cl)c3C([H])([H])[H])c([H])c([H])c2C1([H])[H]

>  <smiles>  (44) 
[H]c1c([H])c([H])c2c(c1[H])C([H])([H])C([H])([H])C([H])([H])C2([H])N([H])C(=O)C1([H])N(C(=O)C([H])(N([H])C(=O)C([H])(N([H])C([H])([H])[H])C([H])([H])[H])C(C([H])([H])[H])(C([H])([H])[H])C([H])([H])[H])C([H])([H])c2c([H])c(OC([H])([H])C([H])([H])C([H])([H])c3c([H])c(C([H])([H])N([H])C(=O)N4C([H])([H])C([H])([H])C([H])([H])C([H])(n5nc(-c6c([H])c([H])c(Oc7c([H])c([H])c(F)c([H])c7F)c([H])c6[H])c(C(=O)N([H])[H])c5N([H])[H])C4([H])[H])c([H])c(Cl)c3C([H])([H])[H])c([H])c([H])c2C1([H])[H]

$$$$
44:0:0
     RDKit          3D

 97105  0  0  1  0  0  0  0  0999 V2000
  -30.5240  -19.7860   19.6500 C   0  0  0  0  0  3  0  0  0  0  0  0
  -31.3900  -17.5190   19.6870 C   0  0  0  0  0  3  0  0  0  0  0  0
  -31.5900  -18.8890   19.4660 C   0  0  0  0  0  0  0  0  0  0  0  0
  -29.2440  -19.3360   20.0350 C   0  0  0  0  0  0  0  0  0  0  0  0
  -29.0580  -17.9270   20.2750 C   0  0  0  0  0  0  0  0  0  0  0  0
  -30.1470  -17.0020   20.1220 C   0  0  0  0  0  0  0  0  0  0  0  0
  -27.6870  -17.4110   20.7090 C   0  0  0  0  0  1  0  0  0  0  0  0
  -30.7340  -14.5170   20.0110 C   0  0  0  0  0  0  0  0  0  0  0  0
  -30.3840  -12.3610   18.8790 C   0  0  0  0  0  2  0  0  0  0  0  0
  -29.3840  -12.6020   17.7280 C   0  0  0  0  0  2  0  0  0  0  0  0
  -27.9300  -12.4860   18.2300 C   0  0  0  0  0  2  0  0  0  0  0  0
  -27.6730  -13.2970   19.5290 C   0  0  0  0  0  3  0  0  0  0  0  0
  -28.7800  -13.0350   20.5750 C   0  0  0  0  0  2  0  0  0  0  0  0
  -30.0710  -13.3320   19.9400 N   0  0  0  0  0  0  0  0  0  0  0  0
  -31.8940  -14.6250   19.6060 O   0  0  0  0  0  0  0  0  0  0  0  0
  -29.9700  -15.5830   20.3740 N   0  0  0  0  0  0  0  0  0  0  0  0
  -29.0770  -15.3230   20.7620 H   0  0  0  0  0  0  0  0  0  0  0  0
  -25.3260  -13.9300   20.3660 C   0  0  0  0  0  0  0  0  0  0  0  0
  -24.2680  -13.1720   20.7820 C   0  0  0  0  0  0  0  0  0  0  0  0
  -24.7040  -11.8120   20.7080 C   0  0  0  0  0  0  0  0  0  0  0  0
  -26.3430  -13.0360   20.0710 N   0  0  0  0  0  0  0  0  0  0  0  0
  -25.9750  -11.7560   20.3330 N   0  0  0  0  0  0  0  0  0  0  0  0
  -23.9670  -10.5600   20.9130 C   0  0  0  0  0  0  0  0  0  0  0  0
  -24.3880   -9.6000   21.8590 C   0  0  0  0  0  3  0  0  0  0  0  0
  -23.6510   -8.4120   22.0500 C   0  0  0  0  0  3  0  0  0  0  0  0
  -22.4780   -8.1760   21.2940 C   0  0  0  0  0  0  0  0  0  0  0  0
  -22.0760   -9.1230   20.3360 C   0  0  0  0  0  3  0  0  0  0  0  0
  -22.8150  -10.3040   20.1430 C   0  0  0  0  0  3  0  0  0  0  0  0
  -21.7130   -7.0390   21.3930 O   0  0  0  0  0  0  0  0  0  0  0  0
  -21.6100   -6.3420   22.5700 C   0  0  0  0  0  0  0  0  0  0  0  0
  -21.1070   -6.9340   23.7490 C   0  0  0  0  0  3  0  0  0  0  0  0
  -20.9550   -6.1610   24.9170 C   0  0  0  0  0  3  0  0  0  0  0  0
  -21.2970   -4.7950   24.9070 C   0  0  0  0  0  0  0  0  0  0  0  0
  -21.7950   -4.2020   23.7340 C   0  0  0  0  0  3  0  0  0  0  0  0
  -21.9480   -4.9720   22.5680 C   0  0  0  0  0  0  0  0  0  0  0  0
  -22.4080   -4.3900   21.4350 F   0  0  0  0  0  0  0  0  0  0  0  0
  -21.1450   -4.0510   26.0270 F   0  0  0  0  0  0  0  0  0  0  0  0
  -22.8940  -13.6680   21.1300 C   0  0  0  0  0  0  0  0  0  0  0  0
  -22.1970  -12.9700   22.0190 N   0  0  0  0  0  0  0  0  0  0  0  0
  -22.4510  -14.7080   20.6480 O   0  0  0  0  0  0  0  0  0  0  0  0
  -22.5700  -12.1270   22.4300 H   0  0  0  0  0  0  0  0  0  0  0  0
  -21.2760  -13.2840   22.2940 H   0  0  0  0  0  0  0  0  0  0  0  0
  -25.4980  -15.3000   20.1880 N   0  0  0  0  0  0  0  0  0  0  0  0
  -24.7160  -15.9380   20.2950 H   0  0  0  0  0  0  0  0  0  0  0  0
  -26.2840  -15.7100   19.7010 H   0  0  0  0  0  0  0  0  0  0  0  0
  -32.9630  -19.3680   19.0230 C   0  0  1  0  0  0  0  0  0  0  0  0
  -33.0520  -20.6980   19.0240 F   0  0  0  0  0  0  0  0  0  0  0  0
  -33.8990  -18.8840   19.8420 F   0  0  0  0  0  0  0  0  0  0  0  0
  -33.2050  -18.9260   17.7900 F   0  0  0  0  0  0  0  0  0  0  0  0
  -28.1280  -20.3980   20.2560 C   0  0  0  0  0  2  0  0  0  0  0  0
  -28.0250  -21.5320   19.2820 N   0  0  0  0  0  4  0  0  0  0  0  0
  -27.0740  -21.8510   19.3550 H   0  0  0  0  0  0  0  0  0  0  0  0
  -28.1300  -21.1700   18.3490 H   0  0  0  0  0  0  0  0  0  0  0  0
  -28.8760  -22.7540   19.4530 C   0  0  0  0  0  2  0  0  0  0  0  0
  -28.0620  -24.0750   19.7080 C   0  0  0  0  0  2  0  0  0  0  0  0
  -28.6900  -25.3770   19.1080 C   0  0  0  0  0  2  0  0  0  0  0  0
  -28.4850  -26.6120   19.8320 O   0  0  0  0  0  0  0  0  0  0  0  0
  -24.5510  -31.5890   23.0530 C   0  0  0  0  0  0  0  0  0  0  0  0
  -27.2910  -27.3140   19.7930 C   0  0  0  0  0  0  0  0  0  0  0  0
  -23.3840  -30.2570   21.3270 C   0  0  0  0  0  3  0  0  0  0  0  0
  -24.8770  -28.8120   19.8390 C   0  0  0  0  0  0  0  0  0  0  0  0
  -25.9100  -30.6480   21.1870 C   0  0  0  0  0  2  0  0  0  0  0  0
  -26.0170  -29.3110   20.4760 C   0  0  0  0  0  0  0  0  0  0  0  0
  -27.2220  -28.5650   20.4560 C   0  0  0  0  0  3  0  0  0  0  0  0
  -26.1300  -26.8380   19.1440 C   0  0  0  0  0  3  0  0  0  0  0  0
  -24.9290  -27.5780   19.1650 C   0  0  0  0  0  3  0  0  0  0  0  0
  -23.6200  -29.6520   19.9150 C   0  0  0  0  0  2  0  0  0  0  0  0
  -24.6310  -30.8460   21.9130 N   0  0  0  0  0  0  0  0  0  0  0  0
  -23.4600  -31.8200   23.5940 O   0  0  0  0  0  0  0  0  0  0  0  0
  -22.7390  -29.1800   22.2280 C   0  0  0  0  0  0  0  0  0  0  0  0
  -21.4130  -29.0110   22.1040 N   0  0  0  0  0  0  0  0  0  0  0  0
  -23.4300  -28.5020   22.9940 O   0  0  0  0  0  0  0  0  0  0  0  0
  -20.9210  -29.6090   21.4560 H   0  0  0  0  0  0  0  0  0  0  0  0
  -18.0330  -27.8400   22.6040 C   0  0  0  0  0  0  0  0  0  0  0  0
  -20.6020  -28.0300   22.8230 C   0  0  0  0  0  3  0  0  0  0  0  0
  -20.6610  -26.6460   22.1320 C   0  0  0  0  0  2  0  0  0  0  0  0
  -19.5260  -26.4280   21.1270 C   0  0  0  0  0  2  0  0  0  0  0  0
  -18.1650  -26.5470   21.8190 C   0  0  0  0  0  2  0  0  0  0  0  0
  -19.1780  -28.5450   23.0620 C   0  0  0  0  0  0  0  0  0  0  0  0
  -18.9990  -29.7610   23.7560 C   0  0  0  0  0  3  0  0  0  0  0  0
  -17.7100  -30.2710   23.9960 C   0  0  0  0  0  3  0  0  0  0  0  0
  -16.5800  -29.5620   23.5510 C   0  0  0  0  0  3  0  0  0  0  0  0
  -16.7430  -28.3480   22.8610 C   0  0  0  0  0  3  0  0  0  0  0  0
  -25.8220  -32.2040   23.7180 C   0  0  0  0  0  3  0  0  0  0  0  0
  -25.5000  -33.5910   24.0760 N   0  0  0  0  0  0  0  0  0  0  0  0
  -25.8570  -34.6640   23.3580 C   0  0  0  0  0  0  0  0  0  0  0  0
  -26.5580  -34.5890   22.3440 O   0  0  0  0  0  0  0  0  0  0  0  0
  -24.8650  -33.7200   24.8500 H   0  0  0  0  0  0  0  0  0  0  0  0
  -24.1340  -36.4650   23.0100 C   0  0  0  0  0  1  0  0  0  0  0  0
  -25.3570  -36.0390   23.8380 C   0  0  0  0  0  3  0  0  0  0  0  0
  -27.4640  -36.9090   24.7520 C   0  0  0  0  0  1  0  0  0  0  0  0
  -26.3920  -37.0940   23.7770 N   0  0  0  0  0  0  0  0  0  0  0  0
  -25.9810  -38.0110   23.9290 H   0  0  0  0  0  0  0  0  0  0  0  0
  -26.3140  -31.3980   24.9840 C   0  0  1  0  0  0  0  0  0  0  0  0
  -25.1920  -31.1270   26.0160 C   0  0  0  0  0  1  0  0  0  0  0  0
  -26.9090  -30.0320   24.5680 C   0  0  0  0  0  1  0  0  0  0  0  0
  -27.4500  -32.1730   25.6910 C   0  0  0  0  0  1  0  0  0  0  0  0
  1  4  1  0
  2  6  2  0
  3  1  2  0
  3  2  1  0
  4 50  1  0
  4  5  2  0
  5  7  1  0
  6  5  1  0
  6 16  1  0
  8 16  1  0
  9 14  1  0
 10 11  1  0
 10  9  1  0
 12 11  1  0
 12 21  1  0
 12 13  1  0
 14  8  1  0
 14 13  1  0
 15  8  2  0
 16 17  1  0
 18 19  2  0
 19 38  1  0
 20 19  1  0
 20 23  1  0
 21 22  1  0
 21 18  1  0
 22 20  2  0
 23 24  1  0
 24 25  2  0
 26 29  1  0
 26 25  1  0
 27 26  2  0
 28 27  1  0
 28 23  2  0
 29 30  1  0
 30 31  1  0
 31 32  2  0
 33 32  1  0
 33 37  1  0
 34 33  2  0
 35 30  2  0
 35 34  1  0
 36 35  1  0
 38 39  1  0
 39 42  1  0
 39 41  1  0
 40 38  2  0
 43 44  1  0
 43 18  1  0
 45 43  1  0
 46 47  1  6
 46  3  1  0
 46 48  1  0
 49 46  1  0
 51 52  1  0
 51 54  1  0
 51 50  1  0
 53 51  1  0
 54 55  1  0
 56 55  1  0
 56 57  1  0
 58 69  2  0
 59 57  1  0
 59 64  1  0
 60 68  1  0
 60 70  1  0
 61 67  1  0
 61 63  1  0
 62 68  1  0
 63 62  1  0
 64 63  2  0
 65 66  1  0
 65 59  2  0
 66 61  2  0
 67 60  1  0
 68 58  1  0
 70 72  2  0
 71 70  1  0
 73 71  1  0
 74 83  2  0
 74 79  1  0
 75 71  1  0
 75 79  1  0
 76 75  1  0
 77 78  1  0
 77 76  1  0
 78 74  1  0
 79 80  2  0
 80 81  1  0
 82 81  2  0
 83 82  1  0
 84 58  1  0
 84 85  1  0
 84 94  1  0
 85 88  1  0
 86 90  1  0
 86 85  1  0
 87 86  2  0
 90 89  1  0
 92 90  1  0
 92 93  1  0
 92 91  1  0
 94 97  1  1
 94 95  1  0
 96 94  1  0
M  ISO  4   8 100  16 100  56 101  57 101
M  END
>  <TORSDO>  (45) 
F 22

>  <SCORE>  (45) 
-12.526

>  <name>  (45) 
44

>  <ligand_id>  (45) 
44

>  <original_smiles>  (45) 
[H]c1c([H])c([H])c2c(c1[H])C([H])([H])C([H])([H])C([H])([H])C2([H])N([H])C(=O)C1([H])N(C(=O)C([H])(N([H])C(=O)C([H])(N([H])C([H])([H])[H])C([H])([H])[H])C(C([H])([H])[H])(C([H])([H])[H])C([H])([H])[H])C([H])([H])c2c([H])c(OC([H])([H])C([H])([H])C([H])([H])[N+]([H])([H])C([H])([H])c3c([H])c(C(F)(F)F)c([H])c(N([H])C(=O)N4C([H])([H])C([H])([H])C([H])([H])C([H])(n5nc(-c6c([H])c([H])c(Oc7c([H])c([H])c(F)c([H])c7F)c([H])c6[H])c(C(=O)N([H])[H])c5N([H])[H])C4([H])[H])c3C([H])([H])[H])c([H])c([H])c2C1([H])[H]

>  <smiles>  (45) 
[H]c1c([H])c([H])c2c(c1[H])C([H])([H])C([H])([H])C([H])([H])C2([H])N([H])C(=O)C1([H])N(C(=O)C([H])(N([H])C(=O)C([H])(N([H])C([H])([H])[H])C([H])([H])[H])C(C([H])([H])[H])(C([H])([H])[H])C([H])([H])[H])C([H])([H])c2c([H])c(OC([H])([H])C([H])([H])C([H])([H])[N+]([H])([H])C([H])([H])c3c([H])c(C(F)(F)F)c([H])c(N([H])C(=O)N4C([H])([H])C([H])([H])C([H])([H])C([H])(n5nc(-c6c([H])c([H])c(Oc7c([H])c([H])c(F)c([H])c7F)c([H])c6[H])c(C(=O)N([H])[H])c5N([H])[H])C4([H])[H])c3C([H])([H])[H])c([H])c([H])c2C1([H])[H]

$$$$
45:0:0
     RDKit          3D

 90 98  0  0  1  0  0  0  0  0999 V2000
  -28.8680  -19.6450   20.0490 C   0  0  0  0  0  3  0  0  0  0  0  0
  -30.3970  -21.5410   21.3580 C   0  0  0  0  0  3  0  0  0  0  0  0
  -28.5600  -21.0740   19.9480 C   0  0  0  0  0  0  0  0  0  0  0  0
  -29.9860  -19.0980   20.7720 C   0  0  0  0  0  0  0  0  0  0  0  0
  -29.3360  -22.1050   20.5870 C   0  0  0  0  0  0  0  0  0  0  0  0
  -30.7200  -20.1390   21.4360 C   0  0  0  0  0  0  0  0  0  0  0  0
  -27.3820  -21.4930   19.0940 C   0  0  0  0  0  1  0  0  0  0  0  0
  -32.1410  -19.7410   22.3410 Cl  0  0  0  0  0  0  0  0  0  0  0  0
  -29.3090  -23.7350   20.3610 C   0  0  0  0  0  3  0  0  0  0  0  0
  -28.0610  -24.8090   20.3000 C   0  0  0  0  0  3  0  0  0  0  0  0
  -28.2850  -26.3310   20.3030 O   0  0  0  0  0  0  0  0  0  0  0  0
  -24.6130  -31.9320   23.2500 C   0  0  0  0  0  0  0  0  0  0  0  0
  -27.1990  -27.2600   20.2400 C   0  0  0  0  0  0  0  0  0  0  0  0
  -23.4100  -30.5460   21.6030 C   0  0  0  0  0  3  0  0  0  0  0  0
  -24.8620  -28.9720   20.1830 C   0  0  0  0  0  0  0  0  0  0  0  0
  -25.9610  -30.8190   21.4420 C   0  0  0  0  0  2  0  0  0  0  0  0
  -26.0380  -29.4280   20.7970 C   0  0  0  0  0  0  0  0  0  0  0  0
  -27.2060  -28.5890   20.8050 C   0  0  0  0  0  3  0  0  0  0  0  0
  -25.9970  -26.8880   19.5930 C   0  0  0  0  0  3  0  0  0  0  0  0
  -24.8530  -27.7130   19.5680 C   0  0  0  0  0  3  0  0  0  0  0  0
  -23.6350  -29.8700   20.2250 C   0  0  0  0  0  2  0  0  0  0  0  0
  -24.6800  -31.1190   22.1530 N   0  0  0  0  0  0  0  0  0  0  0  0
  -23.5270  -32.2190   23.7800 O   0  0  0  0  0  0  0  0  0  0  0  0
  -22.7290  -29.5350   22.5580 C   0  0  0  0  0  0  0  0  0  0  0  0
  -21.4020  -29.3680   22.4240 N   0  0  0  0  0  0  0  0  0  0  0  0
  -23.3960  -28.9050   23.3830 O   0  0  0  0  0  0  0  0  0  0  0  0
  -20.9170  -29.9280   21.7380 H   0  0  0  0  0  0  0  0  0  0  0  0
  -18.0110  -28.2000   22.9190 C   0  0  0  0  0  0  0  0  0  0  0  0
  -20.5720  -28.4350   23.1880 C   0  0  0  0  0  3  0  0  0  0  0  0
  -20.6590  -27.0050   22.6060 C   0  0  0  0  0  2  0  0  0  0  0  0
  -19.5550  -26.7010   21.5880 C   0  0  0  0  0  2  0  0  0  0  0  0
  -18.1730  -26.8540   22.2330 C   0  0  0  0  0  2  0  0  0  0  0  0
  -19.1370  -28.9500   23.3530 C   0  0  0  0  0  0  0  0  0  0  0  0
  -18.9310  -30.2100   23.9550 C   0  0  0  0  0  3  0  0  0  0  0  0
  -17.6300  -30.7220   24.1230 C   0  0  0  0  0  3  0  0  0  0  0  0
  -16.5180  -29.9700   23.7020 C   0  0  0  0  0  3  0  0  0  0  0  0
  -16.7110  -28.7110   23.1080 C   0  0  0  0  0  3  0  0  0  0  0  0
  -25.8910  -32.5610   23.8810 C   0  0  0  0  0  3  0  0  0  0  0  0
  -26.3930  -31.7880   25.1630 C   0  0  1  0  0  0  0  0  0  0  0  0
  -25.2910  -31.5570   26.2220 C   0  0  0  0  0  1  0  0  0  0  0  0
  -26.9760  -30.4080   24.7780 C   0  0  0  0  0  1  0  0  0  0  0  0
  -27.5420  -32.5750   25.8380 C   0  0  0  0  0  1  0  0  0  0  0  0
  -25.5880  -33.9610   24.2150 N   0  0  0  0  0  0  0  0  0  0  0  0
  -25.9070  -35.0140   23.4520 C   0  0  0  0  0  0  0  0  0  0  0  0
  -26.5580  -34.9100   22.4090 O   0  0  0  0  0  0  0  0  0  0  0  0
  -25.0090  -34.1160   25.0280 H   0  0  0  0  0  0  0  0  0  0  0  0
  -24.1700  -36.8070   23.1280 C   0  0  0  0  0  1  0  0  0  0  0  0
  -25.4280  -36.4030   23.9170 C   0  0  0  0  0  3  0  0  0  0  0  0
  -27.5720  -37.2950   24.7130 C   0  0  0  0  0  1  0  0  0  0  0  0
  -26.4560  -37.4590   23.7840 N   0  0  0  0  0  0  0  0  0  0  0  0
  -26.0520  -38.3790   23.9350 H   0  0  0  0  0  0  0  0  0  0  0  0
  -30.5680  -17.5560   20.7930 C   0  0  0  0  0  2  0  0  0  0  0  0
  -30.5930  -14.9380   20.3350 C   0  0  0  0  0  0  0  0  0  0  0  0
  -30.3700  -12.6250   19.3390 C   0  0  0  0  0  2  0  0  0  0  0  0
  -29.4220  -12.6070   18.1180 C   0  0  0  0  0  2  0  0  0  0  0  0
  -27.9650  -12.3970   18.5780 C   0  0  0  0  0  2  0  0  0  0  0  0
  -27.5790  -13.3270   19.7590 C   0  0  0  0  0  3  0  0  0  0  0  0
  -28.6530  -13.3570   20.8700 C   0  0  0  0  0  2  0  0  0  0  0  0
  -29.9280  -13.7230   20.2420 N   0  0  0  0  0  0  0  0  0  0  0  0
  -31.7920  -14.9540   20.0450 O   0  0  0  0  0  0  0  0  0  0  0  0
  -29.9170  -16.1560   20.5670 N   0  0  0  0  0  0  0  0  0  0  0  0
  -28.9220  -16.0970   20.7090 H   0  0  0  0  0  0  0  0  0  0  0  0
  -25.2120  -13.9030   20.5520 C   0  0  0  0  0  0  0  0  0  0  0  0
  -24.1500  -13.1250   20.9270 C   0  0  0  0  0  0  0  0  0  0  0  0
  -24.6130  -11.7730   20.8760 C   0  0  0  0  0  0  0  0  0  0  0  0
  -26.2490  -13.0260   20.2810 N   0  0  0  0  0  0  0  0  0  0  0  0
  -25.9000  -11.7400   20.5450 N   0  0  0  0  0  0  0  0  0  0  0  0
  -23.8830  -10.5110   21.0550 C   0  0  0  0  0  0  0  0  0  0  0  0
  -24.3140   -9.5340   21.9810 C   0  0  0  0  0  3  0  0  0  0  0  0
  -23.5850   -8.3380   22.1500 C   0  0  0  0  0  3  0  0  0  0  0  0
  -22.4110   -8.1090   21.3940 C   0  0  0  0  0  0  0  0  0  0  0  0
  -22.0000   -9.0720   20.4570 C   0  0  0  0  0  3  0  0  0  0  0  0
  -22.7280  -10.2600   20.2850 C   0  0  0  0  0  3  0  0  0  0  0  0
  -21.6520   -6.9670   21.4750 O   0  0  0  0  0  0  0  0  0  0  0  0
  -21.5830   -6.2290   22.6300 C   0  0  0  0  0  0  0  0  0  0  0  0
  -21.1110   -6.7820   23.8410 C   0  0  0  0  0  3  0  0  0  0  0  0
  -20.9890   -5.9700   24.9870 C   0  0  0  0  0  3  0  0  0  0  0  0
  -21.3280   -4.6060   24.9240 C   0  0  0  0  0  0  0  0  0  0  0  0
  -21.7920   -4.0500   23.7180 C   0  0  0  0  0  3  0  0  0  0  0  0
  -21.9160   -4.8590   22.5740 C   0  0  0  0  0  0  0  0  0  0  0  0
  -22.3450   -4.3150   21.4110 F   0  0  0  0  0  0  0  0  0  0  0  0
  -21.2070   -3.8240   26.0220 F   0  0  0  0  0  0  0  0  0  0  0  0
  -22.7570  -13.6030   21.2190 C   0  0  0  0  0  0  0  0  0  0  0  0
  -22.0390  -12.9030   22.0870 N   0  0  0  0  0  0  0  0  0  0  0  0
  -22.3160  -14.6350   20.7130 O   0  0  0  0  0  0  0  0  0  0  0  0
  -22.4080  -12.0680   22.5190 H   0  0  0  0  0  0  0  0  0  0  0  0
  -21.1040  -13.2050   22.3240 H   0  0  0  0  0  0  0  0  0  0  0  0
  -25.3700  -15.2750   20.3840 N   0  0  0  0  0  0  0  0  0  0  0  0
  -24.5860  -15.9110   20.4770 H   0  0  0  0  0  0  0  0  0  0  0  0
  -26.1940  -15.7190   20.0000 H   0  0  0  0  0  0  0  0  0  0  0  0
  1  4  1  0
  2  6  1  0
  3  1  2  0
  3  5  1  0
  4 52  1  0
  4  6  2  0
  5  2  2  0
  6  8  1  0
  7  3  1  0
  9  5  1  0
 10 11  1  0
 10  9  2  0
 12 23  2  0
 13 11  1  0
 13 18  1  0
 14 22  1  0
 14 24  1  0
 15 21  1  0
 15 17  1  0
 16 22  1  0
 17 18  2  0
 17 16  1  0
 19 13  2  0
 20 19  1  0
 20 15  2  0
 21 14  1  0
 22 12  1  0
 24 26  2  0
 25 24  1  0
 27 25  1  0
 28 37  2  0
 28 33  1  0
 29 25  1  0
 29 33  1  0
 30 29  1  0
 31 32  1  0
 31 30  1  0
 32 28  1  0
 33 34  2  0
 34 35  1  0
 36 35  2  0
 37 36  1  0
 38 12  1  0
 38 43  1  0
 38 39  1  0
 39 42  1  1
 39 40  1  0
 41 39  1  0
 43 46  1  0
 44 48  1  0
 44 43  1  0
 45 44  2  0
 48 47  1  0
 50 48  1  0
 50 51  1  0
 50 49  1  0
 53 61  1  0
 54 59  1  0
 55 56  1  0
 55 54  1  0
 57 56  1  0
 57 66  1  0
 57 58  1  0
 59 53  1  0
 59 58  1  0
 60 53  2  0
 61 62  1  0
 61 52  1  0
 63 64  2  0
 64 83  1  0
 65 64  1  0
 65 68  1  0
 66 67  1  0
 66 63  1  0
 67 65  2  0
 68 69  1  0
 69 70  2  0
 71 74  1  0
 71 70  1  0
 72 71  2  0
 73 72  1  0
 73 68  2  0
 74 75  1  0
 75 76  1  0
 76 77  2  0
 78 77  1  0
 78 82  1  0
 79 78  2  0
 80 75  2  0
 80 79  1  0
 81 80  1  0
 83 84  1  0
 84 87  1  0
 84 86  1  0
 85 83  2  0
 88 89  1  0
 88 63  1  0
 90 88  1  0
M  ISO  4  10 101  11 101  53 100  61 100
M  END
>  <TORSDO>  (46) 
F 19

>  <SCORE>  (46) 
-14.408

>  <name>  (46) 
45

>  <ligand_id>  (46) 
45

>  <original_smiles>  (46) 
[H]c1c([H])c([H])c2c(c1[H])C([H])([H])C([H])([H])C([H])([H])C2([H])N([H])C(=O)C1([H])N(C(=O)C([H])(N([H])C(=O)C([H])(N([H])C([H])([H])[H])C([H])([H])[H])C(C([H])([H])[H])(C([H])([H])[H])C([H])([H])[H])C([H])([H])c2c([H])c(OC([H])([H])C([H])([H])c3c([H])c(Cl)c(C([H])([H])N([H])C(=O)N4C([H])([H])C([H])([H])C([H])([H])C([H])(n5nc(-c6c([H])c([H])c(Oc7c([H])c([H])c(F)c([H])c7F)c([H])c6[H])c(C(=O)N([H])[H])c5N([H])[H])C4([H])[H])c([H])c3C([H])([H])[H])c([H])c([H])c2C1([H])[H]

>  <smiles>  (46) 
[H]c1c([H])c([H])c2c(c1[H])C([H])([H])C([H])([H])C([H])([H])C2([H])N([H])C(=O)C1([H])N(C(=O)C([H])(N([H])C(=O)C([H])(N([H])C([H])([H])[H])C([H])([H])[H])C(C([H])([H])[H])(C([H])([H])[H])C([H])([H])[H])C([H])([H])c2c([H])c(OC([H])([H])C([H])([H])c3c([H])c(Cl)c(C([H])([H])N([H])C(=O)N4C([H])([H])C([H])([H])C([H])([H])C([H])(n5nc(-c6c([H])c([H])c(Oc7c([H])c([H])c(F)c([H])c7F)c([H])c6[H])c(C(=O)N([H])[H])c5N([H])[H])C4([H])[H])c([H])c3C([H])([H])[H])c([H])c([H])c2C1([H])[H]

$$$$
46:0:0
     RDKit          3D

 89 98  0  0  1  0  0  0  0  0999 V2000
  -30.5200  -15.1020   20.3550 C   0  0  0  0  0  0  0  0  0  0  0  0
  -30.3890  -12.7210   19.4600 C   0  0  0  0  0  2  0  0  0  0  0  0
  -29.4620  -12.5950   18.2300 C   0  0  0  0  0  2  0  0  0  0  0  0
  -28.0050  -12.3500   18.6720 C   0  0  0  0  0  2  0  0  0  0  0  0
  -27.5620  -13.3000   19.8100 C   0  0  0  0  0  3  0  0  0  0  0  0
  -28.6240  -13.4320   20.9260 C   0  0  0  0  0  2  0  0  0  0  0  0
  -29.8820  -13.8530   20.2870 N   0  0  0  0  0  0  0  0  0  0  0  0
  -31.7550  -15.0780   20.2930 O   0  0  0  0  0  0  0  0  0  0  0  0
  -29.6010  -20.6030   20.7640 C   0  0  0  0  0  3  0  0  0  0  0  0
  -28.1140  -21.4020   19.0650 C   0  0  0  0  0  3  0  0  0  0  0  0
  -29.4960  -19.2080   20.2600 C   0  0  0  0  0  0  0  0  0  0  0  0
  -28.9100  -21.7760   20.1650 C   0  0  0  0  0  0  0  0  0  0  0  0
  -28.6890  -19.0960   19.1290 C   0  0  0  0  0  3  0  0  0  0  0  0
  -30.2220  -17.8130   20.7640 C   0  0  0  0  0  3  0  0  0  0  0  0
  -28.6340  -17.7540   18.4140 C   0  0  0  0  0  3  0  0  0  0  0  0
  -28.6940  -16.4870   19.3170 C   0  0  0  0  0  3  0  0  0  0  0  0
  -28.0170  -20.1370   18.5690 N   0  0  0  0  0  0  0  0  0  0  0  0
  -29.8130  -16.3650   20.2780 N   0  0  0  0  0  0  0  0  0  0  0  0
  -25.1870  -13.8910   20.5400 C   0  0  0  0  0  0  0  0  0  0  0  0
  -24.1190  -13.1180   20.8950 C   0  0  0  0  0  0  0  0  0  0  0  0
  -24.5890  -11.7680   20.8760 C   0  0  0  0  0  0  0  0  0  0  0  0
  -26.2320  -13.0080   20.3170 N   0  0  0  0  0  0  0  0  0  0  0  0
  -25.8830  -11.7290   20.5870 N   0  0  0  0  0  0  0  0  0  0  0  0
  -23.8650  -10.5070   21.0570 C   0  0  0  0  0  0  0  0  0  0  0  0
  -24.2920   -9.5420   21.9950 C   0  0  0  0  0  3  0  0  0  0  0  0
  -23.5670   -8.3430   22.1650 C   0  0  0  0  0  3  0  0  0  0  0  0
  -22.4030   -8.1030   21.3980 C   0  0  0  0  0  0  0  0  0  0  0  0
  -21.9980   -9.0570   20.4480 C   0  0  0  0  0  3  0  0  0  0  0  0
  -22.7230  -10.2470   20.2750 C   0  0  0  0  0  3  0  0  0  0  0  0
  -21.6500   -6.9580   21.4780 O   0  0  0  0  0  0  0  0  0  0  0  0
  -21.5880   -6.2190   22.6320 C   0  0  0  0  0  0  0  0  0  0  0  0
  -21.1430   -6.7760   23.8510 C   0  0  0  0  0  3  0  0  0  0  0  0
  -21.0280   -5.9640   24.9970 C   0  0  0  0  0  3  0  0  0  0  0  0
  -21.3490   -4.5950   24.9240 C   0  0  0  0  0  0  0  0  0  0  0  0
  -21.7880   -4.0370   23.7100 C   0  0  0  0  0  3  0  0  0  0  0  0
  -21.9050   -4.8470   22.5680 C   0  0  0  0  0  0  0  0  0  0  0  0
  -22.3070   -4.3010   21.3950 F   0  0  0  0  0  0  0  0  0  0  0  0
  -21.2310   -3.8130   26.0220 F   0  0  0  0  0  0  0  0  0  0  0  0
  -22.7170  -13.5950   21.1380 C   0  0  0  0  0  0  0  0  0  0  0  0
  -21.9780  -12.9060   22.0000 N   0  0  0  0  0  0  0  0  0  0  0  0
  -22.2860  -14.6140   20.5990 O   0  0  0  0  0  0  0  0  0  0  0  0
  -22.3410  -12.0830   22.4580 H   0  0  0  0  0  0  0  0  0  0  0  0
  -21.0370  -13.2080   22.2060 H   0  0  0  0  0  0  0  0  0  0  0  0
  -25.3420  -15.2620   20.3600 N   0  0  0  0  0  0  0  0  0  0  0  0
  -24.5670  -15.9070   20.4680 H   0  0  0  0  0  0  0  0  0  0  0  0
  -26.1940  -15.7130   20.0610 H   0  0  0  0  0  0  0  0  0  0  0  0
  -29.0310  -23.3820   20.5860 C   0  0  0  0  0  3  0  0  0  0  0  0
  -28.0560  -24.6810   20.0830 C   0  0  0  0  0  3  0  0  0  0  0  0
  -28.2540  -26.2100   20.3710 O   0  0  0  0  0  0  0  0  0  0  0  0
  -24.6220  -31.9400   23.2800 C   0  0  0  0  0  0  0  0  0  0  0  0
  -27.1960  -27.1940   20.2790 C   0  0  0  0  0  0  0  0  0  0  0  0
  -23.4210  -30.5400   21.6430 C   0  0  0  0  0  3  0  0  0  0  0  0
  -24.8690  -28.9510   20.2290 C   0  0  0  0  0  0  0  0  0  0  0  0
  -25.9760  -30.7930   21.4850 C   0  0  0  0  0  2  0  0  0  0  0  0
  -26.0480  -29.3960   20.8390 C   0  0  0  0  0  0  0  0  0  0  0  0
  -27.2090  -28.5340   20.8470 C   0  0  0  0  0  3  0  0  0  0  0  0
  -25.9920  -26.8540   19.6230 C   0  0  0  0  0  3  0  0  0  0  0  0
  -24.8550  -27.6940   19.6050 C   0  0  0  0  0  3  0  0  0  0  0  0
  -23.6440  -29.8530   20.2690 C   0  0  0  0  0  2  0  0  0  0  0  0
  -24.6930  -31.1140   22.1910 N   0  0  0  0  0  0  0  0  0  0  0  0
  -23.5350  -32.2310   23.8030 O   0  0  0  0  0  0  0  0  0  0  0  0
  -22.7350  -29.5420   22.6090 C   0  0  0  0  0  0  0  0  0  0  0  0
  -21.4070  -29.3730   22.4760 N   0  0  0  0  0  0  0  0  0  0  0  0
  -23.3990  -28.9220   23.4430 O   0  0  0  0  0  0  0  0  0  0  0  0
  -20.9260  -29.9250   21.7780 H   0  0  0  0  0  0  0  0  0  0  0  0
  -18.0220  -28.1760   22.9600 C   0  0  0  0  0  0  0  0  0  0  0  0
  -20.5780  -28.4430   23.2480 C   0  0  0  0  0  3  0  0  0  0  0  0
  -20.6860  -27.0050   22.6900 C   0  0  0  0  0  2  0  0  0  0  0  0
  -19.5940  -26.6720   21.6680 C   0  0  0  0  0  2  0  0  0  0  0  0
  -18.2060  -26.8200   22.2980 C   0  0  0  0  0  2  0  0  0  0  0  0
  -19.1350  -28.9450   23.3920 C   0  0  0  0  0  0  0  0  0  0  0  0
  -18.9080  -30.2110   23.9730 C   0  0  0  0  0  3  0  0  0  0  0  0
  -17.6010  -30.7100   24.1250 C   0  0  0  0  0  3  0  0  0  0  0  0
  -16.5020  -29.9400   23.7080 C   0  0  0  0  0  3  0  0  0  0  0  0
  -16.7130  -28.6740   23.1320 C   0  0  0  0  0  3  0  0  0  0  0  0
  -25.9000  -32.5730   23.9090 C   0  0  0  0  0  3  0  0  0  0  0  0
  -25.5960  -33.9780   24.2230 N   0  0  0  0  0  0  0  0  0  0  0  0
  -25.9250  -35.0230   23.4520 C   0  0  0  0  0  0  0  0  0  0  0  0
  -26.5820  -34.9070   22.4150 O   0  0  0  0  0  0  0  0  0  0  0  0
  -25.0090  -34.1430   25.0280 H   0  0  0  0  0  0  0  0  0  0  0  0
  -24.1910  -36.8180   23.1160 C   0  0  0  0  0  1  0  0  0  0  0  0
  -25.4520  -36.4210   23.9020 C   0  0  0  0  0  3  0  0  0  0  0  0
  -27.6050  -37.3160   24.6700 C   0  0  0  0  0  1  0  0  0  0  0  0
  -26.4830  -37.4700   23.7490 N   0  0  0  0  0  0  0  0  0  0  0  0
  -26.0810  -38.3940   23.8890 H   0  0  0  0  0  0  0  0  0  0  0  0
  -26.3960  -31.8160   25.2020 C   0  0  1  0  0  0  0  0  0  0  0  0
  -25.2880  -31.6060   26.2620 C   0  0  0  0  0  1  0  0  0  0  0  0
  -26.9700  -30.4270   24.8420 C   0  0  0  0  0  1  0  0  0  0  0  0
  -27.5470  -32.6100   25.8640 C   0  0  0  0  0  1  0  0  0  0  0  0
  2  7  1  0
  3  4  1  0
  3  2  1  0
  5  4  1  0
  5 22  1  0
  5  6  1  0
  7  1  1  0
  7  6  1  0
  8  1  2  0
 10 12  1  0
 11  9  1  0
 11 14  2  0
 12 47  1  0
 12  9  2  0
 13 15  1  0
 13 11  1  0
 15 16  2  0
 16 18  1  0
 17 10  2  0
 17 13  1  0
 18  1  1  0
 18 14  1  0
 19 20  2  0
 20 39  1  0
 21 20  1  0
 21 24  1  0
 22 19  1  0
 22 23  1  0
 23 21  2  0
 24 25  1  0
 25 26  2  0
 27 30  1  0
 27 26  1  0
 28 27  2  0
 29 28  1  0
 29 24  2  0
 30 31  1  0
 31 32  1  0
 32 33  2  0
 34 33  1  0
 34 38  1  0
 35 34  2  0
 36 31  2  0
 36 35  1  0
 37 36  1  0
 39 40  1  0
 40 43  1  0
 40 42  1  0
 41 39  2  0
 44 45  1  0
 44 19  1  0
 46 44  1  0
 48 49  1  0
 48 47  2  0
 50 61  2  0
 51 49  1  0
 51 56  1  0
 52 60  1  0
 52 62  1  0
 53 59  1  0
 53 55  1  0
 54 60  1  0
 55 56  2  0
 55 54  1  0
 57 51  2  0
 58 57  1  0
 58 53  2  0
 59 52  1  0
 60 50  1  0
 62 64  2  0
 63 62  1  0
 65 63  1  0
 66 75  2  0
 66 71  1  0
 67 63  1  0
 67 71  1  0
 68 67  1  0
 69 70  1  0
 69 68  1  0
 70 66  1  0
 71 72  2  0
 72 73  1  0
 74 73  2  0
 75 74  1  0
 76 50  1  0
 76 77  1  0
 76 86  1  0
 77 80  1  0
 78 82  1  0
 78 77  1  0
 79 78  2  0
 82 81  1  0
 84 85  1  0
 84 82  1  0
 84 83  1  0
 86 89  1  1
 86 87  1  0
 88 86  1  0
M  ISO  4   1 100  18 100  48 101  49 101
M  END
>  <TORSDO>  (47) 
F 17

>  <SCORE>  (47) 
-16.182

>  <name>  (47) 
46

>  <ligand_id>  (47) 
46

>  <original_smiles>  (47) 
[H]c1nc2c(c([H])c1C([H])([H])C([H])([H])Oc1c([H])c([H])c3c(c1[H])C([H])([H])N(C(=O)C([H])(N([H])C(=O)C([H])(N([H])C([H])([H])[H])C([H])([H])[H])C(C([H])([H])[H])(C([H])([H])[H])C([H])([H])[H])C([H])(C(=O)N([H])C1([H])c4c([H])c([H])c([H])c([H])c4C([H])([H])C([H])([H])C1([H])[H])C3([H])[H])C([H])([H])N(C(=O)N1C([H])([H])C([H])([H])C([H])([H])C([H])(n3nc(-c4c([H])c([H])c(Oc5c([H])c([H])c(F)c([H])c5F)c([H])c4[H])c(C(=O)N([H])[H])c3N([H])[H])C1([H])[H])C([H])([H])C2([H])[H]

>  <smiles>  (47) 
[H]c1nc2c(c([H])c1C([H])([H])C([H])([H])Oc1c([H])c([H])c3c(c1[H])C([H])([H])N(C(=O)C([H])(N([H])C(=O)C([H])(N([H])C([H])([H])[H])C([H])([H])[H])C(C([H])([H])[H])(C([H])([H])[H])C([H])([H])[H])C([H])(C(=O)N([H])C1([H])c4c([H])c([H])c([H])c([H])c4C([H])([H])C([H])([H])C1([H])[H])C3([H])[H])C([H])([H])N(C(=O)N1C([H])([H])C([H])([H])C([H])([H])C([H])(n3nc(-c4c([H])c([H])c(Oc5c([H])c([H])c(F)c([H])c5F)c([H])c4[H])c(C(=O)N([H])[H])c3N([H])[H])C1([H])[H])C([H])([H])C2([H])[H]

$$$$
47:0:0
     RDKit          3D

 91 99  0  0  1  0  0  0  0  0999 V2000
  -29.2350  -22.6600   21.4410 C   0  0  0  0  0  3  0  0  0  0  0  0
  -28.5230  -23.4360   20.4700 C   0  0  0  0  0  0  0  0  0  0  0  0
  -28.1170  -22.6330   19.3500 C   0  0  0  0  0  0  0  0  0  0  0  0
  -28.9820  -20.4070   20.3020 C   0  0  0  0  0  0  0  0  0  0  0  0
  -29.4540  -21.2310   21.3700 C   0  0  0  0  0  0  0  0  0  0  0  0
  -28.3390  -21.1910   19.2730 C   0  0  0  0  0  0  0  0  0  0  0  0
  -27.3320  -23.3180   18.2390 C   0  0  0  0  0  1  0  0  0  0  0  0
  -30.2450  -20.4730   22.7060 Cl  0  0  0  0  0  0  0  0  0  0  0  0
  -27.7040  -20.3460   17.9000 Cl  0  0  0  0  0  0  0  0  0  0  0  0
  -28.8890  -18.7660   20.3940 C   0  0  0  0  0  3  0  0  0  0  0  0
  -30.0850  -17.6250   20.2970 C   0  0  0  0  0  3  0  0  0  0  0  0
  -30.5400  -14.9430   20.2900 C   0  0  0  0  0  0  0  0  0  0  0  0
  -30.3900  -12.6180   19.3330 C   0  0  0  0  0  2  0  0  0  0  0  0
  -29.4400  -12.6010   18.1140 C   0  0  0  0  0  2  0  0  0  0  0  0
  -27.9820  -12.4010   18.5670 C   0  0  0  0  0  2  0  0  0  0  0  0
  -27.5940  -13.3250   19.7520 C   0  0  0  0  0  3  0  0  0  0  0  0
  -28.6600  -13.3060   20.8670 C   0  0  0  0  0  2  0  0  0  0  0  0
  -29.9350  -13.6960   20.2500 N   0  0  0  0  0  0  0  0  0  0  0  0
  -31.7340  -15.0260   19.9880 O   0  0  0  0  0  0  0  0  0  0  0  0
  -29.7570  -16.1010   20.4520 N   0  0  0  0  0  0  0  0  0  0  0  0
  -28.7900  -15.9030   20.6620 H   0  0  0  0  0  0  0  0  0  0  0  0
  -25.2220  -13.9080   20.5210 C   0  0  0  0  0  0  0  0  0  0  0  0
  -24.1590  -13.1340   20.8980 C   0  0  0  0  0  0  0  0  0  0  0  0
  -24.6190  -11.7820   20.8480 C   0  0  0  0  0  0  0  0  0  0  0  0
  -26.2590  -13.0300   20.2620 N   0  0  0  0  0  0  0  0  0  0  0  0
  -25.9060  -11.7450   20.5230 N   0  0  0  0  0  0  0  0  0  0  0  0
  -23.8930  -10.5200   21.0330 C   0  0  0  0  0  0  0  0  0  0  0  0
  -24.3210   -9.5520   21.9680 C   0  0  0  0  0  3  0  0  0  0  0  0
  -23.5960   -8.3530   22.1410 C   0  0  0  0  0  3  0  0  0  0  0  0
  -22.4280   -8.1150   21.3800 C   0  0  0  0  0  0  0  0  0  0  0  0
  -22.0170   -9.0720   20.4340 C   0  0  0  0  0  3  0  0  0  0  0  0
  -22.7430  -10.2620   20.2590 C   0  0  0  0  0  3  0  0  0  0  0  0
  -21.6720   -6.9700   21.4630 O   0  0  0  0  0  0  0  0  0  0  0  0
  -21.6050   -6.2360   22.6200 C   0  0  0  0  0  0  0  0  0  0  0  0
  -21.1460   -6.7930   23.8330 C   0  0  0  0  0  3  0  0  0  0  0  0
  -21.0300   -5.9850   24.9810 C   0  0  0  0  0  3  0  0  0  0  0  0
  -21.3610   -4.6170   24.9160 C   0  0  0  0  0  0  0  0  0  0  0  0
  -21.8120   -4.0590   23.7090 C   0  0  0  0  0  3  0  0  0  0  0  0
  -21.9320   -4.8660   22.5630 C   0  0  0  0  0  0  0  0  0  0  0  0
  -22.3460   -4.3170   21.3960 F   0  0  0  0  0  0  0  0  0  0  0  0
  -21.2410   -3.8390   26.0170 F   0  0  0  0  0  0  0  0  0  0  0  0
  -22.7660  -13.6110   21.1840 C   0  0  0  0  0  0  0  0  0  0  0  0
  -22.0410  -12.9060   22.0450 N   0  0  0  0  0  0  0  0  0  0  0  0
  -22.3270  -14.6450   20.6800 O   0  0  0  0  0  0  0  0  0  0  0  0
  -22.4080  -12.0700   22.4750 H   0  0  0  0  0  0  0  0  0  0  0  0
  -21.1030  -13.2020   22.2750 H   0  0  0  0  0  0  0  0  0  0  0  0
  -25.3880  -15.2800   20.3510 N   0  0  0  0  0  0  0  0  0  0  0  0
  -24.6240  -15.9350   20.4760 H   0  0  0  0  0  0  0  0  0  0  0  0
  -26.2140  -15.7090   19.9590 H   0  0  0  0  0  0  0  0  0  0  0  0
  -27.9360  -24.9210   20.8390 C   0  0  0  0  0  2  0  0  0  0  0  0
  -28.2670  -26.2930   20.2440 O   0  0  0  0  0  0  0  0  0  0  0  0
  -24.6090  -31.9240   23.2360 C   0  0  0  0  0  0  0  0  0  0  0  0
  -27.2160  -27.2630   20.2170 C   0  0  0  0  0  0  0  0  0  0  0  0
  -23.4170  -30.5180   21.6000 C   0  0  0  0  0  3  0  0  0  0  0  0
  -24.8740  -28.9560   20.1800 C   0  0  0  0  0  0  0  0  0  0  0  0
  -25.9650  -30.8150   21.4280 C   0  0  0  0  0  2  0  0  0  0  0  0
  -26.0500  -29.4240   20.7840 C   0  0  0  0  0  0  0  0  0  0  0  0
  -27.2260  -28.5930   20.7880 C   0  0  0  0  0  3  0  0  0  0  0  0
  -26.0190  -26.8880   19.5730 C   0  0  0  0  0  3  0  0  0  0  0  0
  -24.8690  -27.7000   19.5590 C   0  0  0  0  0  3  0  0  0  0  0  0
  -23.6390  -29.8380   20.2230 C   0  0  0  0  0  2  0  0  0  0  0  0
  -24.6840  -31.1060   22.1440 N   0  0  0  0  0  0  0  0  0  0  0  0
  -23.5220  -32.1990   23.7660 O   0  0  0  0  0  0  0  0  0  0  0  0
  -22.7490  -29.5050   22.5650 C   0  0  0  0  0  0  0  0  0  0  0  0
  -21.4210  -29.3270   22.4410 N   0  0  0  0  0  0  0  0  0  0  0  0
  -23.4270  -28.8830   23.3870 O   0  0  0  0  0  0  0  0  0  0  0  0
  -20.9320  -29.8820   21.7520 H   0  0  0  0  0  0  0  0  0  0  0  0
  -18.0450  -28.1190   22.9540 C   0  0  0  0  0  0  0  0  0  0  0  0
  -20.6040  -28.3870   23.2130 C   0  0  0  0  0  3  0  0  0  0  0  0
  -20.7070  -26.9550   22.6410 C   0  0  0  0  0  2  0  0  0  0  0  0
  -19.6020  -26.6280   21.6300 C   0  0  0  0  0  2  0  0  0  0  0  0
  -18.2220  -26.7700   22.2780 C   0  0  0  0  0  2  0  0  0  0  0  0
  -19.1630  -28.8860   23.3800 C   0  0  0  0  0  0  0  0  0  0  0  0
  -18.9410  -30.1470   23.9730 C   0  0  0  0  0  3  0  0  0  0  0  0
  -17.6340  -30.6430   24.1440 C   0  0  0  0  0  3  0  0  0  0  0  0
  -16.5310  -29.8740   23.7340 C   0  0  0  0  0  3  0  0  0  0  0  0
  -16.7380  -28.6130   23.1460 C   0  0  0  0  0  3  0  0  0  0  0  0
  -25.8840  -32.5700   23.8600 C   0  0  0  0  0  3  0  0  0  0  0  0
  -26.3880  -31.8180   25.1530 C   0  0  1  0  0  0  0  0  0  0  0  0
  -25.2860  -31.5920   26.2150 C   0  0  0  0  0  1  0  0  0  0  0  0
  -26.9770  -30.4370   24.7880 C   0  0  0  0  0  1  0  0  0  0  0  0
  -27.5340  -32.6210   25.8130 C   0  0  0  0  0  1  0  0  0  0  0  0
  -25.5680  -33.9720   24.1730 N   0  0  0  0  0  0  0  0  0  0  0  0
  -25.9060  -35.0190   23.4090 C   0  0  0  0  0  0  0  0  0  0  0  0
  -26.5820  -34.9060   22.3840 O   0  0  0  0  0  0  0  0  0  0  0  0
  -24.9720  -34.1330   24.9710 H   0  0  0  0  0  0  0  0  0  0  0  0
  -24.1850  -36.8140   23.0250 C   0  0  0  0  0  1  0  0  0  0  0  0
  -25.4160  -36.4130   23.8520 C   0  0  0  0  0  3  0  0  0  0  0  0
  -27.5440  -37.3000   24.6980 C   0  0  0  0  0  1  0  0  0  0  0  0
  -26.4520  -37.4640   23.7420 N   0  0  0  0  0  0  0  0  0  0  0  0
  -26.0460  -38.3850   23.8780 H   0  0  0  0  0  0  0  0  0  0  0  0
  2 50  1  0
  2  1  2  0
  3  2  1  0
  4 10  1  0
  4  5  2  0
  5  1  1  0
  5  8  1  0
  6  3  2  0
  6  4  1  0
  7  3  1  0
  9  6  1  0
 11 10  2  0
 11 20  1  0
 12 20  1  0
 13 18  1  0
 14 15  1  0
 14 13  1  0
 16 15  1  0
 16 25  1  0
 16 17  1  0
 18 12  1  0
 18 17  1  0
 19 12  2  0
 20 21  1  0
 22 23  2  0
 23 42  1  0
 24 23  1  0
 24 27  1  0
 25 22  1  0
 25 26  1  0
 26 24  2  0
 27 28  1  0
 28 29  2  0
 30 33  1  0
 30 29  1  0
 31 30  2  0
 32 31  1  0
 32 27  2  0
 33 34  1  0
 34 35  1  0
 35 36  2  0
 37 36  1  0
 37 41  1  0
 38 37  2  0
 39 34  2  0
 39 38  1  0
 40 39  1  0
 42 43  1  0
 43 46  1  0
 43 45  1  0
 44 42  2  0
 47 48  1  0
 47 22  1  0
 49 47  1  0
 51 50  1  0
 52 63  2  0
 53 51  1  0
 53 58  1  0
 54 62  1  0
 54 64  1  0
 55 61  1  0
 55 57  1  0
 56 62  1  0
 57 58  2  0
 57 56  1  0
 59 53  2  0
 60 59  1  0
 60 55  2  0
 61 54  1  0
 62 52  1  0
 64 66  2  0
 65 64  1  0
 67 65  1  0
 68 77  2  0
 68 73  1  0
 69 65  1  0
 69 73  1  0
 70 69  1  0
 71 72  1  0
 71 70  1  0
 72 68  1  0
 73 74  2  0
 74 75  1  0
 76 75  2  0
 77 76  1  0
 78 52  1  0
 78 83  1  0
 78 79  1  0
 79 82  1  1
 79 80  1  0
 81 79  1  0
 83 86  1  0
 84 88  1  0
 84 83  1  0
 85 84  2  0
 88 87  1  0
 90 88  1  0
 90 91  1  0
 90 89  1  0
M  ISO  4  12 100  20 100  50 101  51 101
M  END
>  <TORSDO>  (48) 
F 19

>  <SCORE>  (48) 
-14.310

>  <name>  (48) 
47

>  <ligand_id>  (48) 
47

>  <original_smiles>  (48) 
[H]c1c([H])c([H])c2c(c1[H])C([H])([H])C([H])([H])C([H])([H])C2([H])N([H])C(=O)C1([H])N(C(=O)C([H])(N([H])C(=O)C([H])(N([H])C([H])([H])[H])C([H])([H])[H])C(C([H])([H])[H])(C([H])([H])[H])C([H])([H])[H])C([H])([H])c2c([H])c(OC([H])([H])c3c([H])c(Cl)c(C([H])([H])C([H])([H])N([H])C(=O)N4C([H])([H])C([H])([H])C([H])([H])C([H])(n5nc(-c6c([H])c([H])c(Oc7c([H])c([H])c(F)c([H])c7F)c([H])c6[H])c(C(=O)N([H])[H])c5N([H])[H])C4([H])[H])c(Cl)c3C([H])([H])[H])c([H])c([H])c2C1([H])[H]

>  <smiles>  (48) 
[H]c1c([H])c([H])c2c(c1[H])C([H])([H])C([H])([H])C([H])([H])C2([H])N([H])C(=O)C1([H])N(C(=O)C([H])(N([H])C(=O)C([H])(N([H])C([H])([H])[H])C([H])([H])[H])C(C([H])([H])[H])(C([H])([H])[H])C([H])([H])[H])C([H])([H])c2c([H])c(OC([H])([H])c3c([H])c(Cl)c(C([H])([H])C([H])([H])N([H])C(=O)N4C([H])([H])C([H])([H])C([H])([H])C([H])(n5nc(-c6c([H])c([H])c(Oc7c([H])c([H])c(F)c([H])c7F)c([H])c6[H])c(C(=O)N([H])[H])c5N([H])[H])C4([H])[H])c(Cl)c3C([H])([H])[H])c([H])c([H])c2C1([H])[H]

$$$$
48:0:0
     RDKit          3D

 87 95  0  0  1  0  0  0  0  0999 V2000
  -28.8910  -19.5610   20.6900 C   0  0  0  0  0  3  0  0  0  0  0  0
  -29.5610  -18.4050   20.0710 C   0  0  0  0  0  0  0  0  0  0  0  0
  -30.1740  -19.2150   19.0330 C   0  0  0  0  0  0  0  0  0  0  0  0
  -31.0460  -18.7440   17.8940 C   0  0  0  0  0  1  0  0  0  0  0  0
  -29.9080  -20.5780   19.0820 N   0  0  0  0  0  0  0  0  0  0  0  0
  -29.0610  -20.9510   20.1100 N   0  0  0  0  0  0  0  0  0  0  0  0
  -30.3490  -15.4860   20.1720 C   0  0  0  0  0  0  0  0  0  0  0  0
  -30.4000  -13.0070   19.3520 C   0  0  0  0  0  2  0  0  0  0  0  0
  -29.4750  -12.7180   18.1400 C   0  0  0  0  0  2  0  0  0  0  0  0
  -28.0410  -12.4080   18.6010 C   0  0  0  0  0  2  0  0  0  0  0  0
  -27.5710  -13.3820   19.7110 C   0  0  0  0  0  3  0  0  0  0  0  0
  -28.6240  -13.5920   20.8210 C   0  0  0  0  0  2  0  0  0  0  0  0
  -29.8250  -14.1480   20.1650 N   0  0  0  0  0  0  0  0  0  0  0  0
  -31.5680  -15.4890   19.9390 O   0  0  0  0  0  0  0  0  0  0  0  0
  -29.5460  -16.7600   20.3040 N   0  0  0  0  0  0  0  0  0  0  0  0
  -28.6270  -16.4720   20.6050 H   0  0  0  0  0  0  0  0  0  0  0  0
  -25.2090  -13.9160   20.4990 C   0  0  0  0  0  0  0  0  0  0  0  0
  -24.1550  -13.1310   20.8760 C   0  0  0  0  0  0  0  0  0  0  0  0
  -24.6290  -11.7840   20.8370 C   0  0  0  0  0  0  0  0  0  0  0  0
  -26.2540  -13.0490   20.2380 N   0  0  0  0  0  0  0  0  0  0  0  0
  -25.9190  -11.7580   20.5130 N   0  0  0  0  0  0  0  0  0  0  0  0
  -23.9080  -10.5180   21.0290 C   0  0  0  0  0  0  0  0  0  0  0  0
  -24.3470   -9.5500   21.9590 C   0  0  0  0  0  3  0  0  0  0  0  0
  -23.6250   -8.3520   22.1390 C   0  0  0  0  0  3  0  0  0  0  0  0
  -22.4500   -8.1090   21.3880 C   0  0  0  0  0  0  0  0  0  0  0  0
  -22.0300   -9.0670   20.4490 C   0  0  0  0  0  3  0  0  0  0  0  0
  -22.7520  -10.2580   20.2670 C   0  0  0  0  0  3  0  0  0  0  0  0
  -21.6980   -6.9630   21.4770 O   0  0  0  0  0  0  0  0  0  0  0  0
  -21.6480   -6.2220   22.6320 C   0  0  0  0  0  0  0  0  0  0  0  0
  -21.2060   -6.7770   23.8520 C   0  0  0  0  0  3  0  0  0  0  0  0
  -21.1040   -5.9620   24.9990 C   0  0  0  0  0  3  0  0  0  0  0  0
  -21.4350   -4.5960   24.9240 C   0  0  0  0  0  0  0  0  0  0  0  0
  -21.8710   -4.0410   23.7090 C   0  0  0  0  0  3  0  0  0  0  0  0
  -21.9740   -4.8530   22.5630 C   0  0  0  0  0  0  0  0  0  0  0  0
  -22.3740   -4.3090   21.3890 F   0  0  0  0  0  0  0  0  0  0  0  0
  -21.3300   -3.8120   26.0240 F   0  0  0  0  0  0  0  0  0  0  0  0
  -22.7580  -13.6030   21.1490 C   0  0  0  0  0  0  0  0  0  0  0  0
  -22.0300  -12.9100   22.0180 N   0  0  0  0  0  0  0  0  0  0  0  0
  -22.3170  -14.6250   20.6240 O   0  0  0  0  0  0  0  0  0  0  0  0
  -22.3990  -12.0920   22.4780 H   0  0  0  0  0  0  0  0  0  0  0  0
  -21.0890  -13.2140   22.2320 H   0  0  0  0  0  0  0  0  0  0  0  0
  -25.3620  -15.2890   20.3200 N   0  0  0  0  0  0  0  0  0  0  0  0
  -24.5860  -15.9370   20.4230 H   0  0  0  0  0  0  0  0  0  0  0  0
  -26.1920  -15.7220   19.9350 H   0  0  0  0  0  0  0  0  0  0  0  0
  -28.8230  -22.5960   20.5860 C   0  0  0  0  0  3  0  0  0  0  0  0
  -28.0780  -24.1630   19.9480 C   0  0  0  0  0  3  0  0  0  0  0  0
  -28.1800  -25.8060   20.3340 O   0  0  0  0  0  0  0  0  0  0  0  0
  -24.6260  -31.8850   23.2420 C   0  0  0  0  0  0  0  0  0  0  0  0
  -27.1810  -26.9360   20.2430 C   0  0  0  0  0  0  0  0  0  0  0  0
  -23.4370  -30.4840   21.6060 C   0  0  0  0  0  3  0  0  0  0  0  0
  -24.8880  -28.8620   20.1900 C   0  0  0  0  0  0  0  0  0  0  0  0
  -26.0090  -30.6690   21.4770 C   0  0  0  0  0  2  0  0  0  0  0  0
  -26.0770  -29.2540   20.8160 C   0  0  0  0  0  0  0  0  0  0  0  0
  -27.2110  -28.3130   20.8200 C   0  0  0  0  0  3  0  0  0  0  0  0
  -25.9610  -26.7150   19.5620 C   0  0  0  0  0  3  0  0  0  0  0  0
  -24.8590  -27.6150   19.5420 C   0  0  0  0  0  3  0  0  0  0  0  0
  -23.6710  -29.7930   20.2330 C   0  0  0  0  0  2  0  0  0  0  0  0
  -24.7130  -31.0430   22.1610 N   0  0  0  0  0  0  0  0  0  0  0  0
  -23.5350  -32.1830   23.7530 O   0  0  0  0  0  0  0  0  0  0  0  0
  -22.7330  -29.4970   22.5730 C   0  0  0  0  0  0  0  0  0  0  0  0
  -21.4010  -29.3400   22.4440 N   0  0  0  0  0  0  0  0  0  0  0  0
  -23.3910  -28.8720   23.4070 O   0  0  0  0  0  0  0  0  0  0  0  0
  -20.9260  -29.8920   21.7450 H   0  0  0  0  0  0  0  0  0  0  0  0
  -18.0070  -28.1540   22.9500 C   0  0  0  0  0  0  0  0  0  0  0  0
  -20.5690  -28.4090   23.2170 C   0  0  0  0  0  3  0  0  0  0  0  0
  -20.6640  -26.9740   22.6490 C   0  0  0  0  0  2  0  0  0  0  0  0
  -19.5640  -26.6540   21.6310 C   0  0  0  0  0  2  0  0  0  0  0  0
  -18.1810  -26.8060   22.2710 C   0  0  0  0  0  2  0  0  0  0  0  0
  -19.1290  -28.9140   23.3790 C   0  0  0  0  0  0  0  0  0  0  0  0
  -18.9110  -30.1740   23.9780 C   0  0  0  0  0  3  0  0  0  0  0  0
  -17.6090  -30.6760   24.1470 C   0  0  0  0  0  3  0  0  0  0  0  0
  -16.5010  -29.9140   23.7360 C   0  0  0  0  0  3  0  0  0  0  0  0
  -16.7020  -28.6530   23.1450 C   0  0  0  0  0  3  0  0  0  0  0  0
  -25.8940  -32.5310   23.8790 C   0  0  0  0  0  3  0  0  0  0  0  0
  -25.5770  -33.9360   24.1950 N   0  0  0  0  0  0  0  0  0  0  0  0
  -25.9120  -34.9890   23.4400 C   0  0  0  0  0  0  0  0  0  0  0  0
  -26.5810  -34.8810   22.4090 O   0  0  0  0  0  0  0  0  0  0  0  0
  -24.9810  -34.0920   24.9940 H   0  0  0  0  0  0  0  0  0  0  0  0
  -24.1870  -36.7910   23.0930 C   0  0  0  0  0  1  0  0  0  0  0  0
  -25.4340  -36.3830   23.8960 C   0  0  0  0  0  3  0  0  0  0  0  0
  -27.5740  -37.2730   24.7100 C   0  0  0  0  0  1  0  0  0  0  0  0
  -26.4690  -37.4340   23.7700 N   0  0  0  0  0  0  0  0  0  0  0  0
  -26.0660  -38.3570   23.9070 H   0  0  0  0  0  0  0  0  0  0  0  0
  -26.3800  -31.7800   25.1820 C   0  0  1  0  0  0  0  0  0  0  0  0
  -25.2650  -31.5740   26.2350 C   0  0  0  0  0  1  0  0  0  0  0  0
  -26.9590  -30.3890   24.8410 C   0  0  0  0  0  1  0  0  0  0  0  0
  -27.5260  -32.5790   25.8470 C   0  0  0  0  0  1  0  0  0  0  0  0
  2 15  1  0
  2  1  2  0
  3  5  2  0
  3  2  1  0
  4  3  1  0
  5  6  1  0
  6 45  1  0
  6  1  1  0
  7 15  1  0
  8 13  1  0
  9 10  1  0
  9  8  1  0
 11 10  1  0
 11 20  1  0
 11 12  1  0
 13  7  1  0
 13 12  1  0
 14  7  2  0
 15 16  1  0
 17 18  2  0
 18 37  1  0
 19 18  1  0
 19 22  1  0
 20 17  1  0
 20 21  1  0
 21 19  2  0
 22 23  1  0
 23 24  2  0
 25 28  1  0
 25 24  1  0
 26 25  2  0
 27 26  1  0
 27 22  2  0
 28 29  1  0
 29 30  1  0
 30 31  2  0
 32 31  1  0
 32 36  1  0
 33 32  2  0
 34 29  2  0
 34 33  1  0
 35 34  1  0
 37 38  1  0
 38 41  1  0
 38 40  1  0
 39 37  2  0
 42 43  1  0
 42 17  1  0
 44 42  1  0
 46 47  1  0
 46 45  2  0
 48 59  2  0
 49 47  1  0
 49 54  1  0
 50 58  1  0
 50 60  1  0
 51 57  1  0
 51 53  1  0
 52 58  1  0
 53 54  2  0
 53 52  1  0
 55 49  2  0
 56 55  1  0
 56 51  2  0
 57 50  1  0
 58 48  1  0
 60 62  2  0
 61 60  1  0
 63 61  1  0
 64 73  2  0
 64 69  1  0
 65 61  1  0
 65 69  1  0
 66 65  1  0
 67 68  1  0
 67 66  1  0
 68 64  1  0
 69 70  2  0
 70 71  1  0
 72 71  2  0
 73 72  1  0
 74 48  1  0
 74 75  1  0
 74 84  1  0
 75 78  1  0
 76 80  1  0
 76 75  1  0
 77 76  2  0
 80 79  1  0
 82 80  1  0
 82 83  1  0
 82 81  1  0
 84 87  1  1
 84 85  1  0
 86 84  1  0
M  ISO  4   7 100  15 100  46 101  47 101
M  END
>  <TORSDO>  (49) 
F 18

>  <SCORE>  (49) 
-16.020

>  <name>  (49) 
48

>  <ligand_id>  (49) 
48

>  <original_smiles>  (49) 
[H]c1c([H])c([H])c2c(c1[H])C([H])([H])C([H])([H])C([H])([H])C2([H])N([H])C(=O)C1([H])N(C(=O)C([H])(N([H])C(=O)C([H])(N([H])C([H])([H])[H])C([H])([H])[H])C(C([H])([H])[H])(C([H])([H])[H])C([H])([H])[H])C([H])([H])c2c([H])c(OC([H])([H])C([H])([H])n3nc(C([H])([H])[H])c(N([H])C(=O)N4C([H])([H])C([H])([H])C([H])([H])C([H])(n5nc(-c6c([H])c([H])c(Oc7c([H])c([H])c(F)c([H])c7F)c([H])c6[H])c(C(=O)N([H])[H])c5N([H])[H])C4([H])[H])c3[H])c([H])c([H])c2C1([H])[H]

>  <smiles>  (49) 
[H]c1c([H])c([H])c2c(c1[H])C([H])([H])C([H])([H])C([H])([H])C2([H])N([H])C(=O)C1([H])N(C(=O)C([H])(N([H])C(=O)C([H])(N([H])C([H])([H])[H])C([H])([H])[H])C(C([H])([H])[H])(C([H])([H])[H])C([H])([H])[H])C([H])([H])c2c([H])c(OC([H])([H])C([H])([H])n3nc(C([H])([H])[H])c(N([H])C(=O)N4C([H])([H])C([H])([H])C([H])([H])C([H])(n5nc(-c6c([H])c([H])c(Oc7c([H])c([H])c(F)c([H])c7F)c([H])c6[H])c(C(=O)N([H])[H])c5N([H])[H])C4([H])[H])c3[H])c([H])c([H])c2C1([H])[H]

$$$$
49:0:0
     RDKit          3D

 89 97  0  0  1  0  0  0  0  0999 V2000
  -29.1600  -19.6020   19.5840 C   0  0  0  0  0  3  0  0  0  0  0  0
  -29.7910  -18.3350   20.2030 C   0  0  0  0  0  0  0  0  0  0  0  0
  -29.3580  -20.9250   20.2180 C   0  0  0  0  0  0  0  0  0  0  0  0
  -30.3270  -19.0030   21.2800 C   0  0  0  0  0  0  0  0  0  0  0  0
  -30.5710  -21.2700   22.4030 C   0  0  0  0  0  1  0  0  0  0  0  0
  -30.0860  -20.4220   21.3290 N   0  0  0  0  0  0  0  0  0  0  0  0
  -31.1970  -18.2280   22.5500 Cl  0  0  0  0  0  0  0  0  0  0  0  0
  -30.5180  -15.4320   20.0310 C   0  0  0  0  0  0  0  0  0  0  0  0
  -30.4820  -12.9640   19.1550 C   0  0  0  0  0  2  0  0  0  0  0  0
  -29.5280  -12.7180   17.9590 C   0  0  0  0  0  2  0  0  0  0  0  0
  -28.0900  -12.4560   18.4410 C   0  0  0  0  0  2  0  0  0  0  0  0
  -27.6730  -13.4390   19.5630 C   0  0  0  0  0  3  0  0  0  0  0  0
  -28.7500  -13.6020   20.6530 C   0  0  0  0  0  2  0  0  0  0  0  0
  -29.9500  -14.1190   19.9720 N   0  0  0  0  0  0  0  0  0  0  0  0
  -31.7460  -15.4090   19.8470 O   0  0  0  0  0  0  0  0  0  0  0  0
  -29.7220  -16.7050   19.9890 N   0  0  0  0  0  0  0  0  0  0  0  0
  -28.7620  -16.4320   19.8530 H   0  0  0  0  0  0  0  0  0  0  0  0
  -25.3430  -14.0420   20.3930 C   0  0  0  0  0  0  0  0  0  0  0  0
  -24.2740  -13.2880   20.7840 C   0  0  0  0  0  0  0  0  0  0  0  0
  -24.7090  -11.9270   20.7310 C   0  0  0  0  0  0  0  0  0  0  0  0
  -26.3560  -13.1450   20.1120 N   0  0  0  0  0  0  0  0  0  0  0  0
  -25.9900  -11.8650   20.3840 N   0  0  0  0  0  0  0  0  0  0  0  0
  -23.9590  -10.6800   20.9320 C   0  0  0  0  0  0  0  0  0  0  0  0
  -24.3770   -9.7080   21.8660 C   0  0  0  0  0  3  0  0  0  0  0  0
  -23.6250   -8.5270   22.0550 C   0  0  0  0  0  3  0  0  0  0  0  0
  -22.4410   -8.3130   21.3100 C   0  0  0  0  0  0  0  0  0  0  0  0
  -22.0410   -9.2740   20.3650 C   0  0  0  0  0  3  0  0  0  0  0  0
  -22.7930  -10.4460   20.1750 C   0  0  0  0  0  3  0  0  0  0  0  0
  -21.6610   -7.1860   21.4090 O   0  0  0  0  0  0  0  0  0  0  0  0
  -21.5840   -6.4650   22.5730 C   0  0  0  0  0  0  0  0  0  0  0  0
  -21.1330   -7.0440   23.7800 C   0  0  0  0  0  3  0  0  0  0  0  0
  -21.0020   -6.2480   24.9360 C   0  0  0  0  0  3  0  0  0  0  0  0
  -21.3110   -4.8760   24.8870 C   0  0  0  0  0  0  0  0  0  0  0  0
  -21.7550   -4.2970   23.6850 C   0  0  0  0  0  3  0  0  0  0  0  0
  -21.8870   -5.0890   22.5320 C   0  0  0  0  0  0  0  0  0  0  0  0
  -22.2950   -4.5210   21.3700 F   0  0  0  0  0  0  0  0  0  0  0  0
  -21.1790   -4.1100   25.9950 F   0  0  0  0  0  0  0  0  0  0  0  0
  -22.8960  -13.7950   21.0910 C   0  0  0  0  0  0  0  0  0  0  0  0
  -22.1770  -13.1190   21.9780 N   0  0  0  0  0  0  0  0  0  0  0  0
  -22.4700  -14.8290   20.5770 O   0  0  0  0  0  0  0  0  0  0  0  0
  -22.5360  -12.2820   22.4140 H   0  0  0  0  0  0  0  0  0  0  0  0
  -21.2540  -13.4430   22.2270 H   0  0  0  0  0  0  0  0  0  0  0  0
  -25.5300  -15.4110   20.2240 N   0  0  0  0  0  0  0  0  0  0  0  0
  -24.7770  -16.0760   20.3660 H   0  0  0  0  0  0  0  0  0  0  0  0
  -26.3720  -15.8400   19.8700 H   0  0  0  0  0  0  0  0  0  0  0  0
  -29.3150  -22.8100   18.3500 C   0  0  0  0  0  1  0  0  0  0  0  0
  -29.2110  -22.6830   19.8760 C   0  0  0  0  0  3  0  0  0  0  0  0
  -28.2160  -24.1490   20.3810 C   0  0  0  0  0  2  0  0  0  0  0  0
  -28.3560  -25.8260   20.2410 O   0  0  0  0  0  0  0  0  0  0  0  0
  -24.5330  -31.7550   23.1550 C   0  0  0  0  0  0  0  0  0  0  0  0
  -27.3060  -26.9100   20.2040 C   0  0  0  0  0  0  0  0  0  0  0  0
  -23.4280  -30.3350   21.4760 C   0  0  0  0  0  3  0  0  0  0  0  0
  -24.9610  -28.7610   20.0980 C   0  0  0  0  0  0  0  0  0  0  0  0
  -25.9960  -30.6020   21.4100 C   0  0  0  0  0  2  0  0  0  0  0  0
  -26.1230  -29.1890   20.7490 C   0  0  0  0  0  0  0  0  0  0  0  0
  -27.2920  -28.2900   20.7650 C   0  0  0  0  0  3  0  0  0  0  0  0
  -26.1030  -26.6450   19.5080 C   0  0  0  0  0  3  0  0  0  0  0  0
  -24.9790  -27.5130   19.4530 C   0  0  0  0  0  3  0  0  0  0  0  0
  -23.7210  -29.6560   20.1080 C   0  0  0  0  0  2  0  0  0  0  0  0
  -24.6720  -30.9270   22.0660 N   0  0  0  0  0  0  0  0  0  0  0  0
  -23.4220  -32.0130   23.6460 O   0  0  0  0  0  0  0  0  0  0  0  0
  -22.7290  -29.3200   22.4210 C   0  0  0  0  0  0  0  0  0  0  0  0
  -21.4040  -29.1340   22.2700 N   0  0  0  0  0  0  0  0  0  0  0  0
  -23.3870  -28.7000   23.2600 O   0  0  0  0  0  0  0  0  0  0  0  0
  -20.9240  -29.6900   21.5750 H   0  0  0  0  0  0  0  0  0  0  0  0
  -18.0340  -27.8510   22.7090 C   0  0  0  0  0  0  0  0  0  0  0  0
  -20.5830  -28.1720   23.0170 C   0  0  0  0  0  3  0  0  0  0  0  0
  -20.7230  -26.7460   22.4340 C   0  0  0  0  0  2  0  0  0  0  0  0
  -19.6470  -26.4090   21.3970 C   0  0  0  0  0  2  0  0  0  0  0  0
  -18.2520  -26.5140   22.0190 C   0  0  0  0  0  2  0  0  0  0  0  0
  -19.1280  -28.6350   23.1640 C   0  0  0  0  0  0  0  0  0  0  0  0
  -18.8670  -29.8820   23.7750 C   0  0  0  0  0  3  0  0  0  0  0  0
  -17.5460  -30.3460   23.9280 C   0  0  0  0  0  3  0  0  0  0  0  0
  -16.4670  -29.5590   23.4860 C   0  0  0  0  0  3  0  0  0  0  0  0
  -16.7140  -28.3130   22.8840 C   0  0  0  0  0  3  0  0  0  0  0  0
  -25.7660  -32.4320   23.8280 C   0  0  0  0  0  3  0  0  0  0  0  0
  -25.4030  -33.8260   24.1410 N   0  0  0  0  0  0  0  0  0  0  0  0
  -25.7290  -34.8930   23.4000 C   0  0  0  0  0  0  0  0  0  0  0  0
  -26.4280  -34.8090   22.3870 O   0  0  0  0  0  0  0  0  0  0  0  0
  -24.7810  -33.9620   24.9240 H   0  0  0  0  0  0  0  0  0  0  0  0
  -23.9680  -36.6560   23.0170 C   0  0  0  0  0  1  0  0  0  0  0  0
  -25.2000  -36.2710   23.8510 C   0  0  0  0  0  3  0  0  0  0  0  0
  -27.2890  -37.2160   24.7350 C   0  0  0  0  0  1  0  0  0  0  0  0
  -26.2080  -37.3490   23.7640 N   0  0  0  0  0  0  0  0  0  0  0  0
  -25.7730  -38.2580   23.8960 H   0  0  0  0  0  0  0  0  0  0  0  0
  -26.2420  -31.6920   25.1400 C   0  0  1  0  0  0  0  0  0  0  0  0
  -25.1120  -31.4470   26.1670 C   0  0  0  0  0  1  0  0  0  0  0  0
  -26.8700  -30.3200   24.8060 C   0  0  0  0  0  1  0  0  0  0  0  0
  -27.3430  -32.5250   25.8390 C   0  0  0  0  0  1  0  0  0  0  0  0
  1  2  1  0
  1  3  2  0
  2  4  2  0
  3  6  1  0
  4  6  1  0
  4  7  1  0
  6  5  1  0
  9 14  1  0
 10 11  1  0
 10  9  1  0
 12 11  1  0
 12 21  1  0
 12 13  1  0
 14  8  1  0
 14 13  1  0
 15  8  2  0
 16  8  1  0
 16  2  1  0
 17 16  1  0
 18 19  2  0
 19 38  1  0
 20 19  1  0
 20 23  1  0
 21 22  1  0
 21 18  1  0
 22 20  2  0
 23 24  1  0
 24 25  2  0
 26 29  1  0
 26 25  1  0
 27 26  2  0
 28 27  1  0
 28 23  2  0
 29 30  1  0
 30 31  1  0
 31 32  2  0
 33 32  1  0
 33 37  1  0
 34 33  2  0
 35 30  2  0
 35 34  1  0
 36 35  1  0
 38 39  1  0
 39 42  1  0
 39 41  1  0
 40 38  2  0
 43 44  1  0
 43 18  1  0
 45 43  1  0
 47 46  1  0
 47  3  1  0
 47 48  1  0
 49 48  1  0
 50 61  2  0
 51 49  1  0
 51 56  1  0
 52 60  1  0
 52 62  1  0
 53 59  1  0
 53 55  1  0
 54 60  1  0
 55 56  2  0
 55 54  1  0
 57 51  2  0
 58 57  1  0
 58 53  2  0
 59 52  1  0
 60 50  1  0
 62 64  2  0
 63 62  1  0
 65 63  1  0
 66 75  2  0
 66 71  1  0
 67 63  1  0
 67 71  1  0
 68 67  1  0
 69 70  1  0
 69 68  1  0
 70 66  1  0
 71 72  2  0
 72 73  1  0
 74 73  2  0
 75 74  1  0
 76 50  1  0
 76 77  1  0
 76 86  1  0
 77 80  1  0
 78 82  1  0
 78 77  1  0
 79 78  2  0
 82 81  1  0
 84 82  1  0
 84 85  1  0
 84 83  1  0
 86 89  1  1
 86 87  1  0
 88 86  1  0
M  ISO  4   8 100  16 100  48 101  49 101
M  END
>  <TORSDO>  (50) 
F 18

>  <SCORE>  (50) 
-15.988

>  <name>  (50) 
49

>  <ligand_id>  (50) 
49

>  <original_smiles>  (50) 
[H]c1c([H])c([H])c2c(c1[H])C([H])([H])C([H])([H])C([H])([H])C2([H])N([H])C(=O)C1([H])N(C(=O)C([H])(N([H])C(=O)C([H])(N([H])C([H])([H])[H])C([H])([H])[H])C(C([H])([H])[H])(C([H])([H])[H])C([H])([H])[H])C([H])([H])c2c([H])c(OC([H])([H])C([H])(c3c([H])c(N([H])C(=O)N4C([H])([H])C([H])([H])C([H])([H])C([H])(n5nc(-c6c([H])c([H])c(Oc7c([H])c([H])c(F)c([H])c7F)c([H])c6[H])c(C(=O)N([H])[H])c5N([H])[H])C4([H])[H])c(Cl)n3C([H])([H])[H])C([H])([H])[H])c([H])c([H])c2C1([H])[H]

>  <smiles>  (50) 
[H]c1c([H])c([H])c2c(c1[H])C([H])([H])C([H])([H])C([H])([H])C2([H])N([H])C(=O)C1([H])N(C(=O)C([H])(N([H])C(=O)C([H])(N([H])C([H])([H])[H])C([H])([H])[H])C(C([H])([H])[H])(C([H])([H])[H])C([H])([H])[H])C([H])([H])c2c([H])c(OC([H])([H])C([H])(c3c([H])c(N([H])C(=O)N4C([H])([H])C([H])([H])C([H])([H])C([H])(n5nc(-c6c([H])c([H])c(Oc7c([H])c([H])c(F)c([H])c7F)c([H])c6[H])c(C(=O)N([H])[H])c5N([H])[H])C4([H])[H])c(Cl)n3C([H])([H])[H])C([H])([H])[H])c([H])c([H])c2C1([H])[H]

$$$$
50:0:0
     RDKit          3D

 89 97  0  0  1  0  0  0  0  0999 V2000
  -29.3620  -22.7210   21.6820 C   0  0  0  0  0  3  0  0  0  0  0  0
  -28.8520  -21.2830   19.8200 C   0  0  0  0  0  3  0  0  0  0  0  0
  -28.7180  -22.7080   20.4310 C   0  0  0  0  0  0  0  0  0  0  0  0
  -29.9970  -21.5830   22.2610 C   0  0  0  0  0  0  0  0  0  0  0  0
  -29.5270  -19.9890   20.3750 C   0  0  0  0  0  0  0  0  0  0  0  0
  -30.0540  -20.2800   21.6620 C   0  0  0  0  0  0  0  0  0  0  0  0
  -30.6760  -21.7930   23.6050 C   0  0  0  0  0  1  0  0  0  0  0  0
  -30.8410  -19.0050   22.5300 Cl  0  0  0  0  0  0  0  0  0  0  0  0
  -29.9060  -18.3990   19.6770 C   0  0  0  0  0  2  0  0  0  0  0  0
  -30.6130  -15.4880   19.9040 C   0  0  0  0  0  0  0  0  0  0  0  0
  -30.5920  -13.0330   19.0220 C   0  0  0  0  0  2  0  0  0  0  0  0
  -29.6120  -12.8100   17.8390 C   0  0  0  0  0  2  0  0  0  0  0  0
  -28.1910  -12.5170   18.3520 C   0  0  0  0  0  2  0  0  0  0  0  0
  -27.7890  -13.4590   19.5120 C   0  0  0  0  0  3  0  0  0  0  0  0
  -28.8940  -13.6130   20.5820 C   0  0  0  0  0  2  0  0  0  0  0  0
  -30.0780  -14.1600   19.8960 N   0  0  0  0  0  0  0  0  0  0  0  0
  -31.8010  -15.5050   19.5420 O   0  0  0  0  0  0  0  0  0  0  0  0
  -29.8470  -16.7590   20.1150 N   0  0  0  0  0  0  0  0  0  0  0  0
  -28.9360  -16.5330   20.4850 H   0  0  0  0  0  0  0  0  0  0  0  0
  -25.4710  -13.9830   20.4340 C   0  0  0  0  0  0  0  0  0  0  0  0
  -24.4350  -13.1890   20.8380 C   0  0  0  0  0  0  0  0  0  0  0  0
  -24.8990  -11.8420   20.7270 C   0  0  0  0  0  0  0  0  0  0  0  0
  -26.4960  -13.1200   20.0910 N   0  0  0  0  0  0  0  0  0  0  0  0
  -26.1680  -11.8240   20.3340 N   0  0  0  0  0  0  0  0  0  0  0  0
  -24.1840  -10.5730   20.9160 C   0  0  0  0  0  0  0  0  0  0  0  0
  -24.5980   -9.6220   21.8750 C   0  0  0  0  0  3  0  0  0  0  0  0
  -23.8780   -8.4220   22.0500 C   0  0  0  0  0  3  0  0  0  0  0  0
  -22.7290   -8.1600   21.2670 C   0  0  0  0  0  0  0  0  0  0  0  0
  -22.3330   -9.0980   20.2980 C   0  0  0  0  0  3  0  0  0  0  0  0
  -23.0550  -10.2890   20.1210 C   0  0  0  0  0  3  0  0  0  0  0  0
  -21.9860   -7.0070   21.3490 O   0  0  0  0  0  0  0  0  0  0  0  0
  -21.8150   -6.3430   22.5380 C   0  0  0  0  0  0  0  0  0  0  0  0
  -21.1990   -6.9570   23.6500 C   0  0  0  0  0  3  0  0  0  0  0  0
  -20.9780   -6.2160   24.8290 C   0  0  0  0  0  3  0  0  0  0  0  0
  -21.3680   -4.8650   24.8940 C   0  0  0  0  0  0  0  0  0  0  0  0
  -21.9770   -4.2520   23.7860 C   0  0  0  0  0  3  0  0  0  0  0  0
  -22.1980   -4.9890   22.6090 C   0  0  0  0  0  0  0  0  0  0  0  0
  -22.7670   -4.3880   21.5360 F   0  0  0  0  0  0  0  0  0  0  0  0
  -21.1490   -4.1520   26.0240 F   0  0  0  0  0  0  0  0  0  0  0  0
  -23.0540  -13.6550   21.2040 C   0  0  0  0  0  0  0  0  0  0  0  0
  -22.3800  -12.9390   22.0970 N   0  0  0  0  0  0  0  0  0  0  0  0
  -22.5850  -14.6890   20.7330 O   0  0  0  0  0  0  0  0  0  0  0  0
  -22.7700  -12.1020   22.5030 H   0  0  0  0  0  0  0  0  0  0  0  0
  -21.4590  -13.2390   22.3820 H   0  0  0  0  0  0  0  0  0  0  0  0
  -25.6220  -15.3600   20.2970 N   0  0  0  0  0  0  0  0  0  0  0  0
  -24.8690  -16.0060   20.5090 H   0  0  0  0  0  0  0  0  0  0  0  0
  -26.4210  -15.8120   19.8710 H   0  0  0  0  0  0  0  0  0  0  0  0
  -27.8510  -24.1870   19.9910 C   0  0  0  0  0  2  0  0  0  0  0  0
  -28.0740  -25.8150   20.2920 O   0  0  0  0  0  0  0  0  0  0  0  0
  -24.6310  -31.9470   23.1310 C   0  0  0  0  0  0  0  0  0  0  0  0
  -27.0910  -26.9480   20.1820 C   0  0  0  0  0  0  0  0  0  0  0  0
  -23.3980  -30.5080   21.5640 C   0  0  0  0  0  3  0  0  0  0  0  0
  -24.8050  -28.8630   20.1430 C   0  0  0  0  0  0  0  0  0  0  0  0
  -25.9610  -30.7010   21.3530 C   0  0  0  0  0  2  0  0  0  0  0  0
  -26.0090  -29.2710   20.7300 C   0  0  0  0  0  0  0  0  0  0  0  0
  -27.1420  -28.3320   20.7290 C   0  0  0  0  0  3  0  0  0  0  0  0
  -25.8600  -26.7090   19.5330 C   0  0  0  0  0  3  0  0  0  0  0  0
  -24.7580  -27.6040   19.5220 C   0  0  0  0  0  3  0  0  0  0  0  0
  -23.5910  -29.7900   20.1990 C   0  0  0  0  0  2  0  0  0  0  0  0
  -24.6860  -31.0830   22.0670 N   0  0  0  0  0  0  0  0  0  0  0  0
  -23.5530  -32.2530   23.6710 O   0  0  0  0  0  0  0  0  0  0  0  0
  -22.7230  -29.5420   22.5740 C   0  0  0  0  0  0  0  0  0  0  0  0
  -21.4040  -29.3120   22.4350 N   0  0  0  0  0  0  0  0  0  0  0  0
  -23.3970  -28.9990   23.4530 O   0  0  0  0  0  0  0  0  0  0  0  0
  -20.9130  -29.8030   21.7010 H   0  0  0  0  0  0  0  0  0  0  0  0
  -18.0940  -27.8910   22.8730 C   0  0  0  0  0  0  0  0  0  0  0  0
  -20.6070  -28.3860   23.2450 C   0  0  0  0  0  3  0  0  0  0  0  0
  -20.8490  -26.9200   22.8130 C   0  0  0  0  0  2  0  0  0  0  0  0
  -19.8370  -26.4210   21.7770 C   0  0  0  0  0  2  0  0  0  0  0  0
  -18.4130  -26.5060   22.3320 C   0  0  0  0  0  2  0  0  0  0  0  0
  -19.1230  -28.7780   23.2860 C   0  0  0  0  0  0  0  0  0  0  0  0
  -18.7690  -30.0610   23.7560 C   0  0  0  0  0  3  0  0  0  0  0  0
  -17.4210  -30.4620   23.8140 C   0  0  0  0  0  3  0  0  0  0  0  0
  -16.4070  -29.5750   23.4140 C   0  0  0  0  0  3  0  0  0  0  0  0
  -16.7440  -28.2910   22.9490 C   0  0  0  0  0  3  0  0  0  0  0  0
  -25.9160  -32.6070   23.7170 C   0  0  0  0  0  3  0  0  0  0  0  0
  -25.5850  -33.9950   24.0860 N   0  0  0  0  0  0  0  0  0  0  0  0
  -25.8780  -35.0770   23.3520 C   0  0  0  0  0  0  0  0  0  0  0  0
  -26.5140  -35.0140   22.2990 O   0  0  0  0  0  0  0  0  0  0  0  0
  -25.0100  -34.1150   24.9070 H   0  0  0  0  0  0  0  0  0  0  0  0
  -24.1260  -36.8720   23.1040 C   0  0  0  0  0  1  0  0  0  0  0  0
  -25.3920  -36.4500   23.8680 C   0  0  0  0  0  3  0  0  0  0  0  0
  -27.5330  -37.3430   24.6760 C   0  0  0  0  0  1  0  0  0  0  0  0
  -26.4120  -37.5160   23.7570 N   0  0  0  0  0  0  0  0  0  0  0  0
  -25.9990  -38.4290   23.9270 H   0  0  0  0  0  0  0  0  0  0  0  0
  -26.4920  -31.8360   24.9680 C   0  0  1  0  0  0  0  0  0  0  0  0
  -25.4350  -31.5400   26.0610 C   0  0  0  0  0  1  0  0  0  0  0  0
  -27.1180  -30.4870   24.5480 C   0  0  0  0  0  1  0  0  0  0  0  0
  -27.6300  -32.6620   25.6130 C   0  0  0  0  0  1  0  0  0  0  0  0
  1  4  1  0
  2  5  2  0
  2  3  1  0
  3  1  2  0
  4  7  1  0
  5  6  1  0
  6  4  2  0
  6  8  1  0
  9 18  1  0
  9  5  1  0
 10 18  1  0
 11 16  1  0
 12 13  1  0
 12 11  1  0
 14 13  1  0
 14 23  1  0
 14 15  1  0
 16 10  1  0
 16 15  1  0
 17 10  2  0
 18 19  1  0
 20 21  2  0
 21 40  1  0
 22 21  1  0
 22 25  1  0
 23 24  1  0
 23 20  1  0
 24 22  2  0
 25 26  1  0
 26 27  2  0
 28 31  1  0
 28 27  1  0
 29 28  2  0
 30 29  1  0
 30 25  2  0
 31 32  1  0
 32 37  2  0
 32 33  1  0
 33 34  2  0
 34 35  1  0
 35 39  1  0
 36 35  2  0
 37 36  1  0
 38 37  1  0
 40 41  1  0
 41 44  1  0
 41 43  1  0
 42 40  2  0
 45 20  1  0
 45 46  1  0
 47 45  1  0
 48 49  1  0
 48  3  1  0
 50 61  2  0
 51 49  1  0
 51 56  1  0
 52 60  1  0
 52 62  1  0
 53 59  1  0
 53 55  1  0
 54 60  1  0
 55 54  1  0
 56 55  2  0
 57 51  2  0
 58 57  1  0
 58 53  2  0
 59 52  1  0
 60 50  1  0
 62 64  2  0
 63 62  1  0
 65 63  1  0
 66 75  2  0
 66 71  1  0
 67 63  1  0
 67 71  1  0
 68 67  1  0
 69 70  1  0
 69 68  1  0
 70 66  1  0
 71 72  2  0
 72 73  1  0
 74 73  2  0
 75 74  1  0
 76 50  1  0
 76 77  1  0
 76 86  1  0
 77 80  1  0
 78 82  1  0
 78 77  1  0
 79 78  2  0
 82 81  1  0
 84 82  1  0
 84 85  1  0
 84 83  1  0
 86 89  1  1
 86 87  1  0
 88 86  1  0
M  ISO  4  10 100  18 100  48 101  49 101
M  END
>  <TORSDO>  (51) 
F 18

>  <SCORE>  (51) 
-16.431

>  <name>  (51) 
50

>  <ligand_id>  (51) 
50

>  <original_smiles>  (51) 
[H]c1c([H])c([H])c2c(c1[H])C([H])([H])C([H])([H])C([H])([H])C2([H])N([H])C(=O)C1([H])N(C(=O)C([H])(N([H])C(=O)C([H])(N([H])C([H])([H])[H])C([H])([H])[H])C(C([H])([H])[H])(C([H])([H])[H])C([H])([H])[H])C([H])([H])c2c([H])c(OC([H])([H])c3c([H])c(C([H])([H])[H])c(Cl)c(C([H])([H])N([H])C(=O)N4C([H])([H])C([H])([H])C([H])([H])C([H])(n5nc(-c6c([H])c([H])c(Oc7c([H])c([H])c(F)c([H])c7F)c([H])c6[H])c(C(=O)N([H])[H])c5N([H])[H])C4([H])[H])c3[H])c([H])c([H])c2C1([H])[H]

>  <smiles>  (51) 
[H]c1c([H])c([H])c2c(c1[H])C([H])([H])C([H])([H])C([H])([H])C2([H])N([H])C(=O)C1([H])N(C(=O)C([H])(N([H])C(=O)C([H])(N([H])C([H])([H])[H])C([H])([H])[H])C(C([H])([H])[H])(C([H])([H])[H])C([H])([H])[H])C([H])([H])c2c([H])c(OC([H])([H])c3c([H])c(C([H])([H])[H])c(Cl)c(C([H])([H])N([H])C(=O)N4C([H])([H])C([H])([H])C([H])([H])C([H])(n5nc(-c6c([H])c([H])c(Oc7c([H])c([H])c(F)c([H])c7F)c([H])c6[H])c(C(=O)N([H])[H])c5N([H])[H])C4([H])[H])c3[H])c([H])c([H])c2C1([H])[H]

$$$$
51:0:0
     RDKit          3D

 88 96  0  0  1  0  0  0  0  0999 V2000
  -29.4560  -20.8820   20.7460 C   0  0  0  0  0  0  0  0  0  0  0  0
  -29.0260  -22.3380   20.6620 C   0  0  0  0  0  0  0  0  0  0  0  0
  -29.6050  -20.1170   19.5730 C   0  0  0  0  0  0  0  0  0  0  0  0
  -28.8000  -22.9880   19.4370 C   0  0  0  0  0  0  0  0  0  0  0  0
  -29.7320  -20.2330   22.0730 C   0  0  0  0  0  1  0  0  0  0  0  0
  -29.1670  -21.4920   18.3530 S   0  0  0  0  0  0  0  0  0  0  0  0
  -28.7600  -23.1640   22.1270 Cl  0  0  0  0  0  0  0  0  0  0  0  0
  -30.2410  -18.5070   19.2370 C   0  0  0  0  0  2  0  0  0  0  0  0
  -30.6970  -15.6350   19.6390 C   0  0  0  0  0  0  0  0  0  0  0  0
  -30.6690  -13.1250   18.9660 C   0  0  0  0  0  2  0  0  0  0  0  0
  -29.7080  -12.8070   17.7930 C   0  0  0  0  0  2  0  0  0  0  0  0
  -28.2880  -12.5370   18.3190 C   0  0  0  0  0  2  0  0  0  0  0  0
  -27.8630  -13.5810   19.3820 C   0  0  0  0  0  3  0  0  0  0  0  0
  -28.9510  -13.8480   20.4460 C   0  0  0  0  0  2  0  0  0  0  0  0
  -30.1440  -14.3230   19.7240 N   0  0  0  0  0  0  0  0  0  0  0  0
  -31.8980  -15.6180   19.3330 O   0  0  0  0  0  0  0  0  0  0  0  0
  -29.9450  -16.9210   19.6890 N   0  0  0  0  0  0  0  0  0  0  0  0
  -28.9830  -16.7720   19.9560 H   0  0  0  0  0  0  0  0  0  0  0  0
  -25.5590  -14.1690   20.2990 C   0  0  0  0  0  0  0  0  0  0  0  0
  -24.5070  -13.4080   20.7210 C   0  0  0  0  0  0  0  0  0  0  0  0
  -24.9420  -12.0480   20.6330 C   0  0  0  0  0  0  0  0  0  0  0  0
  -26.5650  -13.2790   19.9710 N   0  0  0  0  0  0  0  0  0  0  0  0
  -26.2100  -11.9950   20.2390 N   0  0  0  0  0  0  0  0  0  0  0  0
  -24.2010  -10.7980   20.8450 C   0  0  0  0  0  0  0  0  0  0  0  0
  -24.6310   -9.8320   21.7810 C   0  0  0  0  0  3  0  0  0  0  0  0
  -23.8890   -8.6480   21.9820 C   0  0  0  0  0  3  0  0  0  0  0  0
  -22.7010   -8.4210   21.2460 C   0  0  0  0  0  0  0  0  0  0  0  0
  -22.2900   -9.3750   20.2980 C   0  0  0  0  0  3  0  0  0  0  0  0
  -23.0330  -10.5510   20.0960 C   0  0  0  0  0  3  0  0  0  0  0  0
  -21.9300   -7.2900   21.3560 O   0  0  0  0  0  0  0  0  0  0  0  0
  -21.8470   -6.5880   22.5310 C   0  0  0  0  0  0  0  0  0  0  0  0
  -21.3220   -7.1640   23.7080 C   0  0  0  0  0  3  0  0  0  0  0  0
  -21.1890   -6.3850   24.8750 C   0  0  0  0  0  3  0  0  0  0  0  0
  -21.5710   -5.0290   24.8650 C   0  0  0  0  0  0  0  0  0  0  0  0
  -22.0890   -4.4530   23.6920 C   0  0  0  0  0  3  0  0  0  0  0  0
  -22.2240   -5.2300   22.5280 C   0  0  0  0  0  0  0  0  0  0  0  0
  -22.7020   -4.6630   21.3950 F   0  0  0  0  0  0  0  0  0  0  0  0
  -21.4370   -4.2790   25.9840 F   0  0  0  0  0  0  0  0  0  0  0  0
  -23.1410  -13.9080   21.0850 C   0  0  0  0  0  0  0  0  0  0  0  0
  -22.4570  -13.2200   21.9920 N   0  0  0  0  0  0  0  0  0  0  0  0
  -22.6930  -14.9460   20.6000 O   0  0  0  0  0  0  0  0  0  0  0  0
  -22.8350  -12.3800   22.4040 H   0  0  0  0  0  0  0  0  0  0  0  0
  -21.5420  -13.5390   22.2780 H   0  0  0  0  0  0  0  0  0  0  0  0
  -25.7380  -15.5410   20.1360 N   0  0  0  0  0  0  0  0  0  0  0  0
  -24.9890  -16.2030   20.3030 H   0  0  0  0  0  0  0  0  0  0  0  0
  -26.5620  -15.9700   19.7350 H   0  0  0  0  0  0  0  0  0  0  0  0
  -27.9890  -24.4970   19.0400 C   0  0  0  0  0  2  0  0  0  0  0  0
  -28.2730  -26.0890   19.3690 O   0  0  0  0  0  0  0  0  0  0  0  0
  -24.6670  -31.6740   22.9830 C   0  0  0  0  0  0  0  0  0  0  0  0
  -27.2430  -27.1790   19.4150 C   0  0  0  0  0  0  0  0  0  0  0  0
  -23.4390  -30.3650   21.2980 C   0  0  0  0  0  3  0  0  0  0  0  0
  -24.8690  -28.9580   19.6600 C   0  0  0  0  0  0  0  0  0  0  0  0
  -25.9820  -30.7020   21.0320 C   0  0  0  0  0  2  0  0  0  0  0  0
  -26.0730  -29.3570   20.2530 C   0  0  0  0  0  0  0  0  0  0  0  0
  -27.2490  -28.4880   20.1140 C   0  0  0  0  0  3  0  0  0  0  0  0
  -26.0030  -26.9520   18.7710 C   0  0  0  0  0  3  0  0  0  0  0  0
  -24.8580  -27.7800   18.8990 C   0  0  0  0  0  3  0  0  0  0  0  0
  -23.6160  -29.8130   19.8560 C   0  0  0  0  0  2  0  0  0  0  0  0
  -24.7190  -30.9370   21.8250 N   0  0  0  0  0  0  0  0  0  0  0  0
  -23.5990  -31.8680   23.5850 O   0  0  0  0  0  0  0  0  0  0  0  0
  -22.8450  -29.2600   22.2120 C   0  0  0  0  0  0  0  0  0  0  0  0
  -21.5300  -28.9960   22.0970 N   0  0  0  0  0  0  0  0  0  0  0  0
  -23.5740  -28.6430   22.9930 O   0  0  0  0  0  0  0  0  0  0  0  0
  -20.9890  -29.5480   21.4450 H   0  0  0  0  0  0  0  0  0  0  0  0
  -18.2820  -27.4380   22.5310 C   0  0  0  0  0  0  0  0  0  0  0  0
  -20.8010  -27.9510   22.8240 C   0  0  0  0  0  3  0  0  0  0  0  0
  -21.0480  -26.5600   22.1940 C   0  0  0  0  0  2  0  0  0  0  0  0
  -19.9880  -26.1700   21.1590 C   0  0  0  0  0  2  0  0  0  0  0  0
  -18.5970  -26.1450   21.7980 C   0  0  0  0  0  2  0  0  0  0  0  0
  -19.3150  -28.2930   22.9980 C   0  0  0  0  0  0  0  0  0  0  0  0
  -18.9640  -29.4970   23.6480 C   0  0  0  0  0  3  0  0  0  0  0  0
  -17.6140  -29.8500   23.8300 C   0  0  0  0  0  3  0  0  0  0  0  0
  -16.5950  -28.9940   23.3760 C   0  0  0  0  0  3  0  0  0  0  0  0
  -16.9300  -27.7890   22.7330 C   0  0  0  0  0  3  0  0  0  0  0  0
  -25.9450  -32.3240   23.5940 C   0  0  0  0  0  3  0  0  0  0  0  0
  -25.6050  -33.7000   23.9990 N   0  0  0  0  0  0  0  0  0  0  0  0
  -25.9270  -34.8040   23.3120 C   0  0  0  0  0  0  0  0  0  0  0  0
  -26.6030  -34.7720   22.2830 O   0  0  0  0  0  0  0  0  0  0  0  0
  -25.0050  -33.7950   24.8050 H   0  0  0  0  0  0  0  0  0  0  0  0
  -24.1810  -36.6010   23.0580 C   0  0  0  0  0  1  0  0  0  0  0  0
  -25.4210  -36.1580   23.8530 C   0  0  0  0  0  3  0  0  0  0  0  0
  -27.5270  -37.0290   24.7700 C   0  0  0  0  0  1  0  0  0  0  0  0
  -26.4420  -37.2290   23.8130 N   0  0  0  0  0  0  0  0  0  0  0  0
  -26.0200  -38.1350   23.9980 H   0  0  0  0  0  0  0  0  0  0  0  0
  -26.5130  -31.5220   24.8310 C   0  0  1  0  0  0  0  0  0  0  0  0
  -25.4580  -31.2320   25.9250 C   0  0  0  0  0  1  0  0  0  0  0  0
  -27.1070  -30.1660   24.3860 C   0  0  0  0  0  1  0  0  0  0  0  0
  -27.6710  -32.3150   25.4830 C   0  0  0  0  0  1  0  0  0  0  0  0
  1  5  1  0
  2  1  1  0
  2  7  1  0
  3  1  2  0
  4  2  2  0
  6  4  1  0
  6  3  1  0
  8  3  1  0
  8 17  1  0
  9 17  1  0
  9 15  1  0
 10 15  1  0
 11 12  1  0
 11 10  1  0
 13 12  1  0
 13 22  1  0
 13 14  1  0
 15 14  1  0
 16  9  2  0
 17 18  1  0
 19 20  2  0
 20 39  1  0
 21 20  1  0
 21 24  1  0
 22 23  1  0
 22 19  1  0
 23 21  2  0
 24 25  1  0
 25 26  2  0
 27 30  1  0
 27 26  1  0
 28 27  2  0
 29 28  1  0
 29 24  2  0
 30 31  1  0
 31 32  1  0
 32 33  2  0
 34 33  1  0
 34 38  1  0
 35 34  2  0
 36 31  2  0
 36 35  1  0
 37 36  1  0
 39 40  1  0
 40 43  1  0
 40 42  1  0
 41 39  2  0
 44 19  1  0
 44 45  1  0
 46 44  1  0
 47 48  1  0
 47  4  1  0
 48 50  1  0
 49 60  2  0
 50 55  1  0
 51 59  1  0
 51 61  1  0
 52 58  1  0
 52 54  1  0
 53 59  1  0
 54 53  1  0
 55 54  2  0
 56 57  1  0
 56 50  2  0
 57 52  2  0
 58 51  1  0
 59 49  1  0
 61 63  2  0
 62 61  1  0
 64 62  1  0
 65 74  2  0
 65 70  1  0
 66 62  1  0
 66 70  1  0
 67 66  1  0
 68 69  1  0
 68 67  1  0
 69 65  1  0
 70 71  2  0
 71 72  1  0
 73 72  2  0
 74 73  1  0
 75 49  1  0
 75 76  1  0
 75 85  1  0
 76 79  1  0
 77 81  1  0
 77 76  1  0
 78 77  2  0
 81 80  1  0
 83 81  1  0
 83 84  1  0
 83 82  1  0
 85 88  1  1
 85 86  1  0
 87 85  1  0
M  ISO  4   9 100  17 100  47 101  48 101
M  END
>  <TORSDO>  (52) 
F 18

>  <SCORE>  (52) 
-14.967

>  <name>  (52) 
51

>  <ligand_id>  (52) 
51

>  <original_smiles>  (52) 
[H]c1c([H])c([H])c2c(c1[H])C([H])([H])C([H])([H])C([H])([H])C2([H])N([H])C(=O)C1([H])N(C(=O)C([H])(N([H])C(=O)C([H])(N([H])C([H])([H])[H])C([H])([H])[H])C(C([H])([H])[H])(C([H])([H])[H])C([H])([H])[H])C([H])([H])c2c([H])c(OC([H])([H])c3sc(C([H])([H])N([H])C(=O)N4C([H])([H])C([H])([H])C([H])([H])C([H])(n5nc(-c6c([H])c([H])c(Oc7c([H])c([H])c(F)c([H])c7F)c([H])c6[H])c(C(=O)N([H])[H])c5N([H])[H])C4([H])[H])c(C([H])([H])[H])c3Cl)c([H])c([H])c2C1([H])[H]

>  <smiles>  (52) 
[H]c1c([H])c([H])c2c(c1[H])C([H])([H])C([H])([H])C([H])([H])C2([H])N([H])C(=O)C1([H])N(C(=O)C([H])(N([H])C(=O)C([H])(N([H])C([H])([H])[H])C([H])([H])[H])C(C([H])([H])[H])(C([H])([H])[H])C([H])([H])[H])C([H])([H])c2c([H])c(OC([H])([H])c3sc(C([H])([H])N([H])C(=O)N4C([H])([H])C([H])([H])C([H])([H])C([H])(n5nc(-c6c([H])c([H])c(Oc7c([H])c([H])c(F)c([H])c7F)c([H])c6[H])c(C(=O)N([H])[H])c5N([H])[H])C4([H])[H])c(C([H])([H])[H])c3Cl)c([H])c([H])c2C1([H])[H]

$$$$
52:0:0
     RDKit          3D

 94103  0  0  1  0  0  0  0  0999 V2000
  -28.5170  -20.4720   21.3960 C   0  0  0  0  0  2  0  0  0  0  0  0
  -30.4920  -20.5680   19.8810 C   0  0  0  0  0  2  0  0  0  0  0  0
  -28.0550  -21.8890   20.8630 C   0  0  0  0  0  2  0  0  0  0  0  0
  -29.8810  -21.8520   19.2210 C   0  0  0  0  0  2  0  0  0  0  0  0
  -29.4290  -19.6100   20.4680 C   0  0  0  0  0  3  0  0  0  0  0  0
  -29.1180  -22.7100   20.1890 N   0  0  1  0  0  4  0  0  0  0  0  0
  -29.7970  -22.9350   20.8980 H   0  0  0  0  0  0  0  0  0  0  0  0
  -29.8250  -17.0260   20.2230 C   0  0  0  0  0  3  0  0  0  0  0  0
  -30.3400  -15.7490   20.6170 C   0  0  0  0  0  0  0  0  0  0  0  0
  -29.9820  -18.2220   21.0150 C   0  0  0  0  0  0  0  0  0  0  0  0
  -31.0170  -15.7100   21.8550 C   0  0  0  0  0  0  0  0  0  0  0  0
  -30.7240  -18.0330   22.2300 C   0  0  0  0  0  0  0  0  0  0  0  0
  -31.6390  -14.4240   22.4080 C   0  0  0  0  0  1  0  0  0  0  0  0
  -31.1480  -19.1310   23.2100 C   0  0  0  0  0  1  0  0  0  0  0  0
  -31.1970  -16.8200   22.6160 N   0  0  0  0  0  0  0  0  0  0  0  0
  -30.4950  -14.6070   19.6100 C   0  0  0  0  0  0  0  0  0  0  0  0
  -29.9160  -12.5020   18.4370 C   0  0  0  0  0  2  0  0  0  0  0  0
  -28.8240  -12.7530   17.3810 C   0  0  0  0  0  2  0  0  0  0  0  0
  -27.4300  -12.5830   18.0060 C   0  0  0  0  0  2  0  0  0  0  0  0
  -27.2770  -13.3580   19.3440 C   0  0  0  0  0  3  0  0  0  0  0  0
  -28.4930  -13.1710   20.2910 C   0  0  0  0  0  2  0  0  0  0  0  0
  -29.7250  -13.4720   19.5430 N   0  0  0  0  0  0  0  0  0  0  0  0
  -31.4310  -14.7740   18.8210 O   0  0  0  0  0  0  0  0  0  0  0  0
  -25.0040  -13.8910   20.4130 C   0  0  0  0  0  0  0  0  0  0  0  0
  -23.9950  -13.0910   20.8870 C   0  0  0  0  0  0  0  0  0  0  0  0
  -24.4390  -11.7470   20.7040 C   0  0  0  0  0  0  0  0  0  0  0  0
  -26.0050  -13.0340   19.9900 N   0  0  0  0  0  0  0  0  0  0  0  0
  -25.6730  -11.7330   20.2110 N   0  0  0  0  0  0  0  0  0  0  0  0
  -23.7340  -10.4750   20.9170 C   0  0  0  0  0  0  0  0  0  0  0  0
  -24.2620   -9.4750   21.7590 C   0  0  0  0  0  3  0  0  0  0  0  0
  -23.5570   -8.2710   21.9730 C   0  0  0  0  0  3  0  0  0  0  0  0
  -22.3090   -8.0570   21.3440 C   0  0  0  0  0  0  0  0  0  0  0  0
  -21.7980   -9.0470   20.4880 C   0  0  0  0  0  3  0  0  0  0  0  0
  -22.5030  -10.2440   20.2720 C   0  0  0  0  0  3  0  0  0  0  0  0
  -21.5700   -6.9020   21.4660 O   0  0  0  0  0  0  0  0  0  0  0  0
  -21.6190   -6.1340   22.6000 C   0  0  0  0  0  0  0  0  0  0  0  0
  -21.3100   -6.6610   23.8720 C   0  0  0  0  0  3  0  0  0  0  0  0
  -21.3000   -5.8190   25.0030 C   0  0  0  0  0  3  0  0  0  0  0  0
  -21.5920   -4.4480   24.8630 C   0  0  0  0  0  0  0  0  0  0  0  0
  -21.8940   -3.9200   23.5960 C   0  0  0  0  0  3  0  0  0  0  0  0
  -21.9030   -4.7590   22.4680 C   0  0  0  0  0  0  0  0  0  0  0  0
  -22.1720   -4.2400   21.2470 F   0  0  0  0  0  0  0  0  0  0  0  0
  -21.5800   -3.6360   25.9470 F   0  0  0  0  0  0  0  0  0  0  0  0
  -22.6570  -13.5500   21.3920 C   0  0  0  0  0  0  0  0  0  0  0  0
  -22.0650  -12.8070   22.3280 N   0  0  0  0  0  0  0  0  0  0  0  0
  -22.1450  -14.5910   20.9930 O   0  0  0  0  0  0  0  0  0  0  0  0
  -22.4920  -11.9610   22.6760 H   0  0  0  0  0  0  0  0  0  0  0  0
  -21.1660  -13.0840   22.6960 H   0  0  0  0  0  0  0  0  0  0  0  0
  -25.1490  -15.2680   20.2920 N   0  0  0  0  0  0  0  0  0  0  0  0
  -24.4070  -15.9220   20.5310 H   0  0  0  0  0  0  0  0  0  0  0  0
  -25.9700  -15.7270   19.9160 H   0  0  0  0  0  0  0  0  0  0  0  0
  -28.6600  -24.0490   19.5990 C   0  0  0  0  0  2  0  0  0  0  0  0
  -28.2100  -25.2080   20.5930 C   0  0  0  0  0  2  0  0  0  0  0  0
  -28.3490  -26.6110   20.1520 O   0  0  0  0  0  0  0  0  0  0  0  0
  -24.5610  -31.9200   23.2190 C   0  0  0  0  0  0  0  0  0  0  0  0
  -27.2090  -27.4170   20.1560 C   0  0  0  0  0  0  0  0  0  0  0  0
  -23.3640  -30.5080   21.5800 C   0  0  0  0  0  3  0  0  0  0  0  0
  -24.8280  -28.9760   20.1430 C   0  0  0  0  0  0  0  0  0  0  0  0
  -25.8950  -30.8540   21.4000 C   0  0  0  0  0  2  0  0  0  0  0  0
  -25.9860  -29.4850   20.7510 C   0  0  0  0  0  0  0  0  0  0  0  0
  -27.1810  -28.7100   20.7550 C   0  0  0  0  0  3  0  0  0  0  0  0
  -26.0310  -26.9480   19.5330 C   0  0  0  0  0  3  0  0  0  0  0  0
  -24.8470  -27.7160   19.5310 C   0  0  0  0  0  3  0  0  0  0  0  0
  -23.5800  -29.8330   20.1980 C   0  0  0  0  0  2  0  0  0  0  0  0
  -24.6220  -31.1170   22.1210 N   0  0  0  0  0  0  0  0  0  0  0  0
  -23.4770  -32.1850   23.7620 O   0  0  0  0  0  0  0  0  0  0  0  0
  -22.7200  -29.4860   22.5440 C   0  0  0  0  0  0  0  0  0  0  0  0
  -21.4040  -29.2580   22.3910 N   0  0  0  0  0  0  0  0  0  0  0  0
  -23.4020  -28.8980   23.3890 O   0  0  0  0  0  0  0  0  0  0  0  0
  -20.9090  -29.7720   21.6750 H   0  0  0  0  0  0  0  0  0  0  0  0
  -18.0800  -27.8970   22.7960 C   0  0  0  0  0  0  0  0  0  0  0  0
  -20.6080  -28.3040   23.1650 C   0  0  0  0  0  3  0  0  0  0  0  0
  -20.8160  -26.8640   22.6460 C   0  0  0  0  0  2  0  0  0  0  0  0
  -19.7800  -26.4450   21.6000 C   0  0  0  0  0  2  0  0  0  0  0  0
  -18.3630  -26.5380   22.1760 C   0  0  0  0  0  2  0  0  0  0  0  0
  -19.1380  -28.7340   23.2440 C   0  0  0  0  0  0  0  0  0  0  0  0
  -18.8280  -30.0030   23.7780 C   0  0  0  0  0  3  0  0  0  0  0  0
  -17.4940  -30.4370   23.8770 C   0  0  0  0  0  3  0  0  0  0  0  0
  -16.4490  -29.5980   23.4480 C   0  0  0  0  0  3  0  0  0  0  0  0
  -16.7440  -28.3320   22.9110 C   0  0  0  0  0  3  0  0  0  0  0  0
  -25.8390  -32.5680   23.8360 C   0  0  0  0  0  3  0  0  0  0  0  0
  -26.3760  -31.8030   25.1090 C   0  0  1  0  0  0  0  0  0  0  0  0
  -25.2840  -31.5360   26.1720 C   0  0  0  0  0  1  0  0  0  0  0  0
  -26.9910  -30.4380   24.7140 C   0  0  0  0  0  1  0  0  0  0  0  0
  -27.5090  -32.6210   25.7730 C   0  0  0  0  0  1  0  0  0  0  0  0
  -25.5150  -33.9630   24.1680 N   0  0  0  0  0  0  0  0  0  0  0  0
  -25.8130  -35.0210   23.4010 C   0  0  0  0  0  0  0  0  0  0  0  0
  -26.4680  -34.9310   22.3580 O   0  0  0  0  0  0  0  0  0  0  0  0
  -24.9400  -34.1120   24.9830 H   0  0  0  0  0  0  0  0  0  0  0  0
  -24.0450  -36.7850   23.0860 C   0  0  0  0  0  1  0  0  0  0  0  0
  -25.3120  -36.4010   23.8660 C   0  0  0  0  0  3  0  0  0  0  0  0
  -27.4440  -37.3320   24.6510 C   0  0  0  0  0  1  0  0  0  0  0  0
  -26.3190  -37.4740   23.7310 N   0  0  0  0  0  0  0  0  0  0  0  0
  -25.8980  -38.3830   23.8980 H   0  0  0  0  0  0  0  0  0  0  0  0
  2  5  1  0
  3  1  1  0
  4  2  1  0
  4  6  1  0
  5 10  1  0
  5  1  1  0
  6  3  1  0
  6  7  1  1
  8  9  2  0
  8 10  1  0
  9 11  1  0
 10 12  2  0
 11 13  1  0
 11 15  2  0
 12 15  1  0
 12 14  1  0
 16  9  1  0
 17 22  1  0
 18 19  1  0
 18 17  1  0
 20 19  1  0
 20 27  1  0
 20 21  1  0
 22 16  1  0
 22 21  1  0
 23 16  2  0
 24 25  2  0
 25 44  1  0
 26 25  1  0
 26 29  1  0
 27 28  1  0
 27 24  1  0
 28 26  2  0
 29 30  1  0
 30 31  2  0
 32 35  1  0
 32 31  1  0
 33 32  2  0
 34 33  1  0
 34 29  2  0
 35 36  1  0
 36 37  1  0
 37 38  2  0
 39 38  1  0
 39 43  1  0
 40 39  2  0
 41 36  2  0
 41 40  1  0
 42 41  1  0
 44 45  1  0
 45 47  1  0
 45 48  1  0
 46 44  2  0
 49 24  1  0
 49 50  1  0
 51 49  1  0
 52  6  1  0
 52 53  1  0
 54 56  1  0
 54 53  1  0
 55 66  2  0
 56 61  1  0
 57 65  1  0
 57 67  1  0
 58 64  1  0
 58 60  1  0
 59 65  1  0
 60 61  2  0
 60 59  1  0
 62 56  2  0
 63 62  1  0
 63 58  2  0
 64 57  1  0
 65 55  1  0
 67 69  2  0
 68 67  1  0
 70 68  1  0
 71 80  2  0
 71 76  1  0
 72 68  1  0
 72 76  1  0
 73 72  1  0
 74 75  1  0
 74 73  1  0
 75 71  1  0
 76 77  2  0
 77 78  1  0
 79 78  2  0
 80 79  1  0
 81 55  1  0
 81 86  1  0
 81 82  1  0
 82 85  1  1
 82 83  1  0
 84 82  1  0
 86 89  1  0
 87 91  1  0
 87 86  1  0
 88 87  2  0
 91 90  1  0
 93 91  1  0
 93 94  1  0
 93 92  1  0
M  ISO  4   9 100  16 100  53 101  54 101
M  END
>  <TORSDO>  (53) 
F 19

>  <SCORE>  (53) 
-11.449

>  <name>  (53) 
52

>  <ligand_id>  (53) 
52

>  <original_smiles>  (53) 
[H]c1c([H])c([H])c2c(c1[H])C([H])([H])C([H])([H])C([H])([H])C2([H])N([H])C(=O)C1([H])N(C(=O)C([H])(N([H])C(=O)C([H])(N([H])C([H])([H])[H])C([H])([H])[H])C(C([H])([H])[H])(C([H])([H])[H])C([H])([H])[H])C([H])([H])c2c([H])c(OC([H])([H])C([H])([H])[N+]3([H])C([H])([H])C([H])([H])C([H])(c4c(C([H])([H])[H])nc(C([H])([H])[H])c(C(=O)N5C([H])([H])C([H])([H])C([H])([H])C([H])(n6nc(-c7c([H])c([H])c(Oc8c([H])c([H])c(F)c([H])c8F)c([H])c7[H])c(C(=O)N([H])[H])c6N([H])[H])C5([H])[H])c4[H])C([H])([H])C3([H])[H])c([H])c([H])c2C1([H])[H]

>  <smiles>  (53) 
[H]c1c([H])c([H])c2c(c1[H])C([H])([H])C([H])([H])C([H])([H])C2([H])N([H])C(=O)C1([H])N(C(=O)C([H])(N([H])C(=O)C([H])(N([H])C([H])([H])[H])C([H])([H])[H])C(C([H])([H])[H])(C([H])([H])[H])C([H])([H])[H])C([H])([H])c2c([H])c(OC([H])([H])C([H])([H])[N+]3([H])C([H])([H])C([H])([H])C([H])(c4c(C([H])([H])[H])nc(C([H])([H])[H])c(C(=O)N5C([H])([H])C([H])([H])C([H])([H])C([H])(n6nc(-c7c([H])c([H])c(Oc8c([H])c([H])c(F)c([H])c8F)c([H])c7[H])c(C(=O)N([H])[H])c6N([H])[H])C5([H])[H])c4[H])C([H])([H])C3([H])[H])c([H])c([H])c2C1([H])[H]

$$$$
53:0:0
     RDKit          3D

 90 98  0  0  1  0  0  0  0  0999 V2000
  -30.6540  -19.9870   20.4750 C   0  0  0  0  0  3  0  0  0  0  0  0
  -28.3270  -19.7400   20.2310 C   0  0  0  0  0  3  0  0  0  0  0  0
  -29.3850  -20.6600   20.4280 C   0  0  0  0  0  0  0  0  0  0  0  0
  -30.8430  -18.5410   20.3820 C   0  0  0  0  0  0  0  0  0  0  0  0
  -28.4960  -18.3110   20.1650 C   0  0  0  0  0  0  0  0  0  0  0  0
  -29.7500  -17.6080   20.2610 C   0  0  0  0  0  0  0  0  0  0  0  0
  -32.2670  -18.0260   20.4490 C   0  0  0  0  0  1  0  0  0  0  0  0
  -27.2360  -17.5090   20.0100 C   0  0  0  0  0  1  0  0  0  0  0  0
  -30.5440  -14.9500   20.0250 C   0  0  0  0  0  0  0  0  0  0  0  0
  -30.3320  -12.6490   19.0010 C   0  0  0  0  0  2  0  0  0  0  0  0
  -29.3230  -12.6950   17.8300 C   0  0  0  0  0  2  0  0  0  0  0  0
  -27.8840  -12.4870   18.3390 C   0  0  0  0  0  2  0  0  0  0  0  0
  -27.5600  -13.3570   19.5830 C   0  0  0  0  0  3  0  0  0  0  0  0
  -28.6870  -13.2910   20.6400 C   0  0  0  0  0  2  0  0  0  0  0  0
  -29.9370  -13.6990   19.9780 N   0  0  0  0  0  0  0  0  0  0  0  0
  -31.7210  -15.0360   19.6660 O   0  0  0  0  0  0  0  0  0  0  0  0
  -29.7270  -16.0740   20.2800 N   0  0  0  0  0  0  0  0  0  0  0  0
  -28.8010  -15.7360   20.4860 H   0  0  0  0  0  0  0  0  0  0  0  0
  -25.2020  -13.9000   20.4390 C   0  0  0  0  0  0  0  0  0  0  0  0
  -24.1690  -13.1230   20.8680 C   0  0  0  0  0  0  0  0  0  0  0  0
  -24.6400  -11.7790   20.7870 C   0  0  0  0  0  0  0  0  0  0  0  0
  -26.2480  -13.0420   20.1430 N   0  0  0  0  0  0  0  0  0  0  0  0
  -25.9160  -11.7540   20.4130 N   0  0  0  0  0  0  0  0  0  0  0  0
  -23.9220  -10.5170   20.9860 C   0  0  0  0  0  0  0  0  0  0  0  0
  -24.3800   -9.5460   21.9010 C   0  0  0  0  0  3  0  0  0  0  0  0
  -23.6590   -8.3480   22.0900 C   0  0  0  0  0  3  0  0  0  0  0  0
  -22.4670   -8.1150   21.3630 C   0  0  0  0  0  0  0  0  0  0  0  0
  -22.0270   -9.0770   20.4380 C   0  0  0  0  0  3  0  0  0  0  0  0
  -22.7480  -10.2670   20.2460 C   0  0  0  0  0  3  0  0  0  0  0  0
  -21.7150   -6.9700   21.4640 O   0  0  0  0  0  0  0  0  0  0  0  0
  -21.6830   -6.2320   22.6210 C   0  0  0  0  0  0  0  0  0  0  0  0
  -21.2540   -6.7860   23.8470 C   0  0  0  0  0  3  0  0  0  0  0  0
  -21.1720   -5.9730   24.9950 C   0  0  0  0  0  3  0  0  0  0  0  0
  -21.5070   -4.6080   24.9170 C   0  0  0  0  0  0  0  0  0  0  0  0
  -21.9280   -4.0540   23.6960 C   0  0  0  0  0  3  0  0  0  0  0  0
  -22.0140   -4.8640   22.5500 C   0  0  0  0  0  0  0  0  0  0  0  0
  -22.4010   -4.3220   21.3710 F   0  0  0  0  0  0  0  0  0  0  0  0
  -21.4190   -3.8260   26.0180 F   0  0  0  0  0  0  0  0  0  0  0  0
  -22.7890  -13.6000   21.2170 C   0  0  0  0  0  0  0  0  0  0  0  0
  -22.1030  -12.8900   22.1030 N   0  0  0  0  0  0  0  0  0  0  0  0
  -22.3330  -14.6410   20.7410 O   0  0  0  0  0  0  0  0  0  0  0  0
  -22.4900  -12.0500   22.5090 H   0  0  0  0  0  0  0  0  0  0  0  0
  -21.1800  -13.1910   22.3810 H   0  0  0  0  0  0  0  0  0  0  0  0
  -25.3050  -15.2610   20.2390 N   0  0  0  0  0  0  0  0  0  0  0  0
  -24.4770  -15.8430   20.3050 H   0  0  0  0  0  0  0  0  0  0  0  0
  -26.0270  -15.6660   19.6620 H   0  0  0  0  0  0  0  0  0  0  0  0
  -29.1100  -22.2040   20.8770 C   0  0  0  0  0  3  0  0  0  0  0  0
  -28.8720  -23.5610   19.9660 C   0  0  0  0  0  3  0  0  0  0  0  0
  -28.2390  -24.9290   20.6590 C   0  0  0  0  0  2  0  0  0  0  0  0
  -28.3750  -26.3720   20.1790 O   0  0  0  0  0  0  0  0  0  0  0  0
  -24.6060  -31.8770   23.2300 C   0  0  0  0  0  0  0  0  0  0  0  0
  -27.2650  -27.2660   20.1930 C   0  0  0  0  0  0  0  0  0  0  0  0
  -23.4260  -30.4770   21.5760 C   0  0  0  0  0  3  0  0  0  0  0  0
  -24.8990  -28.9220   20.1640 C   0  0  0  0  0  0  0  0  0  0  0  0
  -25.9720  -30.7890   21.4190 C   0  0  0  0  0  2  0  0  0  0  0  0
  -26.0660  -29.4030   20.7690 C   0  0  0  0  0  0  0  0  0  0  0  0
  -27.2540  -28.5930   20.7610 C   0  0  0  0  0  3  0  0  0  0  0  0
  -26.0700  -26.8560   19.5670 C   0  0  0  0  0  3  0  0  0  0  0  0
  -24.9090  -27.6570   19.5500 C   0  0  0  0  0  3  0  0  0  0  0  0
  -23.6600  -29.8010   20.1980 C   0  0  0  0  0  2  0  0  0  0  0  0
  -24.6870  -31.0680   22.1310 N   0  0  0  0  0  0  0  0  0  0  0  0
  -23.5150  -32.1480   23.7540 O   0  0  0  0  0  0  0  0  0  0  0  0
  -22.7530  -29.4600   22.5310 C   0  0  0  0  0  0  0  0  0  0  0  0
  -21.4270  -29.2880   22.4010 N   0  0  0  0  0  0  0  0  0  0  0  0
  -23.4280  -28.8280   23.3490 O   0  0  0  0  0  0  0  0  0  0  0  0
  -20.9390  -29.8490   21.7160 H   0  0  0  0  0  0  0  0  0  0  0  0
  -18.0440  -28.0990   22.9090 C   0  0  0  0  0  0  0  0  0  0  0  0
  -20.6060  -28.3430   23.1640 C   0  0  0  0  0  3  0  0  0  0  0  0
  -20.6970  -26.9180   22.5710 C   0  0  0  0  0  2  0  0  0  0  0  0
  -19.5850  -26.6140   21.5610 C   0  0  0  0  0  2  0  0  0  0  0  0
  -18.2090  -26.7580   22.2140 C   0  0  0  0  0  2  0  0  0  0  0  0
  -19.1700  -28.8500   23.3410 C   0  0  0  0  0  0  0  0  0  0  0  0
  -18.9600  -30.1040   23.9530 C   0  0  0  0  0  3  0  0  0  0  0  0
  -17.6600  -30.6080   24.1370 C   0  0  0  0  0  3  0  0  0  0  0  0
  -16.5480  -29.8560   23.7190 C   0  0  0  0  0  3  0  0  0  0  0  0
  -16.7410  -28.6020   23.1110 C   0  0  0  0  0  3  0  0  0  0  0  0
  -25.8770  -32.5180   23.8670 C   0  0  0  0  0  3  0  0  0  0  0  0
  -26.3740  -31.7580   25.1580 C   0  0  1  0  0  0  0  0  0  0  0  0
  -25.2650  -31.5290   26.2110 C   0  0  0  0  0  1  0  0  0  0  0  0
  -26.9640  -30.3770   24.7900 C   0  0  0  0  0  1  0  0  0  0  0  0
  -27.5140  -32.5590   25.8310 C   0  0  0  0  0  1  0  0  0  0  0  0
  -25.5590  -33.9180   24.1840 N   0  0  0  0  0  0  0  0  0  0  0  0
  -25.9020  -34.9700   23.4270 C   0  0  0  0  0  0  0  0  0  0  0  0
  -26.5850  -34.8620   22.4050 O   0  0  0  0  0  0  0  0  0  0  0  0
  -24.9530  -34.0750   24.9760 H   0  0  0  0  0  0  0  0  0  0  0  0
  -24.1850  -36.7680   23.0390 C   0  0  0  0  0  1  0  0  0  0  0  0
  -25.4100  -36.3610   23.8720 C   0  0  0  0  0  3  0  0  0  0  0  0
  -27.5300  -37.2450   24.7430 C   0  0  0  0  0  1  0  0  0  0  0  0
  -26.4480  -37.4110   23.7750 N   0  0  0  0  0  0  0  0  0  0  0  0
  -26.0430  -38.3330   23.9080 H   0  0  0  0  0  0  0  0  0  0  0  0
  2  3  2  0
  3  1  1  0
  3 47  1  0
  4  7  1  0
  4  1  2  0
  5  2  1  0
  5  6  2  0
  6 17  1  0
  6  4  1  0
  8  5  1  0
  9 17  1  0
 10 15  1  0
 11 12  1  0
 11 10  1  0
 13 12  1  0
 13 22  1  0
 13 14  1  0
 15  9  1  0
 15 14  1  0
 16  9  2  0
 17 18  1  0
 19 20  2  0
 20 39  1  0
 21 20  1  0
 21 24  1  0
 22 23  1  0
 22 19  1  0
 23 21  2  0
 24 25  1  0
 25 26  2  0
 27 30  1  0
 27 26  1  0
 28 27  2  0
 29 28  1  0
 29 24  2  0
 30 31  1  0
 31 32  1  0
 32 33  2  0
 34 33  1  0
 34 38  1  0
 35 34  2  0
 36 31  2  0
 36 35  1  0
 37 36  1  0
 39 40  1  0
 40 43  1  0
 40 42  1  0
 41 39  2  0
 44 45  1  0
 44 19  1  0
 46 44  1  0
 48 49  1  0
 48 47  2  0
 50 52  1  0
 50 49  1  0
 51 62  2  0
 52 57  1  0
 53 61  1  0
 53 63  1  0
 54 60  1  0
 54 56  1  0
 55 61  1  0
 56 55  1  0
 57 56  2  0
 58 52  2  0
 59 58  1  0
 59 54  2  0
 60 53  1  0
 61 51  1  0
 63 65  2  0
 64 63  1  0
 66 64  1  0
 67 76  2  0
 67 72  1  0
 68 64  1  0
 68 72  1  0
 69 68  1  0
 70 71  1  0
 70 69  1  0
 71 67  1  0
 72 73  2  0
 73 74  1  0
 75 74  2  0
 76 75  1  0
 77 51  1  0
 77 82  1  0
 77 78  1  0
 78 81  1  1
 78 79  1  0
 80 78  1  0
 82 85  1  0
 83 87  1  0
 83 82  1  0
 84 83  2  0
 87 86  1  0
 89 87  1  0
 89 90  1  0
 89 88  1  0
M  ISO  4   9 100  17 100  49 101  50 101
M  END
>  <TORSDO>  (54) 
F 19

>  <SCORE>  (54) 
-14.576

>  <name>  (54) 
53

>  <ligand_id>  (54) 
53

>  <original_smiles>  (54) 
[H]c1c([H])c([H])c2c(c1[H])C([H])([H])C([H])([H])C([H])([H])C2([H])N([H])C(=O)C1([H])N(C(=O)C([H])(N([H])C(=O)C([H])(N([H])C([H])([H])[H])C([H])([H])[H])C(C([H])([H])[H])(C([H])([H])[H])C([H])([H])[H])C([H])([H])c2c([H])c(OC([H])([H])C([H])([H])C([H])([H])c3c([H])c(C([H])([H])[H])c(N([H])C(=O)N4C([H])([H])C([H])([H])C([H])([H])C([H])(n5nc(-c6c([H])c([H])c(Oc7c([H])c([H])c(F)c([H])c7F)c([H])c6[H])c(C(=O)N([H])[H])c5N([H])[H])C4([H])[H])c(C([H])([H])[H])c3[H])c([H])c([H])c2C1([H])[H]

>  <smiles>  (54) 
[H]c1c([H])c([H])c2c(c1[H])C([H])([H])C([H])([H])C([H])([H])C2([H])N([H])C(=O)C1([H])N(C(=O)C([H])(N([H])C(=O)C([H])(N([H])C([H])([H])[H])C([H])([H])[H])C(C([H])([H])[H])(C([H])([H])[H])C([H])([H])[H])C([H])([H])c2c([H])c(OC([H])([H])C([H])([H])C([H])([H])c3c([H])c(C([H])([H])[H])c(N([H])C(=O)N4C([H])([H])C([H])([H])C([H])([H])C([H])(n5nc(-c6c([H])c([H])c(Oc7c([H])c([H])c(F)c([H])c7F)c([H])c6[H])c(C(=O)N([H])[H])c5N([H])[H])C4([H])[H])c(C([H])([H])[H])c3[H])c([H])c([H])c2C1([H])[H]

$$$$
54:0:0
     RDKit          3D

 94102  0  0  1  0  0  0  0  0999 V2000
  -29.5470  -20.8960   21.0510 C   0  0  0  0  0  3  0  0  0  0  0  0
  -27.8010  -20.1800   19.0790 C   0  0  0  0  0  3  0  0  0  0  0  0
  -28.8880  -22.0320   20.3410 C   0  0  0  0  0  0  0  0  0  0  0  0
  -29.3820  -19.4300   20.7970 C   0  0  0  0  0  0  0  0  0  0  0  0
  -28.0230  -21.5700   19.3010 C   0  0  0  0  0  0  0  0  0  0  0  0
  -28.4720  -19.1280   19.7610 C   0  0  0  0  0  0  0  0  0  0  0  0
  -27.3540  -22.5330   18.3250 C   0  0  0  0  0  3  0  0  0  0  0  0
  -26.3480  -23.1880   18.9020 F   0  0  0  0  0  0  0  0  0  0  0  0
  -26.8850  -21.9230   17.2350 F   0  0  0  0  0  0  0  0  0  0  0  0
  -29.1700  -23.6720   20.5860 C   0  0  0  0  0  3  0  0  0  0  0  0
  -28.2190  -25.0360   20.1750 C   0  0  0  0  0  3  0  0  0  0  0  0
  -28.4560  -26.5670   20.4370 O   0  0  0  0  0  0  0  0  0  0  0  0
  -24.8570  -32.2280   23.5870 C   0  0  0  0  0  0  0  0  0  0  0  0
  -27.3930  -27.5530   20.4160 C   0  0  0  0  0  0  0  0  0  0  0  0
  -23.6260  -30.8400   21.9650 C   0  0  0  0  0  3  0  0  0  0  0  0
  -25.0450  -29.2870   20.4870 C   0  0  0  0  0  0  0  0  0  0  0  0
  -26.1740  -31.1140   21.7450 C   0  0  0  0  0  2  0  0  0  0  0  0
  -26.2390  -29.7300   21.0700 C   0  0  0  0  0  0  0  0  0  0  0  0
  -27.4100  -28.8790   21.0220 C   0  0  0  0  0  3  0  0  0  0  0  0
  -26.1680  -27.2200   19.7950 C   0  0  0  0  0  3  0  0  0  0  0  0
  -25.0240  -28.0460   19.8350 C   0  0  0  0  0  3  0  0  0  0  0  0
  -23.8130  -30.1780   20.5750 C   0  0  0  0  0  2  0  0  0  0  0  0
  -24.9060  -31.4170   22.4860 N   0  0  0  0  0  0  0  0  0  0  0  0
  -23.7820  -32.5050   24.1430 O   0  0  0  0  0  0  0  0  0  0  0  0
  -22.9770  -29.8200   22.9340 C   0  0  0  0  0  0  0  0  0  0  0  0
  -21.6930  -29.4880   22.7090 N   0  0  0  0  0  0  0  0  0  0  0  0
  -23.6330  -29.3270   23.8540 O   0  0  0  0  0  0  0  0  0  0  0  0
  -21.2120  -29.9440   21.9460 H   0  0  0  0  0  0  0  0  0  0  0  0
  -18.4690  -27.8500   22.9330 C   0  0  0  0  0  0  0  0  0  0  0  0
  -20.9130  -28.5100   23.4700 C   0  0  0  0  0  3  0  0  0  0  0  0
  -21.2810  -27.0630   23.0650 C   0  0  0  0  0  2  0  0  0  0  0  0
  -20.3770  -26.4960   21.9660 C   0  0  0  0  0  2  0  0  0  0  0  0
  -18.9160  -26.4900   22.4250 C   0  0  0  0  0  2  0  0  0  0  0  0
  -19.4080  -28.8040   23.4080 C   0  0  0  0  0  0  0  0  0  0  0  0
  -18.9430  -30.0660   23.8380 C   0  0  0  0  0  3  0  0  0  0  0  0
  -17.5700  -30.3790   23.8020 C   0  0  0  0  0  3  0  0  0  0  0  0
  -16.6450  -29.4240   23.3450 C   0  0  0  0  0  3  0  0  0  0  0  0
  -17.0940  -28.1620   22.9170 C   0  0  0  0  0  3  0  0  0  0  0  0
  -26.1480  -32.8660   24.1860 C   0  0  0  0  0  3  0  0  0  0  0  0
  -25.8540  -34.2750   24.4880 N   0  0  0  0  0  0  0  0  0  0  0  0
  -26.1480  -35.3080   23.6860 C   0  0  0  0  0  0  0  0  0  0  0  0
  -26.7670  -35.1740   22.6270 O   0  0  0  0  0  0  0  0  0  0  0  0
  -25.2990  -34.4550   25.3130 H   0  0  0  0  0  0  0  0  0  0  0  0
  -24.3830  -37.0810   23.4060 C   0  0  0  0  0  1  0  0  0  0  0  0
  -25.6880  -36.7110   24.1290 C   0  0  0  0  0  3  0  0  0  0  0  0
  -27.8710  -37.6440   24.7600 C   0  0  0  0  0  1  0  0  0  0  0  0
  -26.7000  -37.7650   23.8970 N   0  0  0  0  0  0  0  0  0  0  0  0
  -26.2960  -38.6870   24.0380 H   0  0  0  0  0  0  0  0  0  0  0  0
  -26.6630  -32.1250   25.4830 C   0  0  1  0  0  0  0  0  0  0  0  0
  -25.5550  -31.8610   26.5290 C   0  0  0  0  0  1  0  0  0  0  0  0
  -27.3040  -30.7630   25.1280 C   0  0  0  0  0  1  0  0  0  0  0  0
  -27.7680  -32.9670   26.1640 C   0  0  0  0  0  1  0  0  0  0  0  0
  -30.2250  -18.1820   21.4940 C   0  0  0  0  0  2  0  0  0  0  0  0
  -30.7830  -15.4670   21.4960 C   0  0  0  0  0  0  0  0  0  0  0  0
  -30.9190  -13.0510   20.7320 C   0  0  0  0  0  2  0  0  0  0  0  0
  -30.2380  -12.8860   19.3540 C   0  0  0  0  0  2  0  0  0  0  0  0
  -28.7210  -12.6520   19.5100 C   0  0  0  0  0  2  0  0  0  0  0  0
  -28.0740  -13.6120   20.5460 C   0  0  0  0  0  3  0  0  0  0  0  0
  -28.9100  -13.7440   21.8370 C   0  0  0  0  0  2  0  0  0  0  0  0
  -30.2490  -14.1820   21.4290 N   0  0  0  0  0  0  0  0  0  0  0  0
  -32.0150  -15.5650   21.4560 O   0  0  0  0  0  0  0  0  0  0  0  0
  -29.9520  -16.6200   21.4140 N   0  0  0  0  0  0  0  0  0  0  0  0
  -28.9700  -16.3960   21.3700 H   0  0  0  0  0  0  0  0  0  0  0  0
  -25.5900  -14.1080   20.9050 C   0  0  0  0  0  0  0  0  0  0  0  0
  -24.5080  -13.2960   21.1050 C   0  0  0  0  0  0  0  0  0  0  0  0
  -25.0160  -11.9620   21.1500 C   0  0  0  0  0  0  0  0  0  0  0  0
  -26.6860  -13.2650   20.8300 N   0  0  0  0  0  0  0  0  0  0  0  0
  -26.3390  -11.9690   21.0470 N   0  0  0  0  0  0  0  0  0  0  0  0
  -24.3100  -10.6750   21.2190 C   0  0  0  0  0  0  0  0  0  0  0  0
  -24.6000   -9.7270   22.2230 C   0  0  0  0  0  3  0  0  0  0  0  0
  -23.8940   -8.5050   22.2810 C   0  0  0  0  0  3  0  0  0  0  0  0
  -22.8830   -8.2240   21.3330 C   0  0  0  0  0  0  0  0  0  0  0  0
  -22.6160   -9.1610   20.3180 C   0  0  0  0  0  3  0  0  0  0  0  0
  -23.3250  -10.3730   20.2580 C   0  0  0  0  0  3  0  0  0  0  0  0
  -22.1580   -7.0560   21.2960 O   0  0  0  0  0  0  0  0  0  0  0  0
  -21.8760   -6.3520   22.4380 C   0  0  0  0  0  0  0  0  0  0  0  0
  -21.1380   -6.9150   23.5020 C   0  0  0  0  0  3  0  0  0  0  0  0
  -20.8130   -6.1300   24.6260 C   0  0  0  0  0  3  0  0  0  0  0  0
  -21.2120   -4.7810   24.6840 C   0  0  0  0  0  0  0  0  0  0  0  0
  -21.9400   -4.2170   23.6220 C   0  0  0  0  0  3  0  0  0  0  0  0
  -22.2680   -4.9980   22.5010 C   0  0  0  0  0  0  0  0  0  0  0  0
  -22.9520   -4.4440   21.4710 F   0  0  0  0  0  0  0  0  0  0  0  0
  -20.8920   -4.0240   25.7590 F   0  0  0  0  0  0  0  0  0  0  0  0
  -23.0710  -13.7240   21.1470 C   0  0  0  0  0  0  0  0  0  0  0  0
  -22.2370  -13.0100   21.8940 N   0  0  0  0  0  0  0  0  0  0  0  0
  -22.6880  -14.7300   20.5510 O   0  0  0  0  0  0  0  0  0  0  0  0
  -22.5550  -12.1970   22.3980 H   0  0  0  0  0  0  0  0  0  0  0  0
  -21.2660  -13.2800   21.9640 H   0  0  0  0  0  0  0  0  0  0  0  0
  -25.7330  -15.4830   20.7550 N   0  0  0  0  0  0  0  0  0  0  0  0
  -24.9400  -16.1150   20.7660 H   0  0  0  0  0  0  0  0  0  0  0  0
  -26.5980  -15.9530   20.5200 H   0  0  0  0  0  0  0  0  0  0  0  0
  -28.3020  -17.7970   19.4250 O   0  0  0  0  0  0  0  0  0  0  0  0
  -28.7450  -16.1050   17.7350 C   0  0  0  0  0  1  0  0  0  0  0  0
  -28.0960  -17.4610   18.0540 C   0  0  0  0  0  2  0  0  0  0  0  0
  2  5  2  0
  2  6  1  0
  3 10  1  0
  3  1  2  0
  4  1  1  0
  4 53  1  0
  5  3  1  0
  6  4  2  0
  7  8  1  0
  7  5  1  0
  9  7  1  0
 11 12  1  0
 11 10  2  0
 13 24  2  0
 14 12  1  0
 14 19  1  0
 15 23  1  0
 15 25  1  0
 16 22  1  0
 16 18  1  0
 17 23  1  0
 18 17  1  0
 19 18  2  0
 20 21  1  0
 20 14  2  0
 21 16  2  0
 22 15  1  0
 23 13  1  0
 25 27  2  0
 26 25  1  0
 28 26  1  0
 29 34  1  0
 30 26  1  0
 31 30  1  0
 32 33  1  0
 32 31  1  0
 33 29  1  0
 34 30  1  0
 34 35  2  0
 36 35  1  0
 37 36  2  0
 38 29  2  0
 38 37  1  0
 39 13  1  0
 39 40  1  0
 39 49  1  0
 40 43  1  0
 41 45  1  0
 41 40  1  0
 42 41  2  0
 45 44  1  0
 47 48  1  0
 47 45  1  0
 47 46  1  0
 49 52  1  1
 49 50  1  0
 51 49  1  0
 55 60  1  0
 56 57  1  0
 56 55  1  0
 58 57  1  0
 58 67  1  0
 58 59  1  0
 60 54  1  0
 60 59  1  0
 61 54  2  0
 62 53  1  0
 62 54  1  0
 63 62  1  0
 64 65  2  0
 65 84  1  0
 65 66  1  0
 66 69  1  0
 67 64  1  0
 67 68  1  0
 68 66  2  0
 69 70  1  0
 70 71  2  0
 72 71  1  0
 73 72  2  0
 74 73  1  0
 74 69  2  0
 75 72  1  0
 75 76  1  0
 76 81  2  0
 76 77  1  0
 77 78  2  0
 78 79  1  0
 79 83  1  0
 80 79  2  0
 81 80  1  0
 82 81  1  0
 84 85  1  0
 85 88  1  0
 85 87  1  0
 86 84  2  0
 89 90  1  0
 89 64  1  0
 91 89  1  0
 92  6  1  0
 93 94  1  0
 94 92  1  0
M  ISO  4  11 101  12 101  54 100  62 100
M  END
>  <TORSDO>  (55) 
F 22

>  <SCORE>  (55) 
-9.828

>  <name>  (55) 
54

>  <ligand_id>  (55) 
54

>  <original_smiles>  (55) 
[H]c1c([H])c([H])c2c(c1[H])C([H])([H])C([H])([H])C([H])([H])C2([H])N([H])C(=O)C1([H])N(C(=O)C([H])(N([H])C(=O)C([H])(N([H])C([H])([H])[H])C([H])([H])[H])C(C([H])([H])[H])(C([H])([H])[H])C([H])([H])[H])C([H])([H])c2c([H])c(OC([H])([H])C([H])([H])c3c([H])c(C([H])([H])N([H])C(=O)N4C([H])([H])C([H])([H])C([H])([H])C([H])(n5nc(-c6c([H])c([H])c(Oc7c([H])c([H])c(F)c([H])c7F)c([H])c6[H])c(C(=O)N([H])[H])c5N([H])[H])C4([H])[H])c(OC([H])([H])C([H])([H])[H])c([H])c3C([H])(F)F)c([H])c([H])c2C1([H])[H]

>  <smiles>  (55) 
[H]c1c([H])c([H])c2c(c1[H])C([H])([H])C([H])([H])C([H])([H])C2([H])N([H])C(=O)C1([H])N(C(=O)C([H])(N([H])C(=O)C([H])(N([H])C([H])([H])[H])C([H])([H])[H])C(C([H])([H])[H])(C([H])([H])[H])C([H])([H])[H])C([H])([H])c2c([H])c(OC([H])([H])C([H])([H])c3c([H])c(C([H])([H])N([H])C(=O)N4C([H])([H])C([H])([H])C([H])([H])C([H])(n5nc(-c6c([H])c([H])c(Oc7c([H])c([H])c(F)c([H])c7F)c([H])c6[H])c(C(=O)N([H])[H])c5N([H])[H])C4([H])[H])c(OC([H])([H])C([H])([H])[H])c([H])c3C([H])(F)F)c([H])c([H])c2C1([H])[H]

$$$$
55:0:0
     RDKit          3D

 95103  0  0  1  0  0  0  0  0999 V2000
  -28.7940  -17.7970   20.7120 C   0  0  0  0  0  3  0  0  0  0  0  0
  -27.8930  -18.7960   20.2940 C   0  0  0  0  0  0  0  0  0  0  0  0
  -30.1160  -18.1260   21.0750 C   0  0  0  0  0  0  0  0  0  0  0  0
  -29.6300  -20.5160   20.5820 C   0  0  0  0  0  0  0  0  0  0  0  0
  -28.3040  -20.1470   20.2360 C   0  0  0  0  0  0  0  0  0  0  0  0
  -30.5300  -19.4880   20.9980 C   0  0  0  0  0  0  0  0  0  0  0  0
  -26.4750  -18.4000   19.9180 C   0  0  0  0  0  1  0  0  0  0  0  0
  -27.1680  -21.3590   19.7390 Cl  0  0  0  0  0  0  0  0  0  0  0  0
  -32.1540  -19.8890   21.4500 Cl  0  0  0  0  0  0  0  0  0  0  0  0
  -31.0900  -17.0440   21.5770 C   0  0  0  0  0  2  0  0  0  0  0  0
  -31.3500  -14.5910   21.2460 C   0  0  0  0  0  0  0  0  0  0  0  0
  -31.2080  -12.3220   20.2890 C   0  0  0  0  0  2  0  0  0  0  0  0
  -30.4070  -12.3730   18.9720 C   0  0  0  0  0  2  0  0  0  0  0  0
  -28.8970  -12.2360   19.2500 C   0  0  0  0  0  2  0  0  0  0  0  0
  -28.4030  -13.1860   20.3740 C   0  0  0  0  0  3  0  0  0  0  0  0
  -29.3320  -13.1170   21.6080 C   0  0  0  0  0  2  0  0  0  0  0  0
  -30.7050  -13.3960   21.1600 N   0  0  0  0  0  0  0  0  0  0  0  0
  -32.5150  -14.7470   20.8710 O   0  0  0  0  0  0  0  0  0  0  0  0
  -30.6090  -15.6480   21.6280 N   0  0  0  0  0  0  0  0  0  0  0  0
  -29.6600  -15.4750   21.9160 H   0  0  0  0  0  0  0  0  0  0  0  0
  -25.9770  -13.8110   20.9530 C   0  0  0  0  0  0  0  0  0  0  0  0
  -24.8610  -13.0460   21.1680 C   0  0  0  0  0  0  0  0  0  0  0  0
  -25.2840  -11.6870   21.0420 C   0  0  0  0  0  0  0  0  0  0  0  0
  -27.0100  -12.9180   20.7240 N   0  0  0  0  0  0  0  0  0  0  0  0
  -26.5930  -11.6310   20.8330 N   0  0  0  0  0  0  0  0  0  0  0  0
  -24.5080  -10.4400   21.0550 C   0  0  0  0  0  0  0  0  0  0  0  0
  -24.8880   -9.3430   21.8580 C   0  0  0  0  0  3  0  0  0  0  0  0
  -24.1160   -8.1620   21.8690 C   0  0  0  0  0  3  0  0  0  0  0  0
  -22.9490   -8.0710   21.0760 C   0  0  0  0  0  0  0  0  0  0  0  0
  -22.5860   -9.1580   20.2630 C   0  0  0  0  0  3  0  0  0  0  0  0
  -23.3580  -10.3310   20.2490 C   0  0  0  0  0  3  0  0  0  0  0  0
  -22.1520   -6.9540   21.0030 O   0  0  0  0  0  0  0  0  0  0  0  0
  -22.1250   -6.0210   22.0080 C   0  0  0  0  0  0  0  0  0  0  0  0
  -21.8120   -6.3710   23.3390 C   0  0  0  0  0  3  0  0  0  0  0  0
  -21.7280   -5.3720   24.3290 C   0  0  0  0  0  3  0  0  0  0  0  0
  -21.9450   -4.0230   23.9880 C   0  0  0  0  0  0  0  0  0  0  0  0
  -22.2500   -3.6720   22.6610 C   0  0  0  0  0  3  0  0  0  0  0  0
  -22.3360   -4.6690   21.6740 C   0  0  0  0  0  0  0  0  0  0  0  0
  -22.6100   -4.3230   20.3920 F   0  0  0  0  0  0  0  0  0  0  0  0
  -21.8560   -3.0610   24.9360 F   0  0  0  0  0  0  0  0  0  0  0  0
  -23.4620  -13.5480   21.3810 C   0  0  0  0  0  0  0  0  0  0  0  0
  -22.6600  -12.8180   22.1470 N   0  0  0  0  0  0  0  0  0  0  0  0
  -23.0870  -14.6200   20.9080 O   0  0  0  0  0  0  0  0  0  0  0  0
  -22.9760  -11.9500   22.5560 H   0  0  0  0  0  0  0  0  0  0  0  0
  -21.7180  -13.1310   22.3330 H   0  0  0  0  0  0  0  0  0  0  0  0
  -26.1930  -15.1860   20.9100 N   0  0  0  0  0  0  0  0  0  0  0  0
  -25.4190  -15.8380   20.9520 H   0  0  0  0  0  0  0  0  0  0  0  0
  -27.0600  -15.6190   20.6220 H   0  0  0  0  0  0  0  0  0  0  0  0
  -30.0270  -22.0150   20.5920 C   0  0  0  0  0  2  0  0  0  0  0  0
  -29.4440  -22.8320   19.4910 N   0  0  0  0  0  4  0  0  0  0  0  0
  -29.8010  -22.4920   18.6100 H   0  0  0  0  0  0  0  0  0  0  0  0
  -28.4500  -22.6520   19.5110 H   0  0  0  0  0  0  0  0  0  0  0  0
  -29.6660  -24.3130   19.5870 C   0  0  0  0  0  2  0  0  0  0  0  0
  -28.5830  -25.1250   18.8270 C   0  0  0  0  0  2  0  0  0  0  0  0
  -28.6750  -26.5670   18.9720 O   0  0  0  0  0  0  0  0  0  0  0  0
  -24.8420  -31.1930   22.8180 C   0  0  0  0  0  0  0  0  0  0  0  0
  -27.4850  -27.2760   19.0690 C   0  0  0  0  0  0  0  0  0  0  0  0
  -23.6010  -29.9280   21.0950 C   0  0  0  0  0  3  0  0  0  0  0  0
  -25.0310  -28.6640   19.4030 C   0  0  0  0  0  0  0  0  0  0  0  0
  -26.0910  -30.4440   20.7930 C   0  0  0  0  0  2  0  0  0  0  0  0
  -26.2020  -29.1670   19.9840 C   0  0  0  0  0  0  0  0  0  0  0  0
  -27.4300  -28.4810   19.8150 C   0  0  0  0  0  3  0  0  0  0  0  0
  -26.2920  -26.8210   18.4520 C   0  0  0  0  0  3  0  0  0  0  0  0
  -25.0730  -27.4940   18.6320 C   0  0  0  0  0  3  0  0  0  0  0  0
  -23.7520  -29.4370   19.6320 C   0  0  0  0  0  2  0  0  0  0  0  0
  -24.8660  -30.5310   21.6270 N   0  0  0  0  0  0  0  0  0  0  0  0
  -23.7860  -31.3350   23.4510 O   0  0  0  0  0  0  0  0  0  0  0  0
  -23.0710  -28.7620   21.9600 C   0  0  0  0  0  0  0  0  0  0  0  0
  -21.7630  -28.4760   21.8470 N   0  0  0  0  0  0  0  0  0  0  0  0
  -23.8310  -28.1210   22.6920 O   0  0  0  0  0  0  0  0  0  0  0  0
  -21.2020  -29.0550   21.2390 H   0  0  0  0  0  0  0  0  0  0  0  0
  -18.5480  -26.8660   22.2060 C   0  0  0  0  0  0  0  0  0  0  0  0
  -21.0570  -27.3960   22.5360 C   0  0  0  0  0  3  0  0  0  0  0  0
  -21.3280  -26.0310   21.8600 C   0  0  0  0  0  2  0  0  0  0  0  0
  -20.2770  -25.6560   20.8100 C   0  0  0  0  0  2  0  0  0  0  0  0
  -18.8830  -25.5960   21.4410 C   0  0  0  0  0  2  0  0  0  0  0  0
  -19.5670  -27.7170   22.7080 C   0  0  0  0  0  0  0  0  0  0  0  0
  -19.2000  -28.9010   23.3840 C   0  0  0  0  0  3  0  0  0  0  0  0
  -17.8440  -29.2380   23.5600 C   0  0  0  0  0  3  0  0  0  0  0  0
  -16.8390  -28.3850   23.0730 C   0  0  0  0  0  3  0  0  0  0  0  0
  -17.1920  -27.1990   22.4030 C   0  0  0  0  0  3  0  0  0  0  0  0
  -26.1320  -31.8220   23.4300 C   0  0  0  0  0  3  0  0  0  0  0  0
  -25.7680  -33.1390   23.9700 N   0  0  0  0  0  0  0  0  0  0  0  0
  -26.0470  -34.3060   23.3740 C   0  0  0  0  0  0  0  0  0  0  0  0
  -26.7080  -34.3890   22.3350 O   0  0  0  0  0  0  0  0  0  0  0  0
  -25.1760  -33.1440   24.7870 H   0  0  0  0  0  0  0  0  0  0  0  0
  -24.2440  -36.0590   23.2980 C   0  0  0  0  0  1  0  0  0  0  0  0
  -25.5050  -35.5870   24.0380 C   0  0  0  0  0  3  0  0  0  0  0  0
  -27.6060  -36.4220   24.9980 C   0  0  0  0  0  1  0  0  0  0  0  0
  -26.4940  -36.6860   24.0900 N   0  0  0  0  0  0  0  0  0  0  0  0
  -26.0500  -37.5560   24.3740 H   0  0  0  0  0  0  0  0  0  0  0  0
  -26.7930  -30.9230   24.5470 C   0  0  1  0  0  0  0  0  0  0  0  0
  -25.8050  -30.4750   25.6490 C   0  0  0  0  0  1  0  0  0  0  0  0
  -27.4170  -29.6500   23.9280 C   0  0  0  0  0  1  0  0  0  0  0  0
  -27.9480  -31.6970   25.2250 C   0  0  0  0  0  1  0  0  0  0  0  0
  1  3  1  0
  2  1  2  0
  3 10  1  0
  4 49  1  0
  4  6  1  0
  5  2  1  0
  5  4  2  0
  6  3  2  0
  6  9  1  0
  7  2  1  0
  8  5  1  0
 10 19  1  0
 11 19  1  0
 12 17  1  0
 13 14  1  0
 13 12  1  0
 15 14  1  0
 15 24  1  0
 15 16  1  0
 17 11  1  0
 17 16  1  0
 18 11  2  0
 19 20  1  0
 21 22  2  0
 22 41  1  0
 23 26  1  0
 23 22  1  0
 24 25  1  0
 24 21  1  0
 25 23  2  0
 26 27  1  0
 27 28  2  0
 29 28  1  0
 30 29  2  0
 31 30  1  0
 31 26  2  0
 32 29  1  0
 32 33  1  0
 33 34  1  0
 34 35  2  0
 36 35  1  0
 36 40  1  0
 37 36  2  0
 38 33  2  0
 38 37  1  0
 39 38  1  0
 41 42  1  0
 42 45  1  0
 42 44  1  0
 43 41  2  0
 46 47  1  0
 46 21  1  0
 48 46  1  0
 50 52  1  0
 50 53  1  0
 50 49  1  0
 51 50  1  0
 54 55  1  0
 54 53  1  0
 55 57  1  0
 56 67  2  0
 57 62  1  0
 58 66  1  0
 58 68  1  0
 59 65  1  0
 59 61  1  0
 60 66  1  0
 61 60  1  0
 62 61  2  0
 63 64  1  0
 63 57  2  0
 64 59  2  0
 65 58  1  0
 66 56  1  0
 68 70  2  0
 69 68  1  0
 71 69  1  0
 72 81  2  0
 72 77  1  0
 73 69  1  0
 73 77  1  0
 74 73  1  0
 75 76  1  0
 75 74  1  0
 76 72  1  0
 77 78  2  0
 78 79  1  0
 80 79  2  0
 81 80  1  0
 82 56  1  0
 82 83  1  0
 82 92  1  0
 83 86  1  0
 84 83  1  0
 84 88  1  0
 85 84  2  0
 88 87  1  0
 88 90  1  0
 90 91  1  0
 90 89  1  0
 92 95  1  1
 92 93  1  0
 94 92  1  0
M  ISO  4  11 100  19 100  54 101  55 101
M  END
>  <TORSDO>  (56) 
F 21

>  <SCORE>  (56) 
-9.858

>  <name>  (56) 
55

>  <ligand_id>  (56) 
55

>  <original_smiles>  (56) 
[H]c1c([H])c([H])c2c(c1[H])C([H])([H])C([H])([H])C([H])([H])C2([H])N([H])C(=O)C1([H])N(C(=O)C([H])(N([H])C(=O)C([H])(N([H])C([H])([H])[H])C([H])([H])[H])C(C([H])([H])[H])(C([H])([H])[H])C([H])([H])[H])C([H])([H])c2c([H])c(OC([H])([H])C([H])([H])[N+]([H])([H])C([H])([H])c3c(Cl)c(C([H])([H])[H])c([H])c(C([H])([H])N([H])C(=O)N4C([H])([H])C([H])([H])C([H])([H])C([H])(n5nc(-c6c([H])c([H])c(Oc7c([H])c([H])c(F)c([H])c7F)c([H])c6[H])c(C(=O)N([H])[H])c5N([H])[H])C4([H])[H])c3Cl)c([H])c([H])c2C1([H])[H]

>  <smiles>  (56) 
[H]c1c([H])c([H])c2c(c1[H])C([H])([H])C([H])([H])C([H])([H])C2([H])N([H])C(=O)C1([H])N(C(=O)C([H])(N([H])C(=O)C([H])(N([H])C([H])([H])[H])C([H])([H])[H])C(C([H])([H])[H])(C([H])([H])[H])C([H])([H])[H])C([H])([H])c2c([H])c(OC([H])([H])C([H])([H])[N+]([H])([H])C([H])([H])c3c(Cl)c(C([H])([H])[H])c([H])c(C([H])([H])N([H])C(=O)N4C([H])([H])C([H])([H])C([H])([H])C([H])(n5nc(-c6c([H])c([H])c(Oc7c([H])c([H])c(F)c([H])c7F)c([H])c6[H])c(C(=O)N([H])[H])c5N([H])[H])C4([H])[H])c3Cl)c([H])c([H])c2C1([H])[H]

$$$$
56:0:0
     RDKit          3D

 96104  0  0  1  0  0  0  0  0999 V2000
  -30.1360  -19.8970   21.4890 C   0  0  0  0  0  0  0  0  0  0  0  0
  -29.9480  -18.5290   20.9680 C   0  0  0  0  0  0  0  0  0  0  0  0
  -29.2970  -20.7770   20.7980 C   0  0  0  0  0  0  0  0  0  0  0  0
  -29.0950  -18.7310   19.9170 C   0  0  0  0  0  0  0  0  0  0  0  0
  -27.7200  -20.5680   18.8310 C   0  0  0  0  0  1  0  0  0  0  0  0
  -28.6690  -20.0430   19.8050 N   0  0  0  0  0  0  0  0  0  0  0  0
  -28.5840  -17.5450   18.7700 Cl  0  0  0  0  0  0  0  0  0  0  0  0
  -32.1200  -19.4090   23.1310 C   0  0  0  0  0  1  0  0  0  0  0  0
  -30.3750  -21.1490   23.7330 C   0  0  0  0  0  1  0  0  0  0  0  0
  -31.0930  -20.4080   22.5820 C   0  0  0  0  0  3  0  0  0  0  0  0
  -30.5940  -17.1580   21.4150 C   0  0  0  0  0  2  0  0  0  0  0  0
  -30.6590  -14.7550   20.4440 C   0  0  0  0  0  0  0  0  0  0  0  0
  -30.3700  -12.5690   19.2760 C   0  0  0  0  0  2  0  0  0  0  0  0
  -29.4160  -12.6800   18.0680 C   0  0  0  0  0  2  0  0  0  0  0  0
  -27.9550  -12.5040   18.5200 C   0  0  0  0  0  2  0  0  0  0  0  0
  -27.6030  -13.3550   19.7670 C   0  0  0  0  0  3  0  0  0  0  0  0
  -28.6740  -13.2220   20.8780 C   0  0  0  0  0  2  0  0  0  0  0  0
  -29.9710  -13.5740   20.2850 N   0  0  0  0  0  0  0  0  0  0  0  0
  -31.7950  -14.8840   19.9800 O   0  0  0  0  0  0  0  0  0  0  0  0
  -30.0180  -15.8160   21.0300 N   0  0  0  0  0  0  0  0  0  0  0  0
  -29.0850  -15.6320   21.3690 H   0  0  0  0  0  0  0  0  0  0  0  0
  -25.1970  -13.9260   20.4690 C   0  0  0  0  0  0  0  0  0  0  0  0
  -24.1430  -13.1500   20.8430 C   0  0  0  0  0  0  0  0  0  0  0  0
  -24.6190  -11.8020   20.8260 C   0  0  0  0  0  0  0  0  0  0  0  0
  -26.2570  -13.0600   20.2520 N   0  0  0  0  0  0  0  0  0  0  0  0
  -25.9130  -11.7750   20.5270 N   0  0  0  0  0  0  0  0  0  0  0  0
  -23.9040  -10.5350   21.0180 C   0  0  0  0  0  0  0  0  0  0  0  0
  -24.3490   -9.5720   21.9510 C   0  0  0  0  0  3  0  0  0  0  0  0
  -23.6320   -8.3690   22.1350 C   0  0  0  0  0  3  0  0  0  0  0  0
  -22.4590   -8.1230   21.3840 C   0  0  0  0  0  0  0  0  0  0  0  0
  -22.0340   -9.0750   20.4400 C   0  0  0  0  0  3  0  0  0  0  0  0
  -22.7510  -10.2670   20.2560 C   0  0  0  0  0  3  0  0  0  0  0  0
  -21.7120   -6.9730   21.4770 O   0  0  0  0  0  0  0  0  0  0  0  0
  -21.6710   -6.2290   22.6290 C   0  0  0  0  0  0  0  0  0  0  0  0
  -21.2230   -6.7780   23.8500 C   0  0  0  0  0  3  0  0  0  0  0  0
  -21.1270   -5.9620   24.9950 C   0  0  0  0  0  3  0  0  0  0  0  0
  -21.4720   -4.5990   24.9210 C   0  0  0  0  0  0  0  0  0  0  0  0
  -21.9140   -4.0510   23.7040 C   0  0  0  0  0  3  0  0  0  0  0  0
  -22.0100   -4.8620   22.5610 C   0  0  0  0  0  0  0  0  0  0  0  0
  -22.4150   -4.3220   21.3860 F   0  0  0  0  0  0  0  0  0  0  0  0
  -21.3740   -3.8160   26.0200 F   0  0  0  0  0  0  0  0  0  0  0  0
  -22.7450  -13.6180   21.1200 C   0  0  0  0  0  0  0  0  0  0  0  0
  -22.0330  -12.9170   21.9880 N   0  0  0  0  0  0  0  0  0  0  0  0
  -22.2970  -14.6470   20.6160 O   0  0  0  0  0  0  0  0  0  0  0  0
  -22.4150  -12.0910   22.4260 H   0  0  0  0  0  0  0  0  0  0  0  0
  -21.0910  -13.2120   22.2090 H   0  0  0  0  0  0  0  0  0  0  0  0
  -25.3400  -15.2990   20.2820 N   0  0  0  0  0  0  0  0  0  0  0  0
  -24.5690  -15.9410   20.4290 H   0  0  0  0  0  0  0  0  0  0  0  0
  -26.1780  -15.7540   19.9430 H   0  0  0  0  0  0  0  0  0  0  0  0
  -28.9560  -22.2820   20.9580 C   0  0  0  0  0  2  0  0  0  0  0  0
  -29.9890  -23.2700   20.5380 N   0  0  0  0  0  4  0  0  0  0  0  0
  -30.2040  -23.1270   19.5620 H   0  0  0  0  0  0  0  0  0  0  0  0
  -30.8260  -23.0530   21.0520 H   0  0  0  0  0  0  0  0  0  0  0  0
  -29.6870  -24.7290   20.7850 C   0  0  0  0  0  2  0  0  0  0  0  0
  -28.5400  -25.4020   19.9470 C   0  0  0  0  0  2  0  0  0  0  0  0
  -28.4480  -26.8280   20.2310 O   0  0  0  0  0  0  0  0  0  0  0  0
  -24.5670  -31.9560   23.2860 C   0  0  0  0  0  0  0  0  0  0  0  0
  -27.2380  -27.5150   20.1880 C   0  0  0  0  0  0  0  0  0  0  0  0
  -23.3540  -30.5500   21.6440 C   0  0  0  0  0  3  0  0  0  0  0  0
  -24.8090  -29.0210   20.1990 C   0  0  0  0  0  0  0  0  0  0  0  0
  -25.8730  -30.9200   21.4330 C   0  0  0  0  0  2  0  0  0  0  0  0
  -25.9660  -29.5490   20.7850 C   0  0  0  0  0  0  0  0  0  0  0  0
  -27.1750  -28.8100   20.7670 C   0  0  0  0  0  3  0  0  0  0  0  0
  -26.0580  -27.0080   19.5900 C   0  0  0  0  0  3  0  0  0  0  0  0
  -24.8580  -27.7540   19.5890 C   0  0  0  0  0  3  0  0  0  0  0  0
  -23.5570  -29.8710   20.2620 C   0  0  0  0  0  2  0  0  0  0  0  0
  -24.6140  -31.1570   22.1780 N   0  0  0  0  0  0  0  0  0  0  0  0
  -23.4890  -32.2190   23.8380 O   0  0  0  0  0  0  0  0  0  0  0  0
  -22.7100  -29.5270   22.6080 C   0  0  0  0  0  0  0  0  0  0  0  0
  -21.3890  -29.3200   22.4670 N   0  0  0  0  0  0  0  0  0  0  0  0
  -23.3920  -28.9240   23.4390 O   0  0  0  0  0  0  0  0  0  0  0  0
  -20.9030  -29.8580   21.7640 H   0  0  0  0  0  0  0  0  0  0  0  0
  -18.0350  -28.0500   22.9120 C   0  0  0  0  0  0  0  0  0  0  0  0
  -20.5790  -28.3760   23.2370 C   0  0  0  0  0  3  0  0  0  0  0  0
  -20.7270  -26.9380   22.6840 C   0  0  0  0  0  2  0  0  0  0  0  0
  -19.6500  -26.5770   21.6520 C   0  0  0  0  0  2  0  0  0  0  0  0
  -18.2540  -26.6980   22.2600 C   0  0  0  0  0  2  0  0  0  0  0  0
  -19.1260  -28.8470   23.3530 C   0  0  0  0  0  0  0  0  0  0  0  0
  -18.8620  -30.1110   23.9210 C   0  0  0  0  0  3  0  0  0  0  0  0
  -17.5420  -30.5800   24.0550 C   0  0  0  0  0  3  0  0  0  0  0  0
  -16.4670  -29.7780   23.6390 C   0  0  0  0  0  3  0  0  0  0  0  0
  -16.7110  -28.5170   23.0670 C   0  0  0  0  0  3  0  0  0  0  0  0
  -25.8540  -32.5830   23.9040 C   0  0  0  0  0  3  0  0  0  0  0  0
  -25.5570  -33.9840   24.2260 N   0  0  0  0  0  0  0  0  0  0  0  0
  -25.9010  -35.0320   23.4610 C   0  0  0  0  0  0  0  0  0  0  0  0
  -26.5660  -34.9170   22.4280 O   0  0  0  0  0  0  0  0  0  0  0  0
  -24.9590  -34.1500   25.0220 H   0  0  0  0  0  0  0  0  0  0  0  0
  -24.1830  -36.8320   23.0810 C   0  0  0  0  0  1  0  0  0  0  0  0
  -25.4180  -36.4240   23.9040 C   0  0  0  0  0  3  0  0  0  0  0  0
  -27.5500  -37.3000   24.7450 C   0  0  0  0  0  1  0  0  0  0  0  0
  -26.4590  -37.4690   23.7910 N   0  0  0  0  0  0  0  0  0  0  0  0
  -26.0620  -38.3950   23.9220 H   0  0  0  0  0  0  0  0  0  0  0  0
  -26.3720  -31.8160   25.1830 C   0  0  1  0  0  0  0  0  0  0  0  0
  -25.2810  -31.5870   26.2540 C   0  0  0  0  0  1  0  0  0  0  0  0
  -26.9500  -30.4360   24.7940 C   0  0  0  0  0  1  0  0  0  0  0  0
  -27.5290  -32.6110   25.8340 C   0  0  0  0  0  1  0  0  0  0  0  0
  1 10  1  0
  2 11  1  0
  2  1  1  0
  3 50  1  0
  3  1  2  0
  4  2  2  0
  5  6  1  0
  6  4  1  0
  6  3  1  0
  7  4  1  0
 10  8  1  0
 10  9  1  0
 12 20  1  0
 13 18  1  0
 14 15  1  0
 14 13  1  0
 16 15  1  0
 16 25  1  0
 16 17  1  0
 18 12  1  0
 18 17  1  0
 19 12  2  0
 20 21  1  0
 20 11  1  0
 22 23  2  0
 23 42  1  0
 24 23  1  0
 24 27  1  0
 25 22  1  0
 25 26  1  0
 26 24  2  0
 27 28  1  0
 28 29  2  0
 30 33  1  0
 30 29  1  0
 31 30  2  0
 32 31  1  0
 32 27  2  0
 33 34  1  0
 34 35  1  0
 35 36  2  0
 37 36  1  0
 37 41  1  0
 38 37  2  0
 39 34  2  0
 39 38  1  0
 40 39  1  0
 42 43  1  0
 43 46  1  0
 43 45  1  0
 44 42  2  0
 47 48  1  0
 47 22  1  0
 49 47  1  0
 51 54  1  0
 51 50  1  0
 51 53  1  0
 52 51  1  0
 55 56  1  0
 55 54  1  0
 57 68  2  0
 58 56  1  0
 58 63  1  0
 59 67  1  0
 59 69  1  0
 60 66  1  0
 60 62  1  0
 61 67  1  0
 62 61  1  0
 63 62  2  0
 64 58  2  0
 65 64  1  0
 65 60  2  0
 66 59  1  0
 67 57  1  0
 69 71  2  0
 70 69  1  0
 72 70  1  0
 73 82  2  0
 73 78  1  0
 74 70  1  0
 74 78  1  0
 75 74  1  0
 76 77  1  0
 76 75  1  0
 77 73  1  0
 78 79  2  0
 79 80  1  0
 81 80  2  0
 82 81  1  0
 83 57  1  0
 83 84  1  0
 83 93  1  0
 84 87  1  0
 85 89  1  0
 85 84  1  0
 86 85  2  0
 89 88  1  0
 91 89  1  0
 91 92  1  0
 91 90  1  0
 93 96  1  1
 93 94  1  0
 95 93  1  0
M  ISO  4  12 100  20 100  55 101  56 101
M  END
>  <TORSDO>  (57) 
F 22

>  <SCORE>  (57) 
-13.452

>  <name>  (57) 
56

>  <ligand_id>  (57) 
56

>  <original_smiles>  (57) 
[H]c1c([H])c([H])c2c(c1[H])C([H])([H])C([H])([H])C([H])([H])C2([H])N([H])C(=O)C1([H])N(C(=O)C([H])(N([H])C(=O)C([H])(N([H])C([H])([H])[H])C([H])([H])[H])C(C([H])([H])[H])(C([H])([H])[H])C([H])([H])[H])C([H])([H])c2c([H])c(OC([H])([H])C([H])([H])[N+]([H])([H])C([H])([H])c3c(C([H])(C([H])([H])[H])C([H])([H])[H])c(C([H])([H])N([H])C(=O)N4C([H])([H])C([H])([H])C([H])([H])C([H])(n5nc(-c6c([H])c([H])c(Oc7c([H])c([H])c(F)c([H])c7F)c([H])c6[H])c(C(=O)N([H])[H])c5N([H])[H])C4([H])[H])c(Cl)n3C([H])([H])[H])c([H])c([H])c2C1([H])[H]

>  <smiles>  (57) 
[H]c1c([H])c([H])c2c(c1[H])C([H])([H])C([H])([H])C([H])([H])C2([H])N([H])C(=O)C1([H])N(C(=O)C([H])(N([H])C(=O)C([H])(N([H])C([H])([H])[H])C([H])([H])[H])C(C([H])([H])[H])(C([H])([H])[H])C([H])([H])[H])C([H])([H])c2c([H])c(OC([H])([H])C([H])([H])[N+]([H])([H])C([H])([H])c3c(C([H])(C([H])([H])[H])C([H])([H])[H])c(C([H])([H])N([H])C(=O)N4C([H])([H])C([H])([H])C([H])([H])C([H])(n5nc(-c6c([H])c([H])c(Oc7c([H])c([H])c(F)c([H])c7F)c([H])c6[H])c(C(=O)N([H])[H])c5N([H])[H])C4([H])[H])c(Cl)n3C([H])([H])[H])c([H])c([H])c2C1([H])[H]

$$$$
57:0:0
     RDKit          3D

 94102  0  0  1  0  0  0  0  0999 V2000
  -30.4850  -18.3130   20.4470 C   0  0  0  0  0  3  0  0  0  0  0  0
  -28.1600  -19.8050   19.9590 C   0  0  0  0  0  3  0  0  0  0  0  0
  -30.5710  -19.7120   20.2360 C   0  0  0  0  0  0  0  0  0  0  0  0
  -29.2470  -17.6320   20.4030 C   0  0  0  0  0  0  0  0  0  0  0  0
  -29.4110  -20.4620   19.9000 C   0  0  0  0  0  0  0  0  0  0  0  0
  -28.0730  -18.4180   20.2350 C   0  0  0  0  0  0  0  0  0  0  0  0
  -31.9410  -20.3630   20.3110 C   0  0  0  0  0  1  0  0  0  0  0  0
  -26.5060  -17.6920   20.3230 Cl  0  0  0  0  0  0  0  0  0  0  0  0
  -29.1640  -16.0880   20.4700 C   0  0  0  0  0  2  0  0  0  0  0  0
  -30.7810  -14.2740   19.6390 C   0  0  0  0  0  0  0  0  0  0  0  0
  -30.4650  -11.9260   18.9270 C   0  0  0  0  0  2  0  0  0  0  0  0
  -29.4340  -11.8230   17.7850 C   0  0  0  0  0  2  0  0  0  0  0  0
  -28.0150  -11.6980   18.3600 C   0  0  0  0  0  2  0  0  0  0  0  0
  -27.7140  -12.7740   19.4320 C   0  0  0  0  0  3  0  0  0  0  0  0
  -28.8500  -12.8380   20.4790 C   0  0  0  0  0  2  0  0  0  0  0  0
  -30.1130  -13.0900   19.7680 N   0  0  0  0  0  0  0  0  0  0  0  0
  -31.8010  -14.3660   18.9530 O   0  0  0  0  0  0  0  0  0  0  0  0
  -30.4370  -15.3510   20.3790 N   0  0  0  0  0  0  0  0  0  0  0  0
  -31.2150  -15.9920   20.4290 H   0  0  0  0  0  0  0  0  0  0  0  0
  -25.4470  -13.4850   20.4120 C   0  0  0  0  0  0  0  0  0  0  0  0
  -24.3910  -12.7650   20.8930 C   0  0  0  0  0  0  0  0  0  0  0  0
  -24.7710  -11.3900   20.7880 C   0  0  0  0  0  0  0  0  0  0  0  0
  -26.4120  -12.5590   20.0530 N   0  0  0  0  0  0  0  0  0  0  0  0
  -26.0150  -11.2900   20.3320 N   0  0  0  0  0  0  0  0  0  0  0  0
  -24.0060  -10.1630   21.0380 C   0  0  0  0  0  0  0  0  0  0  0  0
  -24.4690   -9.1690   21.9280 C   0  0  0  0  0  3  0  0  0  0  0  0
  -23.6990   -8.0090   22.1680 C   0  0  0  0  0  3  0  0  0  0  0  0
  -22.4550   -7.8370   21.5180 C   0  0  0  0  0  0  0  0  0  0  0  0
  -22.0110   -8.8210   20.6160 C   0  0  0  0  0  3  0  0  0  0  0  0
  -22.7790   -9.9690   20.3760 C   0  0  0  0  0  3  0  0  0  0  0  0
  -21.6570   -6.7280   21.6660 O   0  0  0  0  0  0  0  0  0  0  0  0
  -21.6510   -5.9970   22.8250 C   0  0  0  0  0  0  0  0  0  0  0  0
  -21.3180   -6.5750   24.0690 C   0  0  0  0  0  3  0  0  0  0  0  0
  -21.2580   -5.7700   25.2250 C   0  0  0  0  0  3  0  0  0  0  0  0
  -21.5170   -4.3880   25.1350 C   0  0  0  0  0  0  0  0  0  0  0  0
  -21.8430   -3.8120   23.8950 C   0  0  0  0  0  3  0  0  0  0  0  0
  -21.9060   -4.6120   22.7430 C   0  0  0  0  0  0  0  0  0  0  0  0
  -22.2010   -4.0480   21.5480 F   0  0  0  0  0  0  0  0  0  0  0  0
  -21.4490   -3.6130   26.2430 F   0  0  0  0  0  0  0  0  0  0  0  0
  -23.0650  -13.3140   21.3320 C   0  0  0  0  0  0  0  0  0  0  0  0
  -22.4060  -12.6570   22.2790 N   0  0  0  0  0  0  0  0  0  0  0  0
  -22.6280  -14.3690   20.8700 O   0  0  0  0  0  0  0  0  0  0  0  0
  -22.7760  -11.8090   22.6810 H   0  0  0  0  0  0  0  0  0  0  0  0
  -21.5270  -13.0170   22.6190 H   0  0  0  0  0  0  0  0  0  0  0  0
  -25.6560  -14.8470   20.2240 N   0  0  0  0  0  0  0  0  0  0  0  0
  -24.8920  -15.5020   20.3540 H   0  0  0  0  0  0  0  0  0  0  0  0
  -26.4080  -15.2150   19.6580 H   0  0  0  0  0  0  0  0  0  0  0  0
  -29.5080  -21.8980   19.3360 C   0  0  0  0  0  2  0  0  0  0  0  0
  -28.9140  -22.9740   20.1610 N   0  0  0  0  0  4  0  0  0  0  0  0
  -29.5350  -23.1310   20.9390 H   0  0  0  0  0  0  0  0  0  0  0  0
  -28.0280  -22.6660   20.5240 H   0  0  0  0  0  0  0  0  0  0  0  0
  -28.7150  -24.2650   19.4370 C   0  0  0  0  0  2  0  0  0  0  0  0
  -28.3810  -25.4340   20.3930 C   0  0  0  0  0  2  0  0  0  0  0  0
  -28.4270  -26.7100   19.7400 O   0  0  0  0  0  0  0  0  0  0  0  0
  -24.4950  -31.6330   23.0320 C   0  0  0  0  0  0  0  0  0  0  0  0
  -27.2460  -27.4100   19.7710 C   0  0  0  0  0  0  0  0  0  0  0  0
  -23.3220  -30.2750   21.3300 C   0  0  0  0  0  3  0  0  0  0  0  0
  -24.8100  -28.8390   19.8410 C   0  0  0  0  0  0  0  0  0  0  0  0
  -25.8310  -30.7130   21.1420 C   0  0  0  0  0  2  0  0  0  0  0  0
  -25.9510  -29.3710   20.4520 C   0  0  0  0  0  0  0  0  0  0  0  0
  -27.1740  -28.6650   20.4140 C   0  0  0  0  0  3  0  0  0  0  0  0
  -26.0890  -26.8830   19.1600 C   0  0  0  0  0  3  0  0  0  0  0  0
  -24.8740  -27.5920   19.1940 C   0  0  0  0  0  3  0  0  0  0  0  0
  -23.5450  -29.6640   19.9200 C   0  0  0  0  0  2  0  0  0  0  0  0
  -24.5680  -30.8870   21.8930 N   0  0  0  0  0  0  0  0  0  0  0  0
  -23.4100  -31.8480   23.5850 O   0  0  0  0  0  0  0  0  0  0  0  0
  -22.7020  -29.1950   22.2460 C   0  0  0  0  0  0  0  0  0  0  0  0
  -21.3760  -29.0160   22.1430 N   0  0  0  0  0  0  0  0  0  0  0  0
  -23.4110  -28.5270   23.0060 O   0  0  0  0  0  0  0  0  0  0  0  0
  -20.8660  -29.6170   21.5110 H   0  0  0  0  0  0  0  0  0  0  0  0
  -18.0160  -27.8010   22.6730 C   0  0  0  0  0  0  0  0  0  0  0  0
  -20.5820  -28.0270   22.8720 C   0  0  0  0  0  3  0  0  0  0  0  0
  -20.6530  -26.6380   22.1920 C   0  0  0  0  0  2  0  0  0  0  0  0
  -19.5160  -26.3940   21.1960 C   0  0  0  0  0  2  0  0  0  0  0  0
  -18.1590  -26.5030   21.8940 C   0  0  0  0  0  2  0  0  0  0  0  0
  -19.1540  -28.5250   23.1150 C   0  0  0  0  0  0  0  0  0  0  0  0
  -18.9640  -29.7450   23.8000 C   0  0  0  0  0  3  0  0  0  0  0  0
  -17.6730  -30.2400   24.0520 C   0  0  0  0  0  3  0  0  0  0  0  0
  -16.5490  -29.5120   23.6240 C   0  0  0  0  0  3  0  0  0  0  0  0
  -16.7240  -28.2950   22.9400 C   0  0  0  0  0  3  0  0  0  0  0  0
  -25.7640  -32.2690   23.6800 C   0  0  0  0  0  3  0  0  0  0  0  0
  -25.4300  -33.6520   24.0410 N   0  0  0  0  0  0  0  0  0  0  0  0
  -25.7530  -34.7290   23.3140 C   0  0  0  0  0  0  0  0  0  0  0  0
  -26.4360  -34.6610   22.2880 O   0  0  0  0  0  0  0  0  0  0  0  0
  -24.8310  -33.7770   24.8450 H   0  0  0  0  0  0  0  0  0  0  0  0
  -23.9910  -36.4960   22.9830 C   0  0  0  0  0  1  0  0  0  0  0  0
  -25.2330  -36.0980   23.7980 C   0  0  0  0  0  3  0  0  0  0  0  0
  -27.3420  -37.0060   24.6680 C   0  0  0  0  0  1  0  0  0  0  0  0
  -26.2440  -37.1740   23.7190 N   0  0  0  0  0  0  0  0  0  0  0  0
  -25.8170  -38.0830   23.8840 H   0  0  0  0  0  0  0  0  0  0  0  0
  -26.2820  -31.4740   24.9380 C   0  0  1  0  0  0  0  0  0  0  0  0
  -25.1940  -31.2020   26.0010 C   0  0  0  0  0  1  0  0  0  0  0  0
  -26.8810  -30.1140   24.5110 C   0  0  0  0  0  1  0  0  0  0  0  0
  -27.4200  -32.2660   25.6250 C   0  0  0  0  0  1  0  0  0  0  0  0
  2  6  1  0
  3  7  1  0
  3  1  2  0
  4  1  1  0
  4  9  1  0
  5  2  2  0
  5  3  1  0
  6  8  1  0
  6  4  2  0
 10 16  1  0
 10 18  1  0
 11 16  1  0
 12 13  1  0
 12 11  1  0
 14 13  1  0
 14 23  1  0
 14 15  1  0
 16 15  1  0
 17 10  2  0
 18 19  1  0
 18  9  1  0
 20 21  2  0
 21 40  1  0
 22 21  1  0
 22 25  1  0
 23 24  1  0
 23 20  1  0
 24 22  2  0
 25 26  1  0
 26 27  2  0
 28 31  1  0
 28 27  1  0
 29 28  2  0
 30 29  1  0
 30 25  2  0
 31 32  1  0
 32 33  1  0
 33 34  2  0
 35 34  1  0
 35 39  1  0
 36 35  2  0
 37 32  2  0
 37 36  1  0
 38 37  1  0
 40 41  1  0
 41 44  1  0
 41 43  1  0
 42 40  2  0
 45 46  1  0
 45 20  1  0
 47 45  1  0
 48  5  1  0
 48 49  1  0
 49 51  1  0
 49 50  1  0
 52 49  1  0
 52 53  1  0
 54 56  1  0
 54 53  1  0
 55 66  2  0
 56 61  1  0
 57 65  1  0
 57 67  1  0
 58 64  1  0
 58 60  1  0
 59 65  1  0
 60 59  1  0
 61 60  2  0
 62 63  1  0
 62 56  2  0
 63 58  2  0
 64 57  1  0
 65 55  1  0
 67 69  2  0
 68 67  1  0
 70 68  1  0
 71 80  2  0
 71 76  1  0
 72 68  1  0
 72 76  1  0
 73 72  1  0
 74 75  1  0
 74 73  1  0
 75 71  1  0
 76 77  2  0
 77 78  1  0
 79 78  2  0
 80 79  1  0
 81 55  1  0
 81 82  1  0
 81 91  1  0
 82 85  1  0
 83 87  1  0
 83 82  1  0
 84 83  2  0
 87 86  1  0
 89 87  1  0
 89 90  1  0
 89 88  1  0
 91 94  1  1
 91 92  1  0
 93 91  1  0
M  ISO  4  10 100  18 100  53 101  54 101
M  END
>  <TORSDO>  (58) 
F 21

>  <SCORE>  (58) 
-12.806

>  <name>  (58) 
57

>  <ligand_id>  (58) 
57

>  <original_smiles>  (58) 
[H]c1c([H])c([H])c2c(c1[H])C([H])([H])C([H])([H])C([H])([H])C2([H])N([H])C(=O)C1([H])N(C(=O)C([H])(N([H])C(=O)C([H])(N([H])C([H])([H])[H])C([H])([H])[H])C(C([H])([H])[H])(C([H])([H])[H])C([H])([H])[H])C([H])([H])c2c([H])c(OC([H])([H])C([H])([H])[N+]([H])([H])C([H])([H])c3c([H])c(Cl)c(C([H])([H])N([H])C(=O)N4C([H])([H])C([H])([H])C([H])([H])C([H])(n5nc(-c6c([H])c([H])c(Oc7c([H])c([H])c(F)c([H])c7F)c([H])c6[H])c(C(=O)N([H])[H])c5N([H])[H])C4([H])[H])c([H])c3C([H])([H])[H])c([H])c([H])c2C1([H])[H]

>  <smiles>  (58) 
[H]c1c([H])c([H])c2c(c1[H])C([H])([H])C([H])([H])C([H])([H])C2([H])N([H])C(=O)C1([H])N(C(=O)C([H])(N([H])C(=O)C([H])(N([H])C([H])([H])[H])C([H])([H])[H])C(C([H])([H])[H])(C([H])([H])[H])C([H])([H])[H])C([H])([H])c2c([H])c(OC([H])([H])C([H])([H])[N+]([H])([H])C([H])([H])c3c([H])c(Cl)c(C([H])([H])N([H])C(=O)N4C([H])([H])C([H])([H])C([H])([H])C([H])(n5nc(-c6c([H])c([H])c(Oc7c([H])c([H])c(F)c([H])c7F)c([H])c6[H])c(C(=O)N([H])[H])c5N([H])[H])C4([H])[H])c([H])c3C([H])([H])[H])c([H])c([H])c2C1([H])[H]

$$$$
58:0:0
     RDKit          3D

 84 90  0  0  1  0  0  0  0  0999 V2000
  -29.9990  -19.9970   19.2600 C   0  0  0  0  0  3  0  0  0  0  0  0
  -29.6830  -18.3940   19.6870 C   0  0  0  0  0  0  0  0  0  0  0  0
  -29.1380  -21.3210   19.5460 C   0  0  0  0  0  3  0  0  0  0  0  0
  -27.0070  -20.7290   20.7900 C   0  0  0  0  0  1  0  0  0  0  0  0
  -28.5500  -18.9150   20.2810 N   0  0  0  0  0  0  0  0  0  0  0  0
  -28.2730  -20.3540   20.1870 N   0  0  0  0  0  0  0  0  0  0  0  0
  -30.3990  -16.5730   19.6430 C   0  0  0  0  0  0  0  0  0  0  0  0
  -30.6610  -13.8190   19.1010 C   0  0  0  0  0  2  0  0  0  0  0  0
  -29.8280  -13.0710   17.9950 C   0  0  0  0  0  2  0  0  0  0  0  0
  -28.4590  -12.6250   18.5170 C   0  0  0  0  0  2  0  0  0  0  0  0
  -27.8720  -13.7260   19.4190 C   0  0  0  0  0  3  0  0  0  0  0  0
  -28.8660  -14.3520   20.4450 C   0  0  0  0  0  2  0  0  0  0  0  0
  -29.9570  -15.0940   19.7150 N   0  0  0  0  0  0  0  0  0  0  0  0
  -31.6290  -16.3800   19.4340 O   0  0  0  0  0  0  0  0  0  0  0  0
  -25.5700  -14.2650   20.3000 C   0  0  0  0  0  0  0  0  0  0  0  0
  -24.5040  -13.5070   20.6910 C   0  0  0  0  0  0  0  0  0  0  0  0
  -24.9340  -12.1450   20.6120 C   0  0  0  0  0  0  0  0  0  0  0  0
  -26.5800  -13.3770   19.9970 N   0  0  0  0  0  0  0  0  0  0  0  0
  -26.2150  -12.0870   20.2440 N   0  0  0  0  0  0  0  0  0  0  0  0
  -24.1690  -10.9030   20.8050 C   0  0  0  0  0  0  0  0  0  0  0  0
  -24.5850   -9.9090   21.7200 C   0  0  0  0  0  3  0  0  0  0  0  0
  -23.8150   -8.7400   21.9080 C   0  0  0  0  0  3  0  0  0  0  0  0
  -22.6130   -8.5550   21.1850 C   0  0  0  0  0  0  0  0  0  0  0  0
  -22.2140   -9.5380   20.2610 C   0  0  0  0  0  3  0  0  0  0  0  0
  -22.9830  -10.6970   20.0700 C   0  0  0  0  0  3  0  0  0  0  0  0
  -21.8160   -7.4390   21.2820 O   0  0  0  0  0  0  0  0  0  0  0  0
  -21.7690   -6.6840   22.4270 C   0  0  0  0  0  0  0  0  0  0  0  0
  -21.3470   -7.2280   23.6600 C   0  0  0  0  0  3  0  0  0  0  0  0
  -21.2460   -6.4010   24.7960 C   0  0  0  0  0  3  0  0  0  0  0  0
  -21.5590   -5.0310   24.7020 C   0  0  0  0  0  0  0  0  0  0  0  0
  -21.9750   -4.4880   23.4740 C   0  0  0  0  0  3  0  0  0  0  0  0
  -22.0770   -5.3110   22.3390 C   0  0  0  0  0  0  0  0  0  0  0  0
  -22.4560   -4.7770   21.1540 F   0  0  0  0  0  0  0  0  0  0  0  0
  -21.4560   -4.2350   25.7910 F   0  0  0  0  0  0  0  0  0  0  0  0
  -23.1340  -14.0220   21.0160 C   0  0  0  0  0  0  0  0  0  0  0  0
  -22.4150  -13.3380   21.8970 N   0  0  0  0  0  0  0  0  0  0  0  0
  -22.7150  -15.0710   20.5260 O   0  0  0  0  0  0  0  0  0  0  0  0
  -22.7700  -12.4910   22.3150 H   0  0  0  0  0  0  0  0  0  0  0  0
  -21.4960  -13.6660   22.1590 H   0  0  0  0  0  0  0  0  0  0  0  0
  -25.7590  -15.6350   20.1440 N   0  0  0  0  0  0  0  0  0  0  0  0
  -25.0190  -16.3070   20.3160 H   0  0  0  0  0  0  0  0  0  0  0  0
  -26.6170  -16.0680   19.8280 H   0  0  0  0  0  0  0  0  0  0  0  0
  -28.6200  -23.3310   19.1230 C   0  0  0  0  0 15  0  0  0  0  0  0
  -28.5500  -25.2340   19.6250 O   0  0  0  0  0  1  0  0  0  0  0  0
  -24.6930  -31.6500   22.8710 C   0  0  0  0  0  0  0  0  0  0  0  0
  -27.5580  -26.5870   19.6120 C   0  0  0  0  0  0  0  0  0  0  0  0
  -23.6150  -30.2590   21.1610 C   0  0  0  0  0  3  0  0  0  0  0  0
  -25.1780  -28.7190   19.6730 C   0  0  0  0  0  0  0  0  0  0  0  0
  -26.2010  -30.4640   21.0930 C   0  0  0  0  0  2  0  0  0  0  0  0
  -26.3580  -29.0370   20.3520 C   0  0  0  0  0  0  0  0  0  0  0  0
  -27.5040  -28.0110   20.2850 C   0  0  0  0  0  3  0  0  0  0  0  0
  -26.3210  -26.5910   18.8790 C   0  0  0  0  0  3  0  0  0  0  0  0
  -25.2210  -27.5320   18.9120 C   0  0  0  0  0  3  0  0  0  0  0  0
  -23.9210  -29.6290   19.7640 C   0  0  0  0  0  2  0  0  0  0  0  0
  -24.8620  -30.8330   21.7620 N   0  0  0  0  0  0  0  0  0  0  0  0
  -23.5740  -31.8620   23.3760 O   0  0  0  0  0  0  0  0  0  0  0  0
  -22.9280  -29.2140   22.0870 C   0  0  0  0  0  0  0  0  0  0  0  0
  -21.5970  -29.0240   21.9810 N   0  0  0  0  0  0  0  0  0  0  0  0
  -23.6160  -28.5690   22.8820 O   0  0  0  0  0  0  0  0  0  0  0  0
  -21.0840  -29.5970   21.3260 H   0  0  0  0  0  0  0  0  0  0  0  0
  -18.2570  -27.6980   22.5870 C   0  0  0  0  0  0  0  0  0  0  0  0
  -20.8270  -28.0000   22.7040 C   0  0  0  0  0  3  0  0  0  0  0  0
  -20.9080  -26.6350   21.9810 C   0  0  0  0  0  2  0  0  0  0  0  0
  -19.7460  -26.3960   21.0100 C   0  0  0  0  0  2  0  0  0  0  0  0
  -18.4090  -26.4360   21.7550 C   0  0  0  0  0  2  0  0  0  0  0  0
  -19.3900  -28.4410   23.0200 C   0  0  0  0  0  0  0  0  0  0  0  0
  -19.1860  -29.6190   23.7720 C   0  0  0  0  0  3  0  0  0  0  0  0
  -17.8850  -30.0560   24.0870 C   0  0  0  0  0  3  0  0  0  0  0  0
  -16.7700  -29.3130   23.6650 C   0  0  0  0  0  3  0  0  0  0  0  0
  -16.9580  -28.1340   22.9220 C   0  0  0  0  0  3  0  0  0  0  0  0
  -25.8910  -32.3670   23.5680 C   0  0  0  0  0  3  0  0  0  0  0  0
  -25.4630  -33.7270   23.9700 N   0  0  0  0  0  0  0  0  0  0  0  0
  -25.7310  -34.8590   23.3040 C   0  0  0  0  0  0  0  0  0  0  0  0
  -26.4100  -34.8720   22.2750 O   0  0  0  0  0  0  0  0  0  0  0  0
  -24.8500  -33.7820   24.7700 H   0  0  0  0  0  0  0  0  0  0  0  0
  -23.8820  -36.5650   23.0980 C   0  0  0  0  0  1  0  0  0  0  0  0
  -25.1620  -36.1850   23.8600 C   0  0  0  0  0  3  0  0  0  0  0  0
  -27.2370  -37.1770   24.7290 C   0  0  0  0  0  1  0  0  0  0  0  0
  -26.1190  -37.3130   23.7990 N   0  0  0  0  0  0  0  0  0  0  0  0
  -25.6500  -38.1940   23.9950 H   0  0  0  0  0  0  0  0  0  0  0  0
  -26.4180  -31.5910   24.8400 C   0  0  1  0  0  0  0  0  0  0  0  0
  -25.3130  -31.2540   25.8710 C   0  0  0  0  0  1  0  0  0  0  0  0
  -27.0970  -30.2630   24.4440 C   0  0  0  0  0  1  0  0  0  0  0  0
  -27.4990  -32.4340   25.5580 C   0  0  0  0  0  1  0  0  0  0  0  0
  1  3  2  0
  1  2  1  0
  2  5  2  0
  3  6  1  0
  6  5  1  0
  6  4  1  0
  7  2  1  0
  7 13  1  0
  8 13  1  0
  9 10  1  0
  9  8  1  0
 11 10  1  0
 11 18  1  0
 11 12  1  0
 13 12  1  0
 14  7  2  0
 15 16  2  0
 16 35  1  0
 17 16  1  0
 17 20  1  0
 18 19  1  0
 18 15  1  0
 19 17  2  0
 20 21  1  0
 21 22  2  0
 23 26  1  0
 23 22  1  0
 24 23  2  0
 25 24  1  0
 25 20  2  0
 26 27  1  0
 27 28  1  0
 28 29  2  0
 30 29  1  0
 30 34  1  0
 31 30  2  0
 32 27  2  0
 32 31  1  0
 33 32  1  0
 35 36  1  0
 36 39  1  0
 36 38  1  0
 37 35  2  0
 40 15  1  0
 40 41  1  0
 42 40  1  0
 45 56  2  0
 46 44  1  0
 46 51  1  0
 47 55  1  0
 47 57  1  0
 48 54  1  0
 48 50  1  0
 49 55  1  0
 50 49  1  0
 51 50  2  0
 52 53  1  0
 52 46  2  0
 53 48  2  0
 54 47  1  0
 55 45  1  0
 57 59  2  0
 58 57  1  0
 60 58  1  0
 61 70  2  0
 61 66  1  0
 62 58  1  0
 62 66  1  0
 63 62  1  0
 64 65  1  0
 64 63  1  0
 65 61  1  0
 66 67  2  0
 67 68  1  0
 69 68  2  0
 70 69  1  0
 71 45  1  0
 71 72  1  0
 71 81  1  0
 72 75  1  0
 73 77  1  0
 73 72  1  0
 74 73  2  0
 77 76  1  0
 79 77  1  0
 79 80  1  0
 79 78  1  0
 81 84  1  1
 81 82  1  0
 83 81  1  0
M  ISO  4   2 100   7 100  43 101  44 101
M  END
>  <TORSDO>  (59) 
F 17

>  <SCORE>  (59) 
-14.170

>  <name>  (59) 
58

>  <ligand_id>  (59) 
58

>  <original_smiles>  (59) 
[H]c1c([H])c([H])c2c(c1[H])C([H])([H])C([H])([H])C([H])([H])C2([H])N([H])C(=O)C1([H])N(C(=O)C([H])(N([H])C(=O)C([H])(N([H])C([H])([H])[H])C([H])([H])[H])C(C([H])([H])[H])(C([H])([H])[H])C([H])([H])[H])C([H])([H])c2c([H])c(OC([H])([H])c3c([H])c(C(=O)N4C([H])([H])C([H])([H])C([H])([H])C([H])(n5nc(-c6c([H])c([H])c(Oc7c([H])c([H])c(F)c([H])c7F)c([H])c6[H])c(C(=O)N([H])[H])c5N([H])[H])C4([H])[H])nn3C([H])([H])[H])c([H])c([H])c2C1([H])[H]

>  <smiles>  (59) 
[H]c1c([H])c([H])c2c(c1[H])C([H])([H])C([H])([H])C([H])([H])C2([H])N([H])C(=O)C1([H])N(C(=O)C([H])(N([H])C(=O)C([H])(N([H])C([H])([H])[H])C([H])([H])[H])C(C([H])([H])[H])(C([H])([H])[H])C([H])([H])[H])C([H])([H])c2c([H])c(OC([H])([H])c3c([H])c(C(=O)N4C([H])([H])C([H])([H])C([H])([H])C([H])(n5nc(-c6c([H])c([H])c(Oc7c([H])c([H])c(F)c([H])c7F)c([H])c6[H])c(C(=O)N([H])[H])c5N([H])[H])C4([H])[H])nn3C([H])([H])[H])c([H])c([H])c2C1([H])[H]

$$$$
59:0:0
     RDKit          3D

 95104  0  0  1  0  0  0  0  0999 V2000
  -30.1120  -22.9130   20.8420 C   0  0  0  0  0  2  0  0  0  0  0  0
  -27.7110  -22.3980   20.4240 C   0  0  0  0  0  2  0  0  0  0  0  0
  -29.9250  -24.4140   20.3250 C   0  0  0  0  0  2  0  0  0  0  0  0
  -27.5340  -23.9670   20.6730 C   0  0  0  0  0  2  0  0  0  0  0  0
  -29.1640  -21.8230   20.2500 C   0  0  0  0  0  3  0  0  0  0  0  0
  -28.4950  -24.9430   19.8980 C   0  0  2  0  0  0  0  0  0  0  0  0
  -28.3710  -24.7680   18.3690 C   0  0  0  0  0  1  0  0  0  0  0  0
  -30.5030  -19.7830   21.4010 C   0  0  0  0  0  3  0  0  0  0  0  0
  -30.7260  -18.3840   21.6660 C   0  0  0  0  0  3  0  0  0  0  0  0
  -28.5660  -19.2340   20.1210 C   0  0  0  0  0  3  0  0  0  0  0  0
  -29.4070  -20.2720   20.6250 C   0  0  0  0  0  0  0  0  0  0  0  0
  -29.8670  -17.3610   21.1690 C   0  0  0  0  0  0  0  0  0  0  0  0
  -28.7750  -17.8280   20.3800 C   0  0  0  0  0  0  0  0  0  0  0  0
  -30.8320  -14.9080   21.4540 C   0  0  0  0  0  0  0  0  0  0  0  0
  -30.9250  -12.5420   20.6360 C   0  0  0  0  0  2  0  0  0  0  0  0
  -30.1460  -12.4640   19.3020 C   0  0  0  0  0  2  0  0  0  0  0  0
  -28.6420  -12.2400   19.5530 C   0  0  0  0  0  2  0  0  0  0  0  0
  -28.0710  -13.1890   20.6370 C   0  0  0  0  0  3  0  0  0  0  0  0
  -28.9780  -13.2300   21.8870 C   0  0  0  0  0  2  0  0  0  0  0  0
  -30.3220  -13.6270   21.4430 N   0  0  0  0  0  0  0  0  0  0  0  0
  -32.0310  -15.1050   21.2320 O   0  0  0  0  0  0  0  0  0  0  0  0
  -29.9070  -15.9300   21.5670 N   0  0  0  0  0  0  0  0  0  0  0  0
  -28.9830  -15.5420   21.6780 H   0  0  0  0  0  0  0  0  0  0  0  0
  -25.6120  -13.7280   21.1410 C   0  0  0  0  0  0  0  0  0  0  0  0
  -24.5230  -12.9270   21.3620 C   0  0  0  0  0  0  0  0  0  0  0  0
  -25.0070  -11.5830   21.3180 C   0  0  0  0  0  0  0  0  0  0  0  0
  -26.6860  -12.8690   20.9700 N   0  0  0  0  0  0  0  0  0  0  0  0
  -26.3220  -11.5720   21.1400 N   0  0  0  0  0  0  0  0  0  0  0  0
  -24.2840  -10.3060   21.3780 C   0  0  0  0  0  0  0  0  0  0  0  0
  -24.6510   -9.2900   22.2880 C   0  0  0  0  0  3  0  0  0  0  0  0
  -23.9270   -8.0800   22.3400 C   0  0  0  0  0  3  0  0  0  0  0  0
  -22.8200   -7.8770   21.4810 C   0  0  0  0  0  0  0  0  0  0  0  0
  -22.4720   -8.8830   20.5630 C   0  0  0  0  0  3  0  0  0  0  0  0
  -23.1980  -10.0850   20.5080 C   0  0  0  0  0  3  0  0  0  0  0  0
  -22.0750   -6.7240   21.4430 O   0  0  0  0  0  0  0  0  0  0  0  0
  -21.9480   -5.9120   22.5420 C   0  0  0  0  0  0  0  0  0  0  0  0
  -21.4210   -6.3880   23.7620 C   0  0  0  0  0  3  0  0  0  0  0  0
  -21.2430   -5.5050   24.8450 C   0  0  0  0  0  3  0  0  0  0  0  0
  -21.5810   -4.1450   24.7080 C   0  0  0  0  0  0  0  0  0  0  0  0
  -22.1000   -3.6670   23.4920 C   0  0  0  0  0  3  0  0  0  0  0  0
  -22.2790   -4.5490   22.4110 C   0  0  0  0  0  0  0  0  0  0  0  0
  -22.7600   -4.0790   21.2340 F   0  0  0  0  0  0  0  0  0  0  0  0
  -21.4010   -3.2940   25.7450 F   0  0  0  0  0  0  0  0  0  0  0  0
  -23.0990  -13.3780   21.5080 C   0  0  0  0  0  0  0  0  0  0  0  0
  -22.3000  -12.6420   22.2720 N   0  0  0  0  0  0  0  0  0  0  0  0
  -22.7000  -14.4160   20.9820 O   0  0  0  0  0  0  0  0  0  0  0  0
  -22.6350  -11.8010   22.7190 H   0  0  0  0  0  0  0  0  0  0  0  0
  -21.3410  -12.9240   22.4130 H   0  0  0  0  0  0  0  0  0  0  0  0
  -25.7740  -15.1080   21.0510 N   0  0  0  0  0  0  0  0  0  0  0  0
  -24.9870  -15.7440   21.1140 H   0  0  0  0  0  0  0  0  0  0  0  0
  -26.6360  -15.5720   20.7920 H   0  0  0  0  0  0  0  0  0  0  0  0
  -27.9380  -16.8420   19.9020 O   0  0  0  0  0  0  0  0  0  0  0  0
  -26.6830  -15.7910   18.1540 C   0  0  0  0  0  1  0  0  0  0  0  0
  -27.1650  -17.1210   18.7420 C   0  0  0  0  0  2  0  0  0  0  0  0
  -28.4160  -26.4360   20.1690 O   0  0  0  0  0  0  0  0  0  0  0  0
  -24.6670  -31.8760   23.1720 C   0  0  0  0  0  0  0  0  0  0  0  0
  -27.2740  -27.2770   20.0980 C   0  0  0  0  0  0  0  0  0  0  0  0
  -23.4580  -30.4690   21.5450 C   0  0  0  0  0  3  0  0  0  0  0  0
  -24.9020  -28.9170   20.1070 C   0  0  0  0  0  0  0  0  0  0  0  0
  -25.9980  -30.7860   21.3420 C   0  0  0  0  0  2  0  0  0  0  0  0
  -26.0770  -29.4030   20.6920 C   0  0  0  0  0  0  0  0  0  0  0  0
  -27.2610  -28.5960   20.6730 C   0  0  0  0  0  3  0  0  0  0  0  0
  -26.0660  -26.8570   19.4970 C   0  0  0  0  0  3  0  0  0  0  0  0
  -24.9030  -27.6520   19.5000 C   0  0  0  0  0  3  0  0  0  0  0  0
  -23.6650  -29.7920   20.1640 C   0  0  0  0  0  2  0  0  0  0  0  0
  -24.7270  -31.0640   22.0750 N   0  0  0  0  0  0  0  0  0  0  0  0
  -23.5860  -32.1500   23.7140 O   0  0  0  0  0  0  0  0  0  0  0  0
  -22.8040  -29.4540   22.5120 C   0  0  0  0  0  0  0  0  0  0  0  0
  -21.4760  -29.2800   22.4040 N   0  0  0  0  0  0  0  0  0  0  0  0
  -23.4920  -28.8260   23.3220 O   0  0  0  0  0  0  0  0  0  0  0  0
  -20.9790  -29.8380   21.7240 H   0  0  0  0  0  0  0  0  0  0  0  0
  -18.1040  -28.0820   22.9500 C   0  0  0  0  0  0  0  0  0  0  0  0
  -20.6670  -28.3410   23.1850 C   0  0  0  0  0  3  0  0  0  0  0  0
  -20.7600  -26.9100   22.6050 C   0  0  0  0  0  2  0  0  0  0  0  0
  -19.6450  -26.5890   21.6050 C   0  0  0  0  0  2  0  0  0  0  0  0
  -18.2720  -26.7340   22.2690 C   0  0  0  0  0  2  0  0  0  0  0  0
  -19.2300  -28.8430   23.3650 C   0  0  0  0  0  0  0  0  0  0  0  0
  -19.0180  -30.1040   23.9640 C   0  0  0  0  0  3  0  0  0  0  0  0
  -17.7160  -30.6040   24.1500 C   0  0  0  0  0  3  0  0  0  0  0  0
  -16.6060  -29.8410   23.7490 C   0  0  0  0  0  3  0  0  0  0  0  0
  -16.8010  -28.5800   23.1550 C   0  0  0  0  0  3  0  0  0  0  0  0
  -25.9500  -32.5170   23.7840 C   0  0  0  0  0  3  0  0  0  0  0  0
  -26.4970  -31.7330   25.0420 C   0  0  1  0  0  0  0  0  0  0  0  0
  -25.4260  -31.4720   26.1270 C   0  0  0  0  0  1  0  0  0  0  0  0
  -27.0830  -30.3650   24.6220 C   0  0  0  0  0  1  0  0  0  0  0  0
  -27.6530  -32.5270   25.6930 C   0  0  0  0  0  1  0  0  0  0  0  0
  -25.6260  -33.9050   24.1440 N   0  0  0  0  0  0  0  0  0  0  0  0
  -25.9470  -34.9790   23.4100 C   0  0  0  0  0  0  0  0  0  0  0  0
  -26.6150  -34.9050   22.3760 O   0  0  0  0  0  0  0  0  0  0  0  0
  -25.0290  -34.0360   24.9490 H   0  0  0  0  0  0  0  0  0  0  0  0
  -24.2010  -36.7650   23.1020 C   0  0  0  0  0  1  0  0  0  0  0  0
  -25.4480  -36.3530   23.9000 C   0  0  0  0  0  3  0  0  0  0  0  0
  -27.5780  -37.2380   24.7430 C   0  0  0  0  0  1  0  0  0  0  0  0
  -26.4710  -37.4190   23.8090 N   0  0  0  0  0  0  0  0  0  0  0  0
  -26.0560  -38.3300   23.9800 H   0  0  0  0  0  0  0  0  0  0  0  0
  2  4  1  0
  3  1  1  0
  5  2  1  0
  5 11  1  0
  5  1  1  0
  6  7  1  6
  6 55  1  0
  6  3  1  0
  6  4  1  0
  8  9  1  0
 10 13  2  0
 10 11  1  0
 11  8  2  0
 12 22  1  0
 12  9  2  0
 13 12  1  0
 14 22  1  0
 15 20  1  0
 16 17  1  0
 16 15  1  0
 18 17  1  0
 18 27  1  0
 18 19  1  0
 20 14  1  0
 20 19  1  0
 21 14  2  0
 22 23  1  0
 24 25  2  0
 25 44  1  0
 26 25  1  0
 26 29  1  0
 27 28  1  0
 27 24  1  0
 28 26  2  0
 29 30  1  0
 30 31  2  0
 32 31  1  0
 33 32  2  0
 34 33  1  0
 34 29  2  0
 35 32  1  0
 35 36  1  0
 36 37  1  0
 37 38  2  0
 39 38  1  0
 39 43  1  0
 40 39  2  0
 41 36  2  0
 41 40  1  0
 42 41  1  0
 44 45  1  0
 45 48  1  0
 45 47  1  0
 46 44  2  0
 49 50  1  0
 49 24  1  0
 51 49  1  0
 52 13  1  0
 53 54  1  0
 54 52  1  0
 56 67  2  0
 57 55  1  0
 57 62  1  0
 58 66  1  0
 58 68  1  0
 59 65  1  0
 59 61  1  0
 60 66  1  0
 61 60  1  0
 62 61  2  0
 63 64  1  0
 63 57  2  0
 64 59  2  0
 65 58  1  0
 66 56  1  0
 68 70  2  0
 69 68  1  0
 71 69  1  0
 72 81  2  0
 72 77  1  0
 73 69  1  0
 73 77  1  0
 74 73  1  0
 75 76  1  0
 75 74  1  0
 76 72  1  0
 77 78  2  0
 78 79  1  0
 80 79  2  0
 81 80  1  0
 82 56  1  0
 82 87  1  0
 82 83  1  0
 83 86  1  1
 83 84  1  0
 85 83  1  0
 87 90  1  0
 88 92  1  0
 88 87  1  0
 89 88  2  0
 92 91  1  0
 94 92  1  0
 94 95  1  0
 94 93  1  0
M  ISO  4   6 101  14 100  22 100  55 101
M  END
>  <TORSDO>  (60) 
F 19

>  <SCORE>  (60) 
-9.963

>  <name>  (60) 
59

>  <ligand_id>  (60) 
59

>  <original_smiles>  (60) 
[H]c1c([H])c([H])c2c(c1[H])C([H])([H])C([H])([H])C([H])([H])C2([H])N([H])C(=O)C1([H])N(C(=O)C([H])(N([H])C(=O)C([H])(N([H])C([H])([H])[H])C([H])([H])[H])C(C([H])([H])[H])(C([H])([H])[H])C([H])([H])[H])C([H])([H])c2c([H])c(OC3(C([H])([H])[H])C([H])([H])C([H])([H])C([H])(c4c([H])c([H])c(N([H])C(=O)N5C([H])([H])C([H])([H])C([H])([H])C([H])(n6nc(-c7c([H])c([H])c(Oc8c([H])c([H])c(F)c([H])c8F)c([H])c7[H])c(C(=O)N([H])[H])c6N([H])[H])C5([H])[H])c(OC([H])([H])C([H])([H])[H])c4[H])C([H])([H])C3([H])[H])c([H])c([H])c2C1([H])[H]

>  <smiles>  (60) 
[H]c1c([H])c([H])c2c(c1[H])C([H])([H])C([H])([H])C([H])([H])C2([H])N([H])C(=O)C1([H])N(C(=O)C([H])(N([H])C(=O)C([H])(N([H])C([H])([H])[H])C([H])([H])[H])C(C([H])([H])[H])(C([H])([H])[H])C([H])([H])[H])C([H])([H])c2c([H])c(OC3(C([H])([H])[H])C([H])([H])C([H])([H])C([H])(c4c([H])c([H])c(N([H])C(=O)N5C([H])([H])C([H])([H])C([H])([H])C([H])(n6nc(-c7c([H])c([H])c(Oc8c([H])c([H])c(F)c([H])c8F)c([H])c7[H])c(C(=O)N([H])[H])c6N([H])[H])C5([H])[H])c(OC([H])([H])C([H])([H])[H])c4[H])C([H])([H])C3([H])[H])c([H])c([H])c2C1([H])[H]

$$$$
60:0:0
     RDKit          3D

 91 99  0  0  1  0  0  0  0  0999 V2000
  -29.2770  -22.8540   19.5700 C   0  0  0  0  0  3  0  0  0  0  0  0
  -27.4590  -22.5710   21.6410 C   0  0  0  0  0  3  0  0  0  0  0  0
  -28.5260  -24.0300   19.9700 C   0  0  0  0  0  0  0  0  0  0  0  0
  -29.1360  -21.5440   20.1730 C   0  0  0  0  0  0  0  0  0  0  0  0
  -27.5600  -23.8250   20.9980 C   0  0  0  0  0  0  0  0  0  0  0  0
  -28.2240  -21.4530   21.2480 C   0  0  0  0  0  0  0  0  0  0  0  0
  -26.5410  -24.8820   21.3820 C   0  0  0  0  0  1  0  0  0  0  0  0
  -28.0380  -20.2910   21.9130 F   0  0  0  0  0  0  0  0  0  0  0  0
  -29.9620  -20.2780   19.6840 C   0  0  0  0  0  2  0  0  0  0  0  0
  -29.5800  -18.7680   20.1180 C   0  0  0  0  0  3  0  0  0  0  0  0
  -30.5390  -17.5570   19.6780 C   0  0  0  0  0  3  0  0  0  0  0  0
  -30.9410  -15.0040   19.9070 C   0  0  0  0  0  0  0  0  0  0  0  0
  -30.6970  -12.7190   18.9690 C   0  0  0  0  0  2  0  0  0  0  0  0
  -29.7210  -12.7980   17.7730 C   0  0  0  0  0  2  0  0  0  0  0  0
  -28.2580  -12.6610   18.2450 C   0  0  0  0  0  2  0  0  0  0  0  0
  -27.9380  -13.5450   19.4840 C   0  0  0  0  0  3  0  0  0  0  0  0
  -29.0390  -13.4600   20.5650 C   0  0  0  0  0  2  0  0  0  0  0  0
  -30.3150  -13.7850   19.9170 N   0  0  0  0  0  0  0  0  0  0  0  0
  -32.1150  -15.1080   19.5450 O   0  0  0  0  0  0  0  0  0  0  0  0
  -30.1680  -16.1330   20.0530 N   0  0  0  0  0  0  0  0  0  0  0  0
  -29.2000  -15.9670   20.2930 H   0  0  0  0  0  0  0  0  0  0  0  0
  -25.5790  -14.1380   20.3020 C   0  0  0  0  0  0  0  0  0  0  0  0
  -24.5250  -13.3640   20.7000 C   0  0  0  0  0  0  0  0  0  0  0  0
  -24.9770  -12.0090   20.6370 C   0  0  0  0  0  0  0  0  0  0  0  0
  -26.6120  -13.2600   20.0230 N   0  0  0  0  0  0  0  0  0  0  0  0
  -26.2580  -11.9730   20.2840 N   0  0  0  0  0  0  0  0  0  0  0  0
  -24.2500  -10.7510   20.8380 C   0  0  0  0  0  0  0  0  0  0  0  0
  -24.6470   -9.8180   21.8210 C   0  0  0  0  0  3  0  0  0  0  0  0
  -23.9170   -8.6240   22.0120 C   0  0  0  0  0  3  0  0  0  0  0  0
  -22.7790   -8.3520   21.2150 C   0  0  0  0  0  0  0  0  0  0  0  0
  -22.4020   -9.2740   20.2210 C   0  0  0  0  0  3  0  0  0  0  0  0
  -23.1330  -10.4590   20.0320 C   0  0  0  0  0  3  0  0  0  0  0  0
  -22.0260   -7.2070   21.3090 O   0  0  0  0  0  0  0  0  0  0  0  0
  -21.8510   -6.5580   22.5040 C   0  0  0  0  0  0  0  0  0  0  0  0
  -21.2440   -7.1880   23.6120 C   0  0  0  0  0  3  0  0  0  0  0  0
  -21.0200   -6.4620   24.7980 C   0  0  0  0  0  3  0  0  0  0  0  0
  -21.3940   -5.1070   24.8770 C   0  0  0  0  0  0  0  0  0  0  0  0
  -21.9950   -4.4760   23.7730 C   0  0  0  0  0  3  0  0  0  0  0  0
  -22.2200   -5.2000   22.5880 C   0  0  0  0  0  0  0  0  0  0  0  0
  -22.7780   -4.5810   21.5200 F   0  0  0  0  0  0  0  0  0  0  0  0
  -21.1730   -4.4080   26.0140 F   0  0  0  0  0  0  0  0  0  0  0  0
  -23.1420  -13.8460   21.0270 C   0  0  0  0  0  0  0  0  0  0  0  0
  -22.4530  -13.1540   21.9260 N   0  0  0  0  0  0  0  0  0  0  0  0
  -22.6850  -14.8710   20.5210 O   0  0  0  0  0  0  0  0  0  0  0  0
  -22.8410  -12.3280   22.3560 H   0  0  0  0  0  0  0  0  0  0  0  0
  -21.5240  -13.4530   22.1850 H   0  0  0  0  0  0  0  0  0  0  0  0
  -25.7320  -15.5120   20.1250 N   0  0  0  0  0  0  0  0  0  0  0  0
  -24.9480  -16.1440   20.2400 H   0  0  0  0  0  0  0  0  0  0  0  0
  -26.5390  -15.9630   19.7160 H   0  0  0  0  0  0  0  0  0  0  0  0
  -28.6770  -25.4020   19.1690 C   0  0  0  0  0  2  0  0  0  0  0  0
  -28.6210  -26.7550   19.8040 O   0  0  0  0  0  0  0  0  0  0  0  0
  -24.7510  -31.7990   23.1940 C   0  0  0  0  0  0  0  0  0  0  0  0
  -27.4820  -27.5820   19.7700 C   0  0  0  0  0  0  0  0  0  0  0  0
  -23.5820  -30.4830   21.4680 C   0  0  0  0  0  3  0  0  0  0  0  0
  -25.0670  -29.1130   19.9000 C   0  0  0  0  0  0  0  0  0  0  0  0
  -26.1070  -30.9120   21.2820 C   0  0  0  0  0  2  0  0  0  0  0  0
  -26.2230  -29.5940   20.5270 C   0  0  0  0  0  0  0  0  0  0  0  0
  -27.4300  -28.8380   20.4570 C   0  0  0  0  0  3  0  0  0  0  0  0
  -26.3030  -27.1730   19.1090 C   0  0  0  0  0  3  0  0  0  0  0  0
  -25.1100  -27.9130   19.1780 C   0  0  0  0  0  3  0  0  0  0  0  0
  -23.8010  -29.9320   20.0360 C   0  0  0  0  0  2  0  0  0  0  0  0
  -24.8330  -31.0790   22.0390 N   0  0  0  0  0  0  0  0  0  0  0  0
  -23.6660  -31.9910   23.7610 O   0  0  0  0  0  0  0  0  0  0  0  0
  -22.9770  -29.3610   22.3460 C   0  0  0  0  0  0  0  0  0  0  0  0
  -21.6650  -29.1210   22.2090 N   0  0  0  0  0  0  0  0  0  0  0  0
  -23.6940  -28.7170   23.1180 O   0  0  0  0  0  0  0  0  0  0  0  0
  -21.1300  -29.7160   21.5870 H   0  0  0  0  0  0  0  0  0  0  0  0
  -18.3620  -27.7150   22.6030 C   0  0  0  0  0  0  0  0  0  0  0  0
  -20.9020  -28.0860   22.9130 C   0  0  0  0  0  3  0  0  0  0  0  0
  -21.0840  -26.7080   22.2410 C   0  0  0  0  0  2  0  0  0  0  0  0
  -20.0030  -26.3870   21.2000 C   0  0  0  0  0  2  0  0  0  0  0  0
  -18.6120  -26.4250   21.8380 C   0  0  0  0  0  2  0  0  0  0  0  0
  -19.4380  -28.5010   23.0920 C   0  0  0  0  0  0  0  0  0  0  0  0
  -19.1530  -29.7110   23.7620 C   0  0  0  0  0  3  0  0  0  0  0  0
  -17.8220  -30.1360   23.9520 C   0  0  0  0  0  3  0  0  0  0  0  0
  -16.7640  -29.3410   23.4880 C   0  0  0  0  0  3  0  0  0  0  0  0
  -17.0330  -28.1330   22.8210 C   0  0  0  0  0  3  0  0  0  0  0  0
  -26.0180  -32.4350   23.8460 C   0  0  0  0  0  3  0  0  0  0  0  0
  -26.5420  -31.6310   25.0990 C   0  0  1  0  0  0  0  0  0  0  0  0
  -25.4450  -31.3250   26.1450 C   0  0  0  0  0  1  0  0  0  0  0  0
  -27.1640  -30.2820   24.6700 C   0  0  0  0  0  1  0  0  0  0  0  0
  -27.6680  -32.4260   25.8030 C   0  0  0  0  0  1  0  0  0  0  0  0
  -25.6740  -33.8130   24.2250 N   0  0  0  0  0  0  0  0  0  0  0  0
  -25.9830  -34.9030   23.5120 C   0  0  0  0  0  0  0  0  0  0  0  0
  -26.6630  -34.8590   22.4820 O   0  0  0  0  0  0  0  0  0  0  0  0
  -25.0710  -33.9210   25.0280 H   0  0  0  0  0  0  0  0  0  0  0  0
  -24.2170  -36.6680   23.2150 C   0  0  0  0  0  1  0  0  0  0  0  0
  -25.4580  -36.2590   24.0220 C   0  0  0  0  0  3  0  0  0  0  0  0
  -27.5550  -37.1630   24.9250 C   0  0  0  0  0  1  0  0  0  0  0  0
  -26.4680  -37.3380   23.9660 N   0  0  0  0  0  0  0  0  0  0  0  0
  -26.0380  -38.2430   24.1310 H   0  0  0  0  0  0  0  0  0  0  0  0
  1  3  2  0
  1  4  1  0
  3  5  1  0
  4  6  2  0
  5  7  1  0
  5  2  2  0
  6  2  1  0
  6  8  1  0
  9 10  1  0
  9  4  1  0
 11 20  1  0
 11 10  2  0
 12 18  1  0
 12 20  1  0
 13 18  1  0
 14 15  1  0
 14 13  1  0
 16 15  1  0
 16 25  1  0
 16 17  1  0
 18 17  1  0
 19 12  2  0
 20 21  1  0
 22 23  2  0
 23 42  1  0
 24 23  1  0
 24 27  1  0
 25 26  1  0
 25 22  1  0
 26 24  2  0
 27 28  1  0
 28 29  2  0
 30 33  1  0
 30 29  1  0
 31 30  2  0
 32 31  1  0
 32 27  2  0
 33 34  1  0
 34 39  2  0
 34 35  1  0
 35 36  2  0
 36 37  1  0
 37 41  1  0
 38 37  2  0
 39 38  1  0
 40 39  1  0
 42 43  1  0
 43 46  1  0
 43 45  1  0
 44 42  2  0
 47 48  1  0
 47 22  1  0
 49 47  1  0
 50 51  1  0
 50  3  1  0
 52 63  2  0
 53 51  1  0
 53 58  1  0
 54 62  1  0
 54 64  1  0
 55 61  1  0
 55 57  1  0
 56 62  1  0
 57 56  1  0
 58 57  2  0
 59 60  1  0
 59 53  2  0
 60 55  2  0
 61 54  1  0
 62 52  1  0
 64 66  2  0
 65 64  1  0
 67 65  1  0
 68 77  2  0
 68 73  1  0
 69 65  1  0
 69 73  1  0
 70 69  1  0
 71 72  1  0
 71 70  1  0
 72 68  1  0
 73 74  2  0
 74 75  1  0
 76 75  2  0
 77 76  1  0
 78 52  1  0
 78 83  1  0
 78 79  1  0
 79 82  1  1
 79 80  1  0
 81 79  1  0
 83 86  1  0
 84 88  1  0
 84 83  1  0
 85 84  2  0
 88 87  1  0
 90 88  1  0
 90 91  1  0
 90 89  1  0
M  ISO  4  12 100  20 100  50 101  51 101
M  END
>  <TORSDO>  (61) 
F 20

>  <SCORE>  (61) 
-12.205

>  <name>  (61) 
60

>  <ligand_id>  (61) 
60

>  <original_smiles>  (61) 
[H]c1c([H])c([H])c2c(c1[H])C([H])([H])C([H])([H])C([H])([H])C2([H])N([H])C(=O)C1([H])N(C(=O)C([H])(N([H])C(=O)C([H])(N([H])C([H])([H])[H])C([H])([H])[H])C(C([H])([H])[H])(C([H])([H])[H])C([H])([H])[H])C([H])([H])c2c([H])c(OC([H])([H])c3c([H])c(C([H])([H])C([H])([H])C([H])([H])N([H])C(=O)N4C([H])([H])C([H])([H])C([H])([H])C([H])(n5nc(-c6c([H])c([H])c(Oc7c([H])c([H])c(F)c([H])c7F)c([H])c6[H])c(C(=O)N([H])[H])c5N([H])[H])C4([H])[H])c(F)c([H])c3C([H])([H])[H])c([H])c([H])c2C1([H])[H]

>  <smiles>  (61) 
[H]c1c([H])c([H])c2c(c1[H])C([H])([H])C([H])([H])C([H])([H])C2([H])N([H])C(=O)C1([H])N(C(=O)C([H])(N([H])C(=O)C([H])(N([H])C([H])([H])[H])C([H])([H])[H])C(C([H])([H])[H])(C([H])([H])[H])C([H])([H])[H])C([H])([H])c2c([H])c(OC([H])([H])c3c([H])c(C([H])([H])C([H])([H])C([H])([H])N([H])C(=O)N4C([H])([H])C([H])([H])C([H])([H])C([H])(n5nc(-c6c([H])c([H])c(Oc7c([H])c([H])c(F)c([H])c7F)c([H])c6[H])c(C(=O)N([H])[H])c5N([H])[H])C4([H])[H])c(F)c([H])c3C([H])([H])[H])c([H])c([H])c2C1([H])[H]

$$$$
61:0:0
     RDKit          3D

 88 96  0  0  1  0  0  0  0  0999 V2000
  -28.5720  -20.3740   20.3560 C   0  0  0  0  0  3  0  0  0  0  0  0
  -30.8340  -19.6980   20.1770 C   0  0  0  0  0  0  0  0  0  0  0  0
  -29.5500  -19.0680   20.2930 C   0  0  0  0  0  0  0  0  0  0  0  0
  -28.8200  -21.9900   20.3500 C   0  0  0  0  0  0  0  0  0  0  0  0
  -31.0570  -21.1340   20.2710 C   0  0  0  0  0  0  0  0  0  0  0  0
  -32.0440  -18.8040   19.9090 C   0  0  0  0  0  1  0  0  0  0  0  0
  -30.1570  -22.1680   20.3410 N   0  0  0  0  0  0  0  0  0  0  0  0
  -32.6770  -21.7340   20.3460 Cl  0  0  0  0  0  0  0  0  0  0  0  0
  -30.2170  -15.8880   20.2030 C   0  0  0  0  0  0  0  0  0  0  0  0
  -30.3610  -13.3160   19.3640 C   0  0  0  0  0  2  0  0  0  0  0  0
  -29.4700  -12.8720   18.1670 C   0  0  0  0  0  2  0  0  0  0  0  0
  -28.0710  -12.4630   18.6470 C   0  0  0  0  0  2  0  0  0  0  0  0
  -27.5470  -13.4450   19.7170 C   0  0  0  0  0  3  0  0  0  0  0  0
  -28.5870  -13.8030   20.8070 C   0  0  0  0  0  2  0  0  0  0  0  0
  -29.7160  -14.4960   20.1260 N   0  0  0  0  0  0  0  0  0  0  0  0
  -31.4490  -15.7870   20.0070 O   0  0  0  0  0  0  0  0  0  0  0  0
  -29.4520  -17.2910   20.3110 N   0  0  0  0  0  0  0  0  0  0  0  0
  -28.4850  -17.0360   20.4590 H   0  0  0  0  0  0  0  0  0  0  0  0
  -25.2000  -13.9230   20.5540 C   0  0  0  0  0  0  0  0  0  0  0  0
  -24.1600  -13.1230   20.9330 C   0  0  0  0  0  0  0  0  0  0  0  0
  -24.6440  -11.7800   20.8540 C   0  0  0  0  0  0  0  0  0  0  0  0
  -26.2490  -13.0720   20.2600 N   0  0  0  0  0  0  0  0  0  0  0  0
  -25.9300  -11.7740   20.5050 N   0  0  0  0  0  0  0  0  0  0  0  0
  -23.9350  -10.5040   21.0260 C   0  0  0  0  0  0  0  0  0  0  0  0
  -24.3650   -9.5340   21.9580 C   0  0  0  0  0  3  0  0  0  0  0  0
  -23.6460   -8.3290   22.1250 C   0  0  0  0  0  3  0  0  0  0  0  0
  -22.4800   -8.0850   21.3610 C   0  0  0  0  0  0  0  0  0  0  0  0
  -22.0690   -9.0440   20.4190 C   0  0  0  0  0  3  0  0  0  0  0  0
  -22.7880  -10.2400   20.2490 C   0  0  0  0  0  3  0  0  0  0  0  0
  -21.7360   -6.9320   21.4370 O   0  0  0  0  0  0  0  0  0  0  0  0
  -21.6410   -6.2100   22.6000 C   0  0  0  0  0  0  0  0  0  0  0  0
  -21.1050   -6.7680   23.7820 C   0  0  0  0  0  3  0  0  0  0  0  0
  -20.9630   -5.9710   24.9360 C   0  0  0  0  0  3  0  0  0  0  0  0
  -21.3440   -4.6150   24.9060 C   0  0  0  0  0  0  0  0  0  0  0  0
  -21.8720   -4.0570   23.7300 C   0  0  0  0  0  3  0  0  0  0  0  0
  -22.0170   -4.8520   22.5790 C   0  0  0  0  0  0  0  0  0  0  0  0
  -22.5060   -4.3040   21.4410 F   0  0  0  0  0  0  0  0  0  0  0  0
  -21.2020   -3.8470   26.0120 F   0  0  0  0  0  0  0  0  0  0  0  0
  -22.7630  -13.5800   21.2390 C   0  0  0  0  0  0  0  0  0  0  0  0
  -22.0530  -12.8670   22.1040 N   0  0  0  0  0  0  0  0  0  0  0  0
  -22.3090  -14.6120   20.7430 O   0  0  0  0  0  0  0  0  0  0  0  0
  -22.4280  -12.0380   22.5410 H   0  0  0  0  0  0  0  0  0  0  0  0
  -21.1150  -13.1570   22.3390 H   0  0  0  0  0  0  0  0  0  0  0  0
  -25.3410  -15.2980   20.3960 N   0  0  0  0  0  0  0  0  0  0  0  0
  -24.5550  -15.9280   20.5150 H   0  0  0  0  0  0  0  0  0  0  0  0
  -26.1430  -15.7350   19.9630 H   0  0  0  0  0  0  0  0  0  0  0  0
  -27.8520  -23.6440   20.3340 C   0  0  0  0  0  2  0  0  0  0  0  0
  -28.0890  -25.4400   20.4050 O   0  0  0  0  0  0  0  0  0  0  0  0
  -24.6260  -31.8940   23.2620 C   0  0  0  0  0  0  0  0  0  0  0  0
  -27.1390  -26.7050   20.3400 C   0  0  0  0  0  0  0  0  0  0  0  0
  -23.4430  -30.4870   21.6320 C   0  0  0  0  0  3  0  0  0  0  0  0
  -24.8920  -28.8090   20.2420 C   0  0  0  0  0  0  0  0  0  0  0  0
  -26.0260  -30.6030   21.5200 C   0  0  0  0  0  2  0  0  0  0  0  0
  -26.0910  -29.1520   20.8800 C   0  0  0  0  0  0  0  0  0  0  0  0
  -27.1950  -28.1320   20.8880 C   0  0  0  0  0  3  0  0  0  0  0  0
  -25.9080  -26.6020   19.6330 C   0  0  0  0  0  3  0  0  0  0  0  0
  -24.8470  -27.5650   19.5890 C   0  0  0  0  0  3  0  0  0  0  0  0
  -23.6910  -29.7740   20.2700 C   0  0  0  0  0  2  0  0  0  0  0  0
  -24.7250  -31.0280   22.1920 N   0  0  0  0  0  0  0  0  0  0  0  0
  -23.5320  -32.2030   23.7650 O   0  0  0  0  0  0  0  0  0  0  0  0
  -22.7160  -29.5240   22.6080 C   0  0  0  0  0  0  0  0  0  0  0  0
  -21.3840  -29.3700   22.4740 N   0  0  0  0  0  0  0  0  0  0  0  0
  -23.3610  -28.9090   23.4590 O   0  0  0  0  0  0  0  0  0  0  0  0
  -20.9080  -29.9200   21.7720 H   0  0  0  0  0  0  0  0  0  0  0  0
  -17.9910  -28.1600   22.9690 C   0  0  0  0  0  0  0  0  0  0  0  0
  -20.5490  -28.4420   23.2470 C   0  0  0  0  0  3  0  0  0  0  0  0
  -20.6600  -27.0030   22.6920 C   0  0  0  0  0  2  0  0  0  0  0  0
  -19.5670  -26.6660   21.6720 C   0  0  0  0  0  2  0  0  0  0  0  0
  -18.1790  -26.8060   22.3020 C   0  0  0  0  0  2  0  0  0  0  0  0
  -19.1030  -28.9340   23.3960 C   0  0  0  0  0  0  0  0  0  0  0  0
  -18.8700  -30.1940   23.9880 C   0  0  0  0  0  3  0  0  0  0  0  0
  -17.5590  -30.6840   24.1480 C   0  0  0  0  0  3  0  0  0  0  0  0
  -16.4630  -29.9100   23.7310 C   0  0  0  0  0  3  0  0  0  0  0  0
  -16.6800  -28.6500   23.1480 C   0  0  0  0  0  3  0  0  0  0  0  0
  -25.8890  -32.5470   23.9030 C   0  0  0  0  0  3  0  0  0  0  0  0
  -25.5730  -33.9570   24.2130 N   0  0  0  0  0  0  0  0  0  0  0  0
  -25.9040  -35.0110   23.4540 C   0  0  0  0  0  0  0  0  0  0  0  0
  -26.5640  -34.8990   22.4190 O   0  0  0  0  0  0  0  0  0  0  0  0
  -24.9790  -34.1190   25.0140 H   0  0  0  0  0  0  0  0  0  0  0  0
  -24.1790  -36.8190   23.1210 C   0  0  0  0  0  1  0  0  0  0  0  0
  -25.4310  -36.4080   23.9110 C   0  0  0  0  0  3  0  0  0  0  0  0
  -27.5810  -37.3010   24.6990 C   0  0  0  0  0  1  0  0  0  0  0  0
  -26.4640  -37.4600   23.7740 N   0  0  0  0  0  0  0  0  0  0  0  0
  -26.0590  -38.3800   23.9230 H   0  0  0  0  0  0  0  0  0  0  0  0
  -26.3650  -31.8070   25.2160 C   0  0  1  0  0  0  0  0  0  0  0  0
  -25.2450  -31.6110   26.2640 C   0  0  0  0  0  1  0  0  0  0  0  0
  -26.9400  -30.4100   24.8890 C   0  0  0  0  0  1  0  0  0  0  0  0
  -27.5040  -32.6080   25.8880 C   0  0  0  0  0  1  0  0  0  0  0  0
  2  5  2  0
  2  3  1  0
  3 17  1  0
  3  1  2  0
  4  1  1  0
  5  7  1  0
  5  8  1  0
  6  2  1  0
  7  4  2  0
  9 17  1  0
 10 15  1  0
 11 12  1  0
 11 10  1  0
 13 12  1  0
 13 22  1  0
 13 14  1  0
 15  9  1  0
 15 14  1  0
 16  9  2  0
 17 18  1  0
 19 20  2  0
 20 39  1  0
 21 20  1  0
 21 24  1  0
 22 23  1  0
 22 19  1  0
 23 21  2  0
 24 25  1  0
 25 26  2  0
 27 30  1  0
 27 26  1  0
 28 27  2  0
 29 28  1  0
 29 24  2  0
 30 31  1  0
 31 32  1  0
 32 33  2  0
 34 33  1  0
 34 38  1  0
 35 34  2  0
 36 31  2  0
 36 35  1  0
 37 36  1  0
 39 40  1  0
 40 43  1  0
 40 42  1  0
 41 39  2  0
 44 45  1  0
 44 19  1  0
 46 44  1  0
 47  4  1  0
 47 48  1  0
 49 60  2  0
 50 48  1  0
 50 55  1  0
 51 59  1  0
 51 61  1  0
 52 58  1  0
 52 54  1  0
 53 59  1  0
 54 55  2  0
 54 53  1  0
 56 50  2  0
 57 56  1  0
 57 52  2  0
 58 51  1  0
 59 49  1  0
 61 63  2  0
 62 61  1  0
 64 62  1  0
 65 74  2  0
 65 70  1  0
 66 62  1  0
 66 70  1  0
 67 66  1  0
 68 69  1  0
 68 67  1  0
 69 65  1  0
 70 71  2  0
 71 72  1  0
 73 72  2  0
 74 73  1  0
 75 49  1  0
 75 76  1  0
 75 85  1  0
 76 79  1  0
 77 81  1  0
 77 76  1  0
 78 77  2  0
 81 80  1  0
 83 81  1  0
 83 84  1  0
 83 82  1  0
 85 88  1  1
 85 86  1  0
 87 85  1  0
M  ISO  4   9 100  17 100  47 101  48 101
M  END
>  <TORSDO>  (62) 
F 17

>  <SCORE>  (62) 
-16.677

>  <name>  (62) 
61

>  <ligand_id>  (62) 
61

>  <original_smiles>  (62) 
[H]c1c([H])c([H])c2c(c1[H])C([H])([H])C([H])([H])C([H])([H])C2([H])N([H])C(=O)C1([H])N(C(=O)C([H])(N([H])C(=O)C([H])(N([H])C([H])([H])[H])C([H])([H])[H])C(C([H])([H])[H])(C([H])([H])[H])C([H])([H])[H])C([H])([H])c2c([H])c(OC([H])([H])c3nc(Cl)c(C([H])([H])[H])c(N([H])C(=O)N4C([H])([H])C([H])([H])C([H])([H])C([H])(n5nc(-c6c([H])c([H])c(Oc7c([H])c([H])c(F)c([H])c7F)c([H])c6[H])c(C(=O)N([H])[H])c5N([H])[H])C4([H])[H])c3[H])c([H])c([H])c2C1([H])[H]

>  <smiles>  (62) 
[H]c1c([H])c([H])c2c(c1[H])C([H])([H])C([H])([H])C([H])([H])C2([H])N([H])C(=O)C1([H])N(C(=O)C([H])(N([H])C(=O)C([H])(N([H])C([H])([H])[H])C([H])([H])[H])C(C([H])([H])[H])(C([H])([H])[H])C([H])([H])[H])C([H])([H])c2c([H])c(OC([H])([H])c3nc(Cl)c(C([H])([H])[H])c(N([H])C(=O)N4C([H])([H])C([H])([H])C([H])([H])C([H])(n5nc(-c6c([H])c([H])c(Oc7c([H])c([H])c(F)c([H])c7F)c([H])c6[H])c(C(=O)N([H])[H])c5N([H])[H])C4([H])[H])c3[H])c([H])c([H])c2C1([H])[H]

$$$$
62:0:0
     RDKit          3D

 92101  0  0  1  0  0  0  0  0999 V2000
  -29.7070  -19.8560   21.5420 C   0  0  0  0  0  3  0  0  0  0  0  0
  -29.3360  -19.9550   19.2310 C   0  0  0  0  0  3  0  0  0  0  0  0
  -29.4650  -21.2900   21.5940 C   0  0  0  0  0  0  0  0  0  0  0  0
  -29.6870  -19.1010   20.3320 C   0  0  0  0  0  0  0  0  0  0  0  0
  -29.1450  -22.0610   20.4230 C   0  0  0  0  0  0  0  0  0  0  0  0
  -30.6020  -23.2710   22.5830 C   0  0  0  0  0  2  0  0  0  0  0  0
  -29.8810  -24.2830   21.6860 C   0  0  0  0  0  2  0  0  0  0  0  0
  -29.6860  -22.0770   22.8850 C   0  0  0  0  0  3  0  0  0  0  0  0
  -29.2370  -23.7160   20.3920 C   0  0  0  0  0  3  0  0  0  0  0  0
  -30.2130  -21.2710   24.0850 C   0  0  0  0  0  1  0  0  0  0  0  0
  -29.0850  -21.3240   19.2670 N   0  0  0  0  0  0  0  0  0  0  0  0
  -30.3690  -17.6100   20.1500 C   0  0  0  0  0  2  0  0  0  0  0  0
  -30.5700  -14.9570   20.2750 C   0  0  0  0  0  0  0  0  0  0  0  0
  -30.3600  -12.6430   19.2890 C   0  0  0  0  0  2  0  0  0  0  0  0
  -29.4050  -12.6610   18.0760 C   0  0  0  0  0  2  0  0  0  0  0  0
  -27.9430  -12.4770   18.5300 C   0  0  0  0  0  2  0  0  0  0  0  0
  -27.5790  -13.3680   19.7490 C   0  0  0  0  0  3  0  0  0  0  0  0
  -28.6610  -13.3370   20.8490 C   0  0  0  0  0  2  0  0  0  0  0  0
  -29.9300  -13.7240   20.2220 N   0  0  0  0  0  0  0  0  0  0  0  0
  -31.7600  -14.9970   19.9470 O   0  0  0  0  0  0  0  0  0  0  0  0
  -29.8570  -16.1640   20.4580 N   0  0  0  0  0  0  0  0  0  0  0  0
  -28.8790  -16.0670   20.6840 H   0  0  0  0  0  0  0  0  0  0  0  0
  -25.2170  -13.9330   20.5500 C   0  0  0  0  0  0  0  0  0  0  0  0
  -24.1610  -13.1510   20.9290 C   0  0  0  0  0  0  0  0  0  0  0  0
  -24.6260  -11.8000   20.8720 C   0  0  0  0  0  0  0  0  0  0  0  0
  -26.2540  -13.0580   20.2730 N   0  0  0  0  0  0  0  0  0  0  0  0
  -25.9100  -11.7710   20.5340 N   0  0  0  0  0  0  0  0  0  0  0  0
  -23.9030  -10.5360   21.0630 C   0  0  0  0  0  0  0  0  0  0  0  0
  -24.3400   -9.5680   21.9920 C   0  0  0  0  0  3  0  0  0  0  0  0
  -23.6160   -8.3690   22.1700 C   0  0  0  0  0  3  0  0  0  0  0  0
  -22.4410   -8.1300   21.4200 C   0  0  0  0  0  0  0  0  0  0  0  0
  -22.0250   -9.0850   20.4760 C   0  0  0  0  0  3  0  0  0  0  0  0
  -22.7490  -10.2760   20.2970 C   0  0  0  0  0  3  0  0  0  0  0  0
  -21.6880   -6.9840   21.5060 O   0  0  0  0  0  0  0  0  0  0  0  0
  -21.6210   -6.2540   22.6650 C   0  0  0  0  0  0  0  0  0  0  0  0
  -21.1360   -6.8100   23.8690 C   0  0  0  0  0  3  0  0  0  0  0  0
  -21.0200   -6.0050   25.0210 C   0  0  0  0  0  3  0  0  0  0  0  0
  -21.3740   -4.6440   24.9670 C   0  0  0  0  0  0  0  0  0  0  0  0
  -21.8510   -4.0870   23.7670 C   0  0  0  0  0  3  0  0  0  0  0  0
  -21.9710   -4.8900   22.6190 C   0  0  0  0  0  0  0  0  0  0  0  0
  -22.4130   -4.3440   21.4610 F   0  0  0  0  0  0  0  0  0  0  0  0
  -21.2560   -3.8670   26.0690 F   0  0  0  0  0  0  0  0  0  0  0  0
  -22.7710  -13.6220   21.2330 C   0  0  0  0  0  0  0  0  0  0  0  0
  -22.0580  -12.9100   22.0980 N   0  0  0  0  0  0  0  0  0  0  0  0
  -22.3260  -14.6580   20.7390 O   0  0  0  0  0  0  0  0  0  0  0  0
  -22.4380  -12.0740   22.5180 H   0  0  0  0  0  0  0  0  0  0  0  0
  -21.1220  -13.2040   22.3410 H   0  0  0  0  0  0  0  0  0  0  0  0
  -25.3740  -15.3050   20.3860 N   0  0  0  0  0  0  0  0  0  0  0  0
  -24.6030  -15.9510   20.5160 H   0  0  0  0  0  0  0  0  0  0  0  0
  -26.2030  -15.7500   20.0110 H   0  0  0  0  0  0  0  0  0  0  0  0
  -28.0410  -24.8020   20.0210 C   0  0  0  0  0  2  0  0  0  0  0  0
  -28.2460  -26.3300   20.1310 O   0  0  0  0  0  0  0  0  0  0  0  0
  -24.5740  -31.8850   23.2010 C   0  0  0  0  0  0  0  0  0  0  0  0
  -27.1520  -27.2540   20.0980 C   0  0  0  0  0  0  0  0  0  0  0  0
  -23.3590  -30.4940   21.5660 C   0  0  0  0  0  3  0  0  0  0  0  0
  -24.7990  -28.9410   20.1150 C   0  0  0  0  0  0  0  0  0  0  0  0
  -25.9050  -30.7920   21.3640 C   0  0  0  0  0  2  0  0  0  0  0  0
  -25.9800  -29.4080   20.7060 C   0  0  0  0  0  0  0  0  0  0  0  0
  -27.1580  -28.5790   20.6790 C   0  0  0  0  0  3  0  0  0  0  0  0
  -25.9420  -26.8710   19.4800 C   0  0  0  0  0  3  0  0  0  0  0  0
  -24.7890  -27.6840   19.4900 C   0  0  0  0  0  3  0  0  0  0  0  0
  -23.5660  -29.8240   20.1810 C   0  0  0  0  0  2  0  0  0  0  0  0
  -24.6330  -31.0770   22.1000 N   0  0  0  0  0  0  0  0  0  0  0  0
  -23.4930  -32.1580   23.7460 O   0  0  0  0  0  0  0  0  0  0  0  0
  -22.6990  -29.4770   22.5300 C   0  0  0  0  0  0  0  0  0  0  0  0
  -21.3710  -29.2940   22.4120 N   0  0  0  0  0  0  0  0  0  0  0  0
  -23.3830  -28.8530   23.3450 O   0  0  0  0  0  0  0  0  0  0  0  0
  -20.8780  -29.8490   21.7270 H   0  0  0  0  0  0  0  0  0  0  0  0
  -18.0020  -28.0740   22.9350 C   0  0  0  0  0  0  0  0  0  0  0  0
  -20.5630  -28.3490   23.1840 C   0  0  0  0  0  3  0  0  0  0  0  0
  -20.6670  -26.9210   22.6000 C   0  0  0  0  0  2  0  0  0  0  0  0
  -19.5570  -26.5970   21.5940 C   0  0  0  0  0  2  0  0  0  0  0  0
  -18.1800  -26.7300   22.2490 C   0  0  0  0  0  2  0  0  0  0  0  0
  -19.1200  -28.8410   23.3590 C   0  0  0  0  0  0  0  0  0  0  0  0
  -18.8970  -30.1000   23.9620 C   0  0  0  0  0  3  0  0  0  0  0  0
  -17.5910  -30.5890   24.1440 C   0  0  0  0  0  3  0  0  0  0  0  0
  -16.4880  -29.8190   23.7360 C   0  0  0  0  0  3  0  0  0  0  0  0
  -16.6950  -28.5650   23.1360 C   0  0  0  0  0  3  0  0  0  0  0  0
  -25.8570  -32.5210   23.8170 C   0  0  0  0  0  3  0  0  0  0  0  0
  -25.5450  -33.9180   24.1580 N   0  0  0  0  0  0  0  0  0  0  0  0
  -25.8650  -34.9780   23.4030 C   0  0  0  0  0  0  0  0  0  0  0  0
  -26.5190  -34.8820   22.3610 O   0  0  0  0  0  0  0  0  0  0  0  0
  -24.9590  -34.0650   24.9650 H   0  0  0  0  0  0  0  0  0  0  0  0
  -24.1350  -36.7780   23.0800 C   0  0  0  0  0  1  0  0  0  0  0  0
  -25.3830  -36.3640   23.8770 C   0  0  0  0  0  3  0  0  0  0  0  0
  -27.5200  -37.2480   24.7030 C   0  0  0  0  0  1  0  0  0  0  0  0
  -26.4140  -37.4170   23.7650 N   0  0  0  0  0  0  0  0  0  0  0  0
  -26.0090  -38.3380   23.9120 H   0  0  0  0  0  0  0  0  0  0  0  0
  -26.3810  -31.7480   25.0890 C   0  0  1  0  0  0  0  0  0  0  0  0
  -25.2960  -31.5040   26.1630 C   0  0  0  0  0  1  0  0  0  0  0  0
  -26.9670  -30.3720   24.6940 C   0  0  0  0  0  1  0  0  0  0  0  0
  -27.5350  -32.5410   25.7470 C   0  0  0  0  0  1  0  0  0  0  0  0
  1  3  1  0
  2 11  2  0
  2  4  1  0
  3  8  1  0
  4  1  2  0
  5  3  2  0
  6  8  1  0
  7  6  1  0
  8 10  1  0
  9 51  1  0
  9  5  1  0
  9  7  1  0
 11  5  1  0
 12  4  1  0
 12 21  1  0
 13 21  1  0
 14 19  1  0
 15 16  1  0
 15 14  1  0
 17 16  1  0
 17 26  1  0
 17 18  1  0
 19 13  1  0
 19 18  1  0
 20 13  2  0
 21 22  1  0
 23 24  2  0
 24 43  1  0
 25 24  1  0
 25 28  1  0
 26 27  1  0
 26 23  1  0
 27 25  2  0
 28 29  1  0
 29 30  2  0
 31 34  1  0
 31 30  1  0
 32 31  2  0
 33 32  1  0
 33 28  2  0
 34 35  1  0
 35 36  1  0
 36 37  2  0
 38 37  1  0
 38 42  1  0
 39 38  2  0
 40 35  2  0
 40 39  1  0
 41 40  1  0
 43 44  1  0
 44 47  1  0
 44 46  1  0
 45 43  2  0
 48 49  1  0
 48 23  1  0
 50 48  1  0
 51 52  1  0
 53 64  2  0
 54 52  1  0
 54 59  1  0
 55 63  1  0
 55 65  1  0
 56 62  1  0
 56 58  1  0
 57 63  1  0
 58 57  1  0
 59 58  2  0
 60 61  1  0
 60 54  2  0
 61 56  2  0
 62 55  1  0
 63 53  1  0
 65 67  2  0
 66 65  1  0
 68 66  1  0
 69 78  2  0
 69 74  1  0
 70 66  1  0
 70 74  1  0
 71 70  1  0
 72 73  1  0
 72 71  1  0
 73 69  1  0
 74 75  2  0
 75 76  1  0
 77 76  2  0
 78 77  1  0
 79 53  1  0
 79 80  1  0
 79 89  1  0
 80 83  1  0
 81 85  1  0
 81 80  1  0
 82 81  2  0
 85 84  1  0
 87 85  1  0
 87 88  1  0
 87 86  1  0
 89 92  1  1
 89 90  1  0
 91 89  1  0
M  ISO  4  13 100  21 100  51 101  52 101
M  END
>  <TORSDO>  (63) 
F 18

>  <SCORE>  (63) 
-14.581

>  <name>  (63) 
62

>  <ligand_id>  (63) 
62

>  <original_smiles>  (63) 
[H]c1nc2c(c([H])c1C([H])([H])N([H])C(=O)N1C([H])([H])C([H])([H])C([H])([H])C([H])(n3nc(-c4c([H])c([H])c(Oc5c([H])c([H])c(F)c([H])c5F)c([H])c4[H])c(C(=O)N([H])[H])c3N([H])[H])C1([H])[H])C([H])(C([H])([H])[H])C([H])([H])C([H])([H])C2([H])C([H])([H])Oc1c([H])c([H])c2c(c1[H])C([H])([H])N(C(=O)C([H])(N([H])C(=O)C([H])(N([H])C([H])([H])[H])C([H])([H])[H])C(C([H])([H])[H])(C([H])([H])[H])C([H])([H])[H])C([H])(C(=O)N([H])C1([H])c3c([H])c([H])c([H])c([H])c3C([H])([H])C([H])([H])C1([H])[H])C2([H])[H]

>  <smiles>  (63) 
[H]c1nc2c(c([H])c1C([H])([H])N([H])C(=O)N1C([H])([H])C([H])([H])C([H])([H])C([H])(n3nc(-c4c([H])c([H])c(Oc5c([H])c([H])c(F)c([H])c5F)c([H])c4[H])c(C(=O)N([H])[H])c3N([H])[H])C1([H])[H])C([H])(C([H])([H])[H])C([H])([H])C([H])([H])C2([H])C([H])([H])Oc1c([H])c([H])c2c(c1[H])C([H])([H])N(C(=O)C([H])(N([H])C(=O)C([H])(N([H])C([H])([H])[H])C([H])([H])[H])C(C([H])([H])[H])(C([H])([H])[H])C([H])([H])[H])C([H])(C(=O)N([H])C1([H])c3c([H])c([H])c([H])c([H])c3C([H])([H])C([H])([H])C1([H])[H])C2([H])[H]

$$$$
63:0:0
     RDKit          3D

 90 98  0  0  1  0  0  0  0  0999 V2000
  -29.4400  -22.0280   20.9890 C   0  0  0  0  0  3  0  0  0  0  0  0
  -29.3800  -20.6170   19.0230 C   0  0  0  0  0  3  0  0  0  0  0  0
  -29.1110  -21.9590   19.6170 C   0  0  0  0  0  0  0  0  0  0  0  0
  -29.9920  -20.9350   21.7020 C   0  0  0  0  0  0  0  0  0  0  0  0
  -29.9320  -19.4160   19.7190 C   0  0  0  0  0  0  0  0  0  0  0  0
  -30.2210  -19.6630   21.0970 C   0  0  0  0  0  0  0  0  0  0  0  0
  -30.4180  -21.1760   23.1490 C   0  0  0  0  0  1  0  0  0  0  0  0
  -30.9280  -18.4140   22.0670 Cl  0  0  0  0  0  0  0  0  0  0  0  0
  -28.6240  -23.3580   18.8690 C   0  0  0  0  0  2  0  0  0  0  0  0
  -27.8650  -24.7000   19.5930 C   0  0  0  0  0  2  0  0  0  0  0  0
  -28.0550  -26.2420   19.3300 O   0  0  0  0  0  0  0  0  0  0  0  0
  -24.5350  -31.6290   23.0080 C   0  0  0  0  0  0  0  0  0  0  0  0
  -26.9780  -27.2030   19.4550 C   0  0  0  0  0  0  0  0  0  0  0  0
  -23.2410  -30.3140   21.3750 C   0  0  0  0  0  3  0  0  0  0  0  0
  -24.6140  -28.8910   19.7300 C   0  0  0  0  0  0  0  0  0  0  0  0
  -25.7670  -30.6630   21.0350 C   0  0  0  0  0  2  0  0  0  0  0  0
  -25.8260  -29.3220   20.2790 C   0  0  0  0  0  0  0  0  0  0  0  0
  -27.0070  -28.5000   20.1180 C   0  0  0  0  0  3  0  0  0  0  0  0
  -25.7350  -26.8810   18.8730 C   0  0  0  0  0  3  0  0  0  0  0  0
  -24.5830  -27.6910   19.0010 C   0  0  0  0  0  3  0  0  0  0  0  0
  -23.3700  -29.7470   19.9340 C   0  0  0  0  0  2  0  0  0  0  0  0
  -24.5370  -30.8890   21.8580 N   0  0  0  0  0  0  0  0  0  0  0  0
  -23.4900  -31.8410   23.6410 O   0  0  0  0  0  0  0  0  0  0  0  0
  -22.6710  -29.2170   22.3130 C   0  0  0  0  0  0  0  0  0  0  0  0
  -21.3600  -28.9380   22.2080 N   0  0  0  0  0  0  0  0  0  0  0  0
  -23.4110  -28.6290   23.1050 O   0  0  0  0  0  0  0  0  0  0  0  0
  -20.8150  -29.4720   21.5450 H   0  0  0  0  0  0  0  0  0  0  0  0
  -18.1410  -27.3200   22.6070 C   0  0  0  0  0  0  0  0  0  0  0  0
  -20.6350  -27.9100   22.9610 C   0  0  0  0  0  3  0  0  0  0  0  0
  -20.9400  -26.4980   22.4120 C   0  0  0  0  0  2  0  0  0  0  0  0
  -19.9260  -26.0290   21.3630 C   0  0  0  0  0  2  0  0  0  0  0  0
  -18.5140  -25.9990   21.9550 C   0  0  0  0  0  2  0  0  0  0  0  0
  -19.1370  -28.2250   23.0650 C   0  0  0  0  0  0  0  0  0  0  0  0
  -18.7360  -29.4530   23.6340 C   0  0  0  0  0  3  0  0  0  0  0  0
  -17.3730  -29.7820   23.7480 C   0  0  0  0  0  3  0  0  0  0  0  0
  -16.3920  -28.8780   23.3070 C   0  0  0  0  0  3  0  0  0  0  0  0
  -16.7760  -27.6490   22.7430 C   0  0  0  0  0  3  0  0  0  0  0  0
  -25.8410  -32.2640   23.5710 C   0  0  0  0  0  3  0  0  0  0  0  0
  -26.4450  -31.4530   24.7830 C   0  0  1  0  0  0  0  0  0  0  0  0
  -25.4220  -31.1490   25.9040 C   0  0  0  0  0  1  0  0  0  0  0  0
  -27.0350  -30.1060   24.3100 C   0  0  0  0  0  1  0  0  0  0  0  0
  -27.6160  -32.2430   25.4100 C   0  0  0  0  0  1  0  0  0  0  0  0
  -25.5320  -33.6430   23.9860 N   0  0  0  0  0  0  0  0  0  0  0  0
  -25.8730  -34.7420   23.2990 C   0  0  0  0  0  0  0  0  0  0  0  0
  -26.5510  -34.7000   22.2690 O   0  0  0  0  0  0  0  0  0  0  0  0
  -24.9400  -33.7450   24.7960 H   0  0  0  0  0  0  0  0  0  0  0  0
  -24.1820  -36.5820   23.0180 C   0  0  0  0  0  1  0  0  0  0  0  0
  -25.3880  -36.1020   23.8400 C   0  0  0  0  0  3  0  0  0  0  0  0
  -27.5000  -36.8940   24.8090 C   0  0  0  0  0  1  0  0  0  0  0  0
  -26.4370  -37.1460   23.8410 N   0  0  0  0  0  0  0  0  0  0  0  0
  -26.0380  -38.0590   24.0430 H   0  0  0  0  0  0  0  0  0  0  0  0
  -30.3770  -17.9750   19.0010 C   0  0  0  0  0  2  0  0  0  0  0  0
  -30.9000  -15.2860   19.3090 C   0  0  0  0  0  0  0  0  0  0  0  0
  -30.8340  -12.8380   18.6450 C   0  0  0  0  0  2  0  0  0  0  0  0
  -29.8110  -12.5830   17.5130 C   0  0  0  0  0  2  0  0  0  0  0  0
  -28.3820  -12.3990   18.0650 C   0  0  0  0  0  2  0  0  0  0  0  0
  -28.0370  -13.4320   19.1720 C   0  0  0  0  0  3  0  0  0  0  0  0
  -29.1720  -13.5970   20.2020 C   0  0  0  0  0  2  0  0  0  0  0  0
  -30.3630  -14.0030   19.4480 N   0  0  0  0  0  0  0  0  0  0  0  0
  -32.0650  -15.3510   18.9040 O   0  0  0  0  0  0  0  0  0  0  0  0
  -30.1030  -16.4630   19.4230 N   0  0  0  0  0  0  0  0  0  0  0  0
  -29.1670  -16.3020   19.7670 H   0  0  0  0  0  0  0  0  0  0  0  0
  -25.7850  -14.0320   20.2290 C   0  0  0  0  0  0  0  0  0  0  0  0
  -24.7450  -13.2700   20.6900 C   0  0  0  0  0  0  0  0  0  0  0  0
  -25.1580  -11.9090   20.5360 C   0  0  0  0  0  0  0  0  0  0  0  0
  -26.7580  -13.1400   19.8150 N   0  0  0  0  0  0  0  0  0  0  0  0
  -26.3980  -11.8540   20.0660 N   0  0  0  0  0  0  0  0  0  0  0  0
  -24.4130  -10.6600   20.7500 C   0  0  0  0  0  0  0  0  0  0  0  0
  -24.7860   -9.7440   21.7610 C   0  0  0  0  0  3  0  0  0  0  0  0
  -24.0430   -8.5610   21.9650 C   0  0  0  0  0  3  0  0  0  0  0  0
  -22.9100   -8.2870   21.1610 C   0  0  0  0  0  0  0  0  0  0  0  0
  -22.5530   -9.1930   20.1450 C   0  0  0  0  0  3  0  0  0  0  0  0
  -23.2980  -10.3650   19.9390 C   0  0  0  0  0  3  0  0  0  0  0  0
  -22.1420   -7.1530   21.2700 O   0  0  0  0  0  0  0  0  0  0  0  0
  -21.8350   -6.6080   22.4890 C   0  0  0  0  0  0  0  0  0  0  0  0
  -21.1330   -7.3340   23.4770 C   0  0  0  0  0  3  0  0  0  0  0  0
  -20.7740   -6.7100   24.6890 C   0  0  0  0  0  3  0  0  0  0  0  0
  -21.1120   -5.3610   24.9140 C   0  0  0  0  0  0  0  0  0  0  0  0
  -21.8090   -4.6370   23.9300 C   0  0  0  0  0  3  0  0  0  0  0  0
  -22.1650   -5.2580   22.7230 C   0  0  0  0  0  0  0  0  0  0  0  0
  -22.8190   -4.5480   21.7680 F   0  0  0  0  0  0  0  0  0  0  0  0
  -20.7650   -4.7610   26.0770 F   0  0  0  0  0  0  0  0  0  0  0  0
  -23.4080  -13.7700   21.1490 C   0  0  0  0  0  0  0  0  0  0  0  0
  -22.7800  -13.0740   22.0890 N   0  0  0  0  0  0  0  0  0  0  0  0
  -22.9330  -14.8180   20.7120 O   0  0  0  0  0  0  0  0  0  0  0  0
  -23.1810  -12.2340   22.4770 H   0  0  0  0  0  0  0  0  0  0  0  0
  -21.8820  -13.3860   22.4270 H   0  0  0  0  0  0  0  0  0  0  0  0
  -25.9750  -15.4050   20.0950 N   0  0  0  0  0  0  0  0  0  0  0  0
  -25.2850  -16.0890   20.3790 H   0  0  0  0  0  0  0  0  0  0  0  0
  -26.7680  -15.8190   19.6260 H   0  0  0  0  0  0  0  0  0  0  0  0
  1  4  1  0
  2  3  1  0
  2  5  2  0
  3  1  2  0
  4  7  1  0
  5  6  1  0
  6  4  2  0
  6  8  1  0
  9 10  1  0
  9  3  1  0
 11 13  1  0
 11 10  1  0
 12 23  2  0
 13 18  1  0
 14 22  1  0
 14 24  1  0
 15 21  1  0
 15 17  1  0
 16 22  1  0
 17 16  1  0
 18 17  2  0
 19 20  1  0
 19 13  2  0
 20 15  2  0
 21 14  1  0
 22 12  1  0
 24 26  2  0
 25 24  1  0
 27 25  1  0
 28 37  2  0
 28 33  1  0
 29 25  1  0
 29 33  1  0
 30 29  1  0
 31 32  1  0
 31 30  1  0
 32 28  1  0
 33 34  2  0
 34 35  1  0
 36 35  2  0
 37 36  1  0
 38 12  1  0
 38 43  1  0
 38 39  1  0
 39 42  1  1
 39 40  1  0
 41 39  1  0
 43 46  1  0
 44 48  1  0
 44 43  1  0
 45 44  2  0
 48 47  1  0
 48 50  1  0
 50 51  1  0
 50 49  1  0
 52 61  1  0
 52  5  1  0
 53 61  1  0
 53 59  1  0
 54 59  1  0
 55 56  1  0
 55 54  1  0
 57 56  1  0
 57 66  1  0
 57 58  1  0
 59 58  1  0
 60 53  2  0
 61 62  1  0
 63 64  2  0
 64 83  1  0
 65 64  1  0
 65 68  1  0
 66 67  1  0
 66 63  1  0
 67 65  2  0
 68 69  1  0
 69 70  2  0
 71 74  1  0
 71 70  1  0
 72 71  2  0
 73 72  1  0
 73 68  2  0
 74 75  1  0
 75 80  2  0
 75 76  1  0
 76 77  2  0
 77 78  1  0
 78 82  1  0
 79 78  2  0
 80 79  1  0
 81 80  1  0
 83 84  1  0
 84 87  1  0
 84 86  1  0
 85 83  2  0
 88 63  1  0
 88 89  1  0
 90 88  1  0
M  ISO  4  10 101  11 101  53 100  61 100
M  END
>  <TORSDO>  (64) 
F 19

>  <SCORE>  (64) 
-13.276

>  <name>  (64) 
63

>  <ligand_id>  (64) 
63

>  <original_smiles>  (64) 
[H]c1c([H])c([H])c2c(c1[H])C([H])([H])C([H])([H])C([H])([H])C2([H])N([H])C(=O)C1([H])N(C(=O)C([H])(N([H])C(=O)C([H])(N([H])C([H])([H])[H])C([H])([H])[H])C(C([H])([H])[H])(C([H])([H])[H])C([H])([H])[H])C([H])([H])c2c([H])c(OC([H])([H])C([H])([H])c3c([H])c(C([H])([H])[H])c(Cl)c(C([H])([H])N([H])C(=O)N4C([H])([H])C([H])([H])C([H])([H])C([H])(n5nc(-c6c([H])c([H])c(Oc7c([H])c([H])c(F)c([H])c7F)c([H])c6[H])c(C(=O)N([H])[H])c5N([H])[H])C4([H])[H])c3[H])c([H])c([H])c2C1([H])[H]

>  <smiles>  (64) 
[H]c1c([H])c([H])c2c(c1[H])C([H])([H])C([H])([H])C([H])([H])C2([H])N([H])C(=O)C1([H])N(C(=O)C([H])(N([H])C(=O)C([H])(N([H])C([H])([H])[H])C([H])([H])[H])C(C([H])([H])[H])(C([H])([H])[H])C([H])([H])[H])C([H])([H])c2c([H])c(OC([H])([H])C([H])([H])c3c([H])c(C([H])([H])[H])c(Cl)c(C([H])([H])N([H])C(=O)N4C([H])([H])C([H])([H])C([H])([H])C([H])(n5nc(-c6c([H])c([H])c(Oc7c([H])c([H])c(F)c([H])c7F)c([H])c6[H])c(C(=O)N([H])[H])c5N([H])[H])C4([H])[H])c3[H])c([H])c([H])c2C1([H])[H]

$$$$
64:0:0
     RDKit          3D

 89 97  0  0  1  0  0  0  0  0999 V2000
  -29.0070  -20.4870   19.1000 C   0  0  0  0  0  3  0  0  0  0  0  0
  -29.9820  -19.1580   21.2820 C   0  0  0  0  0  3  0  0  0  0  0  0
  -29.2490  -21.4390   20.1770 C   0  0  0  0  0  0  0  0  0  0  0  0
  -29.2190  -19.0120   19.1070 C   0  0  0  0  0  0  0  0  0  0  0  0
  -29.7650  -20.6280   21.2780 C   0  0  0  0  0  0  0  0  0  0  0  0
  -29.7610  -18.2110   20.2010 C   0  0  0  0  0  0  0  0  0  0  0  0
  -28.8130  -18.2540   17.8570 C   0  0  0  0  0  1  0  0  0  0  0  0
  -30.1530  -21.3650   22.5480 C   0  0  0  0  0  1  0  0  0  0  0  0
  -30.6440  -15.4310   20.1570 C   0  0  0  0  0  0  0  0  0  0  0  0
  -30.6710  -12.9870   19.3160 C   0  0  0  0  0  2  0  0  0  0  0  0
  -29.7270  -12.7790   18.1050 C   0  0  0  0  0  2  0  0  0  0  0  0
  -28.2860  -12.4990   18.5720 C   0  0  0  0  0  2  0  0  0  0  0  0
  -27.8460  -13.4580   19.7070 C   0  0  0  0  0  3  0  0  0  0  0  0
  -28.9150  -13.6040   20.8120 C   0  0  0  0  0  2  0  0  0  0  0  0
  -30.1320  -14.1090   20.1600 N   0  0  0  0  0  0  0  0  0  0  0  0
  -31.8460  -15.5050   19.8630 O   0  0  0  0  0  0  0  0  0  0  0  0
  -29.7840  -16.6100   20.3190 N   0  0  0  0  0  0  0  0  0  0  0  0
  -28.8680  -16.2720   20.5670 H   0  0  0  0  0  0  0  0  0  0  0  0
  -25.4950  -13.9900   20.5470 C   0  0  0  0  0  0  0  0  0  0  0  0
  -24.4470  -13.1980   20.9270 C   0  0  0  0  0  0  0  0  0  0  0  0
  -24.9150  -11.8510   20.8360 C   0  0  0  0  0  0  0  0  0  0  0  0
  -26.5320  -13.1260   20.2420 N   0  0  0  0  0  0  0  0  0  0  0  0
  -26.1970  -11.8310   20.4830 N   0  0  0  0  0  0  0  0  0  0  0  0
  -24.1970  -10.5810   21.0080 C   0  0  0  0  0  0  0  0  0  0  0  0
  -24.6190   -9.6130   21.9450 C   0  0  0  0  0  3  0  0  0  0  0  0
  -23.8970   -8.4090   22.1060 C   0  0  0  0  0  3  0  0  0  0  0  0
  -22.7410   -8.1650   21.3270 C   0  0  0  0  0  0  0  0  0  0  0  0
  -22.3380   -9.1230   20.3790 C   0  0  0  0  0  3  0  0  0  0  0  0
  -23.0600  -10.3170   20.2180 C   0  0  0  0  0  3  0  0  0  0  0  0
  -21.9930   -7.0150   21.3950 O   0  0  0  0  0  0  0  0  0  0  0  0
  -21.8490   -6.3190   22.5690 C   0  0  0  0  0  0  0  0  0  0  0  0
  -21.2550   -6.9010   23.7100 C   0  0  0  0  0  3  0  0  0  0  0  0
  -21.0620   -6.1290   24.8740 C   0  0  0  0  0  3  0  0  0  0  0  0
  -21.4530   -4.7760   24.8940 C   0  0  0  0  0  0  0  0  0  0  0  0
  -22.0380   -4.1940   23.7560 C   0  0  0  0  0  3  0  0  0  0  0  0
  -22.2320   -4.9630   22.5960 C   0  0  0  0  0  0  0  0  0  0  0  0
  -22.7780   -4.3920   21.4950 F   0  0  0  0  0  0  0  0  0  0  0  0
  -21.2610   -4.0330   26.0100 F   0  0  0  0  0  0  0  0  0  0  0  0
  -23.0580  -13.6630   21.2530 C   0  0  0  0  0  0  0  0  0  0  0  0
  -22.3620  -12.9490   22.1290 N   0  0  0  0  0  0  0  0  0  0  0  0
  -22.6010  -14.6960   20.7660 O   0  0  0  0  0  0  0  0  0  0  0  0
  -22.7460  -12.1140   22.5480 H   0  0  0  0  0  0  0  0  0  0  0  0
  -21.4310  -13.2440   22.3870 H   0  0  0  0  0  0  0  0  0  0  0  0
  -25.6440  -15.3660   20.4080 N   0  0  0  0  0  0  0  0  0  0  0  0
  -24.8690  -16.0030   20.5530 H   0  0  0  0  0  0  0  0  0  0  0  0
  -26.4590  -15.8190   20.0160 H   0  0  0  0  0  0  0  0  0  0  0  0
  -29.2690  -23.1770   20.0780 C   0  0  0  0  0  3  0  0  0  0  0  0
  -28.1140  -24.5190   20.0730 C   0  0  0  0  0  3  0  0  0  0  0  0
  -28.3340  -26.1330   20.1500 O   0  0  0  0  0  0  0  0  0  0  0  0
  -24.6830  -31.9170   23.2610 C   0  0  0  0  0  0  0  0  0  0  0  0
  -27.2930  -27.1850   20.1230 C   0  0  0  0  0  0  0  0  0  0  0  0
  -23.5070  -30.5630   21.5740 C   0  0  0  0  0  3  0  0  0  0  0  0
  -24.9740  -29.0150   20.1160 C   0  0  0  0  0  0  0  0  0  0  0  0
  -26.0700  -30.8080   21.4470 C   0  0  0  0  0  2  0  0  0  0  0  0
  -26.1530  -29.4220   20.7520 C   0  0  0  0  0  0  0  0  0  0  0  0
  -27.3100  -28.5280   20.7290 C   0  0  0  0  0  3  0  0  0  0  0  0
  -26.0800  -26.9140   19.4510 C   0  0  0  0  0  3  0  0  0  0  0  0
  -24.9590  -27.7800   19.4480 C   0  0  0  0  0  3  0  0  0  0  0  0
  -23.7470  -29.9220   20.1810 C   0  0  0  0  0  2  0  0  0  0  0  0
  -24.7740  -31.1200   22.1490 N   0  0  0  0  0  0  0  0  0  0  0  0
  -23.5900  -32.1860   23.7830 O   0  0  0  0  0  0  0  0  0  0  0  0
  -22.8140  -29.5340   22.5060 C   0  0  0  0  0  0  0  0  0  0  0  0
  -21.4880  -29.3580   22.3580 N   0  0  0  0  0  0  0  0  0  0  0  0
  -23.4760  -28.8960   23.3270 O   0  0  0  0  0  0  0  0  0  0  0  0
  -21.0070  -29.9240   21.6730 H   0  0  0  0  0  0  0  0  0  0  0  0
  -18.1070  -28.1260   22.8100 C   0  0  0  0  0  0  0  0  0  0  0  0
  -20.6650  -28.3950   23.0950 C   0  0  0  0  0  3  0  0  0  0  0  0
  -20.7750  -26.9820   22.4760 C   0  0  0  0  0  2  0  0  0  0  0  0
  -19.6790  -26.6860   21.4470 C   0  0  0  0  0  2  0  0  0  0  0  0
  -18.2940  -26.8010   22.0880 C   0  0  0  0  0  2  0  0  0  0  0  0
  -19.2200  -28.8810   23.2690 C   0  0  0  0  0  0  0  0  0  0  0  0
  -18.9880  -30.1190   23.9050 C   0  0  0  0  0  3  0  0  0  0  0  0
  -17.6790  -30.6040   24.0870 C   0  0  0  0  0  3  0  0  0  0  0  0
  -16.5820  -29.8450   23.6430 C   0  0  0  0  0  3  0  0  0  0  0  0
  -16.7970  -28.6090   23.0100 C   0  0  0  0  0  3  0  0  0  0  0  0
  -25.9490  -32.5460   23.9210 C   0  0  0  0  0  3  0  0  0  0  0  0
  -25.6360  -33.9450   24.2570 N   0  0  0  0  0  0  0  0  0  0  0  0
  -25.9350  -35.0040   23.4920 C   0  0  0  0  0  0  0  0  0  0  0  0
  -26.5660  -34.9040   22.4370 O   0  0  0  0  0  0  0  0  0  0  0  0
  -25.0690  -34.0950   25.0790 H   0  0  0  0  0  0  0  0  0  0  0  0
  -24.1610  -36.7740   23.2460 C   0  0  0  0  0  1  0  0  0  0  0  0
  -25.4610  -36.3900   23.9710 C   0  0  0  0  0  3  0  0  0  0  0  0
  -27.6270  -37.3260   24.6550 C   0  0  0  0  0  1  0  0  0  0  0  0
  -26.4670  -37.4580   23.7760 N   0  0  0  0  0  0  0  0  0  0  0  0
  -26.0560  -38.3750   23.9310 H   0  0  0  0  0  0  0  0  0  0  0  0
  -26.4250  -31.7690   25.2120 C   0  0  1  0  0  0  0  0  0  0  0  0
  -25.3010  -31.5360   26.2490 C   0  0  0  0  0  1  0  0  0  0  0  0
  -27.0100  -30.3880   24.8400 C   0  0  0  0  0  1  0  0  0  0  0  0
  -27.5610  -32.5550   25.9060 C   0  0  0  0  0  1  0  0  0  0  0  0
  1  4  2  0
  1  3  1  0
  3  5  2  0
  4  6  1  0
  5  2  1  0
  5  8  1  0
  6 17  1  0
  6  2  2  0
  7  4  1  0
  9 15  1  0
  9 17  1  0
 10 15  1  0
 11 12  1  0
 11 10  1  0
 13 12  1  0
 13 22  1  0
 13 14  1  0
 15 14  1  0
 16  9  2  0
 17 18  1  0
 19 20  2  0
 20 39  1  0
 21 20  1  0
 21 24  1  0
 22 23  1  0
 22 19  1  0
 23 21  2  0
 24 25  1  0
 25 26  2  0
 27 30  1  0
 27 26  1  0
 28 27  2  0
 29 28  1  0
 29 24  2  0
 30 31  1  0
 31 36  2  0
 31 32  1  0
 32 33  2  0
 33 34  1  0
 34 38  1  0
 35 34  2  0
 36 35  1  0
 37 36  1  0
 39 40  1  0
 40 43  1  0
 40 42  1  0
 41 39  2  0
 44 19  1  0
 44 45  1  0
 46 44  1  0
 47  3  1  0
 48 47  2  0
 48 49  1  0
 50 61  2  0
 51 49  1  0
 51 56  1  0
 52 60  1  0
 52 62  1  0
 53 59  1  0
 53 55  1  0
 54 60  1  0
 55 54  1  0
 56 55  2  0
 57 51  2  0
 58 57  1  0
 58 53  2  0
 59 52  1  0
 60 50  1  0
 62 64  2  0
 63 62  1  0
 65 63  1  0
 66 75  2  0
 66 71  1  0
 67 63  1  0
 67 71  1  0
 68 67  1  0
 69 70  1  0
 69 68  1  0
 70 66  1  0
 71 72  2  0
 72 73  1  0
 74 73  2  0
 75 74  1  0
 76 50  1  0
 76 77  1  0
 76 86  1  0
 77 80  1  0
 78 82  1  0
 78 77  1  0
 79 78  2  0
 82 81  1  0
 84 85  1  0
 84 82  1  0
 84 83  1  0
 86 89  1  1
 86 87  1  0
 88 86  1  0
M  ISO  4   9 100  17 100  48 101  49 101
M  END
>  <TORSDO>  (65) 
F 18

>  <SCORE>  (65) 
-15.527

>  <name>  (65) 
64

>  <ligand_id>  (65) 
64

>  <original_smiles>  (65) 
[H]c1c([H])c([H])c2c(c1[H])C([H])([H])C([H])([H])C([H])([H])C2([H])N([H])C(=O)C1([H])N(C(=O)C([H])(N([H])C(=O)C([H])(N([H])C([H])([H])[H])C([H])([H])[H])C(C([H])([H])[H])(C([H])([H])[H])C([H])([H])[H])C([H])([H])c2c([H])c(OC([H])([H])C([H])([H])c3c([H])c(C([H])([H])[H])c(N([H])C(=O)N4C([H])([H])C([H])([H])C([H])([H])C([H])(n5nc(-c6c([H])c([H])c(Oc7c([H])c([H])c(F)c([H])c7F)c([H])c6[H])c(C(=O)N([H])[H])c5N([H])[H])C4([H])[H])c([H])c3C([H])([H])[H])c([H])c([H])c2C1([H])[H]

>  <smiles>  (65) 
[H]c1c([H])c([H])c2c(c1[H])C([H])([H])C([H])([H])C([H])([H])C2([H])N([H])C(=O)C1([H])N(C(=O)C([H])(N([H])C(=O)C([H])(N([H])C([H])([H])[H])C([H])([H])[H])C(C([H])([H])[H])(C([H])([H])[H])C([H])([H])[H])C([H])([H])c2c([H])c(OC([H])([H])C([H])([H])c3c([H])c(C([H])([H])[H])c(N([H])C(=O)N4C([H])([H])C([H])([H])C([H])([H])C([H])(n5nc(-c6c([H])c([H])c(Oc7c([H])c([H])c(F)c([H])c7F)c([H])c6[H])c(C(=O)N([H])[H])c5N([H])[H])C4([H])[H])c([H])c3C([H])([H])[H])c([H])c([H])c2C1([H])[H]

$$$$
65:0:0
     RDKit          3D

 91 99  0  0  1  0  0  0  0  0999 V2000
  -29.3700  -21.2110   21.6180 C   0  0  0  0  0  3  0  0  0  0  0  0
  -29.6630  -19.7990   21.4900 C   0  0  0  0  0  3  0  0  0  0  0  0
  -29.0040  -22.0940   20.5400 C   0  0  0  0  0  0  0  0  0  0  0  0
  -29.6440  -19.0950   20.2490 C   0  0  0  0  0  0  0  0  0  0  0  0
  -28.9150  -21.3740   19.3040 C   0  0  0  0  0  0  0  0  0  0  0  0
  -29.2270  -19.9550   19.1690 C   0  0  0  0  0  0  0  0  0  0  0  0
  -28.5780  -22.0630   18.1870 F   0  0  0  0  0  0  0  0  0  0  0  0
  -29.1820  -19.4200   17.9260 F   0  0  0  0  0  0  0  0  0  0  0  0
  -28.8750  -23.6820   20.7990 C   0  0  0  0  0  0  0  0  0  0  0  0
  -29.3840  -24.1170   21.8380 O   0  0  0  0  0  0  0  0  0  0  0  0
  -28.1200  -24.8300   19.9130 C   0  0  0  0  0  2  0  0  0  0  0  0
  -28.2730  -26.3230   20.3040 O   0  0  0  0  0  0  0  0  0  0  0  0
  -24.6250  -31.9530   23.2570 C   0  0  0  0  0  0  0  0  0  0  0  0
  -27.2040  -27.2750   20.2140 C   0  0  0  0  0  0  0  0  0  0  0  0
  -23.4180  -30.5540   21.6240 C   0  0  0  0  0  3  0  0  0  0  0  0
  -24.8640  -28.9880   20.1900 C   0  0  0  0  0  0  0  0  0  0  0  0
  -25.9640  -30.8380   21.4390 C   0  0  0  0  0  2  0  0  0  0  0  0
  -26.0420  -29.4460   20.7940 C   0  0  0  0  0  0  0  0  0  0  0  0
  -27.2090  -28.6010   20.7960 C   0  0  0  0  0  3  0  0  0  0  0  0
  -26.0070  -26.9170   19.5550 C   0  0  0  0  0  3  0  0  0  0  0  0
  -24.8590  -27.7370   19.5570 C   0  0  0  0  0  3  0  0  0  0  0  0
  -23.6310  -29.8760   20.2430 C   0  0  0  0  0  2  0  0  0  0  0  0
  -24.6890  -31.1350   22.1630 N   0  0  0  0  0  0  0  0  0  0  0  0
  -23.5390  -32.2330   23.7910 O   0  0  0  0  0  0  0  0  0  0  0  0
  -22.7490  -29.5440   22.5870 C   0  0  0  0  0  0  0  0  0  0  0  0
  -21.4220  -29.3650   22.4590 N   0  0  0  0  0  0  0  0  0  0  0  0
  -23.4240  -28.9260   23.4130 O   0  0  0  0  0  0  0  0  0  0  0  0
  -20.9350  -29.9160   21.7670 H   0  0  0  0  0  0  0  0  0  0  0  0
  -18.0490  -28.1500   22.9630 C   0  0  0  0  0  0  0  0  0  0  0  0
  -20.6060  -28.4240   23.2300 C   0  0  0  0  0  3  0  0  0  0  0  0
  -20.7140  -26.9910   22.6580 C   0  0  0  0  0  2  0  0  0  0  0  0
  -19.6150  -26.6620   21.6430 C   0  0  0  0  0  2  0  0  0  0  0  0
  -18.2310  -26.8020   22.2860 C   0  0  0  0  0  2  0  0  0  0  0  0
  -19.1630  -28.9190   23.3920 C   0  0  0  0  0  0  0  0  0  0  0  0
  -18.9400  -30.1800   23.9860 C   0  0  0  0  0  3  0  0  0  0  0  0
  -17.6330  -30.6770   24.1500 C   0  0  0  0  0  3  0  0  0  0  0  0
  -16.5320  -29.9050   23.7380 C   0  0  0  0  0  3  0  0  0  0  0  0
  -16.7390  -28.6440   23.1520 C   0  0  0  0  0  3  0  0  0  0  0  0
  -25.9040  -32.5910   23.8790 C   0  0  0  0  0  3  0  0  0  0  0  0
  -26.4150  -31.8300   25.1640 C   0  0  1  0  0  0  0  0  0  0  0  0
  -25.3160  -31.5930   26.2280 C   0  0  0  0  0  1  0  0  0  0  0  0
  -27.0040  -30.4510   24.7820 C   0  0  0  0  0  1  0  0  0  0  0  0
  -27.5630  -32.6290   25.8240 C   0  0  0  0  0  1  0  0  0  0  0  0
  -25.5940  -33.9920   24.2030 N   0  0  0  0  0  0  0  0  0  0  0  0
  -25.9220  -35.0420   23.4390 C   0  0  0  0  0  0  0  0  0  0  0  0
  -26.5850  -34.9340   22.4040 O   0  0  0  0  0  0  0  0  0  0  0  0
  -25.0090  -34.1490   25.0110 H   0  0  0  0  0  0  0  0  0  0  0  0
  -24.1950  -36.8360   23.0840 C   0  0  0  0  0  1  0  0  0  0  0  0
  -25.4380  -36.4330   23.8940 C   0  0  0  0  0  3  0  0  0  0  0  0
  -27.5730  -37.3190   24.7190 C   0  0  0  0  0  1  0  0  0  0  0  0
  -26.4700  -37.4870   23.7770 N   0  0  0  0  0  0  0  0  0  0  0  0
  -26.0630  -38.4070   23.9280 H   0  0  0  0  0  0  0  0  0  0  0  0
  -30.3600  -17.6360   20.0220 C   0  0  0  0  0  2  0  0  0  0  0  0
  -30.6230  -14.9940   20.1430 C   0  0  0  0  0  0  0  0  0  0  0  0
  -30.4410  -12.6910   19.1420 C   0  0  0  0  0  2  0  0  0  0  0  0
  -29.4590  -12.6900   17.9480 C   0  0  0  0  0  2  0  0  0  0  0  0
  -28.0150  -12.4780   18.4350 C   0  0  0  0  0  2  0  0  0  0  0  0
  -27.6580  -13.3790   19.6460 C   0  0  0  0  0  3  0  0  0  0  0  0
  -28.7520  -13.3510   20.7340 C   0  0  0  0  0  2  0  0  0  0  0  0
  -30.0040  -13.7550   20.0860 N   0  0  0  0  0  0  0  0  0  0  0  0
  -31.8160  -15.0560   19.8290 O   0  0  0  0  0  0  0  0  0  0  0  0
  -29.8790  -16.1810   20.3140 N   0  0  0  0  0  0  0  0  0  0  0  0
  -28.8940  -16.0630   20.4970 H   0  0  0  0  0  0  0  0  0  0  0  0
  -25.2990  -13.9370   20.4720 C   0  0  0  0  0  0  0  0  0  0  0  0
  -24.2530  -13.1490   20.8640 C   0  0  0  0  0  0  0  0  0  0  0  0
  -24.7260  -11.8030   20.8010 C   0  0  0  0  0  0  0  0  0  0  0  0
  -26.3400  -13.0700   20.1870 N   0  0  0  0  0  0  0  0  0  0  0  0
  -26.0060  -11.7800   20.4520 N   0  0  0  0  0  0  0  0  0  0  0  0
  -24.0160  -10.5320   20.9940 C   0  0  0  0  0  0  0  0  0  0  0  0
  -24.4630   -9.5680   21.9240 C   0  0  0  0  0  3  0  0  0  0  0  0
  -23.7510   -8.3620   22.1040 C   0  0  0  0  0  3  0  0  0  0  0  0
  -22.5760   -8.1140   21.3550 C   0  0  0  0  0  0  0  0  0  0  0  0
  -22.1490   -9.0650   20.4140 C   0  0  0  0  0  3  0  0  0  0  0  0
  -22.8620  -10.2620   20.2310 C   0  0  0  0  0  3  0  0  0  0  0  0
  -21.8340   -6.9610   21.4470 O   0  0  0  0  0  0  0  0  0  0  0  0
  -21.7720   -6.2360   22.6090 C   0  0  0  0  0  0  0  0  0  0  0  0
  -21.2880   -6.7940   23.8130 C   0  0  0  0  0  3  0  0  0  0  0  0
  -21.1770   -5.9940   24.9660 C   0  0  0  0  0  3  0  0  0  0  0  0
  -21.5400   -4.6340   24.9170 C   0  0  0  0  0  0  0  0  0  0  0  0
  -22.0160   -4.0740   23.7190 C   0  0  0  0  0  3  0  0  0  0  0  0
  -22.1290   -4.8720   22.5680 C   0  0  0  0  0  0  0  0  0  0  0  0
  -22.5690   -4.3240   21.4100 F   0  0  0  0  0  0  0  0  0  0  0  0
  -21.4250   -3.8610   26.0230 F   0  0  0  0  0  0  0  0  0  0  0  0
  -22.8600  -13.6110   21.1800 C   0  0  0  0  0  0  0  0  0  0  0  0
  -22.1600  -12.8930   22.0510 N   0  0  0  0  0  0  0  0  0  0  0  0
  -22.4020  -14.6430   20.6910 O   0  0  0  0  0  0  0  0  0  0  0  0
  -22.5430  -12.0570   22.4660 H   0  0  0  0  0  0  0  0  0  0  0  0
  -21.2260  -13.1820   22.3040 H   0  0  0  0  0  0  0  0  0  0  0  0
  -25.4490  -15.3120   20.3050 N   0  0  0  0  0  0  0  0  0  0  0  0
  -24.6790  -15.9600   20.4340 H   0  0  0  0  0  0  0  0  0  0  0  0
  -26.2760  -15.7550   19.9240 H   0  0  0  0  0  0  0  0  0  0  0  0
  2  1  1  0
  3  9  1  0
  3  1  2  0
  4  2  2  0
  5  3  1  0
  6  5  2  0
  6  4  1  0
  7  5  1  0
  8  6  1  0
  9 10  2  0
 11 12  1  0
 11  9  1  0
 13 24  2  0
 14 12  1  0
 14 19  1  0
 15 23  1  0
 15 25  1  0
 16 22  1  0
 16 18  1  0
 17 23  1  0
 18 19  2  0
 18 17  1  0
 20 21  1  0
 20 14  2  0
 21 16  2  0
 22 15  1  0
 23 13  1  0
 25 27  2  0
 26 25  1  0
 28 26  1  0
 29 38  2  0
 29 34  1  0
 30 26  1  0
 30 34  1  0
 31 30  1  0
 32 33  1  0
 32 31  1  0
 33 29  1  0
 34 35  2  0
 35 36  1  0
 37 36  2  0
 38 37  1  0
 39 13  1  0
 39 44  1  0
 39 40  1  0
 40 43  1  1
 40 41  1  0
 42 40  1  0
 44 47  1  0
 45 49  1  0
 45 44  1  0
 46 45  2  0
 49 48  1  0
 51 49  1  0
 51 52  1  0
 51 50  1  0
 53  4  1  0
 53 62  1  0
 54 62  1  0
 55 60  1  0
 56 57  1  0
 56 55  1  0
 58 57  1  0
 58 67  1  0
 58 59  1  0
 60 54  1  0
 60 59  1  0
 61 54  2  0
 62 63  1  0
 64 65  2  0
 65 84  1  0
 66 65  1  0
 66 69  1  0
 67 68  1  0
 67 64  1  0
 68 66  2  0
 69 70  1  0
 70 71  2  0
 72 75  1  0
 72 71  1  0
 73 72  2  0
 74 73  1  0
 74 69  2  0
 75 76  1  0
 76 77  1  0
 77 78  2  0
 79 78  1  0
 79 83  1  0
 80 79  2  0
 81 76  2  0
 81 80  1  0
 82 81  1  0
 84 85  1  0
 85 88  1  0
 85 87  1  0
 86 84  2  0
 89 90  1  0
 89 64  1  0
 91 89  1  0
M  ISO  4  11 101  12 101  54 100  62 100
M  END
>  <TORSDO>  (66) 
F 19

>  <SCORE>  (66) 
-14.090

>  <name>  (66) 
65

>  <ligand_id>  (66) 
65

>  <original_smiles>  (66) 
[H]c1c([H])c([H])c2c(c1[H])C([H])([H])C([H])([H])C([H])([H])C2([H])N([H])C(=O)C1([H])N(C(=O)C([H])(N([H])C(=O)C([H])(N([H])C([H])([H])[H])C([H])([H])[H])C(C([H])([H])[H])(C([H])([H])[H])C([H])([H])[H])C([H])([H])c2c([H])c(OC([H])([H])C(=O)c3c([H])c([H])c(C([H])([H])N([H])C(=O)N4C([H])([H])C([H])([H])C([H])([H])C([H])(n5nc(-c6c([H])c([H])c(Oc7c([H])c([H])c(F)c([H])c7F)c([H])c6[H])c(C(=O)N([H])[H])c5N([H])[H])C4([H])[H])c(F)c3F)c([H])c([H])c2C1([H])[H]

>  <smiles>  (66) 
[H]c1c([H])c([H])c2c(c1[H])C([H])([H])C([H])([H])C([H])([H])C2([H])N([H])C(=O)C1([H])N(C(=O)C([H])(N([H])C(=O)C([H])(N([H])C([H])([H])[H])C([H])([H])[H])C(C([H])([H])[H])(C([H])([H])[H])C([H])([H])[H])C([H])([H])c2c([H])c(OC([H])([H])C(=O)c3c([H])c([H])c(C([H])([H])N([H])C(=O)N4C([H])([H])C([H])([H])C([H])([H])C([H])(n5nc(-c6c([H])c([H])c(Oc7c([H])c([H])c(F)c([H])c7F)c([H])c6[H])c(C(=O)N([H])[H])c5N([H])[H])C4([H])[H])c(F)c3F)c([H])c([H])c2C1([H])[H]

$$$$
66:0:0
     RDKit          3D

 97105  0  0  1  0  0  0  0  0999 V2000
  -30.3670  -22.8560   19.4850 C   0  0  0  0  0  3  0  0  0  0  0  0
  -28.2320  -22.4610   18.3660 C   0  0  0  0  0  3  0  0  0  0  0  0
  -29.1660  -23.3600   18.9220 C   0  0  0  0  0  0  0  0  0  0  0  0
  -30.6550  -21.4690   19.4800 C   0  0  0  0  0  0  0  0  0  0  0  0
  -28.4970  -21.0770   18.3610 C   0  0  0  0  0  0  0  0  0  0  0  0
  -29.7050  -20.5870   18.9020 C   0  0  0  0  0  0  0  0  0  0  0  0
  -27.3610  -19.9980   17.6320 Cl  0  0  0  0  0  0  0  0  0  0  0  0
  -30.0830  -18.9170   18.7200 Cl  0  0  0  0  0  0  0  0  0  0  0  0
  -28.9180  -24.8620   18.8490 C   0  0  0  0  0  2  0  0  0  0  0  0
  -28.4840  -25.4920   20.1910 C   0  0  0  0  0  2  0  0  0  0  0  0
  -28.4290  -26.9150   20.0790 O   0  0  0  0  0  0  0  0  0  0  0  0
  -24.5680  -31.9590   23.2480 C   0  0  0  0  0  0  0  0  0  0  0  0
  -27.2080  -27.5520   20.1150 C   0  0  0  0  0  0  0  0  0  0  0  0
  -23.3390  -30.5620   21.6100 C   0  0  0  0  0  3  0  0  0  0  0  0
  -24.7790  -29.0100   20.1750 C   0  0  0  0  0  0  0  0  0  0  0  0
  -25.8570  -30.9290   21.3720 C   0  0  0  0  0  2  0  0  0  0  0  0
  -25.9420  -29.5560   20.7360 C   0  0  0  0  0  0  0  0  0  0  0  0
  -27.1510  -28.8360   20.6970 C   0  0  0  0  0  3  0  0  0  0  0  0
  -26.0260  -27.0020   19.5650 C   0  0  0  0  0  3  0  0  0  0  0  0
  -24.8130  -27.7270   19.6000 C   0  0  0  0  0  3  0  0  0  0  0  0
  -23.5340  -29.8720   20.2300 C   0  0  0  0  0  2  0  0  0  0  0  0
  -24.6070  -31.1650   22.1400 N   0  0  0  0  0  0  0  0  0  0  0  0
  -23.4940  -32.2300   23.8040 O   0  0  0  0  0  0  0  0  0  0  0  0
  -22.7040  -29.5400   22.5770 C   0  0  0  0  0  0  0  0  0  0  0  0
  -21.3790  -29.3590   22.4630 N   0  0  0  0  0  0  0  0  0  0  0  0
  -23.3970  -28.9120   23.3820 O   0  0  0  0  0  0  0  0  0  0  0  0
  -20.8860  -29.9040   21.7700 H   0  0  0  0  0  0  0  0  0  0  0  0
  -18.0160  -28.1580   22.9710 C   0  0  0  0  0  0  0  0  0  0  0  0
  -20.5730  -28.4190   23.2350 C   0  0  0  0  0  3  0  0  0  0  0  0
  -20.6800  -26.9940   22.6480 C   0  0  0  0  0  2  0  0  0  0  0  0
  -19.5720  -26.6720   21.6380 C   0  0  0  0  0  2  0  0  0  0  0  0
  -18.1910  -26.8140   22.2860 C   0  0  0  0  0  2  0  0  0  0  0  0
  -19.1340  -28.9210   23.3990 C   0  0  0  0  0  0  0  0  0  0  0  0
  -18.9150  -30.1830   23.9950 C   0  0  0  0  0  3  0  0  0  0  0  0
  -17.6110  -30.6830   24.1640 C   0  0  0  0  0  3  0  0  0  0  0  0
  -16.5070  -29.9160   23.7550 C   0  0  0  0  0  3  0  0  0  0  0  0
  -16.7090  -28.6570   23.1640 C   0  0  0  0  0  3  0  0  0  0  0  0
  -25.8630  -32.5850   23.8540 C   0  0  0  0  0  3  0  0  0  0  0  0
  -25.5740  -33.9850   24.1880 N   0  0  0  0  0  0  0  0  0  0  0  0
  -25.9080  -35.0350   23.4240 C   0  0  0  0  0  0  0  0  0  0  0  0
  -26.5720  -34.9240   22.3890 O   0  0  0  0  0  0  0  0  0  0  0  0
  -24.9960  -34.1440   25.0000 H   0  0  0  0  0  0  0  0  0  0  0  0
  -24.1900  -36.8350   23.0700 C   0  0  0  0  0  1  0  0  0  0  0  0
  -25.4300  -36.4290   23.8820 C   0  0  0  0  0  3  0  0  0  0  0  0
  -27.5740  -37.2940   24.7040 C   0  0  0  0  0  1  0  0  0  0  0  0
  -26.4670  -37.4770   23.7680 N   0  0  0  0  0  0  0  0  0  0  0  0
  -26.0690  -38.3980   23.9270 H   0  0  0  0  0  0  0  0  0  0  0  0
  -26.3890  -31.8130   25.1250 C   0  0  1  0  0  0  0  0  0  0  0  0
  -25.3050  -31.5810   26.2070 C   0  0  0  0  0  1  0  0  0  0  0  0
  -26.9610  -30.4360   24.7250 C   0  0  0  0  0  1  0  0  0  0  0  0
  -27.5600  -32.5930   25.7710 C   0  0  0  0  0  1  0  0  0  0  0  0
  -32.0600  -20.9660   19.8710 C   0  0  0  0  0  2  0  0  0  0  0  0
  -32.3640  -20.6950   21.3060 N   0  0  0  0  0  4  0  0  0  0  0  0
  -32.4050  -21.5780   21.7920 H   0  0  0  0  0  0  0  0  0  0  0  0
  -33.3050  -20.3220   21.3260 H   0  0  0  0  0  0  0  0  0  0  0  0
  -31.5020  -19.7510   22.0770 C   0  0  0  0  0  2  0  0  0  0  0  0
  -32.0980  -18.3140   22.1850 C   0  0  0  0  0  2  0  0  0  0  0  0
  -31.1130  -17.1880   22.5940 C   0  0  0  0  0  2  0  0  0  0  0  0
  -30.0870  -16.8550   21.4930 C   0  0  0  0  0  2  0  0  0  0  0  0
  -30.3330  -14.5940   20.5140 C   0  0  0  0  0  0  0  0  0  0  0  0
  -30.0640  -12.5330   19.1890 C   0  0  0  0  0  2  0  0  0  0  0  0
  -29.0930  -12.7790   18.0170 C   0  0  0  0  0  2  0  0  0  0  0  0
  -27.6320  -12.5690   18.4620 C   0  0  0  0  0  2  0  0  0  0  0  0
  -27.2900  -13.3170   19.7770 C   0  0  0  0  0  3  0  0  0  0  0  0
  -28.3670  -13.0540   20.8490 C   0  0  0  0  0  2  0  0  0  0  0  0
  -29.6780  -13.4280   20.2900 N   0  0  0  0  0  0  0  0  0  0  0  0
  -31.3720  -14.9100   19.9220 O   0  0  0  0  0  0  0  0  0  0  0  0
  -29.7390  -15.4410   21.3700 N   0  0  0  0  0  0  0  0  0  0  0  0
  -28.8780  -15.1320   21.7970 H   0  0  0  0  0  0  0  0  0  0  0  0
  -24.8620  -13.7880   20.4950 C   0  0  0  0  0  0  0  0  0  0  0  0
  -23.8420  -12.9510   20.8750 C   0  0  0  0  0  0  0  0  0  0  0  0
  -24.3830  -11.6310   20.8410 C   0  0  0  0  0  0  0  0  0  0  0  0
  -25.9540  -12.9700   20.2610 N   0  0  0  0  0  0  0  0  0  0  0  0
  -25.6710  -11.6690   20.5200 N   0  0  0  0  0  0  0  0  0  0  0  0
  -23.7330  -10.3290   21.0430 C   0  0  0  0  0  0  0  0  0  0  0  0
  -24.2140   -9.4060   21.9980 C   0  0  0  0  0  3  0  0  0  0  0  0
  -23.5660   -8.1660   22.1880 C   0  0  0  0  0  3  0  0  0  0  0  0
  -22.4210   -7.8410   21.4240 C   0  0  0  0  0  0  0  0  0  0  0  0
  -21.9610   -8.7510   20.4560 C   0  0  0  0  0  3  0  0  0  0  0  0
  -22.6100   -9.9830   20.2670 C   0  0  0  0  0  3  0  0  0  0  0  0
  -21.7470   -6.6470   21.5200 O   0  0  0  0  0  0  0  0  0  0  0  0
  -21.7170   -5.9290   22.6870 C   0  0  0  0  0  0  0  0  0  0  0  0
  -21.2220   -6.4780   23.8900 C   0  0  0  0  0  3  0  0  0  0  0  0
  -21.1460   -5.6800   25.0500 C   0  0  0  0  0  3  0  0  0  0  0  0
  -21.5500   -4.3340   25.0070 C   0  0  0  0  0  0  0  0  0  0  0  0
  -22.0300   -3.7830   23.8070 C   0  0  0  0  0  3  0  0  0  0  0  0
  -22.1130   -4.5760   22.6500 C   0  0  0  0  0  0  0  0  0  0  0  0
  -22.5600   -4.0330   21.4910 F   0  0  0  0  0  0  0  0  0  0  0  0
  -21.4690   -3.5650   26.1190 F   0  0  0  0  0  0  0  0  0  0  0  0
  -22.4190  -13.3410   21.1640 C   0  0  0  0  0  0  0  0  0  0  0  0
  -21.7510  -12.6030   22.0420 N   0  0  0  0  0  0  0  0  0  0  0  0
  -21.9080  -14.3330   20.6490 O   0  0  0  0  0  0  0  0  0  0  0  0
  -22.1870  -11.8030   22.4790 H   0  0  0  0  0  0  0  0  0  0  0  0
  -20.7930  -12.8330   22.2760 H   0  0  0  0  0  0  0  0  0  0  0  0
  -24.9400  -15.1630   20.3150 N   0  0  0  0  0  0  0  0  0  0  0  0
  -24.1390  -15.7710   20.4410 H   0  0  0  0  0  0  0  0  0  0  0  0
  -25.7680  -15.6610   20.0120 H   0  0  0  0  0  0  0  0  0  0  0  0
  2  3  1  0
  3  1  2  0
  4  1  1  0
  4 52  1  0
  5  2  2  0
  5  6  1  0
  6  4  2  0
  7  5  1  0
  8  6  1  0
  9  3  1  0
  9 10  1  0
 11 13  1  0
 11 10  1  0
 12 23  2  0
 13 18  1  0
 14 22  1  0
 14 24  1  0
 15 21  1  0
 15 17  1  0
 16 22  1  0
 17 16  1  0
 18 17  2  0
 19 20  1  0
 19 13  2  0
 20 15  2  0
 21 14  1  0
 22 12  1  0
 24 26  2  0
 25 24  1  0
 27 25  1  0
 28 37  2  0
 28 33  1  0
 29 25  1  0
 29 33  1  0
 30 29  1  0
 31 32  1  0
 31 30  1  0
 32 28  1  0
 33 34  2  0
 34 35  1  0
 36 35  2  0
 37 36  1  0
 38 12  1  0
 38 39  1  0
 38 48  1  0
 39 42  1  0
 40 44  1  0
 40 39  1  0
 41 40  2  0
 44 43  1  0
 46 44  1  0
 46 47  1  0
 46 45  1  0
 48 51  1  1
 48 49  1  0
 50 48  1  0
 52 53  1  0
 53 55  1  0
 53 54  1  0
 53 56  1  0
 56 57  1  0
 57 58  1  0
 59 58  1  0
 60 68  1  0
 61 66  1  0
 62 63  1  0
 62 61  1  0
 64 63  1  0
 64 73  1  0
 64 65  1  0
 66 60  1  0
 66 65  1  0
 67 60  2  0
 68 59  1  0
 68 69  1  0
 70 71  2  0
 71 90  1  0
 72 71  1  0
 72 75  1  0
 73 70  1  0
 73 74  1  0
 74 72  2  0
 75 76  1  0
 76 77  2  0
 78 81  1  0
 78 77  1  0
 79 78  2  0
 80 79  1  0
 80 75  2  0
 81 82  1  0
 82 83  1  0
 83 84  2  0
 85 84  1  0
 85 89  1  0
 86 85  2  0
 87 82  2  0
 87 86  1  0
 88 87  1  0
 90 91  1  0
 91 94  1  0
 91 93  1  0
 92 90  2  0
 95 96  1  0
 95 70  1  0
 97 95  1  0
M  ISO  4  10 101  11 101  60 100  68 100
M  END
>  <TORSDO>  (67) 
F 24

>  <SCORE>  (67) 
-11.919

>  <name>  (67) 
66

>  <ligand_id>  (67) 
66

>  <original_smiles>  (67) 
[H]c1c([H])c([H])c2c(c1[H])C([H])([H])C([H])([H])C([H])([H])C2([H])N([H])C(=O)C1([H])N(C(=O)C([H])(N([H])C(=O)C([H])(N([H])C([H])([H])[H])C([H])([H])[H])C(C([H])([H])[H])(C([H])([H])[H])C([H])([H])[H])C([H])([H])c2c([H])c(OC([H])([H])C([H])([H])c3c([H])c(Cl)c(Cl)c(C([H])([H])[N+]([H])([H])C([H])([H])C([H])([H])C([H])([H])C([H])([H])N([H])C(=O)N4C([H])([H])C([H])([H])C([H])([H])C([H])(n5nc(-c6c([H])c([H])c(Oc7c([H])c([H])c(F)c([H])c7F)c([H])c6[H])c(C(=O)N([H])[H])c5N([H])[H])C4([H])[H])c3[H])c([H])c([H])c2C1([H])[H]

>  <smiles>  (67) 
[H]c1c([H])c([H])c2c(c1[H])C([H])([H])C([H])([H])C([H])([H])C2([H])N([H])C(=O)C1([H])N(C(=O)C([H])(N([H])C(=O)C([H])(N([H])C([H])([H])[H])C([H])([H])[H])C(C([H])([H])[H])(C([H])([H])[H])C([H])([H])[H])C([H])([H])c2c([H])c(OC([H])([H])C([H])([H])c3c([H])c(Cl)c(Cl)c(C([H])([H])[N+]([H])([H])C([H])([H])C([H])([H])C([H])([H])C([H])([H])N([H])C(=O)N4C([H])([H])C([H])([H])C([H])([H])C([H])(n5nc(-c6c([H])c([H])c(Oc7c([H])c([H])c(F)c([H])c7F)c([H])c6[H])c(C(=O)N([H])[H])c5N([H])[H])C4([H])[H])c3[H])c([H])c([H])c2C1([H])[H]

$$$$
67:0:0
     RDKit          3D

 94102  0  0  1  0  0  0  0  0999 V2000
  -29.4020  -20.0970   22.0200 C   0  0  0  0  0  3  0  0  0  0  0  0
  -30.2570  -19.2850   22.7800 C   0  0  0  0  0  0  0  0  0  0  0  0
  -29.5050  -21.4820   22.2040 C   0  0  0  0  0  0  0  0  0  0  0  0
  -31.1780  -21.1460   23.7310 C   0  0  0  0  0  0  0  0  0  0  0  0
  -32.1810  -21.7410   24.6950 C   0  0  0  0  0  1  0  0  0  0  0  0
  -27.2340  -22.0270   21.5890 C   0  0  0  0  0  1  0  0  0  0  0  0
  -31.1420  -19.8220   23.6410 N   0  0  0  0  0  0  0  0  0  0  0  0
  -30.4080  -21.9930   23.0590 N   0  0  0  0  0  0  0  0  0  0  0  0
  -28.6530  -22.3810   21.5270 N   0  0  0  0  0  0  0  0  0  0  0  0
  -30.2190  -17.7660   22.7010 C   0  0  0  0  0  2  0  0  0  0  0  0
  -31.5780  -17.1450   22.3130 C   0  0  0  0  0  2  0  0  0  0  0  0
  -31.6680  -16.6500   20.8580 C   0  0  0  0  0  2  0  0  0  0  0  0
  -31.4260  -14.4030   19.8260 C   0  0  0  0  0  0  0  0  0  0  0  0
  -30.9880  -12.1530   18.9110 C   0  0  0  0  0  2  0  0  0  0  0  0
  -29.9770  -12.2120   17.7500 C   0  0  0  0  0  2  0  0  0  0  0  0
  -28.5320  -12.1560   18.2820 C   0  0  0  0  0  2  0  0  0  0  0  0
  -28.2800  -13.1690   19.4290 C   0  0  0  0  0  3  0  0  0  0  0  0
  -29.3900  -13.0720   20.4990 C   0  0  0  0  0  2  0  0  0  0  0  0
  -30.6940  -13.2590   19.8350 N   0  0  0  0  0  0  0  0  0  0  0  0
  -32.4100  -14.5740   19.0990 O   0  0  0  0  0  0  0  0  0  0  0  0
  -31.0190  -15.3500   20.6820 N   0  0  0  0  0  0  0  0  0  0  0  0
  -30.2150  -15.1340   21.2520 H   0  0  0  0  0  0  0  0  0  0  0  0
  -26.0190  -13.9490   20.3830 C   0  0  0  0  0  0  0  0  0  0  0  0
  -24.9190  -13.2550   20.8100 C   0  0  0  0  0  0  0  0  0  0  0  0
  -25.2440  -11.8720   20.6660 C   0  0  0  0  0  0  0  0  0  0  0  0
  -26.9520  -12.9920   20.0130 N   0  0  0  0  0  0  0  0  0  0  0  0
  -26.4920  -11.7350   20.2370 N   0  0  0  0  0  0  0  0  0  0  0  0
  -24.4220  -10.6710   20.8600 C   0  0  0  0  0  0  0  0  0  0  0  0
  -24.8120   -9.6430   21.7470 C   0  0  0  0  0  3  0  0  0  0  0  0
  -23.9950   -8.5070   21.9280 C   0  0  0  0  0  3  0  0  0  0  0  0
  -22.7740   -8.3890   21.2230 C   0  0  0  0  0  0  0  0  0  0  0  0
  -22.4010   -9.4040   20.3240 C   0  0  0  0  0  3  0  0  0  0  0  0
  -23.2180  -10.5320   20.1400 C   0  0  0  0  0  3  0  0  0  0  0  0
  -21.9300   -7.3100   21.3160 O   0  0  0  0  0  0  0  0  0  0  0  0
  -21.8140   -6.5850   22.4750 C   0  0  0  0  0  0  0  0  0  0  0  0
  -21.4280   -7.1840   23.6940 C   0  0  0  0  0  3  0  0  0  0  0  0
  -21.2550   -6.3890   24.8450 C   0  0  0  0  0  3  0  0  0  0  0  0
  -21.4570   -4.9980   24.7790 C   0  0  0  0  0  0  0  0  0  0  0  0
  -21.8350   -4.3990   23.5640 C   0  0  0  0  0  3  0  0  0  0  0  0
  -22.0100   -5.1890   22.4150 C   0  0  0  0  0  0  0  0  0  0  0  0
  -22.3550   -4.6050   21.2430 F   0  0  0  0  0  0  0  0  0  0  0  0
  -21.2810   -4.2330   25.8810 F   0  0  0  0  0  0  0  0  0  0  0  0
  -23.6020  -13.8380   21.2370 C   0  0  0  0  0  0  0  0  0  0  0  0
  -22.9040  -13.1720   22.1500 N   0  0  0  0  0  0  0  0  0  0  0  0
  -23.2080  -14.9190   20.7990 O   0  0  0  0  0  0  0  0  0  0  0  0
  -23.2370  -12.2960   22.5250 H   0  0  0  0  0  0  0  0  0  0  0  0
  -22.0230  -13.5430   22.4780 H   0  0  0  0  0  0  0  0  0  0  0  0
  -26.2980  -15.3080   20.2620 N   0  0  0  0  0  0  0  0  0  0  0  0
  -25.6110  -16.0230   20.4730 H   0  0  0  0  0  0  0  0  0  0  0  0
  -27.1570  -15.6830   19.8790 H   0  0  0  0  0  0  0  0  0  0  0  0
  -29.0170  -23.8040   21.5690 C   0  0  0  0  0  2  0  0  0  0  0  0
  -28.4490  -24.6380   20.4030 C   0  0  0  0  0  2  0  0  0  0  0  0
  -28.9170  -26.1030   20.4730 C   0  0  0  0  0  2  0  0  0  0  0  0
  -28.4970  -26.8370   19.3260 O   0  0  0  0  0  0  0  0  0  0  0  0
  -24.8840  -31.5970   23.1970 C   0  0  0  0  0  0  0  0  0  0  0  0
  -27.3370  -27.5440   19.5080 C   0  0  0  0  0  0  0  0  0  0  0  0
  -23.5820  -30.3770   21.4840 C   0  0  0  0  0  3  0  0  0  0  0  0
  -24.9470  -29.0040   19.8240 C   0  0  0  0  0  0  0  0  0  0  0  0
  -26.0900  -30.7670   21.1830 C   0  0  0  0  0  2  0  0  0  0  0  0
  -26.1350  -29.4720   20.4000 C   0  0  0  0  0  0  0  0  0  0  0  0
  -27.3350  -28.7470   20.2450 C   0  0  0  0  0  3  0  0  0  0  0  0
  -26.1390  -27.0810   18.9280 C   0  0  0  0  0  3  0  0  0  0  0  0
  -24.9410  -27.8040   19.0900 C   0  0  0  0  0  3  0  0  0  0  0  0
  -23.7090  -29.8470   20.0310 C   0  0  0  0  0  2  0  0  0  0  0  0
  -24.8740  -30.9220   22.0130 N   0  0  0  0  0  0  0  0  0  0  0  0
  -23.8370  -31.8080   23.8240 O   0  0  0  0  0  0  0  0  0  0  0  0
  -22.9830  -29.2570   22.3650 C   0  0  0  0  0  0  0  0  0  0  0  0
  -21.6620  -29.0440   22.2450 N   0  0  0  0  0  0  0  0  0  0  0  0
  -23.7020  -28.5870   23.1110 O   0  0  0  0  0  0  0  0  0  0  0  0
  -21.1430  -29.6410   21.6170 H   0  0  0  0  0  0  0  0  0  0  0  0
  -18.3520  -27.6490   22.6230 C   0  0  0  0  0  0  0  0  0  0  0  0
  -20.8900  -28.0180   22.9440 C   0  0  0  0  0  3  0  0  0  0  0  0
  -21.0730  -26.6340   22.2790 C   0  0  0  0  0  2  0  0  0  0  0  0
  -19.9980  -26.3220   21.2330 C   0  0  0  0  0  2  0  0  0  0  0  0
  -18.6040  -26.3550   21.8680 C   0  0  0  0  0  2  0  0  0  0  0  0
  -19.4260  -28.4370   23.1140 C   0  0  0  0  0  0  0  0  0  0  0  0
  -19.1390  -29.6490   23.7790 C   0  0  0  0  0  3  0  0  0  0  0  0
  -17.8080  -30.0730   23.9600 C   0  0  0  0  0  3  0  0  0  0  0  0
  -16.7480  -29.2810   23.4860 C   0  0  0  0  0  3  0  0  0  0  0  0
  -17.0210  -28.0710   22.8240 C   0  0  0  0  0  3  0  0  0  0  0  0
  -26.2080  -32.1600   23.8060 C   0  0  0  0  0  3  0  0  0  0  0  0
  -25.9200  -33.5020   24.3270 N   0  0  0  0  0  0  0  0  0  0  0  0
  -26.2390  -34.6440   23.7020 C   0  0  0  0  0  0  0  0  0  0  0  0
  -26.8810  -34.6740   22.6480 O   0  0  0  0  0  0  0  0  0  0  0  0
  -25.3490  -33.5530   25.1590 H   0  0  0  0  0  0  0  0  0  0  0  0
  -24.5240  -36.4800   23.6210 C   0  0  0  0  0  1  0  0  0  0  0  0
  -25.7740  -35.9610   24.3510 C   0  0  0  0  0  3  0  0  0  0  0  0
  -27.9300  -36.7050   25.2560 C   0  0  0  0  0  1  0  0  0  0  0  0
  -26.8150  -37.0110   24.3640 N   0  0  0  0  0  0  0  0  0  0  0  0
  -26.4210  -37.9050   24.6450 H   0  0  0  0  0  0  0  0  0  0  0  0
  -26.8130  -31.2400   24.9370 C   0  0  1  0  0  0  0  0  0  0  0  0
  -25.7970  -30.8610   26.0410 C   0  0  0  0  0  1  0  0  0  0  0  0
  -27.3680  -29.9280   24.3340 C   0  0  0  0  0  1  0  0  0  0  0  0
  -28.0070  -31.9560   25.6120 C   0  0  0  0  0  1  0  0  0  0  0  0
  1  3  1  0
  1  2  2  0
  2  7  1  0
  3  8  2  0
  4  5  1  0
  7  4  2  0
  8  4  1  0
  9 51  1  0
  9  6  1  0
  9  3  1  0
 10  2  1  0
 11 10  1  0
 12 11  1  0
 13 19  1  0
 13 21  1  0
 14 19  1  0
 15 16  1  0
 15 14  1  0
 17 16  1  0
 17 26  1  0
 17 18  1  0
 19 18  1  0
 20 13  2  0
 21 12  1  0
 21 22  1  0
 23 24  2  0
 24 43  1  0
 25 24  1  0
 25 28  1  0
 26 27  1  0
 26 23  1  0
 27 25  2  0
 28 29  1  0
 29 30  2  0
 31 34  1  0
 31 30  1  0
 32 31  2  0
 33 32  1  0
 33 28  2  0
 34 35  1  0
 35 36  1  0
 36 37  2  0
 38 37  1  0
 38 42  1  0
 39 38  2  0
 40 35  2  0
 40 39  1  0
 41 40  1  0
 43 44  1  0
 44 47  1  0
 44 46  1  0
 45 43  2  0
 48 23  1  0
 48 49  1  0
 50 48  1  0
 52 53  1  0
 52 51  1  0
 54 56  1  0
 54 53  1  0
 55 66  2  0
 56 61  1  0
 57 65  1  0
 57 67  1  0
 58 64  1  0
 58 60  1  0
 59 65  1  0
 60 59  1  0
 61 60  2  0
 62 63  1  0
 62 56  2  0
 63 58  2  0
 64 57  1  0
 65 55  1  0
 67 69  2  0
 68 67  1  0
 70 68  1  0
 71 80  2  0
 71 76  1  0
 72 68  1  0
 72 76  1  0
 73 72  1  0
 74 75  1  0
 74 73  1  0
 75 71  1  0
 76 77  2  0
 77 78  1  0
 79 78  2  0
 80 79  1  0
 81 55  1  0
 81 82  1  0
 81 91  1  0
 82 85  1  0
 83 82  1  0
 83 87  1  0
 84 83  2  0
 87 86  1  0
 87 89  1  0
 89 90  1  0
 89 88  1  0
 91 94  1  1
 91 92  1  0
 93 91  1  0
M  ISO  4  13 100  21 100  53 101  54 101
M  END
>  <TORSDO>  (68) 
F 22

>  <SCORE>  (68) 
-9.031

>  <name>  (68) 
67

>  <ligand_id>  (68) 
67

>  <original_smiles>  (68) 
[H]c1c(N(C([H])([H])[H])C([H])([H])C([H])([H])C([H])([H])Oc2c([H])c([H])c3c(c2[H])C([H])([H])N(C(=O)C([H])(N([H])C(=O)C([H])(N([H])C([H])([H])[H])C([H])([H])[H])C(C([H])([H])[H])(C([H])([H])[H])C([H])([H])[H])C([H])(C(=O)N([H])C2([H])c4c([H])c([H])c([H])c([H])c4C([H])([H])C([H])([H])C2([H])[H])C3([H])[H])nc(C([H])([H])[H])nc1C([H])([H])C([H])([H])C([H])([H])N([H])C(=O)N1C([H])([H])C([H])([H])C([H])([H])C([H])(n2nc(-c3c([H])c([H])c(Oc4c([H])c([H])c(F)c([H])c4F)c([H])c3[H])c(C(=O)N([H])[H])c2N([H])[H])C1([H])[H]

>  <smiles>  (68) 
[H]c1c(N(C([H])([H])[H])C([H])([H])C([H])([H])C([H])([H])Oc2c([H])c([H])c3c(c2[H])C([H])([H])N(C(=O)C([H])(N([H])C(=O)C([H])(N([H])C([H])([H])[H])C([H])([H])[H])C(C([H])([H])[H])(C([H])([H])[H])C([H])([H])[H])C([H])(C(=O)N([H])C2([H])c4c([H])c([H])c([H])c([H])c4C([H])([H])C([H])([H])C2([H])[H])C3([H])[H])nc(C([H])([H])[H])nc1C([H])([H])C([H])([H])C([H])([H])N([H])C(=O)N1C([H])([H])C([H])([H])C([H])([H])C([H])(n2nc(-c3c([H])c([H])c(Oc4c([H])c([H])c(F)c([H])c4F)c([H])c3[H])c(C(=O)N([H])[H])c2N([H])[H])C1([H])[H]

$$$$
68:0:0
     RDKit          3D

 90 98  0  0  1  0  0  0  0  0999 V2000
  -29.9630  -20.7200   19.6660 C   0  0  0  0  0  3  0  0  0  0  0  0
  -30.3320  -19.5410   21.7540 C   0  0  0  0  0  3  0  0  0  0  0  0
  -30.2750  -19.4280   20.3570 C   0  0  0  0  0  0  0  0  0  0  0  0
  -29.7860  -22.0600   20.3070 C   0  0  0  0  0  0  0  0  0  0  0  0
  -30.0080  -22.0110   21.7160 C   0  0  0  0  0  0  0  0  0  0  0  0
  -30.2050  -20.7810   22.4150 C   0  0  0  0  0  0  0  0  0  0  0  0
  -30.1370  -23.3120   22.4900 C   0  0  0  0  0  1  0  0  0  0  0  0
  -30.3380  -20.7370   24.1410 Cl  0  0  0  0  0  0  0  0  0  0  0  0
  -29.5700  -23.5460   19.5610 C   0  0  0  0  0  2  0  0  0  0  0  0
  -28.4650  -24.8160   19.9020 C   0  0  0  0  0  2  0  0  0  0  0  0
  -28.5970  -26.3620   19.6290 O   0  0  0  0  0  0  0  0  0  0  0  0
  -24.6800  -31.6610   23.0330 C   0  0  0  0  0  0  0  0  0  0  0  0
  -27.4680  -27.2710   19.6870 C   0  0  0  0  0  0  0  0  0  0  0  0
  -23.5180  -30.2640   21.3680 C   0  0  0  0  0  3  0  0  0  0  0  0
  -25.0210  -28.8500   19.8290 C   0  0  0  0  0  0  0  0  0  0  0  0
  -26.0460  -30.7050   21.1360 C   0  0  0  0  0  2  0  0  0  0  0  0
  -26.1930  -29.3530   20.4130 C   0  0  0  0  0  0  0  0  0  0  0  0
  -27.4160  -28.5810   20.3210 C   0  0  0  0  0  3  0  0  0  0  0  0
  -26.2560  -26.8750   19.0770 C   0  0  0  0  0  3  0  0  0  0  0  0
  -25.0660  -27.6240   19.1500 C   0  0  0  0  0  3  0  0  0  0  0  0
  -23.7400  -29.6610   19.9560 C   0  0  0  0  0  2  0  0  0  0  0  0
  -24.7670  -30.8970   21.9010 N   0  0  0  0  0  0  0  0  0  0  0  0
  -23.6000  -31.8440   23.6130 O   0  0  0  0  0  0  0  0  0  0  0  0
  -22.9410  -29.1670   22.3040 C   0  0  0  0  0  0  0  0  0  0  0  0
  -21.6350  -28.8690   22.1690 N   0  0  0  0  0  0  0  0  0  0  0  0
  -23.6710  -28.5890   23.1120 O   0  0  0  0  0  0  0  0  0  0  0  0
  -21.0940  -29.3970   21.4970 H   0  0  0  0  0  0  0  0  0  0  0  0
  -18.4160  -27.2580   22.5770 C   0  0  0  0  0  0  0  0  0  0  0  0
  -20.9150  -27.8340   22.9200 C   0  0  0  0  0  3  0  0  0  0  0  0
  -21.2060  -26.4280   22.3480 C   0  0  0  0  0  2  0  0  0  0  0  0
  -20.1830  -25.9750   21.3010 C   0  0  0  0  0  2  0  0  0  0  0  0
  -18.7750  -25.9440   21.9050 C   0  0  0  0  0  2  0  0  0  0  0  0
  -19.4190  -28.1520   23.0390 C   0  0  0  0  0  0  0  0  0  0  0  0
  -19.0260  -29.3680   23.6330 C   0  0  0  0  0  3  0  0  0  0  0  0
  -17.6670  -29.7040   23.7650 C   0  0  0  0  0  3  0  0  0  0  0  0
  -16.6770  -28.8110   23.3220 C   0  0  0  0  0  3  0  0  0  0  0  0
  -17.0540  -27.5910   22.7340 C   0  0  0  0  0  3  0  0  0  0  0  0
  -25.9290  -32.3600   23.6480 C   0  0  0  0  0  3  0  0  0  0  0  0
  -26.5230  -31.5870   24.8890 C   0  0  1  0  0  0  0  0  0  0  0  0
  -25.4730  -31.2610   25.9770 C   0  0  0  0  0  1  0  0  0  0  0  0
  -27.1720  -30.2560   24.4470 C   0  0  0  0  0  1  0  0  0  0  0  0
  -27.6460  -32.4270   25.5420 C   0  0  0  0  0  1  0  0  0  0  0  0
  -25.5370  -33.7230   24.0380 N   0  0  0  0  0  0  0  0  0  0  0  0
  -25.7930  -34.8300   23.3260 C   0  0  0  0  0  0  0  0  0  0  0  0
  -26.4520  -34.8120   22.2810 O   0  0  0  0  0  0  0  0  0  0  0  0
  -24.9460  -33.8010   24.8550 H   0  0  0  0  0  0  0  0  0  0  0  0
  -23.9490  -36.5250   23.0910 C   0  0  0  0  0  1  0  0  0  0  0  0
  -25.2370  -36.1660   23.8530 C   0  0  0  0  0  3  0  0  0  0  0  0
  -27.3360  -37.1460   24.6660 C   0  0  0  0  0  1  0  0  0  0  0  0
  -26.2010  -37.2860   23.7580 N   0  0  0  0  0  0  0  0  0  0  0  0
  -25.7440  -38.1710   23.9620 H   0  0  0  0  0  0  0  0  0  0  0  0
  -30.6240  -17.9430   19.7070 C   0  0  0  0  0  2  0  0  0  0  0  0
  -31.0840  -15.3050   20.3840 C   0  0  0  0  0  0  0  0  0  0  0  0
  -31.0070  -12.8520   19.7600 C   0  0  0  0  0  2  0  0  0  0  0  0
  -30.1720  -12.6660   18.4710 C   0  0  0  0  0  2  0  0  0  0  0  0
  -28.6730  -12.5230   18.7990 C   0  0  0  0  0  2  0  0  0  0  0  0
  -28.1870  -13.5770   19.8260 C   0  0  0  0  0  3  0  0  0  0  0  0
  -29.1570  -13.7250   21.0190 C   0  0  0  0  0  2  0  0  0  0  0  0
  -30.4800  -14.0520   20.4690 N   0  0  0  0  0  0  0  0  0  0  0  0
  -32.3020  -15.3290   20.1820 O   0  0  0  0  0  0  0  0  0  0  0  0
  -30.3120  -16.4990   20.2970 N   0  0  0  0  0  0  0  0  0  0  0  0
  -29.3320  -16.3270   20.4580 H   0  0  0  0  0  0  0  0  0  0  0  0
  -25.7970  -14.2470   20.4480 C   0  0  0  0  0  0  0  0  0  0  0  0
  -24.6860  -13.5190   20.7640 C   0  0  0  0  0  0  0  0  0  0  0  0
  -25.0940  -12.1470   20.7510 C   0  0  0  0  0  0  0  0  0  0  0  0
  -26.8150  -13.3280   20.2560 N   0  0  0  0  0  0  0  0  0  0  0  0
  -26.3970  -12.0590   20.5090 N   0  0  0  0  0  0  0  0  0  0  0  0
  -24.3040  -10.9190   20.9010 C   0  0  0  0  0  0  0  0  0  0  0  0
  -24.6510   -9.9290   21.8460 C   0  0  0  0  0  3  0  0  0  0  0  0
  -23.8660   -8.7640   21.9840 C   0  0  0  0  0  3  0  0  0  0  0  0
  -22.7170   -8.5830   21.1780 C   0  0  0  0  0  0  0  0  0  0  0  0
  -22.3930   -9.5580   20.2190 C   0  0  0  0  0  3  0  0  0  0  0  0
  -23.1760  -10.7130   20.0800 C   0  0  0  0  0  3  0  0  0  0  0  0
  -21.9110   -7.4720   21.2220 O   0  0  0  0  0  0  0  0  0  0  0  0
  -21.7830   -6.7240   22.3640 C   0  0  0  0  0  0  0  0  0  0  0  0
  -21.3270   -7.2840   23.5770 C   0  0  0  0  0  3  0  0  0  0  0  0
  -21.1460   -6.4640   24.7090 C   0  0  0  0  0  3  0  0  0  0  0  0
  -21.4050   -5.0830   24.6280 C   0  0  0  0  0  0  0  0  0  0  0  0
  -21.8490   -4.5200   23.4170 C   0  0  0  0  0  3  0  0  0  0  0  0
  -22.0330   -5.3380   22.2890 C   0  0  0  0  0  0  0  0  0  0  0  0
  -22.4450   -4.7870   21.1210 F   0  0  0  0  0  0  0  0  0  0  0  0
  -21.2190   -4.2920   25.7100 F   0  0  0  0  0  0  0  0  0  0  0  0
  -23.2960  -14.0500   20.9590 C   0  0  0  0  0  0  0  0  0  0  0  0
  -22.5020  -13.3960   21.7930 N   0  0  0  0  0  0  0  0  0  0  0  0
  -22.9290  -15.0870   20.4060 O   0  0  0  0  0  0  0  0  0  0  0  0
  -22.8200  -12.5620   22.2650 H   0  0  0  0  0  0  0  0  0  0  0  0
  -21.5660  -13.7300   21.9630 H   0  0  0  0  0  0  0  0  0  0  0  0
  -26.0240  -15.6110   20.2740 N   0  0  0  0  0  0  0  0  0  0  0  0
  -25.2630  -16.2830   20.3080 H   0  0  0  0  0  0  0  0  0  0  0  0
  -26.8840  -16.0050   19.9120 H   0  0  0  0  0  0  0  0  0  0  0  0
  1  4  2  0
  1  3  1  0
  2  6  1  0
  3  2  2  0
  4  5  1  0
  5  6  2  0
  5  7  1  0
  6  8  1  0
  9 10  1  0
  9  4  1  0
 11 13  1  0
 11 10  1  0
 12 23  2  0
 13 18  1  0
 14 22  1  0
 14 24  1  0
 15 21  1  0
 15 17  1  0
 16 22  1  0
 17 16  1  0
 18 17  2  0
 19 20  1  0
 19 13  2  0
 20 15  2  0
 21 14  1  0
 22 12  1  0
 24 26  2  0
 25 24  1  0
 27 25  1  0
 28 37  2  0
 28 33  1  0
 29 25  1  0
 29 33  1  0
 30 29  1  0
 31 32  1  0
 31 30  1  0
 32 28  1  0
 33 34  2  0
 34 35  1  0
 36 35  2  0
 37 36  1  0
 38 12  1  0
 38 43  1  0
 38 39  1  0
 39 42  1  1
 39 40  1  0
 41 39  1  0
 43 46  1  0
 44 48  1  0
 44 43  1  0
 45 44  2  0
 48 47  1  0
 50 48  1  0
 50 51  1  0
 50 49  1  0
 52 61  1  0
 52  3  1  0
 53 59  1  0
 54 59  1  0
 55 56  1  0
 55 54  1  0
 57 56  1  0
 57 66  1  0
 57 58  1  0
 59 58  1  0
 60 53  2  0
 61 53  1  0
 61 62  1  0
 63 64  2  0
 64 83  1  0
 65 64  1  0
 65 68  1  0
 66 63  1  0
 66 67  1  0
 67 65  2  0
 68 69  1  0
 69 70  2  0
 71 74  1  0
 71 70  1  0
 72 71  2  0
 73 72  1  0
 73 68  2  0
 74 75  1  0
 75 76  1  0
 76 77  2  0
 78 77  1  0
 78 82  1  0
 79 78  2  0
 80 75  2  0
 80 79  1  0
 81 80  1  0
 83 84  1  0
 84 87  1  0
 84 86  1  0
 85 83  2  0
 88 89  1  0
 88 63  1  0
 90 88  1  0
M  ISO  4  10 101  11 101  53 100  61 100
M  END
>  <TORSDO>  (69) 
F 19

>  <SCORE>  (69) 
-13.522

>  <name>  (69) 
68

>  <ligand_id>  (69) 
68

>  <original_smiles>  (69) 
[H]c1c([H])c([H])c2c(c1[H])C([H])([H])C([H])([H])C([H])([H])C2([H])N([H])C(=O)C1([H])N(C(=O)C([H])(N([H])C(=O)C([H])(N([H])C([H])([H])[H])C([H])([H])[H])C(C([H])([H])[H])(C([H])([H])[H])C([H])([H])[H])C([H])([H])c2c([H])c(OC([H])([H])C([H])([H])c3c([H])c(C([H])([H])N([H])C(=O)N4C([H])([H])C([H])([H])C([H])([H])C([H])(n5nc(-c6c([H])c([H])c(Oc7c([H])c([H])c(F)c([H])c7F)c([H])c6[H])c(C(=O)N([H])[H])c5N([H])[H])C4([H])[H])c([H])c(Cl)c3C([H])([H])[H])c([H])c([H])c2C1([H])[H]

>  <smiles>  (69) 
[H]c1c([H])c([H])c2c(c1[H])C([H])([H])C([H])([H])C([H])([H])C2([H])N([H])C(=O)C1([H])N(C(=O)C([H])(N([H])C(=O)C([H])(N([H])C([H])([H])[H])C([H])([H])[H])C(C([H])([H])[H])(C([H])([H])[H])C([H])([H])[H])C([H])([H])c2c([H])c(OC([H])([H])C([H])([H])c3c([H])c(C([H])([H])N([H])C(=O)N4C([H])([H])C([H])([H])C([H])([H])C([H])(n5nc(-c6c([H])c([H])c(Oc7c([H])c([H])c(F)c([H])c7F)c([H])c6[H])c(C(=O)N([H])[H])c5N([H])[H])C4([H])[H])c([H])c(Cl)c3C([H])([H])[H])c([H])c([H])c2C1([H])[H]

$$$$
69:0:0
     RDKit          3D

 93101  0  0  1  0  0  0  0  0999 V2000
  -29.9810  -23.5080   19.7050 C   0  0  0  0  0  0  0  0  0  0  0  0
  -28.6520  -23.9080   20.0180 C   0  0  0  0  0  0  0  0  0  0  0  0
  -30.4340  -22.1900   20.0440 C   0  0  0  0  0  0  0  0  0  0  0  0
  -27.8710  -22.9340   20.7190 C   0  0  0  0  0  0  0  0  0  0  0  0
  -29.5660  -21.2940   20.7300 C   0  0  0  0  0  0  0  0  0  0  0  0
  -30.8860  -24.5000   18.9880 C   0  0  0  0  0  1  0  0  0  0  0  0
  -28.3230  -21.7000   21.0780 N   0  0  0  0  0  0  0  0  0  0  0  0
  -32.0350  -21.6760   19.6230 Cl  0  0  0  0  0  0  0  0  0  0  0  0
  -26.2780  -24.3930   22.0750 C   0  0  0  0  0  1  0  0  0  0  0  0
  -26.4250  -23.1800   21.1460 C   0  0  0  0  0  2  0  0  0  0  0  0
  -27.9930  -25.1850   19.3740 C   0  0  0  0  0  2  0  0  0  0  0  0
  -28.3210  -26.5920   19.7100 O   0  0  0  0  0  0  0  0  0  0  0  0
  -24.5230  -31.7560   23.0380 C   0  0  0  0  0  0  0  0  0  0  0  0
  -27.2170  -27.4720   19.6710 C   0  0  0  0  0  0  0  0  0  0  0  0
  -23.3370  -30.4130   21.3450 C   0  0  0  0  0  3  0  0  0  0  0  0
  -24.8110  -29.0210   19.7960 C   0  0  0  0  0  0  0  0  0  0  0  0
  -25.8640  -30.8260   21.1430 C   0  0  0  0  0  2  0  0  0  0  0  0
  -25.9760  -29.4950   20.4130 C   0  0  0  0  0  0  0  0  0  0  0  0
  -27.1810  -28.7280   20.3540 C   0  0  0  0  0  3  0  0  0  0  0  0
  -26.0320  -27.0960   18.9840 C   0  0  0  0  0  3  0  0  0  0  0  0
  -24.8420  -27.8270   19.0720 C   0  0  0  0  0  3  0  0  0  0  0  0
  -23.5460  -29.8390   19.9220 C   0  0  0  0  0  2  0  0  0  0  0  0
  -24.5940  -31.0120   21.8980 N   0  0  0  0  0  0  0  0  0  0  0  0
  -23.4410  -31.9660   23.6060 O   0  0  0  0  0  0  0  0  0  0  0  0
  -22.7310  -29.3130   22.2500 C   0  0  0  0  0  0  0  0  0  0  0  0
  -21.4070  -29.1030   22.1450 N   0  0  0  0  0  0  0  0  0  0  0  0
  -23.4490  -28.6590   23.0110 O   0  0  0  0  0  0  0  0  0  0  0  0
  -20.8850  -29.6870   21.5060 H   0  0  0  0  0  0  0  0  0  0  0  0
  -18.0720  -27.8110   22.6860 C   0  0  0  0  0  0  0  0  0  0  0  0
  -20.6360  -28.0990   22.8780 C   0  0  0  0  0  3  0  0  0  0  0  0
  -20.7390  -26.7130   22.2010 C   0  0  0  0  0  2  0  0  0  0  0  0
  -19.6030  -26.4400   21.2090 C   0  0  0  0  0  2  0  0  0  0  0  0
  -18.2450  -26.5140   21.9120 C   0  0  0  0  0  2  0  0  0  0  0  0
  -19.1950  -28.5620   23.1260 C   0  0  0  0  0  0  0  0  0  0  0  0
  -18.9780  -29.7770   23.8130 C   0  0  0  0  0  3  0  0  0  0  0  0
  -17.6730  -30.2410   24.0620 C   0  0  0  0  0  3  0  0  0  0  0  0
  -16.5660  -29.4850   23.6370 C   0  0  0  0  0  3  0  0  0  0  0  0
  -16.7670  -28.2720   22.9560 C   0  0  0  0  0  3  0  0  0  0  0  0
  -25.7970  -32.3970   23.6700 C   0  0  0  0  0  3  0  0  0  0  0  0
  -25.4550  -33.7730   24.0530 N   0  0  0  0  0  0  0  0  0  0  0  0
  -25.7540  -34.8600   23.3290 C   0  0  0  0  0  0  0  0  0  0  0  0
  -26.4170  -34.8100   22.2890 O   0  0  0  0  0  0  0  0  0  0  0  0
  -24.8630  -33.8860   24.8630 H   0  0  0  0  0  0  0  0  0  0  0  0
  -23.9770  -36.6190   23.0550 C   0  0  0  0  0  1  0  0  0  0  0  0
  -25.2370  -36.2180   23.8390 C   0  0  0  0  0  3  0  0  0  0  0  0
  -27.3530  -37.1310   24.6860 C   0  0  0  0  0  1  0  0  0  0  0  0
  -26.2410  -37.3020   23.7550 N   0  0  0  0  0  0  0  0  0  0  0  0
  -25.8120  -38.2050   23.9370 H   0  0  0  0  0  0  0  0  0  0  0  0
  -26.3440  -31.5920   24.9120 C   0  0  1  0  0  0  0  0  0  0  0  0
  -25.2660  -31.2900   25.9790 C   0  0  0  0  0  1  0  0  0  0  0  0
  -26.9560  -30.2430   24.4690 C   0  0  0  0  0  1  0  0  0  0  0  0
  -27.4810  -32.3900   25.5910 C   0  0  0  0  0  1  0  0  0  0  0  0
  -30.0240  -19.9030   21.2930 C   0  0  0  0  0  2  0  0  0  0  0  0
  -29.4950  -18.5400   20.6850 C   0  0  0  0  0  2  0  0  0  0  0  0
  -30.2310  -17.2590   21.2650 C   0  0  0  0  0  2  0  0  0  0  0  0
  -30.4710  -14.8250   20.4850 C   0  0  0  0  0  0  0  0  0  0  0  0
  -30.2630  -12.6280   19.3510 C   0  0  0  0  0  2  0  0  0  0  0  0
  -29.3080  -12.7600   18.1460 C   0  0  0  0  0  2  0  0  0  0  0  0
  -27.8450  -12.5550   18.5840 C   0  0  0  0  0  2  0  0  0  0  0  0
  -27.4760  -13.3790   19.8450 C   0  0  0  0  0  3  0  0  0  0  0  0
  -28.5480  -13.2430   20.9480 C   0  0  0  0  0  2  0  0  0  0  0  0
  -29.8390  -13.6200   20.3570 N   0  0  0  0  0  0  0  0  0  0  0  0
  -31.6300  -14.9890   20.0930 O   0  0  0  0  0  0  0  0  0  0  0  0
  -29.7290  -15.8880   20.9140 N   0  0  0  0  0  0  0  0  0  0  0  0
  -28.7630  -15.6900   21.1300 H   0  0  0  0  0  0  0  0  0  0  0  0
  -25.0750  -13.8860   20.5990 C   0  0  0  0  0  0  0  0  0  0  0  0
  -24.0350  -13.0710   20.9580 C   0  0  0  0  0  0  0  0  0  0  0  0
  -24.5380  -11.7350   20.8930 C   0  0  0  0  0  0  0  0  0  0  0  0
  -26.1420  -13.0430   20.3370 N   0  0  0  0  0  0  0  0  0  0  0  0
  -25.8260  -11.7440   20.5730 N   0  0  0  0  0  0  0  0  0  0  0  0
  -23.8520  -10.4470   21.0590 C   0  0  0  0  0  0  0  0  0  0  0  0
  -24.3170   -9.4740   21.9720 C   0  0  0  0  0  3  0  0  0  0  0  0
  -23.6280   -8.2510   22.1280 C   0  0  0  0  0  3  0  0  0  0  0  0
  -22.4610   -7.9930   21.3700 C   0  0  0  0  0  0  0  0  0  0  0  0
  -22.0150   -8.9550   20.4470 C   0  0  0  0  0  3  0  0  0  0  0  0
  -22.7040  -10.1700   20.2900 C   0  0  0  0  0  3  0  0  0  0  0  0
  -21.7420   -6.8230   21.4360 O   0  0  0  0  0  0  0  0  0  0  0  0
  -21.7170   -6.0580   22.5740 C   0  0  0  0  0  0  0  0  0  0  0  0
  -21.2560   -6.5700   23.8060 C   0  0  0  0  0  3  0  0  0  0  0  0
  -21.1820   -5.7280   24.9350 C   0  0  0  0  0  3  0  0  0  0  0  0
  -21.5570   -4.3750   24.8310 C   0  0  0  0  0  0  0  0  0  0  0  0
  -22.0130   -3.8630   23.6030 C   0  0  0  0  0  3  0  0  0  0  0  0
  -22.0890   -4.7020   22.4770 C   0  0  0  0  0  0  0  0  0  0  0  0
  -22.5070   -4.1980   21.2910 F   0  0  0  0  0  0  0  0  0  0  0  0
  -21.4780   -3.5640   25.9110 F   0  0  0  0  0  0  0  0  0  0  0  0
  -22.6260  -13.4980   21.2520 C   0  0  0  0  0  0  0  0  0  0  0  0
  -21.9300  -12.7590   22.1090 N   0  0  0  0  0  0  0  0  0  0  0  0
  -22.1520  -14.5200   20.7590 O   0  0  0  0  0  0  0  0  0  0  0  0
  -22.3300  -11.9310   22.5240 H   0  0  0  0  0  0  0  0  0  0  0  0
  -20.9870  -13.0250   22.3530 H   0  0  0  0  0  0  0  0  0  0  0  0
  -25.1980  -15.2640   20.4520 N   0  0  0  0  0  0  0  0  0  0  0  0
  -24.4140  -15.8950   20.5780 H   0  0  0  0  0  0  0  0  0  0  0  0
  -26.0300  -15.7280   20.1080 H   0  0  0  0  0  0  0  0  0  0  0  0
  1  2  2  0
  1  3  1  0
  2  4  1  0
  3  5  2  0
  4  7  2  0
  4 10  1  0
  5  7  1  0
  5 53  1  0
  6  1  1  0
  8  3  1  0
 10  9  1  0
 11 12  1  0
 11  2  1  0
 13 24  2  0
 14 12  1  0
 14 19  1  0
 15 23  1  0
 15 25  1  0
 16 22  1  0
 16 18  1  0
 17 23  1  0
 18 17  1  0
 19 18  2  0
 20 21  1  0
 20 14  2  0
 21 16  2  0
 22 15  1  0
 23 13  1  0
 25 27  2  0
 26 25  1  0
 28 26  1  0
 29 38  2  0
 29 34  1  0
 30 26  1  0
 30 34  1  0
 31 30  1  0
 32 33  1  0
 32 31  1  0
 33 29  1  0
 34 35  2  0
 35 36  1  0
 37 36  2  0
 38 37  1  0
 39 13  1  0
 39 40  1  0
 39 49  1  0
 40 43  1  0
 41 45  1  0
 41 40  1  0
 42 41  2  0
 45 44  1  0
 47 45  1  0
 47 48  1  0
 47 46  1  0
 49 52  1  1
 49 50  1  0
 51 49  1  0
 54 55  1  0
 54 53  1  0
 56 64  1  0
 57 62  1  0
 58 59  1  0
 58 57  1  0
 60 59  1  0
 60 69  1  0
 60 61  1  0
 62 56  1  0
 62 61  1  0
 63 56  2  0
 64 65  1  0
 64 55  1  0
 66 67  2  0
 67 86  1  0
 68 67  1  0
 68 71  1  0
 69 70  1  0
 69 66  1  0
 70 68  2  0
 71 72  1  0
 72 73  2  0
 74 77  1  0
 74 73  1  0
 75 74  2  0
 76 75  1  0
 76 71  2  0
 77 78  1  0
 78 79  1  0
 79 80  2  0
 81 80  1  0
 81 85  1  0
 82 81  2  0
 83 78  2  0
 83 82  1  0
 84 83  1  0
 86 87  1  0
 87 90  1  0
 87 89  1  0
 88 86  2  0
 91 92  1  0
 91 66  1  0
 93 91  1  0
M  ISO  4  11 101  12 101  56 100  64 100
M  END
>  <TORSDO>  (70) 
F 21

>  <SCORE>  (70) 
-13.336

>  <name>  (70) 
69

>  <ligand_id>  (70) 
69

>  <original_smiles>  (70) 
[H]c1c([H])c([H])c2c(c1[H])C([H])([H])C([H])([H])C([H])([H])C2([H])N([H])C(=O)C1([H])N(C(=O)C([H])(N([H])C(=O)C([H])(N([H])C([H])([H])[H])C([H])([H])[H])C(C([H])([H])[H])(C([H])([H])[H])C([H])([H])[H])C([H])([H])c2c([H])c(OC([H])([H])c3c(C([H])([H])C([H])([H])[H])nc(C([H])([H])C([H])([H])C([H])([H])N([H])C(=O)N4C([H])([H])C([H])([H])C([H])([H])C([H])(n5nc(-c6c([H])c([H])c(Oc7c([H])c([H])c(F)c([H])c7F)c([H])c6[H])c(C(=O)N([H])[H])c5N([H])[H])C4([H])[H])c(Cl)c3C([H])([H])[H])c([H])c([H])c2C1([H])[H]

>  <smiles>  (70) 
[H]c1c([H])c([H])c2c(c1[H])C([H])([H])C([H])([H])C([H])([H])C2([H])N([H])C(=O)C1([H])N(C(=O)C([H])(N([H])C(=O)C([H])(N([H])C([H])([H])[H])C([H])([H])[H])C(C([H])([H])[H])(C([H])([H])[H])C([H])([H])[H])C([H])([H])c2c([H])c(OC([H])([H])c3c(C([H])([H])C([H])([H])[H])nc(C([H])([H])C([H])([H])C([H])([H])N([H])C(=O)N4C([H])([H])C([H])([H])C([H])([H])C([H])(n5nc(-c6c([H])c([H])c(Oc7c([H])c([H])c(F)c([H])c7F)c([H])c6[H])c(C(=O)N([H])[H])c5N([H])[H])C4([H])[H])c(Cl)c3C([H])([H])[H])c([H])c([H])c2C1([H])[H]

$$$$
70:0:0
     RDKit          3D

 90 98  0  0  1  0  0  0  0  0999 V2000
  -30.9620  -18.9690   20.3230 C   0  0  0  0  0  3  0  0  0  0  0  0
  -28.8690  -19.4960   20.4090 C   0  0  0  0  0  3  0  0  0  0  0  0
  -29.7210  -18.2890   20.3490 C   0  0  0  0  0  0  0  0  0  0  0  0
  -30.8750  -20.3600   20.5380 C   0  0  0  0  0  0  0  0  0  0  0  0
  -29.5140  -20.8820   20.4660 N   0  0  0  0  0  0  0  0  0  0  0  0
  -30.3260  -15.3670   20.2040 C   0  0  0  0  0  0  0  0  0  0  0  0
  -30.3180  -12.9030   19.3100 C   0  0  0  0  0  2  0  0  0  0  0  0
  -29.3840  -12.6670   18.0940 C   0  0  0  0  0  2  0  0  0  0  0  0
  -27.9500  -12.3640   18.5570 C   0  0  0  0  0  2  0  0  0  0  0  0
  -27.4980  -13.3260   19.6830 C   0  0  0  0  0  3  0  0  0  0  0  0
  -28.5600  -13.5020   20.7920 C   0  0  0  0  0  2  0  0  0  0  0  0
  -29.7690  -14.0450   20.1420 N   0  0  0  0  0  0  0  0  0  0  0  0
  -31.5430  -15.3550   19.9570 O   0  0  0  0  0  0  0  0  0  0  0  0
  -29.5450  -16.6470   20.3480 N   0  0  0  0  0  0  0  0  0  0  0  0
  -28.5800  -16.3920   20.4950 H   0  0  0  0  0  0  0  0  0  0  0  0
  -25.1320  -13.8570   20.4690 C   0  0  0  0  0  0  0  0  0  0  0  0
  -24.0830  -13.0740   20.8490 C   0  0  0  0  0  0  0  0  0  0  0  0
  -24.5580  -11.7250   20.8070 C   0  0  0  0  0  0  0  0  0  0  0  0
  -26.1800  -12.9930   20.2090 N   0  0  0  0  0  0  0  0  0  0  0  0
  -25.8480  -11.7020   20.4810 N   0  0  0  0  0  0  0  0  0  0  0  0
  -23.8400  -10.4600   21.0010 C   0  0  0  0  0  0  0  0  0  0  0  0
  -24.2830   -9.4930   21.9310 C   0  0  0  0  0  3  0  0  0  0  0  0
  -23.5620   -8.2930   22.1170 C   0  0  0  0  0  3  0  0  0  0  0  0
  -22.3810   -8.0520   21.3750 C   0  0  0  0  0  0  0  0  0  0  0  0
  -21.9550   -9.0080   20.4370 C   0  0  0  0  0  3  0  0  0  0  0  0
  -22.6780  -10.1980   20.2490 C   0  0  0  0  0  3  0  0  0  0  0  0
  -21.6310   -6.9050   21.4720 O   0  0  0  0  0  0  0  0  0  0  0  0
  -21.5950   -6.1620   22.6250 C   0  0  0  0  0  0  0  0  0  0  0  0
  -21.1740   -6.7130   23.8530 C   0  0  0  0  0  3  0  0  0  0  0  0
  -21.0860   -5.8970   24.9980 C   0  0  0  0  0  3  0  0  0  0  0  0
  -21.4110   -4.5290   24.9150 C   0  0  0  0  0  0  0  0  0  0  0  0
  -21.8240   -3.9760   23.6900 C   0  0  0  0  0  3  0  0  0  0  0  0
  -21.9150   -4.7920   22.5470 C   0  0  0  0  0  0  0  0  0  0  0  0
  -22.2930   -4.2490   21.3650 F   0  0  0  0  0  0  0  0  0  0  0  0
  -21.3180   -3.7420   26.0130 F   0  0  0  0  0  0  0  0  0  0  0  0
  -22.6850  -13.5400   21.1320 C   0  0  0  0  0  0  0  0  0  0  0  0
  -21.9700  -12.8440   22.0060 N   0  0  0  0  0  0  0  0  0  0  0  0
  -22.2390  -14.5640   20.6140 O   0  0  0  0  0  0  0  0  0  0  0  0
  -22.3430  -12.0150   22.4450 H   0  0  0  0  0  0  0  0  0  0  0  0
  -21.0350  -13.1450   22.2430 H   0  0  0  0  0  0  0  0  0  0  0  0
  -25.2760  -15.2320   20.2900 N   0  0  0  0  0  0  0  0  0  0  0  0
  -24.4910  -15.8620   20.4130 H   0  0  0  0  0  0  0  0  0  0  0  0
  -26.0880  -15.6860   19.8960 H   0  0  0  0  0  0  0  0  0  0  0  0
  -33.3950  -20.2030   21.0530 C   0  0  0  0  0  1  0  0  0  0  0  0
  -32.1540  -21.9680   22.1550 C   0  0  0  0  0  1  0  0  0  0  0  0
  -32.5370  -22.0070   19.6210 C   0  0  0  0  0  1  0  0  0  0  0  0
  -32.1700  -21.1480   20.8370 C   0  0  2  0  0  0  0  0  0  0  0  0
  -29.0490  -22.5490   20.7590 C   0  0  0  0  0  2  0  0  0  0  0  0
  -28.2060  -24.0420   20.0320 C   0  0  0  0  0  2  0  0  0  0  0  0
  -28.2320  -25.7230   20.3260 O   0  0  0  0  0  0  0  0  0  0  0  0
  -24.5860  -31.8020   23.1400 C   0  0  0  0  0  0  0  0  0  0  0  0
  -27.2100  -26.8430   20.2000 C   0  0  0  0  0  0  0  0  0  0  0  0
  -23.4210  -30.3930   21.4880 C   0  0  0  0  0  3  0  0  0  0  0  0
  -24.9000  -28.7700   20.0950 C   0  0  0  0  0  0  0  0  0  0  0  0
  -25.9900  -30.5890   21.3910 C   0  0  0  0  0  2  0  0  0  0  0  0
  -26.0770  -29.1660   20.7430 C   0  0  0  0  0  0  0  0  0  0  0  0
  -27.2140  -28.2250   20.7730 C   0  0  0  0  0  3  0  0  0  0  0  0
  -25.9990  -26.6200   19.4970 C   0  0  0  0  0  3  0  0  0  0  0  0
  -24.8930  -27.5160   19.4540 C   0  0  0  0  0  3  0  0  0  0  0  0
  -23.6800  -29.6990   20.1200 C   0  0  0  0  0  2  0  0  0  0  0  0
  -24.6860  -30.9570   22.0610 N   0  0  0  0  0  0  0  0  0  0  0  0
  -23.4880  -32.1000   23.6380 O   0  0  0  0  0  0  0  0  0  0  0  0
  -22.7020  -29.4100   22.4490 C   0  0  0  0  0  0  0  0  0  0  0  0
  -21.3680  -29.2780   22.3310 N   0  0  0  0  0  0  0  0  0  0  0  0
  -23.3550  -28.7630   23.2710 O   0  0  0  0  0  0  0  0  0  0  0  0
  -20.8910  -29.8510   21.6510 H   0  0  0  0  0  0  0  0  0  0  0  0
  -17.9590  -28.1470   22.8570 C   0  0  0  0  0  0  0  0  0  0  0  0
  -20.5280  -28.3460   23.0940 C   0  0  0  0  0  3  0  0  0  0  0  0
  -20.5870  -26.9220   22.4890 C   0  0  0  0  0  2  0  0  0  0  0  0
  -19.4670  -26.6500   21.4810 C   0  0  0  0  0  2  0  0  0  0  0  0
  -18.0960  -26.8120   22.1440 C   0  0  0  0  0  2  0  0  0  0  0  0
  -19.1010  -28.8760   23.2860 C   0  0  0  0  0  0  0  0  0  0  0  0
  -18.9170  -30.1280   23.9120 C   0  0  0  0  0  3  0  0  0  0  0  0
  -17.6260  -30.6520   24.1110 C   0  0  0  0  0  3  0  0  0  0  0  0
  -16.4980  -29.9190   23.6990 C   0  0  0  0  0  3  0  0  0  0  0  0
  -16.6670  -28.6690   23.0780 C   0  0  0  0  0  3  0  0  0  0  0  0
  -25.8470  -32.4480   23.7920 C   0  0  0  0  0  3  0  0  0  0  0  0
  -26.3330  -31.6820   25.0840 C   0  0  1  0  0  0  0  0  0  0  0  0
  -25.2170  -31.4560   26.1300 C   0  0  0  0  0  1  0  0  0  0  0  0
  -26.9210  -30.2990   24.7210 C   0  0  0  0  0  1  0  0  0  0  0  0
  -27.4740  -32.4760   25.7650 C   0  0  0  0  0  1  0  0  0  0  0  0
  -25.5240  -33.8470   24.1300 N   0  0  0  0  0  0  0  0  0  0  0  0
  -25.8650  -34.9130   23.3940 C   0  0  0  0  0  0  0  0  0  0  0  0
  -26.5450  -34.8230   22.3690 O   0  0  0  0  0  0  0  0  0  0  0  0
  -24.9190  -33.9920   24.9240 H   0  0  0  0  0  0  0  0  0  0  0  0
  -24.1410  -36.7160   23.0620 C   0  0  0  0  0  1  0  0  0  0  0  0
  -25.3800  -36.2990   23.8690 C   0  0  0  0  0  3  0  0  0  0  0  0
  -27.5090  -37.1790   24.7200 C   0  0  0  0  0  1  0  0  0  0  0  0
  -26.4140  -37.3520   23.7680 N   0  0  0  0  0  0  0  0  0  0  0  0
  -26.0110  -38.2720   23.9190 H   0  0  0  0  0  0  0  0  0  0  0  0
  1  3  1  0
  1  4  2  0
  2  5  1  0
  3  2  2  0
  4 47  1  0
  5  4  1  0
  5 48  1  0
  6 14  1  0
  7 12  1  0
  8  9  1  0
  8  7  1  0
 10  9  1  0
 10 19  1  0
 10 11  1  0
 12  6  1  0
 12 11  1  0
 13  6  2  0
 14  3  1  0
 14 15  1  0
 16 17  2  0
 17 36  1  0
 18 17  1  0
 18 21  1  0
 19 16  1  0
 19 20  1  0
 20 18  2  0
 21 22  1  0
 22 23  2  0
 24 27  1  0
 24 23  1  0
 25 24  2  0
 26 25  1  0
 26 21  2  0
 27 28  1  0
 28 29  1  0
 29 30  2  0
 31 30  1  0
 31 35  1  0
 32 31  2  0
 33 28  2  0
 33 32  1  0
 34 33  1  0
 36 37  1  0
 37 40  1  0
 37 39  1  0
 38 36  2  0
 41 42  1  0
 41 16  1  0
 43 41  1  0
 47 46  1  6
 47 44  1  0
 47 45  1  0
 49 50  1  0
 49 48  1  0
 51 62  2  0
 52 50  1  0
 52 57  1  0
 53 61  1  0
 53 63  1  0
 54 60  1  0
 54 56  1  0
 55 61  1  0
 56 57  2  0
 56 55  1  0
 58 52  2  0
 59 58  1  0
 59 54  2  0
 60 53  1  0
 61 51  1  0
 63 65  2  0
 64 63  1  0
 66 64  1  0
 67 76  2  0
 67 72  1  0
 68 64  1  0
 68 72  1  0
 69 68  1  0
 70 71  1  0
 70 69  1  0
 71 67  1  0
 72 73  2  0
 73 74  1  0
 75 74  2  0
 76 75  1  0
 77 51  1  0
 77 82  1  0
 77 78  1  0
 78 81  1  1
 78 79  1  0
 80 78  1  0
 82 85  1  0
 83 87  1  0
 83 82  1  0
 84 83  2  0
 87 86  1  0
 89 87  1  0
 89 90  1  0
 89 88  1  0
M  ISO  4   6 100  14 100  49 101  50 101
M  END
>  <TORSDO>  (71) 
F 19

>  <SCORE>  (71) 
-15.334

>  <name>  (71) 
70

>  <ligand_id>  (71) 
70

>  <original_smiles>  (71) 
[H]c1c([H])c([H])c2c(c1[H])C([H])([H])C([H])([H])C([H])([H])C2([H])N([H])C(=O)C1([H])N(C(=O)C([H])(N([H])C(=O)C([H])(N([H])C([H])([H])[H])C([H])([H])[H])C(C([H])([H])[H])(C([H])([H])[H])C([H])([H])[H])C([H])([H])c2c([H])c(OC([H])([H])C([H])([H])n3c([H])c(N([H])C(=O)N4C([H])([H])C([H])([H])C([H])([H])C([H])(n5nc(-c6c([H])c([H])c(Oc7c([H])c([H])c(F)c([H])c7F)c([H])c6[H])c(C(=O)N([H])[H])c5N([H])[H])C4([H])[H])c([H])c3C(C([H])([H])[H])(C([H])([H])[H])C([H])([H])[H])c([H])c([H])c2C1([H])[H]

>  <smiles>  (71) 
[H]c1c([H])c([H])c2c(c1[H])C([H])([H])C([H])([H])C([H])([H])C2([H])N([H])C(=O)C1([H])N(C(=O)C([H])(N([H])C(=O)C([H])(N([H])C([H])([H])[H])C([H])([H])[H])C(C([H])([H])[H])(C([H])([H])[H])C([H])([H])[H])C([H])([H])c2c([H])c(OC([H])([H])C([H])([H])n3c([H])c(N([H])C(=O)N4C([H])([H])C([H])([H])C([H])([H])C([H])(n5nc(-c6c([H])c([H])c(Oc7c([H])c([H])c(F)c([H])c7F)c([H])c6[H])c(C(=O)N([H])[H])c5N([H])[H])C4([H])[H])c([H])c3C(C([H])([H])[H])(C([H])([H])[H])C([H])([H])[H])c([H])c([H])c2C1([H])[H]

$$$$
71:0:0
     RDKit          3D

 90 92  0  0  1  0  0  0  0  0999 V2000
  -25.3500  -21.6700   20.0120 C   0  0  0  0  0  3  0  0  0  0  0  0
  -27.8290  -21.2580   19.3680 C   0  0  0  0  0  3  0  0  0  0  0  0
  -25.5450  -23.2400   19.8130 C   0  0  0  0  0  3  0  0  0  0  0  0
  -27.6080  -19.6870   19.5640 C   0  0  0  0  0  3  0  0  0  0  0  0
  -26.1530  -20.2330   19.9070 C   0  0  0  0  0  0  0  0  0  0  0  0
  -27.0110  -22.7020   19.4440 C   0  0  0  0  0  0  0  0  0  0  0  0
  -25.0890  -18.9120   20.2610 Cl  0  0  0  0  0  0  0  0  0  0  0  0
  -28.0240  -24.0050   18.9360 Cl  0  0  0  0  0  0  0  0  0  0  0  0
  -29.6230  -16.5020   19.2090 C   0  0  0  0  0  0  0  0  0  0  0  0
  -30.3700  -13.8370   18.4060 C   0  0  0  0  0  2  0  0  0  0  0  0
  -29.5320  -12.9510   17.4040 C   0  0  0  0  0  2  0  0  0  0  0  0
  -28.2750  -12.3830   18.0710 C   0  0  0  0  0  2  0  0  0  0  0  0
  -27.7500  -13.4250   19.0700 C   0  0  0  0  0  3  0  0  0  0  0  0
  -28.7880  -14.0050   20.0350 C   0  0  0  0  0  2  0  0  0  0  0  0
  -29.5400  -14.9550   19.1960 N   0  0  0  0  0  0  0  0  0  0  0  0
  -30.8590  -16.5140   18.8710 O   0  0  0  0  0  0  0  0  0  0  0  0
  -28.5260  -17.8870   19.4310 N   0  0  0  0  0  2  0  0  0  0  0  0
  -29.3570  -18.3600   19.1030 H   0  0  0  0  0  0  0  0  0  0  0  0
  -25.6870  -13.9680   20.3330 C   0  0  0  0  0  0  0  0  0  0  0  0
  -24.6800  -13.2040   20.8310 C   0  0  0  0  0  0  0  0  0  0  0  0
  -25.0520  -11.8450   20.5840 C   0  0  0  0  0  0  0  0  0  0  0  0
  -26.5750  -13.0700   19.7890 N   0  0  0  0  0  0  0  0  0  0  0  0
  -26.2440  -11.7780   20.0070 N   0  0  0  0  0  0  0  0  0  0  0  0
  -24.3030  -10.6080   20.7970 C   0  0  0  0  0  0  0  0  0  0  0  0
  -24.7540   -9.6140   21.6900 C   0  0  0  0  0  3  0  0  0  0  0  0
  -23.9960   -8.4410   21.8900 C   0  0  0  0  0  3  0  0  0  0  0  0
  -22.7750   -8.2600   21.1980 C   0  0  0  0  0  0  0  0  0  0  0  0
  -22.3460   -9.2420   20.2890 C   0  0  0  0  0  3  0  0  0  0  0  0
  -23.1040  -10.4060   20.0860 C   0  0  0  0  0  3  0  0  0  0  0  0
  -21.9820   -7.1460   21.3130 O   0  0  0  0  0  0  0  0  0  0  0  0
  -21.8090   -6.5100   22.5150 C   0  0  0  0  0  0  0  0  0  0  0  0
  -21.2890   -7.1800   23.6440 C   0  0  0  0  0  3  0  0  0  0  0  0
  -21.0610   -6.4680   24.8400 C   0  0  0  0  0  3  0  0  0  0  0  0
  -21.3440   -5.0910   24.9040 C   0  0  0  0  0  0  0  0  0  0  0  0
  -21.8570   -4.4220   23.7790 C   0  0  0  0  0  3  0  0  0  0  0  0
  -22.0870   -5.1310   22.5860 C   0  0  0  0  0  0  0  0  0  0  0  0
  -22.5620   -4.4800   21.4970 F   0  0  0  0  0  0  0  0  0  0  0  0
  -21.1180   -4.4040   26.0480 F   0  0  0  0  0  0  0  0  0  0  0  0
  -23.4010  -13.7220   21.4050 C   0  0  0  0  0  0  0  0  0  0  0  0
  -22.8190  -12.9950   22.3500 N   0  0  0  0  0  0  0  0  0  0  0  0
  -22.9420  -14.8080   21.0520 O   0  0  0  0  0  0  0  0  0  0  0  0
  -23.2140  -12.1160   22.6490 H   0  0  0  0  0  0  0  0  0  0  0  0
  -21.9630  -13.3210   22.7790 H   0  0  0  0  0  0  0  0  0  0  0  0
  -25.9100  -15.3430   20.2610 N   0  0  0  0  0  0  0  0  0  0  0  0
  -25.2610  -16.0180   20.6480 H   0  0  0  0  0  0  0  0  0  0  0  0
  -26.7280  -15.7790   19.8560 H   0  0  0  0  0  0  0  0  0  0  0  0
  -24.1980  -24.9980   19.8530 C   0  0  0  0  0 15  0  0  0  0  0  0
  -23.2610  -27.1690   19.9860 C   0  0  0  0  0 15  0  0  0  0  0  0
  -23.0170  -29.2050   21.8950 C   0  0  0  0  0 15  0  0  0  0  0  0
  -25.4520  -28.5570   22.6610 O   0  0  0  0  0  1  0  0  0  0  0  0
  -24.5380  -31.1800   22.7940 C   0  0  0  0  0  0  0  0  0  0  0  0
  -26.7880  -27.9970   21.8590 C   0  0  0  0  0  3  0  0  0  0  0  0
  -24.6260  -28.6310   20.7540 C   0  0  0  0  0  2  0  0  0  0  0  0
  -26.0320  -28.8750   19.4580 C   0  0  1  0  0  0  0  0  0  0  0  0
  -26.0580  -30.9330   20.9150 C   0  0  0  0  0  2  0  0  0  0  0  0
  -26.7520  -29.7250   20.3920 C   0  0  0  0  0  3  0  0  0  0  0  0
  -27.5130  -29.0860   21.3890 C   0  0  0  0  0  2  0  0  0  0  0  0
  -26.9180  -27.0510   20.6870 C   0  0  0  0  0  2  0  0  0  0  0  0
  -26.4680  -27.5180   19.4010 C   0  0  0  0  0  2  0  0  0  0  0  0
  -24.5270  -29.0180   19.3300 C   0  0  0  0  0  2  0  0  0  0  0  0
  -24.8730  -30.4100   21.5190 N   0  0  0  0  0  2  0  0  0  0  0  0
  -23.3830  -31.2980   23.2590 O   0  0  0  0  0  0  0  0  0  0  0  0
  -23.7960  -26.9880   22.6330 C   0  0  0  0  0  2  0  0  0  0  0  0
  -22.2920  -26.6900   22.5030 N   0  0  0  0  0  0  0  0  0  0  0  0
  -23.7720  -27.3700   23.8150 O   0  0  0  0  0  1  0  0  0  0  0  0
  -22.2220  -26.3150   21.5670 H   0  0  0  0  0  0  0  0  0  0  0  0
  -18.3420  -27.1000   21.7360 C   0  0  0  0  0  0  0  0  0  0  0  0
  -20.7960  -26.8850   22.9420 C   0  0  0  0  0  3  0  0  0  0  0  0
  -20.5440  -25.5330   22.2810 C   0  0  0  0  0  2  0  0  0  0  0  0
  -20.0520  -25.6040   20.8230 C   0  0  0  0  0  2  0  0  0  0  0  0
  -18.5780  -25.8630   20.9090 C   0  0  0  0  0  2  0  0  0  0  0  0
  -19.4080  -27.7270   22.5050 C   0  0  0  0  0  0  0  0  0  0  0  0
  -18.9480  -28.9240   23.1540 C   0  0  0  0  0  3  0  0  0  0  0  0
  -17.6010  -29.4040   23.0840 C   0  0  0  0  0  3  0  0  0  0  0  0
  -16.6040  -28.7010   22.3840 C   0  0  0  0  0  3  0  0  0  0  0  0
  -16.9950  -27.5450   21.7040 C   0  0  0  0  0  3  0  0  0  0  0  0
  -25.5100  -32.0860   23.7860 C   0  0  0  0  0  3  0  0  0  0  0  0
  -25.7930  -31.5180   25.2710 C   0  0  1  0  0  0  0  0  0  0  0  0
  -24.5270  -31.2890   26.1390 C   0  0  0  0  0  1  0  0  0  0  0  0
  -26.5450  -30.1810   25.2050 C   0  0  0  0  0  1  0  0  0  0  0  0
  -26.7210  -32.4640   26.1050 C   0  0  0  0  0  1  0  0  0  0  0  0
  -25.0170  -33.4900   24.0150 N   0  0  0  0  0  0  0  0  0  0  0  0
  -25.4960  -34.6260   23.4630 C   0  0  0  0  0  0  0  0  0  0  0  0
  -26.3680  -34.6010   22.5950 O   0  0  0  0  0  0  0  0  0  0  0  0
  -24.2530  -33.5740   24.6680 H   0  0  0  0  0  0  0  0  0  0  0  0
  -23.7320  -36.3830   22.9850 C   0  0  0  0  0  1  0  0  0  0  0  0
  -24.9140  -36.0060   23.8940 C   0  0  0  0  0  3  0  0  0  0  0  0
  -26.9030  -37.0720   24.9070 C   0  0  0  0  0  1  0  0  0  0  0  0
  -25.8870  -37.1290   23.8620 N   0  0  0  0  0  0  0  0  0  0  0  0
  -25.4010  -38.0190   23.9440 H   0  0  0  0  0  0  0  0  0  0  0  0
  2  6  2  0
  2  4  1  0
  3  1  2  0
  4  5  2  0
  5  1  1  0
  5  7  1  0
  6  3  1  0
  8  6  1  0
  9 17  1  0
 10 15  1  0
 11 12  1  0
 11 10  1  0
 13 12  1  0
 13 22  1  0
 13 14  1  0
 15  9  1  0
 15 14  1  0
 16  9  2  0
 18 17  1  0
 19 20  2  0
 20 39  1  0
 21 24  1  0
 21 20  1  0
 22 23  1  0
 22 19  1  0
 23 21  2  0
 24 25  1  0
 25 26  2  0
 27 30  1  0
 27 26  1  0
 28 27  2  0
 29 28  1  0
 29 24  2  0
 30 31  1  0
 31 36  2  0
 31 32  1  0
 32 33  2  0
 33 34  1  0
 34 38  1  0
 35 34  2  0
 36 35  1  0
 37 36  1  0
 39 40  1  0
 40 42  1  0
 40 43  1  0
 41 39  2  0
 44 19  1  0
 44 45  1  0
 46 44  1  0
 51 62  2  0
 52 50  1  0
 54 56  1  0
 54 53  1  1
 55 61  1  0
 56 55  1  0
 56 57  1  0
 57 52  1  0
 58 52  1  0
 59 54  1  0
 59 58  1  0
 60 54  1  0
 60 53  1  0
 61 51  1  0
 63 65  1  0
 64 63  1  0
 66 64  1  0
 67 72  1  0
 68 64  1  0
 69 68  1  0
 70 71  1  0
 70 69  1  0
 71 67  1  0
 72 68  1  0
 72 73  2  0
 74 73  1  0
 75 74  2  0
 76 67  2  0
 76 75  1  0
 77 51  1  0
 77 82  1  0
 77 78  1  0
 78 81  1  1
 78 79  1  0
 80 78  1  0
 82 85  1  0
 83 87  1  0
 83 82  1  0
 84 83  2  0
 87 86  1  0
 89 87  1  0
 89 90  1  0
 89 88  1  0
M  ISO  4   9 100  17 100  49 101  50 101
M  END
>  <TORSDO>  (72) 
F 19

>  <SCORE>  (72) 
-6.752

>  <name>  (72) 
71

>  <ligand_id>  (72) 
71

>  <original_smiles>  (72) 
[H]c1c([H])c([H])c2c(c1[H])C([H])([H])C([H])([H])C([H])([H])C2([H])N([H])C(=O)C1([H])N(C(=O)C([H])(N([H])C(=O)C([H])(N([H])C([H])([H])[H])C([H])([H])[H])C(C([H])([H])[H])(C([H])([H])[H])C([H])([H])[H])C([H])([H])c2c([H])c(OC([H])([H])C([H])([H])C([H])([H])c3c([H])c(Cl)c(N([H])C(=O)N4C([H])([H])C([H])([H])C([H])([H])C([H])(n5nc(-c6c([H])c([H])c(Oc7c([H])c([H])c(F)c([H])c7F)c([H])c6[H])c(C(=O)N([H])[H])c5N([H])[H])C4([H])[H])c([H])c3Cl)c([H])c([H])c2C1([H])[H]

>  <smiles>  (72) 
[H]c1c([H])c([H])c2c(c1[H])C([H])([H])C([H])([H])C([H])([H])C2([H])N([H])C(=O)C1([H])N(C(=O)C([H])(N([H])C(=O)C([H])(N([H])C([H])([H])[H])C([H])([H])[H])C(C([H])([H])[H])(C([H])([H])[H])C([H])([H])[H])C([H])([H])c2c([H])c(OC([H])([H])C([H])([H])C([H])([H])c3c([H])c(Cl)c(N([H])C(=O)N4C([H])([H])C([H])([H])C([H])([H])C([H])(n5nc(-c6c([H])c([H])c(Oc7c([H])c([H])c(F)c([H])c7F)c([H])c6[H])c(C(=O)N([H])[H])c5N([H])[H])C4([H])[H])c([H])c3Cl)c([H])c([H])c2C1([H])[H]

$$$$
72:0:0
     RDKit          3D

 89 97  0  0  1  0  0  0  0  0999 V2000
  -30.9010  -15.4240   19.9790 C   0  0  0  0  0  0  0  0  0  0  0  0
  -30.9340  -12.9050   19.3760 C   0  0  0  0  0  2  0  0  0  0  0  0
  -30.0520  -12.5910   18.1390 C   0  0  0  0  0  2  0  0  0  0  0  0
  -28.5870  -12.3630   18.5540 C   0  0  0  0  0  2  0  0  0  0  0  0
  -28.1000  -13.4340   19.5620 C   0  0  0  0  0  3  0  0  0  0  0  0
  -29.1100  -13.6780   20.7040 C   0  0  0  0  0  2  0  0  0  0  0  0
  -30.3700  -14.1100   20.0790 N   0  0  0  0  0  0  0  0  0  0  0  0
  -32.1140  -15.4470   19.7190 O   0  0  0  0  0  0  0  0  0  0  0  0
  -30.6480  -20.5090   18.9960 C   0  0  0  0  0  3  0  0  0  0  0  0
  -29.5150  -21.3540   19.3740 C   0  0  0  0  0  0  0  0  0  0  0  0
  -28.5880  -20.4310   20.0120 C   0  0  0  0  0  0  0  0  0  0  0  0
  -28.8120  -18.9690   20.1910 C   0  0  0  0  0  0  0  0  0  0  0  0
  -29.9910  -18.2120   19.7800 C   0  0  0  0  0  0  0  0  0  0  0  0
  -27.3050  -21.0240   20.5740 C   0  0  0  0  0  1  0  0  0  0  0  0
  -30.8700  -19.1100   19.1700 N   0  0  0  0  0  0  0  0  0  0  0  0
  -30.0580  -16.6260   20.0350 N   0  0  0  0  0  0  0  0  0  0  0  0
  -27.5820  -18.0540   20.9920 Cl  0  0  0  0  0  0  0  0  0  0  0  0
  -29.1490  -16.3340   20.3590 H   0  0  0  0  0  0  0  0  0  0  0  0
  -25.7410  -14.0700   20.3020 C   0  0  0  0  0  0  0  0  0  0  0  0
  -24.6520  -13.3290   20.6610 C   0  0  0  0  0  0  0  0  0  0  0  0
  -25.0700  -11.9630   20.6150 C   0  0  0  0  0  0  0  0  0  0  0  0
  -26.7560  -13.1630   20.0560 N   0  0  0  0  0  0  0  0  0  0  0  0
  -26.3620  -11.8880   20.3110 N   0  0  0  0  0  0  0  0  0  0  0  0
  -24.2960  -10.7270   20.7830 C   0  0  0  0  0  0  0  0  0  0  0  0
  -24.7230   -9.6990   21.6530 C   0  0  0  0  0  3  0  0  0  0  0  0
  -23.9490   -8.5290   21.8130 C   0  0  0  0  0  3  0  0  0  0  0  0
  -22.7330   -8.3790   21.1040 C   0  0  0  0  0  0  0  0  0  0  0  0
  -22.3240   -9.3960   20.2220 C   0  0  0  0  0  3  0  0  0  0  0  0
  -23.0990  -10.5560   20.0600 C   0  0  0  0  0  3  0  0  0  0  0  0
  -21.9300   -7.2680   21.1790 O   0  0  0  0  0  0  0  0  0  0  0  0
  -21.9670   -6.4230   22.2590 C   0  0  0  0  0  0  0  0  0  0  0  0
  -21.6980   -6.8750   23.5690 C   0  0  0  0  0  3  0  0  0  0  0  0
  -21.6800   -5.9600   24.6400 C   0  0  0  0  0  3  0  0  0  0  0  0
  -21.9200   -4.5930   24.4030 C   0  0  0  0  0  0  0  0  0  0  0  0
  -22.1830   -4.1400   23.0980 C   0  0  0  0  0  3  0  0  0  0  0  0
  -22.2030   -5.0520   22.0290 C   0  0  0  0  0  0  0  0  0  0  0  0
  -22.4360   -4.6070   20.7710 F   0  0  0  0  0  0  0  0  0  0  0  0
  -21.8950   -3.7110   25.4300 F   0  0  0  0  0  0  0  0  0  0  0  0
  -23.2720  -13.8540   20.9300 C   0  0  0  0  0  0  0  0  0  0  0  0
  -22.5390  -13.2140   21.8340 N   0  0  0  0  0  0  0  0  0  0  0  0
  -22.8550  -14.8690   20.3740 O   0  0  0  0  0  0  0  0  0  0  0  0
  -22.8900  -12.3950   22.3080 H   0  0  0  0  0  0  0  0  0  0  0  0
  -21.6120  -13.5490   22.0570 H   0  0  0  0  0  0  0  0  0  0  0  0
  -25.9430  -15.4360   20.1340 N   0  0  0  0  0  0  0  0  0  0  0  0
  -25.1920  -16.1030   20.2660 H   0  0  0  0  0  0  0  0  0  0  0  0
  -26.8010  -15.8710   19.8290 H   0  0  0  0  0  0  0  0  0  0  0  0
  -29.5020  -23.1000   19.3420 C   0  0  0  0  0  3  0  0  0  0  0  0
  -28.3530  -24.4280   19.0510 C   0  0  0  0  0  3  0  0  0  0  0  0
  -28.4860  -26.0450   19.2680 O   0  0  0  0  0  0  0  0  0  0  0  0
  -24.6580  -31.4250   22.8350 C   0  0  0  0  0  0  0  0  0  0  0  0
  -27.4040  -27.0580   19.3050 C   0  0  0  0  0  0  0  0  0  0  0  0
  -23.5020  -30.1390   21.0800 C   0  0  0  0  0  3  0  0  0  0  0  0
  -25.0010  -28.7750   19.4750 C   0  0  0  0  0  0  0  0  0  0  0  0
  -26.0450  -30.5140   20.9150 C   0  0  0  0  0  2  0  0  0  0  0  0
  -26.1750  -29.1890   20.1160 C   0  0  0  0  0  0  0  0  0  0  0  0
  -27.3700  -28.3530   20.0090 C   0  0  0  0  0  3  0  0  0  0  0  0
  -26.1950  -26.7860   18.6270 C   0  0  0  0  0  3  0  0  0  0  0  0
  -25.0310  -27.5940   18.7120 C   0  0  0  0  0  3  0  0  0  0  0  0
  -23.7350  -29.6140   19.6370 C   0  0  0  0  0  2  0  0  0  0  0  0
  -24.7550  -30.7150   21.6650 N   0  0  0  0  0  0  0  0  0  0  0  0
  -23.5670  -31.6030   23.4010 O   0  0  0  0  0  0  0  0  0  0  0  0
  -22.8870  -29.0100   21.9480 C   0  0  0  0  0  0  0  0  0  0  0  0
  -21.5550  -28.8280   21.8740 N   0  0  0  0  0  0  0  0  0  0  0  0
  -23.6110  -28.3040   22.6530 O   0  0  0  0  0  0  0  0  0  0  0  0
  -21.0230  -29.4590   21.2920 H   0  0  0  0  0  0  0  0  0  0  0  0
  -18.2410  -27.4280   22.3300 C   0  0  0  0  0  0  0  0  0  0  0  0
  -20.7940  -27.7800   22.5620 C   0  0  0  0  0  3  0  0  0  0  0  0
  -20.9380  -26.4190   21.8420 C   0  0  0  0  0  2  0  0  0  0  0  0
  -19.8240  -26.1530   20.8230 C   0  0  0  0  0  2  0  0  0  0  0  0
  -18.4560  -26.1650   21.5120 C   0  0  0  0  0  2  0  0  0  0  0  0
  -19.3380  -28.1950   22.8080 C   0  0  0  0  0  0  0  0  0  0  0  0
  -19.0800  -29.3760   23.5370 C   0  0  0  0  0  3  0  0  0  0  0  0
  -17.7600  -29.7930   23.7880 C   0  0  0  0  0  3  0  0  0  0  0  0
  -16.6790  -29.0230   23.3260 C   0  0  0  0  0  3  0  0  0  0  0  0
  -16.9200  -27.8420   22.6030 C   0  0  0  0  0  3  0  0  0  0  0  0
  -25.9090  -32.0640   23.5090 C   0  0  0  0  0  3  0  0  0  0  0  0
  -25.5500  -33.4310   23.9220 N   0  0  0  0  0  0  0  0  0  0  0  0
  -25.9580  -34.5520   23.3100 C   0  0  0  0  0  0  0  0  0  0  0  0
  -26.7360  -34.5410   22.3530 O   0  0  0  0  0  0  0  0  0  0  0  0
  -24.8710  -33.5130   24.6650 H   0  0  0  0  0  0  0  0  0  0  0  0
  -24.2660  -36.3810   22.9420 C   0  0  0  0  0  1  0  0  0  0  0  0
  -25.4170  -35.8970   23.8390 C   0  0  0  0  0  3  0  0  0  0  0  0
  -27.4350  -36.7100   24.9790 C   0  0  0  0  0  1  0  0  0  0  0  0
  -26.4510  -36.9520   23.9300 N   0  0  0  0  0  0  0  0  0  0  0  0
  -26.0260  -37.8600   24.0960 H   0  0  0  0  0  0  0  0  0  0  0  0
  -26.4330  -31.2420   24.7500 C   0  0  1  0  0  0  0  0  0  0  0  0
  -25.3400  -30.9340   25.8000 C   0  0  0  0  0  1  0  0  0  0  0  0
  -27.0450  -29.8930   24.3050 C   0  0  0  0  0  1  0  0  0  0  0  0
  -27.5650  -32.0270   25.4560 C   0  0  0  0  0  1  0  0  0  0  0  0
  1 16  1  0
  1  7  1  0
  2  7  1  0
  3  4  1  0
  3  2  1  0
  5  4  1  0
  5 22  1  0
  5  6  1  0
  7  6  1  0
  8  1  2  0
  9 15  2  0
  9 10  1  0
 10 11  2  0
 11 12  1  0
 11 14  1  0
 12 17  1  0
 13 16  1  0
 13 12  2  0
 15 13  1  0
 16 18  1  0
 19 20  2  0
 20 39  1  0
 21 20  1  0
 21 24  1  0
 22 19  1  0
 22 23  1  0
 23 21  2  0
 24 25  1  0
 25 26  2  0
 27 30  1  0
 27 26  1  0
 28 27  2  0
 29 28  1  0
 29 24  2  0
 30 31  1  0
 31 32  1  0
 32 33  2  0
 34 33  1  0
 34 38  1  0
 35 34  2  0
 36 31  2  0
 36 35  1  0
 37 36  1  0
 39 40  1  0
 40 43  1  0
 40 42  1  0
 41 39  2  0
 44 45  1  0
 44 19  1  0
 46 44  1  0
 47 10  1  0
 48 49  1  0
 48 47  2  0
 49 51  1  0
 50 61  2  0
 51 56  1  0
 52 60  1  0
 52 62  1  0
 53 59  1  0
 53 55  1  0
 54 60  1  0
 55 54  1  0
 56 55  2  0
 57 58  1  0
 57 51  2  0
 58 53  2  0
 59 52  1  0
 60 50  1  0
 62 64  2  0
 63 62  1  0
 65 63  1  0
 66 75  2  0
 66 71  1  0
 67 63  1  0
 67 71  1  0
 68 67  1  0
 69 70  1  0
 69 68  1  0
 70 66  1  0
 71 72  2  0
 72 73  1  0
 74 73  2  0
 75 74  1  0
 76 50  1  0
 76 77  1  0
 76 86  1  0
 77 80  1  0
 78 82  1  0
 78 77  1  0
 79 78  2  0
 82 81  1  0
 82 84  1  0
 84 85  1  0
 84 83  1  0
 86 89  1  1
 86 87  1  0
 88 86  1  0
M  ISO  4   1 100  16 100  48 101  49 101
M  END
>  <TORSDO>  (73) 
F 17

>  <SCORE>  (73) 
-12.859

>  <name>  (73) 
72

>  <ligand_id>  (73) 
72

>  <original_smiles>  (73) 
[H]c1nc(N([H])C(=O)N2C([H])([H])C([H])([H])C([H])([H])C([H])(n3nc(-c4c([H])c([H])c(Oc5c([H])c([H])c(F)c([H])c5F)c([H])c4[H])c(C(=O)N([H])[H])c3N([H])[H])C2([H])[H])c(Cl)c(C([H])([H])[H])c1C([H])([H])C([H])([H])Oc1c([H])c([H])c2c(c1[H])C([H])([H])N(C(=O)C([H])(N([H])C(=O)C([H])(N([H])C([H])([H])[H])C([H])([H])[H])C(C([H])([H])[H])(C([H])([H])[H])C([H])([H])[H])C([H])(C(=O)N([H])C1([H])c3c([H])c([H])c([H])c([H])c3C([H])([H])C([H])([H])C1([H])[H])C2([H])[H]

>  <smiles>  (73) 
[H]c1nc(N([H])C(=O)N2C([H])([H])C([H])([H])C([H])([H])C([H])(n3nc(-c4c([H])c([H])c(Oc5c([H])c([H])c(F)c([H])c5F)c([H])c4[H])c(C(=O)N([H])[H])c3N([H])[H])C2([H])[H])c(Cl)c(C([H])([H])[H])c1C([H])([H])C([H])([H])Oc1c([H])c([H])c2c(c1[H])C([H])([H])N(C(=O)C([H])(N([H])C(=O)C([H])(N([H])C([H])([H])[H])C([H])([H])[H])C(C([H])([H])[H])(C([H])([H])[H])C([H])([H])[H])C([H])(C(=O)N([H])C1([H])c3c([H])c([H])c([H])c([H])c3C([H])([H])C([H])([H])C1([H])[H])C2([H])[H]

$$$$
73:0:0
     RDKit          3D

 95103  0  0  1  0  0  0  0  0999 V2000
  -28.3800  -25.0010   18.4060 C   0  0  0  0  0  3  0  0  0  0  0  0
  -30.5010  -26.3460   17.3130 C   0  0  0  0  0  3  0  0  0  0  0  0
  -28.9440  -24.4890   17.2170 C   0  0  0  0  0  0  0  0  0  0  0  0
  -30.0380  -25.1880   16.6570 C   0  0  0  0  0  0  0  0  0  0  0  0
  -28.8890  -26.1940   18.9650 C   0  0  0  0  0  0  0  0  0  0  0  0
  -29.9490  -26.8440   18.4430 N   0  0  0  0  0  0  0  0  0  0  0  0
  -30.8140  -24.6810   15.1960 Cl  0  0  0  0  0  0  0  0  0  0  0  0
  -28.3990  -26.7420   20.1330 O   0  0  0  0  0  0  0  0  0  0  0  0
  -24.5780  -31.9180   23.2250 C   0  0  0  0  0  0  0  0  0  0  0  0
  -27.2310  -27.4750   20.1220 C   0  0  0  0  0  0  0  0  0  0  0  0
  -23.3770  -30.5230   21.5720 C   0  0  0  0  0  3  0  0  0  0  0  0
  -24.8340  -28.9820   20.1590 C   0  0  0  0  0  0  0  0  0  0  0  0
  -25.9120  -30.8630   21.4060 C   0  0  0  0  0  2  0  0  0  0  0  0
  -25.9920  -29.4970   20.7540 C   0  0  0  0  0  0  0  0  0  0  0  0
  -27.1920  -28.7470   20.7420 C   0  0  0  0  0  3  0  0  0  0  0  0
  -26.0450  -26.9640   19.5510 C   0  0  0  0  0  3  0  0  0  0  0  0
  -24.8540  -27.7100   19.5620 C   0  0  0  0  0  3  0  0  0  0  0  0
  -23.5930  -29.8420   20.1950 C   0  0  0  0  0  2  0  0  0  0  0  0
  -24.6380  -31.1210   22.1190 N   0  0  0  0  0  0  0  0  0  0  0  0
  -23.4940  -32.1950   23.7580 O   0  0  0  0  0  0  0  0  0  0  0  0
  -22.7180  -29.5040   22.5310 C   0  0  0  0  0  0  0  0  0  0  0  0
  -21.3920  -29.3280   22.4060 N   0  0  0  0  0  0  0  0  0  0  0  0
  -23.3980  -28.8730   23.3450 O   0  0  0  0  0  0  0  0  0  0  0  0
  -20.9140  -29.8660   21.6950 H   0  0  0  0  0  0  0  0  0  0  0  0
  -18.0030  -28.1930   22.9400 C   0  0  0  0  0  0  0  0  0  0  0  0
  -20.5680  -28.4070   23.1880 C   0  0  0  0  0  3  0  0  0  0  0  0
  -20.6300  -26.9780   22.6080 C   0  0  0  0  0  2  0  0  0  0  0  0
  -19.5280  -26.7190   21.5760 C   0  0  0  0  0  2  0  0  0  0  0  0
  -18.1580  -26.8540   22.2420 C   0  0  0  0  0  2  0  0  0  0  0  0
  -19.1390  -28.9320   23.3670 C   0  0  0  0  0  0  0  0  0  0  0  0
  -18.9460  -30.1940   23.9680 C   0  0  0  0  0  3  0  0  0  0  0  0
  -17.6520  -30.7170   24.1460 C   0  0  0  0  0  3  0  0  0  0  0  0
  -16.5310  -29.9750   23.7360 C   0  0  0  0  0  3  0  0  0  0  0  0
  -16.7070  -28.7120   23.1410 C   0  0  0  0  0  3  0  0  0  0  0  0
  -25.8650  -32.5410   23.8520 C   0  0  0  0  0  3  0  0  0  0  0  0
  -25.5580  -33.9410   24.1780 N   0  0  0  0  0  0  0  0  0  0  0  0
  -25.9080  -34.9900   23.4230 C   0  0  0  0  0  0  0  0  0  0  0  0
  -26.5950  -34.8830   22.4030 O   0  0  0  0  0  0  0  0  0  0  0  0
  -24.9380  -34.0980   24.9600 H   0  0  0  0  0  0  0  0  0  0  0  0
  -24.1970  -36.7940   23.0390 C   0  0  0  0  0  1  0  0  0  0  0  0
  -25.4200  -36.3810   23.8710 C   0  0  0  0  0  3  0  0  0  0  0  0
  -27.5460  -37.2480   24.7420 C   0  0  0  0  0  1  0  0  0  0  0  0
  -26.4630  -37.4260   23.7800 N   0  0  0  0  0  0  0  0  0  0  0  0
  -26.0610  -38.3490   23.9180 H   0  0  0  0  0  0  0  0  0  0  0  0
  -26.3780  -31.7680   25.1310 C   0  0  1  0  0  0  0  0  0  0  0  0
  -25.2830  -31.5350   26.1970 C   0  0  0  0  0  1  0  0  0  0  0  0
  -26.9600  -30.3850   24.7510 C   0  0  0  0  0  1  0  0  0  0  0  0
  -27.5290  -32.5610   25.7940 C   0  0  0  0  0  1  0  0  0  0  0  0
  -28.3380  -23.2710   16.5180 C   0  0  0  0  0  2  0  0  0  0  0  0
  -27.9270  -22.0900   17.4190 C   0  0  0  0  0  2  0  0  0  0  0  0
  -29.0850  -21.3550   18.1240 C   0  0  0  0  0  2  0  0  0  0  0  0
  -28.5540  -20.1510   18.9230 C   0  0  0  0  0  2  0  0  0  0  0  0
  -29.6480  -19.1790   19.4350 C   0  0  0  0  0  2  0  0  0  0  0  0
  -28.7930  -16.9780   18.5330 C   0  0  0  0  0  1  0  0  0  0  0  0
  -27.9190  -17.8610   20.7480 C   0  0  0  0  0  1  0  0  0  0  0  0
  -29.1530  -17.7540   19.8240 C   0  0  2  0  0  0  0  0  0  0  0  0
  -30.2890  -16.9990   20.5780 C   0  0  0  0  0  2  0  0  0  0  0  0
  -30.7500  -14.5350   20.5670 C   0  0  0  0  0  0  0  0  0  0  0  0
  -30.5100  -12.3450   19.4850 C   0  0  0  0  0  2  0  0  0  0  0  0
  -29.6050  -12.5300   18.2520 C   0  0  0  0  0  2  0  0  0  0  0  0
  -28.1190  -12.3890   18.6410 C   0  0  0  0  0  2  0  0  0  0  0  0
  -27.7400  -13.2280   19.8880 C   0  0  0  0  0  3  0  0  0  0  0  0
  -28.7670  -13.0510   21.0300 C   0  0  0  0  0  2  0  0  0  0  0  0
  -30.1010  -13.3450   20.4820 N   0  0  0  0  0  0  0  0  0  0  0  0
  -31.9120  -14.6950   20.1850 O   0  0  0  0  0  0  0  0  0  0  0  0
  -29.9710  -15.5890   20.8700 N   0  0  0  0  0  0  0  0  0  0  0  0
  -29.0290  -15.3870   21.1660 H   0  0  0  0  0  0  0  0  0  0  0  0
  -25.3180  -13.8520   20.4860 C   0  0  0  0  0  0  0  0  0  0  0  0
  -24.2400  -13.0890   20.8330 C   0  0  0  0  0  0  0  0  0  0  0  0
  -24.7040  -11.7370   20.8490 C   0  0  0  0  0  0  0  0  0  0  0  0
  -26.3730  -12.9670   20.3210 N   0  0  0  0  0  0  0  0  0  0  0  0
  -26.0040  -11.6920   20.5910 N   0  0  0  0  0  0  0  0  0  0  0  0
  -23.9770  -10.4790   21.0390 C   0  0  0  0  0  0  0  0  0  0  0  0
  -24.3870   -9.5290   22.0000 C   0  0  0  0  0  3  0  0  0  0  0  0
  -23.6630   -8.3300   22.1750 C   0  0  0  0  0  3  0  0  0  0  0  0
  -22.5140   -8.0750   21.3880 C   0  0  0  0  0  0  0  0  0  0  0  0
  -22.1250   -9.0150   20.4180 C   0  0  0  0  0  3  0  0  0  0  0  0
  -22.8490  -10.2050   20.2420 C   0  0  0  0  0  3  0  0  0  0  0  0
  -21.7620   -6.9290   21.4740 O   0  0  0  0  0  0  0  0  0  0  0  0
  -21.6870   -6.2040   22.6360 C   0  0  0  0  0  0  0  0  0  0  0  0
  -21.2300   -6.7760   23.8430 C   0  0  0  0  0  3  0  0  0  0  0  0
  -21.1000   -5.9760   24.9960 C   0  0  0  0  0  3  0  0  0  0  0  0
  -21.4160   -4.6040   24.9420 C   0  0  0  0  0  0  0  0  0  0  0  0
  -21.8630   -4.0320   23.7390 C   0  0  0  0  0  3  0  0  0  0  0  0
  -21.9970   -4.8290   22.5890 C   0  0  0  0  0  0  0  0  0  0  0  0
  -22.4080   -4.2680   21.4250 F   0  0  0  0  0  0  0  0  0  0  0  0
  -21.2850   -3.8330   26.0470 F   0  0  0  0  0  0  0  0  0  0  0  0
  -22.8320  -13.5710   21.0440 C   0  0  0  0  0  0  0  0  0  0  0  0
  -22.0740  -12.8950   21.8980 N   0  0  0  0  0  0  0  0  0  0  0  0
  -22.4130  -14.5870   20.4910 O   0  0  0  0  0  0  0  0  0  0  0  0
  -22.4200  -12.0760   22.3740 H   0  0  0  0  0  0  0  0  0  0  0  0
  -21.1310  -13.2110   22.0820 H   0  0  0  0  0  0  0  0  0  0  0  0
  -25.4850  -15.2190   20.2800 N   0  0  0  0  0  0  0  0  0  0  0  0
  -24.7070  -15.8680   20.3270 H   0  0  0  0  0  0  0  0  0  0  0  0
  -26.3370  -15.6460   19.9440 H   0  0  0  0  0  0  0  0  0  0  0  0
  1  5  1  0
  2  6  1  0
  3  1  2  0
  4  3  1  0
  4  2  2  0
  5  8  1  0
  6  5  2  0
  7  4  1  0
  9 20  2  0
 10  8  1  0
 10 15  1  0
 11 19  1  0
 11 21  1  0
 12 18  1  0
 12 14  1  0
 13 19  1  0
 14 13  1  0
 15 14  2  0
 16 17  1  0
 16 10  2  0
 17 12  2  0
 18 11  1  0
 19  9  1  0
 21 23  2  0
 22 21  1  0
 24 22  1  0
 25 34  2  0
 25 30  1  0
 26 22  1  0
 26 30  1  0
 27 26  1  0
 28 29  1  0
 28 27  1  0
 29 25  1  0
 30 31  2  0
 31 32  1  0
 33 32  2  0
 34 33  1  0
 35  9  1  0
 35 36  1  0
 35 45  1  0
 36 39  1  0
 37 41  1  0
 37 36  1  0
 38 37  2  0
 41 40  1  0
 43 41  1  0
 43 44  1  0
 43 42  1  0
 45 48  1  1
 45 46  1  0
 47 45  1  0
 49  3  1  0
 49 50  1  0
 50 51  1  0
 51 52  1  0
 52 53  1  0
 53 56  1  0
 56 54  1  6
 56 57  1  0
 56 55  1  0
 57 66  1  0
 58 66  1  0
 59 64  1  0
 60 61  1  0
 60 59  1  0
 62 61  1  0
 62 71  1  0
 62 63  1  0
 64 58  1  0
 64 63  1  0
 65 58  2  0
 66 67  1  0
 68 69  2  0
 69 70  1  0
 69 88  1  0
 70 73  1  0
 71 68  1  0
 71 72  1  0
 72 70  2  0
 73 74  1  0
 74 75  2  0
 76 79  1  0
 76 75  1  0
 77 76  2  0
 78 77  1  0
 78 73  2  0
 79 80  1  0
 80 81  1  0
 81 82  2  0
 83 82  1  0
 83 87  1  0
 84 83  2  0
 85 80  2  0
 85 84  1  0
 86 85  1  0
 88 89  1  0
 89 92  1  0
 89 91  1  0
 90 88  2  0
 93 94  1  0
 93 68  1  0
 95 93  1  0
M  ISO  4   5 101   8 101  58 100  66 100
M  END
>  <TORSDO>  (74) 
F 23

>  <SCORE>  (74) 
-11.740

>  <name>  (74) 
73

>  <ligand_id>  (74) 
73

>  <original_smiles>  (74) 
[H]c1nc(Oc2c([H])c([H])c3c(c2[H])C([H])([H])N(C(=O)C([H])(N([H])C(=O)C([H])(N([H])C([H])([H])[H])C([H])([H])[H])C(C([H])([H])[H])(C([H])([H])[H])C([H])([H])[H])C([H])(C(=O)N([H])C2([H])c4c([H])c([H])c([H])c([H])c4C([H])([H])C([H])([H])C2([H])[H])C3([H])[H])c([H])c(C([H])([H])C([H])([H])C([H])([H])C([H])([H])C([H])([H])C(C([H])([H])[H])(C([H])([H])[H])C([H])([H])N([H])C(=O)N2C([H])([H])C([H])([H])C([H])([H])C([H])(n3nc(-c4c([H])c([H])c(Oc5c([H])c([H])c(F)c([H])c5F)c([H])c4[H])c(C(=O)N([H])[H])c3N([H])[H])C2([H])[H])c1Cl

>  <smiles>  (74) 
[H]c1nc(Oc2c([H])c([H])c3c(c2[H])C([H])([H])N(C(=O)C([H])(N([H])C(=O)C([H])(N([H])C([H])([H])[H])C([H])([H])[H])C(C([H])([H])[H])(C([H])([H])[H])C([H])([H])[H])C([H])(C(=O)N([H])C2([H])c4c([H])c([H])c([H])c([H])c4C([H])([H])C([H])([H])C2([H])[H])C3([H])[H])c([H])c(C([H])([H])C([H])([H])C([H])([H])C([H])([H])C([H])([H])C(C([H])([H])[H])(C([H])([H])[H])C([H])([H])N([H])C(=O)N2C([H])([H])C([H])([H])C([H])([H])C([H])(n3nc(-c4c([H])c([H])c(Oc5c([H])c([H])c(F)c([H])c5F)c([H])c4[H])c(C(=O)N([H])[H])c3N([H])[H])C2([H])[H])c1Cl

$$$$
74:0:0
     RDKit          3D

 90 98  0  0  1  0  0  0  0  0999 V2000
  -29.2700  -23.3870   19.4720 C   0  0  0  0  0  3  0  0  0  0  0  0
  -28.9640  -21.9170   19.8450 C   0  0  0  0  0  0  0  0  0  0  0  0
  -27.8640  -22.2480   20.6320 C   0  0  0  0  0  0  0  0  0  0  0  0
  -28.4450  -24.4870   19.9940 C   0  0  0  0  0  0  0  0  0  0  0  0
  -27.0090  -21.1930   21.2840 C   0  0  0  0  0  1  0  0  0  0  0  0
  -26.4820  -24.2480   21.5190 C   0  0  0  0  0  1  0  0  0  0  0  0
  -27.5690  -23.6720   20.7390 N   0  0  0  0  0  0  0  0  0  0  0  0
  -29.4840  -20.2400   19.3600 C   0  0  1  0  0  0  0  0  0  0  0  0
  -28.4490  -19.8160   18.6330 F   0  0  0  0  0  0  0  0  0  0  0  0
  -30.4570  -20.5260   18.4960 F   0  0  0  0  0  0  0  0  0  0  0  0
  -30.0840  -18.6790   20.1310 C   0  0  0  0  0  2  0  0  0  0  0  0
  -30.7410  -15.7160   19.8110 C   0  0  0  0  0  0  0  0  0  0  0  0
  -30.7300  -13.2350   18.9630 C   0  0  0  0  0  2  0  0  0  0  0  0
  -29.7490  -12.9320   17.8020 C   0  0  0  0  0  2  0  0  0  0  0  0
  -28.3380  -12.6420   18.3450 C   0  0  0  0  0  2  0  0  0  0  0  0
  -27.9230  -13.6520   19.4400 C   0  0  0  0  0  3  0  0  0  0  0  0
  -29.0240  -13.8600   20.4990 C   0  0  0  0  0  2  0  0  0  0  0  0
  -30.1870  -14.3960   19.7690 N   0  0  0  0  0  0  0  0  0  0  0  0
  -31.9720  -15.6900   19.6670 O   0  0  0  0  0  0  0  0  0  0  0  0
  -29.9580  -17.0040   19.8100 N   0  0  0  0  0  0  0  0  0  0  0  0
  -28.9760  -16.7770   19.7190 H   0  0  0  0  0  0  0  0  0  0  0  0
  -25.6230  -14.2450   20.3640 C   0  0  0  0  0  0  0  0  0  0  0  0
  -24.5570  -13.4810   20.7500 C   0  0  0  0  0  0  0  0  0  0  0  0
  -24.9800  -12.1220   20.6320 C   0  0  0  0  0  0  0  0  0  0  0  0
  -26.6220  -13.3510   20.0220 N   0  0  0  0  0  0  0  0  0  0  0  0
  -26.2530  -12.0640   20.2500 N   0  0  0  0  0  0  0  0  0  0  0  0
  -24.2230  -10.8730   20.7960 C   0  0  0  0  0  0  0  0  0  0  0  0
  -24.6310   -9.8780   21.7130 C   0  0  0  0  0  3  0  0  0  0  0  0
  -23.8730   -8.6970   21.8710 C   0  0  0  0  0  3  0  0  0  0  0  0
  -22.6950   -8.5020   21.1120 C   0  0  0  0  0  0  0  0  0  0  0  0
  -22.3050   -9.4860   20.1870 C   0  0  0  0  0  3  0  0  0  0  0  0
  -23.0620  -10.6590   20.0270 C   0  0  0  0  0  3  0  0  0  0  0  0
  -21.9110   -7.3750   21.1800 O   0  0  0  0  0  0  0  0  0  0  0  0
  -21.8010   -6.6450   22.3360 C   0  0  0  0  0  0  0  0  0  0  0  0
  -21.2890   -7.2050   23.5250 C   0  0  0  0  0  3  0  0  0  0  0  0
  -21.1280   -6.4010   24.6710 C   0  0  0  0  0  3  0  0  0  0  0  0
  -21.4690   -5.0360   24.6260 C   0  0  0  0  0  0  0  0  0  0  0  0
  -21.9740   -4.4740   23.4400 C   0  0  0  0  0  3  0  0  0  0  0  0
  -22.1360   -5.2760   22.2980 C   0  0  0  0  0  0  0  0  0  0  0  0
  -22.6040   -4.7250   21.1520 F   0  0  0  0  0  0  0  0  0  0  0  0
  -21.3070   -4.2600   25.7240 F   0  0  0  0  0  0  0  0  0  0  0  0
  -23.1920  -13.9880   21.1100 C   0  0  0  0  0  0  0  0  0  0  0  0
  -22.4920  -13.2850   21.9910 N   0  0  0  0  0  0  0  0  0  0  0  0
  -22.7600  -15.0410   20.6460 O   0  0  0  0  0  0  0  0  0  0  0  0
  -22.8580  -12.4330   22.3880 H   0  0  0  0  0  0  0  0  0  0  0  0
  -21.5810  -13.6100   22.2820 H   0  0  0  0  0  0  0  0  0  0  0  0
  -25.8230  -15.6170   20.2480 N   0  0  0  0  0  0  0  0  0  0  0  0
  -25.0810  -16.2870   20.4260 H   0  0  0  0  0  0  0  0  0  0  0  0
  -26.6700  -16.0470   19.9040 H   0  0  0  0  0  0  0  0  0  0  0  0
  -28.4460  -26.0190   19.9540 O   0  0  0  0  0  0  0  0  0  0  0  0
  -24.7060  -31.9380   23.0860 C   0  0  0  0  0  0  0  0  0  0  0  0
  -27.3940  -27.1050   19.9990 C   0  0  0  0  0  0  0  0  0  0  0  0
  -23.5670  -30.5320   21.4220 C   0  0  0  0  0  3  0  0  0  0  0  0
  -25.0610  -28.9720   19.9900 C   0  0  0  0  0  0  0  0  0  0  0  0
  -26.1340  -30.7800   21.3170 C   0  0  0  0  0  2  0  0  0  0  0  0
  -26.2360  -29.3770   20.6350 C   0  0  0  0  0  0  0  0  0  0  0  0
  -27.3930  -28.4620   20.6170 C   0  0  0  0  0  3  0  0  0  0  0  0
  -26.1850  -26.8720   19.3070 C   0  0  0  0  0  3  0  0  0  0  0  0
  -25.0600  -27.7430   19.3120 C   0  0  0  0  0  3  0  0  0  0  0  0
  -23.8250  -29.8740   20.0400 C   0  0  0  0  0  2  0  0  0  0  0  0
  -24.8230  -31.1150   21.9920 N   0  0  0  0  0  0  0  0  0  0  0  0
  -23.6040  -32.1930   23.6000 O   0  0  0  0  0  0  0  0  0  0  0  0
  -22.8900  -29.5100   22.3720 C   0  0  0  0  0  0  0  0  0  0  0  0
  -21.5670  -29.3020   22.2320 N   0  0  0  0  0  0  0  0  0  0  0  0
  -23.5640  -28.9000   23.2040 O   0  0  0  0  0  0  0  0  0  0  0  0
  -21.0720  -29.8470   21.5400 H   0  0  0  0  0  0  0  0  0  0  0  0
  -18.2180  -27.9910   22.7290 C   0  0  0  0  0  0  0  0  0  0  0  0
  -20.7690  -28.3320   22.9900 C   0  0  0  0  0  3  0  0  0  0  0  0
  -20.9090  -26.9100   22.3980 C   0  0  0  0  0  2  0  0  0  0  0  0
  -19.8170  -26.5690   21.3760 C   0  0  0  0  0  2  0  0  0  0  0  0
  -18.4320  -26.6610   22.0220 C   0  0  0  0  0  2  0  0  0  0  0  0
  -19.3120  -28.7810   23.1670 C   0  0  0  0  0  0  0  0  0  0  0  0
  -19.0540  -30.0200   23.7930 C   0  0  0  0  0  3  0  0  0  0  0  0
  -17.7330  -30.4740   23.9750 C   0  0  0  0  0  3  0  0  0  0  0  0
  -16.6530  -29.6820   23.5480 C   0  0  0  0  0  3  0  0  0  0  0  0
  -16.8960  -28.4410   22.9330 C   0  0  0  0  0  3  0  0  0  0  0  0
  -25.9500  -32.6150   23.7390 C   0  0  0  0  0  3  0  0  0  0  0  0
  -25.5850  -34.0010   24.0890 N   0  0  0  0  0  0  0  0  0  0  0  0
  -25.8780  -35.0840   23.3570 C   0  0  0  0  0  0  0  0  0  0  0  0
  -26.5470  -35.0220   22.3200 O   0  0  0  0  0  0  0  0  0  0  0  0
  -24.9850  -34.1150   24.8930 H   0  0  0  0  0  0  0  0  0  0  0  0
  -24.0870  -36.8320   23.0650 C   0  0  0  0  0  1  0  0  0  0  0  0
  -25.3540  -36.4510   23.8490 C   0  0  0  0  0  3  0  0  0  0  0  0
  -27.4600  -37.4060   24.6770 C   0  0  0  0  0  1  0  0  0  0  0  0
  -26.3530  -37.5390   23.7350 N   0  0  0  0  0  0  0  0  0  0  0  0
  -25.9180  -38.4470   23.8790 H   0  0  0  0  0  0  0  0  0  0  0  0
  -26.4630  -31.8590   25.0290 C   0  0  1  0  0  0  0  0  0  0  0  0
  -25.3590  -31.5950   26.0810 C   0  0  0  0  0  1  0  0  0  0  0  0
  -27.0920  -30.4950   24.6670 C   0  0  0  0  0  1  0  0  0  0  0  0
  -27.5810  -32.6870   25.7080 C   0  0  0  0  0  1  0  0  0  0  0  0
  1  2  1  0
  1  4  2  0
  2  3  2  0
  3  7  1  0
  3  5  1  0
  4  7  1  0
  7  6  1  0
  8  2  1  0
  8 11  1  0
  8  9  1  6
 10  8  1  0
 13 18  1  0
 14 15  1  0
 14 13  1  0
 16 15  1  0
 16 25  1  0
 16 17  1  0
 18 12  1  0
 18 17  1  0
 19 12  2  0
 20 12  1  0
 20 11  1  0
 21 20  1  0
 22 23  2  0
 23 42  1  0
 24 23  1  0
 24 27  1  0
 25 26  1  0
 25 22  1  0
 26 24  2  0
 27 28  1  0
 28 29  2  0
 30 33  1  0
 30 29  1  0
 31 30  2  0
 32 31  1  0
 32 27  2  0
 33 34  1  0
 34 35  1  0
 35 36  2  0
 37 36  1  0
 37 41  1  0
 38 37  2  0
 39 34  2  0
 39 38  1  0
 40 39  1  0
 42 43  1  0
 43 46  1  0
 43 45  1  0
 44 42  2  0
 47 22  1  0
 47 48  1  0
 49 47  1  0
 50  4  1  0
 50 52  1  0
 51 62  2  0
 52 57  1  0
 53 61  1  0
 53 63  1  0
 54 60  1  0
 54 56  1  0
 55 61  1  0
 56 55  1  0
 57 56  2  0
 58 59  1  0
 58 52  2  0
 59 54  2  0
 60 53  1  0
 61 51  1  0
 63 65  2  0
 64 63  1  0
 66 64  1  0
 67 76  2  0
 67 72  1  0
 68 64  1  0
 68 72  1  0
 69 68  1  0
 70 71  1  0
 70 69  1  0
 71 67  1  0
 72 73  2  0
 73 74  1  0
 75 74  2  0
 76 75  1  0
 77 51  1  0
 77 78  1  0
 77 87  1  0
 78 81  1  0
 79 83  1  0
 79 78  1  0
 80 79  2  0
 83 82  1  0
 85 83  1  0
 85 86  1  0
 85 84  1  0
 87 90  1  1
 87 88  1  0
 89 87  1  0
M  ISO  4   4 101  12 100  20 100  50 101
M  END
>  <TORSDO>  (75) 
F 18

>  <SCORE>  (75) 
-13.715

>  <name>  (75) 
74

>  <ligand_id>  (75) 
74

>  <original_smiles>  (75) 
[H]c1c([H])c([H])c2c(c1[H])C([H])([H])C([H])([H])C([H])([H])C2([H])N([H])C(=O)C1([H])N(C(=O)C([H])(N([H])C(=O)C([H])(N([H])C([H])([H])[H])C([H])([H])[H])C(C([H])([H])[H])(C([H])([H])[H])C([H])([H])[H])C([H])([H])c2c([H])c(Oc3c([H])c(C(F)(F)C([H])([H])N([H])C(=O)N4C([H])([H])C([H])([H])C([H])([H])C([H])(n5nc(-c6c([H])c([H])c(Oc7c([H])c([H])c(F)c([H])c7F)c([H])c6[H])c(C(=O)N([H])[H])c5N([H])[H])C4([H])[H])c(C([H])([H])[H])n3C([H])([H])[H])c([H])c([H])c2C1([H])[H]

>  <smiles>  (75) 
[H]c1c([H])c([H])c2c(c1[H])C([H])([H])C([H])([H])C([H])([H])C2([H])N([H])C(=O)C1([H])N(C(=O)C([H])(N([H])C(=O)C([H])(N([H])C([H])([H])[H])C([H])([H])[H])C(C([H])([H])[H])(C([H])([H])[H])C([H])([H])[H])C([H])([H])c2c([H])c(Oc3c([H])c(C(F)(F)C([H])([H])N([H])C(=O)N4C([H])([H])C([H])([H])C([H])([H])C([H])(n5nc(-c6c([H])c([H])c(Oc7c([H])c([H])c(F)c([H])c7F)c([H])c6[H])c(C(=O)N([H])[H])c5N([H])[H])C4([H])[H])c(C([H])([H])[H])n3C([H])([H])[H])c([H])c([H])c2C1([H])[H]

$$$$
75:0:0
     RDKit          3D

102111  0  0  1  0  0  0  0  0999 V2000
  -28.8550  -21.9620   21.5230 C   0  0  0  0  0  2  0  0  0  0  0  0
  -29.3580  -25.4110   19.9420 C   0  0  0  0  0  3  0  0  0  0  0  0
  -27.3050  -23.5370   20.2850 C   0  0  0  0  0  3  0  0  0  0  0  0
  -28.1480  -25.5780   19.2340 C   0  0  0  0  0  0  0  0  0  0  0  0
  -28.5540  -23.3210   20.9040 C   0  0  0  0  0  0  0  0  0  0  0  0
  -27.1040  -24.6360   19.4290 C   0  0  0  0  0  0  0  0  0  0  0  0
  -29.5690  -24.2920   20.7660 C   0  0  0  0  0  0  0  0  0  0  0  0
  -25.5980  -24.7170   18.5770 Cl  0  0  0  0  0  0  0  0  0  0  0  0
  -31.1030  -24.1000   21.5310 Cl  0  0  0  0  0  0  0  0  0  0  0  0
  -28.0740  -26.6860   18.1900 C   0  0  0  0  0  2  0  0  0  0  0  0
  -26.7770  -26.9020   17.6570 O   0  0  0  0  0  0  0  0  0  0  0  0
  -25.5160  -30.7250   23.5500 C   0  0  0  0  0  0  0  0  0  0  0  0
  -25.9360  -27.6960   18.3910 C   0  0  0  0  0  0  0  0  0  0  0  0
  -23.6100  -30.4550   21.9930 C   0  0  0  0  0  3  0  0  0  0  0  0
  -24.1750  -29.4460   19.7210 C   0  0  0  0  0  0  0  0  0  0  0  0
  -26.0220  -30.3660   21.1450 C   0  0  0  0  0  2  0  0  0  0  0  0
  -25.5350  -29.4330   20.0570 C   0  0  0  0  0  0  0  0  0  0  0  0
  -26.4220  -28.5620   19.3930 C   0  0  0  0  0  3  0  0  0  0  0  0
  -24.5660  -27.7100   18.0650 C   0  0  0  0  0  3  0  0  0  0  0  0
  -23.6800  -28.5780   18.7310 C   0  0  0  0  0  3  0  0  0  0  0  0
  -23.2950  -30.4160   20.4730 C   0  0  0  0  0  2  0  0  0  0  0  0
  -25.0810  -30.5010   22.2780 N   0  0  0  0  0  0  0  0  0  0  0  0
  -24.7130  -30.9410   24.4680 O   0  0  0  0  0  0  0  0  0  0  0  0
  -22.8900  -29.2690   22.6720 C   0  0  0  0  0  0  0  0  0  0  0  0
  -21.5540  -29.2340   22.5440 N   0  0  0  0  0  0  0  0  0  0  0  0
  -23.5290  -28.3920   23.2600 O   0  0  0  0  0  0  0  0  0  0  0  0
  -21.1040  -29.9910   22.0490 H   0  0  0  0  0  0  0  0  0  0  0  0
  -18.1810  -27.9510   22.4080 C   0  0  0  0  0  0  0  0  0  0  0  0
  -20.6690  -28.1920   23.0610 C   0  0  0  0  0  3  0  0  0  0  0  0
  -20.8880  -26.8540   22.3190 C   0  0  0  0  0  2  0  0  0  0  0  0
  -19.9440  -26.6650   21.1250 C   0  0  0  0  0  2  0  0  0  0  0  0
  -18.4820  -26.7120   21.5820 C   0  0  0  0  0  2  0  0  0  0  0  0
  -19.2100  -28.6560   23.0860 C   0  0  0  0  0  0  0  0  0  0  0  0
  -18.8820  -29.8280   23.8030 C   0  0  0  0  0  3  0  0  0  0  0  0
  -17.5530  -30.2900   23.8540 C   0  0  0  0  0  3  0  0  0  0  0  0
  -16.5340  -29.5770   23.1980 C   0  0  0  0  0  3  0  0  0  0  0  0
  -16.8490  -28.4100   22.4800 C   0  0  0  0  0  3  0  0  0  0  0  0
  -27.0360  -30.7470   23.9050 C   0  0  0  0  0  3  0  0  0  0  0  0
  -27.2510  -31.8550   24.8430 N   0  0  0  0  0  0  0  0  0  0  0  0
  -27.9000  -32.9880   24.5450 C   0  0  0  0  0  0  0  0  0  0  0  0
  -28.4410  -33.1840   23.4550 O   0  0  0  0  0  0  0  0  0  0  0  0
  -26.7950  -31.7870   25.7400 H   0  0  0  0  0  0  0  0  0  0  0  0
  -26.9850  -35.2170   25.2560 C   0  0  0  0  0  1  0  0  0  0  0  0
  -27.9500  -34.0800   25.6300 C   0  0  0  0  0  3  0  0  0  0  0  0
  -30.2190  -33.6700   26.4650 C   0  0  0  0  0  1  0  0  0  0  0  0
  -29.3050  -34.6310   25.8530 N   0  0  0  0  0  0  0  0  0  0  0  0
  -29.2670  -35.4520   26.4520 H   0  0  0  0  0  0  0  0  0  0  0  0
  -27.5540  -29.3880   24.5180 C   0  0  1  0  0  0  0  0  0  0  0  0
  -26.6850  -28.8740   25.6900 C   0  0  0  0  0  1  0  0  0  0  0  0
  -27.5980  -28.2750   23.4420 C   0  0  0  0  0  1  0  0  0  0  0  0
  -29.0010  -29.5640   25.0340 C   0  0  0  0  0  1  0  0  0  0  0  0
  -29.1960  -21.0530   19.0390 O   0  0  0  0  0  0  0  0  0  0  0  0
  -31.2820  -21.6860   20.3370 O   0  0  0  0  0  0  0  0  0  0  0  0
  -29.9310  -21.0990   20.3130 S   0  0  1  0  0  0  0  0  0  0  0  0
  -30.0960  -19.4890   20.8860 N   0  0  0  0  0  0  0  0  0  0  0  0
  -29.4440  -19.3670   21.6640 H   0  0  0  0  0  0  0  0  0  0  0  0
  -31.4550  -16.9950   19.8050 C   0  0  0  0  0  2  0  0  0  0  0  0
  -32.1760  -18.2890   20.1800 C   0  0  0  0  0  2  0  0  0  0  0  0
  -30.7360  -16.7270   22.2260 C   0  0  0  0  0  2  0  0  0  0  0  0
  -31.3210  -18.1120   22.5690 C   0  0  0  0  0  3  0  0  0  0  0  0
  -31.4060  -16.0450   21.0150 C   0  0  0  0  0  3  0  0  0  0  0  0
  -31.4270  -19.0160   21.3140 C   0  0  0  0  0  3  0  0  0  0  0  0
  -30.8560  -14.0020   19.6750 C   0  0  0  0  0  0  0  0  0  0  0  0
  -30.4950  -11.6700   18.9900 C   0  0  0  0  0  2  0  0  0  0  0  0
  -29.4630  -11.5060   17.8640 C   0  0  0  0  0  2  0  0  0  0  0  0
  -28.0380  -11.4190   18.4460 C   0  0  0  0  0  2  0  0  0  0  0  0
  -27.7320  -12.5760   19.4320 C   0  0  0  0  0  3  0  0  0  0  0  0
  -28.8550  -12.7110   20.4790 C   0  0  0  0  0  2  0  0  0  0  0  0
  -30.1490  -12.8530   19.7820 N   0  0  0  0  0  0  0  0  0  0  0  0
  -31.7170  -14.2010   18.8110 O   0  0  0  0  0  0  0  0  0  0  0  0
  -30.6610  -14.8340   20.6990 N   0  0  0  0  0  0  0  0  0  0  0  0
  -29.9790  -14.5280   21.3770 H   0  0  0  0  0  0  0  0  0  0  0  0
  -25.5240  -13.3530   20.5120 C   0  0  0  0  0  0  0  0  0  0  0  0
  -24.4350  -12.6580   20.9620 C   0  0  0  0  0  0  0  0  0  0  0  0
  -24.7400  -11.2750   20.7660 C   0  0  0  0  0  0  0  0  0  0  0  0
  -26.4280  -12.3980   20.0710 N   0  0  0  0  0  0  0  0  0  0  0  0
  -25.9660  -11.1380   20.2790 N   0  0  0  0  0  0  0  0  0  0  0  0
  -23.9140  -10.0760   20.9540 C   0  0  0  0  0  0  0  0  0  0  0  0
  -24.2200   -9.1120   21.9420 C   0  0  0  0  0  3  0  0  0  0  0  0
  -23.3990   -7.9790   22.1170 C   0  0  0  0  0  3  0  0  0  0  0  0
  -22.2560   -7.7990   21.3030 C   0  0  0  0  0  0  0  0  0  0  0  0
  -21.9670   -8.7470   20.3060 C   0  0  0  0  0  3  0  0  0  0  0  0
  -22.7900   -9.8730   20.1290 C   0  0  0  0  0  3  0  0  0  0  0  0
  -21.4160   -6.7140   21.3830 O   0  0  0  0  0  0  0  0  0  0  0  0
  -21.1130   -6.1250   22.5830 C   0  0  0  0  0  0  0  0  0  0  0  0
  -20.4880   -6.8380   23.6290 C   0  0  0  0  0  3  0  0  0  0  0  0
  -20.1340   -6.1750   24.8210 C   0  0  0  0  0  3  0  0  0  0  0  0
  -20.3960   -4.7980   24.9670 C   0  0  0  0  0  0  0  0  0  0  0  0
  -21.0160   -4.0860   23.9230 C   0  0  0  0  0  3  0  0  0  0  0  0
  -21.3700   -4.7470   22.7350 C   0  0  0  0  0  0  0  0  0  0  0  0
  -21.9460   -4.0490   21.7250 F   0  0  0  0  0  0  0  0  0  0  0  0
  -20.0490   -4.1590   26.1080 F   0  0  0  0  0  0  0  0  0  0  0  0
  -23.1420  -13.2410   21.4590 C   0  0  0  0  0  0  0  0  0  0  0  0
  -22.4920  -12.5710   22.4050 N   0  0  0  0  0  0  0  0  0  0  0  0
  -22.7240  -14.3210   21.0420 O   0  0  0  0  0  0  0  0  0  0  0  0
  -22.8430  -11.6970   22.7700 H   0  0  0  0  0  0  0  0  0  0  0  0
  -21.6280  -12.9370   22.7760 H   0  0  0  0  0  0  0  0  0  0  0  0
  -25.8180  -14.7110   20.4240 N   0  0  0  0  0  0  0  0  0  0  0  0
  -25.1590  -15.4320   20.6910 H   0  0  0  0  0  0  0  0  0  0  0  0
  -26.6890  -15.0840   20.0700 H   0  0  0  0  0  0  0  0  0  0  0  0
  -30.8030  -20.2340   23.9730 C   0  0  0  0  0  1  0  0  0  0  0  0
  -30.5430  -18.7400   23.7460 C   0  0  0  0  0  2  0  0  0  0  0  0
  2  7  1  0
  3  5  1  0
  4  6  1  0
  4  2  2  0
  5  1  1  0
  6  3  2  0
  7  5  2  0
  7  9  1  0
  8  6  1  0
 10  4  1  0
 11 10  1  0
 11 13  1  0
 12 23  2  0
 13 18  1  0
 14 22  1  0
 14 24  1  0
 15 17  1  0
 15 21  1  0
 16 22  1  0
 17 16  1  0
 18 17  2  0
 19 13  2  0
 19 20  1  0
 20 15  2  0
 21 14  1  0
 22 12  1  0
 24 26  2  0
 25 24  1  0
 27 25  1  0
 28 37  2  0
 28 33  1  0
 29 25  1  0
 29 33  1  0
 30 29  1  0
 31 32  1  0
 31 30  1  0
 32 28  1  0
 33 34  2  0
 34 35  1  0
 36 35  2  0
 37 36  1  0
 38 12  1  0
 38 48  1  0
 38 39  1  0
 39 42  1  0
 40 39  1  0
 40 44  1  0
 41 40  2  0
 44 43  1  0
 44 46  1  0
 46 47  1  0
 46 45  1  0
 48 51  1  1
 48 49  1  0
 50 48  1  0
 52 54  2  0
 54 53  2  0
 54 55  1  0
 54  1  1  1
 55 56  1  0
 57 58  1  0
 57 61  1  0
 58 62  1  0
 59 60  1  0
 60102  1  0
 61 71  1  0
 61 59  1  0
 62 55  1  0
 62 60  1  0
 63 69  1  0
 63 71  1  0
 64 69  1  0
 65 66  1  0
 65 64  1  0
 67 66  1  0
 67 76  1  0
 67 68  1  0
 69 68  1  0
 70 63  2  0
 71 72  1  0
 73 74  2  0
 74 93  1  0
 75 78  1  0
 75 74  1  0
 76 77  1  0
 76 73  1  0
 77 75  2  0
 78 79  1  0
 79 80  2  0
 81 84  1  0
 81 80  1  0
 82 81  2  0
 83 82  1  0
 83 78  2  0
 84 85  1  0
 85 90  2  0
 85 86  1  0
 86 87  2  0
 87 88  1  0
 88 92  1  0
 89 88  2  0
 90 89  1  0
 91 90  1  0
 93 94  1  0
 94 96  1  0
 94 97  1  0
 95 93  2  0
 98 73  1  0
 98 99  1  0
100 98  1  0
102101  1  0
M  ISO  4  10 101  11 101  63 100  71 100
M  END
>  <TORSDO>  (76) 
F 22

>  <SCORE>  (76) 
-9.872

>  <name>  (76) 
75

>  <ligand_id>  (76) 
75

>  <original_smiles>  (76) 
[H]c1c([H])c([H])c2c(c1[H])C([H])([H])C([H])([H])C([H])([H])C2([H])N([H])C(=O)C1([H])N(C(=O)C([H])(N([H])C(=O)C([H])(N([H])C([H])([H])[H])C([H])([H])[H])C(C([H])([H])[H])(C([H])([H])[H])C([H])([H])[H])C([H])([H])c2c([H])c(OC([H])([H])c3c([H])c(Cl)c(C([H])([H])S(=O)(=O)N([H])C4([H])C([H])([H])C([H])([H])C([H])(N([H])C(=O)N5C([H])([H])C([H])([H])C([H])([H])C([H])(n6nc(-c7c([H])c([H])c(Oc8c([H])c([H])c(F)c([H])c8F)c([H])c7[H])c(C(=O)N([H])[H])c6N([H])[H])C5([H])[H])C([H])([H])C4([H])C([H])([H])C([H])([H])[H])c([H])c3Cl)c([H])c([H])c2C1([H])[H]

>  <smiles>  (76) 
[H]c1c([H])c([H])c2c(c1[H])C([H])([H])C([H])([H])C([H])([H])C2([H])N([H])C(=O)C1([H])N(C(=O)C([H])(N([H])C(=O)C([H])(N([H])C([H])([H])[H])C([H])([H])[H])C(C([H])([H])[H])(C([H])([H])[H])C([H])([H])[H])C([H])([H])c2c([H])c(OC([H])([H])c3c([H])c(Cl)c(C([H])([H])S(=O)(=O)N([H])C4([H])C([H])([H])C([H])([H])C([H])(N([H])C(=O)N5C([H])([H])C([H])([H])C([H])([H])C([H])(n6nc(-c7c([H])c([H])c(Oc8c([H])c([H])c(F)c([H])c8F)c([H])c7[H])c(C(=O)N([H])[H])c6N([H])[H])C5([H])[H])C([H])([H])C4([H])C([H])([H])C([H])([H])[H])c([H])c3Cl)c([H])c([H])c2C1([H])[H]

$$$$
76:0:0
     RDKit          3D

 92100  0  0  1  0  0  0  0  0999 V2000
  -28.7270  -23.6530   20.3310 C   0  0  0  0  0  3  0  0  0  0  0  0
  -28.3130  -24.5020   19.2640 C   0  0  0  0  0  0  0  0  0  0  0  0
  -28.2310  -22.3940   20.1280 C   0  0  0  0  0  0  0  0  0  0  0  0
  -27.5580  -23.7230   18.4240 C   0  0  0  0  0  0  0  0  0  0  0  0
  -26.8840  -24.0680   17.1270 C   0  0  0  0  0  1  0  0  0  0  0  0
  -26.7600  -21.3270   18.3560 C   0  0  0  0  0  1  0  0  0  0  0  0
  -27.4850  -22.4390   18.9570 N   0  0  0  0  0  0  0  0  0  0  0  0
  -28.7000  -25.9590   19.0680 C   0  0  0  0  0  2  0  0  0  0  0  0
  -28.3980  -26.8070   20.1770 O   0  0  0  0  0  0  0  0  0  0  0  0
  -24.5690  -31.9330   23.2680 C   0  0  0  0  0  0  0  0  0  0  0  0
  -27.2010  -27.4900   20.1790 C   0  0  0  0  0  0  0  0  0  0  0  0
  -23.3550  -30.5360   21.6250 C   0  0  0  0  0  3  0  0  0  0  0  0
  -24.8020  -28.9900   20.2030 C   0  0  0  0  0  0  0  0  0  0  0  0
  -25.8810  -30.8840   21.4270 C   0  0  0  0  0  2  0  0  0  0  0  0
  -25.9590  -29.5100   20.7950 C   0  0  0  0  0  0  0  0  0  0  0  0
  -27.1550  -28.7610   20.7920 C   0  0  0  0  0  3  0  0  0  0  0  0
  -26.0210  -26.9740   19.5940 C   0  0  0  0  0  3  0  0  0  0  0  0
  -24.8250  -27.7170   19.6060 C   0  0  0  0  0  3  0  0  0  0  0  0
  -23.5620  -29.8530   20.2450 C   0  0  0  0  0  2  0  0  0  0  0  0
  -24.6200  -31.1320   22.1660 N   0  0  0  0  0  0  0  0  0  0  0  0
  -23.4910  -32.2130   23.8080 O   0  0  0  0  0  0  0  0  0  0  0  0
  -22.6990  -29.5190   22.5860 C   0  0  0  0  0  0  0  0  0  0  0  0
  -21.3740  -29.3430   22.4560 N   0  0  0  0  0  0  0  0  0  0  0  0
  -23.3790  -28.8920   23.4020 O   0  0  0  0  0  0  0  0  0  0  0  0
  -20.8860  -29.9070   21.7740 H   0  0  0  0  0  0  0  0  0  0  0  0
  -17.9940  -28.1630   22.9420 C   0  0  0  0  0  0  0  0  0  0  0  0
  -20.5520  -28.4100   23.2240 C   0  0  0  0  0  3  0  0  0  0  0  0
  -20.6510  -26.9770   22.6500 C   0  0  0  0  0  2  0  0  0  0  0  0
  -19.5520  -26.6560   21.6330 C   0  0  0  0  0  2  0  0  0  0  0  0
  -18.1670  -26.8120   22.2690 C   0  0  0  0  0  2  0  0  0  0  0  0
  -19.1140  -28.9210   23.3740 C   0  0  0  0  0  0  0  0  0  0  0  0
  -18.9000  -30.1890   23.9580 C   0  0  0  0  0  3  0  0  0  0  0  0
  -17.5980  -30.6990   24.1160 C   0  0  0  0  0  3  0  0  0  0  0  0
  -16.4910  -29.9370   23.7020 C   0  0  0  0  0  3  0  0  0  0  0  0
  -16.6900  -28.6710   23.1210 C   0  0  0  0  0  3  0  0  0  0  0  0
  -25.8600  -32.5580   23.8860 C   0  0  0  0  0  3  0  0  0  0  0  0
  -25.5620  -33.9600   24.2100 N   0  0  0  0  0  0  0  0  0  0  0  0
  -25.9020  -35.0050   23.4450 C   0  0  0  0  0  0  0  0  0  0  0  0
  -26.5730  -34.8920   22.4150 O   0  0  0  0  0  0  0  0  0  0  0  0
  -24.9740  -34.1240   25.0150 H   0  0  0  0  0  0  0  0  0  0  0  0
  -24.1850  -36.8050   23.0760 C   0  0  0  0  0  1  0  0  0  0  0  0
  -25.4220  -36.3990   23.8930 C   0  0  0  0  0  3  0  0  0  0  0  0
  -27.5640  -37.2710   24.7190 C   0  0  0  0  0  1  0  0  0  0  0  0
  -26.4620  -37.4450   23.7770 N   0  0  0  0  0  0  0  0  0  0  0  0
  -26.0610  -38.3670   23.9260 H   0  0  0  0  0  0  0  0  0  0  0  0
  -26.3750  -31.7860   25.1620 C   0  0  1  0  0  0  0  0  0  0  0  0
  -25.2840  -31.5560   26.2340 C   0  0  0  0  0  1  0  0  0  0  0  0
  -26.9510  -30.4070   24.7700 C   0  0  0  0  0  1  0  0  0  0  0  0
  -27.5310  -32.5760   25.8210 C   0  0  0  0  0  1  0  0  0  0  0  0
  -28.4020  -21.1440   20.9540 C   0  0  0  0  0  2  0  0  0  0  0  0
  -29.3060  -20.0710   20.3080 C   0  0  0  0  0  2  0  0  0  0  0  0
  -29.5300  -18.8350   21.2060 C   0  0  0  0  0  2  0  0  0  0  0  0
  -30.4490  -17.7710   20.5680 C   0  0  0  0  0  2  0  0  0  0  0  0
  -30.8130  -16.6020   21.5160 C   0  0  0  0  0  2  0  0  0  0  0  0
  -30.7750  -14.4330   20.2530 C   0  0  0  0  0  0  0  0  0  0  0  0
  -30.3800  -12.3440   18.9970 C   0  0  0  0  0  2  0  0  0  0  0  0
  -29.3960  -12.5950   17.8380 C   0  0  0  0  0  2  0  0  0  0  0  0
  -27.9350  -12.4680   18.3170 C   0  0  0  0  0  2  0  0  0  0  0  0
  -27.6610  -13.2770   19.6120 C   0  0  0  0  0  3  0  0  0  0  0  0
  -28.7460  -12.9940   20.6740 C   0  0  0  0  0  2  0  0  0  0  0  0
  -30.0610  -13.2910   20.0750 N   0  0  0  0  0  0  0  0  0  0  0  0
  -31.8260  -14.6740   19.6520 O   0  0  0  0  0  0  0  0  0  0  0  0
  -30.2400  -15.3170   21.1090 N   0  0  0  0  0  0  0  0  0  0  0  0
  -29.3730  -15.0420   21.5480 H   0  0  0  0  0  0  0  0  0  0  0  0
  -25.2900  -13.9120   20.3890 C   0  0  0  0  0  0  0  0  0  0  0  0
  -24.2250  -13.1500   20.7930 C   0  0  0  0  0  0  0  0  0  0  0  0
  -24.6710  -11.7940   20.7490 C   0  0  0  0  0  0  0  0  0  0  0  0
  -26.3190  -13.0200   20.1300 N   0  0  0  0  0  0  0  0  0  0  0  0
  -25.9500  -11.7410   20.4010 N   0  0  0  0  0  0  0  0  0  0  0  0
  -23.9400  -10.5400   20.9660 C   0  0  0  0  0  0  0  0  0  0  0  0
  -24.3960   -9.5660   21.8810 C   0  0  0  0  0  3  0  0  0  0  0  0
  -23.6650   -8.3760   22.0840 C   0  0  0  0  0  3  0  0  0  0  0  0
  -22.4630   -8.1510   21.3730 C   0  0  0  0  0  0  0  0  0  0  0  0
  -22.0260   -9.1130   20.4460 C   0  0  0  0  0  3  0  0  0  0  0  0
  -22.7560  -10.2950   20.2410 C   0  0  0  0  0  3  0  0  0  0  0  0
  -21.7010   -7.0140   21.4850 O   0  0  0  0  0  0  0  0  0  0  0  0
  -21.6900   -6.2650   22.6350 C   0  0  0  0  0  0  0  0  0  0  0  0
  -21.3350   -6.8210   23.8830 C   0  0  0  0  0  3  0  0  0  0  0  0
  -21.2700   -6.0010   25.0260 C   0  0  0  0  0  3  0  0  0  0  0  0
  -21.5510   -4.6250   24.9240 C   0  0  0  0  0  0  0  0  0  0  0  0
  -21.9010   -4.0690   23.6800 C   0  0  0  0  0  3  0  0  0  0  0  0
  -21.9690   -4.8870   22.5390 C   0  0  0  0  0  0  0  0  0  0  0  0
  -22.2850   -4.3420   21.3400 F   0  0  0  0  0  0  0  0  0  0  0  0
  -21.4820   -3.8340   26.0210 F   0  0  0  0  0  0  0  0  0  0  0  0
  -22.8430  -13.6430   21.1110 C   0  0  0  0  0  0  0  0  0  0  0  0
  -22.1380  -12.9540   22.0020 N   0  0  0  0  0  0  0  0  0  0  0  0
  -22.3980  -14.6710   20.6040 O   0  0  0  0  0  0  0  0  0  0  0  0
  -22.5150  -12.1200   22.4320 H   0  0  0  0  0  0  0  0  0  0  0  0
  -21.2120  -13.2630   22.2590 H   0  0  0  0  0  0  0  0  0  0  0  0
  -25.4630  -15.2810   20.2050 N   0  0  0  0  0  0  0  0  0  0  0  0
  -24.7070  -15.9440   20.3390 H   0  0  0  0  0  0  0  0  0  0  0  0
  -26.3130  -15.7110   19.8630 H   0  0  0  0  0  0  0  0  0  0  0  0
  2  1  1  0
  3  1  2  0
  3 50  1  0
  4  7  1  0
  4  2  2  0
  5  4  1  0
  6  7  1  0
  7  3  1  0
  8  2  1  0
  8  9  1  0
  9 11  1  0
 10 21  2  0
 11 16  1  0
 12 20  1  0
 12 22  1  0
 13 19  1  0
 13 15  1  0
 14 20  1  0
 15 14  1  0
 16 15  2  0
 17 18  1  0
 17 11  2  0
 18 13  2  0
 19 12  1  0
 20 10  1  0
 22 24  2  0
 23 22  1  0
 25 23  1  0
 26 35  2  0
 26 31  1  0
 27 23  1  0
 27 31  1  0
 28 27  1  0
 29 30  1  0
 29 28  1  0
 30 26  1  0
 31 32  2  0
 32 33  1  0
 34 33  2  0
 35 34  1  0
 36 10  1  0
 36 37  1  0
 36 46  1  0
 37 40  1  0
 38 42  1  0
 38 37  1  0
 39 38  2  0
 42 41  1  0
 44 42  1  0
 44 45  1  0
 44 43  1  0
 46 49  1  1
 46 47  1  0
 48 46  1  0
 51 50  1  0
 51 52  1  0
 53 52  1  0
 53 54  1  0
 55 63  1  0
 56 61  1  0
 57 58  1  0
 57 56  1  0
 59 58  1  0
 59 68  1  0
 59 60  1  0
 61 55  1  0
 61 60  1  0
 62 55  2  0
 63 54  1  0
 63 64  1  0
 65 66  2  0
 66 85  1  0
 67 66  1  0
 67 70  1  0
 68 65  1  0
 68 69  1  0
 69 67  2  0
 70 71  1  0
 71 72  2  0
 73 76  1  0
 73 72  1  0
 74 73  2  0
 75 74  1  0
 75 70  2  0
 76 77  1  0
 77 78  1  0
 78 79  2  0
 80 79  1  0
 80 84  1  0
 81 80  2  0
 82 77  2  0
 82 81  1  0
 83 82  1  0
 85 86  1  0
 86 89  1  0
 86 88  1  0
 87 85  2  0
 90 91  1  0
 90 65  1  0
 92 90  1  0
M  ISO  4   8 101   9 101  55 100  63 100
M  END
>  <TORSDO>  (77) 
F 22

>  <SCORE>  (77) 
-12.918

>  <name>  (77) 
76

>  <ligand_id>  (77) 
76

>  <original_smiles>  (77) 
[H]c1c([H])c([H])c2c(c1[H])C([H])([H])C([H])([H])C([H])([H])C2([H])N([H])C(=O)C1([H])N(C(=O)C([H])(N([H])C(=O)C([H])(N([H])C([H])([H])[H])C([H])([H])[H])C(C([H])([H])[H])(C([H])([H])[H])C([H])([H])[H])C([H])([H])c2c([H])c(OC([H])([H])c3c([H])c(C([H])([H])C([H])([H])C([H])([H])C([H])([H])C([H])([H])N([H])C(=O)N4C([H])([H])C([H])([H])C([H])([H])C([H])(n5nc(-c6c([H])c([H])c(Oc7c([H])c([H])c(F)c([H])c7F)c([H])c6[H])c(C(=O)N([H])[H])c5N([H])[H])C4([H])[H])n(C([H])([H])[H])c3C([H])([H])[H])c([H])c([H])c2C1([H])[H]

>  <smiles>  (77) 
[H]c1c([H])c([H])c2c(c1[H])C([H])([H])C([H])([H])C([H])([H])C2([H])N([H])C(=O)C1([H])N(C(=O)C([H])(N([H])C(=O)C([H])(N([H])C([H])([H])[H])C([H])([H])[H])C(C([H])([H])[H])(C([H])([H])[H])C([H])([H])[H])C([H])([H])c2c([H])c(OC([H])([H])c3c([H])c(C([H])([H])C([H])([H])C([H])([H])C([H])([H])C([H])([H])N([H])C(=O)N4C([H])([H])C([H])([H])C([H])([H])C([H])(n5nc(-c6c([H])c([H])c(Oc7c([H])c([H])c(F)c([H])c7F)c([H])c6[H])c(C(=O)N([H])[H])c5N([H])[H])C4([H])[H])n(C([H])([H])[H])c3C([H])([H])[H])c([H])c([H])c2C1([H])[H]

$$$$
77:0:0
     RDKit          3D

 89 97  0  0  1  0  0  0  0  0999 V2000
  -28.1600  -20.3090   20.0470 C   0  0  0  0  0  3  0  0  0  0  0  0
  -30.5010  -19.0460   20.7920 C   0  0  0  0  0  3  0  0  0  0  0  0
  -29.1350  -21.2990   20.4610 C   0  0  0  0  0  0  0  0  0  0  0  0
  -29.5200  -18.0560   20.3900 C   0  0  0  0  0  0  0  0  0  0  0  0
  -28.3370  -18.8330   20.0150 C   0  0  0  0  0  0  0  0  0  0  0  0
  -30.3220  -20.5210   20.8310 C   0  0  0  0  0  0  0  0  0  0  0  0
  -26.9800  -17.9260   19.4600 Cl  0  0  0  0  0  0  0  0  0  0  0  0
  -31.6810  -21.4100   21.4160 Cl  0  0  0  0  0  0  0  0  0  0  0  0
  -30.4160  -15.2650   20.3360 C   0  0  0  0  0  0  0  0  0  0  0  0
  -30.4250  -12.8430   19.4320 C   0  0  0  0  0  2  0  0  0  0  0  0
  -29.5010  -12.6800   18.1990 C   0  0  0  0  0  2  0  0  0  0  0  0
  -28.0430  -12.4120   18.6290 C   0  0  0  0  0  2  0  0  0  0  0  0
  -27.5910  -13.3540   19.7750 C   0  0  0  0  0  3  0  0  0  0  0  0
  -28.6420  -13.4540   20.9010 C   0  0  0  0  0  2  0  0  0  0  0  0
  -29.8810  -13.9550   20.2820 N   0  0  0  0  0  0  0  0  0  0  0  0
  -31.6330  -15.3270   20.1180 O   0  0  0  0  0  0  0  0  0  0  0  0
  -29.5510  -16.4490   20.4070 N   0  0  0  0  0  0  0  0  0  0  0  0
  -28.6020  -16.1080   20.4210 H   0  0  0  0  0  0  0  0  0  0  0  0
  -25.2130  -13.8930   20.5390 C   0  0  0  0  0  0  0  0  0  0  0  0
  -24.1570  -13.1090   20.9070 C   0  0  0  0  0  0  0  0  0  0  0  0
  -24.6310  -11.7630   20.8640 C   0  0  0  0  0  0  0  0  0  0  0  0
  -26.2620  -13.0290   20.2830 N   0  0  0  0  0  0  0  0  0  0  0  0
  -25.9230  -11.7400   20.5500 N   0  0  0  0  0  0  0  0  0  0  0  0
  -23.9090  -10.4980   21.0470 C   0  0  0  0  0  0  0  0  0  0  0  0
  -24.3350   -9.5310   21.9840 C   0  0  0  0  0  3  0  0  0  0  0  0
  -23.6110   -8.3320   22.1550 C   0  0  0  0  0  3  0  0  0  0  0  0
  -22.4470   -8.0900   21.3880 C   0  0  0  0  0  0  0  0  0  0  0  0
  -22.0390   -9.0460   20.4410 C   0  0  0  0  0  3  0  0  0  0  0  0
  -22.7640  -10.2360   20.2680 C   0  0  0  0  0  3  0  0  0  0  0  0
  -21.6940   -6.9440   21.4690 O   0  0  0  0  0  0  0  0  0  0  0  0
  -21.6230   -6.2080   22.6230 C   0  0  0  0  0  0  0  0  0  0  0  0
  -21.1250   -6.7570   23.8260 C   0  0  0  0  0  3  0  0  0  0  0  0
  -21.0040   -5.9470   24.9720 C   0  0  0  0  0  3  0  0  0  0  0  0
  -21.3700   -4.5890   24.9170 C   0  0  0  0  0  0  0  0  0  0  0  0
  -21.8600   -4.0390   23.7190 C   0  0  0  0  0  3  0  0  0  0  0  0
  -21.9820   -4.8470   22.5750 C   0  0  0  0  0  0  0  0  0  0  0  0
  -22.4360   -4.3070   21.4170 F   0  0  0  0  0  0  0  0  0  0  0  0
  -21.2470   -3.8080   26.0170 F   0  0  0  0  0  0  0  0  0  0  0  0
  -22.7570  -13.5810   21.1750 C   0  0  0  0  0  0  0  0  0  0  0  0
  -22.0270  -12.8850   22.0400 N   0  0  0  0  0  0  0  0  0  0  0  0
  -22.3180  -14.6040   20.6510 O   0  0  0  0  0  0  0  0  0  0  0  0
  -22.3930  -12.0620   22.4930 H   0  0  0  0  0  0  0  0  0  0  0  0
  -21.0860  -13.1870   22.2520 H   0  0  0  0  0  0  0  0  0  0  0  0
  -25.3540  -15.2660   20.3730 N   0  0  0  0  0  0  0  0  0  0  0  0
  -24.5590  -15.8860   20.4690 H   0  0  0  0  0  0  0  0  0  0  0  0
  -26.1600  -15.7300   19.9730 H   0  0  0  0  0  0  0  0  0  0  0  0
  -29.0360  -23.0290   20.6560 C   0  0  0  0  0  3  0  0  0  0  0  0
  -28.0460  -24.3940   20.1230 C   0  0  0  0  0  3  0  0  0  0  0  0
  -28.2180  -25.9950   20.3860 O   0  0  0  0  0  0  0  0  0  0  0  0
  -24.6150  -31.9010   23.2600 C   0  0  0  0  0  0  0  0  0  0  0  0
  -27.1910  -27.0530   20.2870 C   0  0  0  0  0  0  0  0  0  0  0  0
  -23.4280  -30.4990   21.6190 C   0  0  0  0  0  3  0  0  0  0  0  0
  -24.8860  -28.8950   20.2100 C   0  0  0  0  0  0  0  0  0  0  0  0
  -25.9920  -30.7240   21.4830 C   0  0  0  0  0  2  0  0  0  0  0  0
  -26.0650  -29.3150   20.8370 C   0  0  0  0  0  0  0  0  0  0  0  0
  -27.2140  -28.4140   20.8500 C   0  0  0  0  0  3  0  0  0  0  0  0
  -25.9860  -26.7690   19.6100 C   0  0  0  0  0  3  0  0  0  0  0  0
  -24.8680  -27.6410   19.5770 C   0  0  0  0  0  3  0  0  0  0  0  0
  -23.6630  -29.8080   20.2470 C   0  0  0  0  0  2  0  0  0  0  0  0
  -24.6990  -31.0690   22.1740 N   0  0  0  0  0  0  0  0  0  0  0  0
  -23.5230  -32.1920   23.7760 O   0  0  0  0  0  0  0  0  0  0  0  0
  -22.7290  -29.5070   22.5840 C   0  0  0  0  0  0  0  0  0  0  0  0
  -21.4000  -29.3420   22.4480 N   0  0  0  0  0  0  0  0  0  0  0  0
  -23.3870  -28.8850   23.4210 O   0  0  0  0  0  0  0  0  0  0  0  0
  -20.9220  -29.8900   21.7460 H   0  0  0  0  0  0  0  0  0  0  0  0
  -18.0080  -28.1570   22.9460 C   0  0  0  0  0  0  0  0  0  0  0  0
  -20.5700  -28.4110   23.2180 C   0  0  0  0  0  3  0  0  0  0  0  0
  -20.6670  -26.9790   22.6450 C   0  0  0  0  0  2  0  0  0  0  0  0
  -19.5680  -26.6590   21.6280 C   0  0  0  0  0  2  0  0  0  0  0  0
  -18.1830  -26.8080   22.2680 C   0  0  0  0  0  2  0  0  0  0  0  0
  -19.1290  -28.9150   23.3780 C   0  0  0  0  0  0  0  0  0  0  0  0
  -18.9110  -30.1760   23.9750 C   0  0  0  0  0  3  0  0  0  0  0  0
  -17.6070  -30.6770   24.1460 C   0  0  0  0  0  3  0  0  0  0  0  0
  -16.5010  -29.9170   23.7290 C   0  0  0  0  0  3  0  0  0  0  0  0
  -16.7020  -28.6580   23.1350 C   0  0  0  0  0  3  0  0  0  0  0  0
  -25.8840  -32.5440   23.8990 C   0  0  0  0  0  3  0  0  0  0  0  0
  -25.5720  -33.9480   24.2150 N   0  0  0  0  0  0  0  0  0  0  0  0
  -25.9050  -35.0000   23.4520 C   0  0  0  0  0  0  0  0  0  0  0  0
  -26.5690  -34.8870   22.4190 O   0  0  0  0  0  0  0  0  0  0  0  0
  -24.9820  -34.1090   25.0180 H   0  0  0  0  0  0  0  0  0  0  0  0
  -24.1810  -36.8010   23.1000 C   0  0  0  0  0  1  0  0  0  0  0  0
  -25.4270  -36.3960   23.9040 C   0  0  0  0  0  3  0  0  0  0  0  0
  -27.5650  -37.2860   24.7190 C   0  0  0  0  0  1  0  0  0  0  0  0
  -26.4630  -37.4440   23.7740 N   0  0  0  0  0  0  0  0  0  0  0  0
  -26.0610  -38.3680   23.9060 H   0  0  0  0  0  0  0  0  0  0  0  0
  -26.3720  -31.7890   25.1980 C   0  0  1  0  0  0  0  0  0  0  0  0
  -25.2590  -31.5730   26.2500 C   0  0  0  0  0  1  0  0  0  0  0  0
  -26.9550  -30.4020   24.8460 C   0  0  0  0  0  1  0  0  0  0  0  0
  -27.5150  -32.5860   25.8690 C   0  0  0  0  0  1  0  0  0  0  0  0
  1  3  1  0
  2  6  1  0
  3 47  1  0
  3  6  2  0
  4 17  1  0
  4  2  2  0
  5  1  2  0
  5  4  1  0
  6  8  1  0
  7  5  1  0
  9 17  1  0
 10 15  1  0
 11 12  1  0
 11 10  1  0
 13 12  1  0
 13 22  1  0
 13 14  1  0
 15  9  1  0
 15 14  1  0
 16  9  2  0
 17 18  1  0
 19 20  2  0
 20 39  1  0
 21 20  1  0
 21 24  1  0
 22 19  1  0
 22 23  1  0
 23 21  2  0
 24 25  1  0
 25 26  2  0
 27 30  1  0
 27 26  1  0
 28 27  2  0
 29 28  1  0
 29 24  2  0
 30 31  1  0
 31 32  1  0
 32 33  2  0
 34 33  1  0
 34 38  1  0
 35 34  2  0
 36 31  2  0
 36 35  1  0
 37 36  1  0
 39 40  1  0
 40 43  1  0
 40 42  1  0
 41 39  2  0
 44 45  1  0
 44 19  1  0
 46 44  1  0
 48 49  1  0
 48 47  2  0
 50 61  2  0
 51 49  1  0
 51 56  1  0
 52 60  1  0
 52 62  1  0
 53 59  1  0
 53 55  1  0
 54 60  1  0
 55 56  2  0
 55 54  1  0
 57 51  2  0
 58 57  1  0
 58 53  2  0
 59 52  1  0
 60 50  1  0
 62 64  2  0
 63 62  1  0
 65 63  1  0
 66 75  2  0
 66 71  1  0
 67 63  1  0
 67 71  1  0
 68 67  1  0
 69 70  1  0
 69 68  1  0
 70 66  1  0
 71 72  2  0
 72 73  1  0
 74 73  2  0
 75 74  1  0
 76 50  1  0
 76 77  1  0
 76 86  1  0
 77 80  1  0
 78 82  1  0
 78 77  1  0
 79 78  2  0
 82 81  1  0
 84 82  1  0
 84 85  1  0
 84 83  1  0
 86 89  1  1
 86 87  1  0
 88 86  1  0
M  ISO  4   9 100  17 100  48 101  49 101
M  END
>  <TORSDO>  (78) 
F 18

>  <SCORE>  (78) 
-16.003

>  <name>  (78) 
77

>  <ligand_id>  (78) 
77

>  <original_smiles>  (78) 
[H]c1c([H])c([H])c2c(c1[H])C([H])([H])C([H])([H])C([H])([H])C2([H])N([H])C(=O)C1([H])N(C(=O)C([H])(N([H])C(=O)C([H])(N([H])C([H])([H])[H])C([H])([H])[H])C(C([H])([H])[H])(C([H])([H])[H])C([H])([H])[H])C([H])([H])c2c([H])c(OC([H])([H])C([H])([H])c3c([H])c(Cl)c(N([H])C(=O)N4C([H])([H])C([H])([H])C([H])([H])C([H])(n5nc(-c6c([H])c([H])c(Oc7c([H])c([H])c(F)c([H])c7F)c([H])c6[H])c(C(=O)N([H])[H])c5N([H])[H])C4([H])[H])c([H])c3Cl)c([H])c([H])c2C1([H])[H]

>  <smiles>  (78) 
[H]c1c([H])c([H])c2c(c1[H])C([H])([H])C([H])([H])C([H])([H])C2([H])N([H])C(=O)C1([H])N(C(=O)C([H])(N([H])C(=O)C([H])(N([H])C([H])([H])[H])C([H])([H])[H])C(C([H])([H])[H])(C([H])([H])[H])C([H])([H])[H])C([H])([H])c2c([H])c(OC([H])([H])C([H])([H])c3c([H])c(Cl)c(N([H])C(=O)N4C([H])([H])C([H])([H])C([H])([H])C([H])(n5nc(-c6c([H])c([H])c(Oc7c([H])c([H])c(F)c([H])c7F)c([H])c6[H])c(C(=O)N([H])[H])c5N([H])[H])C4([H])[H])c([H])c3Cl)c([H])c([H])c2C1([H])[H]

$$$$
78:0:0
     RDKit          3D

 97105  0  0  1  0  0  0  0  0999 V2000
  -29.7240  -24.6230   19.9940 C   0  0  0  0  0  0  0  0  0  0  0  0
  -31.1300  -22.6090   19.9730 C   0  0  0  0  0  0  0  0  0  0  0  0
  -29.8470  -23.2120   19.9780 C   0  0  0  0  0  0  0  0  0  0  0  0
  -30.9170  -25.3740   19.9920 C   0  0  0  0  0  0  0  0  0  0  0  0
  -32.2480  -23.4730   19.9970 C   0  0  0  0  0  0  0  0  0  0  0  0
  -32.1410  -24.8140   20.0090 N   0  0  0  0  0  0  0  0  0  0  0  0
  -30.8860  -26.7290   19.9710 F   0  0  0  0  0  0  0  0  0  0  0  0
  -28.4250  -22.2210   19.9610 Cl  0  0  0  0  0  0  0  0  0  0  0  0
  -33.8560  -22.8350   20.0220 Cl  0  0  0  0  0  0  0  0  0  0  0  0
  -31.3100  -21.0820   19.8550 C   0  0  0  0  0  2  0  0  0  0  0  0
  -31.3310  -20.3560   21.1530 N   0  0  0  0  0  4  0  0  0  0  0  0
  -31.0530  -20.9950   21.8820 H   0  0  0  0  0  0  0  0  0  0  0  0
  -32.2710  -20.0620   21.3730 H   0  0  0  0  0  0  0  0  0  0  0  0
  -30.4170  -19.1910   21.2450 C   0  0  0  0  0  2  0  0  0  0  0  0
  -31.0120  -17.8340   20.7780 C   0  0  0  0  0  2  0  0  0  0  0  0
  -29.5420  -16.9500   18.8690 C   0  0  0  0  0  1  0  0  0  0  0  0
  -29.8900  -16.8450   20.3680 C   0  0  0  0  0  3  0  0  0  0  0  0
  -30.8210  -14.4760   20.2510 C   0  0  0  0  0  0  0  0  0  0  0  0
  -30.4980  -12.3130   19.1250 C   0  0  0  0  0  2  0  0  0  0  0  0
  -29.5200  -12.5470   17.9520 C   0  0  0  0  0  2  0  0  0  0  0  0
  -28.0540  -12.4340   18.4180 C   0  0  0  0  0  2  0  0  0  0  0  0
  -27.7670  -13.2620   19.6990 C   0  0  0  0  0  3  0  0  0  0  0  0
  -28.8500  -12.9930   20.7710 C   0  0  0  0  0  2  0  0  0  0  0  0
  -30.1720  -13.2830   20.1780 N   0  0  0  0  0  0  0  0  0  0  0  0
  -31.9000  -14.7080   19.6970 O   0  0  0  0  0  0  0  0  0  0  0  0
  -30.0730  -15.4490   20.7990 N   0  0  0  0  0  0  0  0  0  0  0  0
  -29.2960  -15.0850   21.3310 H   0  0  0  0  0  0  0  0  0  0  0  0
  -25.4070  -13.9180   20.4980 C   0  0  0  0  0  0  0  0  0  0  0  0
  -24.3320  -13.1650   20.8870 C   0  0  0  0  0  0  0  0  0  0  0  0
  -24.7550  -11.8030   20.8030 C   0  0  0  0  0  0  0  0  0  0  0  0
  -26.4200  -13.0150   20.2110 N   0  0  0  0  0  0  0  0  0  0  0  0
  -26.0300  -11.7370   20.4470 N   0  0  0  0  0  0  0  0  0  0  0  0
  -24.0020  -10.5570   20.9880 C   0  0  0  0  0  0  0  0  0  0  0  0
  -24.4050   -9.5850   21.9300 C   0  0  0  0  0  3  0  0  0  0  0  0
  -23.6560   -8.4000   22.1010 C   0  0  0  0  0  3  0  0  0  0  0  0
  -22.4900   -8.1800   21.3280 C   0  0  0  0  0  0  0  0  0  0  0  0
  -22.1070   -9.1410   20.3760 C   0  0  0  0  0  3  0  0  0  0  0  0
  -22.8560  -10.3170   20.2040 C   0  0  0  0  0  3  0  0  0  0  0  0
  -21.7140   -7.0500   21.4080 O   0  0  0  0  0  0  0  0  0  0  0  0
  -21.5960   -6.3380   22.5760 C   0  0  0  0  0  0  0  0  0  0  0  0
  -21.0850   -6.9210   23.7550 C   0  0  0  0  0  3  0  0  0  0  0  0
  -20.9180   -6.1350   24.9140 C   0  0  0  0  0  3  0  0  0  0  0  0
  -21.2490   -4.7680   24.8910 C   0  0  0  0  0  0  0  0  0  0  0  0
  -21.7510   -4.1830   23.7150 C   0  0  0  0  0  3  0  0  0  0  0  0
  -21.9220   -4.9670   22.5600 C   0  0  0  0  0  0  0  0  0  0  0  0
  -22.3870   -4.3950   21.4230 F   0  0  0  0  0  0  0  0  0  0  0  0
  -21.0800   -4.0100   26.0000 F   0  0  0  0  0  0  0  0  0  0  0  0
  -22.9580  -13.6710   21.2230 C   0  0  0  0  0  0  0  0  0  0  0  0
  -22.2410  -12.9690   22.0950 N   0  0  0  0  0  0  0  0  0  0  0  0
  -22.5310  -14.7230   20.7490 O   0  0  0  0  0  0  0  0  0  0  0  0
  -22.5990  -12.1190   22.5040 H   0  0  0  0  0  0  0  0  0  0  0  0
  -21.3200  -13.2900   22.3560 H   0  0  0  0  0  0  0  0  0  0  0  0
  -25.5980  -15.2900   20.3490 N   0  0  0  0  0  0  0  0  0  0  0  0
  -24.8420  -15.9500   20.4900 H   0  0  0  0  0  0  0  0  0  0  0  0
  -26.4380  -15.7210   19.9840 H   0  0  0  0  0  0  0  0  0  0  0  0
  -28.3360  -25.2820   19.9860 C   0  0  0  0  0  2  0  0  0  0  0  0
  -28.3430  -26.6870   20.2470 O   0  0  0  0  0  0  0  0  0  0  0  0
  -24.6280  -31.9060   23.2920 C   0  0  0  0  0  0  0  0  0  0  0  0
  -27.1520  -27.3860   20.2300 C   0  0  0  0  0  0  0  0  0  0  0  0
  -23.3680  -30.5030   21.6880 C   0  0  0  0  0  3  0  0  0  0  0  0
  -24.7710  -28.9190   20.2610 C   0  0  0  0  0  0  0  0  0  0  0  0
  -25.8940  -30.8180   21.4430 C   0  0  0  0  0  2  0  0  0  0  0  0
  -25.9450  -29.4370   20.8210 C   0  0  0  0  0  0  0  0  0  0  0  0
  -27.1340  -28.6780   20.8020 C   0  0  0  0  0  3  0  0  0  0  0  0
  -25.9570  -26.8750   19.6690 C   0  0  0  0  0  3  0  0  0  0  0  0
  -24.7720  -27.6370   19.6840 C   0  0  0  0  0  3  0  0  0  0  0  0
  -23.5420  -29.7960   20.3150 C   0  0  0  0  0  2  0  0  0  0  0  0
  -24.6500  -31.0910   22.1990 N   0  0  0  0  0  0  0  0  0  0  0  0
  -23.5620  -32.2060   23.8470 O   0  0  0  0  0  0  0  0  0  0  0  0
  -22.7150  -29.5090   22.6730 C   0  0  0  0  0  0  0  0  0  0  0  0
  -21.4020  -29.2810   22.5110 N   0  0  0  0  0  0  0  0  0  0  0  0
  -23.3880  -28.9420   23.5390 O   0  0  0  0  0  0  0  0  0  0  0  0
  -20.9180  -29.7900   21.7840 H   0  0  0  0  0  0  0  0  0  0  0  0
  -18.0740  -27.9200   22.8690 C   0  0  0  0  0  0  0  0  0  0  0  0
  -20.5860  -28.3550   23.2960 C   0  0  0  0  0  3  0  0  0  0  0  0
  -20.8120  -26.8940   22.8450 C   0  0  0  0  0  2  0  0  0  0  0  0
  -19.8080  -26.4280   21.7860 C   0  0  0  0  0  2  0  0  0  0  0  0
  -18.3750  -26.5360   22.3190 C   0  0  0  0  0  2  0  0  0  0  0  0
  -19.1130  -28.7790   23.3150 C   0  0  0  0  0  0  0  0  0  0  0  0
  -18.7820  -30.0700   23.7820 C   0  0  0  0  0  3  0  0  0  0  0  0
  -17.4420  -30.5010   23.8150 C   0  0  0  0  0  3  0  0  0  0  0  0
  -16.4170  -29.6400   23.3910 C   0  0  0  0  0  3  0  0  0  0  0  0
  -16.7320  -28.3520   22.9220 C   0  0  0  0  0  3  0  0  0  0  0  0
  -25.9370  -32.5200   23.8820 C   0  0  0  0  0  3  0  0  0  0  0  0
  -25.6600  -33.9250   24.2060 N   0  0  0  0  0  0  0  0  0  0  0  0
  -25.9650  -34.9610   23.4150 C   0  0  0  0  0  0  0  0  0  0  0  0
  -26.5830  -34.8350   22.3530 O   0  0  0  0  0  0  0  0  0  0  0  0
  -25.1090  -34.0980   25.0340 H   0  0  0  0  0  0  0  0  0  0  0  0
  -24.2290  -36.7570   23.1270 C   0  0  0  0  0  1  0  0  0  0  0  0
  -25.5130  -36.3610   23.8730 C   0  0  0  0  0  3  0  0  0  0  0  0
  -27.6930  -37.2520   24.5670 C   0  0  0  0  0  1  0  0  0  0  0  0
  -26.5440  -37.4050   23.6800 N   0  0  0  0  0  0  0  0  0  0  0  0
  -26.1490  -38.3300   23.8250 H   0  0  0  0  0  0  0  0  0  0  0  0
  -26.4700  -31.7490   25.1520 C   0  0  1  0  0  0  0  0  0  0  0  0
  -25.3960  -31.5310   26.2420 C   0  0  0  0  0  1  0  0  0  0  0  0
  -27.0270  -30.3620   24.7550 C   0  0  0  0  0  1  0  0  0  0  0  0
  -27.6440  -32.5310   25.7870 C   0  0  0  0  0  1  0  0  0  0  0  0
  2  3  1  0
  2  5  2  0
  3  1  2  0
  4  1  1  0
  4  6  2  0
  5  6  1  0
  5  9  1  0
  7  4  1  0
  8  3  1  0
 10  2  1  0
 10 11  1  0
 11 14  1  0
 11 13  1  0
 11 12  1  0
 15 14  1  0
 17 16  1  0
 17 15  1  0
 17 26  1  0
 18 26  1  0
 19 24  1  0
 20 21  1  0
 20 19  1  0
 22 21  1  0
 22 31  1  0
 22 23  1  0
 24 18  1  0
 24 23  1  0
 25 18  2  0
 26 27  1  0
 28 29  2  0
 29 48  1  0
 30 29  1  0
 30 33  1  0
 31 32  1  0
 31 28  1  0
 32 30  2  0
 33 34  1  0
 34 35  2  0
 36 39  1  0
 36 35  1  0
 37 36  2  0
 38 37  1  0
 38 33  2  0
 39 40  1  0
 40 41  1  0
 41 42  2  0
 43 42  1  0
 43 47  1  0
 44 43  2  0
 45 40  2  0
 45 44  1  0
 46 45  1  0
 48 49  1  0
 49 52  1  0
 49 51  1  0
 50 48  2  0
 53 54  1  0
 53 28  1  0
 55 53  1  0
 56  1  1  0
 56 57  1  0
 58 69  2  0
 59 57  1  0
 59 64  1  0
 60 68  1  0
 60 70  1  0
 61 67  1  0
 61 63  1  0
 62 68  1  0
 63 62  1  0
 64 63  2  0
 65 66  1  0
 65 59  2  0
 66 61  2  0
 67 60  1  0
 68 58  1  0
 70 72  2  0
 71 70  1  0
 73 71  1  0
 74 83  2  0
 74 79  1  0
 75 71  1  0
 75 79  1  0
 76 75  1  0
 77 78  1  0
 77 76  1  0
 78 74  1  0
 79 80  2  0
 80 81  1  0
 82 81  2  0
 83 82  1  0
 84 58  1  0
 84 85  1  0
 84 94  1  0
 85 88  1  0
 86 90  1  0
 86 85  1  0
 87 86  2  0
 90 89  1  0
 92 93  1  0
 92 90  1  0
 92 91  1  0
 94 97  1  1
 94 95  1  0
 96 94  1  0
M  ISO  4  18 100  26 100  56 101  57 101
M  END
>  <TORSDO>  (79) 
F 22

>  <SCORE>  (79) 
-12.902

>  <name>  (79) 
78

>  <ligand_id>  (79) 
78

>  <original_smiles>  (79) 
[H]c1c([H])c([H])c2c(c1[H])C([H])([H])C([H])([H])C([H])([H])C2([H])N([H])C(=O)C1([H])N(C(=O)C([H])(N([H])C(=O)C([H])(N([H])C([H])([H])[H])C([H])([H])[H])C(C([H])([H])[H])(C([H])([H])[H])C([H])([H])[H])C([H])([H])c2c([H])c(OC([H])([H])c3c(F)nc(Cl)c(C([H])([H])[N+]([H])([H])C([H])([H])C([H])([H])C([H])(N([H])C(=O)N4C([H])([H])C([H])([H])C([H])([H])C([H])(n5nc(-c6c([H])c([H])c(Oc7c([H])c([H])c(F)c([H])c7F)c([H])c6[H])c(C(=O)N([H])[H])c5N([H])[H])C4([H])[H])C([H])([H])[H])c3Cl)c([H])c([H])c2C1([H])[H]

>  <smiles>  (79) 
[H]c1c([H])c([H])c2c(c1[H])C([H])([H])C([H])([H])C([H])([H])C2([H])N([H])C(=O)C1([H])N(C(=O)C([H])(N([H])C(=O)C([H])(N([H])C([H])([H])[H])C([H])([H])[H])C(C([H])([H])[H])(C([H])([H])[H])C([H])([H])[H])C([H])([H])c2c([H])c(OC([H])([H])c3c(F)nc(Cl)c(C([H])([H])[N+]([H])([H])C([H])([H])C([H])([H])C([H])(N([H])C(=O)N4C([H])([H])C([H])([H])C([H])([H])C([H])(n5nc(-c6c([H])c([H])c(Oc7c([H])c([H])c(F)c([H])c7F)c([H])c6[H])c(C(=O)N([H])[H])c5N([H])[H])C4([H])[H])C([H])([H])[H])c3Cl)c([H])c([H])c2C1([H])[H]

$$$$
79:0:0
     RDKit          3D

 89 97  0  0  1  0  0  0  0  0999 V2000
  -28.6280  -20.3810   20.3140 C   0  0  0  0  0  3  0  0  0  0  0  0
  -28.8670  -22.0020   20.2850 C   0  0  0  0  0  0  0  0  0  0  0  0
  -31.1960  -21.0400   20.0900 C   0  0  0  0  0  0  0  0  0  0  0  0
  -29.5850  -19.0510   20.2490 C   0  0  0  0  0  0  0  0  0  0  0  0
  -30.2650  -22.1360   20.1590 C   0  0  0  0  0  0  0  0  0  0  0  0
  -30.8940  -19.6220   20.1340 C   0  0  0  0  0  0  0  0  0  0  0  0
  -32.6660  -21.4300   19.9370 C   0  0  0  0  0  1  0  0  0  0  0  0
  -30.7500  -23.4000   20.0930 F   0  0  0  0  0  0  0  0  0  0  0  0
  -32.2530  -18.5550   20.0340 Cl  0  0  0  0  0  0  0  0  0  0  0  0
  -30.2040  -15.8710   20.1760 C   0  0  0  0  0  0  0  0  0  0  0  0
  -30.3200  -13.3050   19.3280 C   0  0  0  0  0  2  0  0  0  0  0  0
  -29.4210  -12.8450   18.1440 C   0  0  0  0  0  2  0  0  0  0  0  0
  -28.0220  -12.4490   18.6330 C   0  0  0  0  0  2  0  0  0  0  0  0
  -27.5080  -13.4420   19.6960 C   0  0  0  0  0  3  0  0  0  0  0  0
  -28.5520  -13.8090   20.7800 C   0  0  0  0  0  2  0  0  0  0  0  0
  -29.6830  -14.4860   20.0920 N   0  0  0  0  0  0  0  0  0  0  0  0
  -31.4330  -15.7480   20.0070 O   0  0  0  0  0  0  0  0  0  0  0  0
  -29.4510  -17.2800   20.2630 N   0  0  0  0  0  0  0  0  0  0  0  0
  -28.4740  -17.0410   20.3400 H   0  0  0  0  0  0  0  0  0  0  0  0
  -25.1610  -13.9260   20.5280 C   0  0  0  0  0  0  0  0  0  0  0  0
  -24.1190  -13.1280   20.9050 C   0  0  0  0  0  0  0  0  0  0  0  0
  -24.6040  -11.7850   20.8420 C   0  0  0  0  0  0  0  0  0  0  0  0
  -26.2100  -13.0730   20.2460 N   0  0  0  0  0  0  0  0  0  0  0  0
  -25.8920  -11.7760   20.5020 N   0  0  0  0  0  0  0  0  0  0  0  0
  -23.8930  -10.5110   21.0270 C   0  0  0  0  0  0  0  0  0  0  0  0
  -24.3330   -9.5450   21.9580 C   0  0  0  0  0  3  0  0  0  0  0  0
  -23.6160   -8.3420   22.1330 C   0  0  0  0  0  3  0  0  0  0  0  0
  -22.4450   -8.0950   21.3780 C   0  0  0  0  0  0  0  0  0  0  0  0
  -22.0240   -9.0510   20.4360 C   0  0  0  0  0  3  0  0  0  0  0  0
  -22.7410  -10.2460   20.2590 C   0  0  0  0  0  3  0  0  0  0  0  0
  -21.7030   -6.9420   21.4620 O   0  0  0  0  0  0  0  0  0  0  0  0
  -21.6360   -6.2100   22.6210 C   0  0  0  0  0  0  0  0  0  0  0  0
  -21.1360   -6.7620   23.8210 C   0  0  0  0  0  3  0  0  0  0  0  0
  -21.0180   -5.9570   24.9710 C   0  0  0  0  0  3  0  0  0  0  0  0
  -21.3890   -4.6000   24.9210 C   0  0  0  0  0  0  0  0  0  0  0  0
  -21.8820   -4.0470   23.7270 C   0  0  0  0  0  3  0  0  0  0  0  0
  -22.0020   -4.8500   22.5780 C   0  0  0  0  0  0  0  0  0  0  0  0
  -22.4560   -4.3080   21.4230 F   0  0  0  0  0  0  0  0  0  0  0  0
  -21.2710   -3.8240   26.0240 F   0  0  0  0  0  0  0  0  0  0  0  0
  -22.7200  -13.5860   21.2010 C   0  0  0  0  0  0  0  0  0  0  0  0
  -22.0150  -12.8810   22.0770 N   0  0  0  0  0  0  0  0  0  0  0  0
  -22.2640  -14.6090   20.6920 O   0  0  0  0  0  0  0  0  0  0  0  0
  -22.3950  -12.0560   22.5150 H   0  0  0  0  0  0  0  0  0  0  0  0
  -21.0770  -13.1750   22.3130 H   0  0  0  0  0  0  0  0  0  0  0  0
  -25.2990  -15.3020   20.3670 N   0  0  0  0  0  0  0  0  0  0  0  0
  -24.5210  -15.9370   20.5090 H   0  0  0  0  0  0  0  0  0  0  0  0
  -26.1130  -15.7580   19.9770 H   0  0  0  0  0  0  0  0  0  0  0  0
  -27.8860  -23.6470   20.3200 C   0  0  0  0  0  2  0  0  0  0  0  0
  -28.1180  -25.4410   20.3740 O   0  0  0  0  0  0  0  0  0  0  0  0
  -24.6660  -31.9010   23.2550 C   0  0  0  0  0  0  0  0  0  0  0  0
  -27.1670  -26.7060   20.3270 C   0  0  0  0  0  0  0  0  0  0  0  0
  -23.4800  -30.4960   21.6260 C   0  0  0  0  0  3  0  0  0  0  0  0
  -24.9230  -28.8100   20.2420 C   0  0  0  0  0  0  0  0  0  0  0  0
  -26.0650  -30.5960   21.5240 C   0  0  0  0  0  2  0  0  0  0  0  0
  -26.1210  -29.1470   20.8800 C   0  0  0  0  0  0  0  0  0  0  0  0
  -27.2250  -28.1260   20.8860 C   0  0  0  0  0  3  0  0  0  0  0  0
  -25.9330  -26.6020   19.6300 C   0  0  0  0  0  3  0  0  0  0  0  0
  -24.8730  -27.5640   19.5920 C   0  0  0  0  0  3  0  0  0  0  0  0
  -23.7270  -29.7810   20.2650 C   0  0  0  0  0  2  0  0  0  0  0  0
  -24.7610  -31.0340   22.1870 N   0  0  0  0  0  0  0  0  0  0  0  0
  -23.5700  -32.2160   23.7540 O   0  0  0  0  0  0  0  0  0  0  0  0
  -22.7460  -29.5380   22.6040 C   0  0  0  0  0  0  0  0  0  0  0  0
  -21.4120  -29.3900   22.4680 N   0  0  0  0  0  0  0  0  0  0  0  0
  -23.3880  -28.9240   23.4590 O   0  0  0  0  0  0  0  0  0  0  0  0
  -20.9430  -29.9330   21.7590 H   0  0  0  0  0  0  0  0  0  0  0  0
  -18.0150  -28.1900   22.9690 C   0  0  0  0  0  0  0  0  0  0  0  0
  -20.5750  -28.4650   23.2440 C   0  0  0  0  0  3  0  0  0  0  0  0
  -20.6790  -27.0230   22.6920 C   0  0  0  0  0  2  0  0  0  0  0  0
  -19.5870  -26.6890   21.6720 C   0  0  0  0  0  2  0  0  0  0  0  0
  -18.2000  -26.8360   22.3050 C   0  0  0  0  0  2  0  0  0  0  0  0
  -19.1290  -28.9620   23.3960 C   0  0  0  0  0  0  0  0  0  0  0  0
  -18.9000  -30.2240   23.9850 C   0  0  0  0  0  3  0  0  0  0  0  0
  -17.5920  -30.7170   24.1460 C   0  0  0  0  0  3  0  0  0  0  0  0
  -16.4930  -29.9450   23.7320 C   0  0  0  0  0  3  0  0  0  0  0  0
  -16.7050  -28.6820   23.1500 C   0  0  0  0  0  3  0  0  0  0  0  0
  -25.9260  -32.5550   23.9010 C   0  0  0  0  0  3  0  0  0  0  0  0
  -25.6060  -33.9630   24.2210 N   0  0  0  0  0  0  0  0  0  0  0  0
  -25.9290  -35.0210   23.4650 C   0  0  0  0  0  0  0  0  0  0  0  0
  -26.5810  -34.9160   22.4230 O   0  0  0  0  0  0  0  0  0  0  0  0
  -25.0200  -34.1160   25.0270 H   0  0  0  0  0  0  0  0  0  0  0  0
  -24.1910  -36.8230   23.1660 C   0  0  0  0  0  1  0  0  0  0  0  0
  -25.4600  -36.4160   23.9330 C   0  0  0  0  0  3  0  0  0  0  0  0
  -27.6160  -37.3180   24.6930 C   0  0  0  0  0  1  0  0  0  0  0  0
  -26.4880  -37.4690   23.7770 N   0  0  0  0  0  0  0  0  0  0  0  0
  -26.0850  -38.3910   23.9200 H   0  0  0  0  0  0  0  0  0  0  0  0
  -26.4070  -31.8090   25.2070 C   0  0  1  0  0  0  0  0  0  0  0  0
  -25.2900  -31.6040   26.2580 C   0  0  0  0  0  1  0  0  0  0  0  0
  -26.9870  -30.4160   24.8710 C   0  0  0  0  0  1  0  0  0  0  0  0
  -27.5510  -32.6080   25.8750 C   0  0  0  0  0  1  0  0  0  0  0  0
  2  1  1  0
  2 48  1  0
  3  6  2  0
  3  5  1  0
  4 18  1  0
  4  1  2  0
  5  2  2  0
  6  4  1  0
  7  3  1  0
  8  5  1  0
  9  6  1  0
 10 18  1  0
 11 16  1  0
 12 13  1  0
 12 11  1  0
 14 13  1  0
 14 23  1  0
 14 15  1  0
 16 10  1  0
 16 15  1  0
 17 10  2  0
 18 19  1  0
 20 21  2  0
 21 40  1  0
 22 21  1  0
 22 25  1  0
 23 24  1  0
 23 20  1  0
 24 22  2  0
 25 26  1  0
 26 27  2  0
 28 31  1  0
 28 27  1  0
 29 28  2  0
 30 29  1  0
 30 25  2  0
 31 32  1  0
 32 33  1  0
 33 34  2  0
 35 34  1  0
 35 39  1  0
 36 35  2  0
 37 32  2  0
 37 36  1  0
 38 37  1  0
 40 41  1  0
 41 44  1  0
 41 43  1  0
 42 40  2  0
 45 46  1  0
 45 20  1  0
 47 45  1  0
 48 49  1  0
 50 61  2  0
 51 49  1  0
 51 56  1  0
 52 60  1  0
 52 62  1  0
 53 59  1  0
 53 55  1  0
 54 60  1  0
 55 56  2  0
 55 54  1  0
 57 51  2  0
 58 57  1  0
 58 53  2  0
 59 52  1  0
 60 50  1  0
 62 64  2  0
 63 62  1  0
 65 63  1  0
 66 75  2  0
 66 71  1  0
 67 63  1  0
 67 71  1  0
 68 67  1  0
 69 70  1  0
 69 68  1  0
 70 66  1  0
 71 72  2  0
 72 73  1  0
 74 73  2  0
 75 74  1  0
 76 50  1  0
 76 77  1  0
 76 86  1  0
 77 80  1  0
 78 82  1  0
 78 77  1  0
 79 78  2  0
 82 81  1  0
 84 85  1  0
 84 82  1  0
 84 83  1  0
 86 89  1  1
 86 87  1  0
 88 86  1  0
M  ISO  4  10 100  18 100  48 101  49 101
M  END
>  <TORSDO>  (80) 
F 17

>  <SCORE>  (80) 
-16.726

>  <name>  (80) 
79

>  <ligand_id>  (80) 
79

>  <original_smiles>  (80) 
[H]c1c([H])c([H])c2c(c1[H])C([H])([H])C([H])([H])C([H])([H])C2([H])N([H])C(=O)C1([H])N(C(=O)C([H])(N([H])C(=O)C([H])(N([H])C([H])([H])[H])C([H])([H])[H])C(C([H])([H])[H])(C([H])([H])[H])C([H])([H])[H])C([H])([H])c2c([H])c(OC([H])([H])c3c([H])c(N([H])C(=O)N4C([H])([H])C([H])([H])C([H])([H])C([H])(n5nc(-c6c([H])c([H])c(Oc7c([H])c([H])c(F)c([H])c7F)c([H])c6[H])c(C(=O)N([H])[H])c5N([H])[H])C4([H])[H])c(Cl)c(C([H])([H])[H])c3F)c([H])c([H])c2C1([H])[H]

>  <smiles>  (80) 
[H]c1c([H])c([H])c2c(c1[H])C([H])([H])C([H])([H])C([H])([H])C2([H])N([H])C(=O)C1([H])N(C(=O)C([H])(N([H])C(=O)C([H])(N([H])C([H])([H])[H])C([H])([H])[H])C(C([H])([H])[H])(C([H])([H])[H])C([H])([H])[H])C([H])([H])c2c([H])c(OC([H])([H])c3c([H])c(N([H])C(=O)N4C([H])([H])C([H])([H])C([H])([H])C([H])(n5nc(-c6c([H])c([H])c(Oc7c([H])c([H])c(F)c([H])c7F)c([H])c6[H])c(C(=O)N([H])[H])c5N([H])[H])C4([H])[H])c(Cl)c(C([H])([H])[H])c3F)c([H])c([H])c2C1([H])[H]

$$$$
80:0:0
     RDKit          3D

 91 99  0  0  1  0  0  0  0  0999 V2000
  -28.4970  -18.2130   20.2200 C   0  0  0  0  0  3  0  0  0  0  0  0
  -30.0920  -19.9450   20.8070 C   0  0  0  0  0  3  0  0  0  0  0  0
  -29.7630  -18.5320   20.7460 C   0  0  0  0  0  0  0  0  0  0  0  0
  -27.5990  -19.2170   19.7920 C   0  0  0  0  0  0  0  0  0  0  0  0
  -29.1950  -21.0040   20.3820 C   0  0  0  0  0  0  0  0  0  0  0  0
  -27.9380  -20.5920   19.8700 C   0  0  0  0  0  0  0  0  0  0  0  0
  -26.2310  -18.8000   19.2790 C   0  0  0  0  0  1  0  0  0  0  0  0
  -26.7590  -21.7720   19.4000 Cl  0  0  0  0  0  0  0  0  0  0  0  0
  -29.4510  -22.5490   20.6700 C   0  0  0  0  0  2  0  0  0  0  0  0
  -28.9710  -23.7630   19.7150 C   0  0  0  0  0  2  0  0  0  0  0  0
  -28.3900  -25.0980   20.4070 C   0  0  0  0  0  2  0  0  0  0  0  0
  -28.4370  -26.4380   19.7570 O   0  0  0  0  0  0  0  0  0  0  0  0
  -24.6270  -31.6150   23.1000 C   0  0  0  0  0  0  0  0  0  0  0  0
  -27.3040  -27.2640   19.8150 C   0  0  0  0  0  0  0  0  0  0  0  0
  -23.4440  -30.2930   21.3810 C   0  0  0  0  0  3  0  0  0  0  0  0
  -24.9180  -28.8400   19.8760 C   0  0  0  0  0  0  0  0  0  0  0  0
  -25.9760  -30.6600   21.2170 C   0  0  0  0  0  2  0  0  0  0  0  0
  -26.0790  -29.3180   20.4980 C   0  0  0  0  0  0  0  0  0  0  0  0
  -27.2780  -28.5450   20.4500 C   0  0  0  0  0  3  0  0  0  0  0  0
  -26.1210  -26.8320   19.1800 C   0  0  0  0  0  3  0  0  0  0  0  0
  -24.9420  -27.6060   19.2030 C   0  0  0  0  0  3  0  0  0  0  0  0
  -23.6670  -29.6910   19.9680 C   0  0  0  0  0  2  0  0  0  0  0  0
  -24.7020  -30.8710   21.9560 N   0  0  0  0  0  0  0  0  0  0  0  0
  -23.5400  -31.8450   23.6510 O   0  0  0  0  0  0  0  0  0  0  0  0
  -22.7910  -29.2210   22.2860 C   0  0  0  0  0  0  0  0  0  0  0  0
  -21.4630  -29.0580   22.1680 N   0  0  0  0  0  0  0  0  0  0  0  0
  -23.4820  -28.5400   23.0490 O   0  0  0  0  0  0  0  0  0  0  0  0
  -20.9690  -29.6620   21.5280 H   0  0  0  0  0  0  0  0  0  0  0  0
  -18.0890  -27.8490   22.6590 C   0  0  0  0  0  0  0  0  0  0  0  0
  -20.6550  -28.0690   22.8830 C   0  0  0  0  0  3  0  0  0  0  0  0
  -20.7300  -26.6850   22.2010 C   0  0  0  0  0  2  0  0  0  0  0  0
  -19.6000  -26.4440   21.1950 C   0  0  0  0  0  2  0  0  0  0  0  0
  -18.2360  -26.5520   21.8820 C   0  0  0  0  0  2  0  0  0  0  0  0
  -19.2250  -28.5680   23.1160 C   0  0  0  0  0  0  0  0  0  0  0  0
  -19.0330  -29.7840   23.8090 C   0  0  0  0  0  3  0  0  0  0  0  0
  -17.7380  -30.2820   24.0450 C   0  0  0  0  0  3  0  0  0  0  0  0
  -16.6160  -29.5600   23.6010 C   0  0  0  0  0  3  0  0  0  0  0  0
  -16.7940  -28.3450   22.9140 C   0  0  0  0  0  3  0  0  0  0  0  0
  -25.9000  -32.2280   23.7600 C   0  0  0  0  0  3  0  0  0  0  0  0
  -26.4160  -31.4030   25.0030 C   0  0  1  0  0  0  0  0  0  0  0  0
  -25.3200  -31.1160   26.0580 C   0  0  0  0  0  1  0  0  0  0  0  0
  -27.0040  -30.0450   24.5510 C   0  0  0  0  0  1  0  0  0  0  0  0
  -27.5650  -32.1690   25.7000 C   0  0  0  0  0  1  0  0  0  0  0  0
  -25.5780  -33.6080   24.1540 N   0  0  0  0  0  0  0  0  0  0  0  0
  -25.9180  -34.7000   23.4540 C   0  0  0  0  0  0  0  0  0  0  0  0
  -26.6030  -34.6510   22.4290 O   0  0  0  0  0  0  0  0  0  0  0  0
  -24.9740  -33.7220   24.9540 H   0  0  0  0  0  0  0  0  0  0  0  0
  -24.1820  -36.4980   23.1710 C   0  0  0  0  0  1  0  0  0  0  0  0
  -25.4170  -36.0610   23.9740 C   0  0  0  0  0  3  0  0  0  0  0  0
  -27.5340  -36.9220   24.8720 C   0  0  0  0  0  1  0  0  0  0  0  0
  -26.4440  -37.1260   23.9220 N   0  0  0  0  0  0  0  0  0  0  0  0
  -26.0310  -38.0360   24.1060 H   0  0  0  0  0  0  0  0  0  0  0  0
  -30.7170  -17.3700   21.2590 C   0  0  0  0  0  2  0  0  0  0  0  0
  -30.9860  -14.7840   21.3020 C   0  0  0  0  0  0  0  0  0  0  0  0
  -30.8580  -12.4620   20.3990 C   0  0  0  0  0  2  0  0  0  0  0  0
  -30.0950  -12.4720   19.0570 C   0  0  0  0  0  2  0  0  0  0  0  0
  -28.5790  -12.3450   19.2970 C   0  0  0  0  0  2  0  0  0  0  0  0
  -28.0620  -13.3170   20.3930 C   0  0  0  0  0  3  0  0  0  0  0  0
  -28.9600  -13.2930   21.6500 C   0  0  0  0  0  2  0  0  0  0  0  0
  -30.3340  -13.5780   21.2170 N   0  0  0  0  0  0  0  0  0  0  0  0
  -32.2010  -14.8510   21.1010 O   0  0  0  0  0  0  0  0  0  0  0  0
  -30.2330  -15.9350   21.4030 N   0  0  0  0  0  0  0  0  0  0  0  0
  -29.2430  -15.8040   21.5320 H   0  0  0  0  0  0  0  0  0  0  0  0
  -25.6230  -13.9850   20.8370 C   0  0  0  0  0  0  0  0  0  0  0  0
  -24.4950  -13.2460   21.0710 C   0  0  0  0  0  0  0  0  0  0  0  0
  -24.9130  -11.8790   21.0780 C   0  0  0  0  0  0  0  0  0  0  0  0
  -26.6590  -13.0730   20.7170 N   0  0  0  0  0  0  0  0  0  0  0  0
  -26.2310  -11.8010   20.9250 N   0  0  0  0  0  0  0  0  0  0  0  0
  -24.1270  -10.6400   21.1610 C   0  0  0  0  0  0  0  0  0  0  0  0
  -24.4230   -9.6400   22.1140 C   0  0  0  0  0  3  0  0  0  0  0  0
  -23.6390   -8.4680   22.1890 C   0  0  0  0  0  3  0  0  0  0  0  0
  -22.5450   -8.2890   21.3100 C   0  0  0  0  0  0  0  0  0  0  0  0
  -22.2680   -9.2770   20.3500 C   0  0  0  0  0  3  0  0  0  0  0  0
  -23.0520  -10.4410   20.2730 C   0  0  0  0  0  3  0  0  0  0  0  0
  -21.7460   -7.1710   21.2920 O   0  0  0  0  0  0  0  0  0  0  0  0
  -21.5780   -6.3880   22.4050 C   0  0  0  0  0  0  0  0  0  0  0  0
  -21.0850   -6.9160   23.6180 C   0  0  0  0  0  3  0  0  0  0  0  0
  -20.8610   -6.0640   24.7180 C   0  0  0  0  0  3  0  0  0  0  0  0
  -21.1230   -4.6850   24.6060 C   0  0  0  0  0  0  0  0  0  0  0  0
  -21.6100   -4.1570   23.3970 C   0  0  0  0  0  3  0  0  0  0  0  0
  -21.8340   -5.0070   22.2990 C   0  0  0  0  0  0  0  0  0  0  0  0
  -22.2840   -4.4890   21.1310 F   0  0  0  0  0  0  0  0  0  0  0  0
  -20.9010   -3.8640   25.6590 F   0  0  0  0  0  0  0  0  0  0  0  0
  -23.0930  -13.7710   21.1760 C   0  0  0  0  0  0  0  0  0  0  0  0
  -22.2490  -13.1090   21.9600 N   0  0  0  0  0  0  0  0  0  0  0  0
  -22.7510  -14.8010   20.5980 O   0  0  0  0  0  0  0  0  0  0  0  0
  -22.5330  -12.2730   22.4460 H   0  0  0  0  0  0  0  0  0  0  0  0
  -21.3040  -13.4460   22.0760 H   0  0  0  0  0  0  0  0  0  0  0  0
  -25.8510  -15.3490   20.6830 N   0  0  0  0  0  0  0  0  0  0  0  0
  -25.0770  -16.0030   20.6380 H   0  0  0  0  0  0  0  0  0  0  0  0
  -26.7120  -15.7300   20.3130 H   0  0  0  0  0  0  0  0  0  0  0  0
  1  3  1  0
  3  2  2  0
  3 53  1  0
  4  6  1  0
  4  1  2  0
  5  9  1  0
  5  2  1  0
  6  5  2  0
  7  4  1  0
  8  6  1  0
 10 11  1  0
 10  9  1  0
 12 14  1  0
 12 11  1  0
 13 24  2  0
 14 19  1  0
 15 23  1  0
 15 25  1  0
 16 22  1  0
 16 18  1  0
 17 23  1  0
 18 17  1  0
 19 18  2  0
 20 21  1  0
 20 14  2  0
 21 16  2  0
 22 15  1  0
 23 13  1  0
 25 27  2  0
 26 25  1  0
 28 26  1  0
 29 38  2  0
 29 34  1  0
 30 26  1  0
 30 34  1  0
 31 30  1  0
 32 33  1  0
 32 31  1  0
 33 29  1  0
 34 35  2  0
 35 36  1  0
 37 36  2  0
 38 37  1  0
 39 13  1  0
 39 44  1  0
 39 40  1  0
 40 43  1  1
 40 41  1  0
 42 40  1  0
 44 47  1  0
 45 49  1  0
 45 44  1  0
 46 45  2  0
 49 48  1  0
 51 49  1  0
 51 52  1  0
 51 50  1  0
 53 62  1  0
 54 62  1  0
 55 60  1  0
 56 57  1  0
 56 55  1  0
 58 57  1  0
 58 67  1  0
 58 59  1  0
 60 54  1  0
 60 59  1  0
 61 54  2  0
 62 63  1  0
 64 65  2  0
 65 66  1  0
 65 84  1  0
 66 69  1  0
 67 64  1  0
 67 68  1  0
 68 66  2  0
 69 70  1  0
 70 71  2  0
 72 71  1  0
 73 72  2  0
 74 73  1  0
 74 69  2  0
 75 72  1  0
 75 76  1  0
 76 77  1  0
 77 78  2  0
 79 78  1  0
 79 83  1  0
 80 79  2  0
 81 76  2  0
 81 80  1  0
 82 81  1  0
 84 85  1  0
 85 88  1  0
 85 87  1  0
 86 84  2  0
 89 64  1  0
 90 89  1  0
 91 89  1  0
M  ISO  4  11 101  12 101  54 100  62 100
M  END
>  <TORSDO>  (81) 
F 20

>  <SCORE>  (81) 
-12.405

>  <name>  (81) 
80

>  <ligand_id>  (81) 
80

>  <original_smiles>  (81) 
[H]c1c([H])c([H])c2c(c1[H])C([H])([H])C([H])([H])C([H])([H])C2([H])N([H])C(=O)C1([H])N(C(=O)C([H])(N([H])C(=O)C([H])(N([H])C([H])([H])[H])C([H])([H])[H])C(C([H])([H])[H])(C([H])([H])[H])C([H])([H])[H])C([H])([H])c2c([H])c(OC([H])([H])C([H])([H])C([H])([H])c3c([H])c(C([H])([H])N([H])C(=O)N4C([H])([H])C([H])([H])C([H])([H])C([H])(n5nc(-c6c([H])c([H])c(Oc7c([H])c([H])c(F)c([H])c7F)c([H])c6[H])c(C(=O)N([H])[H])c5N([H])[H])C4([H])[H])c([H])c(C([H])([H])[H])c3Cl)c([H])c([H])c2C1([H])[H]

>  <smiles>  (81) 
[H]c1c([H])c([H])c2c(c1[H])C([H])([H])C([H])([H])C([H])([H])C2([H])N([H])C(=O)C1([H])N(C(=O)C([H])(N([H])C(=O)C([H])(N([H])C([H])([H])[H])C([H])([H])[H])C(C([H])([H])[H])(C([H])([H])[H])C([H])([H])[H])C([H])([H])c2c([H])c(OC([H])([H])C([H])([H])C([H])([H])c3c([H])c(C([H])([H])N([H])C(=O)N4C([H])([H])C([H])([H])C([H])([H])C([H])(n5nc(-c6c([H])c([H])c(Oc7c([H])c([H])c(F)c([H])c7F)c([H])c6[H])c(C(=O)N([H])[H])c5N([H])[H])C4([H])[H])c([H])c(C([H])([H])[H])c3Cl)c([H])c([H])c2C1([H])[H]

$$$$
81:0:0
     RDKit          3D

 91100  0  0  1  0  0  0  0  0999 V2000
  -30.5250  -15.1720   20.3600 C   0  0  0  0  0  0  0  0  0  0  0  0
  -30.3880  -12.7450   19.5190 C   0  0  0  0  0  2  0  0  0  0  0  0
  -29.4980  -12.5630   18.2690 C   0  0  0  0  0  2  0  0  0  0  0  0
  -28.0430  -12.3140   18.6920 C   0  0  0  0  0  2  0  0  0  0  0  0
  -27.5850  -13.2910   19.8040 C   0  0  0  0  0  3  0  0  0  0  0  0
  -28.6170  -13.4690   20.9400 C   0  0  0  0  0  2  0  0  0  0  0  0
  -29.8650  -13.9190   20.3110 N   0  0  0  0  0  0  0  0  0  0  0  0
  -31.7440  -15.0550   20.1520 O   0  0  0  0  0  0  0  0  0  0  0  0
  -30.0710  -20.3300   20.9740 C   0  0  0  0  0  0  0  0  0  0  0  0
  -30.6880  -21.6190   21.1550 C   0  0  0  0  0  0  0  0  0  0  0  0
  -30.0040  -22.8640   20.8510 C   0  0  0  0  0  0  0  0  0  0  0  0
  -28.8230  -20.3280   20.3420 C   0  0  0  0  0  0  0  0  0  0  0  0
  -28.6900  -22.9000   20.2930 C   0  0  0  0  0  0  0  0  0  0  0  0
  -30.5830  -18.9670   21.6130 C   0  0  0  0  0  3  0  0  0  0  0  0
  -28.1690  -18.8380   20.1950 C   0  0  0  0  0  3  0  0  0  0  0  0
  -30.9660  -17.6760   20.7450 C   0  0  0  0  0  3  0  0  0  0  0  0
  -28.8890  -17.3520   19.7740 C   0  0  0  0  0  3  0  0  0  0  0  0
  -32.1140  -21.6760   21.6910 C   0  0  0  0  0  1  0  0  0  0  0  0
  -30.6770  -24.2080   21.1320 C   0  0  0  0  0  1  0  0  0  0  0  0
  -28.1720  -21.5810   20.0440 N   0  0  0  0  0  0  0  0  0  0  0  0
  -29.9750  -16.5380   20.5450 N   0  0  0  0  0  0  0  0  0  0  0  0
  -25.2070  -13.8440   20.5310 C   0  0  0  0  0  0  0  0  0  0  0  0
  -24.1440  -13.0650   20.8920 C   0  0  0  0  0  0  0  0  0  0  0  0
  -24.6170  -11.7160   20.8790 C   0  0  0  0  0  0  0  0  0  0  0  0
  -26.2560  -12.9710   20.3050 N   0  0  0  0  0  0  0  0  0  0  0  0
  -25.9140  -11.6870   20.5840 N   0  0  0  0  0  0  0  0  0  0  0  0
  -23.8920  -10.4520   21.0670 C   0  0  0  0  0  0  0  0  0  0  0  0
  -24.3250   -9.4830   21.9990 C   0  0  0  0  0  3  0  0  0  0  0  0
  -23.5990   -8.2860   22.1780 C   0  0  0  0  0  3  0  0  0  0  0  0
  -22.4240   -8.0500   21.4260 C   0  0  0  0  0  0  0  0  0  0  0  0
  -22.0070   -9.0080   20.4850 C   0  0  0  0  0  3  0  0  0  0  0  0
  -22.7350  -10.1950   20.3040 C   0  0  0  0  0  3  0  0  0  0  0  0
  -21.6680   -6.9060   21.5160 O   0  0  0  0  0  0  0  0  0  0  0  0
  -21.6330   -6.1520   22.6620 C   0  0  0  0  0  0  0  0  0  0  0  0
  -21.2420   -6.7020   23.9030 C   0  0  0  0  0  3  0  0  0  0  0  0
  -21.1550   -5.8760   25.0410 C   0  0  0  0  0  3  0  0  0  0  0  0
  -21.4470   -4.5020   24.9400 C   0  0  0  0  0  0  0  0  0  0  0  0
  -21.8310   -3.9530   23.7040 C   0  0  0  0  0  3  0  0  0  0  0  0
  -21.9200   -4.7760   22.5680 C   0  0  0  0  0  0  0  0  0  0  0  0
  -22.2710   -4.2380   21.3750 F   0  0  0  0  0  0  0  0  0  0  0  0
  -21.3550   -3.7090   26.0310 F   0  0  0  0  0  0  0  0  0  0  0  0
  -22.7420  -13.5390   21.1360 C   0  0  0  0  0  0  0  0  0  0  0  0
  -22.0040  -12.8570   22.0030 N   0  0  0  0  0  0  0  0  0  0  0  0
  -22.3090  -14.5550   20.5910 O   0  0  0  0  0  0  0  0  0  0  0  0
  -22.3660  -12.0360   22.4640 H   0  0  0  0  0  0  0  0  0  0  0  0
  -21.0630  -13.1620   22.2100 H   0  0  0  0  0  0  0  0  0  0  0  0
  -25.3650  -15.2130   20.3450 N   0  0  0  0  0  0  0  0  0  0  0  0
  -24.5880  -15.8600   20.4320 H   0  0  0  0  0  0  0  0  0  0  0  0
  -26.2160  -15.6520   20.0200 H   0  0  0  0  0  0  0  0  0  0  0  0
  -27.8370  -24.3580   19.9480 C   0  0  0  0  0  2  0  0  0  0  0  0
  -28.1800  -25.9250   20.1770 O   0  0  0  0  0  0  0  0  0  0  0  0
  -24.6710  -31.8330   23.1460 C   0  0  0  0  0  0  0  0  0  0  0  0
  -27.1820  -27.0080   20.0980 C   0  0  0  0  0  0  0  0  0  0  0  0
  -23.4560  -30.4420   21.5190 C   0  0  0  0  0  3  0  0  0  0  0  0
  -24.8850  -28.8510   20.0770 C   0  0  0  0  0  0  0  0  0  0  0  0
  -26.0170  -30.6670   21.3410 C   0  0  0  0  0  2  0  0  0  0  0  0
  -26.0780  -29.2640   20.6840 C   0  0  0  0  0  0  0  0  0  0  0  0
  -27.2250  -28.3600   20.6740 C   0  0  0  0  0  3  0  0  0  0  0  0
  -25.9650  -26.7360   19.4350 C   0  0  0  0  0  3  0  0  0  0  0  0
  -24.8490  -27.6060   19.4320 C   0  0  0  0  0  3  0  0  0  0  0  0
  -23.6670  -29.7660   20.1380 C   0  0  0  0  0  2  0  0  0  0  0  0
  -24.7360  -31.0060   22.0560 N   0  0  0  0  0  0  0  0  0  0  0  0
  -23.5880  -32.1220   23.6810 O   0  0  0  0  0  0  0  0  0  0  0  0
  -22.7750  -29.4400   22.4880 C   0  0  0  0  0  0  0  0  0  0  0  0
  -21.4420  -29.2840   22.3810 N   0  0  0  0  0  0  0  0  0  0  0  0
  -23.4520  -28.8070   23.3020 O   0  0  0  0  0  0  0  0  0  0  0  0
  -20.9520  -29.8460   21.7010 H   0  0  0  0  0  0  0  0  0  0  0  0
  -18.0600  -28.0960   22.9310 C   0  0  0  0  0  0  0  0  0  0  0  0
  -20.6250  -28.3490   23.1610 C   0  0  0  0  0  3  0  0  0  0  0  0
  -20.7110  -26.9170   22.5820 C   0  0  0  0  0  2  0  0  0  0  0  0
  -19.5940  -26.6020   21.5820 C   0  0  0  0  0  2  0  0  0  0  0  0
  -18.2220  -26.7500   22.2460 C   0  0  0  0  0  2  0  0  0  0  0  0
  -19.1880  -28.8540   23.3470 C   0  0  0  0  0  0  0  0  0  0  0  0
  -18.9810  -30.1130   23.9510 C   0  0  0  0  0  3  0  0  0  0  0  0
  -17.6810  -30.6150   24.1420 C   0  0  0  0  0  3  0  0  0  0  0  0
  -16.5680  -29.8560   23.7410 C   0  0  0  0  0  3  0  0  0  0  0  0
  -16.7580  -28.5980   23.1410 C   0  0  0  0  0  3  0  0  0  0  0  0
  -25.9510  -32.4700   23.7660 C   0  0  0  0  0  3  0  0  0  0  0  0
  -25.6340  -33.8620   24.1300 N   0  0  0  0  0  0  0  0  0  0  0  0
  -25.9420  -34.9370   23.3930 C   0  0  0  0  0  0  0  0  0  0  0  0
  -26.5890  -34.8610   22.3450 O   0  0  0  0  0  0  0  0  0  0  0  0
  -25.0550  -33.9920   24.9470 H   0  0  0  0  0  0  0  0  0  0  0  0
  -24.1900  -36.7270   23.1300 C   0  0  0  0  0  1  0  0  0  0  0  0
  -25.4580  -36.3130   23.8950 C   0  0  0  0  0  3  0  0  0  0  0  0
  -27.6110  -37.1990   24.6760 C   0  0  0  0  0  1  0  0  0  0  0  0
  -26.4780  -37.3770   23.7720 N   0  0  0  0  0  0  0  0  0  0  0  0
  -26.0690  -38.2910   23.9510 H   0  0  0  0  0  0  0  0  0  0  0  0
  -26.4850  -31.6850   25.0290 C   0  0  1  0  0  0  0  0  0  0  0  0
  -25.4070  -31.4360   26.1090 C   0  0  0  0  0  1  0  0  0  0  0  0
  -27.0630  -30.3110   24.6210 C   0  0  0  0  0  1  0  0  0  0  0  0
  -27.6450  -32.4720   25.6830 C   0  0  0  0  0  1  0  0  0  0  0  0
  1 21  1  0
  2  7  1  0
  3  4  1  0
  3  2  1  0
  5  4  1  0
  5 25  1  0
  5  6  1  0
  7  1  1  0
  7  6  1  0
  8  1  2  0
  9 10  1  0
  9 14  1  0
 10 18  1  0
 11 19  1  0
 11 10  2  0
 12  9  2  0
 13 11  1  0
 15 12  1  0
 16 14  2  0
 17 15  2  0
 17 21  1  0
 20 13  2  0
 20 12  1  0
 21 16  1  0
 22 23  2  0
 23 42  1  0
 24 23  1  0
 24 27  1  0
 25 22  1  0
 25 26  1  0
 26 24  2  0
 27 28  1  0
 28 29  2  0
 30 33  1  0
 30 29  1  0
 31 30  2  0
 32 31  1  0
 32 27  2  0
 33 34  1  0
 34 35  1  0
 35 36  2  0
 37 36  1  0
 37 41  1  0
 38 37  2  0
 39 34  2  0
 39 38  1  0
 40 39  1  0
 42 43  1  0
 43 46  1  0
 43 45  1  0
 44 42  2  0
 47 48  1  0
 47 22  1  0
 49 47  1  0
 50 51  1  0
 50 13  1  0
 52 63  2  0
 53 51  1  0
 53 58  1  0
 54 62  1  0
 54 64  1  0
 55 61  1  0
 55 57  1  0
 56 62  1  0
 57 56  1  0
 58 57  2  0
 59 53  2  0
 60 59  1  0
 60 55  2  0
 61 54  1  0
 62 52  1  0
 64 66  2  0
 65 64  1  0
 67 65  1  0
 68 77  2  0
 68 73  1  0
 69 65  1  0
 69 73  1  0
 70 69  1  0
 71 72  1  0
 71 70  1  0
 72 68  1  0
 73 74  2  0
 74 75  1  0
 76 75  2  0
 77 76  1  0
 78 52  1  0
 78 79  1  0
 78 88  1  0
 79 82  1  0
 80 84  1  0
 80 79  1  0
 81 80  2  0
 84 83  1  0
 86 84  1  0
 86 87  1  0
 86 85  1  0
 88 91  1  1
 88 89  1  0
 90 88  1  0
M  ISO  4   1 100  21 100  50 101  51 101
M  END
>  <TORSDO>  (82) 
F 16

>  <SCORE>  (82) 
-16.432

>  <name>  (82) 
81

>  <ligand_id>  (82) 
81

>  <original_smiles>  (82) 
[H]c1c([H])c([H])c2c(c1[H])C([H])([H])C([H])([H])C([H])([H])C2([H])N([H])C(=O)C1([H])N(C(=O)C([H])(N([H])C(=O)C([H])(N([H])C([H])([H])[H])C([H])([H])[H])C(C([H])([H])[H])(C([H])([H])[H])C([H])([H])[H])C([H])([H])c2c([H])c(OC([H])([H])c3nc4c(c(C([H])([H])[H])c3C([H])([H])[H])C([H])([H])C([H])([H])N(C(=O)N3C([H])([H])C([H])([H])C([H])([H])C([H])(n5nc(-c6c([H])c([H])c(Oc7c([H])c([H])c(F)c([H])c7F)c([H])c6[H])c(C(=O)N([H])[H])c5N([H])[H])C3([H])[H])C([H])([H])C4([H])[H])c([H])c([H])c2C1([H])[H]

>  <smiles>  (82) 
[H]c1c([H])c([H])c2c(c1[H])C([H])([H])C([H])([H])C([H])([H])C2([H])N([H])C(=O)C1([H])N(C(=O)C([H])(N([H])C(=O)C([H])(N([H])C([H])([H])[H])C([H])([H])[H])C(C([H])([H])[H])(C([H])([H])[H])C([H])([H])[H])C([H])([H])c2c([H])c(OC([H])([H])c3nc4c(c(C([H])([H])[H])c3C([H])([H])[H])C([H])([H])C([H])([H])N(C(=O)N3C([H])([H])C([H])([H])C([H])([H])C([H])(n5nc(-c6c([H])c([H])c(Oc7c([H])c([H])c(F)c([H])c7F)c([H])c6[H])c(C(=O)N([H])[H])c5N([H])[H])C3([H])[H])C([H])([H])C4([H])[H])c([H])c([H])c2C1([H])[H]

$$$$
82:0:0
     RDKit          3D

 92100  0  0  1  0  0  0  0  0999 V2000
  -31.0940  -19.5680   19.1590 C   0  0  0  0  0  3  0  0  0  0  0  0
  -29.3870  -19.9950   19.2600 C   0  0  0  0  0  3  0  0  0  0  0  0
  -31.9400  -18.4890   20.3140 C   0  0  0  0  0  0  0  0  0  0  0  0
  -28.4640  -18.9230   20.3040 C   0  0  2  0  0  0  0  0  0  0  0  0
  -30.8800  -17.6570   21.5650 C   0  0  0  0  0  3  0  0  0  0  0  0
  -26.9840  -19.1700   20.4760 C   0  0  0  0  0  1  0  0  0  0  0  0
  -29.1330  -17.8350   21.4660 N   0  0  0  0  0  0  0  0  0  0  0  0
  -33.6660  -18.5060   20.4290 Cl  0  0  0  0  0  0  0  0  0  0  0  0
  -28.9900  -21.8420   18.8610 C   0  0  0  0  0  1  0  0  0  0  0  0
  -28.1020  -23.5710   19.3530 C   0  0  0  0  0  1  0  0  0  0  0  0
  -28.1470  -25.3810   19.1740 O   0  0  0  0  0  0  0  0  0  0  0  0
  -24.8440  -31.5830   22.7630 C   0  0  0  0  0  0  0  0  0  0  0  0
  -27.1710  -26.6180   19.3320 C   0  0  0  0  0  0  0  0  0  0  0  0
  -23.5610  -30.2850   21.1170 C   0  0  0  0  0  3  0  0  0  0  0  0
  -24.9190  -28.7080   19.5330 C   0  0  0  0  0  0  0  0  0  0  0  0
  -26.1340  -30.4120   20.8590 C   0  0  0  0  0  2  0  0  0  0  0  0
  -26.1550  -29.0100   20.1160 C   0  0  0  0  0  0  0  0  0  0  0  0
  -27.2610  -28.0010   19.9760 C   0  0  0  0  0  3  0  0  0  0  0  0
  -25.8930  -26.5510   18.7160 C   0  0  0  0  0  3  0  0  0  0  0  0
  -24.8300  -27.5070   18.8070 C   0  0  0  0  0  3  0  0  0  0  0  0
  -23.7230  -29.6660   19.6990 C   0  0  0  0  0  2  0  0  0  0  0  0
  -24.8750  -30.7920   21.6320 N   0  0  0  0  0  0  0  0  0  0  0  0
  -23.7820  -31.8530   23.3500 O   0  0  0  0  0  0  0  0  0  0  0  0
  -22.8940  -29.2560   22.0700 C   0  0  0  0  0  0  0  0  0  0  0  0
  -21.5530  -29.1290   22.0320 N   0  0  0  0  0  0  0  0  0  0  0  0
  -23.5950  -28.5700   22.8170 O   0  0  0  0  0  0  0  0  0  0  0  0
  -21.0350  -29.7330   21.4090 H   0  0  0  0  0  0  0  0  0  0  0  0
  -18.1890  -27.9290   22.7190 C   0  0  0  0  0  0  0  0  0  0  0  0
  -20.7680  -28.1490   22.7950 C   0  0  0  0  0  3  0  0  0  0  0  0
  -20.7970  -26.7610   22.1130 C   0  0  0  0  0  2  0  0  0  0  0  0
  -19.6140  -26.5290   21.1660 C   0  0  0  0  0  2  0  0  0  0  0  0
  -18.2900  -26.6360   21.9260 C   0  0  0  0  0  2  0  0  0  0  0  0
  -19.3500  -28.6480   23.1120 C   0  0  0  0  0  0  0  0  0  0  0  0
  -19.1960  -29.8560   23.8250 C   0  0  0  0  0  3  0  0  0  0  0  0
  -17.9150  -30.3480   24.1410 C   0  0  0  0  0  3  0  0  0  0  0  0
  -16.7710  -29.6280   23.7580 C   0  0  0  0  0  3  0  0  0  0  0  0
  -16.9080  -28.4190   23.0530 C   0  0  0  0  0  3  0  0  0  0  0  0
  -26.1390  -32.1990   23.3720 C   0  0  0  0  0  3  0  0  0  0  0  0
  -25.8220  -33.5560   23.8640 N   0  0  0  0  0  0  0  0  0  0  0  0
  -26.1340  -34.7000   23.2380 C   0  0  0  0  0  0  0  0  0  0  0  0
  -26.7740  -34.7240   22.1840 O   0  0  0  0  0  0  0  0  0  0  0  0
  -25.2460  -33.6080   24.6910 H   0  0  0  0  0  0  0  0  0  0  0  0
  -24.4000  -36.5290   23.1680 C   0  0  0  0  0  1  0  0  0  0  0  0
  -25.6670  -36.0250   23.8780 C   0  0  0  0  0  3  0  0  0  0  0  0
  -27.8280  -36.8180   24.7400 C   0  0  0  0  0  1  0  0  0  0  0  0
  -26.6970  -37.0890   23.8560 N   0  0  0  0  0  0  0  0  0  0  0  0
  -26.2960  -37.9840   24.1210 H   0  0  0  0  0  0  0  0  0  0  0  0
  -26.7380  -31.3340   24.5510 C   0  0  1  0  0  0  0  0  0  0  0  0
  -25.7170  -31.0040   25.6660 C   0  0  0  0  0  1  0  0  0  0  0  0
  -27.3020  -29.9950   24.0280 C   0  0  0  0  0  1  0  0  0  0  0  0
  -27.9250  -32.0850   25.1980 C   0  0  0  0  0  1  0  0  0  0  0  0
  -31.3160  -17.9390   22.9300 C   0  0  0  0  0  2  0  0  0  0  0  0
  -31.1540  -19.4370   22.7360 C   0  0  0  0  0  2  0  0  0  0  0  0
  -30.2110  -19.7360   21.4720 C   0  0  0  0  0  1  0  0  0  0  0  0
  -29.7480  -15.8640   19.7070 C   0  0  0  0  0  0  0  0  0  0  0  0
  -29.8330  -13.3200   18.8020 C   0  0  0  0  0  2  0  0  0  0  0  0
  -28.8750  -12.7870   17.6990 C   0  0  0  0  0  2  0  0  0  0  0  0
  -27.5510  -12.3170   18.3060 C   0  0  0  0  0  2  0  0  0  0  0  0
  -27.0740  -13.2900   19.4050 C   0  0  0  0  0  3  0  0  0  0  0  0
  -28.1790  -13.7510   20.3930 C   0  0  0  0  0  2  0  0  0  0  0  0
  -29.1970  -14.4910   19.5960 N   0  0  0  0  0  0  0  0  0  0  0  0
  -30.9620  -15.6740   19.4790 O   0  0  0  0  0  0  0  0  0  0  0  0
  -29.1770  -17.3940   19.9490 N   0  0  2  0  0  4  0  0  0  0  0  0
  -28.1700  -17.4140   19.8730 H   0  0  0  0  0  0  0  0  0  0  0  0
  -24.7920  -13.6490   20.4420 C   0  0  0  0  0  0  0  0  0  0  0  0
  -23.8230  -12.7960   20.8830 C   0  0  0  0  0  0  0  0  0  0  0  0
  -24.3630  -11.4780   20.7560 C   0  0  0  0  0  0  0  0  0  0  0  0
  -25.8520  -12.8510   20.0610 N   0  0  0  0  0  0  0  0  0  0  0  0
  -25.6170  -11.5360   20.3150 N   0  0  0  0  0  0  0  0  0  0  0  0
  -23.7290  -10.1700   20.9710 C   0  0  0  0  0  0  0  0  0  0  0  0
  -24.2390   -9.2440   21.9070 C   0  0  0  0  0  3  0  0  0  0  0  0
  -23.5950   -8.0040   22.1150 C   0  0  0  0  0  3  0  0  0  0  0  0
  -22.4240   -7.6810   21.3880 C   0  0  0  0  0  0  0  0  0  0  0  0
  -21.9330   -8.5970   20.4400 C   0  0  0  0  0  3  0  0  0  0  0  0
  -22.5780   -9.8270   20.2310 C   0  0  0  0  0  3  0  0  0  0  0  0
  -21.7470   -6.4920   21.5050 O   0  0  0  0  0  0  0  0  0  0  0  0
  -21.6990   -5.8030   22.6910 C   0  0  0  0  0  0  0  0  0  0  0  0
  -21.1740   -6.3810   23.8670 C   0  0  0  0  0  3  0  0  0  0  0  0
  -21.0800   -5.6150   25.0470 C   0  0  0  0  0  3  0  0  0  0  0  0
  -21.5020   -4.2720   25.0500 C   0  0  0  0  0  0  0  0  0  0  0  0
  -22.0190   -3.6930   23.8780 C   0  0  0  0  0  3  0  0  0  0  0  0
  -22.1150   -4.4570   22.7010 C   0  0  0  0  0  0  0  0  0  0  0  0
  -22.5950   -3.8880   21.5680 F   0  0  0  0  0  0  0  0  0  0  0  0
  -21.4040   -3.5340   26.1800 F   0  0  0  0  0  0  0  0  0  0  0  0
  -22.4340  -13.1800   21.3000 C   0  0  0  0  0  0  0  0  0  0  0  0
  -21.8410  -12.4290   22.2190 N   0  0  0  0  0  0  0  0  0  0  0  0
  -21.8900  -14.1870   20.8460 O   0  0  0  0  0  0  0  0  0  0  0  0
  -22.3000  -11.6180   22.6050 H   0  0  0  0  0  0  0  0  0  0  0  0
  -20.9140  -12.6690   22.5430 H   0  0  0  0  0  0  0  0  0  0  0  0
  -24.8560  -15.0310   20.2930 N   0  0  0  0  0  0  0  0  0  0  0  0
  -24.0700  -15.6360   20.5030 H   0  0  0  0  0  0  0  0  0  0  0  0
  -25.6450  -15.5270   19.8980 H   0  0  0  0  0  0  0  0  0  0  0  0
  1  2  1  0
  1  3  2  0
  2  9  1  0
  2  4  1  0
  3  8  1  0
  3  5  1  0
  4  6  1  1
  4  7  1  0
  5 52  1  0
  7 63  1  0
  7  5  1  0
 11 13  1  0
 11 10  1  0
 12 23  2  0
 13 18  1  0
 14 22  1  0
 14 24  1  0
 15 21  1  0
 15 17  1  0
 16 22  1  0
 17 16  1  0
 18 17  2  0
 19 20  1  0
 19 13  2  0
 20 15  2  0
 21 14  1  0
 22 12  1  0
 24 26  2  0
 25 24  1  0
 27 25  1  0
 28 37  2  0
 28 33  1  0
 29 25  1  0
 29 33  1  0
 30 29  1  0
 31 32  1  0
 31 30  1  0
 32 28  1  0
 33 34  2  0
 34 35  1  0
 36 35  2  0
 37 36  1  0
 38 12  1  0
 38 39  1  0
 38 48  1  0
 39 42  1  0
 40 39  1  0
 40 44  1  0
 41 40  2  0
 44 43  1  0
 46 44  1  0
 46 47  1  0
 46 45  1  0
 48 51  1  1
 48 49  1  0
 50 48  1  0
 53 52  1  0
 54 53  1  0
 55 63  1  0
 56 61  1  0
 57 58  1  0
 57 56  1  0
 59 58  1  0
 59 68  1  0
 59 60  1  0
 61 55  1  0
 61 60  1  0
 62 55  2  0
 63  4  1  0
 63 64  1  6
 65 66  2  0
 66 85  1  0
 67 66  1  0
 67 70  1  0
 68 69  1  0
 68 65  1  0
 69 67  2  0
 70 71  1  0
 71 72  2  0
 73 76  1  0
 73 72  1  0
 74 73  2  0
 75 74  1  0
 75 70  2  0
 76 77  1  0
 77 82  2  0
 77 78  1  0
 78 79  2  0
 79 80  1  0
 80 84  1  0
 81 80  2  0
 82 81  1  0
 83 82  1  0
 85 86  1  0
 86 89  1  0
 86 88  1  0
 87 85  2  0
 90 65  1  0
 90 91  1  0
 92 90  1  0
M  ISO  4  10 101  11 101  55 100  63 100
M  END
>  <TORSDO>  (83) 
F 21

>  <SCORE>  (83) 
-12.539

>  <name>  (83) 
82

>  <ligand_id>  (83) 
82

>  <original_smiles>  (83) 
[H]c1c([H])c([H])c2c(c1[H])C([H])([H])C([H])([H])C([H])([H])C2([H])N([H])C(=O)C1([H])N(C(=O)C([H])(N([H])C(=O)C([H])(N([H])C([H])([H])[H])C([H])([H])[H])C(C([H])([H])[H])(C([H])([H])[H])C([H])([H])[H])C([H])([H])c2c([H])c(OC([H])([H])C([H])([H])c3c(C([H])([H])[H])nc(C([H])([H])C([H])([H])C([H])([H])N([H])C(=O)N4C([H])([H])C([H])([H])C([H])([H])C([H])(n5nc(-c6c([H])c([H])c(Oc7c([H])c([H])c(F)c([H])c7F)c([H])c6[H])c(C(=O)N([H])[H])c5N([H])[H])C4([H])[H])c(Cl)c3[H])c([H])c([H])c2C1([H])[H]

>  <smiles>  (83) 
[H]c1c([H])c([H])c2c(c1[H])C([H])([H])C([H])([H])C([H])([H])C2([H])N([H])C(=O)C1([H])N(C(=O)C([H])(N([H])C(=O)C([H])(N([H])C([H])([H])[H])C([H])([H])[H])C(C([H])([H])[H])(C([H])([H])[H])C([H])([H])[H])C([H])([H])c2c([H])c(OC([H])([H])C([H])([H])c3c(C([H])([H])[H])nc(C([H])([H])C([H])([H])C([H])([H])N([H])C(=O)N4C([H])([H])C([H])([H])C([H])([H])C([H])(n5nc(-c6c([H])c([H])c(Oc7c([H])c([H])c(F)c([H])c7F)c([H])c6[H])c(C(=O)N([H])[H])c5N([H])[H])C4([H])[H])c(Cl)c3[H])c([H])c([H])c2C1([H])[H]

$$$$
83:0:0
     RDKit          3D

 90 98  0  0  1  0  0  0  0  0999 V2000
  -29.8160  -20.6230   22.3440 C   0  0  0  0  0  3  0  0  0  0  0  0
  -29.8730  -20.5060   19.6110 C   0  0  0  0  0  3  0  0  0  0  0  0
  -29.5540  -21.8160   21.6220 C   0  0  0  0  0  0  0  0  0  0  0  0
  -30.1410  -19.3770   21.7460 C   0  0  0  0  0  0  0  0  0  0  0  0
  -29.5290  -21.8390   20.1990 C   0  0  0  0  0  0  0  0  0  0  0  0
  -30.2040  -19.2370   20.3360 C   0  0  0  0  0  0  0  0  0  0  0  0
  -29.3870  -23.0800   22.4490 C   0  0  0  0  0  1  0  0  0  0  0  0
  -30.4940  -18.2330   22.6820 C   0  0  0  0  0  1  0  0  0  0  0  0
  -29.3640  -23.3040   19.4040 C   0  0  0  0  0  2  0  0  0  0  0  0
  -28.2560  -24.5840   19.6400 C   0  0  0  0  0  2  0  0  0  0  0  0
  -28.4280  -26.1170   19.3240 O   0  0  0  0  0  0  0  0  0  0  0  0
  -24.6200  -31.3400   22.8960 C   0  0  0  0  0  0  0  0  0  0  0  0
  -27.3290  -27.0570   19.3820 C   0  0  0  0  0  0  0  0  0  0  0  0
  -23.4430  -30.0500   21.1580 C   0  0  0  0  0  3  0  0  0  0  0  0
  -24.9260  -28.6970   19.5480 C   0  0  0  0  0  0  0  0  0  0  0  0
  -25.9790  -30.4570   20.9600 C   0  0  0  0  0  2  0  0  0  0  0  0
  -26.1010  -29.1380   20.1730 C   0  0  0  0  0  0  0  0  0  0  0  0
  -27.3030  -28.3410   20.0660 C   0  0  0  0  0  3  0  0  0  0  0  0
  -26.1280  -26.7310   18.7160 C   0  0  0  0  0  3  0  0  0  0  0  0
  -24.9550  -27.5120   18.7970 C   0  0  0  0  0  3  0  0  0  0  0  0
  -23.6600  -29.5260   19.7130 C   0  0  0  0  0  2  0  0  0  0  0  0
  -24.7020  -30.6360   21.7280 N   0  0  0  0  0  0  0  0  0  0  0  0
  -23.5350  -31.5180   23.4720 O   0  0  0  0  0  0  0  0  0  0  0  0
  -22.8410  -28.9200   22.0300 C   0  0  0  0  0  0  0  0  0  0  0  0
  -21.5210  -28.6880   21.9110 N   0  0  0  0  0  0  0  0  0  0  0  0
  -23.5640  -28.2580   22.7810 O   0  0  0  0  0  0  0  0  0  0  0  0
  -20.9910  -29.2850   21.2910 H   0  0  0  0  0  0  0  0  0  0  0  0
  -18.2170  -27.2620   22.3530 C   0  0  0  0  0  0  0  0  0  0  0  0
  -20.7660  -27.6380   22.5980 C   0  0  0  0  0  3  0  0  0  0  0  0
  -20.9250  -26.2720   21.8870 C   0  0  0  0  0  2  0  0  0  0  0  0
  -19.8190  -25.9870   20.8660 C   0  0  0  0  0  2  0  0  0  0  0  0
  -18.4480  -25.9960   21.5450 C   0  0  0  0  0  2  0  0  0  0  0  0
  -19.3040  -28.0420   22.8330 C   0  0  0  0  0  0  0  0  0  0  0  0
  -19.0300  -29.2260   23.5500 C   0  0  0  0  0  3  0  0  0  0  0  0
  -17.7030  -29.6370   23.7880 C   0  0  0  0  0  3  0  0  0  0  0  0
  -16.6330  -28.8530   23.3240 C   0  0  0  0  0  3  0  0  0  0  0  0
  -16.8910  -27.6660   22.6160 C   0  0  0  0  0  3  0  0  0  0  0  0
  -25.8810  -31.9790   23.5550 C   0  0  0  0  0  3  0  0  0  0  0  0
  -26.4350  -31.1400   24.7730 C   0  0  1  0  0  0  0  0  0  0  0  0
  -25.3590  -30.7910   25.8280 C   0  0  0  0  0  1  0  0  0  0  0  0
  -27.0600  -29.8140   24.2850 C   0  0  0  0  0  1  0  0  0  0  0  0
  -27.5680  -31.9250   25.4780 C   0  0  0  0  0  1  0  0  0  0  0  0
  -25.5220  -33.3380   23.9890 N   0  0  0  0  0  0  0  0  0  0  0  0
  -25.8330  -34.4610   23.3260 C   0  0  0  0  0  0  0  0  0  0  0  0
  -26.5150  -34.4630   22.3000 O   0  0  0  0  0  0  0  0  0  0  0  0
  -24.9180  -33.4100   24.7940 H   0  0  0  0  0  0  0  0  0  0  0  0
  -24.0650  -36.2370   23.0950 C   0  0  0  0  0  1  0  0  0  0  0  0
  -25.3020  -35.7950   23.8920 C   0  0  0  0  0  3  0  0  0  0  0  0
  -27.3920  -36.6640   24.8440 C   0  0  0  0  0  1  0  0  0  0  0  0
  -26.3100  -36.8780   23.8880 N   0  0  0  0  0  0  0  0  0  0  0  0
  -25.8760  -37.7750   24.0940 H   0  0  0  0  0  0  0  0  0  0  0  0
  -30.7560  -17.8130   19.6630 C   0  0  0  0  0  2  0  0  0  0  0  0
  -31.2250  -15.0950   19.7920 C   0  0  0  0  0  0  0  0  0  0  0  0
  -31.0100  -12.7170   18.9140 C   0  0  0  0  0  2  0  0  0  0  0  0
  -30.0160  -12.6760   17.7290 C   0  0  0  0  0  2  0  0  0  0  0  0
  -28.5680  -12.5200   18.2300 C   0  0  0  0  0  2  0  0  0  0  0  0
  -28.2530  -13.4520   19.4300 C   0  0  0  0  0  3  0  0  0  0  0  0
  -29.3700  -13.4560   20.4980 C   0  0  0  0  0  2  0  0  0  0  0  0
  -30.6130  -13.8390   19.8200 N   0  0  0  0  0  0  0  0  0  0  0  0
  -32.3730  -15.1370   19.3370 O   0  0  0  0  0  0  0  0  0  0  0  0
  -30.5100  -16.2970   20.0790 N   0  0  0  0  0  0  0  0  0  0  0  0
  -29.6030  -16.1300   20.4890 H   0  0  0  0  0  0  0  0  0  0  0  0
  -25.9740  -14.0890   20.4070 C   0  0  0  0  0  0  0  0  0  0  0  0
  -24.9070  -13.3430   20.8210 C   0  0  0  0  0  0  0  0  0  0  0  0
  -25.2930  -11.9770   20.6640 C   0  0  0  0  0  0  0  0  0  0  0  0
  -26.9440  -13.1810   20.0170 N   0  0  0  0  0  0  0  0  0  0  0  0
  -26.5490  -11.8990   20.2330 N   0  0  0  0  0  0  0  0  0  0  0  0
  -24.5150  -10.7400   20.8370 C   0  0  0  0  0  0  0  0  0  0  0  0
  -24.8690   -9.7750   21.8040 C   0  0  0  0  0  3  0  0  0  0  0  0
  -24.0930   -8.6060   21.9660 C   0  0  0  0  0  3  0  0  0  0  0  0
  -22.9480   -8.3960   21.1610 C   0  0  0  0  0  0  0  0  0  0  0  0
  -22.6150   -9.3510   20.1840 C   0  0  0  0  0  3  0  0  0  0  0  0
  -23.3900  -10.5090   20.0200 C   0  0  0  0  0  3  0  0  0  0  0  0
  -22.1490   -7.2810   21.2330 O   0  0  0  0  0  0  0  0  0  0  0  0
  -21.8490   -6.6860   22.4330 C   0  0  0  0  0  0  0  0  0  0  0  0
  -21.1820   -7.3810   23.4650 C   0  0  0  0  0  3  0  0  0  0  0  0
  -20.8300   -6.7080   24.6520 C   0  0  0  0  0  3  0  0  0  0  0  0
  -21.1380   -5.3430   24.8070 C   0  0  0  0  0  0  0  0  0  0  0  0
  -21.7960   -4.6470   23.7790 C   0  0  0  0  0  3  0  0  0  0  0  0
  -22.1480   -5.3170   22.5920 C   0  0  0  0  0  0  0  0  0  0  0  0
  -22.7630   -4.6350   21.5970 F   0  0  0  0  0  0  0  0  0  0  0  0
  -20.7930   -4.6950   25.9440 F   0  0  0  0  0  0  0  0  0  0  0  0
  -23.5630  -13.8700   21.2430 C   0  0  0  0  0  0  0  0  0  0  0  0
  -22.8810  -13.1620   22.1370 N   0  0  0  0  0  0  0  0  0  0  0  0
  -23.1350  -14.9400   20.8130 O   0  0  0  0  0  0  0  0  0  0  0  0
  -23.2440  -12.3000   22.5140 H   0  0  0  0  0  0  0  0  0  0  0  0
  -21.9780  -13.4900   22.4510 H   0  0  0  0  0  0  0  0  0  0  0  0
  -26.1980  -15.4590   20.3000 N   0  0  0  0  0  0  0  0  0  0  0  0
  -25.4890  -16.1450   20.5320 H   0  0  0  0  0  0  0  0  0  0  0  0
  -27.0320  -15.8690   19.8970 H   0  0  0  0  0  0  0  0  0  0  0  0
  2  5  2  0
  2  6  1  0
  3  1  2  0
  3  7  1  0
  4  1  1  0
  4  8  1  0
  5  3  1  0
  6  4  2  0
  9 10  1  0
  9  5  1  0
 11 13  1  0
 11 10  1  0
 12 23  2  0
 13 18  1  0
 14 22  1  0
 14 24  1  0
 15 21  1  0
 15 17  1  0
 16 22  1  0
 17 16  1  0
 18 17  2  0
 19 20  1  0
 19 13  2  0
 20 15  2  0
 21 14  1  0
 22 12  1  0
 24 26  2  0
 25 24  1  0
 27 25  1  0
 28 37  2  0
 28 33  1  0
 29 25  1  0
 29 33  1  0
 30 29  1  0
 31 32  1  0
 31 30  1  0
 32 28  1  0
 33 34  2  0
 34 35  1  0
 36 35  2  0
 37 36  1  0
 38 12  1  0
 38 43  1  0
 38 39  1  0
 39 42  1  1
 39 40  1  0
 41 39  1  0
 43 46  1  0
 44 48  1  0
 44 43  1  0
 45 44  2  0
 48 47  1  0
 50 48  1  0
 50 51  1  0
 50 49  1  0
 52 61  1  0
 52  6  1  0
 53 59  1  0
 53 61  1  0
 54 59  1  0
 55 56  1  0
 55 54  1  0
 57 56  1  0
 57 66  1  0
 57 58  1  0
 59 58  1  0
 60 53  2  0
 61 62  1  0
 63 64  2  0
 64 83  1  0
 65 64  1  0
 65 68  1  0
 66 67  1  0
 66 63  1  0
 67 65  2  0
 68 69  1  0
 69 70  2  0
 71 74  1  0
 71 70  1  0
 72 71  2  0
 73 72  1  0
 73 68  2  0
 74 75  1  0
 75 80  2  0
 75 76  1  0
 76 77  2  0
 77 78  1  0
 78 82  1  0
 79 78  2  0
 80 79  1  0
 81 80  1  0
 83 84  1  0
 84 87  1  0
 84 86  1  0
 85 83  2  0
 88 63  1  0
 88 89  1  0
 90 88  1  0
M  ISO  4  10 101  11 101  53 100  61 100
M  END
>  <TORSDO>  (84) 
F 19

>  <SCORE>  (84) 
-11.823

>  <name>  (84) 
83

>  <ligand_id>  (84) 
83

>  <original_smiles>  (84) 
[H]c1c([H])c([H])c2c(c1[H])C([H])([H])C([H])([H])C([H])([H])C2([H])N([H])C(=O)C1([H])N(C(=O)C([H])(N([H])C(=O)C([H])(N([H])C([H])([H])[H])C([H])([H])[H])C(C([H])([H])[H])(C([H])([H])[H])C([H])([H])[H])C([H])([H])c2c([H])c(OC([H])([H])C([H])([H])c3c([H])c(C([H])([H])N([H])C(=O)N4C([H])([H])C([H])([H])C([H])([H])C([H])(n5nc(-c6c([H])c([H])c(Oc7c([H])c([H])c(F)c([H])c7F)c([H])c6[H])c(C(=O)N([H])[H])c5N([H])[H])C4([H])[H])c(C([H])([H])[H])c([H])c3C([H])([H])[H])c([H])c([H])c2C1([H])[H]

>  <smiles>  (84) 
[H]c1c([H])c([H])c2c(c1[H])C([H])([H])C([H])([H])C([H])([H])C2([H])N([H])C(=O)C1([H])N(C(=O)C([H])(N([H])C(=O)C([H])(N([H])C([H])([H])[H])C([H])([H])[H])C(C([H])([H])[H])(C([H])([H])[H])C([H])([H])[H])C([H])([H])c2c([H])c(OC([H])([H])C([H])([H])c3c([H])c(C([H])([H])N([H])C(=O)N4C([H])([H])C([H])([H])C([H])([H])C([H])(n5nc(-c6c([H])c([H])c(Oc7c([H])c([H])c(F)c([H])c7F)c([H])c6[H])c(C(=O)N([H])[H])c5N([H])[H])C4([H])[H])c(C([H])([H])[H])c([H])c3C([H])([H])[H])c([H])c([H])c2C1([H])[H]

$$$$
84:0:0
     RDKit          3D

 90 98  0  0  1  0  0  0  0  0999 V2000
  -30.6460  -18.3150   19.3470 C   0  0  0  0  0  3  0  0  0  0  0  0
  -28.3110  -19.5240   20.2530 C   0  0  0  0  0  3  0  0  0  0  0  0
  -30.4150  -19.7470   19.1810 C   0  0  0  0  0  0  0  0  0  0  0  0
  -29.2170  -20.4240   19.6160 C   0  0  0  0  0  0  0  0  0  0  0  0
  -29.6980  -17.4160   19.9380 C   0  0  0  0  0  0  0  0  0  0  0  0
  -28.5300  -18.1030   20.4000 C   0  0  0  0  0  0  0  0  0  0  0  0
  -31.4640  -20.5540   18.4390 C   0  0  0  0  0  1  0  0  0  0  0  0
  -27.2690  -17.1730   21.1290 Cl  0  0  0  0  0  0  0  0  0  0  0  0
  -30.5010  -14.8290   19.5390 C   0  0  0  0  0  0  0  0  0  0  0  0
  -30.2280  -12.5480   18.5020 C   0  0  0  0  0  2  0  0  0  0  0  0
  -29.1460  -12.6370   17.3980 C   0  0  0  0  0  2  0  0  0  0  0  0
  -27.7350  -12.4500   17.9920 C   0  0  0  0  0  2  0  0  0  0  0  0
  -27.5120  -13.3030   19.2680 C   0  0  0  0  0  3  0  0  0  0  0  0
  -28.6950  -13.1720   20.2530 C   0  0  0  0  0  2  0  0  0  0  0  0
  -29.9130  -13.5730   19.5320 N   0  0  0  0  0  0  0  0  0  0  0  0
  -31.6160  -14.9680   19.0260 O   0  0  0  0  0  0  0  0  0  0  0  0
  -29.7420  -15.9010   20.0260 N   0  0  0  0  0  0  0  0  0  0  0  0
  -28.9510  -15.5500   20.5450 H   0  0  0  0  0  0  0  0  0  0  0  0
  -25.2410  -13.8990   20.3000 C   0  0  0  0  0  0  0  0  0  0  0  0
  -24.2120  -13.1290   20.7650 C   0  0  0  0  0  0  0  0  0  0  0  0
  -24.6360  -11.7730   20.6230 C   0  0  0  0  0  0  0  0  0  0  0  0
  -26.2300  -13.0130   19.9040 N   0  0  0  0  0  0  0  0  0  0  0  0
  -25.8810  -11.7250   20.1600 N   0  0  0  0  0  0  0  0  0  0  0  0
  -23.9090  -10.5160   20.8470 C   0  0  0  0  0  0  0  0  0  0  0  0
  -24.3910   -9.5320   21.7380 C   0  0  0  0  0  3  0  0  0  0  0  0
  -23.6630   -8.3410   21.9510 C   0  0  0  0  0  3  0  0  0  0  0  0
  -22.4390   -8.1270   21.2750 C   0  0  0  0  0  0  0  0  0  0  0  0
  -21.9750   -9.1000   20.3720 C   0  0  0  0  0  3  0  0  0  0  0  0
  -22.7030  -10.2820   20.1570 C   0  0  0  0  0  3  0  0  0  0  0  0
  -21.6770   -6.9910   21.4010 O   0  0  0  0  0  0  0  0  0  0  0  0
  -21.6600   -6.2600   22.5620 C   0  0  0  0  0  0  0  0  0  0  0  0
  -21.2620   -6.8250   23.7930 C   0  0  0  0  0  3  0  0  0  0  0  0
  -21.1940   -6.0200   24.9470 C   0  0  0  0  0  3  0  0  0  0  0  0
  -21.5130   -4.6510   24.8720 C   0  0  0  0  0  0  0  0  0  0  0  0
  -21.9030   -4.0850   23.6450 C   0  0  0  0  0  3  0  0  0  0  0  0
  -21.9740   -4.8870   22.4930 C   0  0  0  0  0  0  0  0  0  0  0  0
  -22.3300   -4.3320   21.3100 F   0  0  0  0  0  0  0  0  0  0  0  0
  -21.4390   -3.8760   25.9780 F   0  0  0  0  0  0  0  0  0  0  0  0
  -22.8680  -13.6180   21.2230 C   0  0  0  0  0  0  0  0  0  0  0  0
  -22.2410  -12.9080   22.1540 N   0  0  0  0  0  0  0  0  0  0  0  0
  -22.3880  -14.6650   20.7880 O   0  0  0  0  0  0  0  0  0  0  0  0
  -22.6450  -12.0620   22.5260 H   0  0  0  0  0  0  0  0  0  0  0  0
  -21.3430  -13.2160   22.5010 H   0  0  0  0  0  0  0  0  0  0  0  0
  -25.4100  -15.2730   20.1590 N   0  0  0  0  0  0  0  0  0  0  0  0
  -24.6830  -15.9330   20.4110 H   0  0  0  0  0  0  0  0  0  0  0  0
  -26.2250  -15.7160   19.7550 H   0  0  0  0  0  0  0  0  0  0  0  0
  -28.7480  -21.9260   19.1590 C   0  0  0  0  0  2  0  0  0  0  0  0
  -29.0520  -23.4130   19.8250 C   0  0  0  0  0  3  0  0  0  0  0  0
  -28.1410  -24.7280   19.3640 C   0  0  0  0  0  3  0  0  0  0  0  0
  -28.3490  -26.2150   19.6990 O   0  0  0  0  0  0  0  0  0  0  0  0
  -24.5590  -31.5760   22.9540 C   0  0  0  0  0  0  0  0  0  0  0  0
  -27.2490  -27.1360   19.6740 C   0  0  0  0  0  0  0  0  0  0  0  0
  -23.3800  -30.2210   21.2640 C   0  0  0  0  0  3  0  0  0  0  0  0
  -24.8580  -28.7710   19.7490 C   0  0  0  0  0  0  0  0  0  0  0  0
  -25.9180  -30.5890   21.0790 C   0  0  0  0  0  2  0  0  0  0  0  0
  -26.0270  -29.2360   20.3640 C   0  0  0  0  0  0  0  0  0  0  0  0
  -27.2230  -28.4330   20.3140 C   0  0  0  0  0  3  0  0  0  0  0  0
  -26.0520  -26.7650   19.0200 C   0  0  0  0  0  3  0  0  0  0  0  0
  -24.8800  -27.5480   19.0640 C   0  0  0  0  0  3  0  0  0  0  0  0
  -23.6020  -29.6200   19.8510 C   0  0  0  0  0  2  0  0  0  0  0  0
  -24.6380  -30.8140   21.8220 N   0  0  0  0  0  0  0  0  0  0  0  0
  -23.4720  -31.8000   23.5090 O   0  0  0  0  0  0  0  0  0  0  0  0
  -22.7490  -29.1470   22.1850 C   0  0  0  0  0  0  0  0  0  0  0  0
  -21.4190  -28.9640   22.0890 N   0  0  0  0  0  0  0  0  0  0  0  0
  -23.4550  -28.4830   22.9490 O   0  0  0  0  0  0  0  0  0  0  0  0
  -20.9060  -29.5540   21.4510 H   0  0  0  0  0  0  0  0  0  0  0  0
  -18.0660  -27.7160   22.6540 C   0  0  0  0  0  0  0  0  0  0  0  0
  -20.6330  -27.9720   22.8300 C   0  0  0  0  0  3  0  0  0  0  0  0
  -20.7150  -26.5830   22.1570 C   0  0  0  0  0  2  0  0  0  0  0  0
  -19.5720  -26.3220   21.1710 C   0  0  0  0  0  2  0  0  0  0  0  0
  -18.2180  -26.4150   21.8810 C   0  0  0  0  0  2  0  0  0  0  0  0
  -19.2000  -28.4540   23.0850 C   0  0  0  0  0  0  0  0  0  0  0  0
  -19.0030  -29.6710   23.7730 C   0  0  0  0  0  3  0  0  0  0  0  0
  -17.7040  -30.1510   24.0280 C   0  0  0  0  0  3  0  0  0  0  0  0
  -16.5850  -29.4100   23.6100 C   0  0  0  0  0  3  0  0  0  0  0  0
  -16.7680  -28.1930   22.9290 C   0  0  0  0  0  3  0  0  0  0  0  0
  -25.8260  -32.2200   23.5950 C   0  0  0  0  0  3  0  0  0  0  0  0
  -26.3820  -31.4010   24.8250 C   0  0  1  0  0  0  0  0  0  0  0  0
  -25.3150  -31.0840   25.8970 C   0  0  0  0  0  1  0  0  0  0  0  0
  -26.9950  -30.0600   24.3590 C   0  0  0  0  0  1  0  0  0  0  0  0
  -27.5240  -32.1920   25.5070 C   0  0  0  0  0  1  0  0  0  0  0  0
  -25.4730  -33.5880   24.0070 N   0  0  0  0  0  0  0  0  0  0  0  0
  -25.7690  -34.6950   23.3140 C   0  0  0  0  0  0  0  0  0  0  0  0
  -26.4360  -34.6730   22.2750 O   0  0  0  0  0  0  0  0  0  0  0  0
  -24.8780  -33.6750   24.8190 H   0  0  0  0  0  0  0  0  0  0  0  0
  -23.9840  -36.4540   23.0770 C   0  0  0  0  0  1  0  0  0  0  0  0
  -25.2430  -36.0380   23.8560 C   0  0  0  0  0  3  0  0  0  0  0  0
  -27.3520  -36.9430   24.7300 C   0  0  0  0  0  1  0  0  0  0  0  0
  -26.2410  -37.1290   23.7990 N   0  0  0  0  0  0  0  0  0  0  0  0
  -25.8070  -38.0260   23.9980 H   0  0  0  0  0  0  0  0  0  0  0  0
  1  5  1  0
  2  6  1  0
  3  1  2  0
  3  4  1  0
  4  2  2  0
  5 17  1  0
  5  6  2  0
  6  8  1  0
  7  3  1  0
  9 17  1  0
 10 15  1  0
 11 12  1  0
 11 10  1  0
 13 12  1  0
 13 22  1  0
 13 14  1  0
 15  9  1  0
 15 14  1  0
 16  9  2  0
 17 18  1  0
 19 20  2  0
 20 39  1  0
 21 20  1  0
 21 24  1  0
 22 23  1  0
 22 19  1  0
 23 21  2  0
 24 25  1  0
 25 26  2  0
 27 30  1  0
 27 26  1  0
 28 27  2  0
 29 28  1  0
 29 24  2  0
 30 31  1  0
 31 32  1  0
 32 33  2  0
 34 33  1  0
 34 38  1  0
 35 34  2  0
 36 31  2  0
 36 35  1  0
 37 36  1  0
 39 40  1  0
 40 43  1  0
 40 42  1  0
 41 39  2  0
 44 19  1  0
 44 45  1  0
 46 44  1  0
 47  4  1  0
 47 48  1  0
 49 50  1  0
 49 48  2  0
 51 62  2  0
 52 50  1  0
 52 57  1  0
 53 61  1  0
 53 63  1  0
 54 60  1  0
 54 56  1  0
 55 61  1  0
 56 55  1  0
 57 56  2  0
 58 59  1  0
 58 52  2  0
 59 54  2  0
 60 53  1  0
 61 51  1  0
 63 65  2  0
 64 63  1  0
 66 64  1  0
 67 76  2  0
 67 72  1  0
 68 64  1  0
 68 72  1  0
 69 68  1  0
 70 71  1  0
 70 69  1  0
 71 67  1  0
 72 73  2  0
 73 74  1  0
 75 74  2  0
 76 75  1  0
 77 51  1  0
 77 82  1  0
 77 78  1  0
 78 81  1  1
 78 79  1  0
 80 78  1  0
 82 85  1  0
 83 87  1  0
 83 82  1  0
 84 83  2  0
 87 86  1  0
 89 87  1  0
 89 90  1  0
 89 88  1  0
M  ISO  4   9 100  17 100  49 101  50 101
M  END
>  <TORSDO>  (85) 
F 19

>  <SCORE>  (85) 
-12.033

>  <name>  (85) 
84

>  <ligand_id>  (85) 
84

>  <original_smiles>  (85) 
[H]c1c([H])c([H])c2c(c1[H])C([H])([H])C([H])([H])C([H])([H])C2([H])N([H])C(=O)C1([H])N(C(=O)C([H])(N([H])C(=O)C([H])(N([H])C([H])([H])[H])C([H])([H])[H])C(C([H])([H])[H])(C([H])([H])[H])C([H])([H])[H])C([H])([H])c2c([H])c(OC([H])([H])C([H])([H])C([H])([H])c3c([H])c(Cl)c(N([H])C(=O)N4C([H])([H])C([H])([H])C([H])([H])C([H])(n5nc(-c6c([H])c([H])c(Oc7c([H])c([H])c(F)c([H])c7F)c([H])c6[H])c(C(=O)N([H])[H])c5N([H])[H])C4([H])[H])c([H])c3C([H])([H])[H])c([H])c([H])c2C1([H])[H]

>  <smiles>  (85) 
[H]c1c([H])c([H])c2c(c1[H])C([H])([H])C([H])([H])C([H])([H])C2([H])N([H])C(=O)C1([H])N(C(=O)C([H])(N([H])C(=O)C([H])(N([H])C([H])([H])[H])C([H])([H])[H])C(C([H])([H])[H])(C([H])([H])[H])C([H])([H])[H])C([H])([H])c2c([H])c(OC([H])([H])C([H])([H])C([H])([H])c3c([H])c(Cl)c(N([H])C(=O)N4C([H])([H])C([H])([H])C([H])([H])C([H])(n5nc(-c6c([H])c([H])c(Oc7c([H])c([H])c(F)c([H])c7F)c([H])c6[H])c(C(=O)N([H])[H])c5N([H])[H])C4([H])[H])c([H])c3C([H])([H])[H])c([H])c([H])c2C1([H])[H]

$$$$
85:0:0
     RDKit          3D

 91 99  0  0  1  0  0  0  0  0999 V2000
  -29.0810  -20.5770   20.5100 C   0  0  0  0  0  0  0  0  0  0  0  0
  -29.4220  -21.7520   21.1500 C   0  0  0  0  0  0  0  0  0  0  0  0
  -28.7230  -21.0610   19.2200 C   0  0  0  0  0  0  0  0  0  0  0  0
  -29.9420  -21.9600   22.5370 C   0  0  0  0  0  1  0  0  0  0  0  0
  -28.7810  -22.3740   19.0720 N   0  0  0  0  0  0  0  0  0  0  0  0
  -29.1730  -22.8290   20.2850 N   0  0  0  0  0  0  0  0  0  0  0  0
  -28.2100  -20.0500   17.9210 Cl  0  0  0  0  0  0  0  0  0  0  0  0
  -29.0000  -19.1280   21.0280 C   0  0  0  0  0  2  0  0  0  0  0  0
  -30.2580  -18.2210   20.8320 C   0  0  0  0  0  2  0  0  0  0  0  0
  -30.0950  -16.9650   19.9130 C   0  0  0  0  0  2  0  0  0  0  0  0
  -30.6700  -14.5430   20.2860 C   0  0  0  0  0  0  0  0  0  0  0  0
  -30.3550  -12.3560   19.2010 C   0  0  0  0  0  2  0  0  0  0  0  0
  -29.4070  -12.5580   17.9990 C   0  0  0  0  0  2  0  0  0  0  0  0
  -27.9360  -12.4310   18.4410 C   0  0  0  0  0  2  0  0  0  0  0  0
  -27.6130  -13.2680   19.7090 C   0  0  0  0  0  3  0  0  0  0  0  0
  -28.6830  -13.0670   20.8080 C   0  0  0  0  0  2  0  0  0  0  0  0
  -30.0000  -13.3580   20.2200 N   0  0  0  0  0  0  0  0  0  0  0  0
  -31.8220  -14.6700   19.8640 O   0  0  0  0  0  0  0  0  0  0  0  0
  -29.9200  -15.6370   20.5660 N   0  0  0  0  0  0  0  0  0  0  0  0
  -29.0090  -15.4450   20.9550 H   0  0  0  0  0  0  0  0  0  0  0  0
  -25.2220  -13.8780   20.4390 C   0  0  0  0  0  0  0  0  0  0  0  0
  -24.1560  -13.1100   20.8210 C   0  0  0  0  0  0  0  0  0  0  0  0
  -24.6150  -11.7560   20.7940 C   0  0  0  0  0  0  0  0  0  0  0  0
  -26.2650  -12.9940   20.2030 N   0  0  0  0  0  0  0  0  0  0  0  0
  -25.9030  -11.7150   20.4760 N   0  0  0  0  0  0  0  0  0  0  0  0
  -23.8890  -10.4970   20.9970 C   0  0  0  0  0  0  0  0  0  0  0  0
  -24.3320   -9.5290   21.9260 C   0  0  0  0  0  3  0  0  0  0  0  0
  -23.6050   -8.3340   22.1160 C   0  0  0  0  0  3  0  0  0  0  0  0
  -22.4220   -8.0970   21.3780 C   0  0  0  0  0  0  0  0  0  0  0  0
  -21.9960   -9.0550   20.4390 C   0  0  0  0  0  3  0  0  0  0  0  0
  -22.7240  -10.2410   20.2470 C   0  0  0  0  0  3  0  0  0  0  0  0
  -21.6640   -6.9550   21.4790 O   0  0  0  0  0  0  0  0  0  0  0  0
  -21.6370   -6.2090   22.6290 C   0  0  0  0  0  0  0  0  0  0  0  0
  -21.2410   -6.7630   23.8670 C   0  0  0  0  0  3  0  0  0  0  0  0
  -21.1580   -5.9440   25.0110 C   0  0  0  0  0  3  0  0  0  0  0  0
  -21.4630   -4.5730   24.9190 C   0  0  0  0  0  0  0  0  0  0  0  0
  -21.8520   -4.0180   23.6860 C   0  0  0  0  0  3  0  0  0  0  0  0
  -21.9350   -4.8340   22.5450 C   0  0  0  0  0  0  0  0  0  0  0  0
  -22.2900   -4.2900   21.3560 F   0  0  0  0  0  0  0  0  0  0  0  0
  -21.3770   -3.7840   26.0160 F   0  0  0  0  0  0  0  0  0  0  0  0
  -22.7610  -13.5900   21.1010 C   0  0  0  0  0  0  0  0  0  0  0  0
  -22.0400  -12.9010   21.9770 N   0  0  0  0  0  0  0  0  0  0  0  0
  -22.3210  -14.6150   20.5790 O   0  0  0  0  0  0  0  0  0  0  0  0
  -22.4080  -12.0730   22.4220 H   0  0  0  0  0  0  0  0  0  0  0  0
  -21.1050  -13.2060   22.2080 H   0  0  0  0  0  0  0  0  0  0  0  0
  -25.3850  -15.2470   20.2490 N   0  0  0  0  0  0  0  0  0  0  0  0
  -24.6160  -15.8990   20.3500 H   0  0  0  0  0  0  0  0  0  0  0  0
  -26.2250  -15.6830   19.8900 H   0  0  0  0  0  0  0  0  0  0  0  0
  -29.3590  -24.2860   20.4960 C   0  0  0  0  0  3  0  0  0  0  0  0
  -28.1950  -25.1860   19.9770 C   0  0  0  0  0  3  0  0  0  0  0  0
  -28.3340  -26.6140   20.2320 O   0  0  0  0  0  0  0  0  0  0  0  0
  -24.5780  -31.9090   23.2510 C   0  0  0  0  0  0  0  0  0  0  0  0
  -27.1800  -27.3930   20.1870 C   0  0  0  0  0  0  0  0  0  0  0  0
  -23.3610  -30.5060   21.6220 C   0  0  0  0  0  3  0  0  0  0  0  0
  -24.8000  -28.9570   20.1950 C   0  0  0  0  0  0  0  0  0  0  0  0
  -25.8920  -30.8360   21.4210 C   0  0  0  0  0  2  0  0  0  0  0  0
  -25.9690  -29.4610   20.7810 C   0  0  0  0  0  0  0  0  0  0  0  0
  -27.1590  -28.6870   20.7720 C   0  0  0  0  0  3  0  0  0  0  0  0
  -25.9890  -26.9250   19.5800 C   0  0  0  0  0  3  0  0  0  0  0  0
  -24.8090  -27.6900   19.5880 C   0  0  0  0  0  3  0  0  0  0  0  0
  -23.5630  -29.8260   20.2440 C   0  0  0  0  0  2  0  0  0  0  0  0
  -24.6290  -31.0990   22.1560 N   0  0  0  0  0  0  0  0  0  0  0  0
  -23.4990  -32.1920   23.7910 O   0  0  0  0  0  0  0  0  0  0  0  0
  -22.7070  -29.4920   22.5870 C   0  0  0  0  0  0  0  0  0  0  0  0
  -21.3810  -29.3130   22.4610 N   0  0  0  0  0  0  0  0  0  0  0  0
  -23.3870  -28.8690   23.4070 O   0  0  0  0  0  0  0  0  0  0  0  0
  -20.8930  -29.8690   21.7720 H   0  0  0  0  0  0  0  0  0  0  0  0
  -18.0040  -28.1240   22.9610 C   0  0  0  0  0  0  0  0  0  0  0  0
  -20.5610  -28.3820   23.2360 C   0  0  0  0  0  3  0  0  0  0  0  0
  -20.6630  -26.9470   22.6700 C   0  0  0  0  0  2  0  0  0  0  0  0
  -19.5640  -26.6160   21.6560 C   0  0  0  0  0  2  0  0  0  0  0  0
  -18.1800  -26.7690   22.2960 C   0  0  0  0  0  2  0  0  0  0  0  0
  -19.1220  -28.8870   23.3880 C   0  0  0  0  0  0  0  0  0  0  0  0
  -18.9050  -30.1550   23.9680 C   0  0  0  0  0  3  0  0  0  0  0  0
  -17.6010  -30.6610   24.1240 C   0  0  0  0  0  3  0  0  0  0  0  0
  -16.4970  -29.8940   23.7150 C   0  0  0  0  0  3  0  0  0  0  0  0
  -16.6980  -28.6270   23.1390 C   0  0  0  0  0  3  0  0  0  0  0  0
  -25.8690  -32.5360   23.8640 C   0  0  0  0  0  3  0  0  0  0  0  0
  -25.5660  -33.9360   24.1900 N   0  0  0  0  0  0  0  0  0  0  0  0
  -25.9010  -34.9830   23.4250 C   0  0  0  0  0  0  0  0  0  0  0  0
  -26.5650  -34.8730   22.3920 O   0  0  0  0  0  0  0  0  0  0  0  0
  -24.9760  -34.0960   24.9920 H   0  0  0  0  0  0  0  0  0  0  0  0
  -24.1790  -36.7810   23.0680 C   0  0  0  0  0  1  0  0  0  0  0  0
  -25.4210  -36.3750   23.8760 C   0  0  0  0  0  3  0  0  0  0  0  0
  -27.5650  -37.2530   24.6950 C   0  0  0  0  0  1  0  0  0  0  0  0
  -26.4580  -37.4240   23.7560 N   0  0  0  0  0  0  0  0  0  0  0  0
  -26.0560  -38.3450   23.9060 H   0  0  0  0  0  0  0  0  0  0  0  0
  -26.3890  -31.7670   25.1420 C   0  0  1  0  0  0  0  0  0  0  0  0
  -25.2980  -31.5370   26.2160 C   0  0  0  0  0  1  0  0  0  0  0  0
  -26.9650  -30.3860   24.7500 C   0  0  0  0  0  1  0  0  0  0  0  0
  -27.5450  -32.5600   25.7950 C   0  0  0  0  0  1  0  0  0  0  0  0
  1  8  1  0
  1  2  2  0
  2  4  1  0
  3  1  1  0
  5  3  2  0
  5  6  1  0
  6 49  1  0
  6  2  1  0
  7  3  1  0
  9  8  1  0
 10 19  1  0
 10  9  1  0
 11 19  1  0
 12 17  1  0
 13 14  1  0
 13 12  1  0
 15 14  1  0
 15 24  1  0
 15 16  1  0
 17 11  1  0
 17 16  1  0
 18 11  2  0
 19 20  1  0
 21 22  2  0
 22 41  1  0
 23 22  1  0
 23 26  1  0
 24 21  1  0
 24 25  1  0
 25 23  2  0
 26 27  1  0
 27 28  2  0
 29 32  1  0
 29 28  1  0
 30 29  2  0
 31 30  1  0
 31 26  2  0
 32 33  1  0
 33 34  1  0
 34 35  2  0
 36 35  1  0
 36 40  1  0
 37 36  2  0
 38 33  2  0
 38 37  1  0
 39 38  1  0
 41 42  1  0
 42 45  1  0
 42 44  1  0
 43 41  2  0
 46 47  1  0
 46 21  1  0
 48 46  1  0
 50 51  1  0
 50 49  2  0
 52 63  2  0
 53 51  1  0
 53 58  1  0
 54 62  1  0
 54 64  1  0
 55 61  1  0
 55 57  1  0
 56 62  1  0
 57 56  1  0
 58 57  2  0
 59 60  1  0
 59 53  2  0
 60 55  2  0
 61 54  1  0
 62 52  1  0
 64 66  2  0
 65 64  1  0
 67 65  1  0
 68 77  2  0
 68 73  1  0
 69 65  1  0
 69 73  1  0
 70 69  1  0
 71 72  1  0
 71 70  1  0
 72 68  1  0
 73 74  2  0
 74 75  1  0
 76 75  2  0
 77 76  1  0
 78 52  1  0
 78 79  1  0
 78 88  1  0
 79 82  1  0
 80 84  1  0
 80 79  1  0
 81 80  2  0
 84 83  1  0
 86 84  1  0
 86 87  1  0
 86 85  1  0
 88 91  1  1
 88 89  1  0
 90 88  1  0
M  ISO  4  11 100  19 100  50 101  51 101
M  END
>  <TORSDO>  (86) 
F 21

>  <SCORE>  (86) 
-13.404

>  <name>  (86) 
85

>  <ligand_id>  (86) 
85

>  <original_smiles>  (86) 
[H]c1c([H])c([H])c2c(c1[H])C([H])([H])C([H])([H])C([H])([H])C2([H])N([H])C(=O)C1([H])N(C(=O)C([H])(N([H])C(=O)C([H])(N([H])C([H])([H])[H])C([H])([H])[H])C(C([H])([H])[H])(C([H])([H])[H])C([H])([H])[H])C([H])([H])c2c([H])c(OC([H])([H])C([H])([H])n3nc(Cl)c(C([H])([H])C([H])([H])C([H])([H])N([H])C(=O)N4C([H])([H])C([H])([H])C([H])([H])C([H])(n5nc(-c6c([H])c([H])c(Oc7c([H])c([H])c(F)c([H])c7F)c([H])c6[H])c(C(=O)N([H])[H])c5N([H])[H])C4([H])[H])c3C([H])([H])[H])c([H])c([H])c2C1([H])[H]

>  <smiles>  (86) 
[H]c1c([H])c([H])c2c(c1[H])C([H])([H])C([H])([H])C([H])([H])C2([H])N([H])C(=O)C1([H])N(C(=O)C([H])(N([H])C(=O)C([H])(N([H])C([H])([H])[H])C([H])([H])[H])C(C([H])([H])[H])(C([H])([H])[H])C([H])([H])[H])C([H])([H])c2c([H])c(OC([H])([H])C([H])([H])n3nc(Cl)c(C([H])([H])C([H])([H])C([H])([H])N([H])C(=O)N4C([H])([H])C([H])([H])C([H])([H])C([H])(n5nc(-c6c([H])c([H])c(Oc7c([H])c([H])c(F)c([H])c7F)c([H])c6[H])c(C(=O)N([H])[H])c5N([H])[H])C4([H])[H])c3C([H])([H])[H])c([H])c([H])c2C1([H])[H]

$$$$
86:0:0
     RDKit          3D

 94102  0  0  1  0  0  0  0  0999 V2000
  -28.6800  -20.6470   20.5120 C   0  0  0  0  0  3  0  0  0  0  0  0
  -30.7170  -21.1900   19.6040 C   0  0  0  0  0  3  0  0  0  0  0  0
  -29.9570  -20.0690   20.1480 C   0  0  0  0  0  0  0  0  0  0  0  0
  -28.2400  -22.0630   20.3330 C   0  0  0  0  0  0  0  0  0  0  0  0
  -30.3130  -22.6090   19.4100 C   0  0  0  0  0  0  0  0  0  0  0  0
  -29.0210  -23.1780   19.7670 C   0  0  0  0  0  0  0  0  0  0  0  0
  -31.3110  -23.5630   18.7580 C   0  0  1  0  0  0  0  0  0  0  0  0
  -32.4870  -22.9850   18.5050 F   0  0  0  0  0  0  0  0  0  0  0  0
  -30.8190  -24.0130   17.6030 F   0  0  0  0  0  0  0  0  0  0  0  0
  -31.5320  -24.6030   19.5620 F   0  0  0  0  0  0  0  0  0  0  0  0
  -26.8110  -22.3860   20.7650 C   0  0  0  0  0  3  0  0  0  0  0  0
  -26.8160  -23.3960   21.6340 F   0  0  0  0  0  0  0  0  0  0  0  0
  -26.1830  -21.3520   21.3260 F   0  0  0  0  0  0  0  0  0  0  0  0
  -30.6490  -18.4890   20.3710 C   0  0  0  0  0  2  0  0  0  0  0  0
  -30.9070  -15.6440   20.5150 C   0  0  0  0  0  0  0  0  0  0  0  0
  -30.8930  -13.1850   19.7290 C   0  0  0  0  0  2  0  0  0  0  0  0
  -30.0570  -12.9590   18.4460 C   0  0  0  0  0  2  0  0  0  0  0  0
  -28.5780  -12.7240   18.7970 C   0  0  0  0  0  2  0  0  0  0  0  0
  -28.0620  -13.7290   19.8580 C   0  0  0  0  0  3  0  0  0  0  0  0
  -29.0340  -13.9050   21.0440 C   0  0  0  0  0  2  0  0  0  0  0  0
  -30.3140  -14.3560   20.4770 N   0  0  0  0  0  0  0  0  0  0  0  0
  -32.1350  -15.6250   20.3650 O   0  0  0  0  0  0  0  0  0  0  0  0
  -30.1780  -16.9210   20.5160 N   0  0  0  0  0  0  0  0  0  0  0  0
  -29.1780  -16.8060   20.5950 H   0  0  0  0  0  0  0  0  0  0  0  0
  -25.6630  -14.3250   20.4850 C   0  0  0  0  0  0  0  0  0  0  0  0
  -24.5680  -13.5630   20.7830 C   0  0  0  0  0  0  0  0  0  0  0  0
  -25.0130  -12.2060   20.7610 C   0  0  0  0  0  0  0  0  0  0  0  0
  -26.7020  -13.4340   20.2880 N   0  0  0  0  0  0  0  0  0  0  0  0
  -26.3200  -12.1510   20.5230 N   0  0  0  0  0  0  0  0  0  0  0  0
  -24.2540  -10.9540   20.8920 C   0  0  0  0  0  0  0  0  0  0  0  0
  -24.6050   -9.9720   21.8430 C   0  0  0  0  0  3  0  0  0  0  0  0
  -23.8460   -8.7870   21.9640 C   0  0  0  0  0  3  0  0  0  0  0  0
  -22.7200   -8.5770   21.1310 C   0  0  0  0  0  0  0  0  0  0  0  0
  -22.3900   -9.5480   20.1700 C   0  0  0  0  0  3  0  0  0  0  0  0
  -23.1500  -10.7230   20.0470 C   0  0  0  0  0  3  0  0  0  0  0  0
  -21.9400   -7.4470   21.1610 O   0  0  0  0  0  0  0  0  0  0  0  0
  -21.8020   -6.6970   22.3010 C   0  0  0  0  0  0  0  0  0  0  0  0
  -21.2800   -7.2430   23.4930 C   0  0  0  0  0  3  0  0  0  0  0  0
  -21.0890   -6.4190   24.6220 C   0  0  0  0  0  3  0  0  0  0  0  0
  -21.4110   -5.0510   24.5560 C   0  0  0  0  0  0  0  0  0  0  0  0
  -21.9260   -4.5040   23.3680 C   0  0  0  0  0  3  0  0  0  0  0  0
  -22.1170   -5.3250   22.2420 C   0  0  0  0  0  0  0  0  0  0  0  0
  -22.5940   -4.7880   21.0930 F   0  0  0  0  0  0  0  0  0  0  0  0
  -21.2220   -4.2570   25.6370 F   0  0  0  0  0  0  0  0  0  0  0  0
  -23.1660  -14.0620   20.9760 C   0  0  0  0  0  0  0  0  0  0  0  0
  -22.3750  -13.3670   21.7870 N   0  0  0  0  0  0  0  0  0  0  0  0
  -22.7810  -15.1040   20.4460 O   0  0  0  0  0  0  0  0  0  0  0  0
  -22.7000  -12.5250   22.2380 H   0  0  0  0  0  0  0  0  0  0  0  0
  -21.4310  -13.6820   21.9580 H   0  0  0  0  0  0  0  0  0  0  0  0
  -25.8560  -15.6950   20.3320 N   0  0  0  0  0  0  0  0  0  0  0  0
  -25.0910  -16.3560   20.4050 H   0  0  0  0  0  0  0  0  0  0  0  0
  -26.7180  -16.1220   20.0220 H   0  0  0  0  0  0  0  0  0  0  0  0
  -28.3570  -24.7270   19.3230 C   0  0  0  0  0  2  0  0  0  0  0  0
  -28.6430  -26.2970   19.6250 O   0  0  0  0  0  0  0  0  0  0  0  0
  -24.7090  -31.7290   23.0210 C   0  0  0  0  0  0  0  0  0  0  0  0
  -27.5760  -27.3290   19.6270 C   0  0  0  0  0  0  0  0  0  0  0  0
  -23.6040  -30.3900   21.2770 C   0  0  0  0  0  3  0  0  0  0  0  0
  -25.1520  -29.0190   19.7300 C   0  0  0  0  0  0  0  0  0  0  0  0
  -26.1460  -30.7990   21.1460 C   0  0  0  0  0  2  0  0  0  0  0  0
  -26.3100  -29.4580   20.3820 C   0  0  0  0  0  0  0  0  0  0  0  0
  -27.5170  -28.6340   20.3120 C   0  0  0  0  0  3  0  0  0  0  0  0
  -26.3790  -27.0420   18.9290 C   0  0  0  0  0  3  0  0  0  0  0  0
  -25.2080  -27.8330   18.9840 C   0  0  0  0  0  3  0  0  0  0  0  0
  -23.8710  -29.8400   19.8500 C   0  0  0  0  0  2  0  0  0  0  0  0
  -24.8400  -30.9960   21.8700 N   0  0  0  0  0  0  0  0  0  0  0  0
  -23.6060  -31.9000   23.5640 O   0  0  0  0  0  0  0  0  0  0  0  0
  -22.9880  -29.2720   22.1580 C   0  0  0  0  0  0  0  0  0  0  0  0
  -21.6650  -29.0510   22.0450 N   0  0  0  0  0  0  0  0  0  0  0  0
  -23.7050  -28.6090   22.9100 O   0  0  0  0  0  0  0  0  0  0  0  0
  -21.1370  -29.6420   21.4180 H   0  0  0  0  0  0  0  0  0  0  0  0
  -18.3480  -27.6780   22.5690 C   0  0  0  0  0  0  0  0  0  0  0  0
  -20.9090  -28.0060   22.7440 C   0  0  0  0  0  3  0  0  0  0  0  0
  -21.0260  -26.6500   22.0120 C   0  0  0  0  0  2  0  0  0  0  0  0
  -19.8860  -26.3990   21.0190 C   0  0  0  0  0  2  0  0  0  0  0  0
  -18.5340  -26.4210   21.7350 C   0  0  0  0  0  2  0  0  0  0  0  0
  -19.4620  -28.4310   23.0280 C   0  0  0  0  0  0  0  0  0  0  0  0
  -19.2310  -29.6080   23.7720 C   0  0  0  0  0  3  0  0  0  0  0  0
  -17.9200  -30.0350   24.0560 C   0  0  0  0  0  3  0  0  0  0  0  0
  -16.8220  -29.2800   23.6100 C   0  0  0  0  0  3  0  0  0  0  0  0
  -17.0370  -28.1020   22.8720 C   0  0  0  0  0  3  0  0  0  0  0  0
  -25.9380  -32.4050   23.7020 C   0  0  0  0  0  3  0  0  0  0  0  0
  -26.4780  -31.5950   24.9450 C   0  0  1  0  0  0  0  0  0  0  0  0
  -25.3860  -31.2460   25.9840 C   0  0  0  0  0  1  0  0  0  0  0  0
  -27.1370  -30.2720   24.4990 C   0  0  0  0  0  1  0  0  0  0  0  0
  -27.5770  -32.4130   25.6640 C   0  0  0  0  0  1  0  0  0  0  0  0
  -25.5380  -33.7610   24.1130 N   0  0  0  0  0  0  0  0  0  0  0  0
  -25.7890  -34.8800   23.4180 C   0  0  0  0  0  0  0  0  0  0  0  0
  -26.4420  -34.8810   22.3730 O   0  0  0  0  0  0  0  0  0  0  0  0
  -24.9520  -33.8290   24.9320 H   0  0  0  0  0  0  0  0  0  0  0  0
  -23.9250  -36.5620   23.2300 C   0  0  0  0  0  1  0  0  0  0  0  0
  -25.2250  -36.2060   23.9680 C   0  0  0  0  0  3  0  0  0  0  0  0
  -27.3200  -37.2060   24.7680 C   0  0  0  0  0  1  0  0  0  0  0  0
  -26.1750  -37.3360   23.8730 N   0  0  0  0  0  0  0  0  0  0  0  0
  -25.7080  -38.2160   24.0790 H   0  0  0  0  0  0  0  0  0  0  0  0
  2  3  1  0
  3 14  1  0
  3  1  2  0
  4  1  1  0
  4 11  1  0
  5  2  2  0
  5  6  1  0
  6  4  2  0
  7  5  1  0
  7 10  1  1
  8  7  1  0
  9  7  1  0
 11 13  1  0
 11 12  1  0
 14 23  1  0
 15 23  1  0
 16 21  1  0
 17 18  1  0
 17 16  1  0
 19 18  1  0
 19 28  1  0
 19 20  1  0
 21 15  1  0
 21 20  1  0
 22 15  2  0
 23 24  1  0
 25 26  2  0
 26 45  1  0
 27 26  1  0
 27 30  1  0
 28 25  1  0
 28 29  1  0
 29 27  2  0
 30 31  1  0
 31 32  2  0
 33 36  1  0
 33 32  1  0
 34 33  2  0
 35 34  1  0
 35 30  2  0
 36 37  1  0
 37 38  1  0
 38 39  2  0
 40 39  1  0
 40 44  1  0
 41 40  2  0
 42 37  2  0
 42 41  1  0
 43 42  1  0
 45 46  1  0
 46 49  1  0
 46 48  1  0
 47 45  2  0
 50 51  1  0
 50 25  1  0
 52 50  1  0
 53 54  1  0
 53  6  1  0
 54 56  1  0
 55 66  2  0
 56 61  1  0
 57 65  1  0
 57 67  1  0
 58 64  1  0
 58 60  1  0
 59 65  1  0
 60 59  1  0
 61 60  2  0
 62 63  1  0
 62 56  2  0
 63 58  2  0
 64 57  1  0
 65 55  1  0
 67 69  2  0
 68 67  1  0
 70 68  1  0
 71 80  2  0
 71 76  1  0
 72 68  1  0
 72 76  1  0
 73 72  1  0
 74 75  1  0
 74 73  1  0
 75 71  1  0
 76 77  2  0
 77 78  1  0
 79 78  2  0
 80 79  1  0
 81 55  1  0
 81 86  1  0
 81 82  1  0
 82 85  1  1
 82 83  1  0
 84 82  1  0
 86 89  1  0
 87 91  1  0
 87 86  1  0
 88 87  2  0
 91 90  1  0
 93 91  1  0
 93 94  1  0
 93 92  1  0
M  ISO  4  15 100  23 100  53 101  54 101
M  END
>  <TORSDO>  (87) 
F 20

>  <SCORE>  (87) 
-11.930

>  <name>  (87) 
86

>  <ligand_id>  (87) 
86

>  <original_smiles>  (87) 
[H]c1c([H])c([H])c2c(c1[H])C([H])([H])C([H])([H])C([H])([H])C2([H])N([H])C(=O)C1([H])N(C(=O)C([H])(N([H])C(=O)C([H])(N([H])C([H])([H])[H])C([H])([H])[H])C(C([H])([H])[H])(C([H])([H])[H])C([H])([H])[H])C([H])([H])c2c([H])c(OC([H])([H])c3c(C([H])(F)F)c([H])c(C([H])([H])N([H])C(=O)N4C([H])([H])C([H])([H])C([H])([H])C([H])(n5nc(-c6c([H])c([H])c(Oc7c([H])c([H])c(F)c([H])c7F)c([H])c6[H])c(C(=O)N([H])[H])c5N([H])[H])C4([H])[H])c([H])c3C(F)(F)F)c([H])c([H])c2C1([H])[H]

>  <smiles>  (87) 
[H]c1c([H])c([H])c2c(c1[H])C([H])([H])C([H])([H])C([H])([H])C2([H])N([H])C(=O)C1([H])N(C(=O)C([H])(N([H])C(=O)C([H])(N([H])C([H])([H])[H])C([H])([H])[H])C(C([H])([H])[H])(C([H])([H])[H])C([H])([H])[H])C([H])([H])c2c([H])c(OC([H])([H])c3c(C([H])(F)F)c([H])c(C([H])([H])N([H])C(=O)N4C([H])([H])C([H])([H])C([H])([H])C([H])(n5nc(-c6c([H])c([H])c(Oc7c([H])c([H])c(F)c([H])c7F)c([H])c6[H])c(C(=O)N([H])[H])c5N([H])[H])C4([H])[H])c([H])c3C(F)(F)F)c([H])c([H])c2C1([H])[H]

$$$$
87:0:0
     RDKit          3D

101110  0  0  1  0  0  0  0  0999 V2000
  -30.3230  -18.1010   22.0140 C   0  0  0  0  0  2  0  0  0  0  0  0
  -29.4060  -19.3380   21.7970 C   0  0  0  0  0  2  0  0  0  0  0  0
  -30.6460  -18.1070   19.4280 C   0  0  0  0  0  2  0  0  0  0  0  0
  -29.7360  -19.3940   19.3490 C   0  0  0  0  0  3  0  0  0  0  0  0
  -30.7450  -17.2880   20.7570 C   0  0  0  0  0  3  0  0  0  0  0  0
  -29.8230  -20.2880   20.6370 C   0  0  0  0  0  3  0  0  0  0  0  0
  -30.9250  -14.7820   20.2180 C   0  0  0  0  0  0  0  0  0  0  0  0
  -30.5500  -12.6960   18.9370 C   0  0  0  0  0  2  0  0  0  0  0  0
  -29.5740  -12.9940   17.7790 C   0  0  0  0  0  2  0  0  0  0  0  0
  -28.1150  -12.8390   18.2500 C   0  0  0  0  0  2  0  0  0  0  0  0
  -27.8340  -13.5760   19.5880 C   0  0  0  0  0  3  0  0  0  0  0  0
  -28.9270  -13.2850   20.6400 C   0  0  0  0  0  2  0  0  0  0  0  0
  -30.2230  -13.6230   20.0380 N   0  0  0  0  0  0  0  0  0  0  0  0
  -32.0770  -14.9000   19.7960 O   0  0  0  0  0  0  0  0  0  0  0  0
  -30.2450  -15.8700   20.6950 N   0  0  0  0  0  0  0  0  0  0  0  0
  -29.2940  -15.7050   20.9920 H   0  0  0  0  0  0  0  0  0  0  0  0
  -25.4580  -14.1510   20.3760 C   0  0  0  0  0  0  0  0  0  0  0  0
  -24.3990  -13.3650   20.7460 C   0  0  0  0  0  0  0  0  0  0  0  0
  -24.8610  -12.0160   20.6670 C   0  0  0  0  0  0  0  0  0  0  0  0
  -26.4970  -13.2780   20.0950 N   0  0  0  0  0  0  0  0  0  0  0  0
  -26.1440  -11.9880   20.3300 N   0  0  0  0  0  0  0  0  0  0  0  0
  -24.1390  -10.7490   20.8360 C   0  0  0  0  0  0  0  0  0  0  0  0
  -24.5760   -9.7660   21.7510 C   0  0  0  0  0  3  0  0  0  0  0  0
  -23.8550   -8.5630   21.9100 C   0  0  0  0  0  3  0  0  0  0  0  0
  -22.6810   -8.3340   21.1520 C   0  0  0  0  0  0  0  0  0  0  0  0
  -22.2620   -9.3060   20.2260 C   0  0  0  0  0  3  0  0  0  0  0  0
  -22.9850  -10.5010   20.0660 C   0  0  0  0  0  3  0  0  0  0  0  0
  -21.9300   -7.1860   21.2210 O   0  0  0  0  0  0  0  0  0  0  0  0
  -21.8660   -6.4350   22.3680 C   0  0  0  0  0  0  0  0  0  0  0  0
  -21.4510   -6.9870   23.5990 C   0  0  0  0  0  3  0  0  0  0  0  0
  -21.3350   -6.1630   24.7360 C   0  0  0  0  0  3  0  0  0  0  0  0
  -21.6230   -4.7890   24.6430 C   0  0  0  0  0  0  0  0  0  0  0  0
  -22.0310   -4.2360   23.4160 C   0  0  0  0  0  3  0  0  0  0  0  0
  -22.1490   -5.0570   22.2810 C   0  0  0  0  0  0  0  0  0  0  0  0
  -22.5230   -4.5140   21.0970 F   0  0  0  0  0  0  0  0  0  0  0  0
  -21.5030   -3.9950   25.7330 F   0  0  0  0  0  0  0  0  0  0  0  0
  -23.0080  -13.8340   21.0620 C   0  0  0  0  0  0  0  0  0  0  0  0
  -22.3100  -13.1290   21.9460 N   0  0  0  0  0  0  0  0  0  0  0  0
  -22.5490  -14.8580   20.5590 O   0  0  0  0  0  0  0  0  0  0  0  0
  -22.6960  -12.3010   22.3740 H   0  0  0  0  0  0  0  0  0  0  0  0
  -21.3770  -13.4230   22.1980 H   0  0  0  0  0  0  0  0  0  0  0  0
  -25.6180  -15.5260   20.2330 N   0  0  0  0  0  0  0  0  0  0  0  0
  -24.8480  -16.1720   20.3680 H   0  0  0  0  0  0  0  0  0  0  0  0
  -26.4530  -15.9730   19.8790 H   0  0  0  0  0  0  0  0  0  0  0  0
  -28.9720  -21.5530   20.6580 N   0  0  0  0  0  4  0  0  0  0  0  0
  -28.8670  -21.7780   21.6340 H   0  0  0  0  0  0  0  0  0  0  0  0
  -28.0450  -21.3470   20.3180 H   0  0  0  0  0  0  0  0  0  0  0  0
  -29.4740  -22.8310   20.0180 C   0  0  0  0  0  2  0  0  0  0  0  0
  -28.7910  -24.1900   20.4850 C   0  0  0  0  0  3  0  0  0  0  0  0
  -29.1330  -25.4680   19.6190 C   0  0  0  0  0  3  0  0  0  0  0  0
  -28.9030  -26.8030   20.1780 O   0  0  0  0  0  0  0  0  0  0  0  0
  -24.6420  -31.7280   23.1590 C   0  0  0  0  0  0  0  0  0  0  0  0
  -27.6880  -27.4820   20.0910 C   0  0  0  0  0  0  0  0  0  0  0  0
  -23.5990  -30.2980   21.4330 C   0  0  0  0  0  3  0  0  0  0  0  0
  -25.2060  -28.8870   20.0310 C   0  0  0  0  0  0  0  0  0  0  0  0
  -26.1090  -30.8040   21.3560 C   0  0  0  0  0  2  0  0  0  0  0  0
  -26.3070  -29.4530   20.6840 C   0  0  0  0  0  0  0  0  0  0  0  0
  -27.5450  -28.7570   20.7090 C   0  0  0  0  0  3  0  0  0  0  0  0
  -26.5610  -26.9440   19.4310 C   0  0  0  0  0  3  0  0  0  0  0  0
  -25.3320  -27.6360   19.4000 C   0  0  0  0  0  3  0  0  0  0  0  0
  -23.9090  -29.6700   20.0470 C   0  0  0  0  0  2  0  0  0  0  0  0
  -24.7990  -30.9600   22.0420 N   0  0  0  0  0  0  0  0  0  0  0  0
  -23.5240  -31.9170   23.6570 O   0  0  0  0  0  0  0  0  0  0  0  0
  -22.9730  -29.2140   22.3420 C   0  0  0  0  0  0  0  0  0  0  0  0
  -21.6590  -28.9840   22.1870 N   0  0  0  0  0  0  0  0  0  0  0  0
  -23.6690  -28.5830   23.1430 O   0  0  0  0  0  0  0  0  0  0  0  0
  -21.1550  -29.5490   21.5200 H   0  0  0  0  0  0  0  0  0  0  0  0
  -18.3200  -27.6740   22.6340 C   0  0  0  0  0  0  0  0  0  0  0  0
  -20.8730  -27.9800   22.9060 C   0  0  0  0  0  3  0  0  0  0  0  0
  -21.0070  -26.5900   22.2410 C   0  0  0  0  0  2  0  0  0  0  0  0
  -19.9050  -26.3020   21.2160 C   0  0  0  0  0  2  0  0  0  0  0  0
  -18.5250  -26.3720   21.8760 C   0  0  0  0  0  2  0  0  0  0  0  0
  -19.4230  -28.4360   23.1040 C   0  0  0  0  0  0  0  0  0  0  0  0
  -19.1760  -29.6550   23.7710 C   0  0  0  0  0  3  0  0  0  0  0  0
  -17.8600  -30.1110   23.9750 C   0  0  0  0  0  3  0  0  0  0  0  0
  -16.7720  -29.3450   23.5220 C   0  0  0  0  0  3  0  0  0  0  0  0
  -17.0030  -28.1280   22.8560 C   0  0  0  0  0  3  0  0  0  0  0  0
  -25.8560  -32.4240   23.8500 C   0  0  0  0  0  3  0  0  0  0  0  0
  -25.4530  -33.8010   24.1710 N   0  0  0  0  0  0  0  0  0  0  0  0
  -25.7660  -34.8770   23.4370 C   0  0  0  0  0  0  0  0  0  0  0  0
  -26.4920  -34.8200   22.4400 O   0  0  0  0  0  0  0  0  0  0  0  0
  -24.8060  -33.9160   24.9360 H   0  0  0  0  0  0  0  0  0  0  0  0
  -23.9610  -36.5770   23.0080 C   0  0  0  0  0  1  0  0  0  0  0  0
  -25.1810  -36.2330   23.8780 C   0  0  0  0  0  3  0  0  0  0  0  0
  -27.2210  -37.2230   24.8180 C   0  0  0  0  0  1  0  0  0  0  0  0
  -26.1580  -37.3420   23.8240 N   0  0  0  0  0  0  0  0  0  0  0  0
  -25.6960  -38.2370   23.9570 H   0  0  0  0  0  0  0  0  0  0  0  0
  -26.3490  -31.6730   25.1460 C   0  0  1  0  0  0  0  0  0  0  0  0
  -25.2120  -31.3320   26.1380 C   0  0  0  0  0  1  0  0  0  0  0  0
  -27.0610  -30.3510   24.7720 C   0  0  0  0  0  1  0  0  0  0  0  0
  -27.3910  -32.5400   25.8930 C   0  0  0  0  0  1  0  0  0  0  0  0
  -29.9870  -20.2080   18.0450 C   0  0  0  0  0  2  0  0  0  0  0  0
  -30.4100  -18.1200   14.8220 C   0  0  0  0  0  3  0  0  0  0  0  0
  -32.6200  -18.7080   15.6420 C   0  0  0  0  0  3  0  0  0  0  0  0
  -31.8090  -18.0670   14.6910 C   0  0  0  0  0  0  0  0  0  0  0  0
  -29.8160  -18.8080   15.9010 C   0  0  0  0  0  0  0  0  0  0  0  0
  -32.0460  -19.3990   16.7290 C   0  0  0  0  0  0  0  0  0  0  0  0
  -30.6310  -19.4540   16.8710 C   0  0  0  0  0  0  0  0  0  0  0  0
  -32.4440  -17.3310   13.5280 C   0  0  0  0  0  1  0  0  0  0  0  0
  -28.2980  -18.8250   15.9870 C   0  0  0  0  0  1  0  0  0  0  0  0
  -32.9890  -20.0720   17.7160 C   0  0  0  0  0  1  0  0  0  0  0  0
  2  1  1  0
  3  5  1  0
  4 92  1  0
  4  3  1  0
  4  6  1  0
  5 15  1  0
  5  1  1  0
  6 45  1  0
  6  2  1  0
  7 15  1  0
  8 13  1  0
  9 10  1  0
  9  8  1  0
 11 10  1  0
 11 20  1  0
 11 12  1  0
 13  7  1  0
 13 12  1  0
 14  7  2  0
 15 16  1  0
 17 18  2  0
 18 37  1  0
 19 18  1  0
 19 22  1  0
 20 21  1  0
 20 17  1  0
 21 19  2  0
 22 23  1  0
 23 24  2  0
 25 28  1  0
 25 24  1  0
 26 25  2  0
 27 26  1  0
 27 22  2  0
 28 29  1  0
 29 30  1  0
 30 31  2  0
 32 31  1  0
 32 36  1  0
 33 32  2  0
 34 29  2  0
 34 33  1  0
 35 34  1  0
 37 38  1  0
 38 41  1  0
 38 40  1  0
 39 37  2  0
 42 43  1  0
 42 17  1  0
 44 42  1  0
 45 46  1  0
 47 45  1  0
 48 49  1  0
 48 45  1  0
 50 51  1  0
 50 49  2  0
 52 63  2  0
 53 51  1  0
 53 58  1  0
 54 62  1  0
 54 64  1  0
 55 61  1  0
 55 57  1  0
 56 62  1  0
 57 58  2  0
 57 56  1  0
 59 53  2  0
 60 59  1  0
 60 55  2  0
 61 54  1  0
 62 52  1  0
 64 66  2  0
 65 64  1  0
 67 65  1  0
 68 77  2  0
 68 73  1  0
 69 65  1  0
 69 73  1  0
 70 69  1  0
 71 72  1  0
 71 70  1  0
 72 68  1  0
 73 74  2  0
 74 75  1  0
 76 75  2  0
 77 76  1  0
 78 52  1  0
 78 79  1  0
 78 88  1  0
 79 82  1  0
 80 84  1  0
 80 79  1  0
 81 80  2  0
 84 83  1  0
 86 84  1  0
 86 87  1  0
 86 85  1  0
 88 91  1  1
 88 89  1  0
 90 88  1  0
 93 96  1  0
 94 97  2  0
 95 93  2  0
 95 94  1  0
 96100  1  0
 96 98  2  0
 97 98  1  0
 97101  1  0
 98 92  1  0
 99 95  1  0
M  ISO  4   7 100  15 100  50 101  51 101
M  END
>  <TORSDO>  (88) 
F 22

>  <SCORE>  (88) 
-11.995

>  <name>  (88) 
87

>  <ligand_id>  (88) 
87

>  <original_smiles>  (88) 
[H]c1c([H])c([H])c2c(c1[H])C([H])([H])C([H])([H])C([H])([H])C2([H])N([H])C(=O)C1([H])N(C(=O)C([H])(N([H])C(=O)C([H])(N([H])C([H])([H])[H])C([H])([H])[H])C(C([H])([H])[H])(C([H])([H])[H])C([H])([H])[H])C([H])([H])c2c([H])c(OC([H])([H])C([H])([H])C([H])([H])[N+]([H])([H])C3([H])C([H])([H])C([H])([H])C([H])(N([H])C(=O)N4C([H])([H])C([H])([H])C([H])([H])C([H])(n5nc(-c6c([H])c([H])c(Oc7c([H])c([H])c(F)c([H])c7F)c([H])c6[H])c(C(=O)N([H])[H])c5N([H])[H])C4([H])[H])C([H])([H])C3([H])C([H])([H])c3c(C([H])([H])[H])c([H])c(C([H])([H])[H])c([H])c3C([H])([H])[H])c([H])c([H])c2C1([H])[H]

>  <smiles>  (88) 
[H]c1c([H])c([H])c2c(c1[H])C([H])([H])C([H])([H])C([H])([H])C2([H])N([H])C(=O)C1([H])N(C(=O)C([H])(N([H])C(=O)C([H])(N([H])C([H])([H])[H])C([H])([H])[H])C(C([H])([H])[H])(C([H])([H])[H])C([H])([H])[H])C([H])([H])c2c([H])c(OC([H])([H])C([H])([H])C([H])([H])[N+]([H])([H])C3([H])C([H])([H])C([H])([H])C([H])(N([H])C(=O)N4C([H])([H])C([H])([H])C([H])([H])C([H])(n5nc(-c6c([H])c([H])c(Oc7c([H])c([H])c(F)c([H])c7F)c([H])c6[H])c(C(=O)N([H])[H])c5N([H])[H])C4([H])[H])C([H])([H])C3([H])C([H])([H])c3c(C([H])([H])[H])c([H])c(C([H])([H])[H])c([H])c3C([H])([H])[H])c([H])c([H])c2C1([H])[H]

$$$$
88:0:0
     RDKit          3D

 95103  0  0  1  0  0  0  0  0999 V2000
  -30.5310  -20.9000   20.1840 N   0  0  0  0  0  4  0  0  0  0  0  0
  -29.9810  -20.6360   20.9850 H   0  0  0  0  0  0  0  0  0  0  0  0
  -30.0130  -20.6360   19.3610 H   0  0  0  0  0  0  0  0  0  0  0  0
  -31.7700  -20.0950   20.2250 C   0  0  0  0  0  2  0  0  0  0  0  0
  -31.5520  -18.0370   23.4750 C   0  0  0  0  0  3  0  0  0  0  0  0
  -31.3800  -17.6190   20.7020 C   0  0  0  0  0  3  0  0  0  0  0  0
  -31.7440  -19.1230   22.5990 C   0  0  0  0  0  0  0  0  0  0  0  0
  -31.2660  -16.7510   22.9810 C   0  0  0  0  0  0  0  0  0  0  0  0
  -31.6300  -18.9230   21.1970 C   0  0  0  0  0  0  0  0  0  0  0  0
  -31.2140  -16.5230   21.5850 C   0  0  0  0  0  0  0  0  0  0  0  0
  -32.0610  -20.4860   23.1990 C   0  0  0  0  0  1  0  0  0  0  0  0
  -31.0110  -15.6250   23.9710 C   0  0  0  0  0  1  0  0  0  0  0  0
  -31.3030  -14.4890   20.0870 C   0  0  0  0  0  0  0  0  0  0  0  0
  -30.8390  -12.4240   18.7950 C   0  0  0  0  0  2  0  0  0  0  0  0
  -29.8540  -12.7190   17.6460 C   0  0  0  0  0  2  0  0  0  0  0  0
  -28.3920  -12.6370   18.1300 C   0  0  0  0  0  2  0  0  0  0  0  0
  -28.1550  -13.4440   19.4330 C   0  0  0  0  0  3  0  0  0  0  0  0
  -29.2330  -13.1040   20.4840 C   0  0  0  0  0  2  0  0  0  0  0  0
  -30.5620  -13.3640   19.8910 N   0  0  0  0  0  0  0  0  0  0  0  0
  -32.2880  -14.7850   19.4000 O   0  0  0  0  0  0  0  0  0  0  0  0
  -30.9080  -15.2010   21.1560 N   0  0  0  0  0  0  0  0  0  0  0  0
  -30.2390  -14.7150   21.7310 H   0  0  0  0  0  0  0  0  0  0  0  0
  -25.8140  -14.1610   20.2290 C   0  0  0  0  0  0  0  0  0  0  0  0
  -24.7270  -13.4370   20.6400 C   0  0  0  0  0  0  0  0  0  0  0  0
  -25.1250  -12.0660   20.5910 C   0  0  0  0  0  0  0  0  0  0  0  0
  -26.8070  -13.2340   19.9580 N   0  0  0  0  0  0  0  0  0  0  0  0
  -26.3980  -11.9680   20.2290 N   0  0  0  0  0  0  0  0  0  0  0  0
  -24.3520  -10.8370   20.8130 C   0  0  0  0  0  0  0  0  0  0  0  0
  -24.7490   -9.8750   21.7670 C   0  0  0  0  0  3  0  0  0  0  0  0
  -23.9800   -8.7100   21.9750 C   0  0  0  0  0  3  0  0  0  0  0  0
  -22.7980   -8.4990   21.2260 C   0  0  0  0  0  0  0  0  0  0  0  0
  -22.4170   -9.4500   20.2620 C   0  0  0  0  0  3  0  0  0  0  0  0
  -23.1860  -10.6060   20.0550 C   0  0  0  0  0  3  0  0  0  0  0  0
  -22.0020   -7.3840   21.3390 O   0  0  0  0  0  0  0  0  0  0  0  0
  -21.8850   -6.7020   22.5240 C   0  0  0  0  0  0  0  0  0  0  0  0
  -21.4600   -7.3370   23.7100 C   0  0  0  0  0  3  0  0  0  0  0  0
  -21.2850   -6.5830   24.8880 C   0  0  0  0  0  3  0  0  0  0  0  0
  -21.5270   -5.1960   24.8790 C   0  0  0  0  0  0  0  0  0  0  0  0
  -21.9480   -4.5610   23.6970 C   0  0  0  0  0  3  0  0  0  0  0  0
  -22.1230   -5.3120   22.5220 C   0  0  0  0  0  0  0  0  0  0  0  0
  -22.5060   -4.6920   21.3800 F   0  0  0  0  0  0  0  0  0  0  0  0
  -21.3520   -4.4710   26.0070 F   0  0  0  0  0  0  0  0  0  0  0  0
  -23.3640  -13.9750   20.9720 C   0  0  0  0  0  0  0  0  0  0  0  0
  -22.6540  -13.3260   21.8890 N   0  0  0  0  0  0  0  0  0  0  0  0
  -22.9390  -15.0060   20.4530 O   0  0  0  0  0  0  0  0  0  0  0  0
  -23.0040  -12.4830   22.3220 H   0  0  0  0  0  0  0  0  0  0  0  0
  -21.7450  -13.6760   22.1570 H   0  0  0  0  0  0  0  0  0  0  0  0
  -26.0370  -15.5230   20.0490 N   0  0  0  0  0  0  0  0  0  0  0  0
  -25.3120  -16.2200   20.1870 H   0  0  0  0  0  0  0  0  0  0  0  0
  -26.9060  -15.9190   19.7120 H   0  0  0  0  0  0  0  0  0  0  0  0
  -30.7340  -22.3690   20.2010 C   0  0  0  0  0  2  0  0  0  0  0  0
  -29.4060  -23.1460   20.0770 C   0  0  0  0  0  2  0  0  0  0  0  0
  -29.5570  -24.6800   20.1940 C   0  0  0  0  0  2  0  0  0  0  0  0
  -28.2400  -25.4080   19.8820 C   0  0  0  0  0  2  0  0  0  0  0  0
  -28.3430  -26.8220   20.0840 O   0  0  0  0  0  0  0  0  0  0  0  0
  -24.5830  -31.9940   23.2090 C   0  0  0  0  0  0  0  0  0  0  0  0
  -27.1620  -27.5390   20.0860 C   0  0  0  0  0  0  0  0  0  0  0  0
  -23.3430  -30.5850   21.6010 C   0  0  0  0  0  3  0  0  0  0  0  0
  -24.7640  -29.0460   20.1510 C   0  0  0  0  0  0  0  0  0  0  0  0
  -25.8640  -30.9420   21.3480 C   0  0  0  0  0  2  0  0  0  0  0  0
  -25.9350  -29.5700   20.7120 C   0  0  0  0  0  0  0  0  0  0  0  0
  -27.1360  -28.8240   20.6780 C   0  0  0  0  0  3  0  0  0  0  0  0
  -25.9660  -27.0340   19.5170 C   0  0  0  0  0  3  0  0  0  0  0  0
  -24.7730  -27.7760   19.5540 C   0  0  0  0  0  3  0  0  0  0  0  0
  -23.5220  -29.9050   20.2190 C   0  0  0  0  0  2  0  0  0  0  0  0
  -24.6160  -31.1880   22.1110 N   0  0  0  0  0  0  0  0  0  0  0  0
  -23.5140  -32.2700   23.7700 O   0  0  0  0  0  0  0  0  0  0  0  0
  -22.7130  -29.5650   22.5770 C   0  0  0  0  0  0  0  0  0  0  0  0
  -21.3920  -29.3600   22.4560 N   0  0  0  0  0  0  0  0  0  0  0  0
  -23.4100  -28.9640   23.3990 O   0  0  0  0  0  0  0  0  0  0  0  0
  -20.8910  -29.8970   21.7630 H   0  0  0  0  0  0  0  0  0  0  0  0
  -18.0440  -28.0980   22.9550 C   0  0  0  0  0  0  0  0  0  0  0  0
  -20.5910  -28.4210   23.2440 C   0  0  0  0  0  3  0  0  0  0  0  0
  -20.7340  -26.9790   22.7030 C   0  0  0  0  0  2  0  0  0  0  0  0
  -19.6500  -26.6080   21.6870 C   0  0  0  0  0  2  0  0  0  0  0  0
  -18.2600  -26.7360   22.3160 C   0  0  0  0  0  2  0  0  0  0  0  0
  -19.1410  -28.8960   23.3760 C   0  0  0  0  0  0  0  0  0  0  0  0
  -18.8880  -30.1690   23.9310 C   0  0  0  0  0  3  0  0  0  0  0  0
  -17.5700  -30.6440   24.0740 C   0  0  0  0  0  3  0  0  0  0  0  0
  -16.4880  -29.8430   23.6700 C   0  0  0  0  0  3  0  0  0  0  0  0
  -16.7260  -28.5730   23.1150 C   0  0  0  0  0  3  0  0  0  0  0  0
  -25.8830  -32.6270   23.7990 C   0  0  0  0  0  3  0  0  0  0  0  0
  -25.5760  -34.0190   24.1500 N   0  0  0  0  0  0  0  0  0  0  0  0
  -25.8900  -35.0800   23.3940 C   0  0  0  0  0  0  0  0  0  0  0  0
  -26.5410  -34.9890   22.3500 O   0  0  0  0  0  0  0  0  0  0  0  0
  -24.9960  -34.1630   24.9630 H   0  0  0  0  0  0  0  0  0  0  0  0
  -24.1440  -36.8640   23.0860 C   0  0  0  0  0  1  0  0  0  0  0  0
  -25.4020  -36.4600   23.8740 C   0  0  0  0  0  3  0  0  0  0  0  0
  -27.5480  -37.3450   24.6740 C   0  0  0  0  0  1  0  0  0  0  0  0
  -26.4260  -37.5210   23.7550 N   0  0  0  0  0  0  0  0  0  0  0  0
  -26.0170  -38.4350   23.9260 H   0  0  0  0  0  0  0  0  0  0  0  0
  -26.4430  -31.8440   25.0490 C   0  0  1  0  0  0  0  0  0  0  0  0
  -25.3820  -31.5780   26.1420 C   0  0  0  0  0  1  0  0  0  0  0  0
  -27.0310  -30.4810   24.6170 C   0  0  0  0  0  1  0  0  0  0  0  0
  -27.6010  -32.6430   25.6920 C   0  0  0  0  0  1  0  0  0  0  0  0
  1 51  1  0
  1  4  1  0
  1  2  1  0
  3  1  1  0
  4  9  1  0
  6  9  2  0
  6 10  1  0
  7 11  1  0
  7  5  2  0
  8  5  1  0
  8 12  1  0
  9  7  1  0
 10  8  2  0
 13 21  1  0
 14 19  1  0
 15 16  1  0
 15 14  1  0
 17 16  1  0
 17 26  1  0
 17 18  1  0
 19 13  1  0
 19 18  1  0
 20 13  2  0
 21 10  1  0
 21 22  1  0
 23 24  2  0
 24 43  1  0
 25 24  1  0
 25 28  1  0
 26 23  1  0
 26 27  1  0
 27 25  2  0
 28 29  1  0
 29 30  2  0
 31 34  1  0
 31 30  1  0
 32 31  2  0
 33 32  1  0
 33 28  2  0
 34 35  1  0
 35 36  1  0
 36 37  2  0
 38 37  1  0
 38 42  1  0
 39 38  2  0
 40 35  2  0
 40 39  1  0
 41 40  1  0
 43 44  1  0
 44 47  1  0
 44 46  1  0
 45 43  2  0
 48 49  1  0
 48 23  1  0
 50 48  1  0
 52 53  1  0
 52 51  1  0
 54 55  1  0
 54 53  1  0
 55 57  1  0
 56 67  2  0
 57 62  1  0
 58 66  1  0
 58 68  1  0
 59 65  1  0
 59 61  1  0
 60 66  1  0
 61 60  1  0
 62 61  2  0
 63 64  1  0
 63 57  2  0
 64 59  2  0
 65 58  1  0
 66 56  1  0
 68 70  2  0
 69 68  1  0
 71 69  1  0
 72 81  2  0
 72 77  1  0
 73 69  1  0
 73 77  1  0
 74 73  1  0
 75 76  1  0
 75 74  1  0
 76 72  1  0
 77 78  2  0
 78 79  1  0
 80 79  2  0
 81 80  1  0
 82 56  1  0
 82 83  1  0
 82 92  1  0
 83 86  1  0
 84 88  1  0
 84 83  1  0
 85 84  2  0
 88 87  1  0
 90 88  1  0
 90 91  1  0
 90 89  1  0
 92 95  1  1
 92 93  1  0
 94 92  1  0
M  ISO  4  13 100  21 100  54 101  55 101
M  END
>  <TORSDO>  (89) 
F 22

>  <SCORE>  (89) 
-7.509

>  <name>  (89) 
88

>  <ligand_id>  (89) 
88

>  <original_smiles>  (89) 
[H]c1c([H])c([H])c2c(c1[H])C([H])([H])C([H])([H])C([H])([H])C2([H])N([H])C(=O)C1([H])N(C(=O)C([H])(N([H])C(=O)C([H])(N([H])C([H])([H])[H])C([H])([H])[H])C(C([H])([H])[H])(C([H])([H])[H])C([H])([H])[H])C([H])([H])c2c([H])c(OC([H])([H])C([H])([H])C([H])([H])C([H])([H])[N+]([H])([H])C([H])([H])c3c([H])c(N([H])C(=O)N4C([H])([H])C([H])([H])C([H])([H])C([H])(n5nc(-c6c([H])c([H])c(Oc7c([H])c([H])c(F)c([H])c7F)c([H])c6[H])c(C(=O)N([H])[H])c5N([H])[H])C4([H])[H])c(C([H])([H])[H])c([H])c3C([H])([H])[H])c([H])c([H])c2C1([H])[H]

>  <smiles>  (89) 
[H]c1c([H])c([H])c2c(c1[H])C([H])([H])C([H])([H])C([H])([H])C2([H])N([H])C(=O)C1([H])N(C(=O)C([H])(N([H])C(=O)C([H])(N([H])C([H])([H])[H])C([H])([H])[H])C(C([H])([H])[H])(C([H])([H])[H])C([H])([H])[H])C([H])([H])c2c([H])c(OC([H])([H])C([H])([H])C([H])([H])C([H])([H])[N+]([H])([H])C([H])([H])c3c([H])c(N([H])C(=O)N4C([H])([H])C([H])([H])C([H])([H])C([H])(n5nc(-c6c([H])c([H])c(Oc7c([H])c([H])c(F)c([H])c7F)c([H])c6[H])c(C(=O)N([H])[H])c5N([H])[H])C4([H])[H])c(C([H])([H])[H])c([H])c3C([H])([H])[H])c([H])c([H])c2C1([H])[H]

$$$$
89:0:0
     RDKit          3D

 91100  0  0  1  0  0  0  0  0999 V2000
  -30.9460  -16.7980   18.9490 C   0  0  0  0  0  3  0  0  0  0  0  0
  -30.4650  -18.0140   18.4360 C   0  0  0  0  0  3  0  0  0  0  0  0
  -28.9780  -16.5550   20.3470 C   0  0  0  0  0  3  0  0  0  0  0  0
  -30.2260  -16.0300   19.9080 C   0  0  0  0  0  0  0  0  0  0  0  0
  -29.2480  -18.5260   18.9000 C   0  0  0  0  0  0  0  0  0  0  0  0
  -28.5140  -17.8100   19.8650 C   0  0  0  0  0  0  0  0  0  0  0  0
  -28.7790  -19.9220   18.5170 C   0  0  0  0  0  2  0  0  0  0  0  0
  -27.2800  -18.4970   20.4300 C   0  0  0  0  0  2  0  0  0  0  0  0
  -27.5310  -20.0090   20.7340 C   0  0  0  0  0  2  0  0  0  0  0  0
  -28.5660  -20.7230   19.8120 C   0  0  0  0  0  3  0  0  0  0  0  0
  -30.9190  -14.7790   20.4530 C   0  0  0  0  0  0  0  0  0  0  0  0
  -30.7500  -12.4130   19.8860 C   0  0  0  0  0  2  0  0  0  0  0  0
  -29.9340  -12.3360   18.5790 C   0  0  0  0  0  2  0  0  0  0  0  0
  -28.4400  -12.1870   18.9200 C   0  0  0  0  0  2  0  0  0  0  0  0
  -27.9540  -13.2700   19.9220 C   0  0  0  0  0  3  0  0  0  0  0  0
  -28.9070  -13.3790   21.1270 C   0  0  0  0  0  2  0  0  0  0  0  0
  -30.2620  -13.5940   20.6170 N   0  0  0  0  0  0  0  0  0  0  0  0
  -32.1470  -14.7980   20.3680 O   0  0  0  0  0  0  0  0  0  0  0  0
  -25.5600  -13.9670   20.5400 C   0  0  0  0  0  0  0  0  0  0  0  0
  -24.4450  -13.2380   20.8430 C   0  0  0  0  0  0  0  0  0  0  0  0
  -24.8470  -11.8670   20.8140 C   0  0  0  0  0  0  0  0  0  0  0  0
  -26.5750  -13.0440   20.3410 N   0  0  0  0  0  0  0  0  0  0  0  0
  -26.1460  -11.7740   20.5650 N   0  0  0  0  0  0  0  0  0  0  0  0
  -24.0590  -10.6360   20.9460 C   0  0  0  0  0  0  0  0  0  0  0  0
  -24.4590   -9.5910   21.8100 C   0  0  0  0  0  3  0  0  0  0  0  0
  -23.6740   -8.4250   21.9310 C   0  0  0  0  0  3  0  0  0  0  0  0
  -22.4760   -8.2940   21.1880 C   0  0  0  0  0  0  0  0  0  0  0  0
  -22.0960   -9.3290   20.3150 C   0  0  0  0  0  3  0  0  0  0  0  0
  -22.8780  -10.4860   20.1900 C   0  0  0  0  0  3  0  0  0  0  0  0
  -21.6610   -7.1880   21.2240 O   0  0  0  0  0  0  0  0  0  0  0  0
  -21.6800   -6.3160   22.2820 C   0  0  0  0  0  0  0  0  0  0  0  0
  -21.4190   -6.7410   23.6040 C   0  0  0  0  0  3  0  0  0  0  0  0
  -21.3790   -5.7990   24.6510 C   0  0  0  0  0  3  0  0  0  0  0  0
  -21.5870   -4.4330   24.3790 C   0  0  0  0  0  0  0  0  0  0  0  0
  -21.8430   -4.0080   23.0620 C   0  0  0  0  0  3  0  0  0  0  0  0
  -21.8860   -4.9480   22.0180 C   0  0  0  0  0  0  0  0  0  0  0  0
  -22.1090   -4.5300   20.7490 F   0  0  0  0  0  0  0  0  0  0  0  0
  -21.5430   -3.5270   25.3820 F   0  0  0  0  0  0  0  0  0  0  0  0
  -23.0570  -13.7710   21.0630 C   0  0  0  0  0  0  0  0  0  0  0  0
  -22.2580  -13.1020   21.8850 N   0  0  0  0  0  0  0  0  0  0  0  0
  -22.6870  -14.8220   20.5360 O   0  0  0  0  0  0  0  0  0  0  0  0
  -22.5650  -12.2510   22.3340 H   0  0  0  0  0  0  0  0  0  0  0  0
  -21.3240  -13.4450   22.0660 H   0  0  0  0  0  0  0  0  0  0  0  0
  -25.7970  -15.3330   20.3940 N   0  0  0  0  0  0  0  0  0  0  0  0
  -25.0520  -16.0180   20.4250 H   0  0  0  0  0  0  0  0  0  0  0  0
  -26.6990  -15.7370   20.1670 H   0  0  0  0  0  0  0  0  0  0  0  0
  -28.2480  -22.1130   19.5960 O   0  0  0  0  0  0  0  0  0  0  0  0
  -29.3460  -22.9480   19.1800 C   0  0  0  0  0  2  0  0  0  0  0  0
  -29.1630  -24.4210   19.6430 C   0  0  0  0  0  2  0  0  0  0  0  0
  -28.0600  -25.2430   18.9130 C   0  0  0  0  0  2  0  0  0  0  0  0
  -28.2220  -26.6850   19.0090 O   0  0  0  0  0  0  0  0  0  0  0  0
  -24.6020  -31.4090   22.8920 C   0  0  0  0  0  0  0  0  0  0  0  0
  -27.0720  -27.4560   19.0780 C   0  0  0  0  0  0  0  0  0  0  0  0
  -23.3110  -30.2170   21.1550 C   0  0  0  0  0  3  0  0  0  0  0  0
  -24.6790  -28.9410   19.4170 C   0  0  0  0  0  0  0  0  0  0  0  0
  -25.8080  -30.6640   20.8290 C   0  0  0  0  0  2  0  0  0  0  0  0
  -25.8680  -29.3920   20.0000 C   0  0  0  0  0  0  0  0  0  0  0  0
  -27.0680  -28.6630   19.8220 C   0  0  0  0  0  3  0  0  0  0  0  0
  -25.8680  -27.0510   18.4540 C   0  0  0  0  0  3  0  0  0  0  0  0
  -24.6780  -27.7810   18.6220 C   0  0  0  0  0  3  0  0  0  0  0  0
  -23.4290  -29.7530   19.6760 C   0  0  0  0  0  2  0  0  0  0  0  0
  -24.5990  -30.7700   21.6860 N   0  0  0  0  0  0  0  0  0  0  0  0
  -23.5530  -31.5670   23.5360 O   0  0  0  0  0  0  0  0  0  0  0  0
  -22.7490  -29.0520   22.0060 C   0  0  0  0  0  0  0  0  0  0  0  0
  -21.4280  -28.8260   21.9180 N   0  0  0  0  0  0  0  0  0  0  0  0
  -23.4970  -28.3600   22.6990 O   0  0  0  0  0  0  0  0  0  0  0  0
  -20.8840  -29.4420   21.3320 H   0  0  0  0  0  0  0  0  0  0  0  0
  -18.1360  -27.3890   22.3550 C   0  0  0  0  0  0  0  0  0  0  0  0
  -20.6860  -27.7610   22.5950 C   0  0  0  0  0  3  0  0  0  0  0  0
  -20.8480  -26.4140   21.8540 C   0  0  0  0  0  2  0  0  0  0  0  0
  -19.7330  -26.1440   20.8400 C   0  0  0  0  0  2  0  0  0  0  0  0
  -18.3670  -26.1370   21.5290 C   0  0  0  0  0  2  0  0  0  0  0  0
  -19.2260  -28.1590   22.8420 C   0  0  0  0  0  0  0  0  0  0  0  0
  -18.9540  -29.3340   23.5770 C   0  0  0  0  0  3  0  0  0  0  0  0
  -17.6290  -29.7330   23.8360 C   0  0  0  0  0  3  0  0  0  0  0  0
  -16.5550  -28.9580   23.3640 C   0  0  0  0  0  3  0  0  0  0  0  0
  -16.8110  -27.7880   22.6240 C   0  0  0  0  0  3  0  0  0  0  0  0
  -25.9140  -31.9860   23.5070 C   0  0  0  0  0  3  0  0  0  0  0  0
  -26.5040  -31.0860   24.6570 C   0  0  1  0  0  0  0  0  0  0  0  0
  -25.4790  -30.7260   25.7580 C   0  0  0  0  0  1  0  0  0  0  0  0
  -27.0640  -29.7700   24.0730 C   0  0  0  0  0  1  0  0  0  0  0  0
  -27.6940  -31.8070   25.3310 C   0  0  0  0  0  1  0  0  0  0  0  0
  -25.6110  -33.3330   24.0120 N   0  0  0  0  0  0  0  0  0  0  0  0
  -25.8980  -34.4720   23.3680 C   0  0  0  0  0  0  0  0  0  0  0  0
  -26.5200  -34.5020   22.3030 O   0  0  0  0  0  0  0  0  0  0  0  0
  -25.0590  -33.3810   24.8550 H   0  0  0  0  0  0  0  0  0  0  0  0
  -24.1290  -36.2560   23.3220 C   0  0  0  0  0  1  0  0  0  0  0  0
  -25.4210  -35.7900   24.0100 C   0  0  0  0  0  3  0  0  0  0  0  0
  -27.5920  -36.6050   24.8110 C   0  0  0  0  0  1  0  0  0  0  0  0
  -26.4310  -36.8690   23.9620 N   0  0  0  0  0  0  0  0  0  0  0  0
  -26.0260  -37.7580   24.2440 H   0  0  0  0  0  0  0  0  0  0  0  0
  1  4  1  0
  2  5  1  0
  2  1  2  0
  4  3  2  0
  4 11  1  0
  5  6  2  0
  6  3  1  0
  6  8  1  0
  7  5  1  0
  7 10  1  0
  8  9  1  0
 10 47  1  0
 10  9  1  0
 11 17  1  0
 12 17  1  0
 13 14  1  0
 13 12  1  0
 15 14  1  0
 15 22  1  0
 15 16  1  0
 17 16  1  0
 18 11  2  0
 19 20  2  0
 20 39  1  0
 21 20  1  0
 21 24  1  0
 22 19  1  0
 22 23  1  0
 23 21  2  0
 24 25  1  0
 25 26  2  0
 27 30  1  0
 27 26  1  0
 28 27  2  0
 29 28  1  0
 29 24  2  0
 30 31  1  0
 31 32  1  0
 32 33  2  0
 34 33  1  0
 34 38  1  0
 35 34  2  0
 36 31  2  0
 36 35  1  0
 37 36  1  0
 39 40  1  0
 40 43  1  0
 40 42  1  0
 41 39  2  0
 44 45  1  0
 44 19  1  0
 46 44  1  0
 48 47  1  0
 48 49  1  0
 50 51  1  0
 50 49  1  0
 51 53  1  0
 52 63  2  0
 53 58  1  0
 54 62  1  0
 54 64  1  0
 55 61  1  0
 55 57  1  0
 56 62  1  0
 57 56  1  0
 58 57  2  0
 59 60  1  0
 59 53  2  0
 60 55  2  0
 61 54  1  0
 62 52  1  0
 64 66  2  0
 65 64  1  0
 67 65  1  0
 68 77  2  0
 68 73  1  0
 69 65  1  0
 69 73  1  0
 70 69  1  0
 71 72  1  0
 71 70  1  0
 72 68  1  0
 73 74  2  0
 74 75  1  0
 76 75  2  0
 77 76  1  0
 78 52  1  0
 78 83  1  0
 78 79  1  0
 79 82  1  1
 79 80  1  0
 81 79  1  0
 83 86  1  0
 84 88  1  0
 84 83  1  0
 85 84  2  0
 88 87  1  0
 90 88  1  0
 90 91  1  0
 90 89  1  0
M  ISO  4   4 100  11 100  50 101  51 101
M  END
>  <TORSDO>  (90) 
F 20

>  <SCORE>  (90) 
-11.426

>  <name>  (90) 
89

>  <ligand_id>  (90) 
89

>  <original_smiles>  (90) 
[H]c1c([H])c([H])c2c(c1[H])C([H])([H])C([H])([H])C([H])([H])C2([H])N([H])C(=O)C1([H])N(C(=O)C([H])(N([H])C(=O)C([H])(N([H])C([H])([H])[H])C([H])([H])[H])C(C([H])([H])[H])(C([H])([H])[H])C([H])([H])[H])C([H])([H])c2c([H])c(OC([H])([H])C([H])([H])C([H])([H])OC3([H])C([H])([H])c4c([H])c([H])c(C(=O)N5C([H])([H])C([H])([H])C([H])([H])C([H])(n6nc(-c7c([H])c([H])c(Oc8c([H])c([H])c(F)c([H])c8F)c([H])c7[H])c(C(=O)N([H])[H])c6N([H])[H])C5([H])[H])c([H])c4C([H])([H])C3([H])[H])c([H])c([H])c2C1([H])[H]

>  <smiles>  (90) 
[H]c1c([H])c([H])c2c(c1[H])C([H])([H])C([H])([H])C([H])([H])C2([H])N([H])C(=O)C1([H])N(C(=O)C([H])(N([H])C(=O)C([H])(N([H])C([H])([H])[H])C([H])([H])[H])C(C([H])([H])[H])(C([H])([H])[H])C([H])([H])[H])C([H])([H])c2c([H])c(OC([H])([H])C([H])([H])C([H])([H])OC3([H])C([H])([H])c4c([H])c([H])c(C(=O)N5C([H])([H])C([H])([H])C([H])([H])C([H])(n6nc(-c7c([H])c([H])c(Oc8c([H])c([H])c(F)c([H])c8F)c([H])c7[H])c(C(=O)N([H])[H])c6N([H])[H])C5([H])[H])c([H])c4C([H])([H])C3([H])[H])c([H])c([H])c2C1([H])[H]

$$$$
90:0:0
     RDKit          3D

 91 99  0  0  1  0  0  0  0  0999 V2000
  -28.8770  -19.7400   20.2110 C   0  0  0  0  0  3  0  0  0  0  0  0
  -30.2680  -21.3630   21.3570 C   0  0  0  0  0  3  0  0  0  0  0  0
  -29.2050  -21.1420   20.4690 C   0  0  0  0  0  0  0  0  0  0  0  0
  -29.5870  -18.6040   20.8030 C   0  0  0  0  0  0  0  0  0  0  0  0
  -30.6630  -18.9390   21.6760 C   0  0  0  0  0  0  0  0  0  0  0  0
  -30.9850  -20.3000   21.9470 C   0  0  0  0  0  0  0  0  0  0  0  0
  -31.4480  -17.8330   22.3780 C   0  0  0  0  0  1  0  0  0  0  0  0
  -32.2720  -20.7290   23.0210 Cl  0  0  0  0  0  0  0  0  0  0  0  0
  -28.6160  -22.4240   19.7170 C   0  0  0  0  0  2  0  0  0  0  0  0
  -27.8440  -23.6830   20.4090 C   0  0  0  0  0  2  0  0  0  0  0  0
  -28.4810  -25.1130   20.8470 C   0  0  0  0  0  2  0  0  0  0  0  0
  -28.3850  -26.4490   20.1580 O   0  0  0  0  0  0  0  0  0  0  0  0
  -24.6230  -31.9080   23.2360 C   0  0  0  0  0  0  0  0  0  0  0  0
  -27.2570  -27.2910   20.2350 C   0  0  0  0  0  0  0  0  0  0  0  0
  -23.4350  -30.4970   21.5960 C   0  0  0  0  0  3  0  0  0  0  0  0
  -24.8980  -28.9260   20.1970 C   0  0  0  0  0  0  0  0  0  0  0  0
  -25.9770  -30.8080   21.4270 C   0  0  0  0  0  2  0  0  0  0  0  0
  -26.0660  -29.4180   20.7970 C   0  0  0  0  0  0  0  0  0  0  0  0
  -27.2530  -28.6160   20.7950 C   0  0  0  0  0  3  0  0  0  0  0  0
  -26.0670  -26.8590   19.6220 C   0  0  0  0  0  3  0  0  0  0  0  0
  -24.9030  -27.6550   19.5980 C   0  0  0  0  0  3  0  0  0  0  0  0
  -23.6610  -29.8060   20.2250 C   0  0  0  0  0  2  0  0  0  0  0  0
  -24.6980  -31.0910   22.1430 N   0  0  0  0  0  0  0  0  0  0  0  0
  -23.5350  -32.1870   23.7610 O   0  0  0  0  0  0  0  0  0  0  0  0
  -22.7650  -29.4890   22.5610 C   0  0  0  0  0  0  0  0  0  0  0  0
  -21.4380  -29.3140   22.4310 N   0  0  0  0  0  0  0  0  0  0  0  0
  -23.4390  -28.8680   23.3870 O   0  0  0  0  0  0  0  0  0  0  0  0
  -20.9560  -29.8680   21.7390 H   0  0  0  0  0  0  0  0  0  0  0  0
  -18.0570  -28.1240   22.9310 C   0  0  0  0  0  0  0  0  0  0  0  0
  -20.6150  -28.3780   23.2000 C   0  0  0  0  0  3  0  0  0  0  0  0
  -20.7130  -26.9470   22.6250 C   0  0  0  0  0  2  0  0  0  0  0  0
  -19.6110  -26.6270   21.6100 C   0  0  0  0  0  2  0  0  0  0  0  0
  -18.2310  -26.7750   22.2540 C   0  0  0  0  0  2  0  0  0  0  0  0
  -19.1770  -28.8840   23.3600 C   0  0  0  0  0  0  0  0  0  0  0  0
  -18.9610  -30.1460   23.9550 C   0  0  0  0  0  3  0  0  0  0  0  0
  -17.6570  -30.6510   24.1200 C   0  0  0  0  0  3  0  0  0  0  0  0
  -16.5510  -29.8890   23.7040 C   0  0  0  0  0  3  0  0  0  0  0  0
  -16.7520  -28.6270   23.1180 C   0  0  0  0  0  3  0  0  0  0  0  0
  -25.8990  -32.5490   23.8670 C   0  0  0  0  0  3  0  0  0  0  0  0
  -26.4100  -31.7840   25.1490 C   0  0  1  0  0  0  0  0  0  0  0  0
  -25.3110  -31.5440   26.2140 C   0  0  0  0  0  1  0  0  0  0  0  0
  -26.9980  -30.4080   24.7650 C   0  0  0  0  0  1  0  0  0  0  0  0
  -27.5570  -32.5820   25.8140 C   0  0  0  0  0  1  0  0  0  0  0  0
  -25.5830  -33.9480   24.1930 N   0  0  0  0  0  0  0  0  0  0  0  0
  -25.9220  -35.0020   23.4370 C   0  0  0  0  0  0  0  0  0  0  0  0
  -26.5990  -34.8970   22.4110 O   0  0  0  0  0  0  0  0  0  0  0  0
  -24.9820  -34.1030   24.9900 H   0  0  0  0  0  0  0  0  0  0  0  0
  -24.1990  -36.7970   23.0630 C   0  0  0  0  0  1  0  0  0  0  0  0
  -25.4310  -36.3910   23.8890 C   0  0  0  0  0  3  0  0  0  0  0  0
  -27.5580  -37.2760   24.7410 C   0  0  0  0  0  1  0  0  0  0  0  0
  -26.4670  -37.4420   23.7850 N   0  0  0  0  0  0  0  0  0  0  0  0
  -26.0620  -38.3650   23.9220 H   0  0  0  0  0  0  0  0  0  0  0  0
  -29.1480  -17.0580   20.6620 C   0  0  0  0  0  2  0  0  0  0  0  0
  -30.5900  -14.8010   20.2000 C   0  0  0  0  0  0  0  0  0  0  0  0
  -30.2880  -12.5360   19.1840 C   0  0  0  0  0  2  0  0  0  0  0  0
  -29.3250  -12.5800   17.9790 C   0  0  0  0  0  2  0  0  0  0  0  0
  -27.8730  -12.3950   18.4560 C   0  0  0  0  0  2  0  0  0  0  0  0
  -27.5240  -13.3040   19.6650 C   0  0  0  0  0  3  0  0  0  0  0  0
  -28.6140  -13.2790   20.7570 C   0  0  0  0  0  2  0  0  0  0  0  0
  -29.8750  -13.6270   20.1010 N   0  0  0  0  0  0  0  0  0  0  0  0
  -31.7950  -14.7700   19.9540 O   0  0  0  0  0  0  0  0  0  0  0  0
  -29.9980  -16.0310   19.9290 N   0  0  0  0  0  0  0  0  0  0  0  0
  -30.6510  -16.5410   19.3530 H   0  0  0  0  0  0  0  0  0  0  0  0
  -25.1590  -13.8770   20.4570 C   0  0  0  0  0  0  0  0  0  0  0  0
  -24.1060  -13.0960   20.8430 C   0  0  0  0  0  0  0  0  0  0  0  0
  -24.5760  -11.7470   20.8030 C   0  0  0  0  0  0  0  0  0  0  0  0
  -26.2010  -13.0050   20.1970 N   0  0  0  0  0  0  0  0  0  0  0  0
  -25.8610  -11.7180   20.4710 N   0  0  0  0  0  0  0  0  0  0  0  0
  -23.8610  -10.4800   21.0020 C   0  0  0  0  0  0  0  0  0  0  0  0
  -24.3100   -9.5130   21.9280 C   0  0  0  0  0  3  0  0  0  0  0  0
  -23.5900   -8.3130   22.1150 C   0  0  0  0  0  3  0  0  0  0  0  0
  -22.4090   -8.0700   21.3760 C   0  0  0  0  0  0  0  0  0  0  0  0
  -21.9800   -9.0240   20.4370 C   0  0  0  0  0  3  0  0  0  0  0  0
  -22.7000  -10.2160   20.2470 C   0  0  0  0  0  3  0  0  0  0  0  0
  -21.6590   -6.9220   21.4750 O   0  0  0  0  0  0  0  0  0  0  0  0
  -21.6250   -6.1830   22.6290 C   0  0  0  0  0  0  0  0  0  0  0  0
  -21.1970   -6.7350   23.8570 C   0  0  0  0  0  3  0  0  0  0  0  0
  -21.1100   -5.9190   25.0020 C   0  0  0  0  0  3  0  0  0  0  0  0
  -21.4400   -4.5530   24.9220 C   0  0  0  0  0  0  0  0  0  0  0  0
  -21.8620   -4.0010   23.7000 C   0  0  0  0  0  3  0  0  0  0  0  0
  -21.9500   -4.8130   22.5560 C   0  0  0  0  0  0  0  0  0  0  0  0
  -22.3360   -4.2710   21.3760 F   0  0  0  0  0  0  0  0  0  0  0  0
  -21.3500   -3.7680   26.0220 F   0  0  0  0  0  0  0  0  0  0  0  0
  -22.7110  -13.5650   21.1390 C   0  0  0  0  0  0  0  0  0  0  0  0
  -22.0030  -12.8610   22.0140 N   0  0  0  0  0  0  0  0  0  0  0  0
  -22.2600  -14.5900   20.6290 O   0  0  0  0  0  0  0  0  0  0  0  0
  -22.3820  -12.0300   22.4440 H   0  0  0  0  0  0  0  0  0  0  0  0
  -21.0670  -13.1550   22.2600 H   0  0  0  0  0  0  0  0  0  0  0  0
  -25.3160  -15.2480   20.2770 N   0  0  0  0  0  0  0  0  0  0  0  0
  -24.5520  -15.9020   20.4050 H   0  0  0  0  0  0  0  0  0  0  0  0
  -26.1560  -15.6810   19.9180 H   0  0  0  0  0  0  0  0  0  0  0  0
  1  3  2  0
  1  4  1  0
  2  6  2  0
  3  2  1  0
  4  5  2  0
  5  6  1  0
  5  7  1  0
  6  8  1  0
  9 10  1  0
  9  3  1  0
 10 11  1  0
 12 14  1  0
 12 11  1  0
 13 24  2  0
 14 19  1  0
 15 23  1  0
 15 25  1  0
 16 22  1  0
 16 18  1  0
 17 23  1  0
 18 17  1  0
 19 18  2  0
 20 14  2  0
 21 20  1  0
 21 16  2  0
 22 15  1  0
 23 13  1  0
 25 27  2  0
 26 25  1  0
 28 26  1  0
 29 38  2  0
 29 34  1  0
 30 26  1  0
 30 34  1  0
 31 30  1  0
 32 33  1  0
 32 31  1  0
 33 29  1  0
 34 35  2  0
 35 36  1  0
 37 36  2  0
 38 37  1  0
 39 13  1  0
 39 44  1  0
 39 40  1  0
 40 43  1  1
 40 41  1  0
 42 40  1  0
 44 47  1  0
 45 49  1  0
 45 44  1  0
 46 45  2  0
 49 48  1  0
 51 49  1  0
 51 52  1  0
 51 50  1  0
 53  4  1  0
 55 60  1  0
 56 57  1  0
 56 55  1  0
 58 57  1  0
 58 67  1  0
 58 59  1  0
 60 54  1  0
 60 59  1  0
 61 54  2  0
 62 54  1  0
 62 53  1  0
 63 62  1  0
 64 65  2  0
 65 84  1  0
 66 65  1  0
 66 69  1  0
 67 64  1  0
 67 68  1  0
 68 66  2  0
 69 70  1  0
 70 71  2  0
 72 75  1  0
 72 71  1  0
 73 72  2  0
 74 73  1  0
 74 69  2  0
 75 76  1  0
 76 77  1  0
 77 78  2  0
 79 78  1  0
 79 83  1  0
 80 79  2  0
 81 76  2  0
 81 80  1  0
 82 81  1  0
 84 85  1  0
 85 88  1  0
 85 87  1  0
 86 84  2  0
 89 90  1  0
 89 64  1  0
 91 89  1  0
M  ISO  4  11 101  12 101  54 100  62 100
M  END
>  <TORSDO>  (91) 
F 20

>  <SCORE>  (91) 
-13.891

>  <name>  (91) 
90

>  <ligand_id>  (91) 
90

>  <original_smiles>  (91) 
[H]c1c([H])c([H])c2c(c1[H])C([H])([H])C([H])([H])C([H])([H])C2([H])N([H])C(=O)C1([H])N(C(=O)C([H])(N([H])C(=O)C([H])(N([H])C([H])([H])[H])C([H])([H])[H])C(C([H])([H])[H])(C([H])([H])[H])C([H])([H])[H])C([H])([H])c2c([H])c(OC([H])([H])C([H])([H])C([H])([H])c3c([H])c(Cl)c(C([H])([H])[H])c(C([H])([H])N([H])C(=O)N4C([H])([H])C([H])([H])C([H])([H])C([H])(n5nc(-c6c([H])c([H])c(Oc7c([H])c([H])c(F)c([H])c7F)c([H])c6[H])c(C(=O)N([H])[H])c5N([H])[H])C4([H])[H])c3[H])c([H])c([H])c2C1([H])[H]

>  <smiles>  (91) 
[H]c1c([H])c([H])c2c(c1[H])C([H])([H])C([H])([H])C([H])([H])C2([H])N([H])C(=O)C1([H])N(C(=O)C([H])(N([H])C(=O)C([H])(N([H])C([H])([H])[H])C([H])([H])[H])C(C([H])([H])[H])(C([H])([H])[H])C([H])([H])[H])C([H])([H])c2c([H])c(OC([H])([H])C([H])([H])C([H])([H])c3c([H])c(Cl)c(C([H])([H])[H])c(C([H])([H])N([H])C(=O)N4C([H])([H])C([H])([H])C([H])([H])C([H])(n5nc(-c6c([H])c([H])c(Oc7c([H])c([H])c(F)c([H])c7F)c([H])c6[H])c(C(=O)N([H])[H])c5N([H])[H])C4([H])[H])c3[H])c([H])c([H])c2C1([H])[H]

$$$$
92:0:0
     RDKit          3D

 91 99  0  0  1  0  0  0  0  0999 V2000
  -29.4350  -21.3210   19.9350 C   0  0  0  0  0  3  0  0  0  0  0  0
  -29.9990  -20.2490   22.0280 C   0  0  0  0  0  3  0  0  0  0  0  0
  -29.7510  -20.1050   20.6550 C   0  0  0  0  0  0  0  0  0  0  0  0
  -29.3600  -22.6430   20.5390 C   0  0  0  0  0  0  0  0  0  0  0  0
  -29.6100  -22.6920   21.9550 C   0  0  0  0  0  0  0  0  0  0  0  0
  -29.9340  -21.4980   22.6670 C   0  0  0  0  0  0  0  0  0  0  0  0
  -29.5210  -23.9870   22.7600 C   0  0  0  0  0  1  0  0  0  0  0  0
  -30.2460  -21.4810   24.3720 Cl  0  0  0  0  0  0  0  0  0  0  0  0
  -29.6970  -18.6280   20.0880 C   0  0  0  0  0  2  0  0  0  0  0  0
  -30.6520  -17.4880   20.6990 C   0  0  0  0  0  2  0  0  0  0  0  0
  -31.0600  -14.9220   20.2610 C   0  0  0  0  0  0  0  0  0  0  0  0
  -30.8420  -12.6460   19.2740 C   0  0  0  0  0  2  0  0  0  0  0  0
  -29.9140  -12.7200   18.0420 C   0  0  0  0  0  2  0  0  0  0  0  0
  -28.4350  -12.5860   18.4580 C   0  0  0  0  0  2  0  0  0  0  0  0
  -28.0670  -13.5000   19.6550 C   0  0  0  0  0  3  0  0  0  0  0  0
  -29.1090  -13.3970   20.7890 C   0  0  0  0  0  2  0  0  0  0  0  0
  -30.4220  -13.7090   20.2080 N   0  0  0  0  0  0  0  0  0  0  0  0
  -32.2470  -15.0310   19.9370 O   0  0  0  0  0  0  0  0  0  0  0  0
  -30.2810  -16.0300   20.5070 N   0  0  0  0  0  0  0  0  0  0  0  0
  -29.3140  -15.8120   20.6960 H   0  0  0  0  0  0  0  0  0  0  0  0
  -25.6980  -14.1650   20.3900 C   0  0  0  0  0  0  0  0  0  0  0  0
  -24.6020  -13.4220   20.7360 C   0  0  0  0  0  0  0  0  0  0  0  0
  -25.0160  -12.0560   20.6730 C   0  0  0  0  0  0  0  0  0  0  0  0
  -26.7090  -13.2530   20.1330 N   0  0  0  0  0  0  0  0  0  0  0  0
  -26.3060  -11.9790   20.3670 N   0  0  0  0  0  0  0  0  0  0  0  0
  -24.2440  -10.8160   20.8320 C   0  0  0  0  0  0  0  0  0  0  0  0
  -24.6300   -9.8190   21.7540 C   0  0  0  0  0  3  0  0  0  0  0  0
  -23.8620   -8.6440   21.9020 C   0  0  0  0  0  3  0  0  0  0  0  0
  -22.6940   -8.4570   21.1240 C   0  0  0  0  0  0  0  0  0  0  0  0
  -22.3270   -9.4430   20.1910 C   0  0  0  0  0  3  0  0  0  0  0  0
  -23.0940  -10.6100   20.0430 C   0  0  0  0  0  3  0  0  0  0  0  0
  -21.9010   -7.3360   21.1790 O   0  0  0  0  0  0  0  0  0  0  0  0
  -21.7850   -6.5910   22.3250 C   0  0  0  0  0  0  0  0  0  0  0  0
  -21.3320   -7.1570   23.5360 C   0  0  0  0  0  3  0  0  0  0  0  0
  -21.1630   -6.3410   24.6720 C   0  0  0  0  0  3  0  0  0  0  0  0
  -21.4370   -4.9630   24.5970 C   0  0  0  0  0  0  0  0  0  0  0  0
  -21.8820   -4.3970   23.3890 C   0  0  0  0  0  3  0  0  0  0  0  0
  -22.0540   -5.2090   22.2540 C   0  0  0  0  0  0  0  0  0  0  0  0
  -22.4640   -4.6570   21.0870 F   0  0  0  0  0  0  0  0  0  0  0  0
  -21.2660   -4.1770   25.6850 F   0  0  0  0  0  0  0  0  0  0  0  0
  -23.2220  -13.9420   21.0170 C   0  0  0  0  0  0  0  0  0  0  0  0
  -22.4760  -13.2550   21.8740 N   0  0  0  0  0  0  0  0  0  0  0  0
  -22.8170  -14.9880   20.5130 O   0  0  0  0  0  0  0  0  0  0  0  0
  -22.8180  -12.4050   22.2980 H   0  0  0  0  0  0  0  0  0  0  0  0
  -21.5490  -13.5830   22.1100 H   0  0  0  0  0  0  0  0  0  0  0  0
  -25.9120  -15.5320   20.2450 N   0  0  0  0  0  0  0  0  0  0  0  0
  -25.1660  -16.2090   20.3430 H   0  0  0  0  0  0  0  0  0  0  0  0
  -26.7700  -15.9440   19.9030 H   0  0  0  0  0  0  0  0  0  0  0  0
  -29.0130  -23.9210   19.6220 C   0  0  0  0  0  3  0  0  0  0  0  0
  -28.5770  -25.3770   20.1900 C   0  0  0  0  0  3  0  0  0  0  0  0
  -28.5400  -26.6330   19.3860 O   0  0  0  0  0  0  0  0  0  0  0  0
  -24.7020  -31.6480   22.9800 C   0  0  0  0  0  0  0  0  0  0  0  0
  -27.3910  -27.4360   19.5000 C   0  0  0  0  0  0  0  0  0  0  0  0
  -23.4890  -30.2850   21.3190 C   0  0  0  0  0  3  0  0  0  0  0  0
  -24.9430  -28.9040   19.7260 C   0  0  0  0  0  0  0  0  0  0  0  0
  -25.9940  -30.7550   21.0250 C   0  0  0  0  0  2  0  0  0  0  0  0
  -26.1170  -29.4240   20.2900 C   0  0  0  0  0  0  0  0  0  0  0  0
  -27.3440  -28.6980   20.1700 C   0  0  0  0  0  3  0  0  0  0  0  0
  -26.1950  -26.9780   18.9080 C   0  0  0  0  0  3  0  0  0  0  0  0
  -24.9840  -27.6860   19.0310 C   0  0  0  0  0  3  0  0  0  0  0  0
  -23.6660  -29.7050   19.8910 C   0  0  0  0  0  2  0  0  0  0  0  0
  -24.7520  -30.9100   21.8330 N   0  0  0  0  0  0  0  0  0  0  0  0
  -23.6360  -31.8310   23.5840 O   0  0  0  0  0  0  0  0  0  0  0  0
  -22.9340  -29.1770   22.2430 C   0  0  0  0  0  0  0  0  0  0  0  0
  -21.6270  -28.8900   22.1270 N   0  0  0  0  0  0  0  0  0  0  0  0
  -23.6780  -28.5760   23.0240 O   0  0  0  0  0  0  0  0  0  0  0  0
  -21.0820  -29.4360   21.4740 H   0  0  0  0  0  0  0  0  0  0  0  0
  -18.3950  -27.3140   22.5520 C   0  0  0  0  0  0  0  0  0  0  0  0
  -20.9050  -27.8550   22.8700 C   0  0  0  0  0  3  0  0  0  0  0  0
  -21.1750  -26.4540   22.2750 C   0  0  0  0  0  2  0  0  0  0  0  0
  -20.1330  -26.0260   21.2380 C   0  0  0  0  0  2  0  0  0  0  0  0
  -18.7330  -26.0040   21.8590 C   0  0  0  0  0  2  0  0  0  0  0  0
  -19.4160  -28.1890   23.0120 C   0  0  0  0  0  0  0  0  0  0  0  0
  -19.0480  -29.4050   23.6250 C   0  0  0  0  0  3  0  0  0  0  0  0
  -17.6960  -29.7560   23.7790 C   0  0  0  0  0  3  0  0  0  0  0  0
  -16.6890  -28.8800   23.3360 C   0  0  0  0  0  3  0  0  0  0  0  0
  -17.0400  -27.6620   22.7280 C   0  0  0  0  0  3  0  0  0  0  0  0
  -25.9800  -32.3140   23.5810 C   0  0  0  0  0  3  0  0  0  0  0  0
  -26.6000  -31.5000   24.7820 C   0  0  1  0  0  0  0  0  0  0  0  0
  -25.5750  -31.1440   25.8870 C   0  0  0  0  0  1  0  0  0  0  0  0
  -27.2280  -30.1800   24.2780 C   0  0  0  0  0  1  0  0  0  0  0  0
  -27.7430  -32.3160   25.4300 C   0  0  0  0  0  1  0  0  0  0  0  0
  -25.6100  -33.6700   24.0160 N   0  0  0  0  0  0  0  0  0  0  0  0
  -25.8620  -34.7870   23.3240 C   0  0  0  0  0  0  0  0  0  0  0  0
  -26.4970  -34.7880   22.2660 O   0  0  0  0  0  0  0  0  0  0  0  0
  -25.0380  -33.7400   24.8440 H   0  0  0  0  0  0  0  0  0  0  0  0
  -24.0330  -36.5100   23.1510 C   0  0  0  0  0  1  0  0  0  0  0  0
  -25.3200  -36.1150   23.8910 C   0  0  0  0  0  3  0  0  0  0  0  0
  -27.4350  -37.0500   24.7160 C   0  0  0  0  0  1  0  0  0  0  0  0
  -26.2950  -37.2240   23.8210 N   0  0  0  0  0  0  0  0  0  0  0  0
  -25.8510  -38.1110   24.0440 H   0  0  0  0  0  0  0  0  0  0  0  0
  1  4  2  0
  1  3  1  0
  2  6  1  0
  3  2  2  0
  4  5  1  0
  5  6  2  0
  5  7  1  0
  6  8  1  0
  9  3  1  0
  9 10  1  0
 11 19  1  0
 12 17  1  0
 13 14  1  0
 13 12  1  0
 15 14  1  0
 15 24  1  0
 15 16  1  0
 17 11  1  0
 17 16  1  0
 18 11  2  0
 19 20  1  0
 19 10  1  0
 21 22  2  0
 22 41  1  0
 23 22  1  0
 23 26  1  0
 24 25  1  0
 24 21  1  0
 25 23  2  0
 26 27  1  0
 27 28  2  0
 29 32  1  0
 29 28  1  0
 30 29  2  0
 31 30  1  0
 31 26  2  0
 32 33  1  0
 33 34  1  0
 34 35  2  0
 36 35  1  0
 36 40  1  0
 37 36  2  0
 38 33  2  0
 38 37  1  0
 39 38  1  0
 41 42  1  0
 42 45  1  0
 42 44  1  0
 43 41  2  0
 46 47  1  0
 46 21  1  0
 48 46  1  0
 49 50  2  0
 49  4  1  0
 51 53  1  0
 51 50  1  0
 52 63  2  0
 53 58  1  0
 54 62  1  0
 54 64  1  0
 55 61  1  0
 55 57  1  0
 56 62  1  0
 57 56  1  0
 58 57  2  0
 59 60  1  0
 59 53  2  0
 60 55  2  0
 61 54  1  0
 62 52  1  0
 64 66  2  0
 65 64  1  0
 67 65  1  0
 68 77  2  0
 68 73  1  0
 69 65  1  0
 69 73  1  0
 70 69  1  0
 71 72  1  0
 71 70  1  0
 72 68  1  0
 73 74  2  0
 74 75  1  0
 76 75  2  0
 77 76  1  0
 78 52  1  0
 78 83  1  0
 78 79  1  0
 79 82  1  1
 79 80  1  0
 81 79  1  0
 83 86  1  0
 84 88  1  0
 84 83  1  0
 85 84  2  0
 88 87  1  0
 90 88  1  0
 90 91  1  0
 90 89  1  0
M  ISO  4  11 100  19 100  50 101  51 101
M  END
>  <TORSDO>  (92) 
F 20

>  <SCORE>  (92) 
-12.800

>  <name>  (92) 
92

>  <ligand_id>  (92) 
92

>  <original_smiles>  (92) 
[H]c1c([H])c([H])c2c(c1[H])C([H])([H])C([H])([H])C([H])([H])C2([H])N([H])C(=O)C1([H])N(C(=O)C([H])(N([H])C(=O)C([H])(N([H])C([H])([H])[H])C([H])([H])[H])C(C([H])([H])[H])(C([H])([H])[H])C([H])([H])[H])C([H])([H])c2c([H])c(OC([H])([H])C([H])([H])c3c([H])c(C([H])([H])C([H])([H])N([H])C(=O)N4C([H])([H])C([H])([H])C([H])([H])C([H])(n5nc(-c6c([H])c([H])c(Oc7c([H])c([H])c(F)c([H])c7F)c([H])c6[H])c(C(=O)N([H])[H])c5N([H])[H])C4([H])[H])c([H])c(Cl)c3C([H])([H])[H])c([H])c([H])c2C1([H])[H]

>  <smiles>  (92) 
[H]c1c([H])c([H])c2c(c1[H])C([H])([H])C([H])([H])C([H])([H])C2([H])N([H])C(=O)C1([H])N(C(=O)C([H])(N([H])C(=O)C([H])(N([H])C([H])([H])[H])C([H])([H])[H])C(C([H])([H])[H])(C([H])([H])[H])C([H])([H])[H])C([H])([H])c2c([H])c(OC([H])([H])C([H])([H])c3c([H])c(C([H])([H])C([H])([H])N([H])C(=O)N4C([H])([H])C([H])([H])C([H])([H])C([H])(n5nc(-c6c([H])c([H])c(Oc7c([H])c([H])c(F)c([H])c7F)c([H])c6[H])c(C(=O)N([H])[H])c5N([H])[H])C4([H])[H])c([H])c(Cl)c3C([H])([H])[H])c([H])c([H])c2C1([H])[H]

$$$$
93:0:0
     RDKit          3D

 93101  0  0  1  0  0  0  0  0999 V2000
  -30.1230  -21.6330   20.2400 C   0  0  0  0  0  2  0  0  0  0  0  0
  -29.2640  -19.2950   19.3810 C   0  0  0  0  0  3  0  0  0  0  0  0
  -30.5230  -19.3520   21.4290 C   0  0  0  0  0  3  0  0  0  0  0  0
  -29.9160  -20.0770   20.3680 C   0  0  0  0  0  0  0  0  0  0  0  0
  -29.2190  -17.8650   19.4450 C   0  0  0  0  0  0  0  0  0  0  0  0
  -29.8550  -17.1480   20.5050 C   0  0  0  0  0  0  0  0  0  0  0  0
  -30.4960  -17.9310   21.5030 C   0  0  0  0  0  0  0  0  0  0  0  0
  -28.4700  -17.1230   18.3480 C   0  0  0  0  0  1  0  0  0  0  0  0
  -31.2350  -17.1620   22.8630 Cl  0  0  0  0  0  0  0  0  0  0  0  0
  -30.5380  -14.6710   20.3690 C   0  0  0  0  0  0  0  0  0  0  0  0
  -30.3380  -12.4390   19.3020 C   0  0  0  0  0  2  0  0  0  0  0  0
  -29.3780  -12.5750   18.0980 C   0  0  0  0  0  2  0  0  0  0  0  0
  -27.9090  -12.4100   18.5450 C   0  0  0  0  0  2  0  0  0  0  0  0
  -27.5650  -13.2670   19.7910 C   0  0  0  0  0  3  0  0  0  0  0  0
  -28.6350  -13.0960   20.8920 C   0  0  0  0  0  2  0  0  0  0  0  0
  -29.9380  -13.4430   20.3030 N   0  0  0  0  0  0  0  0  0  0  0  0
  -31.7020  -14.8460   20.0000 O   0  0  0  0  0  0  0  0  0  0  0  0
  -29.6940  -15.7080   20.6570 N   0  0  0  0  0  0  0  0  0  0  0  0
  -28.7590  -15.4080   20.8840 H   0  0  0  0  0  0  0  0  0  0  0  0
  -25.1760  -13.8680   20.5260 C   0  0  0  0  0  0  0  0  0  0  0  0
  -24.1140  -13.0930   20.9060 C   0  0  0  0  0  0  0  0  0  0  0  0
  -24.5770  -11.7430   20.8690 C   0  0  0  0  0  0  0  0  0  0  0  0
  -26.2210  -12.9890   20.2860 N   0  0  0  0  0  0  0  0  0  0  0  0
  -25.8660  -11.7060   20.5520 N   0  0  0  0  0  0  0  0  0  0  0  0
  -23.8540  -10.4790   21.0610 C   0  0  0  0  0  0  0  0  0  0  0  0
  -24.3000   -9.5060   21.9820 C   0  0  0  0  0  3  0  0  0  0  0  0
  -23.5780   -8.3070   22.1610 C   0  0  0  0  0  3  0  0  0  0  0  0
  -22.3970   -8.0720   21.4170 C   0  0  0  0  0  0  0  0  0  0  0  0
  -21.9720   -9.0330   20.4830 C   0  0  0  0  0  3  0  0  0  0  0  0
  -22.6950  -10.2240   20.3030 C   0  0  0  0  0  3  0  0  0  0  0  0
  -21.6450   -6.9260   21.5060 O   0  0  0  0  0  0  0  0  0  0  0  0
  -21.6150   -6.1730   22.6520 C   0  0  0  0  0  0  0  0  0  0  0  0
  -21.2010   -6.7140   23.8880 C   0  0  0  0  0  3  0  0  0  0  0  0
  -21.1190   -5.8870   25.0260 C   0  0  0  0  0  3  0  0  0  0  0  0
  -21.4390   -4.5190   24.9280 C   0  0  0  0  0  0  0  0  0  0  0  0
  -21.8460   -3.9770   23.6960 C   0  0  0  0  0  3  0  0  0  0  0  0
  -21.9300   -4.8020   22.5600 C   0  0  0  0  0  0  0  0  0  0  0  0
  -22.3010   -4.2710   21.3710 F   0  0  0  0  0  0  0  0  0  0  0  0
  -21.3530   -3.7220   26.0180 F   0  0  0  0  0  0  0  0  0  0  0  0
  -22.7180  -13.5680   21.1890 C   0  0  0  0  0  0  0  0  0  0  0  0
  -21.9970  -12.8680   22.0590 N   0  0  0  0  0  0  0  0  0  0  0  0
  -22.2750  -14.5960   20.6760 O   0  0  0  0  0  0  0  0  0  0  0  0
  -22.3690  -12.0380   22.4970 H   0  0  0  0  0  0  0  0  0  0  0  0
  -21.0610  -13.1670   22.2930 H   0  0  0  0  0  0  0  0  0  0  0  0
  -25.3350  -15.2380   20.3400 N   0  0  0  0  0  0  0  0  0  0  0  0
  -24.5490  -15.8750   20.4180 H   0  0  0  0  0  0  0  0  0  0  0  0
  -26.1520  -15.6690   19.9310 H   0  0  0  0  0  0  0  0  0  0  0  0
  -28.9440  -22.5750   20.2400 N   0  0  0  0  0  4  0  0  0  0  0  0
  -28.3480  -22.3230   21.0120 H   0  0  0  0  0  0  0  0  0  0  0  0
  -28.4260  -22.3960   19.3950 H   0  0  0  0  0  0  0  0  0  0  0  0
  -29.2680  -24.0640   20.3220 C   0  0  0  0  0  3  0  0  0  0  0  0
  -28.0820  -25.0750   20.0350 C   0  0  0  0  0  3  0  0  0  0  0  0
  -28.3040  -26.5300   20.2120 O   0  0  0  0  0  0  0  0  0  0  0  0
  -24.6160  -31.9370   23.2530 C   0  0  0  0  0  0  0  0  0  0  0  0
  -27.1820  -27.3740   20.1720 C   0  0  0  0  0  0  0  0  0  0  0  0
  -23.3910  -30.5440   21.6230 C   0  0  0  0  0  3  0  0  0  0  0  0
  -24.8220  -28.9910   20.1860 C   0  0  0  0  0  0  0  0  0  0  0  0
  -25.9300  -30.8520   21.4200 C   0  0  0  0  0  2  0  0  0  0  0  0
  -25.9970  -29.4750   20.7740 C   0  0  0  0  0  0  0  0  0  0  0  0
  -27.1790  -28.6770   20.7580 C   0  0  0  0  0  3  0  0  0  0  0  0
  -25.9790  -26.9440   19.5620 C   0  0  0  0  0  3  0  0  0  0  0  0
  -24.8150  -27.7300   19.5730 C   0  0  0  0  0  3  0  0  0  0  0  0
  -23.5880  -29.8670   20.2430 C   0  0  0  0  0  2  0  0  0  0  0  0
  -24.6640  -31.1290   22.1550 N   0  0  0  0  0  0  0  0  0  0  0  0
  -23.5370  -32.2220   23.7940 O   0  0  0  0  0  0  0  0  0  0  0  0
  -22.7310  -29.5300   22.5890 C   0  0  0  0  0  0  0  0  0  0  0  0
  -21.4030  -29.3560   22.4660 N   0  0  0  0  0  0  0  0  0  0  0  0
  -23.4100  -28.9040   23.4060 O   0  0  0  0  0  0  0  0  0  0  0  0
  -20.9140  -29.9150   21.7820 H   0  0  0  0  0  0  0  0  0  0  0  0
  -18.0210  -28.1740   22.9680 C   0  0  0  0  0  0  0  0  0  0  0  0
  -20.5800  -28.4230   23.2400 C   0  0  0  0  0  3  0  0  0  0  0  0
  -20.6780  -26.9890   22.6700 C   0  0  0  0  0  2  0  0  0  0  0  0
  -19.5740  -26.6650   21.6590 C   0  0  0  0  0  2  0  0  0  0  0  0
  -18.1930  -26.8190   22.3010 C   0  0  0  0  0  2  0  0  0  0  0  0
  -19.1430  -28.9330   23.3950 C   0  0  0  0  0  0  0  0  0  0  0  0
  -18.9290  -30.2010   23.9780 C   0  0  0  0  0  3  0  0  0  0  0  0
  -17.6250  -30.7070   24.1420 C   0  0  0  0  0  3  0  0  0  0  0  0
  -16.5180  -29.9420   23.7350 C   0  0  0  0  0  3  0  0  0  0  0  0
  -16.7170  -28.6790   23.1510 C   0  0  0  0  0  3  0  0  0  0  0  0
  -25.9080  -32.5600   23.8660 C   0  0  0  0  0  3  0  0  0  0  0  0
  -26.4260  -31.7860   25.1390 C   0  0  1  0  0  0  0  0  0  0  0  0
  -25.3400  -31.5570   26.2150 C   0  0  0  0  0  1  0  0  0  0  0  0
  -26.9980  -30.4050   24.7400 C   0  0  0  0  0  1  0  0  0  0  0  0
  -27.5850  -32.5730   25.7940 C   0  0  0  0  0  1  0  0  0  0  0  0
  -25.6100  -33.9600   24.2010 N   0  0  0  0  0  0  0  0  0  0  0  0
  -25.9210  -35.0100   23.4280 C   0  0  0  0  0  0  0  0  0  0  0  0
  -26.5620  -34.9010   22.3780 O   0  0  0  0  0  0  0  0  0  0  0  0
  -25.0460  -34.1200   25.0220 H   0  0  0  0  0  0  0  0  0  0  0  0
  -24.1780  -36.7960   23.1280 C   0  0  0  0  0  1  0  0  0  0  0  0
  -25.4490  -36.4000   23.8940 C   0  0  0  0  0  3  0  0  0  0  0  0
  -27.6110  -37.2950   24.6390 C   0  0  0  0  0  1  0  0  0  0  0  0
  -26.4740  -37.4540   23.7360 N   0  0  0  0  0  0  0  0  0  0  0  0
  -26.0710  -38.3740   23.8900 H   0  0  0  0  0  0  0  0  0  0  0  0
  1  4  1  0
  2  5  2  0
  2  4  1  0
  3  7  1  0
  4  3  2  0
  5  6  1  0
  6 18  1  0
  6  7  2  0
  7  9  1  0
  8  5  1  0
 10 18  1  0
 11 16  1  0
 12 13  1  0
 12 11  1  0
 14 13  1  0
 14 23  1  0
 14 15  1  0
 16 10  1  0
 16 15  1  0
 17 10  2  0
 18 19  1  0
 20 21  2  0
 21 40  1  0
 22 21  1  0
 22 25  1  0
 23 20  1  0
 23 24  1  0
 24 22  2  0
 25 26  1  0
 26 27  2  0
 28 31  1  0
 28 27  1  0
 29 28  2  0
 30 29  1  0
 30 25  2  0
 31 32  1  0
 32 33  1  0
 33 34  2  0
 35 34  1  0
 35 39  1  0
 36 35  2  0
 37 32  2  0
 37 36  1  0
 38 37  1  0
 40 41  1  0
 41 44  1  0
 41 43  1  0
 42 40  2  0
 45 46  1  0
 45 20  1  0
 47 45  1  0
 48  1  1  0
 48 51  1  0
 48 49  1  0
 50 48  1  0
 52 53  1  0
 52 51  2  0
 54 65  2  0
 55 53  1  0
 55 60  1  0
 56 64  1  0
 56 66  1  0
 57 63  1  0
 57 59  1  0
 58 64  1  0
 59 58  1  0
 60 59  2  0
 61 62  1  0
 61 55  2  0
 62 57  2  0
 63 56  1  0
 64 54  1  0
 66 68  2  0
 67 66  1  0
 69 67  1  0
 70 79  2  0
 70 75  1  0
 71 67  1  0
 71 75  1  0
 72 71  1  0
 73 74  1  0
 73 72  1  0
 74 70  1  0
 75 76  2  0
 76 77  1  0
 78 77  2  0
 79 78  1  0
 80 54  1  0
 80 85  1  0
 80 81  1  0
 81 84  1  1
 81 82  1  0
 83 81  1  0
 85 88  1  0
 86 90  1  0
 86 85  1  0
 87 86  2  0
 90 89  1  0
 92 93  1  0
 92 90  1  0
 92 91  1  0
M  ISO  4  10 100  18 100  52 101  53 101
M  END
>  <TORSDO>  (93) 
F 20

>  <SCORE>  (93) 
-13.503

>  <name>  (93) 
93

>  <ligand_id>  (93) 
93

>  <original_smiles>  (93) 
[H]c1c([H])c([H])c2c(c1[H])C([H])([H])C([H])([H])C([H])([H])C2([H])N([H])C(=O)C1([H])N(C(=O)C([H])(N([H])C(=O)C([H])(N([H])C([H])([H])[H])C([H])([H])[H])C(C([H])([H])[H])(C([H])([H])[H])C([H])([H])[H])C([H])([H])c2c([H])c(OC([H])([H])C([H])([H])[N+]([H])([H])C([H])([H])c3c([H])c(Cl)c(N([H])C(=O)N4C([H])([H])C([H])([H])C([H])([H])C([H])(n5nc(-c6c([H])c([H])c(Oc7c([H])c([H])c(F)c([H])c7F)c([H])c6[H])c(C(=O)N([H])[H])c5N([H])[H])C4([H])[H])c(C([H])([H])[H])c3[H])c([H])c([H])c2C1([H])[H]

>  <smiles>  (93) 
[H]c1c([H])c([H])c2c(c1[H])C([H])([H])C([H])([H])C([H])([H])C2([H])N([H])C(=O)C1([H])N(C(=O)C([H])(N([H])C(=O)C([H])(N([H])C([H])([H])[H])C([H])([H])[H])C(C([H])([H])[H])(C([H])([H])[H])C([H])([H])[H])C([H])([H])c2c([H])c(OC([H])([H])C([H])([H])[N+]([H])([H])C([H])([H])c3c([H])c(Cl)c(N([H])C(=O)N4C([H])([H])C([H])([H])C([H])([H])C([H])(n5nc(-c6c([H])c([H])c(Oc7c([H])c([H])c(F)c([H])c7F)c([H])c6[H])c(C(=O)N([H])[H])c5N([H])[H])C4([H])[H])c(C([H])([H])[H])c3[H])c([H])c([H])c2C1([H])[H]

$$$$
94:0:0
     RDKit          3D

 89 97  0  0  1  0  0  0  0  0999 V2000
  -28.2200  -20.4240   20.1820 C   0  0  0  0  0  3  0  0  0  0  0  0
  -30.5170  -20.6780   20.1650 C   0  0  0  0  0  3  0  0  0  0  0  0
  -29.2650  -21.4230   20.1520 C   0  0  0  0  0  0  0  0  0  0  0  0
  -29.6650  -18.2220   20.2670 C   0  0  0  0  0  0  0  0  0  0  0  0
  -28.4050  -18.9570   20.2390 C   0  0  0  0  0  0  0  0  0  0  0  0
  -30.7190  -19.2170   20.2290 C   0  0  0  0  0  0  0  0  0  0  0  0
  -27.2730  -18.2190   20.3190 F   0  0  0  0  0  0  0  0  0  0  0  0
  -32.3500  -18.6610   20.3250 Cl  0  0  0  0  0  0  0  0  0  0  0  0
  -30.0350  -16.5100   22.1590 C   0  0  0  0  0  1  0  0  0  0  0  0
  -29.7550  -16.5510   20.6450 C   0  0  0  0  0  3  0  0  0  0  0  0
  -30.5200  -15.1530   20.0050 C   0  0  0  0  0  0  0  0  0  0  0  0
  -30.3850  -12.7870   18.9700 C   0  0  0  0  0  2  0  0  0  0  0  0
  -29.3830  -12.7540   17.7880 C   0  0  0  0  0  2  0  0  0  0  0  0
  -27.9430  -12.5260   18.2870 C   0  0  0  0  0  2  0  0  0  0  0  0
  -27.6080  -13.4080   19.5150 C   0  0  0  0  0  3  0  0  0  0  0  0
  -28.7240  -13.3840   20.5800 C   0  0  0  0  0  2  0  0  0  0  0  0
  -29.9560  -13.8580   19.9300 N   0  0  0  0  0  0  0  0  0  0  0  0
  -31.6720  -15.2220   19.5550 O   0  0  0  0  0  0  0  0  0  0  0  0
  -25.2730  -13.9840   20.3810 C   0  0  0  0  0  0  0  0  0  0  0  0
  -24.2240  -13.2100   20.7920 C   0  0  0  0  0  0  0  0  0  0  0  0
  -24.6780  -11.8570   20.7230 C   0  0  0  0  0  0  0  0  0  0  0  0
  -26.2980  -13.1040   20.0770 N   0  0  0  0  0  0  0  0  0  0  0  0
  -25.9530  -11.8170   20.3490 N   0  0  0  0  0  0  0  0  0  0  0  0
  -23.9520  -10.5970   20.9340 C   0  0  0  0  0  0  0  0  0  0  0  0
  -24.4090   -9.6240   21.8510 C   0  0  0  0  0  3  0  0  0  0  0  0
  -23.6800   -8.4320   22.0510 C   0  0  0  0  0  3  0  0  0  0  0  0
  -22.4800   -8.2040   21.3340 C   0  0  0  0  0  0  0  0  0  0  0  0
  -22.0420   -9.1660   20.4060 C   0  0  0  0  0  3  0  0  0  0  0  0
  -22.7730  -10.3490   20.2060 C   0  0  0  0  0  3  0  0  0  0  0  0
  -21.7210   -7.0640   21.4450 O   0  0  0  0  0  0  0  0  0  0  0  0
  -21.6850   -6.3340   22.6050 C   0  0  0  0  0  0  0  0  0  0  0  0
  -21.2870   -6.9050   23.8340 C   0  0  0  0  0  3  0  0  0  0  0  0
  -21.1960   -6.1010   24.9880 C   0  0  0  0  0  3  0  0  0  0  0  0
  -21.4930   -4.7270   24.9150 C   0  0  0  0  0  0  0  0  0  0  0  0
  -21.8840   -4.1560   23.6900 C   0  0  0  0  0  3  0  0  0  0  0  0
  -21.9760   -4.9570   22.5400 C   0  0  0  0  0  0  0  0  0  0  0  0
  -22.3330   -4.3960   21.3590 F   0  0  0  0  0  0  0  0  0  0  0  0
  -21.3980   -3.9530   26.0210 F   0  0  0  0  0  0  0  0  0  0  0  0
  -22.8460  -13.6930   21.1370 C   0  0  0  0  0  0  0  0  0  0  0  0
  -22.1600  -13.0020   22.0390 N   0  0  0  0  0  0  0  0  0  0  0  0
  -22.3880  -14.7220   20.6390 O   0  0  0  0  0  0  0  0  0  0  0  0
  -22.5430  -12.1690   22.4610 H   0  0  0  0  0  0  0  0  0  0  0  0
  -21.2380  -13.3110   22.3140 H   0  0  0  0  0  0  0  0  0  0  0  0
  -25.4340  -15.3560   20.2130 N   0  0  0  0  0  0  0  0  0  0  0  0
  -24.6800  -16.0080   20.3910 H   0  0  0  0  0  0  0  0  0  0  0  0
  -26.2700  -15.8110   19.8710 H   0  0  0  0  0  0  0  0  0  0  0  0
  -29.2130  -23.1330   20.0010 C   0  0  0  0  0  3  0  0  0  0  0  0
  -28.0740  -24.4180   20.3030 C   0  0  0  0  0  3  0  0  0  0  0  0
  -28.2810  -26.0170   20.2270 O   0  0  0  0  0  0  0  0  0  0  0  0
  -24.6100  -31.8340   23.1740 C   0  0  0  0  0  0  0  0  0  0  0  0
  -27.2210  -27.0340   20.1900 C   0  0  0  0  0  0  0  0  0  0  0  0
  -23.4260  -30.4180   21.5460 C   0  0  0  0  0  3  0  0  0  0  0  0
  -24.8890  -28.8260   20.1380 C   0  0  0  0  0  0  0  0  0  0  0  0
  -25.9850  -30.6740   21.3890 C   0  0  0  0  0  2  0  0  0  0  0  0
  -26.0690  -29.2690   20.7470 C   0  0  0  0  0  0  0  0  0  0  0  0
  -27.2330  -28.3930   20.7480 C   0  0  0  0  0  3  0  0  0  0  0  0
  -26.0070  -26.7170   19.5410 C   0  0  0  0  0  3  0  0  0  0  0  0
  -24.8750  -27.5680   19.5180 C   0  0  0  0  0  3  0  0  0  0  0  0
  -23.6580  -29.7280   20.1750 C   0  0  0  0  0  2  0  0  0  0  0  0
  -24.6950  -31.0010   22.0900 N   0  0  0  0  0  0  0  0  0  0  0  0
  -23.5200  -32.1140   23.6990 O   0  0  0  0  0  0  0  0  0  0  0  0
  -22.7490  -29.4160   22.5160 C   0  0  0  0  0  0  0  0  0  0  0  0
  -21.4210  -29.2320   22.3910 N   0  0  0  0  0  0  0  0  0  0  0  0
  -23.4220  -28.8060   23.3510 O   0  0  0  0  0  0  0  0  0  0  0  0
  -20.9310  -29.7760   21.6950 H   0  0  0  0  0  0  0  0  0  0  0  0
  -18.0590  -27.9680   22.8770 C   0  0  0  0  0  0  0  0  0  0  0  0
  -20.6090  -28.2930   23.1700 C   0  0  0  0  0  3  0  0  0  0  0  0
  -20.7490  -26.8520   22.6260 C   0  0  0  0  0  2  0  0  0  0  0  0
  -19.6670  -26.4850   21.6040 C   0  0  0  0  0  2  0  0  0  0  0  0
  -18.2740  -26.6110   22.2270 C   0  0  0  0  0  2  0  0  0  0  0  0
  -19.1550  -28.7640   23.3060 C   0  0  0  0  0  0  0  0  0  0  0  0
  -18.8980  -30.0300   23.8760 C   0  0  0  0  0  3  0  0  0  0  0  0
  -17.5790  -30.5000   24.0220 C   0  0  0  0  0  3  0  0  0  0  0  0
  -16.4980  -29.7030   23.6060 C   0  0  0  0  0  3  0  0  0  0  0  0
  -16.7390  -28.4400   23.0400 C   0  0  0  0  0  3  0  0  0  0  0  0
  -25.8790  -32.4890   23.8000 C   0  0  0  0  0  3  0  0  0  0  0  0
  -26.4030  -31.7270   25.0800 C   0  0  1  0  0  0  0  0  0  0  0  0
  -25.3120  -31.4820   26.1480 C   0  0  0  0  0  1  0  0  0  0  0  0
  -27.0020  -30.3540   24.6980 C   0  0  0  0  0  1  0  0  0  0  0  0
  -27.5460  -32.5360   25.7380 C   0  0  0  0  0  1  0  0  0  0  0  0
  -25.5450  -33.8830   24.1410 N   0  0  0  0  0  0  0  0  0  0  0  0
  -25.8650  -34.9500   23.3980 C   0  0  0  0  0  0  0  0  0  0  0  0
  -26.5340  -34.8670   22.3650 O   0  0  0  0  0  0  0  0  0  0  0  0
  -24.9490  -34.0200   24.9440 H   0  0  0  0  0  0  0  0  0  0  0  0
  -24.1170  -36.7340   23.0740 C   0  0  0  0  0  1  0  0  0  0  0  0
  -25.3650  -36.3300   23.8740 C   0  0  0  0  0  3  0  0  0  0  0  0
  -27.4910  -37.2330   24.7090 C   0  0  0  0  0  1  0  0  0  0  0  0
  -26.3870  -37.3940   23.7670 N   0  0  0  0  0  0  0  0  0  0  0  0
  -25.9720  -38.3100   23.9190 H   0  0  0  0  0  0  0  0  0  0  0  0
  1  5  1  0
  2  6  2  0
  3  2  1  0
  3  1  2  0
  4 10  1  0
  5  4  2  0
  5  7  1  0
  6  4  1  0
  6  8  1  0
 10  9  1  0
 11 10  1  0
 12 17  1  0
 13 14  1  0
 13 12  1  0
 15 14  1  0
 15 22  1  0
 15 16  1  0
 17 11  1  0
 17 16  1  0
 18 11  2  0
 19 20  2  0
 20 39  1  0
 21 20  1  0
 21 24  1  0
 22 23  1  0
 22 19  1  0
 23 21  2  0
 24 25  1  0
 25 26  2  0
 27 30  1  0
 27 26  1  0
 28 27  2  0
 29 28  1  0
 29 24  2  0
 30 31  1  0
 31 32  1  0
 32 33  2  0
 34 33  1  0
 34 38  1  0
 35 34  2  0
 36 31  2  0
 36 35  1  0
 37 36  1  0
 39 40  1  0
 40 43  1  0
 40 42  1  0
 41 39  2  0
 44 19  1  0
 44 45  1  0
 46 44  1  0
 47  3  1  0
 47 48  2  0
 49 48  1  0
 50 61  2  0
 51 49  1  0
 51 56  1  0
 52 60  1  0
 52 62  1  0
 53 59  1  0
 53 55  1  0
 54 60  1  0
 55 56  2  0
 55 54  1  0
 57 51  2  0
 58 57  1  0
 58 53  2  0
 59 52  1  0
 60 50  1  0
 62 64  2  0
 63 62  1  0
 65 63  1  0
 66 75  2  0
 66 71  1  0
 67 63  1  0
 67 71  1  0
 68 67  1  0
 69 70  1  0
 69 68  1  0
 70 66  1  0
 71 72  2  0
 72 73  1  0
 74 73  2  0
 75 74  1  0
 76 50  1  0
 76 81  1  0
 76 77  1  0
 77 80  1  1
 77 78  1  0
 79 77  1  0
 81 84  1  0
 82 86  1  0
 82 81  1  0
 83 82  2  0
 86 85  1  0
 88 86  1  0
 88 89  1  0
 88 87  1  0
M  ISO  4  10 100  11 100  48 101  49 101
M  END
>  <TORSDO>  (94) 
F 19

>  <SCORE>  (94) 
-16.298

>  <name>  (94) 
94

>  <ligand_id>  (94) 
94

>  <original_smiles>  (94) 
[H]c1c([H])c([H])c2c(c1[H])C([H])([H])C([H])([H])C([H])([H])C2([H])N([H])C(=O)C1([H])N(C(=O)C([H])(N([H])C(=O)C([H])(N([H])C([H])([H])[H])C([H])([H])[H])C(C([H])([H])[H])(C([H])([H])[H])C([H])([H])[H])C([H])([H])c2c([H])c(OC([H])([H])C([H])([H])c3c([H])c(F)c(C([H])(C(=O)N4C([H])([H])C([H])([H])C([H])([H])C([H])(n5nc(-c6c([H])c([H])c(Oc7c([H])c([H])c(F)c([H])c7F)c([H])c6[H])c(C(=O)N([H])[H])c5N([H])[H])C4([H])[H])C([H])([H])[H])c(Cl)c3[H])c([H])c([H])c2C1([H])[H]

>  <smiles>  (94) 
[H]c1c([H])c([H])c2c(c1[H])C([H])([H])C([H])([H])C([H])([H])C2([H])N([H])C(=O)C1([H])N(C(=O)C([H])(N([H])C(=O)C([H])(N([H])C([H])([H])[H])C([H])([H])[H])C(C([H])([H])[H])(C([H])([H])[H])C([H])([H])[H])C([H])([H])c2c([H])c(OC([H])([H])C([H])([H])c3c([H])c(F)c(C([H])(C(=O)N4C([H])([H])C([H])([H])C([H])([H])C([H])(n5nc(-c6c([H])c([H])c(Oc7c([H])c([H])c(F)c([H])c7F)c([H])c6[H])c(C(=O)N([H])[H])c5N([H])[H])C4([H])[H])C([H])([H])[H])c(Cl)c3[H])c([H])c([H])c2C1([H])[H]

$$$$
95:0:0
     RDKit          3D

 98104  0  0  1  0  0  0  0  0999 V2000
  -29.1410  -24.5210   21.6920 C   0  0  0  0  0  1  0  0  0  0  0  0
  -28.8880  -24.7140   18.3300 C   0  0  0  0  0  1  0  0  0  0  0  0
  -29.8000  -26.3900   21.7870 C   0  0  0  0  0  1  0  0  0  0  0  0
  -29.5720  -26.5760   18.3340 C   0  0  0  0  0 15  0  0  0  0  0  0
  -28.7940  -23.6690   19.9770 C   0  0  0  0  0  3  0  0  0  0  0  0
  -30.1850  -27.0650   20.0590 N   0  0  2  0  0  4  0  0  0  0  0  0
  -29.3070  -26.5370   20.0860 H   0  0  0  0  0  0  0  0  0  0  0  0
  -29.6760  -20.8330   20.1690 C   0  0  0  0  0  3  0  0  0  0  0  0
  -28.7500  -21.9650   19.7820 C   0  0  0  0  0  0  0  0  0  0  0  0
  -29.4860  -19.3500   19.9040 C   0  0  0  0  0  0  0  0  0  0  0  0
  -27.3720  -20.0720   18.8540 C   0  0  0  0  0  0  0  0  0  0  0  0
  -28.2770  -19.0610   19.2480 C   0  0  0  0  0  0  0  0  0  0  0  0
  -27.6070  -21.4590   19.0780 C   0  0  0  0  0  0  0  0  0  0  0  0
  -26.0970  -19.6380   18.1370 C   0  0  0  0  0  1  0  0  0  0  0  0
  -27.9820  -17.7670   18.9680 F   0  0  0  0  0  0  0  0  0  0  0  0
  -26.4160  -22.5380   18.4080 Cl  0  0  0  0  0  0  0  0  0  0  0  0
  -30.4700  -18.0180   20.2250 C   0  0  0  0  0  2  0  0  0  0  0  0
  -30.8170  -15.2120   20.2360 C   0  0  0  0  0  0  0  0  0  0  0  0
  -30.6870  -12.8050   19.3930 C   0  0  0  0  0  2  0  0  0  0  0  0
  -29.7720  -12.6730   18.1520 C   0  0  0  0  0  2  0  0  0  0  0  0
  -28.3040  -12.4830   18.5750 C   0  0  0  0  0  2  0  0  0  0  0  0
  -27.8820  -13.4740   19.6900 C   0  0  0  0  0  3  0  0  0  0  0  0
  -28.9180  -13.5630   20.8280 C   0  0  0  0  0  2  0  0  0  0  0  0
  -30.1940  -13.9550   20.2140 N   0  0  0  0  0  0  0  0  0  0  0  0
  -32.0320  -15.2120   20.0070 O   0  0  0  0  0  0  0  0  0  0  0  0
  -30.0820  -16.4510   20.3110 N   0  0  0  0  0  0  0  0  0  0  0  0
  -29.0870  -16.3110   20.4110 H   0  0  0  0  0  0  0  0  0  0  0  0
  -25.5130  -14.1080   20.4110 C   0  0  0  0  0  0  0  0  0  0  0  0
  -24.4260  -13.3610   20.7730 C   0  0  0  0  0  0  0  0  0  0  0  0
  -24.8580  -11.9990   20.7560 C   0  0  0  0  0  0  0  0  0  0  0  0
  -26.5360  -13.2050   20.1850 N   0  0  0  0  0  0  0  0  0  0  0  0
  -26.1520  -11.9310   20.4600 N   0  0  0  0  0  0  0  0  0  0  0  0
  -24.0980  -10.7570   20.9470 C   0  0  0  0  0  0  0  0  0  0  0  0
  -24.4900   -9.7870   21.8940 C   0  0  0  0  0  3  0  0  0  0  0  0
  -23.7310   -8.6100   22.0720 C   0  0  0  0  0  3  0  0  0  0  0  0
  -22.5630   -8.3960   21.3030 C   0  0  0  0  0  0  0  0  0  0  0  0
  -22.1880   -9.3540   20.3450 C   0  0  0  0  0  3  0  0  0  0  0  0
  -22.9490  -10.5220   20.1650 C   0  0  0  0  0  3  0  0  0  0  0  0
  -21.7770   -7.2710   21.3890 O   0  0  0  0  0  0  0  0  0  0  0  0
  -21.6810   -6.5490   22.5510 C   0  0  0  0  0  0  0  0  0  0  0  0
  -21.2530   -7.1370   23.7610 C   0  0  0  0  0  3  0  0  0  0  0  0
  -21.1020   -6.3430   24.9160 C   0  0  0  0  0  3  0  0  0  0  0  0
  -21.3680   -4.9620   24.8600 C   0  0  0  0  0  0  0  0  0  0  0  0
  -21.7870   -4.3720   23.6540 C   0  0  0  0  0  3  0  0  0  0  0  0
  -21.9400   -5.1640   22.5030 C   0  0  0  0  0  0  0  0  0  0  0  0
  -22.3250   -4.5880   21.3380 F   0  0  0  0  0  0  0  0  0  0  0  0
  -21.2140   -4.1960   25.9660 F   0  0  0  0  0  0  0  0  0  0  0  0
  -23.0380  -13.8750   21.0230 C   0  0  0  0  0  0  0  0  0  0  0  0
  -22.2880  -13.2150   21.8980 N   0  0  0  0  0  0  0  0  0  0  0  0
  -22.6300  -14.9000   20.4780 O   0  0  0  0  0  0  0  0  0  0  0  0
  -22.6290  -12.3860   22.3600 H   0  0  0  0  0  0  0  0  0  0  0  0
  -21.3570  -13.5460   22.1090 H   0  0  0  0  0  0  0  0  0  0  0  0
  -25.7070  -15.4740   20.2270 N   0  0  0  0  0  0  0  0  0  0  0  0
  -24.9480  -16.1360   20.3390 H   0  0  0  0  0  0  0  0  0  0  0  0
  -26.5660  -15.9140   19.9200 H   0  0  0  0  0  0  0  0  0  0  0  0
  -31.4510  -26.5540   19.9440 C   0  0  0  0  0  2  0  0  0  0  0  0
  -30.5220  -25.4430   20.0540 C   0  0  0  0  0  2  0  0  0  0  0  0
  -28.4260  -26.0110   20.4090 O   0  0  0  0  0  1  0  0  0  0  0  0
  -24.7410  -31.9310   23.2490 C   0  0  0  0  0  0  0  0  0  0  0  0
  -27.4930  -27.1900   20.3460 C   0  0  0  0  0  0  0  0  0  0  0  0
  -23.6190  -30.4870   21.6030 C   0  0  0  0  0  3  0  0  0  0  0  0
  -25.1410  -28.9330   20.2350 C   0  0  0  0  0  0  0  0  0  0  0  0
  -26.1760  -30.8020   21.4960 C   0  0  0  0  0  2  0  0  0  0  0  0
  -26.3050  -29.4000   20.8580 C   0  0  0  0  0  0  0  0  0  0  0  0
  -27.4940  -28.5550   20.8850 C   0  0  0  0  0  3  0  0  0  0  0  0
  -26.2810  -26.8390   19.7160 C   0  0  0  0  0  3  0  0  0  0  0  0
  -25.1430  -27.6650   19.6470 C   0  0  0  0  0  3  0  0  0  0  0  0
  -23.8940  -29.8050   20.2400 C   0  0  0  0  0  2  0  0  0  0  0  0
  -24.8650  -31.0960   22.1710 N   0  0  0  0  0  0  0  0  0  0  0  0
  -23.6330  -32.1920   23.7460 O   0  0  0  0  0  0  0  0  0  0  0  0
  -22.9360  -29.4740   22.5610 C   0  0  0  0  0  0  0  0  0  0  0  0
  -21.6080  -29.2960   22.4260 N   0  0  0  0  0  0  0  0  0  0  0  0
  -23.6060  -28.8540   23.3920 O   0  0  0  0  0  0  0  0  0  0  0  0
  -21.1220  -29.8470   21.7330 H   0  0  0  0  0  0  0  0  0  0  0  0
  -18.2280  -28.0870   22.9350 C   0  0  0  0  0  0  0  0  0  0  0  0
  -20.7890  -28.3520   23.1930 C   0  0  0  0  0  3  0  0  0  0  0  0
  -20.8900  -26.9240   22.6100 C   0  0  0  0  0  2  0  0  0  0  0  0
  -19.7850  -26.6040   21.5980 C   0  0  0  0  0  2  0  0  0  0  0  0
  -18.4050  -26.7420   22.2490 C   0  0  0  0  0  2  0  0  0  0  0  0
  -19.3470  -28.8490   23.3650 C   0  0  0  0  0  0  0  0  0  0  0  0
  -19.1240  -30.1050   23.9710 C   0  0  0  0  0  3  0  0  0  0  0  0
  -17.8170  -30.6000   24.1480 C   0  0  0  0  0  3  0  0  0  0  0  0
  -16.7130  -29.8330   23.7320 C   0  0  0  0  0  3  0  0  0  0  0  0
  -16.9200  -28.5770   23.1310 C   0  0  0  0  0  3  0  0  0  0  0  0
  -25.9820  -32.6100   23.9010 C   0  0  0  0  0  3  0  0  0  0  0  0
  -26.4790  -31.8710   25.2050 C   0  0  1  0  0  0  0  0  0  0  0  0
  -25.3590  -31.6180   26.2420 C   0  0  0  0  0  1  0  0  0  0  0  0
  -27.1080  -30.5040   24.8530 C   0  0  0  0  0  1  0  0  0  0  0  0
  -27.5870  -32.7040   25.8910 C   0  0  0  0  0  1  0  0  0  0  0  0
  -25.6260  -34.0040   24.2070 N   0  0  0  0  0  0  0  0  0  0  0  0
  -25.9480  -35.0600   23.4470 C   0  0  0  0  0  0  0  0  0  0  0  0
  -26.6420  -34.9630   22.4320 O   0  0  0  0  0  0  0  0  0  0  0  0
  -25.0170  -34.1540   24.9980 H   0  0  0  0  0  0  0  0  0  0  0  0
  -24.1810  -36.8080   23.0500 C   0  0  0  0  0  1  0  0  0  0  0  0
  -25.4200  -36.4420   23.8830 C   0  0  0  0  0  3  0  0  0  0  0  0
  -27.5190  -37.3900   24.7370 C   0  0  0  0  0  1  0  0  0  0  0  0
  -26.4270  -37.5200   23.7760 N   0  0  0  0  0  0  0  0  0  0  0  0
  -25.9960  -38.4300   23.9110 H   0  0  0  0  0  0  0  0  0  0  0  0
  2  5  1  0
  5  1  1  0
  6  7  1  1
  6  3  1  0
  9  5  1  0
  9  8  2  0
 10  8  1  0
 10 17  1  0
 11 13  2  0
 11 12  1  0
 12 10  2  0
 13  9  1  0
 14 11  1  0
 15 12  1  0
 16 13  1  0
 17 26  1  0
 18 26  1  0
 19 24  1  0
 20 21  1  0
 20 19  1  0
 22 21  1  0
 22 31  1  0
 22 23  1  0
 24 18  1  0
 24 23  1  0
 25 18  2  0
 26 27  1  0
 28 29  2  0
 29 48  1  0
 30 29  1  0
 30 33  1  0
 31 28  1  0
 31 32  1  0
 32 30  2  0
 33 34  1  0
 34 35  2  0
 36 39  1  0
 36 35  1  0
 37 36  2  0
 38 37  1  0
 38 33  2  0
 39 40  1  0
 40 41  1  0
 41 42  2  0
 43 42  1  0
 43 47  1  0
 44 43  2  0
 45 40  2  0
 45 44  1  0
 46 45  1  0
 48 49  1  0
 49 52  1  0
 49 51  1  0
 50 48  2  0
 53 54  1  0
 53 28  1  0
 55 53  1  0
 56 57  1  0
 56  6  1  0
 57  6  1  0
 59 70  2  0
 60 58  1  0
 60 65  1  0
 61 69  1  0
 61 71  1  0
 62 68  1  0
 62 64  1  0
 63 69  1  0
 64 65  2  0
 64 63  1  0
 66 60  2  0
 67 66  1  0
 67 62  2  0
 68 61  1  0
 69 59  1  0
 71 73  2  0
 72 71  1  0
 74 72  1  0
 75 84  2  0
 75 80  1  0
 76 72  1  0
 76 80  1  0
 77 76  1  0
 78 79  1  0
 78 77  1  0
 79 75  1  0
 80 81  2  0
 81 82  1  0
 83 82  2  0
 84 83  1  0
 85 59  1  0
 85 90  1  0
 85 86  1  0
 86 89  1  1
 86 87  1  0
 88 86  1  0
 90 93  1  0
 91 95  1  0
 91 90  1  0
 92 91  2  0
 95 94  1  0
 97 95  1  0
 97 98  1  0
 97 96  1  0
M  ISO  4  18 100  26 100  57 101  58 101
M  END
>  <TORSDO>  (95) 
F 20

>  <SCORE>  (95) 
-15.347

>  <name>  (95) 
95

>  <ligand_id>  (95) 
95

>  <original_smiles>  (95) 
[H]c1c([H])c([H])c2c(c1[H])C([H])([H])C([H])([H])C([H])([H])C2([H])N([H])C(=O)C1([H])N(C(=O)C([H])(N([H])C(=O)C([H])(N([H])C([H])([H])[H])C([H])([H])[H])C(C([H])([H])[H])(C([H])([H])[H])C([H])([H])[H])C([H])([H])c2c([H])c(OC([H])([H])C([H])([H])[N+]3([H])C([H])([H])C([H])([H])C([H])(c4c([H])c(C([H])([H])N([H])C(=O)N5C([H])([H])C([H])([H])C([H])([H])C([H])(n6nc(-c7c([H])c([H])c(Oc8c([H])c([H])c(F)c([H])c8F)c([H])c7[H])c(C(=O)N([H])[H])c6N([H])[H])C5([H])[H])c(F)c(C([H])([H])[H])c4Cl)C([H])([H])C3([H])[H])c([H])c([H])c2C1([H])[H]

>  <smiles>  (95) 
[H]c1c([H])c([H])c2c(c1[H])C([H])([H])C([H])([H])C([H])([H])C2([H])N([H])C(=O)C1([H])N(C(=O)C([H])(N([H])C(=O)C([H])(N([H])C([H])([H])[H])C([H])([H])[H])C(C([H])([H])[H])(C([H])([H])[H])C([H])([H])[H])C([H])([H])c2c([H])c(OC([H])([H])C([H])([H])[N+]3([H])C([H])([H])C([H])([H])C([H])(c4c([H])c(C([H])([H])N([H])C(=O)N5C([H])([H])C([H])([H])C([H])([H])C([H])(n6nc(-c7c([H])c([H])c(Oc8c([H])c([H])c(F)c([H])c8F)c([H])c7[H])c(C(=O)N([H])[H])c6N([H])[H])C5([H])[H])c(F)c(C([H])([H])[H])c4Cl)C([H])([H])C3([H])[H])c([H])c([H])c2C1([H])[H]

$$$$
96:0:0
     RDKit          3D

 90 98  0  0  1  0  0  0  0  0999 V2000
  -28.4760  -19.0970   18.9270 C   0  0  0  0  0  3  0  0  0  0  0  0
  -29.1980  -20.5230   20.7450 C   0  0  0  0  0  3  0  0  0  0  0  0
  -29.2060  -19.1530   20.1340 C   0  0  0  0  0  0  0  0  0  0  0  0
  -27.8160  -20.2310   18.3720 C   0  0  0  0  0  0  0  0  0  0  0  0
  -28.5250  -21.7540   20.2100 C   0  0  0  0  0  0  0  0  0  0  0  0
  -27.8450  -21.5180   18.9870 C   0  0  0  0  0  0  0  0  0  0  0  0
  -27.0090  -20.0380   17.0900 C   0  0  0  0  0  1  0  0  0  0  0  0
  -26.9440  -22.8200   18.2770 Cl  0  0  0  0  0  0  0  0  0  0  0  0
  -28.2080  -23.2040   20.9780 C   0  0  0  0  0  2  0  0  0  0  0  0
  -28.7230  -24.8300   20.8240 C   0  0  0  0  0  2  0  0  0  0  0  0
  -28.3460  -26.1990   20.1600 O   0  0  0  0  0  0  0  0  0  0  0  0
  -24.6100  -31.8720   23.2520 C   0  0  0  0  0  0  0  0  0  0  0  0
  -27.2380  -27.1080   20.3210 C   0  0  0  0  0  0  0  0  0  0  0  0
  -23.4320  -30.4530   21.6190 C   0  0  0  0  0  3  0  0  0  0  0  0
  -24.8990  -28.8490   20.2460 C   0  0  0  0  0  0  0  0  0  0  0  0
  -25.9870  -30.7210   21.4700 C   0  0  0  0  0  2  0  0  0  0  0  0
  -26.0750  -29.3120   20.8520 C   0  0  0  0  0  0  0  0  0  0  0  0
  -27.2460  -28.4600   20.8660 C   0  0  0  0  0  3  0  0  0  0  0  0
  -26.0350  -26.7470   19.6830 C   0  0  0  0  0  3  0  0  0  0  0  0
  -24.8920  -27.5790   19.6490 C   0  0  0  0  0  3  0  0  0  0  0  0
  -23.6710  -29.7500   20.2580 C   0  0  0  0  0  2  0  0  0  0  0  0
  -24.6960  -31.0400   22.1680 N   0  0  0  0  0  0  0  0  0  0  0  0
  -23.5180  -32.1550   23.7640 O   0  0  0  0  0  0  0  0  0  0  0  0
  -22.7490  -29.4580   22.5930 C   0  0  0  0  0  0  0  0  0  0  0  0
  -21.4180  -29.3000   22.4640 N   0  0  0  0  0  0  0  0  0  0  0  0
  -23.4120  -28.8280   23.4200 O   0  0  0  0  0  0  0  0  0  0  0  0
  -20.9430  -29.8580   21.7700 H   0  0  0  0  0  0  0  0  0  0  0  0
  -18.0370  -28.0860   22.9710 C   0  0  0  0  0  0  0  0  0  0  0  0
  -20.5950  -28.3590   23.2260 C   0  0  0  0  0  3  0  0  0  0  0  0
  -20.7020  -26.9330   22.6310 C   0  0  0  0  0  2  0  0  0  0  0  0
  -19.5850  -26.6100   21.6330 C   0  0  0  0  0  2  0  0  0  0  0  0
  -18.2190  -26.7280   22.3100 C   0  0  0  0  0  2  0  0  0  0  0  0
  -19.1540  -28.8590   23.3890 C   0  0  0  0  0  0  0  0  0  0  0  0
  -18.9270  -30.1300   23.9670 C   0  0  0  0  0  3  0  0  0  0  0  0
  -17.6180  -30.6210   24.1390 C   0  0  0  0  0  3  0  0  0  0  0  0
  -16.5210  -29.8440   23.7330 C   0  0  0  0  0  3  0  0  0  0  0  0
  -16.7330  -28.5830   23.1550 C   0  0  0  0  0  3  0  0  0  0  0  0
  -25.8780  -32.5220   23.8860 C   0  0  0  0  0  3  0  0  0  0  0  0
  -26.3740  -31.7770   25.1860 C   0  0  1  0  0  0  0  0  0  0  0  0
  -25.2700  -31.5560   26.2440 C   0  0  0  0  0  1  0  0  0  0  0  0
  -26.9640  -30.3930   24.8320 C   0  0  0  0  0  1  0  0  0  0  0  0
  -27.5100  -32.5870   25.8530 C   0  0  0  0  0  1  0  0  0  0  0  0
  -25.5560  -33.9250   24.1930 N   0  0  0  0  0  0  0  0  0  0  0  0
  -25.8980  -34.9730   23.4310 C   0  0  0  0  0  0  0  0  0  0  0  0
  -26.5820  -34.8580   22.4100 O   0  0  0  0  0  0  0  0  0  0  0  0
  -24.9530  -34.0880   24.9860 H   0  0  0  0  0  0  0  0  0  0  0  0
  -24.1760  -36.7700   23.0370 C   0  0  0  0  0  1  0  0  0  0  0  0
  -25.4050  -36.3700   23.8680 C   0  0  0  0  0  3  0  0  0  0  0  0
  -27.5270  -37.2630   24.7230 C   0  0  0  0  0  1  0  0  0  0  0  0
  -26.4410  -37.4220   23.7600 N   0  0  0  0  0  0  0  0  0  0  0  0
  -26.0320  -38.3420   23.8940 H   0  0  0  0  0  0  0  0  0  0  0  0
  -30.0260  -17.7800   20.6420 C   0  0  0  0  0  2  0  0  0  0  0  0
  -30.4700  -15.0310   20.3440 C   0  0  0  0  0  0  0  0  0  0  0  0
  -30.3850  -12.6710   19.3790 C   0  0  0  0  0  2  0  0  0  0  0  0
  -29.4520  -12.6160   18.1490 C   0  0  0  0  0  2  0  0  0  0  0  0
  -27.9870  -12.3990   18.5790 C   0  0  0  0  0  2  0  0  0  0  0  0
  -27.5790  -13.2980   19.7740 C   0  0  0  0  0  3  0  0  0  0  0  0
  -28.6400  -13.3100   20.8920 C   0  0  0  0  0  2  0  0  0  0  0  0
  -29.8890  -13.7610   20.2720 N   0  0  0  0  0  0  0  0  0  0  0  0
  -31.6890  -15.0810   20.1250 O   0  0  0  0  0  0  0  0  0  0  0  0
  -29.6820  -16.2260   20.4520 N   0  0  0  0  0  0  0  0  0  0  0  0
  -28.6940  -16.0370   20.5080 H   0  0  0  0  0  0  0  0  0  0  0  0
  -25.2010  -13.8580   20.5230 C   0  0  0  0  0  0  0  0  0  0  0  0
  -24.1430  -13.0760   20.8930 C   0  0  0  0  0  0  0  0  0  0  0  0
  -24.6150  -11.7280   20.8600 C   0  0  0  0  0  0  0  0  0  0  0  0
  -26.2470  -12.9860   20.2770 N   0  0  0  0  0  0  0  0  0  0  0  0
  -25.9050  -11.7000   20.5480 N   0  0  0  0  0  0  0  0  0  0  0  0
  -23.8940  -10.4620   21.0430 C   0  0  0  0  0  0  0  0  0  0  0  0
  -24.3250   -9.4950   21.9780 C   0  0  0  0  0  3  0  0  0  0  0  0
  -23.6010   -8.2960   22.1540 C   0  0  0  0  0  3  0  0  0  0  0  0
  -22.4330   -8.0550   21.3940 C   0  0  0  0  0  0  0  0  0  0  0  0
  -22.0220   -9.0100   20.4480 C   0  0  0  0  0  3  0  0  0  0  0  0
  -22.7460  -10.2000   20.2700 C   0  0  0  0  0  3  0  0  0  0  0  0
  -21.6830   -6.9090   21.4810 O   0  0  0  0  0  0  0  0  0  0  0  0
  -21.6260   -6.1670   22.6340 C   0  0  0  0  0  0  0  0  0  0  0  0
  -21.1810   -6.7200   23.8550 C   0  0  0  0  0  3  0  0  0  0  0  0
  -21.0740   -5.9040   25.0000 C   0  0  0  0  0  3  0  0  0  0  0  0
  -21.4020   -4.5380   24.9250 C   0  0  0  0  0  0  0  0  0  0  0  0
  -21.8400   -3.9850   23.7090 C   0  0  0  0  0  3  0  0  0  0  0  0
  -21.9500   -4.7960   22.5670 C   0  0  0  0  0  0  0  0  0  0  0  0
  -22.3520   -4.2530   21.3930 F   0  0  0  0  0  0  0  0  0  0  0  0
  -21.2930   -3.7540   26.0220 F   0  0  0  0  0  0  0  0  0  0  0  0
  -22.7430  -13.5450   21.1580 C   0  0  0  0  0  0  0  0  0  0  0  0
  -22.0110  -12.8440   22.0180 N   0  0  0  0  0  0  0  0  0  0  0  0
  -22.3040  -14.5700   20.6400 O   0  0  0  0  0  0  0  0  0  0  0  0
  -22.3770  -12.0160   22.4630 H   0  0  0  0  0  0  0  0  0  0  0  0
  -21.0700  -13.1410   22.2330 H   0  0  0  0  0  0  0  0  0  0  0  0
  -25.3510  -15.2320   20.3470 N   0  0  0  0  0  0  0  0  0  0  0  0
  -24.5710  -15.8710   20.4650 H   0  0  0  0  0  0  0  0  0  0  0  0
  -26.1710  -15.6770   19.9550 H   0  0  0  0  0  0  0  0  0  0  0  0
  1  3  1  0
  3 52  1  0
  3  2  2  0
  4  1  2  0
  4  6  1  0
  5  2  1  0
  5  9  1  0
  6  5  2  0
  7  4  1  0
  8  6  1  0
 10  9  1  0
 11 13  1  0
 11 10  1  0
 12 23  2  0
 13 18  1  0
 14 22  1  0
 14 24  1  0
 15 21  1  0
 15 17  1  0
 16 22  1  0
 17 18  2  0
 17 16  1  0
 19 13  2  0
 20 19  1  0
 20 15  2  0
 21 14  1  0
 22 12  1  0
 24 26  2  0
 25 24  1  0
 27 25  1  0
 28 37  2  0
 28 33  1  0
 29 25  1  0
 29 33  1  0
 30 29  1  0
 31 32  1  0
 31 30  1  0
 32 28  1  0
 33 34  2  0
 34 35  1  0
 36 35  2  0
 37 36  1  0
 38 12  1  0
 38 43  1  0
 38 39  1  0
 39 42  1  1
 39 40  1  0
 41 39  1  0
 43 46  1  0
 44 48  1  0
 44 43  1  0
 45 44  2  0
 48 47  1  0
 50 48  1  0
 50 51  1  0
 50 49  1  0
 53 61  1  0
 54 59  1  0
 55 56  1  0
 55 54  1  0
 57 56  1  0
 57 66  1  0
 57 58  1  0
 59 53  1  0
 59 58  1  0
 60 53  2  0
 61 62  1  0
 61 52  1  0
 63 64  2  0
 64 83  1  0
 65 64  1  0
 65 68  1  0
 66 63  1  0
 66 67  1  0
 67 65  2  0
 68 69  1  0
 69 70  2  0
 71 74  1  0
 71 70  1  0
 72 71  2  0
 73 72  1  0
 73 68  2  0
 74 75  1  0
 75 76  1  0
 76 77  2  0
 78 77  1  0
 78 82  1  0
 79 78  2  0
 80 75  2  0
 80 79  1  0
 81 80  1  0
 83 84  1  0
 84 87  1  0
 84 86  1  0
 85 83  2  0
 88 89  1  0
 88 63  1  0
 90 88  1  0
M  ISO  4  10 101  11 101  53 100  61 100
M  END
>  <TORSDO>  (96) 
F 19

>  <SCORE>  (96) 
-15.178

>  <name>  (96) 
96

>  <ligand_id>  (96) 
96

>  <original_smiles>  (96) 
[H]c1c([H])c([H])c2c(c1[H])C([H])([H])C([H])([H])C([H])([H])C2([H])N([H])C(=O)C1([H])N(C(=O)C([H])(N([H])C(=O)C([H])(N([H])C([H])([H])[H])C([H])([H])[H])C(C([H])([H])[H])(C([H])([H])[H])C([H])([H])[H])C([H])([H])c2c([H])c(OC([H])([H])C([H])([H])c3c([H])c(C([H])([H])N([H])C(=O)N4C([H])([H])C([H])([H])C([H])([H])C([H])(n5nc(-c6c([H])c([H])c(Oc7c([H])c([H])c(F)c([H])c7F)c([H])c6[H])c(C(=O)N([H])[H])c5N([H])[H])C4([H])[H])c([H])c(C([H])([H])[H])c3Cl)c([H])c([H])c2C1([H])[H]

>  <smiles>  (96) 
[H]c1c([H])c([H])c2c(c1[H])C([H])([H])C([H])([H])C([H])([H])C2([H])N([H])C(=O)C1([H])N(C(=O)C([H])(N([H])C(=O)C([H])(N([H])C([H])([H])[H])C([H])([H])[H])C(C([H])([H])[H])(C([H])([H])[H])C([H])([H])[H])C([H])([H])c2c([H])c(OC([H])([H])C([H])([H])c3c([H])c(C([H])([H])N([H])C(=O)N4C([H])([H])C([H])([H])C([H])([H])C([H])(n5nc(-c6c([H])c([H])c(Oc7c([H])c([H])c(F)c([H])c7F)c([H])c6[H])c(C(=O)N([H])[H])c5N([H])[H])C4([H])[H])c([H])c(C([H])([H])[H])c3Cl)c([H])c([H])c2C1([H])[H]

$$$$
97:0:0
     RDKit          3D

 90 91  0  0  1  0  0  0  0  0999 V2000
  -25.8510  -26.1760   18.3740 C   0  0  0  0  0  2  0  0  0  0  0  0
  -25.0170  -27.9290   18.9060 C   0  0  0  0  0  1  0  0  0  0  0  0
  -25.2500  -28.2820   21.3150 C   0  0  0  0  0  2  0  0  0  0  0  0
  -26.6700  -24.6180   19.1180 C   0  0  0  0  0  2  0  0  0  0  0  0
  -26.2280  -27.3420   21.6400 C   0  0  0  0  0  3  0  0  0  0  0  0
  -24.4510  -28.9100   17.8900 C   0  0  0  0  0  1  0  0  0  0  0  0
  -26.7580  -26.0650   19.7770 N   0  0  0  0  0  2  0  0  0  0  0  0
  -27.2030  -28.8810   22.5190 Cl  0  0  0  0  0  0  0  0  0  0  0  0
  -25.2960  -27.4060   22.9090 C   0  0  0  0  0  3  0  0  0  0  0  0
  -26.8060  -26.7230   23.8050 C   0  0  0  0  0  2  0  0  0  0  0  0
  -28.1590  -26.4560   22.9080 O   0  0  0  0  0  0  0  0  0  0  0  0
  -24.4860  -31.3670   22.7800 C   0  0  0  0  0  0  0  0  0  0  0  0
  -28.1050  -26.0420   21.6250 C   0  0  0  0  0  3  0  0  0  0  0  0
  -23.1470  -29.5140   21.3320 C   0  0  0  0  0  3  0  0  0  0  0  0
  -24.4980  -26.3170   20.6190 C   0  0  0  0  0  1  0  0  0  0  0  0
  -26.0190  -30.0700   20.3870 C   0  0  0  0  0  1  0  0  0  0  0  0
  -26.7450  -28.1470   19.8890 C   0  0  0  0  0  1  0  0  0  0  0  0
  -28.1860  -27.4680   20.5540 C   0  0  0  0  0  2  0  0  0  0  0  0
  -26.7140  -24.9590   21.9720 C   0  0  0  0  0  3  0  0  0  0  0  0
  -25.0360  -25.1340   21.5320 C   0  0  0  0  0  3  0  0  0  0  0  0
  -23.0060  -27.6670   20.7350 C   0  0  0  0  0  1  0  0  0  0  0  0
  -24.5900  -30.5070   21.5300 N   0  0  0  0  0  0  0  0  0  0  0  0
  -23.3790  -31.6740   23.2960 O   0  0  0  0  0  0  0  0  0  0  0  0
  -22.3240  -29.2150   22.6120 C   0  0  0  0  0  0  0  0  0  0  0  0
  -20.9930  -29.2190   22.4810 N   0  0  0  0  0  0  0  0  0  0  0  0
  -22.8510  -28.7110   23.6000 O   0  0  0  0  0  0  0  0  0  0  0  0
  -20.5950  -29.6260   21.6470 H   0  0  0  0  0  0  0  0  0  0  0  0
  -17.5630  -28.3710   22.8550 C   0  0  0  0  0  0  0  0  0  0  0  0
  -20.0990  -28.3870   23.2900 C   0  0  0  0  0  3  0  0  0  0  0  0
  -20.0290  -26.9200   22.7970 C   0  0  0  0  0  2  0  0  0  0  0  0
  -19.0740  -26.7500   21.6110 C   0  0  0  0  0  2  0  0  0  0  0  0
  -17.6510  -27.0560   22.0900 C   0  0  0  0  0  2  0  0  0  0  0  0
  -18.7160  -29.0080   23.3870 C   0  0  0  0  0  0  0  0  0  0  0  0
  -18.5910  -30.2530   24.0360 C   0  0  0  0  0  3  0  0  0  0  0  0
  -17.3300  -30.8550   24.1770 C   0  0  0  0  0  3  0  0  0  0  0  0
  -16.1840  -30.2090   23.6800 C   0  0  0  0  0  3  0  0  0  0  0  0
  -16.3010  -28.9710   23.0240 C   0  0  0  0  0  3  0  0  0  0  0  0
  -25.5960  -32.1300   23.7370 C   0  0  0  0  0  3  0  0  0  0  0  0
  -25.8560  -31.6260   25.2680 C   0  0  1  0  0  0  0  0  0  0  0  0
  -24.5990  -31.5790   26.1800 C   0  0  0  0  0  1  0  0  0  0  0  0
  -26.4780  -30.2490   25.3470 C   0  0  0  0  0  1  0  0  0  0  0  0
  -26.9160  -32.5010   26.0050 C   0  0  0  0  0  1  0  0  0  0  0  0
  -25.2160  -33.5750   23.9740 N   0  0  0  0  0  0  0  0  0  0  0  0
  -25.7590  -34.6680   23.4110 C   0  0  0  0  0  0  0  0  0  0  0  0
  -26.5990  -34.5630   22.5210 O   0  0  0  0  0  0  0  0  0  0  0  0
  -24.4690  -33.7170   24.6360 H   0  0  0  0  0  0  0  0  0  0  0  0
  -24.1360  -36.5670   22.9660 C   0  0  0  0  0  1  0  0  0  0  0  0
  -25.3010  -36.0920   23.8510 C   0  0  0  0  0  3  0  0  0  0  0  0
  -27.3850  -36.9750   24.8410 C   0  0  0  0  0  1  0  0  0  0  0  0
  -26.3750  -37.1180   23.7970 N   0  0  0  0  0  0  0  0  0  0  0  0
  -25.9830  -38.0540   23.8640 H   0  0  0  0  0  0  0  0  0  0  0  0
  -27.7470  -22.1440   19.2750 C   0  0  0  0  0 15  0  0  0  0  0  0
  -29.1120  -17.7470   19.7390 C   0  0  0  0  0  2  0  0  0  0  0  0
  -29.9440  -14.7120   19.2150 C   0  0  0  0  0  2  0  0  0  0  0  0
  -29.4400  -13.4350   18.3360 C   0  0  0  0  0  2  0  0  0  0  0  0
  -28.3000  -12.6350   18.9590 C   0  0  0  0  0  2  0  0  0  0  0  0
  -27.4940  -13.6560   19.7550 C   0  0  0  0  0  3  0  0  0  0  0  0
  -28.3020  -14.7790   20.6010 C   0  0  0  0  0  2  0  0  0  0  0  0
  -28.9530  -15.9860   19.7370 N   0  0  0  0  0  0  0  0  0  0  0  0
  -30.3890  -17.4180   19.8210 O   0  0  0  0  0  1  0  0  0  0  0  0
  -28.2160  -19.6350   19.5440 N   0  0  0  0  0  1  0  0  0  0  0  0
  -27.2620  -19.2990   19.4970 H   0  0  0  0  0  0  0  0  0  0  0  0
  -25.1690  -13.9060   20.6180 C   0  0  0  0  0  0  0  0  0  0  0  0
  -24.1580  -13.0710   20.9690 C   0  0  0  0  0  0  0  0  0  0  0  0
  -24.6790  -11.7420   20.8830 C   0  0  0  0  0  0  0  0  0  0  0  0
  -26.2650  -13.1210   20.3590 N   0  0  0  0  0  0  0  0  0  0  0  0
  -25.9800  -11.7880   20.5450 N   0  0  0  0  0  0  0  0  0  0  0  0
  -23.9620  -10.4570   21.0420 C   0  0  0  0  0  0  0  0  0  0  0  0
  -24.3640   -9.4820   21.9840 C   0  0  0  0  0  3  0  0  0  0  0  0
  -23.6250   -8.2870   22.1490 C   0  0  0  0  0  3  0  0  0  0  0  0
  -22.4640   -8.0520   21.3730 C   0  0  0  0  0  0  0  0  0  0  0  0
  -22.0760   -9.0140   20.4250 C   0  0  0  0  0  3  0  0  0  0  0  0
  -22.8160  -10.1980   20.2580 C   0  0  0  0  0  3  0  0  0  0  0  0
  -21.7030   -6.9070   21.4440 O   0  0  0  0  0  0  0  0  0  0  0  0
  -21.5920   -6.1820   22.6040 C   0  0  0  0  0  0  0  0  0  0  0  0
  -21.0030   -6.7230   23.7680 C   0  0  0  0  0  3  0  0  0  0  0  0
  -20.8450   -5.9220   24.9170 C   0  0  0  0  0  3  0  0  0  0  0  0
  -21.2660   -4.5780   24.9030 C   0  0  0  0  0  0  0  0  0  0  0  0
  -21.8440   -4.0340   23.7420 C   0  0  0  0  0  3  0  0  0  0  0  0
  -22.0030   -4.8330   22.5950 C   0  0  0  0  0  0  0  0  0  0  0  0
  -22.5420   -4.2950   21.4750 F   0  0  0  0  0  0  0  0  0  0  0  0
  -21.1100   -3.8070   26.0040 F   0  0  0  0  0  0  0  0  0  0  0  0
  -22.7520  -13.5060   21.2490 C   0  0  0  0  0  0  0  0  0  0  0  0
  -22.0480  -12.7890   22.1140 N   0  0  0  0  0  0  0  0  0  0  0  0
  -22.2950  -14.5330   20.7440 O   0  0  0  0  0  0  0  0  0  0  0  0
  -22.4370  -11.9650   22.5460 H   0  0  0  0  0  0  0  0  0  0  0  0
  -21.1050  -13.0660   22.3480 H   0  0  0  0  0  0  0  0  0  0  0  0
  -25.2300  -15.2850   20.4390 N   0  0  0  0  0  0  0  0  0  0  0  0
  -24.4060  -15.8690   20.5360 H   0  0  0  0  0  0  0  0  0  0  0  0
  -26.0370  -15.7820   20.0870 H   0  0  0  0  0  0  0  0  0  0  0  0
  1  4  1  0
  1  7  1  0
  3  5  1  0
  3  9  1  0
  4  7  1  0
  5  8  1  0
  5  9  1  0
  6  2  1  0
  9 10  1  0
 11 10  1  0
 12 23  2  0
 13 18  1  0
 13 19  1  0
 13 11  1  0
 14 21  1  0
 14 22  1  0
 14 24  1  0
 15 20  1  0
 16 22  1  0
 17 18  1  0
 20 19  2  0
 22 12  1  0
 24 26  2  0
 25 24  1  0
 27 25  1  0
 28 37  2  0
 28 33  1  0
 29 25  1  0
 29 33  1  0
 30 29  1  0
 31 32  1  0
 31 30  1  0
 32 28  1  0
 33 34  2  0
 34 35  1  0
 36 35  2  0
 37 36  1  0
 38 12  1  0
 38 43  1  0
 38 39  1  0
 39 41  1  6
 39 42  1  0
 39 40  1  0
 43 46  1  0
 44 48  1  0
 44 43  1  0
 45 44  2  0
 48 47  1  0
 50 48  1  0
 50 51  1  0
 50 49  1  0
 53 60  1  0
 54 59  1  0
 55 56  1  0
 55 54  1  0
 57 56  1  0
 57 66  1  0
 57 58  1  0
 59 53  1  0
 59 58  1  0
 62 61  1  0
 63 64  2  0
 64 83  1  0
 65 64  1  0
 65 68  1  0
 66 67  1  0
 66 63  1  0
 67 65  2  0
 68 69  1  0
 69 70  2  0
 71 74  1  0
 71 70  1  0
 72 71  2  0
 73 72  1  0
 73 68  2  0
 74 75  1  0
 75 76  1  0
 76 77  2  0
 78 77  1  0
 78 82  1  0
 79 78  2  0
 80 75  2  0
 80 79  1  0
 81 80  1  0
 83 84  1  0
 84 87  1  0
 84 86  1  0
 85 83  2  0
 88 89  1  0
 88 63  1  0
 90 88  1  0
M  ISO  4  10 101  11 101  53 100  61 100
M  END
>  <TORSDO>  (97) 
F 19

>  <SCORE>  (97) 
-15.767

>  <name>  (97) 
97

>  <ligand_id>  (97) 
97

>  <original_smiles>  (97) 
[H]c1c([H])c([H])c2c(c1[H])C([H])([H])C([H])([H])C([H])([H])C2([H])N([H])C(=O)C1([H])N(C(=O)C([H])(N([H])C(=O)C([H])(N([H])C([H])([H])[H])C([H])([H])[H])C(C([H])([H])[H])(C([H])([H])[H])C([H])([H])[H])C([H])([H])c2c([H])c(OC([H])([H])C([H])([H])c3c(Cl)nc(C([H])([H])N([H])C(=O)N4C([H])([H])C([H])([H])C([H])([H])C([H])(n5nc(-c6c([H])c([H])c(Oc7c([H])c([H])c(F)c([H])c7F)c([H])c6[H])c(C(=O)N([H])[H])c5N([H])[H])C4([H])[H])c([H])c3C([H])([H])[H])c([H])c([H])c2C1([H])[H]

>  <smiles>  (97) 
[H]c1c([H])c([H])c2c(c1[H])C([H])([H])C([H])([H])C([H])([H])C2([H])N([H])C(=O)C1([H])N(C(=O)C([H])(N([H])C(=O)C([H])(N([H])C([H])([H])[H])C([H])([H])[H])C(C([H])([H])[H])(C([H])([H])[H])C([H])([H])[H])C([H])([H])c2c([H])c(OC([H])([H])C([H])([H])c3c(Cl)nc(C([H])([H])N([H])C(=O)N4C([H])([H])C([H])([H])C([H])([H])C([H])(n5nc(-c6c([H])c([H])c(Oc7c([H])c([H])c(F)c([H])c7F)c([H])c6[H])c(C(=O)N([H])[H])c5N([H])[H])C4([H])[H])c([H])c3C([H])([H])[H])c([H])c([H])c2C1([H])[H]

$$$$
98:0:0
     RDKit          3D

 96 98  0  0  1  0  0  0  0  0999 V2000
  -18.8150  -30.4510   21.5310 C   0  0  0  0  0  3  0  0  0  0  0  0
  -21.4250  -29.3490   19.6840 C   0  0  0  0  0  1  0  0  0  0  0  0
  -20.2650  -30.6940   20.3310 C   0  0  0  0  0  0  0  0  0  0  0  0
  -20.2890  -26.8010   20.8900 C   0  0  0  0  0  1  0  0  0  0  0  0
  -18.2170  -28.8000   22.2590 C   0  0  0  0  0  0  0  0  0  0  0  0
  -21.8690  -25.4320   19.7980 C   0  0  0  0  0 15  0  0  0  0  0  0
  -24.6230  -26.8770   18.1360 C   0  0  0  0  0  3  0  0  0  0  0  0
  -24.3100  -28.6780   17.9700 C   0  0  0  0  0  1  0  0  0  0  0  0
  -20.2050  -32.0670   19.7000 C   0  0  0  0  0  1  0  0  0  0  0  0
  -17.2390  -28.8560   23.4130 C   0  0  0  0  0  1  0  0  0  0  0  0
  -18.8900  -27.1460   21.9500 N   0  0  0  0  0  0  0  0  0  0  0  0
  -23.3650  -25.7790   18.2910 N   0  0  0  0  0  0  0  0  0  0  0  0
  -23.7820  -24.8520   18.2500 H   0  0  0  0  0  0  0  0  0  0  0  0
  -26.9800  -27.7810   15.8390 C   0  0  0  0  0  2  0  0  0  0  0  0
  -30.6810  -26.6850   12.3090 C   0  0  0  0  0  2  0  0  0  0  0  0
  -32.8490  -26.3870    9.6300 C   0  0  0  0  0  2  0  0  0  0  0  0
  -33.0240  -26.3360    7.9370 C   0  0  0  0  0  2  0  0  0  0  0  0
  -32.4430  -25.1110    7.2420 C   0  0  0  0  0  2  0  0  0  0  0  0
  -31.4160  -24.7300    8.2940 C   0  0  0  0  0  3  0  0  0  0  0  0
  -31.7630  -24.6710    9.8860 C   0  0  0  0  0  2  0  0  0  0  0  0
  -31.4620  -26.0410   10.7180 N   0  0  0  0  0  0  0  0  0  0  0  0
  -32.0150  -26.9930   12.2780 O   0  0  0  0  0  1  0  0  0  0  0  0
  -28.9140  -27.1220   13.7680 N   0  0  0  0  0  1  0  0  0  0  0  0
  -29.6420  -27.4870   14.3730 H   0  0  0  0  0  0  0  0  0  0  0  0
  -29.1750  -23.8780    8.3610 C   0  0  0  0  0  0  0  0  0  0  0  0
  -28.5270  -22.8180    7.8470 C   0  0  0  0  0  0  0  0  0  0  0  0
  -29.4810  -22.0960    7.0600 C   0  0  0  0  0  0  0  0  0  0  0  0
  -30.4660  -23.7440    7.9410 N   0  0  0  0  0  0  0  0  0  0  0  0
  -30.6930  -22.6520    7.1640 N   0  0  0  0  0  0  0  0  0  0  0  0
  -29.2520  -20.9540    6.1720 C   0  0  0  0  0  0  0  0  0  0  0  0
  -29.9810  -19.7520    6.2920 C   0  0  0  0  0  3  0  0  0  0  0  0
  -29.6850  -18.6530    5.4540 C   0  0  0  0  0  3  0  0  0  0  0  0
  -28.6520  -18.7520    4.4930 C   0  0  0  0  0  0  0  0  0  0  0  0
  -27.9460  -19.9580    4.3630 C   0  0  0  0  0  3  0  0  0  0  0  0
  -28.2460  -21.0520    5.1910 C   0  0  0  0  0  3  0  0  0  0  0  0
  -28.3110  -17.7470    3.6210 O   0  0  0  0  0  0  0  0  0  0  0  0
  -28.4990  -16.4260    3.9350 C   0  0  0  0  0  0  0  0  0  0  0  0
  -27.7690  -15.7940    4.9650 C   0  0  0  0  0  3  0  0  0  0  0  0
  -27.9430  -14.4170    5.2080 C   0  0  0  0  0  3  0  0  0  0  0  0
  -28.8390  -13.6700    4.4200 C   0  0  0  0  0  0  0  0  0  0  0  0
  -29.5630  -14.2970    3.3910 C   0  0  0  0  0  3  0  0  0  0  0  0
  -29.3910  -15.6720    3.1470 C   0  0  0  0  0  0  0  0  0  0  0  0
  -30.0740  -16.2670    2.1400 F   0  0  0  0  0  0  0  0  0  0  0  0
  -29.0020  -12.3460    4.6480 F   0  0  0  0  0  0  0  0  0  0  0  0
  -27.0670  -22.5880    8.0240 C   0  0  0  0  0  0  0  0  0  0  0  0
  -26.6480  -21.3330    8.0310 N   0  0  0  0  0  0  0  0  0  0  0  0
  -26.3010  -23.5300    8.2330 O   0  0  0  0  0  0  0  0  0  0  0  0
  -27.2940  -20.5690    7.8920 H   0  0  0  0  0  0  0  0  0  0  0  0
  -25.6690  -21.1280    8.1780 H   0  0  0  0  0  0  0  0  0  0  0  0
  -28.7590  -24.9630    9.1360 N   0  0  0  0  0  0  0  0  0  0  0  0
  -27.7830  -25.1220    9.3710 H   0  0  0  0  0  0  0  0  0  0  0  0
  -29.3810  -25.7100    9.4220 H   0  0  0  0  0  0  0  0  0  0  0  0
  -23.6450  -26.3710   16.6030 C   0  0  0  0  0  2  0  0  0  0  0  0
  -24.8180  -27.7740   15.6660 C   0  0  0  0  0 15  0  0  0  0  0  0
  -26.6920  -28.7530   15.7240 C   0  0  0  0  0  1  0  0  0  0  0  0
  -28.5030  -28.6570   15.5950 O   0  0  0  0  0  0  0  0  0  0  0  0
  -32.6430  -23.8420   18.8570 C   0  0  0  0  0  0  0  0  0  0  0  0
  -29.5210  -28.6950   16.6710 C   0  0  0  0  0  3  0  0  0  0  0  0
  -30.4010  -24.6490   19.1590 C   0  0  0  0  0  3  0  0  0  0  0  0
  -29.8360  -27.1090   18.8510 C   0  0  0  0  0  0  0  0  0  0  0  0
  -32.1910  -26.3500   18.5970 C   0  0  0  0  0  2  0  0  0  0  0  0
  -31.0090  -27.2570   18.1220 C   0  0  0  0  0  0  0  0  0  0  0  0
  -30.8390  -28.0470   16.9130 C   0  0  0  0  0  3  0  0  0  0  0  0
  -28.8440  -29.0380   17.7980 C   0  0  0  0  0  2  0  0  0  0  0  0
  -28.7890  -28.0210   18.7330 C   0  0  0  0  0  3  0  0  0  0  0  0
  -29.6320  -25.8830   19.6580 C   0  0  0  0  0  2  0  0  0  0  0  0
  -31.8270  -24.9340   18.9520 N   0  0  0  0  0  0  0  0  0  0  0  0
  -32.2250  -22.6900   19.0600 O   0  0  0  0  0  0  0  0  0  0  0  0
  -29.9090  -24.2050   17.7780 C   0  0  0  0  0  0  0  0  0  0  0  0
  -28.9800  -23.3730   17.6590 N   0  0  0  0  0  0  0  0  0  0  0  0
  -30.3970  -24.5430   16.7220 O   0  0  0  0  0  0  0  0  0  0  0  0
  -28.4140  -23.1480   18.4710 H   0  0  0  0  0  0  0  0  0  0  0  0
  -24.8760  -22.9450   17.1430 C   0  0  0  0  0  3  0  0  0  0  0  0
  -28.2220  -23.0050   16.3640 C   0  0  1  0  0  0  0  0  0  0  0  0
  -26.9300  -23.4930   15.8360 C   0  0  0  0  0  2  0  0  0  0  0  0
  -25.1400  -24.3220   16.6870 C   0  0  0  0  0  2  0  0  0  0  0  0
  -23.8430  -23.6520   16.7970 C   0  0  0  0  0  2  0  0  0  0  0  0
  -26.9360  -22.3320   16.4370 C   0  0  0  0  0  3  0  0  0  0  0  0
  -27.8260  -21.3190   17.2590 C   0  0  0  0  0  3  0  0  0  0  0  0
  -27.3150  -21.2770   18.5620 C   0  0  0  0  0  1  0  0  0  0  0  0
  -25.4100  -21.7990   19.2550 C   0  0  0  0  0  1  0  0  0  0  0  0
  -24.3670  -22.4380   18.5440 C   0  0  0  0  0  2  0  0  0  0  0  0
  -34.1330  -24.0010   18.4740 C   0  0  0  0  0  3  0  0  0  0  0  0
  -34.3930  -23.8930   16.9210 C   0  0  1  0  0  0  0  0  0  0  0  0
  -33.7600  -22.6430   16.2630 C   0  0  0  0  0  1  0  0  0  0  0  0
  -33.8760  -25.1330   16.1610 C   0  0  0  0  0  1  0  0  0  0  0  0
  -35.9170  -23.8580   16.6610 C   0  0  0  0  0  1  0  0  0  0  0  0
  -34.8630  -22.9400   19.1830 N   0  0  0  0  0  0  0  0  0  0  0  0
  -35.5190  -23.1090   20.3370 C   0  0  0  0  0  0  0  0  0  0  0  0
  -35.6340  -24.2100   20.8790 O   0  0  0  0  0  0  0  0  0  0  0  0
  -34.7690  -22.0040   18.8180 H   0  0  0  0  0  0  0  0  0  0  0  0
  -35.2750  -21.3740   22.1460 C   0  0  0  0  0  1  0  0  0  0  0  0
  -36.1570  -21.8660   20.9860 C   0  0  0  0  0  3  0  0  0  0  0  0
  -38.4940  -22.3260   20.3930 C   0  0  0  0  0  1  0  0  0  0  0  0
  -37.5350  -22.1000   21.4720 N   0  0  0  0  0  0  0  0  0  0  0  0
  -37.8600  -21.3090   22.0220 H   0  0  0  0  0  0  0  0  0  0  0  0
  1  5  1  0
  2  3  1  0
  3  1  2  0
  4 11  1  0
  5 10  1  0
  7  8  1  0
  7 12  1  0
  9  3  1  0
 11  5  2  0
 13 12  1  0
 16 21  1  0
 17 16  1  0
 18 17  1  0
 19 18  1  0
 19 20  1  0
 20 21  1  0
 21 15  1  0
 22 15  1  0
 23 24  1  0
 25 50  1  0
 26 45  1  0
 26 25  2  0
 27 29  2  0
 27 26  1  0
 28 19  1  0
 28 25  1  0
 29 28  1  0
 30 31  1  0
 30 27  1  0
 32 31  2  0
 33 32  1  0
 34 33  2  0
 34 35  1  0
 35 30  2  0
 36 37  1  0
 36 33  1  0
 37 38  1  0
 38 39  2  0
 40 44  1  0
 40 39  1  0
 41 40  2  0
 42 41  1  0
 42 37  2  0
 43 42  1  0
 45 46  1  0
 45 47  2  0
 46 49  1  0
 48 46  1  0
 50 51  1  0
 50 52  1  0
 53  7  1  0
 53 12  1  0
 55 14  1  0
 56 14  1  0
 57 67  1  0
 57 68  2  0
 58 56  1  0
 58 63  1  0
 58 64  1  0
 59 69  1  0
 59 66  1  0
 60 66  1  0
 61 67  1  0
 62 61  1  0
 62 60  1  0
 63 62  2  0
 64 65  1  0
 65 60  2  0
 67 59  1  0
 70 69  1  0
 70 72  1  0
 71 69  2  0
 73 82  1  0
 74 78  1  0
 74 79  1  0
 74 70  1  1
 75 74  1  0
 76 77  1  0
 76 73  1  0
 77 73  1  0
 78 75  1  0
 78 79  1  0
 79 80  1  0
 82 81  1  0
 83 57  1  0
 83 88  1  0
 84 83  1  0
 84 85  1  6
 86 84  1  0
 87 84  1  0
 88 89  1  0
 89 90  2  0
 89 93  1  0
 91 88  1  0
 93 95  1  0
 93 92  1  0
 94 95  1  0
 95 96  1  0
M  ISO  4  15 100  23 100  55 101  56 101
M  END
>  <TORSDO>  (98) 
F 20

>  <SCORE>  (98) 
32.265

>  <name>  (98) 
98

>  <ligand_id>  (98) 
98

>  <original_smiles>  (98) 
[H]c1c([H])c([H])c2c(c1[H])C([H])([H])C([H])([H])C([H])([H])C2([H])N([H])C(=O)C1([H])N(C(=O)C([H])(N([H])C(=O)C([H])(N([H])C([H])([H])[H])C([H])([H])[H])C(C([H])([H])[H])(C([H])([H])[H])C([H])([H])[H])C([H])([H])c2c([H])c(OC([H])([H])C([H])([H])C([H])([H])[N+]3([H])C([H])([H])c4nc(C([H])([H])[H])c([H])c(C([H])([H])[H])c4C([H])(C([H])([H])N([H])C(=O)N4C([H])([H])C([H])([H])C([H])([H])C([H])(n5nc(-c6c([H])c([H])c(Oc7c([H])c([H])c(F)c([H])c7F)c([H])c6[H])c(C(=O)N([H])[H])c5N([H])[H])C4([H])[H])C3([H])[H])c([H])c([H])c2C1([H])[H]

>  <smiles>  (98) 
[H]c1c([H])c([H])c2c(c1[H])C([H])([H])C([H])([H])C([H])([H])C2([H])N([H])C(=O)C1([H])N(C(=O)C([H])(N([H])C(=O)C([H])(N([H])C([H])([H])[H])C([H])([H])[H])C(C([H])([H])[H])(C([H])([H])[H])C([H])([H])[H])C([H])([H])c2c([H])c(OC([H])([H])C([H])([H])C([H])([H])[N+]3([H])C([H])([H])c4nc(C([H])([H])[H])c([H])c(C([H])([H])[H])c4C([H])(C([H])([H])N([H])C(=O)N4C([H])([H])C([H])([H])C([H])([H])C([H])(n5nc(-c6c([H])c([H])c(Oc7c([H])c([H])c(F)c([H])c7F)c([H])c6[H])c(C(=O)N([H])[H])c5N([H])[H])C4([H])[H])C3([H])[H])c([H])c([H])c2C1([H])[H]

$$$$
