0:0:0
     RDKit          3D

103111  0  0  1  0  0  0  0  0999 V2000
  -30.9570  -22.2190   21.8330 C   0  0  0  0  0  3  0  0  0  0  0  0
  -29.5510  -22.3010   21.8390 C   0  0  0  0  0  0  0  0  0  0  0  0
  -28.8450  -22.1050   20.6190 C   0  0  0  0  0  0  0  0  0  0  0  0
  -30.9770  -21.7230   19.4390 C   0  0  0  0  0  0  0  0  0  0  0  0
  -31.6660  -21.9280   20.6570 C   0  0  0  0  0  0  0  0  0  0  0  0
  -29.5650  -21.8560   19.4210 C   0  0  0  0  0  0  0  0  0  0  0  0
  -27.3200  -22.1310   20.5360 C   0  0  0  0  0  1  0  0  0  0  0  0
  -33.3870  -21.8170   20.7520 Cl  0  0  0  0  0  0  0  0  0  0  0  0
  -28.7040  -21.7330   17.9190 Cl  0  0  0  0  0  0  0  0  0  0  0  0
  -28.8860  -22.5950   23.1890 C   0  0  0  0  0  2  0  0  0  0  0  0
  -28.8930  -24.0310   23.5570 N   0  0  0  0  0  4  0  0  0  0  0  0
  -28.4430  -24.0990   24.4570 H   0  0  0  0  0  0  0  0  0  0  0  0
  -29.8400  -24.3450   23.6840 H   0  0  0  0  0  0  0  0  0  0  0  0
  -28.1960  -24.9540   22.6350 C   0  0  0  0  0  2  0  0  0  0  0  0
  -29.1820  -25.8410   21.8370 C   0  0  0  0  0  2  0  0  0  0  0  0
  -28.8810  -25.9380   20.3290 C   0  0  0  0  0  2  0  0  0  0  0  0
  -28.9040  -27.3100   19.9160 O   0  0  0  0  0  0  0  0  0  0  0  0
  -24.7910  -32.0000   23.3210 C   0  0  0  0  0  0  0  0  0  0  0  0
  -27.6940  -27.9620   19.9620 C   0  0  0  0  0  0  0  0  0  0  0  0
  -23.6700  -30.6430   21.5850 C   0  0  0  0  0  3  0  0  0  0  0  0
  -25.2150  -29.3010   20.0660 C   0  0  0  0  0  0  0  0  0  0  0  0
  -26.1660  -31.1740   21.4200 C   0  0  0  0  0  2  0  0  0  0  0  0
  -26.3390  -29.8590   20.6910 C   0  0  0  0  0  0  0  0  0  0  0  0
  -27.5830  -29.1950   20.6370 C   0  0  0  0  0  3  0  0  0  0  0  0
  -26.5560  -27.4260   19.3190 C   0  0  0  0  0  3  0  0  0  0  0  0
  -25.3170  -28.0790   19.3820 C   0  0  0  0  0  3  0  0  0  0  0  0
  -23.9220  -30.0750   20.1630 C   0  0  0  0  0  2  0  0  0  0  0  0
  -24.8920  -31.2820   22.1680 N   0  0  0  0  0  0  0  0  0  0  0  0
  -23.6950  -32.1680   23.8740 O   0  0  0  0  0  0  0  0  0  0  0  0
  -23.0830  -29.5180   22.4700 C   0  0  0  0  0  0  0  0  0  0  0  0
  -21.7690  -29.2760   22.3340 N   0  0  0  0  0  0  0  0  0  0  0  0
  -23.8050  -28.8730   23.2340 O   0  0  0  0  0  0  0  0  0  0  0  0
  -21.2430  -29.8500   21.6880 H   0  0  0  0  0  0  0  0  0  0  0  0
  -18.4630  -27.8870   22.7710 C   0  0  0  0  0  0  0  0  0  0  0  0
  -21.0070  -28.2450   23.0390 C   0  0  0  0  0  3  0  0  0  0  0  0
  -21.1710  -26.8690   22.3530 C   0  0  0  0  0  2  0  0  0  0  0  0
  -20.0710  -26.5740   21.3270 C   0  0  0  0  0  2  0  0  0  0  0  0
  -18.6940  -26.6040   21.9910 C   0  0  0  0  0  2  0  0  0  0  0  0
  -19.5490  -28.6670   23.2500 C   0  0  0  0  0  0  0  0  0  0  0  0
  -19.2780  -29.8690   23.9390 C   0  0  0  0  0  3  0  0  0  0  0  0
  -17.9530  -30.2980   24.1460 C   0  0  0  0  0  3  0  0  0  0  0  0
  -16.8810  -29.5140   23.6830 C   0  0  0  0  0  3  0  0  0  0  0  0
  -17.1370  -28.3090   23.0050 C   0  0  0  0  0  3  0  0  0  0  0  0
  -26.0380  -32.6630   23.9820 C   0  0  0  0  0  3  0  0  0  0  0  0
  -25.6640  -34.0300   24.3650 N   0  0  0  0  0  0  0  0  0  0  0  0
  -25.9540  -35.1240   23.6480 C   0  0  0  0  0  0  0  0  0  0  0  0
  -26.6370  -35.0900   22.6210 O   0  0  0  0  0  0  0  0  0  0  0  0
  -25.0580  -34.1270   25.1680 H   0  0  0  0  0  0  0  0  0  0  0  0
  -24.1410  -36.8380   23.3450 C   0  0  0  0  0  1  0  0  0  0  0  0
  -25.3970  -36.4690   24.1520 C   0  0  0  0  0  3  0  0  0  0  0  0
  -27.4800  -37.4220   25.0330 C   0  0  0  0  0  1  0  0  0  0  0  0
  -26.3770  -37.5730   24.0870 N   0  0  0  0  0  0  0  0  0  0  0  0
  -25.9260  -38.4650   24.2680 H   0  0  0  0  0  0  0  0  0  0  0  0
  -26.5790  -31.8610   25.2290 C   0  0  1  0  0  0  0  0  0  0  0  0
  -25.4870  -31.5250   26.2710 C   0  0  0  0  0  1  0  0  0  0  0  0
  -27.2270  -30.5290   24.7810 C   0  0  0  0  0  1  0  0  0  0  0  0
  -27.6850  -32.6760   25.9410 C   0  0  0  0  0  1  0  0  0  0  0  0
  -31.7550  -21.3810   18.1660 C   0  0  0  0  0  2  0  0  0  0  0  0
  -32.2510  -19.9800   18.1690 N   0  0  0  0  0  4  0  0  0  0  0  0
  -32.2490  -19.6140   19.1050 H   0  0  0  0  0  0  0  0  0  0  0  0
  -33.2170  -20.0250   17.8770 H   0  0  0  0  0  0  0  0  0  0  0  0
  -31.5750  -19.0310   17.2540 C   0  0  0  0  0  2  0  0  0  0  0  0
  -30.3620  -18.3010   17.8810 C   0  0  0  0  0  2  0  0  0  0  0  0
  -30.6750  -16.9930   18.6410 C   0  0  0  0  0  2  0  0  0  0  0  0
  -30.3070  -16.9920   20.1530 C   0  0  0  0  0  2  0  0  0  0  0  0
  -30.8520  -14.5770   20.5620 C   0  0  0  0  0  0  0  0  0  0  0  0
  -30.5810  -12.3750   19.5350 C   0  0  0  0  0  2  0  0  0  0  0  0
  -29.6830  -12.5580   18.2930 C   0  0  0  0  0  2  0  0  0  0  0  0
  -28.1970  -12.4400   18.6760 C   0  0  0  0  0  2  0  0  0  0  0  0
  -27.8180  -13.3190   19.8980 C   0  0  0  0  0  3  0  0  0  0  0  0
  -28.8380  -13.1540   21.0520 C   0  0  0  0  0  2  0  0  0  0  0  0
  -30.1880  -13.3970   20.5130 N   0  0  0  0  0  0  0  0  0  0  0  0
  -32.0350  -14.7130   20.2460 O   0  0  0  0  0  0  0  0  0  0  0  0
  -30.0470  -15.6430   20.6660 N   0  0  0  0  0  0  0  0  0  0  0  0
  -29.0950  -15.4390   20.9280 H   0  0  0  0  0  0  0  0  0  0  0  0
  -25.4030  -13.9460   20.5280 C   0  0  0  0  0  0  0  0  0  0  0  0
  -24.3210  -13.1830   20.8650 C   0  0  0  0  0  0  0  0  0  0  0  0
  -24.7740  -11.8280   20.8570 C   0  0  0  0  0  0  0  0  0  0  0  0
  -26.4500  -13.0590   20.3380 N   0  0  0  0  0  0  0  0  0  0  0  0
  -26.0740  -11.7800   20.5970 N   0  0  0  0  0  0  0  0  0  0  0  0
  -24.0370  -10.5720   21.0290 C   0  0  0  0  0  0  0  0  0  0  0  0
  -24.4440   -9.6060   21.9740 C   0  0  0  0  0  3  0  0  0  0  0  0
  -23.7120   -8.4100   22.1360 C   0  0  0  0  0  3  0  0  0  0  0  0
  -22.5560   -8.1720   21.3520 C   0  0  0  0  0  0  0  0  0  0  0  0
  -22.1680   -9.1290   20.3970 C   0  0  0  0  0  3  0  0  0  0  0  0
  -22.9010  -10.3160   20.2350 C   0  0  0  0  0  3  0  0  0  0  0  0
  -21.7970   -7.0300   21.4220 O   0  0  0  0  0  0  0  0  0  0  0  0
  -21.7230   -6.2820   22.5700 C   0  0  0  0  0  0  0  0  0  0  0  0
  -21.2770   -6.8330   23.7920 C   0  0  0  0  0  3  0  0  0  0  0  0
  -21.1470   -6.0110   24.9290 C   0  0  0  0  0  3  0  0  0  0  0  0
  -21.4570   -4.6410   24.8450 C   0  0  0  0  0  0  0  0  0  0  0  0
  -21.8980   -4.0890   23.6300 C   0  0  0  0  0  3  0  0  0  0  0  0
  -22.0270   -4.9080   22.4940 C   0  0  0  0  0  0  0  0  0  0  0  0
  -22.4300   -4.3670   21.3190 F   0  0  0  0  0  0  0  0  0  0  0  0
  -21.3250   -3.8490   25.9370 F   0  0  0  0  0  0  0  0  0  0  0  0
  -22.9180  -13.6670   21.0900 C   0  0  0  0  0  0  0  0  0  0  0  0
  -22.1630  -12.9800   21.9370 N   0  0  0  0  0  0  0  0  0  0  0  0
  -22.5010  -14.6900   20.5480 O   0  0  0  0  0  0  0  0  0  0  0  0
  -22.5110  -12.1480   22.3920 H   0  0  0  0  0  0  0  0  0  0  0  0
  -21.2210  -13.2890   22.1340 H   0  0  0  0  0  0  0  0  0  0  0  0
  -25.5810  -15.3160   20.3440 N   0  0  0  0  0  0  0  0  0  0  0  0
  -24.8100  -15.9700   20.4100 H   0  0  0  0  0  0  0  0  0  0  0  0
  -26.4390  -15.7520   20.0310 H   0  0  0  0  0  0  0  0  0  0  0  0
  1  2  1  0
  2 10  1  0
  3  2  2  0
  4  5  1  0
  5  8  1  0
  5  1  2  0
  6  4  2  0
  6  3  1  0
  7  3  1  0
  9  6  1  0
 10 11  1  0
 11 13  1  0
 11 12  1  0
 14 11  1  0
 15 14  1  0
 16 15  1  0
 17 19  1  0
 17 16  1  0
 18 29  2  0
 19 24  1  0
 20 28  1  0
 20 30  1  0
 21 27  1  0
 21 23  1  0
 22 28  1  0
 23 22  1  0
 24 23  2  0
 25 26  1  0
 25 19  2  0
 26 21  2  0
 27 20  1  0
 28 18  1  0
 30 32  2  0
 31 30  1  0
 33 31  1  0
 34 43  2  0
 34 39  1  0
 35 31  1  0
 35 39  1  0
 36 35  1  0
 37 38  1  0
 37 36  1  0
 38 34  1  0
 39 40  2  0
 40 41  1  0
 42 41  2  0
 43 42  1  0
 44 18  1  0
 44 45  1  0
 44 54  1  0
 45 48  1  0
 46 50  1  0
 46 45  1  0
 47 46  2  0
 50 49  1  0
 52 50  1  0
 52 53  1  0
 52 51  1  0
 54 57  1  1
 54 55  1  0
 56 54  1  0
 58 59  1  0
 58  4  1  0
 59 60  1  0
 61 59  1  0
 62 63  1  0
 62 59  1  0
 63 64  1  0
 64 65  1  0
 65 74  1  0
 66 74  1  0
 67 72  1  0
 68 69  1  0
 68 67  1  0
 70 69  1  0
 70 79  1  0
 70 71  1  0
 72 66  1  0
 72 71  1  0
 73 66  2  0
 74 75  1  0
 76 77  2  0
 77 96  1  0
 78 77  1  0
 78 81  1  0
 79 76  1  0
 79 80  1  0
 80 78  2  0
 81 82  1  0
 82 83  2  0
 84 87  1  0
 84 83  1  0
 85 84  2  0
 86 85  1  0
 86 81  2  0
 87 88  1  0
 88 89  1  0
 89 90  2  0
 91 90  1  0
 91 95  1  0
 92 91  2  0
 93 88  2  0
 93 92  1  0
 94 93  1  0
 96 97  1  0
 97100  1  0
 97 99  1  0
 98 96  2  0
101102  1  0
101 76  1  0
103101  1  0
M  ISO  4  16 101  17 101  66 100  74 100
M  END
>  <TORSDO>  (1) 
F 27

>  <SCORE>  (1) 
-10.485

>  <name>  (1) 
0

>  <ligand_id>  (1) 
0

>  <original_smiles>  (1) 
[H]c1c([H])c([H])c2c(c1[H])C([H])([H])C([H])([H])C([H])([H])C2([H])N([H])C(=O)C1([H])N(C(=O)C([H])(N([H])C(=O)C([H])(N([H])C([H])([H])[H])C([H])([H])[H])C(C([H])([H])[H])(C([H])([H])[H])C([H])([H])[H])C([H])([H])c2c([H])c(OC([H])([H])C([H])([H])C([H])([H])[N+]([H])([H])C([H])([H])c3c([H])c(Cl)c(C([H])([H])[N+]([H])([H])C([H])([H])C([H])([H])C([H])([H])C([H])([H])N([H])C(=O)N4C([H])([H])C([H])([H])C([H])([H])C([H])(n5nc(-c6c([H])c([H])c(Oc7c([H])c([H])c(F)c([H])c7F)c([H])c6[H])c(C(=O)N([H])[H])c5N([H])[H])C4([H])[H])c(Cl)c3C([H])([H])[H])c([H])c([H])c2C1([H])[H]

>  <smiles>  (1) 
[H]c1c([H])c([H])c2c(c1[H])C([H])([H])C([H])([H])C([H])([H])C2([H])N([H])C(=O)C1([H])N(C(=O)C([H])(N([H])C(=O)C([H])(N([H])C([H])([H])[H])C([H])([H])[H])C(C([H])([H])[H])(C([H])([H])[H])C([H])([H])[H])C([H])([H])c2c([H])c(OC([H])([H])C([H])([H])C([H])([H])[N+]([H])([H])C([H])([H])c3c([H])c(Cl)c(C([H])([H])[N+]([H])([H])C([H])([H])C([H])([H])C([H])([H])C([H])([H])N([H])C(=O)N4C([H])([H])C([H])([H])C([H])([H])C([H])(n5nc(-c6c([H])c([H])c(Oc7c([H])c([H])c(F)c([H])c7F)c([H])c6[H])c(C(=O)N([H])[H])c5N([H])[H])C4([H])[H])c(Cl)c3C([H])([H])[H])c([H])c([H])c2C1([H])[H]

$$$$
1:0:0
     RDKit          3D

 94 97  0  0  1  0  0  0  0  0999 V2000
  -25.7200  -22.3920   22.1370 C   0  0  0  0  0  3  0  0  0  0  0  0
  -26.5090  -21.1150   21.6970 C   0  0  0  0  0  3  0  0  0  0  0  0
  -25.8530  -23.8810   21.8600 C   0  0  0  0  0  0  0  0  0  0  0  0
  -27.7100  -20.8910   20.8030 C   0  0  0  0  0  0  0  0  0  0  0  0
  -27.0520  -23.6610   20.9650 C   0  0  0  0  0  0  0  0  0  0  0  0
  -27.8480  -22.3810   20.5250 C   0  0  0  0  0  0  0  0  0  0  0  0
  -27.5980  -25.1520   20.2760 Cl  0  0  0  0  0  0  0  0  0  0  0  0
  -29.1790  -22.6910   19.4630 Cl  0  0  0  0  0  0  0  0  0  0  0  0
  -24.6830  -25.4160   22.1850 C   0  0  0  0  0  1  0  0  0  0  0  0
  -24.1550  -27.0170   23.3230 C   0  0  0  0  0  1  0  0  0  0  0  0
  -23.0070  -28.7610   23.5860 C   0  0  0  0  0 15  0  0  0  0  0  0
  -22.1400  -30.2410   22.3130 C   0  0  0  0  0 15  0  0  0  0  0  0
  -21.5410  -29.8720   20.2420 C   0  0  0  0  0 15  0  0  0  0  0  0
  -22.4610  -28.3840   18.9890 C   0  0  0  0  0 15  0  0  0  0  0  0
  -24.1060  -27.4460   19.0760 O   0  0  0  0  0  1  0  0  0  0  0  0
  -25.7700  -30.6140   23.1830 C   0  0  0  0  0  0  0  0  0  0  0  0
  -25.4760  -27.4410   18.5520 C   0  0  0  0  0  3  0  0  0  0  0  0
  -24.3390  -29.7150   21.4040 C   0  0  0  0  0  3  0  0  0  0  0  0
  -25.0820  -29.8720   19.0170 C   0  0  0  0  0  3  0  0  0  0  0  0
  -26.6800  -30.0470   20.9170 C   0  0  0  0  0  2  0  0  0  0  0  0
  -26.2080  -29.3650   19.6490 C   0  0  0  0  0  3  0  0  0  0  0  0
  -26.5270  -28.0580   19.3000 C   0  0  0  0  0  2  0  0  0  0  0  0
  -25.2140  -28.0680   17.3790 C   0  0  0  0  0  2  0  0  0  0  0  0
  -24.6900  -29.3240   17.7480 C   0  0  0  0  0  2  0  0  0  0  0  0
  -24.2200  -30.5640   20.0220 C   0  0  0  0  0  2  0  0  0  0  0  0
  -25.6190  -30.0960   21.9340 N   0  0  0  0  0  0  0  0  0  0  0  0
  -24.8390  -30.8960   23.9600 O   0  0  0  0  0  0  0  0  0  0  0  0
  -23.9800  -28.0000   21.5550 C   0  0  0  0  0  3  0  0  0  0  0  0
  -22.6350  -27.2120   21.2520 N   0  0  0  0  0  0  0  0  0  0  0  0
  -24.7540  -27.4620   22.2900 O   0  0  0  0  0  0  0  0  0  0  0  0
  -22.8840  -26.2390   21.3440 H   0  0  0  0  0  0  0  0  0  0  0  0
  -18.2500  -28.0640   21.9860 C   0  0  0  0  0  0  0  0  0  0  0  0
  -20.8680  -27.2990   21.5400 C   0  0  0  0  0  3  0  0  0  0  0  0
  -20.2630  -26.0570   21.1260 C   0  0  0  0  0  2  0  0  0  0  0  0
  -19.0750  -26.3910   20.2010 C   0  0  0  0  0  2  0  0  0  0  0  0
  -17.9140  -27.0520   20.9270 C   0  0  0  0  0  2  0  0  0  0  0  0
  -19.6060  -28.1970   22.4410 C   0  0  0  0  0  0  0  0  0  0  0  0
  -19.5260  -29.0000   23.6820 C   0  0  0  0  0  3  0  0  0  0  0  0
  -18.4300  -29.7900   24.1550 C   0  0  0  0  0  3  0  0  0  0  0  0
  -17.1810  -29.6640   23.5540 C   0  0  0  0  0  3  0  0  0  0  0  0
  -17.1010  -28.7400   22.5090 C   0  0  0  0  0  3  0  0  0  0  0  0
  -27.1980  -30.8050   23.6890 C   0  0  0  0  0  3  0  0  0  0  0  0
  -27.2370  -32.0720   24.4250 N   0  0  0  0  0  0  0  0  0  0  0  0
  -27.6780  -33.2230   23.9090 C   0  0  0  0  0  0  0  0  0  0  0  0
  -28.1550  -33.3070   22.7740 O   0  0  0  0  0  0  0  0  0  0  0  0
  -26.8110  -32.0820   25.3400 H   0  0  0  0  0  0  0  0  0  0  0  0
  -26.4400  -35.3700   24.3470 C   0  0  0  0  0  1  0  0  0  0  0  0
  -27.6010  -34.4720   24.8030 C   0  0  0  0  0  3  0  0  0  0  0  0
  -29.9560  -34.5520   25.4900 C   0  0  0  0  0  1  0  0  0  0  0  0
  -28.8590  -35.2500   24.8250 N   0  0  0  0  0  0  0  0  0  0  0  0
  -28.7220  -36.1420   25.2910 H   0  0  0  0  0  0  0  0  0  0  0  0
  -27.6320  -29.5930   24.5890 C   0  0  1  0  0  0  0  0  0  0  0  0
  -26.6180  -29.2410   25.7040 C   0  0  0  0  0  1  0  0  0  0  0  0
  -27.8740  -28.3050   23.7660 C   0  0  0  0  0  1  0  0  0  0  0  0
  -28.9890  -29.9320   25.2320 C   0  0  0  0  0  1  0  0  0  0  0  0
  -28.8170  -19.4390   20.0900 C   0  0  0  0  0  2  0  0  0  0  0  0
  -30.4060  -16.5470   19.6250 C   0  0  0  0  0  0  0  0  0  0  0  0
  -31.1100  -13.9930   18.8780 C   0  0  0  0  0  2  0  0  0  0  0  0
  -30.2910  -13.2840   17.7420 C   0  0  0  0  0  2  0  0  0  0  0  0
  -28.9230  -12.8060   18.2530 C   0  0  0  0  0  2  0  0  0  0  0  0
  -28.3300  -13.8700   19.1980 C   0  0  0  0  0  3  0  0  0  0  0  0
  -29.2860  -14.3100   20.3120 C   0  0  0  0  0  2  0  0  0  0  0  0
  -30.2940  -15.0850   19.6270 N   0  0  0  0  0  0  0  0  0  0  0  0
  -31.5730  -16.7530   19.1870 O   0  0  0  0  0  0  0  0  0  0  0  0
  -29.2830  -17.6510   19.9870 N   0  0  0  0  0  0  0  0  0  0  0  0
  -28.4760  -17.1240   20.2910 H   0  0  0  0  0  0  0  0  0  0  0  0
  -26.0820  -14.3790   20.1970 C   0  0  0  0  0  0  0  0  0  0  0  0
  -25.0790  -13.5800   20.6570 C   0  0  0  0  0  0  0  0  0  0  0  0
  -25.5430  -12.2350   20.5080 C   0  0  0  0  0  0  0  0  0  0  0  0
  -27.0690  -13.5130   19.7790 N   0  0  0  0  0  0  0  0  0  0  0  0
  -26.7810  -12.2180   20.0360 N   0  0  0  0  0  0  0  0  0  0  0  0
  -24.8530  -10.9630   20.7230 C   0  0  0  0  0  0  0  0  0  0  0  0
  -25.2590  -10.0610   21.7310 C   0  0  0  0  0  3  0  0  0  0  0  0
  -24.5610   -8.8500   21.9260 C   0  0  0  0  0  3  0  0  0  0  0  0
  -23.4470   -8.5360   21.1110 C   0  0  0  0  0  0  0  0  0  0  0  0
  -23.0650   -9.4270   20.0930 C   0  0  0  0  0  3  0  0  0  0  0  0
  -23.7630  -10.6290   19.8970 C   0  0  0  0  0  3  0  0  0  0  0  0
  -22.7230   -7.3740   21.2120 O   0  0  0  0  0  0  0  0  0  0  0  0
  -22.3710   -6.8500   22.4300 C   0  0  0  0  0  0  0  0  0  0  0  0
  -21.6110   -7.5850   23.3650 C   0  0  0  0  0  3  0  0  0  0  0  0
  -21.2130   -6.9820   24.5750 C   0  0  0  0  0  3  0  0  0  0  0  0
  -21.5630   -5.6460   24.8460 C   0  0  0  0  0  0  0  0  0  0  0  0
  -22.3140   -4.9120   23.9120 C   0  0  0  0  0  3  0  0  0  0  0  0
  -22.7150   -5.5130   22.7050 C   0  0  0  0  0  0  0  0  0  0  0  0
  -23.4210   -4.7950   21.7990 F   0  0  0  0  0  0  0  0  0  0  0  0
  -21.1730   -5.0630   26.0040 F   0  0  0  0  0  0  0  0  0  0  0  0
  -23.7280  -14.0390   21.1060 C   0  0  0  0  0  0  0  0  0  0  0  0
  -23.1250  -13.3290   22.0520 N   0  0  0  0  0  0  0  0  0  0  0  0
  -23.2220  -15.0650   20.6510 O   0  0  0  0  0  0  0  0  0  0  0  0
  -23.5540  -12.5010   22.4360 H   0  0  0  0  0  0  0  0  0  0  0  0
  -22.2200  -13.6180   22.3970 H   0  0  0  0  0  0  0  0  0  0  0  0
  -26.2320  -15.7600   20.0730 N   0  0  0  0  0  0  0  0  0  0  0  0
  -25.4590  -16.3850   20.2730 H   0  0  0  0  0  0  0  0  0  0  0  0
  -26.9540  -16.1940   19.5130 H   0  0  0  0  0  0  0  0  0  0  0  0
  2  1  2  0
  3  1  1  0
  3  9  1  0
  4  2  1  0
  5  3  2  0
  6  4  2  0
  6  5  1  0
  7  5  1  0
  8  6  1  0
 16 27  2  0
 17 15  1  0
 17 22  1  0
 18 28  1  0
 18 26  1  0
 19 24  1  0
 19 21  1  0
 19 25  1  0
 20 26  1  0
 21 22  1  0
 21 20  1  0
 23 24  1  0
 23 17  1  0
 25 18  1  0
 26 16  1  0
 28 30  1  0
 29 31  1  0
 29 28  1  0
 30 10  1  0
 32 37  2  0
 32 41  1  0
 33 29  1  0
 33 37  1  0
 34 33  1  0
 35 36  1  0
 35 34  1  0
 36 32  1  0
 37 38  1  0
 38 39  2  0
 40 39  1  0
 41 40  2  0
 42 16  1  0
 42 43  1  0
 42 52  1  0
 43 46  1  0
 44 43  1  0
 44 48  1  0
 45 44  2  0
 48 47  1  0
 48 50  1  0
 50 51  1  0
 50 49  1  0
 52 55  1  1
 52 53  1  0
 54 52  1  0
 56  4  1  0
 57 63  1  0
 57 65  1  0
 58 63  1  0
 59 60  1  0
 59 58  1  0
 61 60  1  0
 61 70  1  0
 61 62  1  0
 63 62  1  0
 64 57  2  0
 65 56  1  0
 65 66  1  0
 67 68  2  0
 68 87  1  0
 69 68  1  0
 69 72  1  0
 70 71  1  0
 70 67  1  0
 71 69  2  0
 72 73  1  0
 73 74  2  0
 75 78  1  0
 75 74  1  0
 76 75  2  0
 77 76  1  0
 77 72  2  0
 78 79  1  0
 79 84  2  0
 79 80  1  0
 80 81  2  0
 81 82  1  0
 82 86  1  0
 83 82  2  0
 84 83  1  0
 85 84  1  0
 87 88  1  0
 88 91  1  0
 88 90  1  0
 89 87  2  0
 92 67  1  0
 92 93  1  0
 94 92  1  0
M  ISO  4  14 101  15 101  57 100  65 100
M  END
>  <TORSDO>  (2) 
F 23

>  <SCORE>  (2) 
-2.775

>  <name>  (2) 
1

>  <ligand_id>  (2) 
1

>  <original_smiles>  (2) 
[H]c1c([H])c([H])c2c(c1[H])C([H])([H])C([H])([H])C([H])([H])C2([H])N([H])C(=O)C1([H])N(C(=O)C([H])(N([H])C(=O)C([H])(N([H])C([H])([H])[H])C([H])([H])[H])C(C([H])([H])[H])(C([H])([H])[H])C([H])([H])[H])C([H])([H])c2c([H])c(OC([H])([H])C([H])([H])C([H])([H])C([H])([H])C([H])([H])C([H])([H])c3c([H])c([H])c(C([H])([H])N([H])C(=O)N4C([H])([H])C([H])([H])C([H])([H])C([H])(n5nc(-c6c([H])c([H])c(Oc7c([H])c([H])c(F)c([H])c7F)c([H])c6[H])c(C(=O)N([H])[H])c5N([H])[H])C4([H])[H])c(Cl)c3Cl)c([H])c([H])c2C1([H])[H]

>  <smiles>  (2) 
[H]c1c([H])c([H])c2c(c1[H])C([H])([H])C([H])([H])C([H])([H])C2([H])N([H])C(=O)C1([H])N(C(=O)C([H])(N([H])C(=O)C([H])(N([H])C([H])([H])[H])C([H])([H])[H])C(C([H])([H])[H])(C([H])([H])[H])C([H])([H])[H])C([H])([H])c2c([H])c(OC([H])([H])C([H])([H])C([H])([H])C([H])([H])C([H])([H])C([H])([H])c3c([H])c([H])c(C([H])([H])N([H])C(=O)N4C([H])([H])C([H])([H])C([H])([H])C([H])(n5nc(-c6c([H])c([H])c(Oc7c([H])c([H])c(F)c([H])c7F)c([H])c6[H])c(C(=O)N([H])[H])c5N([H])[H])C4([H])[H])c(Cl)c3Cl)c([H])c([H])c2C1([H])[H]

$$$$
2:0:0
     RDKit          3D

 98106  0  0  1  0  0  0  0  0999 V2000
  -30.2320  -22.5940   19.6350 N   0  0  0  0  0  0  0  0  0  0  0  0
  -31.1890  -22.3110   19.8060 H   0  0  0  0  0  0  0  0  0  0  0  0
  -31.2820  -24.7320   19.4530 C   0  0  0  0  0  1  0  0  0  0  0  0
  -30.6470  -23.4830   17.3880 C   0  0  0  0  0  1  0  0  0  0  0  0
  -30.2000  -23.8250   18.8270 C   0  0  1  0  0  0  0  0  0  0  0  0
  -28.8090  -24.5560   18.8100 C   0  0  2  0  0  0  0  0  0  0  0  0
  -27.8490  -23.7210   18.4080 F   0  0  0  0  0  0  0  0  0  0  0  0
  -28.8680  -25.5230   17.8920 F   0  0  0  0  0  0  0  0  0  0  0  0
  -28.3630  -25.2050   20.1490 C   0  0  0  0  0  2  0  0  0  0  0  0
  -28.4380  -26.6410   20.1330 O   0  0  0  0  0  0  0  0  0  0  0  0
  -24.5990  -31.7670   23.2060 C   0  0  0  0  0  0  0  0  0  0  0  0
  -27.2520  -27.3460   20.1100 C   0  0  0  0  0  0  0  0  0  0  0  0
  -23.3980  -30.3780   21.5500 C   0  0  0  0  0  3  0  0  0  0  0  0
  -24.8560  -28.8460   20.1250 C   0  0  0  0  0  0  0  0  0  0  0  0
  -25.9260  -30.7340   21.3670 C   0  0  0  0  0  2  0  0  0  0  0  0
  -26.0110  -29.3690   20.7170 C   0  0  0  0  0  0  0  0  0  0  0  0
  -27.2120  -28.6270   20.7020 C   0  0  0  0  0  3  0  0  0  0  0  0
  -26.0770  -26.8330   19.5120 C   0  0  0  0  0  3  0  0  0  0  0  0
  -24.8810  -27.5770   19.5220 C   0  0  0  0  0  3  0  0  0  0  0  0
  -23.6140  -29.7070   20.1680 C   0  0  0  0  0  2  0  0  0  0  0  0
  -24.6600  -30.9730   22.1000 N   0  0  0  0  0  0  0  0  0  0  0  0
  -23.5170  -32.0390   23.7440 O   0  0  0  0  0  0  0  0  0  0  0  0
  -22.7420  -29.3520   22.5010 C   0  0  0  0  0  0  0  0  0  0  0  0
  -21.4160  -29.1770   22.3720 N   0  0  0  0  0  0  0  0  0  0  0  0
  -23.4220  -28.7150   23.3100 O   0  0  0  0  0  0  0  0  0  0  0  0
  -20.9290  -29.7410   21.6900 H   0  0  0  0  0  0  0  0  0  0  0  0
  -18.0350  -28.0060   22.8600 C   0  0  0  0  0  0  0  0  0  0  0  0
  -20.5950  -28.2380   23.1340 C   0  0  0  0  0  3  0  0  0  0  0  0
  -20.6860  -26.8130   22.5410 C   0  0  0  0  0  2  0  0  0  0  0  0
  -19.5810  -26.5110   21.5230 C   0  0  0  0  0  2  0  0  0  0  0  0
  -18.2010  -26.6630   22.1700 C   0  0  0  0  0  2  0  0  0  0  0  0
  -19.1600  -28.7520   23.2980 C   0  0  0  0  0  0  0  0  0  0  0  0
  -18.9530  -30.0130   23.9010 C   0  0  0  0  0  3  0  0  0  0  0  0
  -17.6530  -30.5260   24.0690 C   0  0  0  0  0  3  0  0  0  0  0  0
  -16.5430  -29.7740   23.6500 C   0  0  0  0  0  3  0  0  0  0  0  0
  -16.7340  -28.5150   23.0520 C   0  0  0  0  0  3  0  0  0  0  0  0
  -25.8840  -32.3920   23.8350 C   0  0  0  0  0  3  0  0  0  0  0  0
  -25.5730  -33.7840   24.1810 N   0  0  0  0  0  0  0  0  0  0  0  0
  -25.9040  -34.8450   23.4330 C   0  0  0  0  0  0  0  0  0  0  0  0
  -26.5740  -34.7540   22.4010 O   0  0  0  0  0  0  0  0  0  0  0  0
  -24.9760  -33.9250   24.9830 H   0  0  0  0  0  0  0  0  0  0  0  0
  -24.1720  -36.6360   23.0980 C   0  0  0  0  0  1  0  0  0  0  0  0
  -25.4140  -36.2270   23.9050 C   0  0  0  0  0  3  0  0  0  0  0  0
  -27.5520  -37.1080   24.7370 C   0  0  0  0  0  1  0  0  0  0  0  0
  -26.4440  -37.2850   23.8020 N   0  0  0  0  0  0  0  0  0  0  0  0
  -26.0370  -38.2020   23.9630 H   0  0  0  0  0  0  0  0  0  0  0  0
  -26.4040  -31.6050   25.1000 C   0  0  1  0  0  0  0  0  0  0  0  0
  -25.3130  -31.3490   26.1650 C   0  0  0  0  0  1  0  0  0  0  0  0
  -26.9940  -30.2360   24.6890 C   0  0  0  0  0  1  0  0  0  0  0  0
  -27.5510  -32.3960   25.7750 C   0  0  0  0  0  1  0  0  0  0  0  0
  -29.4550  -21.4380   19.1760 C   0  0  0  0  0  2  0  0  0  0  0  0
  -31.9130  -18.6600   20.1960 C   0  0  0  0  0  3  0  0  0  0  0  0
  -31.3860  -19.8790   19.7260 C   0  0  0  0  0  3  0  0  0  0  0  0
  -31.0590  -17.6310   20.6450 C   0  0  0  0  0  0  0  0  0  0  0  0
  -29.9920  -20.1020   19.6980 C   0  0  0  0  0  0  0  0  0  0  0  0
  -29.6570  -17.8310   20.5920 C   0  0  0  0  0  0  0  0  0  0  0  0
  -29.1250  -19.0560   20.1130 C   0  0  0  0  0  0  0  0  0  0  0  0
  -28.5850  -16.5810   21.1320 Cl  0  0  0  0  0  0  0  0  0  0  0  0
  -27.4060  -19.2640   20.0380 Cl  0  0  0  0  0  0  0  0  0  0  0  0
  -31.6740  -16.3550   21.2240 C   0  0  0  0  0  2  0  0  0  0  0  0
  -31.4020  -14.1840   20.0120 C   0  0  0  0  0  0  0  0  0  0  0  0
  -30.9040  -12.0070   18.9560 C   0  0  0  0  0  2  0  0  0  0  0  0
  -29.9340  -12.1760   17.7710 C   0  0  0  0  0  2  0  0  0  0  0  0
  -28.4720  -12.1510   18.2550 C   0  0  0  0  0  2  0  0  0  0  0  0
  -28.2260  -13.1060   19.4530 C   0  0  0  0  0  3  0  0  0  0  0  0
  -29.2960  -12.8970   20.5470 C   0  0  0  0  0  2  0  0  0  0  0  0
  -30.6250  -13.0710   19.9330 N   0  0  0  0  0  0  0  0  0  0  0  0
  -32.4360  -14.3370   19.3560 O   0  0  0  0  0  0  0  0  0  0  0  0
  -30.9760  -15.1180   20.8730 N   0  0  0  0  0  0  0  0  0  0  0  0
  -30.1250  -14.9160   21.3770 H   0  0  0  0  0  0  0  0  0  0  0  0
  -25.9250  -13.9240   20.2670 C   0  0  0  0  0  0  0  0  0  0  0  0
  -24.8050  -13.2490   20.6730 C   0  0  0  0  0  0  0  0  0  0  0  0
  -25.1370  -11.8620   20.6070 C   0  0  0  0  0  0  0  0  0  0  0  0
  -26.8730  -12.9530   19.9840 N   0  0  0  0  0  0  0  0  0  0  0  0
  -26.4030  -11.7070   20.2420 N   0  0  0  0  0  0  0  0  0  0  0  0
  -24.3060  -10.6690   20.8150 C   0  0  0  0  0  0  0  0  0  0  0  0
  -24.6740   -9.6620   21.7340 C   0  0  0  0  0  3  0  0  0  0  0  0
  -23.8510   -8.5330   21.9290 C   0  0  0  0  0  3  0  0  0  0  0  0
  -22.6420   -8.4030   21.2030 C   0  0  0  0  0  0  0  0  0  0  0  0
  -22.2910   -9.3970   20.2720 C   0  0  0  0  0  3  0  0  0  0  0  0
  -23.1140  -10.5180   20.0760 C   0  0  0  0  0  3  0  0  0  0  0  0
  -21.7920   -7.3300   21.3080 O   0  0  0  0  0  0  0  0  0  0  0  0
  -21.6910   -6.6010   22.4660 C   0  0  0  0  0  0  0  0  0  0  0  0
  -21.3430   -7.2010   23.6960 C   0  0  0  0  0  3  0  0  0  0  0  0
  -21.1840   -6.4050   24.8480 C   0  0  0  0  0  3  0  0  0  0  0  0
  -21.3610   -5.0100   24.7710 C   0  0  0  0  0  0  0  0  0  0  0  0
  -21.7020   -4.4110   23.5460 C   0  0  0  0  0  3  0  0  0  0  0  0
  -21.8630   -5.2040   22.3960 C   0  0  0  0  0  0  0  0  0  0  0  0
  -22.1710   -4.6180   21.2140 F   0  0  0  0  0  0  0  0  0  0  0  0
  -21.2000   -4.2430   25.8740 F   0  0  0  0  0  0  0  0  0  0  0  0
  -23.4720  -13.8490   21.0140 C   0  0  0  0  0  0  0  0  0  0  0  0
  -22.7330  -13.2230   21.9230 N   0  0  0  0  0  0  0  0  0  0  0  0
  -23.0970  -14.9060   20.5080 O   0  0  0  0  0  0  0  0  0  0  0  0
  -23.0490  -12.3660   22.3520 H   0  0  0  0  0  0  0  0  0  0  0  0
  -21.8380  -13.6080   22.1960 H   0  0  0  0  0  0  0  0  0  0  0  0
  -26.2110  -15.2750   20.0990 N   0  0  0  0  0  0  0  0  0  0  0  0
  -25.5290  -16.0040   20.2750 H   0  0  0  0  0  0  0  0  0  0  0  0
  -27.1080  -15.6370   19.7970 H   0  0  0  0  0  0  0  0  0  0  0  0
  1  2  1  0
  5  4  1  6
  5  3  1  0
  5  1  1  0
  6  5  1  0
  6  9  1  0
  6  7  1  6
  8  6  1  0
 10  9  1  0
 11 22  2  0
 12 10  1  0
 12 17  1  0
 13 21  1  0
 13 23  1  0
 14 20  1  0
 14 16  1  0
 15 21  1  0
 16 15  1  0
 17 16  2  0
 18 19  1  0
 18 12  2  0
 19 14  2  0
 20 13  1  0
 21 11  1  0
 23 25  2  0
 24 23  1  0
 26 24  1  0
 27 36  2  0
 27 32  1  0
 28 24  1  0
 28 32  1  0
 29 28  1  0
 30 31  1  0
 30 29  1  0
 31 27  1  0
 32 33  2  0
 33 34  1  0
 35 34  2  0
 36 35  1  0
 37 11  1  0
 37 38  1  0
 37 47  1  0
 38 41  1  0
 39 43  1  0
 39 38  1  0
 40 39  2  0
 43 42  1  0
 45 43  1  0
 45 46  1  0
 45 44  1  0
 47 50  1  1
 47 48  1  0
 49 47  1  0
 51  1  1  0
 51 55  1  0
 52 54  1  0
 53 52  2  0
 54 60  1  0
 55 53  1  0
 55 57  2  0
 56 54  2  0
 56 58  1  0
 57 56  1  0
 59 57  1  0
 61 69  1  0
 62 67  1  0
 63 64  1  0
 63 62  1  0
 65 64  1  0
 65 74  1  0
 65 66  1  0
 67 61  1  0
 67 66  1  0
 68 61  2  0
 69 60  1  0
 69 70  1  0
 71 72  2  0
 72 91  1  0
 73 72  1  0
 73 76  1  0
 74 75  1  0
 74 71  1  0
 75 73  2  0
 76 77  1  0
 77 78  2  0
 79 82  1  0
 79 78  1  0
 80 79  2  0
 81 80  1  0
 81 76  2  0
 82 83  1  0
 83 84  1  0
 84 85  2  0
 86 85  1  0
 86 90  1  0
 87 86  2  0
 88 83  2  0
 88 87  1  0
 89 88  1  0
 91 92  1  0
 92 95  1  0
 92 94  1  0
 93 91  2  0
 96 71  1  0
 96 97  1  0
 98 96  1  0
M  ISO  4   9 101  10 101  61 100  69 100
M  END
>  <TORSDO>  (3) 
F 22

>  <SCORE>  (3) 
-12.733

>  <name>  (3) 
2

>  <ligand_id>  (3) 
2

>  <original_smiles>  (3) 
[H]c1c([H])c([H])c2c(c1[H])C([H])([H])C([H])([H])C([H])([H])C2([H])N([H])C(=O)C1([H])N(C(=O)C([H])(N([H])C(=O)C([H])(N([H])C([H])([H])[H])C([H])([H])[H])C(C([H])([H])[H])(C([H])([H])[H])C([H])([H])[H])C([H])([H])c2c([H])c(OC([H])([H])C(F)(F)C(N([H])C([H])([H])c3c([H])c([H])c(C([H])([H])N([H])C(=O)N4C([H])([H])C([H])([H])C([H])([H])C([H])(n5nc(-c6c([H])c([H])c(Oc7c([H])c([H])c(F)c([H])c7F)c([H])c6[H])c(C(=O)N([H])[H])c5N([H])[H])C4([H])[H])c(Cl)c3Cl)(C([H])([H])[H])C([H])([H])[H])c([H])c([H])c2C1([H])[H]

>  <smiles>  (3) 
[H]c1c([H])c([H])c2c(c1[H])C([H])([H])C([H])([H])C([H])([H])C2([H])N([H])C(=O)C1([H])N(C(=O)C([H])(N([H])C(=O)C([H])(N([H])C([H])([H])[H])C([H])([H])[H])C(C([H])([H])[H])(C([H])([H])[H])C([H])([H])[H])C([H])([H])c2c([H])c(OC([H])([H])C(F)(F)C(N([H])C([H])([H])c3c([H])c([H])c(C([H])([H])N([H])C(=O)N4C([H])([H])C([H])([H])C([H])([H])C([H])(n5nc(-c6c([H])c([H])c(Oc7c([H])c([H])c(F)c([H])c7F)c([H])c6[H])c(C(=O)N([H])[H])c5N([H])[H])C4([H])[H])c(Cl)c3Cl)(C([H])([H])[H])C([H])([H])[H])c([H])c([H])c2C1([H])[H]

$$$$
3:0:0
     RDKit          3D

 99108  0  0  1  0  0  0  0  0999 V2000
  -30.0610  -22.0250   19.8970 C   0  0  0  0  0  2  0  0  0  0  0  0
  -32.4340  -21.4770   19.1530 C   0  0  0  0  0  2  0  0  0  0  0  0
  -30.2420  -23.4270   19.3000 C   0  0  0  0  0  2  0  0  0  0  0  0
  -32.5550  -22.9240   18.6260 C   0  0  0  0  0  2  0  0  0  0  0  0
  -30.9620  -21.0040   19.1880 C   0  0  0  0  0  3  0  0  0  0  0  0
  -31.6640  -23.8610   19.3650 N   0  0  1  0  0  4  0  0  0  0  0  0
  -31.9490  -23.8220   20.3320 H   0  0  0  0  0  0  0  0  0  0  0  0
  -30.9320  -17.8350   21.4440 C   0  0  0  0  0  3  0  0  0  0  0  0
  -30.7230  -19.5710   19.7110 C   0  0  0  0  0  0  0  0  0  0  0  0
  -29.6930  -17.3460   19.4030 C   0  0  0  0  0  0  0  0  0  0  0  0
  -30.1910  -16.9290   20.6670 C   0  0  0  0  0  0  0  0  0  0  0  0
  -31.1920  -19.1400   20.9860 C   0  0  0  0  0  0  0  0  0  0  0  0
  -29.9510  -18.6580   18.9360 C   0  0  0  0  0  0  0  0  0  0  0  0
  -28.8760  -16.4020   18.5320 C   0  0  0  0  0  1  0  0  0  0  0  0
  -32.0500  -20.1710   22.0780 Cl  0  0  0  0  0  0  0  0  0  0  0  0
  -29.2570  -19.1370   17.4160 Cl  0  0  0  0  0  0  0  0  0  0  0  0
  -30.7370  -14.5880   21.0210 C   0  0  0  0  0  0  0  0  0  0  0  0
  -30.5790  -12.3480   20.0370 C   0  0  0  0  0  2  0  0  0  0  0  0
  -29.7490  -12.4310   18.7410 C   0  0  0  0  0  2  0  0  0  0  0  0
  -28.2320  -12.3450   19.0350 C   0  0  0  0  0  2  0  0  0  0  0  0
  -27.7690  -13.2370   20.2210 C   0  0  0  0  0  3  0  0  0  0  0  0
  -28.7340  -13.1090   21.4220 C   0  0  0  0  0  2  0  0  0  0  0  0
  -30.0980  -13.3920   20.9470 N   0  0  0  0  0  0  0  0  0  0  0  0
  -31.9240  -14.7500   20.7350 O   0  0  0  0  0  0  0  0  0  0  0  0
  -29.9200  -15.6390   21.1950 N   0  0  0  0  0  0  0  0  0  0  0  0
  -28.9560  -15.4030   21.3690 H   0  0  0  0  0  0  0  0  0  0  0  0
  -25.3200  -13.8350   20.7410 C   0  0  0  0  0  0  0  0  0  0  0  0
  -24.2320  -13.0580   21.0340 C   0  0  0  0  0  0  0  0  0  0  0  0
  -24.7050  -11.7110   21.0550 C   0  0  0  0  0  0  0  0  0  0  0  0
  -26.3860  -12.9580   20.6000 N   0  0  0  0  0  0  0  0  0  0  0  0
  -26.0140  -11.6770   20.8460 N   0  0  0  0  0  0  0  0  0  0  0  0
  -23.9790  -10.4440   21.2010 C   0  0  0  0  0  0  0  0  0  0  0  0
  -24.3570   -9.4850   22.1660 C   0  0  0  0  0  3  0  0  0  0  0  0
  -23.6320   -8.2820   22.3000 C   0  0  0  0  0  3  0  0  0  0  0  0
  -22.5150   -8.0300   21.4690 C   0  0  0  0  0  0  0  0  0  0  0  0
  -22.1580   -8.9780   20.4950 C   0  0  0  0  0  3  0  0  0  0  0  0
  -22.8830  -10.1720   20.3580 C   0  0  0  0  0  3  0  0  0  0  0  0
  -21.7670   -6.8770   21.5110 O   0  0  0  0  0  0  0  0  0  0  0  0
  -21.6580   -6.1320   22.6580 C   0  0  0  0  0  0  0  0  0  0  0  0
  -21.1320   -6.6720   23.8520 C   0  0  0  0  0  3  0  0  0  0  0  0
  -20.9720   -5.8510   24.9860 C   0  0  0  0  0  3  0  0  0  0  0  0
  -21.3290   -4.4900   24.9270 C   0  0  0  0  0  0  0  0  0  0  0  0
  -21.8510   -3.9490   23.7380 C   0  0  0  0  0  3  0  0  0  0  0  0
  -22.0120   -4.7680   22.6050 C   0  0  0  0  0  0  0  0  0  0  0  0
  -22.4940   -4.2380   21.4560 F   0  0  0  0  0  0  0  0  0  0  0  0
  -21.1670   -3.6990   26.0140 F   0  0  0  0  0  0  0  0  0  0  0  0
  -22.8150  -13.5260   21.1930 C   0  0  0  0  0  0  0  0  0  0  0  0
  -22.0260  -12.8280   22.0010 N   0  0  0  0  0  0  0  0  0  0  0  0
  -22.4120  -14.5480   20.6380 O   0  0  0  0  0  0  0  0  0  0  0  0
  -22.3620  -12.0020   22.4730 H   0  0  0  0  0  0  0  0  0  0  0  0
  -21.0720  -13.1250   22.1480 H   0  0  0  0  0  0  0  0  0  0  0  0
  -25.4910  -15.2050   20.5630 N   0  0  0  0  0  0  0  0  0  0  0  0
  -24.7180  -15.8580   20.5960 H   0  0  0  0  0  0  0  0  0  0  0  0
  -26.3650  -15.6450   20.3030 H   0  0  0  0  0  0  0  0  0  0  0  0
  -31.8470  -25.2710   18.9360 C   0  0  0  0  0  2  0  0  0  0  0  0
  -31.3950  -26.2900   20.0100 C   0  0  0  0  0  2  0  0  0  0  0  0
  -30.6510  -27.5100   19.4360 C   0  0  0  0  0  2  0  0  0  0  0  0
  -29.2230  -27.1960   18.9620 C   0  0  0  0  0  2  0  0  0  0  0  0
  -28.4130  -26.8310   20.0770 O   0  0  0  0  0  0  0  0  0  0  0  0
  -24.5740  -31.9210   23.2490 C   0  0  0  0  0  0  0  0  0  0  0  0
  -27.2380  -27.5330   20.1460 C   0  0  0  0  0  0  0  0  0  0  0  0
  -23.3680  -30.5130   21.6080 C   0  0  0  0  0  3  0  0  0  0  0  0
  -24.8270  -28.9830   20.1840 C   0  0  0  0  0  0  0  0  0  0  0  0
  -25.8860  -30.8970   21.4000 C   0  0  0  0  0  2  0  0  0  0  0  0
  -25.9790  -29.5270   20.7660 C   0  0  0  0  0  0  0  0  0  0  0  0
  -27.1910  -28.8060   20.7480 C   0  0  0  0  0  3  0  0  0  0  0  0
  -26.0720  -26.9820   19.5800 C   0  0  0  0  0  3  0  0  0  0  0  0
  -24.8640  -27.7050   19.5930 C   0  0  0  0  0  3  0  0  0  0  0  0
  -23.5760  -29.8310   20.2300 C   0  0  0  0  0  2  0  0  0  0  0  0
  -24.6270  -31.1250   22.1460 N   0  0  0  0  0  0  0  0  0  0  0  0
  -23.4950  -32.1880   23.7950 O   0  0  0  0  0  0  0  0  0  0  0  0
  -22.7250  -29.4890   22.5700 C   0  0  0  0  0  0  0  0  0  0  0  0
  -21.4010  -29.3000   22.4430 N   0  0  0  0  0  0  0  0  0  0  0  0
  -23.4120  -28.8680   23.3850 O   0  0  0  0  0  0  0  0  0  0  0  0
  -20.9070  -29.8540   21.7580 H   0  0  0  0  0  0  0  0  0  0  0  0
  -18.0340  -28.0990   22.9510 C   0  0  0  0  0  0  0  0  0  0  0  0
  -20.5920  -28.3570   23.2150 C   0  0  0  0  0  3  0  0  0  0  0  0
  -20.6930  -26.9280   22.6330 C   0  0  0  0  0  2  0  0  0  0  0  0
  -19.5880  -26.6080   21.6220 C   0  0  0  0  0  2  0  0  0  0  0  0
  -18.2080  -26.7520   22.2720 C   0  0  0  0  0  2  0  0  0  0  0  0
  -19.1540  -28.8590   23.3810 C   0  0  0  0  0  0  0  0  0  0  0  0
  -18.9370  -30.1210   23.9770 C   0  0  0  0  0  3  0  0  0  0  0  0
  -17.6340  -30.6230   24.1440 C   0  0  0  0  0  3  0  0  0  0  0  0
  -16.5280  -29.8600   23.7310 C   0  0  0  0  0  3  0  0  0  0  0  0
  -16.7290  -28.5980   23.1430 C   0  0  0  0  0  3  0  0  0  0  0  0
  -25.8600  -32.5560   23.8640 C   0  0  0  0  0  3  0  0  0  0  0  0
  -25.5490  -33.9550   24.1830 N   0  0  0  0  0  0  0  0  0  0  0  0
  -25.8910  -35.0020   23.4210 C   0  0  0  0  0  0  0  0  0  0  0  0
  -26.5730  -34.8930   22.3970 O   0  0  0  0  0  0  0  0  0  0  0  0
  -24.9370  -34.1140   24.9700 H   0  0  0  0  0  0  0  0  0  0  0  0
  -24.1820  -36.8040   23.0240 C   0  0  0  0  0  1  0  0  0  0  0  0
  -25.4010  -36.3920   23.8650 C   0  0  0  0  0  3  0  0  0  0  0  0
  -27.5180  -37.2700   24.7450 C   0  0  0  0  0  1  0  0  0  0  0  0
  -26.4390  -37.4400   23.7750 N   0  0  0  0  0  0  0  0  0  0  0  0
  -26.0340  -38.3610   23.9080 H   0  0  0  0  0  0  0  0  0  0  0  0
  -26.3810  -31.7900   25.1420 C   0  0  1  0  0  0  0  0  0  0  0  0
  -25.2910  -31.5590   26.2140 C   0  0  0  0  0  1  0  0  0  0  0  0
  -26.9650  -30.4120   24.7530 C   0  0  0  0  0  1  0  0  0  0  0  0
  -27.5350  -32.5890   25.7950 C   0  0  0  0  0  1  0  0  0  0  0  0
  2  5  1  0
  3  6  1  0
  3  1  1  0
  4  2  1  0
  4  6  1  0
  5  9  1  0
  5  1  1  0
  6  7  1  1
  9 12  2  0
 10 11  1  0
 11 25  1  0
 11  8  2  0
 12  8  1  0
 12 15  1  0
 13 10  2  0
 13  9  1  0
 14 10  1  0
 16 13  1  0
 17 25  1  0
 18 23  1  0
 19 20  1  0
 19 18  1  0
 21 20  1  0
 21 30  1  0
 21 22  1  0
 23 17  1  0
 23 22  1  0
 24 17  2  0
 25 26  1  0
 27 28  2  0
 28 29  1  0
 28 47  1  0
 29 32  1  0
 30 27  1  0
 30 31  1  0
 31 29  2  0
 32 33  1  0
 33 34  2  0
 35 38  1  0
 35 34  1  0
 36 35  2  0
 37 36  1  0
 37 32  2  0
 38 39  1  0
 39 40  1  0
 40 41  2  0
 42 41  1  0
 42 46  1  0
 43 42  2  0
 44 39  2  0
 44 43  1  0
 45 44  1  0
 47 48  1  0
 48 51  1  0
 48 50  1  0
 49 47  2  0
 52 53  1  0
 52 27  1  0
 54 52  1  0
 55  6  1  0
 55 56  1  0
 57 56  1  0
 58 57  1  0
 58 59  1  0
 59 61  1  0
 60 71  2  0
 61 66  1  0
 62 70  1  0
 62 72  1  0
 63 69  1  0
 63 65  1  0
 64 70  1  0
 65 64  1  0
 66 65  2  0
 67 68  1  0
 67 61  2  0
 68 63  2  0
 69 62  1  0
 70 60  1  0
 72 74  2  0
 73 72  1  0
 75 73  1  0
 76 85  2  0
 76 81  1  0
 77 73  1  0
 77 81  1  0
 78 77  1  0
 79 80  1  0
 79 78  1  0
 80 76  1  0
 81 82  2  0
 82 83  1  0
 84 83  2  0
 85 84  1  0
 86 60  1  0
 86 87  1  0
 86 96  1  0
 87 90  1  0
 88 92  1  0
 88 87  1  0
 89 88  2  0
 92 91  1  0
 94 92  1  0
 94 95  1  0
 94 93  1  0
 96 99  1  1
 96 97  1  0
 98 96  1  0
M  ISO  4  17 100  25 100  58 101  59 101
M  END
>  <TORSDO>  (4) 
F 21

>  <SCORE>  (4) 
-13.384

>  <name>  (4) 
3

>  <ligand_id>  (4) 
3

>  <original_smiles>  (4) 
[H]c1c([H])c([H])c2c(c1[H])C([H])([H])C([H])([H])C([H])([H])C2([H])N([H])C(=O)C1([H])N(C(=O)C([H])(N([H])C(=O)C([H])(N([H])C([H])([H])[H])C([H])([H])[H])C(C([H])([H])[H])(C([H])([H])[H])C([H])([H])[H])C([H])([H])c2c([H])c(OC([H])([H])C([H])([H])C([H])([H])C([H])([H])[N+]3([H])C([H])([H])C([H])([H])C([H])(c4c(Cl)c([H])c(N([H])C(=O)N5C([H])([H])C([H])([H])C([H])([H])C([H])(n6nc(-c7c([H])c([H])c(Oc8c([H])c([H])c(F)c([H])c8F)c([H])c7[H])c(C(=O)N([H])[H])c6N([H])[H])C5([H])[H])c(C([H])([H])[H])c4Cl)C([H])([H])C3([H])[H])c([H])c([H])c2C1([H])[H]

>  <smiles>  (4) 
[H]c1c([H])c([H])c2c(c1[H])C([H])([H])C([H])([H])C([H])([H])C2([H])N([H])C(=O)C1([H])N(C(=O)C([H])(N([H])C(=O)C([H])(N([H])C([H])([H])[H])C([H])([H])[H])C(C([H])([H])[H])(C([H])([H])[H])C([H])([H])[H])C([H])([H])c2c([H])c(OC([H])([H])C([H])([H])C([H])([H])C([H])([H])[N+]3([H])C([H])([H])C([H])([H])C([H])(c4c(Cl)c([H])c(N([H])C(=O)N5C([H])([H])C([H])([H])C([H])([H])C([H])(n6nc(-c7c([H])c([H])c(Oc8c([H])c([H])c(F)c([H])c8F)c([H])c7[H])c(C(=O)N([H])[H])c6N([H])[H])C5([H])[H])c(C([H])([H])[H])c4Cl)C([H])([H])C3([H])[H])c([H])c([H])c2C1([H])[H]

$$$$
4:0:0
     RDKit          3D

100109  0  0  1  0  0  0  0  0999 V2000
  -32.9560  -17.4780   20.2700 C   0  0  0  0  0  3  0  0  0  0  0  0
  -31.3040  -19.6830   20.8370 C   0  0  0  0  0  0  0  0  0  0  0  0
  -32.3000  -19.7800   19.8260 C   0  0  0  0  0  0  0  0  0  0  0  0
  -31.9200  -17.3350   21.2100 C   0  0  0  0  0  0  0  0  0  0  0  0
  -31.0560  -18.4290   21.4770 C   0  0  0  0  0  0  0  0  0  0  0  0
  -33.1290  -18.6650   19.5520 C   0  0  0  0  0  0  0  0  0  0  0  0
  -30.5410  -20.9400   21.2680 C   0  0  0  0  0  2  0  0  0  0  0  0
  -32.4640  -21.0630   19.0140 C   0  0  0  0  0  2  0  0  0  0  0  0
  -29.5810  -21.5120   20.2120 C   0  0  0  0  0  2  0  0  0  0  0  0
  -31.1730  -21.4950   18.2970 C   0  0  0  0  0  2  0  0  0  0  0  0
  -30.2980  -22.3060   19.1780 N   0  0  1  0  0  4  0  0  0  0  0  0
  -34.3820  -18.6970   18.3590 Cl  0  0  0  0  0  0  0  0  0  0  0  0
  -30.9490  -22.8810   19.6900 H   0  0  0  0  0  0  0  0  0  0  0  0
  -29.8760  -18.2500   22.4400 C   0  0  0  0  0  3  0  0  0  0  0  0
  -28.7490  -18.7440   21.9270 F   0  0  0  0  0  0  0  0  0  0  0  0
  -30.1330  -18.8220   23.6160 F   0  0  0  0  0  0  0  0  0  0  0  0
  -28.3220  -22.6730   17.6260 C   0  0  0  0  0  1  0  0  0  0  0  0
  -29.4630  -23.3110   18.4480 C   0  0  0  0  0  3  0  0  0  0  0  0
  -28.9500  -24.4150   19.4080 C   0  0  0  0  0  2  0  0  0  0  0  0
  -29.0120  -25.8310   18.8080 C   0  0  0  0  0  2  0  0  0  0  0  0
  -28.7280  -26.8090   19.8110 O   0  0  0  0  0  0  0  0  0  0  0  0
  -24.5670  -31.5700   23.0580 C   0  0  0  0  0  0  0  0  0  0  0  0
  -27.4870  -27.4040   19.8430 C   0  0  0  0  0  0  0  0  0  0  0  0
  -23.4610  -30.1790   21.3370 C   0  0  0  0  0  3  0  0  0  0  0  0
  -25.0120  -28.7670   19.8920 C   0  0  0  0  0  0  0  0  0  0  0  0
  -25.9650  -30.6720   21.1990 C   0  0  0  0  0  2  0  0  0  0  0  0
  -26.1300  -29.3280   20.5210 C   0  0  0  0  0  0  0  0  0  0  0  0
  -27.3680  -28.6490   20.5000 C   0  0  0  0  0  3  0  0  0  0  0  0
  -26.3400  -26.8350   19.2430 C   0  0  0  0  0  3  0  0  0  0  0  0
  -25.1100  -27.5160   19.2600 C   0  0  0  0  0  3  0  0  0  0  0  0
  -23.7290  -29.5620   19.9380 C   0  0  0  0  0  2  0  0  0  0  0  0
  -24.6820  -30.8200   21.9240 N   0  0  0  0  0  0  0  0  0  0  0  0
  -23.4630  -31.7650   23.5870 O   0  0  0  0  0  0  0  0  0  0  0  0
  -22.8440  -29.0890   22.2430 C   0  0  0  0  0  0  0  0  0  0  0  0
  -21.5230  -28.8840   22.1170 N   0  0  0  0  0  0  0  0  0  0  0  0
  -23.5500  -28.4310   23.0100 O   0  0  0  0  0  0  0  0  0  0  0  0
  -21.0110  -29.4820   21.4830 H   0  0  0  0  0  0  0  0  0  0  0  0
  -18.1720  -27.6280   22.6080 C   0  0  0  0  0  0  0  0  0  0  0  0
  -20.7340  -27.8830   22.8340 C   0  0  0  0  0  3  0  0  0  0  0  0
  -20.8290  -26.5000   22.1500 C   0  0  0  0  0  2  0  0  0  0  0  0
  -19.7030  -26.2460   21.1400 C   0  0  0  0  0  2  0  0  0  0  0  0
  -18.3390  -26.3330   21.8310 C   0  0  0  0  0  2  0  0  0  0  0  0
  -19.2970  -28.3650   23.0660 C   0  0  0  0  0  0  0  0  0  0  0  0
  -19.0860  -29.5820   23.7500 C   0  0  0  0  0  3  0  0  0  0  0  0
  -17.7820  -30.0630   23.9800 C   0  0  0  0  0  3  0  0  0  0  0  0
  -16.6730  -29.3220   23.5400 C   0  0  0  0  0  3  0  0  0  0  0  0
  -16.8700  -28.1050   22.8620 C   0  0  0  0  0  3  0  0  0  0  0  0
  -25.8080  -32.2350   23.7310 C   0  0  0  0  0  3  0  0  0  0  0  0
  -25.4490  -33.6250   24.0420 N   0  0  0  0  0  0  0  0  0  0  0  0
  -25.7930  -34.6830   23.2940 C   0  0  0  0  0  0  0  0  0  0  0  0
  -26.5140  -34.5920   22.2970 O   0  0  0  0  0  0  0  0  0  0  0  0
  -24.8130  -33.7660   24.8130 H   0  0  0  0  0  0  0  0  0  0  0  0
  -24.0300  -36.4230   22.8560 C   0  0  0  0  0  1  0  0  0  0  0  0
  -25.2500  -36.0600   23.7190 C   0  0  0  0  0  3  0  0  0  0  0  0
  -27.3180  -37.0200   24.6300 C   0  0  0  0  0  1  0  0  0  0  0  0
  -26.2560  -37.1420   23.6360 N   0  0  0  0  0  0  0  0  0  0  0  0
  -25.8180  -38.0520   23.7490 H   0  0  0  0  0  0  0  0  0  0  0  0
  -26.2910  -31.4790   25.0300 C   0  0  1  0  0  0  0  0  0  0  0  0
  -25.1610  -31.2130   26.0560 C   0  0  0  0  0  1  0  0  0  0  0  0
  -26.9210  -30.1170   24.6540 C   0  0  0  0  0  1  0  0  0  0  0  0
  -27.3980  -32.2970   25.7350 C   0  0  0  0  0  1  0  0  0  0  0  0
  -31.7940  -15.9860   21.9130 C   0  0  0  0  0  2  0  0  0  0  0  0
  -31.0540  -14.4810   20.0710 C   0  0  0  0  0  0  0  0  0  0  0  0
  -30.4960  -12.5400   18.6590 C   0  0  0  0  0  2  0  0  0  0  0  0
  -29.4440  -12.8710   17.5880 C   0  0  0  0  0  2  0  0  0  0  0  0
  -28.0250  -12.6920   18.1540 C   0  0  0  0  0  2  0  0  0  0  0  0
  -27.8320  -13.4270   19.5080 C   0  0  0  0  0  3  0  0  0  0  0  0
  -28.9820  -13.1010   20.4860 C   0  0  0  0  0  2  0  0  0  0  0  0
  -30.2640  -13.4060   19.8240 N   0  0  0  0  0  0  0  0  0  0  0  0
  -31.9610  -14.8320   19.3130 O   0  0  0  0  0  0  0  0  0  0  0  0
  -30.8670  -15.0600   21.2650 N   0  0  0  0  0  0  0  0  0  0  0  0
  -30.1230  -14.6770   21.8300 H   0  0  0  0  0  0  0  0  0  0  0  0
  -25.5240  -13.9880   20.5000 C   0  0  0  0  0  0  0  0  0  0  0  0
  -24.4860  -13.1920   20.9090 C   0  0  0  0  0  0  0  0  0  0  0  0
  -24.9230  -11.8470   20.7180 C   0  0  0  0  0  0  0  0  0  0  0  0
  -26.5280  -13.1240   20.0940 N   0  0  0  0  0  0  0  0  0  0  0  0
  -26.1740  -11.8260   20.2780 N   0  0  0  0  0  0  0  0  0  0  0  0
  -24.2020  -10.5770   20.8750 C   0  0  0  0  0  0  0  0  0  0  0  0
  -24.6570   -9.5740   21.7590 C   0  0  0  0  0  3  0  0  0  0  0  0
  -23.9370   -8.3680   21.9060 C   0  0  0  0  0  3  0  0  0  0  0  0
  -22.7490   -8.1570   21.1670 C   0  0  0  0  0  0  0  0  0  0  0  0
  -22.3130   -9.1490   20.2710 C   0  0  0  0  0  3  0  0  0  0  0  0
  -23.0330  -10.3460   20.1220 C   0  0  0  0  0  3  0  0  0  0  0  0
  -21.9970   -7.0080   21.2260 O   0  0  0  0  0  0  0  0  0  0  0  0
  -21.9030   -6.2680   22.3770 C   0  0  0  0  0  0  0  0  0  0  0  0
  -21.4050   -6.8160   23.5780 C   0  0  0  0  0  3  0  0  0  0  0  0
  -21.2610   -6.0010   24.7190 C   0  0  0  0  0  3  0  0  0  0  0  0
  -21.6050   -4.6380   24.6580 C   0  0  0  0  0  0  0  0  0  0  0  0
  -22.0970   -4.0880   23.4610 C   0  0  0  0  0  3  0  0  0  0  0  0
  -22.2430   -4.9000   22.3220 C   0  0  0  0  0  0  0  0  0  0  0  0
  -22.6970   -4.3610   21.1660 F   0  0  0  0  0  0  0  0  0  0  0  0
  -21.4590   -3.8510   25.7500 F   0  0  0  0  0  0  0  0  0  0  0  0
  -23.1310  -13.6530   21.3610 C   0  0  0  0  0  0  0  0  0  0  0  0
  -22.4990  -12.9060   22.2600 N   0  0  0  0  0  0  0  0  0  0  0  0
  -22.6460  -14.7070   20.9550 O   0  0  0  0  0  0  0  0  0  0  0  0
  -22.9050  -12.0480   22.6060 H   0  0  0  0  0  0  0  0  0  0  0  0
  -21.5930  -13.1910   22.6020 H   0  0  0  0  0  0  0  0  0  0  0  0
  -25.6910  -15.3670   20.4230 N   0  0  0  0  0  0  0  0  0  0  0  0
  -24.9540  -16.0180   20.6660 H   0  0  0  0  0  0  0  0  0  0  0  0
  -26.5190  -15.8240   20.0620 H   0  0  0  0  0  0  0  0  0  0  0  0
  1  4  1  0
  2  7  1  0
  2  5  1  0
  3  2  2  0
  4  5  2  0
  4 62  1  0
  5 14  1  0
  6  3  1  0
  6  1  2  0
  8  3  1  0
  9  7  1  0
 10  8  1  0
 10 11  1  0
 11 13  1  1
 11  9  1  0
 12  6  1  0
 14 16  1  0
 15 14  1  0
 18 17  1  0
 18 11  1  0
 18 19  1  0
 20 19  1  0
 20 21  1  0
 21 23  1  0
 22 33  2  0
 23 28  1  0
 24 32  1  0
 24 34  1  0
 25 31  1  0
 25 27  1  0
 26 32  1  0
 27 26  1  0
 28 27  2  0
 29 30  1  0
 29 23  2  0
 30 25  2  0
 31 24  1  0
 32 22  1  0
 34 36  2  0
 35 34  1  0
 37 35  1  0
 38 47  2  0
 38 43  1  0
 39 35  1  0
 39 43  1  0
 40 39  1  0
 41 42  1  0
 41 40  1  0
 42 38  1  0
 43 44  2  0
 44 45  1  0
 46 45  2  0
 47 46  1  0
 48 22  1  0
 48 49  1  0
 48 58  1  0
 49 52  1  0
 50 54  1  0
 50 49  1  0
 51 50  2  0
 54 53  1  0
 56 54  1  0
 56 57  1  0
 56 55  1  0
 58 61  1  1
 58 59  1  0
 60 58  1  0
 63 71  1  0
 64 69  1  0
 65 66  1  0
 65 64  1  0
 67 66  1  0
 67 76  1  0
 67 68  1  0
 69 63  1  0
 69 68  1  0
 70 63  2  0
 71 72  1  0
 71 62  1  0
 73 74  2  0
 74 93  1  0
 75 78  1  0
 75 74  1  0
 76 77  1  0
 76 73  1  0
 77 75  2  0
 78 79  1  0
 79 80  2  0
 81 84  1  0
 81 80  1  0
 82 81  2  0
 83 82  1  0
 83 78  2  0
 84 85  1  0
 85 86  1  0
 86 87  2  0
 88 87  1  0
 88 92  1  0
 89 88  2  0
 90 85  2  0
 90 89  1  0
 91 90  1  0
 93 94  1  0
 94 97  1  0
 94 96  1  0
 95 93  2  0
 98 73  1  0
 98 99  1  0
100 98  1  0
M  ISO  4  20 101  21 101  63 100  71 100
M  END
>  <TORSDO>  (5) 
F 21

>  <SCORE>  (5) 
-9.182

>  <name>  (5) 
4

>  <ligand_id>  (5) 
4

>  <original_smiles>  (5) 
[H]c1c([H])c([H])c2c(c1[H])C([H])([H])C([H])([H])C([H])([H])C2([H])N([H])C(=O)C1([H])N(C(=O)C([H])(N([H])C(=O)C([H])(N([H])C([H])([H])[H])C([H])([H])[H])C(C([H])([H])[H])(C([H])([H])[H])C([H])([H])[H])C([H])([H])c2c([H])c(OC([H])([H])C([H])([H])C([H])(C([H])([H])[H])[N+]3([H])C([H])([H])C([H])([H])c4c(Cl)c([H])c(C([H])([H])N([H])C(=O)N5C([H])([H])C([H])([H])C([H])([H])C([H])(n6nc(-c7c([H])c([H])c(Oc8c([H])c([H])c(F)c([H])c8F)c([H])c7[H])c(C(=O)N([H])[H])c6N([H])[H])C5([H])[H])c(C([H])(F)F)c4C([H])([H])C3([H])[H])c([H])c([H])c2C1([H])[H]

>  <smiles>  (5) 
[H]c1c([H])c([H])c2c(c1[H])C([H])([H])C([H])([H])C([H])([H])C2([H])N([H])C(=O)C1([H])N(C(=O)C([H])(N([H])C(=O)C([H])(N([H])C([H])([H])[H])C([H])([H])[H])C(C([H])([H])[H])(C([H])([H])[H])C([H])([H])[H])C([H])([H])c2c([H])c(OC([H])([H])C([H])([H])C([H])(C([H])([H])[H])[N+]3([H])C([H])([H])C([H])([H])c4c(Cl)c([H])c(C([H])([H])N([H])C(=O)N5C([H])([H])C([H])([H])C([H])([H])C([H])(n6nc(-c7c([H])c([H])c(Oc8c([H])c([H])c(F)c([H])c8F)c([H])c7[H])c(C(=O)N([H])[H])c6N([H])[H])C5([H])[H])c(C([H])(F)F)c4C([H])([H])C3([H])[H])c([H])c([H])c2C1([H])[H]

$$$$
5:0:0
     RDKit          3D

 98106  0  0  1  0  0  0  0  0999 V2000
  -29.3570  -18.1220   18.2810 C   0  0  0  0  0  3  0  0  0  0  0  0
  -29.2530  -19.5370   18.0440 C   0  0  0  0  0  0  0  0  0  0  0  0
  -29.1600  -17.8100   19.5960 C   0  0  0  0  0  0  0  0  0  0  0  0
  -29.0530  -20.1260   19.2910 C   0  0  0  0  0  0  0  0  0  0  0  0
  -28.3940  -19.2910   21.5810 C   0  0  0  0  0  1  0  0  0  0  0  0
  -28.8780  -19.0590   20.2100 N   0  0  0  0  0  0  0  0  0  0  0  0
  -28.1110  -21.0500   16.3600 C   0  0  0  0  0  1  0  0  0  0  0  0
  -29.2990  -19.0780   15.5270 C   0  0  0  0  0  1  0  0  0  0  0  0
  -30.6350  -20.9490   16.4330 C   0  0  0  0  0  1  0  0  0  0  0  0
  -29.3330  -20.1600   16.6330 C   0  0  2  0  0  0  0  0  0  0  0  0
  -29.0600  -16.3990   20.2410 C   0  0  0  0  0  2  0  0  0  0  0  0
  -30.6150  -14.4490   19.5450 C   0  0  0  0  0  0  0  0  0  0  0  0
  -30.1800  -12.2270   18.5060 C   0  0  0  0  0  2  0  0  0  0  0  0
  -29.1190  -12.3660   17.3970 C   0  0  0  0  0  2  0  0  0  0  0  0
  -27.7000  -12.2470   17.9850 C   0  0  0  0  0  2  0  0  0  0  0  0
  -27.5130  -13.1260   19.2500 C   0  0  0  0  0  3  0  0  0  0  0  0
  -28.6680  -12.9620   20.2540 C   0  0  0  0  0  2  0  0  0  0  0  0
  -29.9170  -13.2610   19.5370 N   0  0  0  0  0  0  0  0  0  0  0  0
  -31.6460  -14.5400   18.8650 O   0  0  0  0  0  0  0  0  0  0  0  0
  -30.2670  -15.4870   20.4040 N   0  0  0  0  0  0  0  0  0  0  0  0
  -25.2400  -13.8090   20.2370 C   0  0  0  0  0  0  0  0  0  0  0  0
  -24.1950  -13.0750   20.7170 C   0  0  0  0  0  0  0  0  0  0  0  0
  -24.5890  -11.7100   20.6090 C   0  0  0  0  0  0  0  0  0  0  0  0
  -26.2170  -12.8980   19.8740 N   0  0  0  0  0  0  0  0  0  0  0  0
  -25.8330  -11.6280   20.1570 N   0  0  0  0  0  0  0  0  0  0  0  0
  -23.8440  -10.4730   20.8590 C   0  0  0  0  0  0  0  0  0  0  0  0
  -24.2900   -9.5110   21.7910 C   0  0  0  0  0  3  0  0  0  0  0  0
  -23.5430   -8.3370   22.0200 C   0  0  0  0  0  3  0  0  0  0  0  0
  -22.3340   -8.1160   21.3170 C   0  0  0  0  0  0  0  0  0  0  0  0
  -21.9070   -9.0680   20.3740 C   0  0  0  0  0  3  0  0  0  0  0  0
  -22.6550  -10.2330   20.1440 C   0  0  0  0  0  3  0  0  0  0  0  0
  -21.5550   -6.9960   21.4630 O   0  0  0  0  0  0  0  0  0  0  0  0
  -21.5040   -6.2990   22.6450 C   0  0  0  0  0  0  0  0  0  0  0  0
  -21.0600   -6.8990   23.8410 C   0  0  0  0  0  3  0  0  0  0  0  0
  -20.9570   -6.1310   25.0190 C   0  0  0  0  0  3  0  0  0  0  0  0
  -21.2910   -4.7630   24.9990 C   0  0  0  0  0  0  0  0  0  0  0  0
  -21.7260   -4.1620   23.8040 C   0  0  0  0  0  3  0  0  0  0  0  0
  -21.8290   -4.9280   22.6290 C   0  0  0  0  0  0  0  0  0  0  0  0
  -22.2340   -4.3440   21.4780 F   0  0  0  0  0  0  0  0  0  0  0  0
  -21.1810   -4.0200   26.1230 F   0  0  0  0  0  0  0  0  0  0  0  0
  -22.8560  -13.6000   21.1570 C   0  0  0  0  0  0  0  0  0  0  0  0
  -22.1990  -12.9170   22.0840 N   0  0  0  0  0  0  0  0  0  0  0  0
  -22.4110  -14.6540   20.7030 O   0  0  0  0  0  0  0  0  0  0  0  0
  -22.5730  -12.0700   22.4810 H   0  0  0  0  0  0  0  0  0  0  0  0
  -21.2970  -13.2470   22.4080 H   0  0  0  0  0  0  0  0  0  0  0  0
  -25.4340  -15.1780   20.0560 N   0  0  0  0  0  0  0  0  0  0  0  0
  -24.6880  -15.8370   20.2480 H   0  0  0  0  0  0  0  0  0  0  0  0
  -26.1950  -15.5750   19.5300 H   0  0  0  0  0  0  0  0  0  0  0  0
  -32.1900  -15.0030   22.0030 C   0  0  0  0  0  1  0  0  0  0  0  0
  -30.7750  -17.0210   22.3820 C   0  0  0  0  0  1  0  0  0  0  0  0
  -31.3290  -16.0720   21.2810 C   0  0  0  0  0  3  0  0  0  0  0  0
  -29.0680  -21.6170   19.7860 C   0  0  0  0  0  2  0  0  0  0  0  0
  -28.1370  -22.6160   19.1810 N   0  0  0  0  0  4  0  0  0  0  0  0
  -27.2030  -22.4980   19.5400 H   0  0  0  0  0  0  0  0  0  0  0  0
  -28.0740  -22.3350   18.2180 H   0  0  0  0  0  0  0  0  0  0  0  0
  -28.5380  -24.0840   19.1690 C   0  0  0  0  0  3  0  0  0  0  0  0
  -28.1920  -24.9480   20.4290 C   0  0  0  0  0  3  0  0  0  0  0  0
  -28.4210  -26.3970   20.2860 O   0  0  0  0  0  0  0  0  0  0  0  0
  -24.5460  -31.6640   23.2260 C   0  0  0  0  0  0  0  0  0  0  0  0
  -27.3020  -27.2150   20.1980 C   0  0  0  0  0  0  0  0  0  0  0  0
  -23.4240  -30.3010   21.4980 C   0  0  0  0  0  3  0  0  0  0  0  0
  -24.9430  -28.7900   20.1050 C   0  0  0  0  0  0  0  0  0  0  0  0
  -25.9580  -30.6440   21.4390 C   0  0  0  0  0  2  0  0  0  0  0  0
  -26.0730  -29.2810   20.7690 C   0  0  0  0  0  0  0  0  0  0  0  0
  -27.2590  -28.5010   20.8090 C   0  0  0  0  0  3  0  0  0  0  0  0
  -26.1610  -26.7740   19.4970 C   0  0  0  0  0  3  0  0  0  0  0  0
  -24.9850  -27.5460   19.4580 C   0  0  0  0  0  3  0  0  0  0  0  0
  -23.6990  -29.6530   20.1120 C   0  0  0  0  0  2  0  0  0  0  0  0
  -24.6620  -30.8810   22.1150 N   0  0  0  0  0  0  0  0  0  0  0  0
  -23.4420  -31.9220   23.7250 O   0  0  0  0  0  0  0  0  0  0  0  0
  -22.7280  -29.2540   22.4010 C   0  0  0  0  0  0  0  0  0  0  0  0
  -21.4010  -29.1060   22.2390 N   0  0  0  0  0  0  0  0  0  0  0  0
  -23.3800  -28.5850   23.2080 O   0  0  0  0  0  0  0  0  0  0  0  0
  -20.9370  -29.6910   21.5570 H   0  0  0  0  0  0  0  0  0  0  0  0
  -17.9900  -28.0090   22.6660 C   0  0  0  0  0  0  0  0  0  0  0  0
  -20.5550  -28.1560   22.9580 C   0  0  0  0  0  3  0  0  0  0  0  0
  -20.6060  -26.7560   22.3000 C   0  0  0  0  0  2  0  0  0  0  0  0
  -19.4980  -26.5320   21.2670 C   0  0  0  0  0  2  0  0  0  0  0  0
  -18.1190  -26.6940   21.9170 C   0  0  0  0  0  2  0  0  0  0  0  0
  -19.1350  -28.7010   23.1420 C   0  0  0  0  0  0  0  0  0  0  0  0
  -18.9620  -29.9370   23.8010 C   0  0  0  0  0  3  0  0  0  0  0  0
  -17.6760  -30.4800   23.9950 C   0  0  0  0  0  3  0  0  0  0  0  0
  -16.5450  -29.7780   23.5430 C   0  0  0  0  0  3  0  0  0  0  0  0
  -16.6990  -28.5470   22.8780 C   0  0  0  0  0  3  0  0  0  0  0  0
  -25.8020  -32.2830   23.9150 C   0  0  0  0  0  3  0  0  0  0  0  0
  -25.4980  -33.6900   24.2020 N   0  0  0  0  0  0  0  0  0  0  0  0
  -25.8860  -34.7240   23.4430 C   0  0  0  0  0  0  0  0  0  0  0  0
  -26.6060  -34.5920   22.4490 O   0  0  0  0  0  0  0  0  0  0  0  0
  -24.8660  -33.8650   24.9710 H   0  0  0  0  0  0  0  0  0  0  0  0
  -24.1960  -36.5300   22.9730 C   0  0  0  0  0  1  0  0  0  0  0  0
  -25.3930  -36.1280   23.8480 C   0  0  0  0  0  3  0  0  0  0  0  0
  -27.4890  -37.0150   24.7730 C   0  0  0  0  0  1  0  0  0  0  0  0
  -26.4420  -37.1650   23.7640 N   0  0  0  0  0  0  0  0  0  0  0  0
  -26.0390  -38.0920   23.8650 H   0  0  0  0  0  0  0  0  0  0  0  0
  -26.2290  -31.5230   25.2310 C   0  0  1  0  0  0  0  0  0  0  0  0
  -25.0680  -31.3110   26.2320 C   0  0  0  0  0  1  0  0  0  0  0  0
  -26.8170  -30.1330   24.8950 C   0  0  0  0  0  1  0  0  0  0  0  0
  -27.3440  -32.3100   25.9560 C   0  0  0  0  0  1  0  0  0  0  0  0
  1  3  2  0
  2  1  1  0
  2  4  2  0
  3  6  1  0
  3 11  1  0
  4 52  1  0
  4  6  1  0
  6  5  1  0
 10  7  1  6
  8 10  1  0
  9 10  1  0
 10  2  1  0
 11 20  1  0
 12 20  1  0
 13 18  1  0
 14 15  1  0
 14 13  1  0
 16 15  1  0
 16 24  1  0
 16 17  1  0
 18 12  1  0
 18 17  1  0
 19 12  2  0
 20 51  1  0
 21 22  2  0
 22 41  1  0
 23 22  1  0
 23 26  1  0
 24 25  1  0
 24 21  1  0
 25 23  2  0
 26 27  1  0
 27 28  2  0
 29 32  1  0
 29 28  1  0
 30 29  2  0
 31 30  1  0
 31 26  2  0
 32 33  1  0
 33 34  1  0
 34 35  2  0
 36 35  1  0
 36 40  1  0
 37 36  2  0
 38 33  2  0
 38 37  1  0
 39 38  1  0
 41 42  1  0
 42 45  1  0
 42 44  1  0
 43 41  2  0
 46 21  1  0
 46 47  1  0
 48 46  1  0
 51 49  1  0
 51 50  1  0
 53 54  1  0
 53 52  1  0
 55 53  1  0
 56 53  1  0
 56 57  2  0
 58 57  1  0
 59 70  2  0
 60 58  1  0
 60 65  1  0
 61 69  1  0
 61 71  1  0
 62 68  1  0
 62 64  1  0
 63 69  1  0
 64 65  2  0
 64 63  1  0
 66 60  2  0
 67 66  1  0
 67 62  2  0
 68 61  1  0
 69 59  1  0
 71 73  2  0
 72 71  1  0
 74 72  1  0
 75 84  2  0
 75 80  1  0
 76 72  1  0
 76 80  1  0
 77 76  1  0
 78 79  1  0
 78 77  1  0
 79 75  1  0
 80 81  2  0
 81 82  1  0
 83 82  2  0
 84 83  1  0
 85 59  1  0
 85 86  1  0
 85 95  1  0
 86 89  1  0
 87 91  1  0
 87 86  1  0
 88 87  2  0
 91 90  1  0
 93 91  1  0
 93 94  1  0
 93 92  1  0
 95 98  1  1
 95 96  1  0
 97 95  1  0
M  ISO  4  12 100  20 100  57 101  58 101
M  END
>  <TORSDO>  (6) 
F 23

>  <SCORE>  (6) 
-9.161

>  <name>  (6) 
5

>  <ligand_id>  (6) 
5

>  <original_smiles>  (6) 
[H]c1c([H])c([H])c2c(c1[H])C([H])([H])C([H])([H])C([H])([H])C2([H])N([H])C(=O)C1([H])N(C(=O)C([H])(N([H])C(=O)C([H])(N([H])C([H])([H])[H])C([H])([H])[H])C(C([H])([H])[H])(C([H])([H])[H])C([H])([H])[H])C([H])([H])c2c([H])c(OC([H])([H])C([H])([H])[N+]([H])([H])C([H])([H])c3c(C(C([H])([H])[H])(C([H])([H])[H])C([H])([H])[H])c([H])c(C([H])([H])N(C(=O)N4C([H])([H])C([H])([H])C([H])([H])C([H])(n5nc(-c6c([H])c([H])c(Oc7c([H])c([H])c(F)c([H])c7F)c([H])c6[H])c(C(=O)N([H])[H])c5N([H])[H])C4([H])[H])C([H])(C([H])([H])[H])C([H])([H])[H])n3C([H])([H])[H])c([H])c([H])c2C1([H])[H]

>  <smiles>  (6) 
[H]c1c([H])c([H])c2c(c1[H])C([H])([H])C([H])([H])C([H])([H])C2([H])N([H])C(=O)C1([H])N(C(=O)C([H])(N([H])C(=O)C([H])(N([H])C([H])([H])[H])C([H])([H])[H])C(C([H])([H])[H])(C([H])([H])[H])C([H])([H])[H])C([H])([H])c2c([H])c(OC([H])([H])C([H])([H])[N+]([H])([H])C([H])([H])c3c(C(C([H])([H])[H])(C([H])([H])[H])C([H])([H])[H])c([H])c(C([H])([H])N(C(=O)N4C([H])([H])C([H])([H])C([H])([H])C([H])(n5nc(-c6c([H])c([H])c(Oc7c([H])c([H])c(F)c([H])c7F)c([H])c6[H])c(C(=O)N([H])[H])c5N([H])[H])C4([H])[H])C([H])(C([H])([H])[H])C([H])([H])[H])n3C([H])([H])[H])c([H])c([H])c2C1([H])[H]

$$$$
6:0:0
     RDKit          3D

 92100  0  0  1  0  0  0  0  0999 V2000
  -30.4410  -20.6530   21.1430 C   0  0  0  0  0  3  0  0  0  0  0  0
  -29.8150  -17.8330   20.4880 C   0  0  0  0  0  0  0  0  0  0  0  0
  -29.2710  -20.4770   20.3810 C   0  0  0  0  0  0  0  0  0  0  0  0
  -31.2340  -19.5670   21.6090 C   0  0  0  0  0  0  0  0  0  0  0  0
  -29.0000  -19.0260   20.0660 C   0  0  0  0  0  0  0  0  0  0  0  0
  -30.9130  -18.2100   21.3180 C   0  0  0  0  0  0  0  0  0  0  0  0
  -27.8930  -18.7630   19.3310 F   0  0  0  0  0  0  0  0  0  0  0  0
  -31.8830  -17.0200   22.1270 Cl  0  0  0  0  0  0  0  0  0  0  0  0
  -30.2810  -15.1160   19.9880 C   0  0  0  0  0  0  0  0  0  0  0  0
  -30.1180  -12.7890   18.9470 C   0  0  0  0  0  2  0  0  0  0  0  0
  -29.1020  -12.7530   17.7810 C   0  0  0  0  0  2  0  0  0  0  0  0
  -27.6790  -12.4920   18.3090 C   0  0  0  0  0  2  0  0  0  0  0  0
  -27.3410  -13.3650   19.5460 C   0  0  0  0  0  3  0  0  0  0  0  0
  -28.4750  -13.3740   20.5930 C   0  0  0  0  0  2  0  0  0  0  0  0
  -29.6820  -13.8500   19.9060 N   0  0  0  0  0  0  0  0  0  0  0  0
  -31.4580  -15.1660   19.6140 O   0  0  0  0  0  0  0  0  0  0  0  0
  -29.5160  -16.3150   20.2290 N   0  0  0  0  0  0  0  0  0  0  0  0
  -28.5280  -16.1160   20.2500 H   0  0  0  0  0  0  0  0  0  0  0  0
  -25.0120  -13.8720   20.4670 C   0  0  0  0  0  0  0  0  0  0  0  0
  -23.9890  -13.0650   20.8820 C   0  0  0  0  0  0  0  0  0  0  0  0
  -24.4720  -11.7250   20.7760 C   0  0  0  0  0  0  0  0  0  0  0  0
  -26.0490  -13.0210   20.1270 N   0  0  0  0  0  0  0  0  0  0  0  0
  -25.7400  -11.7220   20.3790 N   0  0  0  0  0  0  0  0  0  0  0  0
  -23.7790  -10.4440   20.9710 C   0  0  0  0  0  0  0  0  0  0  0  0
  -24.2460   -9.4840   21.8950 C   0  0  0  0  0  3  0  0  0  0  0  0
  -23.5500   -8.2690   22.0790 C   0  0  0  0  0  3  0  0  0  0  0  0
  -22.3710   -8.0070   21.3400 C   0  0  0  0  0  0  0  0  0  0  0  0
  -21.9230   -8.9580   20.4060 C   0  0  0  0  0  3  0  0  0  0  0  0
  -22.6210  -10.1620   20.2190 C   0  0  0  0  0  3  0  0  0  0  0  0
  -21.6440   -6.8460   21.4350 O   0  0  0  0  0  0  0  0  0  0  0  0
  -21.5920   -6.1220   22.6000 C   0  0  0  0  0  0  0  0  0  0  0  0
  -21.1080   -6.6800   23.8030 C   0  0  0  0  0  3  0  0  0  0  0  0
  -21.0060   -5.8810   24.9590 C   0  0  0  0  0  3  0  0  0  0  0  0
  -21.3780   -4.5250   24.9130 C   0  0  0  0  0  0  0  0  0  0  0  0
  -21.8560   -3.9650   23.7140 C   0  0  0  0  0  3  0  0  0  0  0  0
  -21.9590   -4.7610   22.5600 C   0  0  0  0  0  0  0  0  0  0  0  0
  -22.3990   -4.2130   21.4030 F   0  0  0  0  0  0  0  0  0  0  0  0
  -21.2740   -3.7540   26.0210 F   0  0  0  0  0  0  0  0  0  0  0  0
  -22.6040  -13.5080   21.2570 C   0  0  0  0  0  0  0  0  0  0  0  0
  -21.9420  -12.7690   22.1390 N   0  0  0  0  0  0  0  0  0  0  0  0
  -22.1210  -14.5460   20.8040 O   0  0  0  0  0  0  0  0  0  0  0  0
  -22.3470  -11.9300   22.5260 H   0  0  0  0  0  0  0  0  0  0  0  0
  -21.0160  -13.0470   22.4330 H   0  0  0  0  0  0  0  0  0  0  0  0
  -25.1370  -15.2500   20.3230 N   0  0  0  0  0  0  0  0  0  0  0  0
  -24.3600  -15.8770   20.5000 H   0  0  0  0  0  0  0  0  0  0  0  0
  -25.9320  -15.7180   19.9090 H   0  0  0  0  0  0  0  0  0  0  0  0
  -32.7480  -21.0890   22.7330 C   0  0  0  0  0  1  0  0  0  0  0  0
  -32.3540  -19.7630   22.3980 O   0  0  0  0  0  0  0  0  0  0  0  0
  -28.4970  -21.6940   20.0190 O   0  0  0  0  0  0  0  0  0  0  0  0
  -28.8000  -23.2030   20.3870 C   0  0  0  0  0  3  0  0  0  0  0  0
  -27.8600  -24.6080   20.0480 C   0  0  0  0  0  3  0  0  0  0  0  0
  -28.1280  -26.1470   20.3370 O   0  0  0  0  0  0  0  0  0  0  0  0
  -24.6070  -31.9590   23.3200 C   0  0  0  0  0  0  0  0  0  0  0  0
  -27.1010  -27.1770   20.2670 C   0  0  0  0  0  0  0  0  0  0  0  0
  -23.3850  -30.5880   21.6770 C   0  0  0  0  0  3  0  0  0  0  0  0
  -24.8070  -28.9920   20.2410 C   0  0  0  0  0  0  0  0  0  0  0  0
  -25.9450  -30.8030   21.5110 C   0  0  0  0  0  2  0  0  0  0  0  0
  -25.9960  -29.4080   20.8520 C   0  0  0  0  0  0  0  0  0  0  0  0
  -27.1420  -28.5180   20.8460 C   0  0  0  0  0  3  0  0  0  0  0  0
  -25.8860  -26.8770   19.6120 C   0  0  0  0  0  3  0  0  0  0  0  0
  -24.7680  -27.7420   19.6040 C   0  0  0  0  0  3  0  0  0  0  0  0
  -23.5940  -29.9120   20.2950 C   0  0  0  0  0  2  0  0  0  0  0  0
  -24.6670  -31.1390   22.2240 N   0  0  0  0  0  0  0  0  0  0  0  0
  -23.5250  -32.2580   23.8490 O   0  0  0  0  0  0  0  0  0  0  0  0
  -22.6900  -29.5900   22.6370 C   0  0  0  0  0  0  0  0  0  0  0  0
  -21.3620  -29.4220   22.4970 N   0  0  0  0  0  0  0  0  0  0  0  0
  -23.3490  -28.9680   23.4740 O   0  0  0  0  0  0  0  0  0  0  0  0
  -20.8860  -29.9750   21.7980 H   0  0  0  0  0  0  0  0  0  0  0  0
  -17.9740  -28.2210   22.9630 C   0  0  0  0  0  0  0  0  0  0  0  0
  -20.5300  -28.4910   23.2640 C   0  0  0  0  0  3  0  0  0  0  0  0
  -20.6400  -27.0540   22.7030 C   0  0  0  0  0  2  0  0  0  0  0  0
  -19.5540  -26.7210   21.6760 C   0  0  0  0  0  2  0  0  0  0  0  0
  -18.1630  -26.8680   22.2990 C   0  0  0  0  0  2  0  0  0  0  0  0
  -19.0850  -28.9910   23.4020 C   0  0  0  0  0  0  0  0  0  0  0  0
  -18.8540  -30.2550   23.9850 C   0  0  0  0  0  3  0  0  0  0  0  0
  -17.5450  -30.7520   24.1310 C   0  0  0  0  0  3  0  0  0  0  0  0
  -16.4490  -29.9820   23.7070 C   0  0  0  0  0  3  0  0  0  0  0  0
  -16.6640  -28.7190   23.1290 C   0  0  0  0  0  3  0  0  0  0  0  0
  -25.8940  -32.5750   23.9480 C   0  0  0  0  0  3  0  0  0  0  0  0
  -26.3810  -31.8080   25.2400 C   0  0  1  0  0  0  0  0  0  0  0  0
  -25.2710  -31.6010   26.2970 C   0  0  0  0  0  1  0  0  0  0  0  0
  -26.9440  -30.4160   24.8750 C   0  0  0  0  0  1  0  0  0  0  0  0
  -27.5370  -32.5900   25.9070 C   0  0  0  0  0  1  0  0  0  0  0  0
  -25.6080  -33.9830   24.2680 N   0  0  0  0  0  0  0  0  0  0  0  0
  -25.9360  -35.0260   23.4940 C   0  0  0  0  0  0  0  0  0  0  0  0
  -26.5770  -34.9030   22.4460 O   0  0  0  0  0  0  0  0  0  0  0  0
  -25.0360  -34.1530   25.0820 H   0  0  0  0  0  0  0  0  0  0  0  0
  -24.2080  -36.8330   23.1960 C   0  0  0  0  0  1  0  0  0  0  0  0
  -25.4840  -36.4270   23.9520 C   0  0  0  0  0  3  0  0  0  0  0  0
  -27.6580  -37.3150   24.6720 C   0  0  0  0  0  1  0  0  0  0  0  0
  -26.5190  -37.4690   23.7720 N   0  0  0  0  0  0  0  0  0  0  0  0
  -26.1260  -38.3960   23.9140 H   0  0  0  0  0  0  0  0  0  0  0  0
  1  4  1  0
  2  6  1  0
  3  1  2  0
  4 48  1  0
  5  3  1  0
  5  2  2  0
  6  4  2  0
  6  8  1  0
  7  5  1  0
  9 17  1  0
 10 15  1  0
 11 12  1  0
 11 10  1  0
 13 12  1  0
 13 22  1  0
 13 14  1  0
 15  9  1  0
 15 14  1  0
 16  9  2  0
 17 18  1  0
 17  2  1  0
 19 20  2  0
 20 39  1  0
 21 20  1  0
 21 24  1  0
 22 23  1  0
 22 19  1  0
 23 21  2  0
 24 25  1  0
 25 26  2  0
 27 30  1  0
 27 26  1  0
 28 27  2  0
 29 28  1  0
 29 24  2  0
 30 31  1  0
 31 32  1  0
 32 33  2  0
 34 33  1  0
 34 38  1  0
 35 34  2  0
 36 31  2  0
 36 35  1  0
 37 36  1  0
 39 40  1  0
 40 43  1  0
 40 42  1  0
 41 39  2  0
 44 19  1  0
 44 45  1  0
 46 44  1  0
 48 47  1  0
 49  3  1  0
 49 50  1  0
 51 52  1  0
 51 50  2  0
 53 64  2  0
 54 52  1  0
 54 59  1  0
 55 63  1  0
 55 65  1  0
 56 62  1  0
 56 58  1  0
 57 63  1  0
 58 57  1  0
 59 58  2  0
 60 54  2  0
 61 60  1  0
 61 56  2  0
 62 55  1  0
 63 53  1  0
 65 67  2  0
 66 65  1  0
 68 66  1  0
 69 78  2  0
 69 74  1  0
 70 66  1  0
 70 74  1  0
 71 70  1  0
 72 73  1  0
 72 71  1  0
 73 69  1  0
 74 75  2  0
 75 76  1  0
 77 76  2  0
 78 77  1  0
 79 53  1  0
 79 84  1  0
 79 80  1  0
 80 83  1  1
 80 81  1  0
 82 80  1  0
 84 87  1  0
 85 89  1  0
 85 84  1  0
 86 85  2  0
 89 88  1  0
 91 92  1  0
 91 89  1  0
 91 90  1  0
M  ISO  4   9 100  17 100  51 101  52 101
M  END
>  <TORSDO>  (7) 
F 20

>  <SCORE>  (7) 
-13.826

>  <name>  (7) 
6

>  <ligand_id>  (7) 
6

>  <original_smiles>  (7) 
[H]c1c([H])c([H])c2c(c1[H])C([H])([H])C([H])([H])C([H])([H])C2([H])N([H])C(=O)C1([H])N(C(=O)C([H])(N([H])C(=O)C([H])(N([H])C([H])([H])[H])C([H])([H])[H])C(C([H])([H])[H])(C([H])([H])[H])C([H])([H])[H])C([H])([H])c2c([H])c(OC([H])([H])C([H])([H])Oc3c([H])c(OC([H])([H])[H])c(Cl)c(N([H])C(=O)N4C([H])([H])C([H])([H])C([H])([H])C([H])(n5nc(-c6c([H])c([H])c(Oc7c([H])c([H])c(F)c([H])c7F)c([H])c6[H])c(C(=O)N([H])[H])c5N([H])[H])C4([H])[H])c3F)c([H])c([H])c2C1([H])[H]

>  <smiles>  (7) 
[H]c1c([H])c([H])c2c(c1[H])C([H])([H])C([H])([H])C([H])([H])C2([H])N([H])C(=O)C1([H])N(C(=O)C([H])(N([H])C(=O)C([H])(N([H])C([H])([H])[H])C([H])([H])[H])C(C([H])([H])[H])(C([H])([H])[H])C([H])([H])[H])C([H])([H])c2c([H])c(OC([H])([H])C([H])([H])Oc3c([H])c(OC([H])([H])[H])c(Cl)c(N([H])C(=O)N4C([H])([H])C([H])([H])C([H])([H])C([H])(n5nc(-c6c([H])c([H])c(Oc7c([H])c([H])c(F)c([H])c7F)c([H])c6[H])c(C(=O)N([H])[H])c5N([H])[H])C4([H])[H])c3F)c([H])c([H])c2C1([H])[H]

$$$$
7:0:0
     RDKit          3D

 98108  0  0  1  0  0  0  0  0999 V2000
  -31.0890  -17.5680   19.5540 C   0  0  0  0  0  0  0  0  0  0  0  0
  -29.9380  -18.3090   19.4620 C   0  0  0  0  0  0  0  0  0  0  0  0
  -31.8890  -18.0540   18.4710 C   0  0  0  0  0  0  0  0  0  0  0  0
  -28.6650  -18.3500   20.2620 C   0  0  0  0  0  2  0  0  0  0  0  0
  -27.5860  -19.2840   19.6570 C   0  0  0  0  0  2  0  0  0  0  0  0
  -29.2290  -20.2580   18.0050 C   0  0  0  0  0  2  0  0  0  0  0  0
  -28.2260  -20.5900   19.1310 C   0  0  0  0  0  3  0  0  0  0  0  0
  -33.2640  -17.6260   18.0420 C   0  0  0  0  0  1  0  0  0  0  0  0
  -31.3050  -19.0330   17.8030 N   0  0  0  0  0  0  0  0  0  0  0  0
  -30.1320  -19.2110   18.4350 N   0  0  0  0  0  0  0  0  0  0  0  0
  -30.6770  -14.4080   19.5190 C   0  0  0  0  0  0  0  0  0  0  0  0
  -30.1600  -12.1790   18.6130 C   0  0  0  0  0  2  0  0  0  0  0  0
  -29.1170  -12.2220   17.4820 C   0  0  0  0  0  2  0  0  0  0  0  0
  -27.6980  -12.1110   18.0630 C   0  0  0  0  0  2  0  0  0  0  0  0
  -27.4570  -13.1210   19.2110 C   0  0  0  0  0  3  0  0  0  0  0  0
  -28.6060  -13.1040   20.2380 C   0  0  0  0  0  2  0  0  0  0  0  0
  -29.9020  -13.2840   19.5550 N   0  0  0  0  0  0  0  0  0  0  0  0
  -31.4570  -14.6070   18.5860 O   0  0  0  0  0  0  0  0  0  0  0  0
  -31.4420  -15.7100   22.7990 C   0  0  0  0  0  2  0  0  0  0  0  0
  -31.5890  -16.9870   21.9930 C   0  0  0  0  0  2  0  0  0  0  0  0
  -30.4420  -14.9000   21.9790 C   0  0  0  0  0  2  0  0  0  0  0  0
  -31.4980  -16.4890   20.5450 C   0  0  0  0  0  3  0  0  0  0  0  0
  -30.6530  -15.2760   20.5720 N   0  0  0  0  0  0  0  0  0  0  0  0
  -25.2080  -13.8110   20.2610 C   0  0  0  0  0  0  0  0  0  0  0  0
  -24.1630  -13.0750   20.7490 C   0  0  0  0  0  0  0  0  0  0  0  0
  -24.5450  -11.7050   20.6130 C   0  0  0  0  0  0  0  0  0  0  0  0
  -26.1650  -12.8920   19.8590 N   0  0  0  0  0  0  0  0  0  0  0  0
  -25.7770  -11.6180   20.1280 N   0  0  0  0  0  0  0  0  0  0  0  0
  -23.7870  -10.4720   20.8620 C   0  0  0  0  0  0  0  0  0  0  0  0
  -24.2580   -9.4810   21.7530 C   0  0  0  0  0  3  0  0  0  0  0  0
  -23.5020   -8.3120   21.9890 C   0  0  0  0  0  3  0  0  0  0  0  0
  -22.2610   -8.1260   21.3360 C   0  0  0  0  0  0  0  0  0  0  0  0
  -21.8090   -9.1030   20.4310 C   0  0  0  0  0  3  0  0  0  0  0  0
  -22.5650  -10.2630   20.1930 C   0  0  0  0  0  3  0  0  0  0  0  0
  -21.4710   -7.0110   21.4840 O   0  0  0  0  0  0  0  0  0  0  0  0
  -21.4320   -6.3090   22.6620 C   0  0  0  0  0  0  0  0  0  0  0  0
  -20.9940   -6.9000   23.8690 C   0  0  0  0  0  3  0  0  0  0  0  0
  -20.9030   -6.1220   25.0400 C   0  0  0  0  0  3  0  0  0  0  0  0
  -21.2380   -4.7560   25.0080 C   0  0  0  0  0  0  0  0  0  0  0  0
  -21.6670   -4.1640   23.8070 C   0  0  0  0  0  3  0  0  0  0  0  0
  -21.7600   -4.9390   22.6360 C   0  0  0  0  0  0  0  0  0  0  0  0
  -22.1540   -4.3590   21.4770 F   0  0  0  0  0  0  0  0  0  0  0  0
  -21.1420   -4.0070   26.1310 F   0  0  0  0  0  0  0  0  0  0  0  0
  -22.8400  -13.6050   21.2260 C   0  0  0  0  0  0  0  0  0  0  0  0
  -22.2150  -12.9250   22.1810 N   0  0  0  0  0  0  0  0  0  0  0  0
  -22.3770  -14.6550   20.7850 O   0  0  0  0  0  0  0  0  0  0  0  0
  -22.6060  -12.0720   22.5570 H   0  0  0  0  0  0  0  0  0  0  0  0
  -21.3340  -13.2590   22.5430 H   0  0  0  0  0  0  0  0  0  0  0  0
  -25.4220  -15.1770   20.1060 N   0  0  0  0  0  0  0  0  0  0  0  0
  -24.7210  -15.8710   20.3450 H   0  0  0  0  0  0  0  0  0  0  0  0
  -26.2500  -15.5790   19.6850 H   0  0  0  0  0  0  0  0  0  0  0  0
  -27.2390  -21.6150   18.7050 N   0  0  0  0  0  4  0  0  0  0  0  0
  -26.3300  -21.3430   19.0410 H   0  0  0  0  0  0  0  0  0  0  0  0
  -27.1850  -21.6370   17.7000 H   0  0  0  0  0  0  0  0  0  0  0  0
  -27.5440  -22.9670   19.2400 C   0  0  0  0  0  2  0  0  0  0  0  0
  -26.8090  -24.1200   18.5310 C   0  0  0  0  0  2  0  0  0  0  0  0
  -27.3120  -25.4870   19.0420 C   0  0  0  0  0  2  0  0  0  0  0  0
  -26.9550  -26.5800   18.2010 O   0  0  0  0  0  0  0  0  0  0  0  0
  -24.9830  -31.4320   23.0250 C   0  0  0  0  0  0  0  0  0  0  0  0
  -25.9770  -27.4030   18.6860 C   0  0  0  0  0  0  0  0  0  0  0  0
  -23.1890  -30.5570   21.5640 C   0  0  0  0  0  3  0  0  0  0  0  0
  -23.9600  -29.1540   19.5800 C   0  0  0  0  0  0  0  0  0  0  0  0
  -25.6140  -30.6180   20.7560 C   0  0  0  0  0  2  0  0  0  0  0  0
  -25.2980  -29.4000   19.9140 C   0  0  0  0  0  0  0  0  0  0  0  0
  -26.3130  -28.5300   19.4630 C   0  0  0  0  0  3  0  0  0  0  0  0
  -24.6280  -27.1620   18.3560 C   0  0  0  0  0  3  0  0  0  0  0  0
  -23.6160  -28.0310   18.8030 C   0  0  0  0  0  3  0  0  0  0  0  0
  -22.9380  -30.1430   20.0900 C   0  0  0  0  0  2  0  0  0  0  0  0
  -24.6300  -30.8640   21.8370 N   0  0  0  0  0  0  0  0  0  0  0  0
  -24.1270  -31.7410   23.8660 O   0  0  0  0  0  0  0  0  0  0  0  0
  -22.6110  -29.4610   22.4860 C   0  0  0  0  0  0  0  0  0  0  0  0
  -21.2730  -29.3490   22.5140 N   0  0  0  0  0  0  0  0  0  0  0  0
  -23.3560  -28.7220   23.1340 O   0  0  0  0  0  0  0  0  0  0  0  0
  -20.7300  -30.0080   21.9730 H   0  0  0  0  0  0  0  0  0  0  0  0
  -17.9590  -28.0210   23.0520 C   0  0  0  0  0  0  0  0  0  0  0  0
  -20.5100  -28.3640   23.2780 C   0  0  0  0  0  3  0  0  0  0  0  0
  -20.6490  -26.9510   22.6680 C   0  0  0  0  0  2  0  0  0  0  0  0
  -19.5370  -26.6100   21.6690 C   0  0  0  0  0  2  0  0  0  0  0  0
  -18.1660  -26.6920   22.3480 C   0  0  0  0  0  2  0  0  0  0  0  0
  -19.0580  -28.8130   23.4770 C   0  0  0  0  0  0  0  0  0  0  0  0
  -18.8080  -30.0550   24.0970 C   0  0  0  0  0  3  0  0  0  0  0  0
  -17.4900  -30.5060   24.3000 C   0  0  0  0  0  3  0  0  0  0  0  0
  -16.4050  -29.7080   23.8970 C   0  0  0  0  0  3  0  0  0  0  0  0
  -16.6400  -28.4690   23.2750 C   0  0  0  0  0  3  0  0  0  0  0  0
  -26.4730  -31.7450   23.3730 C   0  0  0  0  0  3  0  0  0  0  0  0
  -27.1590  -30.6250   24.2490 C   0  0  1  0  0  0  0  0  0  0  0  0
  -26.3540  -30.2430   25.5150 C   0  0  0  0  0  1  0  0  0  0  0  0
  -27.3760  -29.3380   23.4180 C   0  0  0  0  0  1  0  0  0  0  0  0
  -28.5610  -31.0970   24.6990 C   0  0  0  0  0  1  0  0  0  0  0  0
  -26.5030  -33.0400   24.0660 N   0  0  0  0  0  0  0  0  0  0  0  0
  -26.8490  -34.1980   23.4890 C   0  0  0  0  0  0  0  0  0  0  0  0
  -27.2520  -34.2750   22.3250 O   0  0  0  0  0  0  0  0  0  0  0  0
  -26.1300  -33.0640   25.0050 H   0  0  0  0  0  0  0  0  0  0  0  0
  -25.4720  -36.2530   23.9280 C   0  0  0  0  0  1  0  0  0  0  0  0
  -26.7300  -35.4750   24.3410 C   0  0  0  0  0  3  0  0  0  0  0  0
  -29.0970  -35.8080   24.9050 C   0  0  0  0  0  1  0  0  0  0  0  0
  -27.9130  -36.3570   24.2480 N   0  0  0  0  0  0  0  0  0  0  0  0
  -27.7150  -37.2660   24.6590 H   0  0  0  0  0  0  0  0  0  0  0  0
  2  1  2  0
  2  4  1  0
  3  1  1  0
  5  4  1  0
  6 10  1  0
  6  7  1  0
  7 52  1  0
  7  5  1  0
  8  3  1  0
  9 10  1  0
  9  3  2  0
 10  2  1  0
 11 17  1  0
 11 23  1  0
 12 17  1  0
 13 14  1  0
 13 12  1  0
 15 14  1  0
 15 27  1  0
 15 16  1  0
 17 16  1  0
 18 11  2  0
 20 19  1  0
 21 19  1  0
 22  1  1  0
 22 23  1  0
 22 20  1  0
 23 21  1  0
 24 25  2  0
 25 44  1  0
 26 25  1  0
 26 29  1  0
 27 28  1  0
 27 24  1  0
 28 26  2  0
 29 30  1  0
 30 31  2  0
 32 35  1  0
 32 31  1  0
 33 32  2  0
 34 33  1  0
 34 29  2  0
 35 36  1  0
 36 37  1  0
 37 38  2  0
 39 38  1  0
 39 43  1  0
 40 39  2  0
 41 36  2  0
 41 40  1  0
 42 41  1  0
 44 45  1  0
 45 48  1  0
 45 47  1  0
 46 44  2  0
 49 24  1  0
 49 50  1  0
 51 49  1  0
 52 53  1  0
 52 55  1  0
 54 52  1  0
 56 57  1  0
 56 55  1  0
 58 60  1  0
 58 57  1  0
 59 70  2  0
 60 65  1  0
 61 69  1  0
 61 71  1  0
 62 64  1  0
 62 68  1  0
 63 69  1  0
 64 63  1  0
 65 64  2  0
 66 60  2  0
 66 67  1  0
 67 62  2  0
 68 61  1  0
 69 59  1  0
 71 72  1  0
 71 73  2  0
 74 72  1  0
 75 84  2  0
 75 80  1  0
 76 72  1  0
 76 80  1  0
 77 76  1  0
 78 79  1  0
 78 77  1  0
 79 75  1  0
 80 81  2  0
 81 82  1  0
 83 82  2  0
 84 83  1  0
 85 59  1  0
 85 90  1  0
 85 86  1  0
 86 89  1  1
 86 87  1  0
 88 86  1  0
 90 93  1  0
 91 90  1  0
 91 95  1  0
 92 91  2  0
 95 94  1  0
 97 95  1  0
 97 98  1  0
 97 96  1  0
M  ISO  4  11 100  23 100  57 101  58 101
M  END
>  <TORSDO>  (8) 
F 20

>  <SCORE>  (8) 
-9.431

>  <name>  (8) 
7

>  <ligand_id>  (8) 
7

>  <original_smiles>  (8) 
[H]c1c([H])c([H])c2c(c1[H])C([H])([H])C([H])([H])C([H])([H])C2([H])N([H])C(=O)C1([H])N(C(=O)C([H])(N([H])C(=O)C([H])(N([H])C([H])([H])[H])C([H])([H])[H])C(C([H])([H])[H])(C([H])([H])[H])C([H])([H])[H])C([H])([H])c2c([H])c(OC([H])([H])C([H])([H])C([H])([H])[N+]([H])([H])C3([H])C([H])([H])n4nc(C([H])([H])[H])c(C5([H])N(C(=O)N6C([H])([H])C([H])([H])C([H])([H])C([H])(n7nc(-c8c([H])c([H])c(Oc9c([H])c([H])c(F)c([H])c9F)c([H])c8[H])c(C(=O)N([H])[H])c7N([H])[H])C6([H])[H])C([H])([H])C([H])([H])C5([H])[H])c4C([H])([H])C3([H])[H])c([H])c([H])c2C1([H])[H]

>  <smiles>  (8) 
[H]c1c([H])c([H])c2c(c1[H])C([H])([H])C([H])([H])C([H])([H])C2([H])N([H])C(=O)C1([H])N(C(=O)C([H])(N([H])C(=O)C([H])(N([H])C([H])([H])[H])C([H])([H])[H])C(C([H])([H])[H])(C([H])([H])[H])C([H])([H])[H])C([H])([H])c2c([H])c(OC([H])([H])C([H])([H])C([H])([H])[N+]([H])([H])C3([H])C([H])([H])n4nc(C([H])([H])[H])c(C5([H])N(C(=O)N6C([H])([H])C([H])([H])C([H])([H])C([H])(n7nc(-c8c([H])c([H])c(Oc9c([H])c([H])c(F)c([H])c9F)c([H])c8[H])c(C(=O)N([H])[H])c7N([H])[H])C6([H])[H])C([H])([H])C([H])([H])C5([H])[H])c4C([H])([H])C3([H])[H])c([H])c([H])c2C1([H])[H]

$$$$
8:0:0
     RDKit          3D

 95104  0  0  1  0  0  0  0  0999 V2000
  -29.6090  -19.6180   20.7520 C   0  0  0  0  0  3  0  0  0  0  0  0
  -29.9180  -18.2870   20.2870 C   0  0  0  0  0  0  0  0  0  0  0  0
  -29.6610  -19.1210   17.9910 C   0  0  0  0  0  0  0  0  0  0  0  0
  -29.2960  -20.7060   19.8580 C   0  0  0  0  0  0  0  0  0  0  0  0
  -29.9310  -18.0720   18.8930 C   0  0  0  0  0  0  0  0  0  0  0  0
  -29.3420  -20.4170   18.4630 C   0  0  0  0  0  0  0  0  0  0  0  0
  -29.7440  -18.8500   16.4950 C   0  0  0  0  0  1  0  0  0  0  0  0
  -30.2380  -16.8490   18.3970 F   0  0  0  0  0  0  0  0  0  0  0  0
  -29.0560  -21.6700   17.2950 Cl  0  0  0  0  0  0  0  0  0  0  0  0
  -27.5080  -24.0410   19.6410 C   0  0  0  0  0  2  0  0  0  0  0  0
  -29.6380  -24.4020   20.8500 C   0  0  0  0  0  2  0  0  0  0  0  0
  -27.5720  -22.5270   20.0330 C   0  0  0  0  0  2  0  0  0  0  0  0
  -29.6720  -22.8690   21.2280 C   0  0  0  0  0  2  0  0  0  0  0  0
  -28.2220  -25.0380   20.6180 C   0  0  0  0  0  3  0  0  0  0  0  0
  -28.9360  -22.0390   20.2680 N   0  0  0  0  0  0  0  0  0  0  0  0
  -28.3360  -26.4830   20.2380 O   0  0  0  0  0  0  0  0  0  0  0  0
  -24.6000  -31.9120   23.2420 C   0  0  0  0  0  0  0  0  0  0  0  0
  -27.2140  -27.3300   20.2200 C   0  0  0  0  0  0  0  0  0  0  0  0
  -23.4020  -30.5080   21.6040 C   0  0  0  0  0  3  0  0  0  0  0  0
  -24.8570  -28.9570   20.1890 C   0  0  0  0  0  0  0  0  0  0  0  0
  -25.9450  -30.8200   21.4350 C   0  0  0  0  0  2  0  0  0  0  0  0
  -26.0240  -29.4390   20.7980 C   0  0  0  0  0  0  0  0  0  0  0  0
  -27.2040  -28.6350   20.8090 C   0  0  0  0  0  3  0  0  0  0  0  0
  -26.0380  -26.9320   19.5500 C   0  0  0  0  0  3  0  0  0  0  0  0
  -24.8680  -27.7080   19.5540 C   0  0  0  0  0  3  0  0  0  0  0  0
  -23.6210  -29.8320   20.2270 C   0  0  0  0  0  2  0  0  0  0  0  0
  -24.6670  -31.0990   22.1490 N   0  0  0  0  0  0  0  0  0  0  0  0
  -23.5140  -32.1920   23.7720 O   0  0  0  0  0  0  0  0  0  0  0  0
  -22.7400  -29.4900   22.5630 C   0  0  0  0  0  0  0  0  0  0  0  0
  -21.4160  -29.3060   22.4300 N   0  0  0  0  0  0  0  0  0  0  0  0
  -23.4190  -28.8720   23.3880 O   0  0  0  0  0  0  0  0  0  0  0  0
  -20.9300  -29.8570   21.7370 H   0  0  0  0  0  0  0  0  0  0  0  0
  -18.0390  -28.1030   22.9210 C   0  0  0  0  0  0  0  0  0  0  0  0
  -20.5970  -28.3690   23.2010 C   0  0  0  0  0  3  0  0  0  0  0  0
  -20.7040  -26.9350   22.6310 C   0  0  0  0  0  2  0  0  0  0  0  0
  -19.6070  -26.6060   21.6150 C   0  0  0  0  0  2  0  0  0  0  0  0
  -18.2220  -26.7520   22.2520 C   0  0  0  0  0  2  0  0  0  0  0  0
  -19.1550  -28.8690   23.3530 C   0  0  0  0  0  0  0  0  0  0  0  0
  -18.9310  -30.1350   23.9350 C   0  0  0  0  0  3  0  0  0  0  0  0
  -17.6230  -30.6340   24.0950 C   0  0  0  0  0  3  0  0  0  0  0  0
  -16.5230  -29.8640   23.6820 C   0  0  0  0  0  3  0  0  0  0  0  0
  -16.7320  -28.6010   23.1000 C   0  0  0  0  0  3  0  0  0  0  0  0
  -25.8810  -32.5480   23.8640 C   0  0  0  0  0  3  0  0  0  0  0  0
  -25.5690  -33.9480   24.1860 N   0  0  0  0  0  0  0  0  0  0  0  0
  -25.9020  -34.9980   23.4240 C   0  0  0  0  0  0  0  0  0  0  0  0
  -26.5750  -34.8910   22.3960 O   0  0  0  0  0  0  0  0  0  0  0  0
  -24.9670  -34.1030   24.9820 H   0  0  0  0  0  0  0  0  0  0  0  0
  -24.1740  -36.7900   23.0520 C   0  0  0  0  0  1  0  0  0  0  0  0
  -25.4090  -36.3870   23.8730 C   0  0  0  0  0  3  0  0  0  0  0  0
  -27.5410  -37.2730   24.7120 C   0  0  0  0  0  1  0  0  0  0  0  0
  -26.4400  -37.4430   23.7680 N   0  0  0  0  0  0  0  0  0  0  0  0
  -26.0320  -38.3600   23.9190 H   0  0  0  0  0  0  0  0  0  0  0  0
  -26.3920  -31.7830   25.1490 C   0  0  1  0  0  0  0  0  0  0  0  0
  -25.2940  -31.5540   26.2140 C   0  0  0  0  0  1  0  0  0  0  0  0
  -26.9770  -30.4030   24.7710 C   0  0  0  0  0  1  0  0  0  0  0  0
  -27.5390  -32.5820   25.8090 C   0  0  0  0  0  1  0  0  0  0  0  0
  -30.3370  -17.1190   21.2460 C   0  0  0  0  0  2  0  0  0  0  0  0
  -30.6470  -14.6440   20.5140 C   0  0  0  0  0  0  0  0  0  0  0  0
  -30.4010  -12.4450   19.3790 C   0  0  0  0  0  2  0  0  0  0  0  0
  -29.4850  -12.6180   18.1480 C   0  0  0  0  0  2  0  0  0  0  0  0
  -28.0020  -12.4580   18.5430 C   0  0  0  0  0  2  0  0  0  0  0  0
  -27.6300  -13.3000   19.7950 C   0  0  0  0  0  3  0  0  0  0  0  0
  -28.6660  -13.1200   20.9260 C   0  0  0  0  0  2  0  0  0  0  0  0
  -29.9890  -13.4520   20.3770 N   0  0  0  0  0  0  0  0  0  0  0  0
  -31.8100  -14.7870   20.1290 O   0  0  0  0  0  0  0  0  0  0  0  0
  -29.9120  -15.7050   20.9660 N   0  0  0  0  0  0  0  0  0  0  0  0
  -28.9610  -15.4870   21.2180 H   0  0  0  0  0  0  0  0  0  0  0  0
  -25.2200  -13.8990   20.4550 C   0  0  0  0  0  0  0  0  0  0  0  0
  -24.1470  -13.1270   20.8140 C   0  0  0  0  0  0  0  0  0  0  0  0
  -24.6160  -11.7770   20.8100 C   0  0  0  0  0  0  0  0  0  0  0  0
  -26.2710  -13.0190   20.2520 N   0  0  0  0  0  0  0  0  0  0  0  0
  -25.9110  -11.7380   20.5250 N   0  0  0  0  0  0  0  0  0  0  0  0
  -23.8880  -10.5150   21.0040 C   0  0  0  0  0  0  0  0  0  0  0  0
  -24.3080   -9.5610   21.9550 C   0  0  0  0  0  3  0  0  0  0  0  0
  -23.5860   -8.3620   22.1370 C   0  0  0  0  0  3  0  0  0  0  0  0
  -22.4270   -8.1100   21.3640 C   0  0  0  0  0  0  0  0  0  0  0  0
  -22.0260   -9.0520   20.4010 C   0  0  0  0  0  3  0  0  0  0  0  0
  -22.7490  -10.2420   20.2200 C   0  0  0  0  0  3  0  0  0  0  0  0
  -21.6730   -6.9650   21.4530 O   0  0  0  0  0  0  0  0  0  0  0  0
  -21.6040   -6.2340   22.6120 C   0  0  0  0  0  0  0  0  0  0  0  0
  -21.1570   -6.8010   23.8240 C   0  0  0  0  0  3  0  0  0  0  0  0
  -21.0400   -5.9990   24.9770 C   0  0  0  0  0  3  0  0  0  0  0  0
  -21.3580   -4.6280   24.9140 C   0  0  0  0  0  0  0  0  0  0  0  0
  -21.7950   -4.0590   23.7050 C   0  0  0  0  0  3  0  0  0  0  0  0
  -21.9140   -4.8600   22.5560 C   0  0  0  0  0  0  0  0  0  0  0  0
  -22.3190   -4.3040   21.3890 F   0  0  0  0  0  0  0  0  0  0  0  0
  -21.2370   -3.8540   26.0180 F   0  0  0  0  0  0  0  0  0  0  0  0
  -22.7440  -13.6020   21.0520 C   0  0  0  0  0  0  0  0  0  0  0  0
  -22.0000  -12.9150   21.9120 N   0  0  0  0  0  0  0  0  0  0  0  0
  -22.3120  -14.6180   20.5090 O   0  0  0  0  0  0  0  0  0  0  0  0
  -22.3590  -12.0930   22.3760 H   0  0  0  0  0  0  0  0  0  0  0  0
  -21.0560  -13.2140   22.1100 H   0  0  0  0  0  0  0  0  0  0  0  0
  -25.3870  -15.2690   20.2680 N   0  0  0  0  0  0  0  0  0  0  0  0
  -24.6220  -15.9280   20.3570 H   0  0  0  0  0  0  0  0  0  0  0  0
  -26.2470  -15.7020   19.9570 H   0  0  0  0  0  0  0  0  0  0  0  0
  2  1  1  0
  2 57  1  0
  3  6  2  0
  3  5  1  0
  4 15  1  0
  4  1  2  0
  5  2  2  0
  6  4  1  0
  7  3  1  0
  8  5  1  0
  9  6  1  0
 10 12  1  0
 10 14  1  0
 11 13  1  0
 12 15  1  0
 14 16  1  0
 14 11  1  0
 15 13  1  0
 17 28  2  0
 18 16  1  0
 18 23  1  0
 19 27  1  0
 19 29  1  0
 20 26  1  0
 20 22  1  0
 21 27  1  0
 22 23  2  0
 22 21  1  0
 24 25  1  0
 24 18  2  0
 25 20  2  0
 26 19  1  0
 27 17  1  0
 29 31  2  0
 30 29  1  0
 32 30  1  0
 33 42  2  0
 33 38  1  0
 34 30  1  0
 34 38  1  0
 35 34  1  0
 36 37  1  0
 36 35  1  0
 37 33  1  0
 38 39  2  0
 39 40  1  0
 41 40  2  0
 42 41  1  0
 43 17  1  0
 43 44  1  0
 43 53  1  0
 44 47  1  0
 45 49  1  0
 45 44  1  0
 46 45  2  0
 49 48  1  0
 51 49  1  0
 51 52  1  0
 51 50  1  0
 53 56  1  1
 53 54  1  0
 55 53  1  0
 58 66  1  0
 59 64  1  0
 60 61  1  0
 60 59  1  0
 62 61  1  0
 62 71  1  0
 62 63  1  0
 64 58  1  0
 64 63  1  0
 65 58  2  0
 66 67  1  0
 66 57  1  0
 68 69  2  0
 69 88  1  0
 70 69  1  0
 70 73  1  0
 71 68  1  0
 71 72  1  0
 72 70  2  0
 73 74  1  0
 74 75  2  0
 76 79  1  0
 76 75  1  0
 77 76  2  0
 78 77  1  0
 78 73  2  0
 79 80  1  0
 80 81  1  0
 81 82  2  0
 83 82  1  0
 83 87  1  0
 84 83  2  0
 85 80  2  0
 85 84  1  0
 86 85  1  0
 88 89  1  0
 89 92  1  0
 89 91  1  0
 90 88  2  0
 93 94  1  0
 93 68  1  0
 95 93  1  0
M  ISO  4  14 101  16 101  58 100  66 100
M  END
>  <TORSDO>  (9) 
F 18

>  <SCORE>  (9) 
-15.051

>  <name>  (9) 
8

>  <ligand_id>  (9) 
8

>  <original_smiles>  (9) 
[H]c1c([H])c([H])c2c(c1[H])C([H])([H])C([H])([H])C([H])([H])C2([H])N([H])C(=O)C1([H])N(C(=O)C([H])(N([H])C(=O)C([H])(N([H])C([H])([H])[H])C([H])([H])[H])C(C([H])([H])[H])(C([H])([H])[H])C([H])([H])[H])C([H])([H])c2c([H])c(OC3([H])C([H])([H])C([H])([H])N(c4c([H])c(C([H])([H])N([H])C(=O)N5C([H])([H])C([H])([H])C([H])([H])C([H])(n6nc(-c7c([H])c([H])c(Oc8c([H])c([H])c(F)c([H])c8F)c([H])c7[H])c(C(=O)N([H])[H])c6N([H])[H])C5([H])[H])c(F)c(C([H])([H])[H])c4Cl)C([H])([H])C3([H])[H])c([H])c([H])c2C1([H])[H]

>  <smiles>  (9) 
[H]c1c([H])c([H])c2c(c1[H])C([H])([H])C([H])([H])C([H])([H])C2([H])N([H])C(=O)C1([H])N(C(=O)C([H])(N([H])C(=O)C([H])(N([H])C([H])([H])[H])C([H])([H])[H])C(C([H])([H])[H])(C([H])([H])[H])C([H])([H])[H])C([H])([H])c2c([H])c(OC3([H])C([H])([H])C([H])([H])N(c4c([H])c(C([H])([H])N([H])C(=O)N5C([H])([H])C([H])([H])C([H])([H])C([H])(n6nc(-c7c([H])c([H])c(Oc8c([H])c([H])c(F)c([H])c8F)c([H])c7[H])c(C(=O)N([H])[H])c6N([H])[H])C5([H])[H])c(F)c(C([H])([H])[H])c4Cl)C([H])([H])C3([H])[H])c([H])c([H])c2C1([H])[H]

$$$$
9:0:0
     RDKit          3D

 97105  0  0  1  0  0  0  0  0999 V2000
  -31.6950  -21.1450   22.0740 C   0  0  0  0  0  2  0  0  0  0  0  0
  -32.5910  -17.7470   20.5290 C   0  0  0  0  0  3  0  0  0  0  0  0
  -32.0130  -16.8440   21.4390 C   0  0  0  0  0  0  0  0  0  0  0  0
  -31.8110  -19.6390   21.8640 C   0  0  0  0  0  0  0  0  0  0  0  0
  -32.4940  -19.1330   20.7320 C   0  0  0  0  0  0  0  0  0  0  0  0
  -31.3210  -17.3370   22.5700 C   0  0  0  0  0  0  0  0  0  0  0  0
  -31.2230  -18.7310   22.7820 C   0  0  0  0  0  0  0  0  0  0  0  0
  -33.2060  -20.1860   19.5590 Cl  0  0  0  0  0  0  0  0  0  0  0  0
  -30.5820  -16.2380   23.6870 Cl  0  0  0  0  0  0  0  0  0  0  0  0
  -30.3570  -19.3170   24.1670 Cl  0  0  0  0  0  0  0  0  0  0  0  0
  -32.1490  -15.3550   21.1740 C   0  0  0  0  0  2  0  0  0  0  0  0
  -30.6890  -14.4940   19.3580 C   0  0  0  0  0  0  0  0  0  0  0  0
  -29.9790  -12.5510   18.0330 C   0  0  0  0  0  2  0  0  0  0  0  0
  -28.7980  -12.7860   17.0830 C   0  0  0  0  0  2  0  0  0  0  0  0
  -27.4660  -12.5820   17.8230 C   0  0  0  0  0  2  0  0  0  0  0  0
  -27.3930  -13.3930   19.1410 C   0  0  0  0  0  3  0  0  0  0  0  0
  -28.6540  -13.1730   20.0040 C   0  0  0  0  0  2  0  0  0  0  0  0
  -29.8520  -13.4470   19.1880 N   0  0  0  0  0  0  0  0  0  0  0  0
  -31.3800  -14.9810   18.4560 O   0  0  0  0  0  0  0  0  0  0  0  0
  -30.9340  -14.7440   20.6480 N   0  0  0  0  0  0  0  0  0  0  0  0
  -30.3570  -14.2470   21.3100 H   0  0  0  0  0  0  0  0  0  0  0  0
  -25.2190  -13.9440   20.4080 C   0  0  0  0  0  0  0  0  0  0  0  0
  -24.2400  -13.1450   20.9360 C   0  0  0  0  0  0  0  0  0  0  0  0
  -24.6530  -11.8000   20.6890 C   0  0  0  0  0  0  0  0  0  0  0  0
  -26.1710  -13.0840   19.8820 N   0  0  0  0  0  0  0  0  0  0  0  0
  -25.8440  -11.7850   20.1030 N   0  0  0  0  0  0  0  0  0  0  0  0
  -23.9600  -10.5270   20.9260 C   0  0  0  0  0  0  0  0  0  0  0  0
  -24.4900   -9.5470   21.7940 C   0  0  0  0  0  3  0  0  0  0  0  0
  -23.7950   -8.3400   22.0190 C   0  0  0  0  0  3  0  0  0  0  0  0
  -22.5560   -8.1030   21.3780 C   0  0  0  0  0  0  0  0  0  0  0  0
  -22.0440   -9.0720   20.4980 C   0  0  0  0  0  3  0  0  0  0  0  0
  -22.7390  -10.2710   20.2710 C   0  0  0  0  0  3  0  0  0  0  0  0
  -21.8230   -6.9490   21.5180 O   0  0  0  0  0  0  0  0  0  0  0  0
  -21.8060   -6.2450   22.6950 C   0  0  0  0  0  0  0  0  0  0  0  0
  -21.3940   -6.8340   23.9100 C   0  0  0  0  0  3  0  0  0  0  0  0
  -21.3260   -6.0540   25.0820 C   0  0  0  0  0  3  0  0  0  0  0  0
  -21.6590   -4.6880   25.0400 C   0  0  0  0  0  0  0  0  0  0  0  0
  -22.0650   -4.0980   23.8300 C   0  0  0  0  0  3  0  0  0  0  0  0
  -22.1350   -4.8750   22.6600 C   0  0  0  0  0  0  0  0  0  0  0  0
  -22.5060   -4.2960   21.4920 F   0  0  0  0  0  0  0  0  0  0  0  0
  -21.5870   -3.9370   26.1640 F   0  0  0  0  0  0  0  0  0  0  0  0
  -22.9480  -13.5990   21.5500 C   0  0  0  0  0  0  0  0  0  0  0  0
  -22.4380  -12.8560   22.5270 N   0  0  0  0  0  0  0  0  0  0  0  0
  -22.4060  -14.6470   21.2010 O   0  0  0  0  0  0  0  0  0  0  0  0
  -22.8930  -12.0060   22.8270 H   0  0  0  0  0  0  0  0  0  0  0  0
  -21.5810  -13.1390   22.9800 H   0  0  0  0  0  0  0  0  0  0  0  0
  -25.3720  -15.3240   20.3150 N   0  0  0  0  0  0  0  0  0  0  0  0
  -24.6680  -15.9750   20.6470 H   0  0  0  0  0  0  0  0  0  0  0  0
  -26.1520  -15.7820   19.8620 H   0  0  0  0  0  0  0  0  0  0  0  0
  -30.7110  -21.7300   21.1420 N   0  0  0  0  0  4  0  0  0  0  0  0
  -29.8020  -21.3580   21.3620 H   0  0  0  0  0  0  0  0  0  0  0  0
  -30.9450  -21.4470   20.2040 H   0  0  0  0  0  0  0  0  0  0  0  0
  -30.6370  -23.2010   21.1810 C   0  0  0  0  0  2  0  0  0  0  0  0
  -29.6330  -23.7340   20.1470 C   0  0  0  0  0  2  0  0  0  0  0  0
  -29.5590  -25.2650   20.1470 C   0  0  0  0  0  2  0  0  0  0  0  0
  -28.4070  -25.8000   19.2940 C   0  0  0  0  0  2  0  0  0  0  0  0
  -28.3620  -27.2020   19.5100 O   0  0  0  0  0  0  0  0  0  0  0  0
  -24.4780  -31.8310   23.1920 C   0  0  0  0  0  0  0  0  0  0  0  0
  -27.1300  -27.7930   19.6340 C   0  0  0  0  0  0  0  0  0  0  0  0
  -23.2320  -30.4810   21.5350 C   0  0  0  0  0  3  0  0  0  0  0  0
  -24.6590  -29.1250   19.9160 C   0  0  0  0  0  0  0  0  0  0  0  0
  -25.7120  -31.0000   21.1970 C   0  0  0  0  0  2  0  0  0  0  0  0
  -25.8220  -29.6840   20.4590 C   0  0  0  0  0  0  0  0  0  0  0  0
  -27.0580  -29.0250   20.3140 C   0  0  0  0  0  3  0  0  0  0  0  0
  -25.9490  -27.2330   19.0920 C   0  0  0  0  0  3  0  0  0  0  0  0
  -24.7140  -27.8960   19.2330 C   0  0  0  0  0  3  0  0  0  0  0  0
  -23.3780  -29.9050   20.1010 C   0  0  0  0  0  2  0  0  0  0  0  0
  -24.4950  -31.1150   22.0340 N   0  0  0  0  0  0  0  0  0  0  0  0
  -23.4250  -32.0040   23.8220 O   0  0  0  0  0  0  0  0  0  0  0  0
  -22.7020  -29.3630   22.4610 C   0  0  0  0  0  0  0  0  0  0  0  0
  -21.4100  -29.0300   22.3140 N   0  0  0  0  0  0  0  0  0  0  0  0
  -23.4500  -28.7980   23.2630 O   0  0  0  0  0  0  0  0  0  0  0  0
  -20.8620  -29.5440   21.6380 H   0  0  0  0  0  0  0  0  0  0  0  0
  -18.2160  -27.3840   22.6790 C   0  0  0  0  0  0  0  0  0  0  0  0
  -20.7030  -27.9820   23.0500 C   0  0  0  0  0  3  0  0  0  0  0  0
  -21.0190  -26.5840   22.4700 C   0  0  0  0  0  2  0  0  0  0  0  0
  -20.0110  -26.1270   21.4130 C   0  0  0  0  0  2  0  0  0  0  0  0
  -18.5980  -26.0790   22.0020 C   0  0  0  0  0  2  0  0  0  0  0  0
  -19.2040  -28.2850   23.1560 C   0  0  0  0  0  0  0  0  0  0  0  0
  -18.7950  -29.5030   23.7430 C   0  0  0  0  0  3  0  0  0  0  0  0
  -17.4290  -29.8220   23.8610 C   0  0  0  0  0  3  0  0  0  0  0  0
  -16.4550  -28.9190   23.4020 C   0  0  0  0  0  3  0  0  0  0  0  0
  -16.8480  -27.7020   22.8170 C   0  0  0  0  0  3  0  0  0  0  0  0
  -25.7720  -32.4850   23.7700 C   0  0  0  0  0  3  0  0  0  0  0  0
  -25.4560  -33.8830   24.0930 N   0  0  0  0  0  0  0  0  0  0  0  0
  -25.7520  -34.9290   23.3110 C   0  0  0  0  0  0  0  0  0  0  0  0
  -26.3940  -34.8210   22.2640 O   0  0  0  0  0  0  0  0  0  0  0  0
  -24.8820  -34.0390   24.9090 H   0  0  0  0  0  0  0  0  0  0  0  0
  -23.9910  -36.6920   22.9750 C   0  0  0  0  0  1  0  0  0  0  0  0
  -25.2560  -36.3150   23.7640 C   0  0  0  0  0  3  0  0  0  0  0  0
  -27.3970  -37.2360   24.5350 C   0  0  0  0  0  1  0  0  0  0  0  0
  -26.2700  -37.3810   23.6170 N   0  0  0  0  0  0  0  0  0  0  0  0
  -25.8560  -38.2970   23.7650 H   0  0  0  0  0  0  0  0  0  0  0  0
  -26.3380  -31.7340   25.0380 C   0  0  1  0  0  0  0  0  0  0  0  0
  -25.2660  -31.4360   26.1130 C   0  0  0  0  0  1  0  0  0  0  0  0
  -26.9850  -30.3910   24.6300 C   0  0  0  0  0  1  0  0  0  0  0  0
  -27.4530  -32.5800   25.6960 C   0  0  0  0  0  1  0  0  0  0  0  0
  2  5  2  0
  2  3  1  0
  3  6  2  0
  4  1  1  0
  4  7  2  0
  5  4  1  0
  6  7  1  0
  6  9  1  0
  7 10  1  0
  8  5  1  0
 11  3  1  0
 12 20  1  0
 13 18  1  0
 14 15  1  0
 14 13  1  0
 16 15  1  0
 16 25  1  0
 16 17  1  0
 18 12  1  0
 18 17  1  0
 19 12  2  0
 20 11  1  0
 20 21  1  0
 22 23  2  0
 23 42  1  0
 24 27  1  0
 24 23  1  0
 25 26  1  0
 25 22  1  0
 26 24  2  0
 27 28  1  0
 28 29  2  0
 30 33  1  0
 30 29  1  0
 31 30  2  0
 32 31  1  0
 32 27  2  0
 33 34  1  0
 34 35  1  0
 35 36  2  0
 37 36  1  0
 37 41  1  0
 38 37  2  0
 39 34  2  0
 39 38  1  0
 40 39  1  0
 42 43  1  0
 43 45  1  0
 43 46  1  0
 44 42  2  0
 47 22  1  0
 47 48  1  0
 49 47  1  0
 50 53  1  0
 50 51  1  0
 50  1  1  0
 52 50  1  0
 54 53  1  0
 55 54  1  0
 56 57  1  0
 56 55  1  0
 57 59  1  0
 58 69  2  0
 59 64  1  0
 60 68  1  0
 60 70  1  0
 61 67  1  0
 61 63  1  0
 62 68  1  0
 63 62  1  0
 64 63  2  0
 65 66  1  0
 65 59  2  0
 66 61  2  0
 67 60  1  0
 68 58  1  0
 70 72  2  0
 71 70  1  0
 73 71  1  0
 74 83  2  0
 74 79  1  0
 75 71  1  0
 75 79  1  0
 76 75  1  0
 77 78  1  0
 77 76  1  0
 78 74  1  0
 79 80  2  0
 80 81  1  0
 82 81  2  0
 83 82  1  0
 84 58  1  0
 84 85  1  0
 84 94  1  0
 85 88  1  0
 86 90  1  0
 86 85  1  0
 87 86  2  0
 90 89  1  0
 92 90  1  0
 92 93  1  0
 92 91  1  0
 94 97  1  1
 94 95  1  0
 96 94  1  0
M  ISO  4  12 100  20 100  56 101  57 101
M  END
>  <TORSDO>  (10) 
F 23

>  <SCORE>  (10) 
-6.832

>  <name>  (10) 
9

>  <ligand_id>  (10) 
9

>  <original_smiles>  (10) 
[H]c1c([H])c([H])c2c(c1[H])C([H])([H])C([H])([H])C([H])([H])C2([H])N([H])C(=O)C1([H])N(C(=O)C([H])(N([H])C(=O)C([H])(N([H])C([H])([H])[H])C([H])([H])[H])C(C([H])([H])[H])(C([H])([H])[H])C([H])([H])[H])C([H])([H])c2c([H])c(OC([H])([H])C([H])([H])C([H])([H])C([H])([H])[N+]([H])([H])C([H])([H])c3c(Cl)c([H])c(C([H])([H])N([H])C(=O)N4C([H])([H])C([H])([H])C([H])([H])C([H])(n5nc(-c6c([H])c([H])c(Oc7c([H])c([H])c(F)c([H])c7F)c([H])c6[H])c(C(=O)N([H])[H])c5N([H])[H])C4([H])[H])c(Cl)c3Cl)c([H])c([H])c2C1([H])[H]

>  <smiles>  (10) 
[H]c1c([H])c([H])c2c(c1[H])C([H])([H])C([H])([H])C([H])([H])C2([H])N([H])C(=O)C1([H])N(C(=O)C([H])(N([H])C(=O)C([H])(N([H])C([H])([H])[H])C([H])([H])[H])C(C([H])([H])[H])(C([H])([H])[H])C([H])([H])[H])C([H])([H])c2c([H])c(OC([H])([H])C([H])([H])C([H])([H])C([H])([H])[N+]([H])([H])C([H])([H])c3c(Cl)c([H])c(C([H])([H])N([H])C(=O)N4C([H])([H])C([H])([H])C([H])([H])C([H])(n5nc(-c6c([H])c([H])c(Oc7c([H])c([H])c(F)c([H])c7F)c([H])c6[H])c(C(=O)N([H])[H])c5N([H])[H])C4([H])[H])c(Cl)c3Cl)c([H])c([H])c2C1([H])[H]

$$$$
10:0:0
     RDKit          3D

 93101  0  0  1  0  0  0  0  0999 V2000
  -30.2120  -22.0860   21.3470 C   0  0  0  0  0  3  0  0  0  0  0  0
  -29.7240  -21.1810   20.3730 C   0  0  0  0  0  0  0  0  0  0  0  0
  -28.6830  -23.9030   20.6230 C   0  0  0  0  0  0  0  0  0  0  0  0
  -29.7140  -23.4110   21.4720 C   0  0  0  0  0  0  0  0  0  0  0  0
  -28.7170  -21.6740   19.5020 C   0  0  0  0  0  0  0  0  0  0  0  0
  -28.2050  -23.0030   19.6270 C   0  0  0  0  0  0  0  0  0  0  0  0
  -30.3910  -24.4050   22.7150 Cl  0  0  0  0  0  0  0  0  0  0  0  0
  -28.1010  -20.6350   18.2600 Cl  0  0  0  0  0  0  0  0  0  0  0  0
  -26.9460  -23.5060   18.5490 Cl  0  0  0  0  0  0  0  0  0  0  0  0
  -30.4010  -19.7820   20.1750 C   0  0  0  0  0  2  0  0  0  0  0  0
  -29.7790  -18.5440   20.7690 N   0  0  0  0  0  4  0  0  0  0  0  0
  -28.8300  -18.4770   20.4400 H   0  0  0  0  0  0  0  0  0  0  0  0
  -29.7480  -18.6610   21.7700 H   0  0  0  0  0  0  0  0  0  0  0  0
  -30.5090  -17.2570   20.4420 C   0  0  0  0  0  3  0  0  0  0  0  0
  -29.9170  -15.8920   20.9940 C   0  0  0  0  0  3  0  0  0  0  0  0
  -30.6370  -14.5930   20.4730 C   0  0  0  0  0  0  0  0  0  0  0  0
  -30.3710  -12.3880   19.3630 C   0  0  0  0  0  2  0  0  0  0  0  0
  -29.4380  -12.5580   18.1450 C   0  0  0  0  0  2  0  0  0  0  0  0
  -27.9630  -12.4060   18.5650 C   0  0  0  0  0  2  0  0  0  0  0  0
  -27.6070  -13.2590   19.8110 C   0  0  0  0  0  3  0  0  0  0  0  0
  -28.6600  -13.0930   20.9300 C   0  0  0  0  0  2  0  0  0  0  0  0
  -29.9810  -13.3970   20.3670 N   0  0  0  0  0  0  0  0  0  0  0  0
  -31.7860  -14.7170   20.0400 O   0  0  0  0  0  0  0  0  0  0  0  0
  -25.2080  -13.8620   20.5110 C   0  0  0  0  0  0  0  0  0  0  0  0
  -24.1390  -13.0900   20.8780 C   0  0  0  0  0  0  0  0  0  0  0  0
  -24.6030  -11.7390   20.8590 C   0  0  0  0  0  0  0  0  0  0  0  0
  -26.2550  -12.9810   20.2890 N   0  0  0  0  0  0  0  0  0  0  0  0
  -25.8960  -11.7000   20.5590 N   0  0  0  0  0  0  0  0  0  0  0  0
  -23.8770  -10.4770   21.0530 C   0  0  0  0  0  0  0  0  0  0  0  0
  -24.3170   -9.5050   21.9780 C   0  0  0  0  0  3  0  0  0  0  0  0
  -23.5910   -8.3080   22.1590 C   0  0  0  0  0  3  0  0  0  0  0  0
  -22.4110   -8.0740   21.4140 C   0  0  0  0  0  0  0  0  0  0  0  0
  -21.9900   -9.0340   20.4770 C   0  0  0  0  0  3  0  0  0  0  0  0
  -22.7160  -10.2230   20.2940 C   0  0  0  0  0  3  0  0  0  0  0  0
  -21.6550   -6.9300   21.5050 O   0  0  0  0  0  0  0  0  0  0  0  0
  -21.6320   -6.1730   22.6490 C   0  0  0  0  0  0  0  0  0  0  0  0
  -21.2510   -6.7150   23.8950 C   0  0  0  0  0  3  0  0  0  0  0  0
  -21.1740   -5.8850   25.0310 C   0  0  0  0  0  3  0  0  0  0  0  0
  -21.4670   -4.5130   24.9220 C   0  0  0  0  0  0  0  0  0  0  0  0
  -21.8410   -3.9680   23.6810 C   0  0  0  0  0  3  0  0  0  0  0  0
  -21.9200   -4.7960   22.5460 C   0  0  0  0  0  0  0  0  0  0  0  0
  -22.2610   -4.2630   21.3480 F   0  0  0  0  0  0  0  0  0  0  0  0
  -21.3850   -3.7130   26.0110 F   0  0  0  0  0  0  0  0  0  0  0  0
  -22.7390  -13.5670   21.1360 C   0  0  0  0  0  0  0  0  0  0  0  0
  -22.0070  -12.8770   22.0040 N   0  0  0  0  0  0  0  0  0  0  0  0
  -22.3030  -14.5880   20.6060 O   0  0  0  0  0  0  0  0  0  0  0  0
  -22.3720  -12.0500   22.4540 H   0  0  0  0  0  0  0  0  0  0  0  0
  -21.0680  -13.1780   22.2200 H   0  0  0  0  0  0  0  0  0  0  0  0
  -25.3720  -15.2310   20.3250 N   0  0  0  0  0  0  0  0  0  0  0  0
  -24.6020  -15.8850   20.4200 H   0  0  0  0  0  0  0  0  0  0  0  0
  -26.2200  -15.6650   19.9830 H   0  0  0  0  0  0  0  0  0  0  0  0
  -27.9540  -25.2580   20.9220 C   0  0  0  0  0  2  0  0  0  0  0  0
  -28.2310  -26.4760   20.1470 O   0  0  0  0  0  0  0  0  0  0  0  0
  -24.5710  -31.8630   23.2100 C   0  0  0  0  0  0  0  0  0  0  0  0
  -27.1460  -27.3510   20.1090 C   0  0  0  0  0  0  0  0  0  0  0  0
  -23.3470  -30.4770   21.5730 C   0  0  0  0  0  3  0  0  0  0  0  0
  -24.7840  -28.9390   20.1250 C   0  0  0  0  0  0  0  0  0  0  0  0
  -25.8830  -30.8000   21.3680 C   0  0  0  0  0  2  0  0  0  0  0  0
  -25.9560  -29.4290   20.7150 C   0  0  0  0  0  0  0  0  0  0  0  0
  -27.1450  -28.6450   20.7020 C   0  0  0  0  0  3  0  0  0  0  0  0
  -25.9580  -26.9120   19.4840 C   0  0  0  0  0  3  0  0  0  0  0  0
  -24.7840  -27.6820   19.5010 C   0  0  0  0  0  3  0  0  0  0  0  0
  -23.5470  -29.8090   20.1880 C   0  0  0  0  0  2  0  0  0  0  0  0
  -24.6190  -31.0620   22.1070 N   0  0  0  0  0  0  0  0  0  0  0  0
  -23.4930  -32.1420   23.7560 O   0  0  0  0  0  0  0  0  0  0  0  0
  -22.6920  -29.4550   22.5330 C   0  0  0  0  0  0  0  0  0  0  0  0
  -21.3640  -29.2870   22.4180 N   0  0  0  0  0  0  0  0  0  0  0  0
  -23.3770  -28.8190   23.3390 O   0  0  0  0  0  0  0  0  0  0  0  0
  -20.8720  -29.8500   21.7390 H   0  0  0  0  0  0  0  0  0  0  0  0
  -17.9850  -28.1090   22.9400 C   0  0  0  0  0  0  0  0  0  0  0  0
  -20.5460  -28.3510   23.1920 C   0  0  0  0  0  3  0  0  0  0  0  0
  -20.6350  -26.9200   22.6110 C   0  0  0  0  0  2  0  0  0  0  0  0
  -19.5240  -26.6080   21.6050 C   0  0  0  0  0  2  0  0  0  0  0  0
  -18.1480  -26.7610   22.2590 C   0  0  0  0  0  2  0  0  0  0  0  0
  -19.1110  -28.8620   23.3640 C   0  0  0  0  0  0  0  0  0  0  0  0
  -18.9050  -30.1260   23.9600 C   0  0  0  0  0  3  0  0  0  0  0  0
  -17.6040  -30.6340   24.1370 C   0  0  0  0  0  3  0  0  0  0  0  0
  -16.4920  -29.8770   23.7290 C   0  0  0  0  0  3  0  0  0  0  0  0
  -16.6830  -28.6160   23.1360 C   0  0  0  0  0  3  0  0  0  0  0  0
  -25.8630  -32.4870   23.8230 C   0  0  0  0  0  3  0  0  0  0  0  0
  -25.5570  -33.8800   24.1770 N   0  0  0  0  0  0  0  0  0  0  0  0
  -25.8820  -34.9430   23.4300 C   0  0  0  0  0  0  0  0  0  0  0  0
  -26.5420  -34.8550   22.3900 O   0  0  0  0  0  0  0  0  0  0  0  0
  -24.9710  -34.0230   24.9860 H   0  0  0  0  0  0  0  0  0  0  0  0
  -24.1530  -36.7420   23.1180 C   0  0  0  0  0  1  0  0  0  0  0  0
  -25.4000  -36.3250   23.9130 C   0  0  0  0  0  3  0  0  0  0  0  0
  -27.5440  -37.1920   24.7370 C   0  0  0  0  0  1  0  0  0  0  0  0
  -26.4330  -37.3790   23.8090 N   0  0  0  0  0  0  0  0  0  0  0  0
  -26.0300  -38.2960   23.9780 H   0  0  0  0  0  0  0  0  0  0  0  0
  -26.3970  -31.6970   25.0800 C   0  0  1  0  0  0  0  0  0  0  0  0
  -25.3190  -31.4440   26.1600 C   0  0  0  0  0  1  0  0  0  0  0  0
  -26.9740  -30.3250   24.6600 C   0  0  0  0  0  1  0  0  0  0  0  0
  -27.5570  -32.4810   25.7370 C   0  0  0  0  0  1  0  0  0  0  0  0
  1  4  1  0
  2  1  2  0
  3 52  1  0
  3  4  2  0
  4  7  1  0
  5  6  2  0
  5  2  1  0
  6  3  1  0
  8  5  1  0
  9  6  1  0
 10  2  1  0
 10 11  1  0
 11 13  1  0
 12 11  1  0
 14 11  1  0
 14 15  2  0
 16 15  1  0
 17 22  1  0
 18 19  1  0
 18 17  1  0
 20 19  1  0
 20 27  1  0
 20 21  1  0
 22 16  1  0
 22 21  1  0
 23 16  2  0
 24 25  2  0
 25 44  1  0
 26 25  1  0
 26 29  1  0
 27 24  1  0
 27 28  1  0
 28 26  2  0
 29 30  1  0
 30 31  2  0
 32 35  1  0
 32 31  1  0
 33 32  2  0
 34 33  1  0
 34 29  2  0
 35 36  1  0
 36 37  1  0
 37 38  2  0
 39 38  1  0
 39 43  1  0
 40 39  2  0
 41 36  2  0
 41 40  1  0
 42 41  1  0
 44 45  1  0
 45 48  1  0
 45 47  1  0
 46 44  2  0
 49 50  1  0
 49 24  1  0
 51 49  1  0
 53 52  1  0
 54 65  2  0
 55 53  1  0
 55 60  1  0
 56 64  1  0
 56 66  1  0
 57 63  1  0
 57 59  1  0
 58 64  1  0
 59 58  1  0
 60 59  2  0
 61 62  1  0
 61 55  2  0
 62 57  2  0
 63 56  1  0
 64 54  1  0
 66 68  2  0
 67 66  1  0
 69 67  1  0
 70 79  2  0
 70 75  1  0
 71 67  1  0
 71 75  1  0
 72 71  1  0
 73 74  1  0
 73 72  1  0
 74 70  1  0
 75 76  2  0
 76 77  1  0
 78 77  2  0
 79 78  1  0
 80 54  1  0
 80 81  1  0
 80 90  1  0
 81 84  1  0
 82 86  1  0
 82 81  1  0
 83 82  2  0
 86 85  1  0
 88 86  1  0
 88 89  1  0
 88 87  1  0
 90 93  1  1
 90 91  1  0
 92 90  1  0
M  ISO  4  15 100  16 100  52 101  53 101
M  END
>  <TORSDO>  (11) 
F 21

>  <SCORE>  (11) 
-13.348

>  <name>  (11) 
10

>  <ligand_id>  (11) 
10

>  <original_smiles>  (11) 
[H]c1c([H])c([H])c2c(c1[H])C([H])([H])C([H])([H])C([H])([H])C2([H])N([H])C(=O)C1([H])N(C(=O)C([H])(N([H])C(=O)C([H])(N([H])C([H])([H])[H])C([H])([H])[H])C(C([H])([H])[H])(C([H])([H])[H])C([H])([H])[H])C([H])([H])c2c([H])c(OC([H])([H])c3c(Cl)c([H])c(C([H])([H])[N+]([H])([H])C([H])([H])C([H])([H])C(=O)N4C([H])([H])C([H])([H])C([H])([H])C([H])(n5nc(-c6c([H])c([H])c(Oc7c([H])c([H])c(F)c([H])c7F)c([H])c6[H])c(C(=O)N([H])[H])c5N([H])[H])C4([H])[H])c(Cl)c3Cl)c([H])c([H])c2C1([H])[H]

>  <smiles>  (11) 
[H]c1c([H])c([H])c2c(c1[H])C([H])([H])C([H])([H])C([H])([H])C2([H])N([H])C(=O)C1([H])N(C(=O)C([H])(N([H])C(=O)C([H])(N([H])C([H])([H])[H])C([H])([H])[H])C(C([H])([H])[H])(C([H])([H])[H])C([H])([H])[H])C([H])([H])c2c([H])c(OC([H])([H])c3c(Cl)c([H])c(C([H])([H])[N+]([H])([H])C([H])([H])C([H])([H])C(=O)N4C([H])([H])C([H])([H])C([H])([H])C([H])(n5nc(-c6c([H])c([H])c(Oc7c([H])c([H])c(F)c([H])c7F)c([H])c6[H])c(C(=O)N([H])[H])c5N([H])[H])C4([H])[H])c(Cl)c3Cl)c([H])c([H])c2C1([H])[H]

$$$$
11:0:0
     RDKit          3D

 94102  0  0  1  0  0  0  0  0999 V2000
  -28.9810  -22.1330   19.4360 N   0  0  0  0  0  4  0  0  0  0  0  0
  -28.0890  -22.0820   18.9680 H   0  0  0  0  0  0  0  0  0  0  0  0
  -29.6430  -22.3200   18.6990 H   0  0  0  0  0  0  0  0  0  0  0  0
  -28.6750  -18.0040   19.4140 C   0  0  0  0  0  2  0  0  0  0  0  0
  -30.8880  -18.5660   20.3470 C   0  0  0  0  0  2  0  0  0  0  0  0
  -28.5010  -19.5520   19.0300 C   0  0  0  0  0  2  0  0  0  0  0  0
  -30.6970  -20.0900   19.8950 C   0  0  0  0  0  2  0  0  0  0  0  0
  -30.1380  -17.4140   19.5400 C   0  0  0  0  0  3  0  0  0  0  0  0
  -29.2230  -20.6510   19.9130 C   0  0  0  0  0  3  0  0  0  0  0  0
  -30.7500  -14.8310   19.2330 C   0  0  0  0  0  0  0  0  0  0  0  0
  -30.2830  -12.6470   18.0480 C   0  0  0  0  0  2  0  0  0  0  0  0
  -29.1360  -12.8090   17.0240 C   0  0  0  0  0  2  0  0  0  0  0  0
  -27.7670  -12.6070   17.6990 C   0  0  0  0  0  2  0  0  0  0  0  0
  -27.6470  -13.4010   19.0240 C   0  0  0  0  0  3  0  0  0  0  0  0
  -28.8820  -13.2010   19.9180 C   0  0  0  0  0  2  0  0  0  0  0  0
  -30.0660  -13.6230   19.1540 N   0  0  0  0  0  0  0  0  0  0  0  0
  -31.7430  -14.9790   18.5110 O   0  0  0  0  0  0  0  0  0  0  0  0
  -30.2660  -15.9100   20.0180 N   0  0  0  0  0  0  0  0  0  0  0  0
  -25.4560  -13.9760   20.2230 C   0  0  0  0  0  0  0  0  0  0  0  0
  -24.4590  -13.1960   20.7410 C   0  0  0  0  0  0  0  0  0  0  0  0
  -24.8750  -11.8420   20.5470 C   0  0  0  0  0  0  0  0  0  0  0  0
  -26.4120  -13.0990   19.7390 N   0  0  0  0  0  0  0  0  0  0  0  0
  -26.0830  -11.8060   19.9960 N   0  0  0  0  0  0  0  0  0  0  0  0
  -24.1650  -10.5810   20.7980 C   0  0  0  0  0  0  0  0  0  0  0  0
  -24.6560   -9.6260   21.7150 C   0  0  0  0  0  3  0  0  0  0  0  0
  -23.9460   -8.4310   21.9550 C   0  0  0  0  0  3  0  0  0  0  0  0
  -22.7290   -8.1810   21.2780 C   0  0  0  0  0  0  0  0  0  0  0  0
  -22.2540   -9.1240   20.3500 C   0  0  0  0  0  3  0  0  0  0  0  0
  -22.9650  -10.3110   20.1080 C   0  0  0  0  0  3  0  0  0  0  0  0
  -21.9850   -7.0350   21.4250 O   0  0  0  0  0  0  0  0  0  0  0  0
  -21.9140   -6.3720   22.6240 C   0  0  0  0  0  0  0  0  0  0  0  0
  -21.4630   -7.0060   23.8010 C   0  0  0  0  0  3  0  0  0  0  0  0
  -21.3390   -6.2690   24.9960 C   0  0  0  0  0  3  0  0  0  0  0  0
  -21.6580   -4.8980   25.0150 C   0  0  0  0  0  0  0  0  0  0  0  0
  -22.1030   -4.2630   23.8420 C   0  0  0  0  0  3  0  0  0  0  0  0
  -22.2280   -4.9980   22.6490 C   0  0  0  0  0  0  0  0  0  0  0  0
  -22.6370   -4.3760   21.5170 F   0  0  0  0  0  0  0  0  0  0  0  0
  -21.5320   -4.1880   26.1600 F   0  0  0  0  0  0  0  0  0  0  0  0
  -23.1480  -13.6760   21.2910 C   0  0  0  0  0  0  0  0  0  0  0  0
  -22.6000  -12.9700   22.2730 N   0  0  0  0  0  0  0  0  0  0  0  0
  -22.6260  -14.7140   20.8830 O   0  0  0  0  0  0  0  0  0  0  0  0
  -23.0380  -12.1330   22.6260 H   0  0  0  0  0  0  0  0  0  0  0  0
  -21.7290  -13.2760   22.6810 H   0  0  0  0  0  0  0  0  0  0  0  0
  -25.6200  -15.3520   20.1010 N   0  0  0  0  0  0  0  0  0  0  0  0
  -24.9010  -16.0060   20.3910 H   0  0  0  0  0  0  0  0  0  0  0  0
  -26.4130  -15.8010   19.6620 H   0  0  0  0  0  0  0  0  0  0  0  0
  -29.1630  -15.9790   22.3000 C   0  0  0  0  0  1  0  0  0  0  0  0
  -31.2580  -14.5730   22.0400 C   0  0  0  0  0  1  0  0  0  0  0  0
  -30.4770  -15.8050   21.5030 C   0  0  0  0  0  3  0  0  0  0  0  0
  -27.9850  -23.1120   21.5620 C   0  0  0  0  0  1  0  0  0  0  0  0
  -30.2880  -23.7780   20.8380 C   0  0  0  0  0  1  0  0  0  0  0  0
  -28.8740  -23.4220   20.3390 C   0  0  1  0  0  0  0  0  0  0  0  0
  -28.2440  -24.7920   19.6330 C   0  0  0  0  0  2  0  0  0  0  0  0
  -28.2740  -26.2130   20.2250 O   0  0  0  0  0  0  0  0  0  0  0  0
  -24.6330  -31.8570   23.1240 C   0  0  0  0  0  0  0  0  0  0  0  0
  -27.1920  -27.1450   20.1240 C   0  0  0  0  0  0  0  0  0  0  0  0
  -23.4170  -30.4330   21.5200 C   0  0  0  0  0  3  0  0  0  0  0  0
  -24.8510  -28.8520   20.1010 C   0  0  0  0  0  0  0  0  0  0  0  0
  -25.9650  -30.7130   21.3220 C   0  0  0  0  0  2  0  0  0  0  0  0
  -26.0320  -29.3170   20.6920 C   0  0  0  0  0  0  0  0  0  0  0  0
  -27.2010  -28.4740   20.6960 C   0  0  0  0  0  3  0  0  0  0  0  0
  -25.9870  -26.7830   19.4750 C   0  0  0  0  0  3  0  0  0  0  0  0
  -24.8380  -27.5970   19.4820 C   0  0  0  0  0  3  0  0  0  0  0  0
  -23.6210  -29.7400   20.1490 C   0  0  0  0  0  2  0  0  0  0  0  0
  -24.6910  -31.0230   22.0430 N   0  0  0  0  0  0  0  0  0  0  0  0
  -23.5520  -32.1470   23.6600 O   0  0  0  0  0  0  0  0  0  0  0  0
  -22.7580  -29.4350   22.5040 C   0  0  0  0  0  0  0  0  0  0  0  0
  -21.4390  -29.2180   22.3620 N   0  0  0  0  0  0  0  0  0  0  0  0
  -23.4360  -28.8550   23.3560 O   0  0  0  0  0  0  0  0  0  0  0  0
  -20.9480  -29.7370   21.6470 H   0  0  0  0  0  0  0  0  0  0  0  0
  -18.0920  -27.9150   22.8290 C   0  0  0  0  0  0  0  0  0  0  0  0
  -20.6310  -28.2860   23.1540 C   0  0  0  0  0  3  0  0  0  0  0  0
  -20.8010  -26.8340   22.6470 C   0  0  0  0  0  2  0  0  0  0  0  0
  -19.7420  -26.4240   21.6210 C   0  0  0  0  0  2  0  0  0  0  0  0
  -18.3380  -26.5450   22.2200 C   0  0  0  0  0  2  0  0  0  0  0  0
  -19.1700  -28.7390   23.2530 C   0  0  0  0  0  0  0  0  0  0  0  0
  -18.8860  -30.0160   23.7820 C   0  0  0  0  0  3  0  0  0  0  0  0
  -17.5580  -30.4730   23.8930 C   0  0  0  0  0  3  0  0  0  0  0  0
  -16.4960  -29.6480   23.4840 C   0  0  0  0  0  3  0  0  0  0  0  0
  -16.7640  -28.3720   22.9580 C   0  0  0  0  0  3  0  0  0  0  0  0
  -25.9170  -32.5050   23.7240 C   0  0  0  0  0  3  0  0  0  0  0  0
  -26.4920  -31.7110   24.9630 C   0  0  1  0  0  0  0  0  0  0  0  0
  -25.4320  -31.3990   26.0450 C   0  0  0  0  0  1  0  0  0  0  0  0
  -27.1160  -30.3680   24.5150 C   0  0  0  0  0  1  0  0  0  0  0  0
  -27.6280  -32.5260   25.6240 C   0  0  0  0  0  1  0  0  0  0  0  0
  -25.5830  -33.8850   24.1090 N   0  0  0  0  0  0  0  0  0  0  0  0
  -25.8520  -34.9700   23.3700 C   0  0  0  0  0  0  0  0  0  0  0  0
  -26.4770  -34.9160   22.3080 O   0  0  0  0  0  0  0  0  0  0  0  0
  -25.0190  -33.9980   24.9380 H   0  0  0  0  0  0  0  0  0  0  0  0
  -24.0690  -36.7320   23.1440 C   0  0  0  0  0  1  0  0  0  0  0  0
  -25.3510  -36.3310   23.8930 C   0  0  0  0  0  3  0  0  0  0  0  0
  -27.4930  -37.2440   24.6730 C   0  0  0  0  0  1  0  0  0  0  0  0
  -26.3530  -37.4130   23.7750 N   0  0  0  0  0  0  0  0  0  0  0  0
  -25.9310  -38.3180   23.9650 H   0  0  0  0  0  0  0  0  0  0  0  0
  1 52  1  0
  2  1  1  0
  3  1  1  0
  4  8  1  0
  6  4  1  0
  6  9  1  0
  7  9  1  0
  7  5  1  0
  8 18  1  0
  8  5  1  0
  9  1  1  0
 10 18  1  0
 11 16  1  0
 12 13  1  0
 12 11  1  0
 14 13  1  0
 14 22  1  0
 14 15  1  0
 16 10  1  0
 16 15  1  0
 17 10  2  0
 18 49  1  0
 19 20  2  0
 20 39  1  0
 21 20  1  0
 21 24  1  0
 22 23  1  0
 22 19  1  0
 23 21  2  0
 24 25  1  0
 25 26  2  0
 27 30  1  0
 27 26  1  0
 28 27  2  0
 29 28  1  0
 29 24  2  0
 30 31  1  0
 31 36  2  0
 31 32  1  0
 32 33  2  0
 33 34  1  0
 34 38  1  0
 35 34  2  0
 36 35  1  0
 37 36  1  0
 39 40  1  0
 40 42  1  0
 40 43  1  0
 41 39  2  0
 44 19  1  0
 44 45  1  0
 46 44  1  0
 49 48  1  0
 49 47  1  0
 52 51  1  1
 52 50  1  0
 53 54  1  0
 53 52  1  0
 55 66  2  0
 56 54  1  0
 56 61  1  0
 57 65  1  0
 57 67  1  0
 58 64  1  0
 58 60  1  0
 59 65  1  0
 60 61  2  0
 60 59  1  0
 62 63  1  0
 62 56  2  0
 63 58  2  0
 64 57  1  0
 65 55  1  0
 67 69  2  0
 68 67  1  0
 70 68  1  0
 71 80  2  0
 71 76  1  0
 72 68  1  0
 72 76  1  0
 73 72  1  0
 74 75  1  0
 74 73  1  0
 75 71  1  0
 76 77  2  0
 77 78  1  0
 79 78  2  0
 80 79  1  0
 81 55  1  0
 81 86  1  0
 81 82  1  0
 82 85  1  1
 82 83  1  0
 84 82  1  0
 86 89  1  0
 87 91  1  0
 87 86  1  0
 88 87  2  0
 91 90  1  0
 93 91  1  0
 93 94  1  0
 93 92  1  0
M  ISO  4  10 100  18 100  53 101  54 101
M  END
>  <TORSDO>  (12) 
F 20

>  <SCORE>  (12) 
-9.866

>  <name>  (12) 
11

>  <ligand_id>  (12) 
11

>  <original_smiles>  (12) 
[H]c1c([H])c([H])c2c(c1[H])C([H])([H])C([H])([H])C([H])([H])C2([H])N([H])C(=O)C1([H])N(C(=O)C([H])(N([H])C(=O)C([H])(N([H])C([H])([H])[H])C([H])([H])[H])C(C([H])([H])[H])(C([H])([H])[H])C([H])([H])[H])C([H])([H])c2c([H])c(OC([H])([H])C(C([H])([H])[H])(C([H])([H])[H])[N+]([H])([H])C3([H])C([H])([H])C([H])([H])C([H])(N(C(=O)N4C([H])([H])C([H])([H])C([H])([H])C([H])(n5nc(-c6c([H])c([H])c(Oc7c([H])c([H])c(F)c([H])c7F)c([H])c6[H])c(C(=O)N([H])[H])c5N([H])[H])C4([H])[H])C([H])(C([H])([H])[H])C([H])([H])[H])C([H])([H])C3([H])[H])c([H])c([H])c2C1([H])[H]

>  <smiles>  (12) 
[H]c1c([H])c([H])c2c(c1[H])C([H])([H])C([H])([H])C([H])([H])C2([H])N([H])C(=O)C1([H])N(C(=O)C([H])(N([H])C(=O)C([H])(N([H])C([H])([H])[H])C([H])([H])[H])C(C([H])([H])[H])(C([H])([H])[H])C([H])([H])[H])C([H])([H])c2c([H])c(OC([H])([H])C(C([H])([H])[H])(C([H])([H])[H])[N+]([H])([H])C3([H])C([H])([H])C([H])([H])C([H])(N(C(=O)N4C([H])([H])C([H])([H])C([H])([H])C([H])(n5nc(-c6c([H])c([H])c(Oc7c([H])c([H])c(F)c([H])c7F)c([H])c6[H])c(C(=O)N([H])[H])c5N([H])[H])C4([H])[H])C([H])(C([H])([H])[H])C([H])([H])[H])C([H])([H])C3([H])[H])c([H])c([H])c2C1([H])[H]

$$$$
12:0:0
     RDKit          3D

 98106  0  0  1  0  0  0  0  0999 V2000
  -26.9160  -19.0610   20.3910 C   0  0  0  0  0  1  0  0  0  0  0  0
  -27.6420  -19.8280   19.3480 N   0  0  2  0  0  4  0  0  0  0  0  0
  -26.9150  -20.0310   18.6770 H   0  0  0  0  0  0  0  0  0  0  0  0
  -29.1100  -19.6700   17.2940 C   0  0  0  0  0  2  0  0  0  0  0  0
  -29.8910  -18.5700   19.4170 C   0  0  0  0  0  2  0  0  0  0  0  0
  -30.0290  -18.7300   16.5040 C   0  0  0  0  0  2  0  0  0  0  0  0
  -28.6450  -19.0010   18.5970 C   0  0  0  0  0  3  0  0  0  0  0  0
  -30.8900  -17.7000   18.5980 C   0  0  0  0  0  3  0  0  0  0  0  0
  -32.2020  -17.6130   16.4520 C   0  0  0  0  0  1  0  0  0  0  0  0
  -31.2330  -18.3610   17.2940 N   0  0  1  0  0  4  0  0  0  0  0  0
  -31.6980  -19.2310   17.5140 H   0  0  0  0  0  0  0  0  0  0  0  0
  -32.1660  -17.3830   19.4330 C   0  0  0  0  0  2  0  0  0  0  0  0
  -31.9940  -16.5170   20.7030 C   0  0  0  0  0  2  0  0  0  0  0  0
  -31.8420  -14.1330   19.9170 C   0  0  0  0  0  0  0  0  0  0  0  0
  -31.5110  -11.7270   19.4830 C   0  0  0  0  0  2  0  0  0  0  0  0
  -30.5560  -11.4910   18.2990 C   0  0  0  0  0  2  0  0  0  0  0  0
  -29.0900  -11.4930   18.7720 C   0  0  0  0  0  2  0  0  0  0  0  0
  -28.7500  -12.7190   19.6600 C   0  0  0  0  0  3  0  0  0  0  0  0
  -29.8100  -12.9010   20.7670 C   0  0  0  0  0  2  0  0  0  0  0  0
  -31.1370  -12.9930   20.1260 N   0  0  0  0  0  0  0  0  0  0  0  0
  -32.8790  -14.1800   19.2500 O   0  0  0  0  0  0  0  0  0  0  0  0
  -31.3370  -15.2230   20.5090 N   0  0  0  0  0  0  0  0  0  0  0  0
  -30.4790  -15.0680   21.0200 H   0  0  0  0  0  0  0  0  0  0  0  0
  -26.5170  -13.6210   20.5680 C   0  0  0  0  0  0  0  0  0  0  0  0
  -25.3720  -12.9900   20.9710 C   0  0  0  0  0  0  0  0  0  0  0  0
  -25.6230  -11.5910   20.8290 C   0  0  0  0  0  0  0  0  0  0  0  0
  -27.4040  -12.6150   20.2170 N   0  0  0  0  0  0  0  0  0  0  0  0
  -26.8700  -11.3840   20.4290 N   0  0  0  0  0  0  0  0  0  0  0  0
  -24.7300  -10.4370   20.9970 C   0  0  0  0  0  0  0  0  0  0  0  0
  -24.9840   -9.4410   21.9650 C   0  0  0  0  0  3  0  0  0  0  0  0
  -24.1020   -8.3500   22.1180 C   0  0  0  0  0  3  0  0  0  0  0  0
  -22.9480   -8.2510   21.3040 C   0  0  0  0  0  0  0  0  0  0  0  0
  -22.7120   -9.2340   20.3260 C   0  0  0  0  0  3  0  0  0  0  0  0
  -23.5940  -10.3160   20.1700 C   0  0  0  0  0  3  0  0  0  0  0  0
  -22.0480   -7.2160   21.3680 O   0  0  0  0  0  0  0  0  0  0  0  0
  -21.7650   -6.5790   22.5490 C   0  0  0  0  0  0  0  0  0  0  0  0
  -21.1630   -7.2520   23.6340 C   0  0  0  0  0  3  0  0  0  0  0  0
  -20.8280   -6.5430   24.8050 C   0  0  0  0  0  3  0  0  0  0  0  0
  -21.0820   -5.1610   24.8880 C   0  0  0  0  0  0  0  0  0  0  0  0
  -21.6750   -4.4870   23.8050 C   0  0  0  0  0  3  0  0  0  0  0  0
  -22.0120   -5.1950   22.6370 C   0  0  0  0  0  0  0  0  0  0  0  0
  -22.5620   -4.5350   21.5890 F   0  0  0  0  0  0  0  0  0  0  0  0
  -20.7530   -4.4770   26.0090 F   0  0  0  0  0  0  0  0  0  0  0  0
  -24.0820  -13.6450   21.3710 C   0  0  0  0  0  0  0  0  0  0  0  0
  -23.3090  -12.9980   22.2360 N   0  0  0  0  0  0  0  0  0  0  0  0
  -23.7750  -14.7600   20.9510 O   0  0  0  0  0  0  0  0  0  0  0  0
  -23.5730  -12.0920   22.5950 H   0  0  0  0  0  0  0  0  0  0  0  0
  -22.4420  -13.4150   22.5430 H   0  0  0  0  0  0  0  0  0  0  0  0
  -26.8720  -14.9620   20.4490 N   0  0  0  0  0  0  0  0  0  0  0  0
  -26.1790  -15.6940   20.5620 H   0  0  0  0  0  0  0  0  0  0  0  0
  -27.7060  -15.2710   19.9680 H   0  0  0  0  0  0  0  0  0  0  0  0
  -28.0910  -21.1670   19.8300 C   0  0  0  0  0  2  0  0  0  0  0  0
  -27.5270  -22.3220   18.9720 C   0  0  0  0  0  2  0  0  0  0  0  0
  -27.4890  -23.6660   19.7260 C   0  0  0  0  0  2  0  0  0  0  0  0
  -27.2840  -24.8790   18.7980 C   0  0  0  0  0  2  0  0  0  0  0  0
  -28.5800  -25.2920   18.0700 C   0  0  0  0  0  2  0  0  0  0  0  0
  -28.7580  -26.8090   17.8970 C   0  0  0  0  0  2  0  0  0  0  0  0
  -27.6910  -27.3440   17.1130 O   0  0  0  0  0  0  0  0  0  0  0  0
  -25.3570  -29.8690   23.3430 C   0  0  0  0  0  0  0  0  0  0  0  0
  -26.7390  -28.0530   17.8040 C   0  0  0  0  0  0  0  0  0  0  0  0
  -23.7470  -29.9560   21.4640 C   0  0  0  0  0  3  0  0  0  0  0  0
  -24.7190  -29.4810   19.1550 C   0  0  0  0  0  0  0  0  0  0  0  0
  -26.2620  -30.0710   21.0340 C   0  0  0  0  0  2  0  0  0  0  0  0
  -26.0010  -29.3920   19.7080 C   0  0  0  0  0  0  0  0  0  0  0  0
  -27.0170  -28.6820   19.0370 C   0  0  0  0  0  3  0  0  0  0  0  0
  -25.4520  -28.1680   17.2440 C   0  0  0  0  0  3  0  0  0  0  0  0
  -24.4350  -28.8700   17.9190 C   0  0  0  0  0  3  0  0  0  0  0  0
  -23.6900  -30.2600   19.9420 C   0  0  0  0  0  2  0  0  0  0  0  0
  -25.1480  -29.9350   21.9980 N   0  0  0  0  0  0  0  0  0  0  0  0
  -24.4090  -29.8700   24.1390 O   0  0  0  0  0  0  0  0  0  0  0  0
  -22.9720  -28.6450   21.7290 C   0  0  0  0  0  0  0  0  0  0  0  0
  -21.6330  -28.7220   21.6700 N   0  0  0  0  0  0  0  0  0  0  0  0
  -23.5710  -27.5900   21.9520 O   0  0  0  0  0  0  0  0  0  0  0  0
  -21.2180  -29.6270   21.4960 H   0  0  0  0  0  0  0  0  0  0  0  0
  -18.1450  -27.8100   21.5070 C   0  0  0  0  0  0  0  0  0  0  0  0
  -20.6990  -27.6100   21.8440 C   0  0  0  0  0  3  0  0  0  0  0  0
  -20.6880  -26.6890   20.6010 C   0  0  0  0  0  2  0  0  0  0  0  0
  -19.6060  -27.0650   19.5830 C   0  0  0  0  0  2  0  0  0  0  0  0
  -18.2190  -26.9980   20.2260 C   0  0  0  0  0  2  0  0  0  0  0  0
  -19.3110  -28.1110   22.2600 C   0  0  0  0  0  0  0  0  0  0  0  0
  -19.1880  -28.9020   23.4230 C   0  0  0  0  0  3  0  0  0  0  0  0
  -17.9320  -29.3830   23.8380 C   0  0  0  0  0  3  0  0  0  0  0  0
  -16.7800  -29.0670   23.0980 C   0  0  0  0  0  3  0  0  0  0  0  0
  -16.8870  -28.2810   21.9360 C   0  0  0  0  0  3  0  0  0  0  0  0
  -26.7960  -29.8100   23.9460 C   0  0  0  0  0  3  0  0  0  0  0  0
  -27.2250  -28.3600   24.3940 C   0  0  1  0  0  0  0  0  0  0  0  0
  -26.1970  -27.6650   25.3160 C   0  0  0  0  0  1  0  0  0  0  0  0
  -27.4420  -27.4560   23.1600 C   0  0  0  0  0  1  0  0  0  0  0  0
  -28.5750  -28.4210   25.1440 C   0  0  0  0  0  1  0  0  0  0  0  0
  -26.8360  -30.7420   25.0800 N   0  0  0  0  0  0  0  0  0  0  0  0
  -27.4560  -31.9290   25.0670 C   0  0  0  0  0  0  0  0  0  0  0  0
  -28.1210  -32.3270   24.1050 O   0  0  0  0  0  0  0  0  0  0  0  0
  -26.2700  -30.5040   25.8820 H   0  0  0  0  0  0  0  0  0  0  0  0
  -26.2990  -33.9390   26.0380 C   0  0  0  0  0  1  0  0  0  0  0  0
  -27.3130  -32.8180   26.3170 C   0  0  0  0  0  3  0  0  0  0  0  0
  -29.5170  -32.4170   27.3210 C   0  0  0  0  0  1  0  0  0  0  0  0
  -28.5920  -33.4040   26.7730 N   0  0  0  0  0  0  0  0  0  0  0  0
  -28.4300  -34.1160   27.4800 H   0  0  0  0  0  0  0  0  0  0  0  0
  2 52  1  0
  2  1  1  0
  2  3  1  6
  4  7  1  0
  6  4  1  0
  6 10  1  0
  7  2  1  0
  7  5  1  0
  8  5  1  0
  8 12  1  0
  9 10  1  0
 10 11  1  1
 10  8  1  0
 12 13  1  0
 14 20  1  0
 14 22  1  0
 15 20  1  0
 16 17  1  0
 16 15  1  0
 18 17  1  0
 18 27  1  0
 18 19  1  0
 20 19  1  0
 21 14  2  0
 22 13  1  0
 22 23  1  0
 24 25  2  0
 25 44  1  0
 26 25  1  0
 26 29  1  0
 27 28  1  0
 27 24  1  0
 28 26  2  0
 29 30  1  0
 30 31  2  0
 32 35  1  0
 32 31  1  0
 33 32  2  0
 34 33  1  0
 34 29  2  0
 35 36  1  0
 36 41  2  0
 36 37  1  0
 37 38  2  0
 38 39  1  0
 39 43  1  0
 40 39  2  0
 41 40  1  0
 42 41  1  0
 44 45  1  0
 45 48  1  0
 45 47  1  0
 46 44  2  0
 49 50  1  0
 49 24  1  0
 51 49  1  0
 53 54  1  0
 53 52  1  0
 55 54  1  0
 56 55  1  0
 57 56  1  0
 58 60  1  0
 58 57  1  0
 59 70  2  0
 60 65  1  0
 61 71  1  0
 61 69  1  0
 62 64  1  0
 62 68  1  0
 63 69  1  0
 64 63  1  0
 65 64  2  0
 66 60  2  0
 66 67  1  0
 67 62  2  0
 68 61  1  0
 69 59  1  0
 71 73  2  0
 72 71  1  0
 74 72  1  0
 75 84  2  0
 75 80  1  0
 76 72  1  0
 76 80  1  0
 77 76  1  0
 78 79  1  0
 78 77  1  0
 79 75  1  0
 80 81  2  0
 81 82  1  0
 83 82  2  0
 84 83  1  0
 85 59  1  0
 85 86  1  0
 85 90  1  0
 86 89  1  1
 86 87  1  0
 88 86  1  0
 90 93  1  0
 91 90  1  0
 91 95  1  0
 92 91  2  0
 95 94  1  0
 95 97  1  0
 97 96  1  0
 97 98  1  0
M  ISO  4  14 100  22 100  57 101  58 101
M  END
>  <TORSDO>  (13) 
F 25

>  <SCORE>  (13) 
-8.305

>  <name>  (13) 
12

>  <ligand_id>  (13) 
12

>  <original_smiles>  (13) 
[H]c1c([H])c([H])c2c(c1[H])C([H])([H])C([H])([H])C([H])([H])C2([H])N([H])C(=O)C1([H])N(C(=O)C([H])(N([H])C(=O)C([H])(N([H])C([H])([H])[H])C([H])([H])[H])C(C([H])([H])[H])(C([H])([H])[H])C([H])([H])[H])C([H])([H])c2c([H])c(OC([H])([H])C([H])([H])C([H])([H])C([H])([H])C([H])([H])C([H])([H])[N+]([H])(C([H])([H])[H])C3([H])C([H])([H])C([H])([H])[N+]([H])(C([H])([H])[H])C([H])(C([H])([H])C([H])([H])N([H])C(=O)N4C([H])([H])C([H])([H])C([H])([H])C([H])(n5nc(-c6c([H])c([H])c(Oc7c([H])c([H])c(F)c([H])c7F)c([H])c6[H])c(C(=O)N([H])[H])c5N([H])[H])C4([H])[H])C3([H])[H])c([H])c([H])c2C1([H])[H]

>  <smiles>  (13) 
[H]c1c([H])c([H])c2c(c1[H])C([H])([H])C([H])([H])C([H])([H])C2([H])N([H])C(=O)C1([H])N(C(=O)C([H])(N([H])C(=O)C([H])(N([H])C([H])([H])[H])C([H])([H])[H])C(C([H])([H])[H])(C([H])([H])[H])C([H])([H])[H])C([H])([H])c2c([H])c(OC([H])([H])C([H])([H])C([H])([H])C([H])([H])C([H])([H])C([H])([H])[N+]([H])(C([H])([H])[H])C3([H])C([H])([H])C([H])([H])[N+]([H])(C([H])([H])[H])C([H])(C([H])([H])C([H])([H])N([H])C(=O)N4C([H])([H])C([H])([H])C([H])([H])C([H])(n5nc(-c6c([H])c([H])c(Oc7c([H])c([H])c(F)c([H])c7F)c([H])c6[H])c(C(=O)N([H])[H])c5N([H])[H])C4([H])[H])C3([H])[H])c([H])c([H])c2C1([H])[H]

$$$$
13:0:0
     RDKit          3D

 95103  0  0  1  0  0  0  0  0999 V2000
  -30.8650  -21.1580   21.4200 C   0  0  0  0  0  2  0  0  0  0  0  0
  -31.9060  -17.4420   21.1400 C   0  0  0  0  0  3  0  0  0  0  0  0
  -30.8110  -19.6430   21.1700 C   0  0  0  0  0  0  0  0  0  0  0  0
  -30.6670  -16.7970   20.9210 C   0  0  0  0  0  0  0  0  0  0  0  0
  -31.9810  -18.8460   21.2610 C   0  0  0  0  0  0  0  0  0  0  0  0
  -29.5710  -19.0000   20.9260 C   0  0  0  0  0  0  0  0  0  0  0  0
  -29.5020  -17.5910   20.8040 C   0  0  0  0  0  0  0  0  0  0  0  0
  -33.5310  -19.5600   21.5370 Cl  0  0  0  0  0  0  0  0  0  0  0  0
  -28.1160  -19.9350   20.7810 Cl  0  0  0  0  0  0  0  0  0  0  0  0
  -27.9760  -16.8170   20.5140 Cl  0  0  0  0  0  0  0  0  0  0  0  0
  -31.0730  -14.4800   19.9910 C   0  0  0  0  0  0  0  0  0  0  0  0
  -30.6260  -12.4040   18.7320 C   0  0  0  0  0  2  0  0  0  0  0  0
  -29.6250  -12.7040   17.5960 C   0  0  0  0  0  2  0  0  0  0  0  0
  -28.1700  -12.6190   18.1010 C   0  0  0  0  0  2  0  0  0  0  0  0
  -27.9440  -13.4070   19.4190 C   0  0  0  0  0  3  0  0  0  0  0  0
  -29.0400  -13.0560   20.4500 C   0  0  0  0  0  2  0  0  0  0  0  0
  -30.3530  -13.3370   19.8360 N   0  0  0  0  0  0  0  0  0  0  0  0
  -32.1370  -14.6860   19.4010 O   0  0  0  0  0  0  0  0  0  0  0  0
  -30.4950  -15.3810   20.8020 N   0  0  0  0  0  0  0  0  0  0  0  0
  -29.6810  -15.0270   21.2860 H   0  0  0  0  0  0  0  0  0  0  0  0
  -25.6010  -14.0950   20.2390 C   0  0  0  0  0  0  0  0  0  0  0  0
  -24.5240  -13.3580   20.6520 C   0  0  0  0  0  0  0  0  0  0  0  0
  -24.9330  -11.9910   20.5850 C   0  0  0  0  0  0  0  0  0  0  0  0
  -26.6030  -13.1790   19.9550 N   0  0  0  0  0  0  0  0  0  0  0  0
  -26.2040  -11.9090   20.2160 N   0  0  0  0  0  0  0  0  0  0  0  0
  -24.1710  -10.7540   20.7960 C   0  0  0  0  0  0  0  0  0  0  0  0
  -24.5680   -9.7980   21.7570 C   0  0  0  0  0  3  0  0  0  0  0  0
  -23.8090   -8.6240   21.9540 C   0  0  0  0  0  3  0  0  0  0  0  0
  -22.6400   -8.3970   21.1900 C   0  0  0  0  0  0  0  0  0  0  0  0
  -22.2620   -9.3420   20.2200 C   0  0  0  0  0  3  0  0  0  0  0  0
  -23.0200  -10.5080   20.0210 C   0  0  0  0  0  3  0  0  0  0  0  0
  -21.8560   -7.2750   21.2950 O   0  0  0  0  0  0  0  0  0  0  0  0
  -21.6870   -6.6230   22.4910 C   0  0  0  0  0  0  0  0  0  0  0  0
  -21.2000   -7.2870   23.6380 C   0  0  0  0  0  3  0  0  0  0  0  0
  -20.9770   -6.5640   24.8270 C   0  0  0  0  0  3  0  0  0  0  0  0
  -21.2290   -5.1790   24.8680 C   0  0  0  0  0  0  0  0  0  0  0  0
  -21.7090   -4.5170   23.7250 C   0  0  0  0  0  3  0  0  0  0  0  0
  -21.9340   -5.2370   22.5390 C   0  0  0  0  0  0  0  0  0  0  0  0
  -22.3770   -4.5900   21.4340 F   0  0  0  0  0  0  0  0  0  0  0  0
  -21.0070   -4.4830   26.0080 F   0  0  0  0  0  0  0  0  0  0  0  0
  -23.1600  -13.8830   20.9990 C   0  0  0  0  0  0  0  0  0  0  0  0
  -22.4660  -13.2240   21.9220 N   0  0  0  0  0  0  0  0  0  0  0  0
  -22.7200  -14.9100   20.4860 O   0  0  0  0  0  0  0  0  0  0  0  0
  -22.8360  -12.3930   22.3580 H   0  0  0  0  0  0  0  0  0  0  0  0
  -21.5530  -13.5570   22.1940 H   0  0  0  0  0  0  0  0  0  0  0  0
  -25.8060  -15.4590   20.0630 N   0  0  0  0  0  0  0  0  0  0  0  0
  -25.0750  -16.1430   20.2320 H   0  0  0  0  0  0  0  0  0  0  0  0
  -26.6690  -15.8730   19.7360 H   0  0  0  0  0  0  0  0  0  0  0  0
  -30.3170  -22.0010   20.3280 N   0  0  0  0  0  4  0  0  0  0  0  0
  -29.4910  -21.5650   19.9500 H   0  0  0  0  0  0  0  0  0  0  0  0
  -31.0000  -22.0560   19.5890 H   0  0  0  0  0  0  0  0  0  0  0  0
  -29.9660  -23.3720   20.7810 C   0  0  0  0  0  2  0  0  0  0  0  0
  -29.3830  -24.2870   19.6770 C   0  0  0  0  0  2  0  0  0  0  0  0
  -28.9350  -25.6540   20.2420 C   0  0  0  0  0  2  0  0  0  0  0  0
  -28.6140  -26.5700   19.1960 O   0  0  0  0  0  0  0  0  0  0  0  0
  -24.6450  -31.2660   22.8090 C   0  0  0  0  0  0  0  0  0  0  0  0
  -27.4130  -27.2190   19.3380 C   0  0  0  0  0  0  0  0  0  0  0  0
  -23.4610  -29.9290   21.0970 C   0  0  0  0  0  3  0  0  0  0  0  0
  -24.9450  -28.5710   19.5300 C   0  0  0  0  0  0  0  0  0  0  0  0
  -25.9550  -30.4340   20.8600 C   0  0  0  0  0  2  0  0  0  0  0  0
  -26.0900  -29.1180   20.1240 C   0  0  0  0  0  0  0  0  0  0  0  0
  -27.3300  -28.4470   20.0290 C   0  0  0  0  0  3  0  0  0  0  0  0
  -26.2550  -26.6740   18.7500 C   0  0  0  0  0  3  0  0  0  0  0  0
  -25.0200  -27.3450   18.8430 C   0  0  0  0  0  3  0  0  0  0  0  0
  -23.6630  -29.3600   19.6670 C   0  0  0  0  0  2  0  0  0  0  0  0
  -24.7070  -30.5540   21.6490 N   0  0  0  0  0  0  0  0  0  0  0  0
  -23.5700  -31.4410   23.3970 O   0  0  0  0  0  0  0  0  0  0  0  0
  -22.8880  -28.8090   21.9970 C   0  0  0  0  0  0  0  0  0  0  0  0
  -21.5660  -28.5920   21.9120 N   0  0  0  0  0  0  0  0  0  0  0  0
  -23.6290  -28.1410   22.7220 O   0  0  0  0  0  0  0  0  0  0  0  0
  -21.0260  -29.1860   21.2980 H   0  0  0  0  0  0  0  0  0  0  0  0
  -18.2530  -27.2680   22.4790 C   0  0  0  0  0  0  0  0  0  0  0  0
  -20.8160  -27.5650   22.6340 C   0  0  0  0  0  3  0  0  0  0  0  0
  -20.9160  -26.1960   21.9200 C   0  0  0  0  0  2  0  0  0  0  0  0
  -19.7660  -25.9430   20.9420 C   0  0  0  0  0  2  0  0  0  0  0  0
  -18.4190  -25.9920   21.6710 C   0  0  0  0  0  2  0  0  0  0  0  0
  -19.3790  -28.0150   22.9180 C   0  0  0  0  0  0  0  0  0  0  0  0
  -19.1670  -29.2140   23.6330 C   0  0  0  0  0  3  0  0  0  0  0  0
  -17.8640  -29.6650   23.9150 C   0  0  0  0  0  3  0  0  0  0  0  0
  -16.7540  -28.9130   23.4920 C   0  0  0  0  0  3  0  0  0  0  0  0
  -16.9490  -27.7170   22.7790 C   0  0  0  0  0  3  0  0  0  0  0  0
  -25.9180  -31.9130   23.4410 C   0  0  0  0  0  3  0  0  0  0  0  0
  -25.5460  -33.2510   23.9150 N   0  0  0  0  0  0  0  0  0  0  0  0
  -25.8300  -34.3910   23.2710 C   0  0  0  0  0  0  0  0  0  0  0  0
  -26.5050  -34.4270   22.2380 O   0  0  0  0  0  0  0  0  0  0  0  0
  -24.9450  -33.2950   24.7260 H   0  0  0  0  0  0  0  0  0  0  0  0
  -24.0380  -36.1420   23.0750 C   0  0  0  0  0  1  0  0  0  0  0  0
  -25.2790  -35.7000   23.8670 C   0  0  0  0  0  3  0  0  0  0  0  0
  -27.3600  -36.5670   24.8380 C   0  0  0  0  0  1  0  0  0  0  0  0
  -26.2700  -36.7980   23.8940 N   0  0  0  0  0  0  0  0  0  0  0  0
  -25.8240  -37.6790   24.1350 H   0  0  0  0  0  0  0  0  0  0  0  0
  -26.5330  -31.0560   24.6140 C   0  0  1  0  0  0  0  0  0  0  0  0
  -25.5030  -30.6490   25.6930 C   0  0  0  0  0  1  0  0  0  0  0  0
  -27.1790  -29.7630   24.0620 C   0  0  0  0  0  1  0  0  0  0  0  0
  -27.6640  -31.8520   25.3090 C   0  0  0  0  0  1  0  0  0  0  0  0
  2  5  1  0
  3  5  2  0
  3  1  1  0
  4  2  2  0
  5  8  1  0
  6  3  1  0
  7  4  1  0
  7  6  2  0
  9  6  1  0
 10  7  1  0
 11 19  1  0
 12 17  1  0
 13 14  1  0
 13 12  1  0
 15 14  1  0
 15 24  1  0
 15 16  1  0
 17 11  1  0
 17 16  1  0
 18 11  2  0
 19  4  1  0
 19 20  1  0
 21 22  2  0
 22 41  1  0
 23 22  1  0
 23 26  1  0
 24 25  1  0
 24 21  1  0
 25 23  2  0
 26 27  1  0
 27 28  2  0
 29 32  1  0
 29 28  1  0
 30 29  2  0
 31 30  1  0
 31 26  2  0
 32 33  1  0
 33 38  2  0
 33 34  1  0
 34 35  2  0
 35 36  1  0
 36 40  1  0
 37 36  2  0
 38 37  1  0
 39 38  1  0
 41 42  1  0
 42 45  1  0
 42 44  1  0
 43 41  2  0
 46 47  1  0
 46 21  1  0
 48 46  1  0
 49 52  1  0
 49  1  1  0
 50 49  1  0
 51 49  1  0
 53 54  1  0
 53 52  1  0
 55 57  1  0
 55 54  1  0
 56 67  2  0
 57 62  1  0
 58 66  1  0
 58 68  1  0
 59 65  1  0
 59 61  1  0
 60 66  1  0
 61 60  1  0
 62 61  2  0
 63 64  1  0
 63 57  2  0
 64 59  2  0
 65 58  1  0
 66 56  1  0
 68 70  2  0
 69 68  1  0
 71 69  1  0
 72 81  2  0
 72 77  1  0
 73 69  1  0
 73 77  1  0
 74 73  1  0
 75 76  1  0
 75 74  1  0
 76 72  1  0
 77 78  2  0
 78 79  1  0
 80 79  2  0
 81 80  1  0
 82 56  1  0
 82 83  1  0
 82 92  1  0
 83 86  1  0
 84 88  1  0
 84 83  1  0
 85 84  2  0
 88 87  1  0
 88 90  1  0
 90 91  1  0
 90 89  1  0
 92 95  1  1
 92 93  1  0
 94 92  1  0
M  ISO  4  11 100  19 100  54 101  55 101
M  END
>  <TORSDO>  (14) 
F 21

>  <SCORE>  (14) 
-11.524

>  <name>  (14) 
13

>  <ligand_id>  (14) 
13

>  <original_smiles>  (14) 
[H]c1c([H])c([H])c2c(c1[H])C([H])([H])C([H])([H])C([H])([H])C2([H])N([H])C(=O)C1([H])N(C(=O)C([H])(N([H])C(=O)C([H])(N([H])C([H])([H])[H])C([H])([H])[H])C(C([H])([H])[H])(C([H])([H])[H])C([H])([H])[H])C([H])([H])c2c([H])c(OC([H])([H])C([H])([H])C([H])([H])[N+]([H])([H])C([H])([H])c3c(Cl)c([H])c(N([H])C(=O)N4C([H])([H])C([H])([H])C([H])([H])C([H])(n5nc(-c6c([H])c([H])c(Oc7c([H])c([H])c(F)c([H])c7F)c([H])c6[H])c(C(=O)N([H])[H])c5N([H])[H])C4([H])[H])c(Cl)c3Cl)c([H])c([H])c2C1([H])[H]

>  <smiles>  (14) 
[H]c1c([H])c([H])c2c(c1[H])C([H])([H])C([H])([H])C([H])([H])C2([H])N([H])C(=O)C1([H])N(C(=O)C([H])(N([H])C(=O)C([H])(N([H])C([H])([H])[H])C([H])([H])[H])C(C([H])([H])[H])(C([H])([H])[H])C([H])([H])[H])C([H])([H])c2c([H])c(OC([H])([H])C([H])([H])C([H])([H])[N+]([H])([H])C([H])([H])c3c(Cl)c([H])c(N([H])C(=O)N4C([H])([H])C([H])([H])C([H])([H])C([H])(n5nc(-c6c([H])c([H])c(Oc7c([H])c([H])c(F)c([H])c7F)c([H])c6[H])c(C(=O)N([H])[H])c5N([H])[H])C4([H])[H])c(Cl)c3Cl)c([H])c([H])c2C1([H])[H]

$$$$
14:0:0
     RDKit          3D

101110  0  0  1  0  0  0  0  0999 V2000
  -32.4020  -21.6290   20.1450 N   0  0  0  0  0  4  0  0  0  0  0  0
  -31.7150  -22.0120   20.7730 H   0  0  0  0  0  0  0  0  0  0  0  0
  -31.9060  -21.2650   19.3480 H   0  0  0  0  0  0  0  0  0  0  0  0
  -34.2470  -22.2910   18.5590 C   0  0  0  0  0  1  0  0  0  0  0  0
  -33.3170  -22.7190   19.7150 C   0  0  0  0  0  3  0  0  0  0  0  0
  -30.7030  -25.0560   17.8670 C   0  0  0  0  0  2  0  0  0  0  0  0
  -30.9870  -25.8390   20.2260 C   0  0  0  0  0  2  0  0  0  0  0  0
  -31.5440  -23.8020   18.1560 C   0  0  0  0  0  2  0  0  0  0  0  0
  -31.8290  -24.6090   20.5820 C   0  0  0  0  0  2  0  0  0  0  0  0
  -29.9560  -25.4970   19.1310 C   0  0  0  0  0  3  0  0  0  0  0  0
  -32.5250  -24.0000   19.3440 C   0  0  0  0  0  3  0  0  0  0  0  0
  -28.9750  -26.6440   18.8670 C   0  0  0  0  0  2  0  0  0  0  0  0
  -28.3510  -26.9070   20.1100 O   0  0  0  0  0  0  0  0  0  0  0  0
  -24.5430  -31.9710   23.2250 C   0  0  0  0  0  0  0  0  0  0  0  0
  -27.1830  -27.6120   20.0740 C   0  0  0  0  0  0  0  0  0  0  0  0
  -23.3260  -30.5780   21.5800 C   0  0  0  0  0  3  0  0  0  0  0  0
  -24.7730  -29.0630   20.1250 C   0  0  0  0  0  0  0  0  0  0  0  0
  -25.8420  -30.9610   21.3600 C   0  0  0  0  0  2  0  0  0  0  0  0
  -25.9260  -29.5980   20.7150 C   0  0  0  0  0  0  0  0  0  0  0  0
  -27.1300  -28.8680   20.7040 C   0  0  0  0  0  3  0  0  0  0  0  0
  -26.0220  -27.0750   19.4810 C   0  0  0  0  0  3  0  0  0  0  0  0
  -24.8140  -27.7980   19.5080 C   0  0  0  0  0  3  0  0  0  0  0  0
  -23.5230  -29.9080   20.1920 C   0  0  0  0  0  2  0  0  0  0  0  0
  -24.5900  -31.1830   22.1150 N   0  0  0  0  0  0  0  0  0  0  0  0
  -23.4660  -32.2380   23.7770 O   0  0  0  0  0  0  0  0  0  0  0  0
  -22.6880  -29.5470   22.5360 C   0  0  0  0  0  0  0  0  0  0  0  0
  -21.3630  -29.3680   22.4220 N   0  0  0  0  0  0  0  0  0  0  0  0
  -23.3810  -28.9110   23.3370 O   0  0  0  0  0  0  0  0  0  0  0  0
  -20.8650  -29.9410   21.7540 H   0  0  0  0  0  0  0  0  0  0  0  0
  -17.9910  -28.1860   22.9400 C   0  0  0  0  0  0  0  0  0  0  0  0
  -20.5510  -28.4240   23.1870 C   0  0  0  0  0  3  0  0  0  0  0  0
  -20.6380  -27.0010   22.5890 C   0  0  0  0  0  2  0  0  0  0  0  0
  -19.5230  -26.7020   21.5810 C   0  0  0  0  0  2  0  0  0  0  0  0
  -18.1490  -26.8470   22.2410 C   0  0  0  0  0  2  0  0  0  0  0  0
  -19.1190  -28.9360   23.3690 C   0  0  0  0  0  0  0  0  0  0  0  0
  -18.9150  -30.1930   23.9770 C   0  0  0  0  0  3  0  0  0  0  0  0
  -17.6160  -30.7000   24.1660 C   0  0  0  0  0  3  0  0  0  0  0  0
  -16.5030  -29.9470   23.7570 C   0  0  0  0  0  3  0  0  0  0  0  0
  -16.6900  -28.6930   23.1480 C   0  0  0  0  0  3  0  0  0  0  0  0
  -25.8340  -32.5970   23.8410 C   0  0  0  0  0  3  0  0  0  0  0  0
  -25.5360  -33.9980   24.1620 N   0  0  0  0  0  0  0  0  0  0  0  0
  -25.8850  -35.0440   23.4000 C   0  0  0  0  0  0  0  0  0  0  0  0
  -26.5660  -34.9310   22.3770 O   0  0  0  0  0  0  0  0  0  0  0  0
  -24.9360  -34.1630   24.9570 H   0  0  0  0  0  0  0  0  0  0  0  0
  -24.1800  -36.8520   23.0110 C   0  0  0  0  0  1  0  0  0  0  0  0
  -25.4020  -36.4390   23.8450 C   0  0  0  0  0  3  0  0  0  0  0  0
  -27.5310  -37.3000   24.7120 C   0  0  0  0  0  1  0  0  0  0  0  0
  -26.4470  -37.4820   23.7510 N   0  0  0  0  0  0  0  0  0  0  0  0
  -26.0470  -38.4030   23.8970 H   0  0  0  0  0  0  0  0  0  0  0  0
  -26.3530  -31.8270   25.1180 C   0  0  1  0  0  0  0  0  0  0  0  0
  -25.2620  -31.5890   26.1860 C   0  0  0  0  0  1  0  0  0  0  0  0
  -26.9380  -30.4510   24.7240 C   0  0  0  0  0  1  0  0  0  0  0  0
  -27.5040  -32.6230   25.7800 C   0  0  0  0  0  1  0  0  0  0  0  0
  -33.0330  -20.4900   20.8420 C   0  0  0  0  0  2  0  0  0  0  0  0
  -30.7620  -17.6330   22.1390 C   0  0  0  0  0  3  0  0  0  0  0  0
  -31.4980  -18.8390   22.1010 C   0  0  0  0  0  0  0  0  0  0  0  0
  -32.1000  -19.2720   20.8840 C   0  0  0  0  0  0  0  0  0  0  0  0
  -31.8620  -18.5210   19.6950 C   0  0  0  0  0  0  0  0  0  0  0  0
  -30.6090  -16.8510   20.9800 C   0  0  0  0  0  0  0  0  0  0  0  0
  -31.0910  -17.3410   19.7460 C   0  0  0  0  0  0  0  0  0  0  0  0
  -31.6690  -19.6060   23.4050 C   0  0  0  0  0  1  0  0  0  0  0  0
  -32.4550  -18.9290   18.3490 C   0  0  0  0  0  1  0  0  0  0  0  0
  -30.8460  -16.6470   18.6050 F   0  0  0  0  0  0  0  0  0  0  0  0
  -30.6930  -14.4770   20.5470 C   0  0  0  0  0  0  0  0  0  0  0  0
  -30.3720  -12.3020   19.4650 C   0  0  0  0  0  2  0  0  0  0  0  0
  -29.4820  -12.5000   18.2230 C   0  0  0  0  0  2  0  0  0  0  0  0
  -27.9990  -12.3640   18.6100 C   0  0  0  0  0  2  0  0  0  0  0  0
  -27.6230  -13.2370   19.8370 C   0  0  0  0  0  3  0  0  0  0  0  0
  -28.6390  -13.0670   20.9860 C   0  0  0  0  0  2  0  0  0  0  0  0
  -29.9840  -13.3230   20.4500 N   0  0  0  0  0  0  0  0  0  0  0  0
  -31.8350  -14.5880   20.0950 O   0  0  0  0  0  0  0  0  0  0  0  0
  -30.0600  -15.5420   21.0670 N   0  0  0  0  0  0  0  0  0  0  0  0
  -29.1580  -15.4220   21.5010 H   0  0  0  0  0  0  0  0  0  0  0  0
  -25.2090  -13.8590   20.4620 C   0  0  0  0  0  0  0  0  0  0  0  0
  -24.1280  -13.0950   20.8150 C   0  0  0  0  0  0  0  0  0  0  0  0
  -24.5880  -11.7420   20.8230 C   0  0  0  0  0  0  0  0  0  0  0  0
  -26.2580  -12.9730   20.2800 N   0  0  0  0  0  0  0  0  0  0  0  0
  -25.8870  -11.6960   20.5530 N   0  0  0  0  0  0  0  0  0  0  0  0
  -23.8560  -10.4820   21.0150 C   0  0  0  0  0  0  0  0  0  0  0  0
  -24.2680   -9.5270   21.9720 C   0  0  0  0  0  3  0  0  0  0  0  0
  -23.5390   -8.3310   22.1500 C   0  0  0  0  0  3  0  0  0  0  0  0
  -22.3830   -8.0840   21.3740 C   0  0  0  0  0  0  0  0  0  0  0  0
  -21.9910   -9.0230   20.4060 C   0  0  0  0  0  3  0  0  0  0  0  0
  -22.7190  -10.2110   20.2250 C   0  0  0  0  0  3  0  0  0  0  0  0
  -21.6260   -6.9380   21.4580 O   0  0  0  0  0  0  0  0  0  0  0  0
  -21.5610   -6.2070   22.6150 C   0  0  0  0  0  0  0  0  0  0  0  0
  -21.1210   -6.7710   23.8340 C   0  0  0  0  0  3  0  0  0  0  0  0
  -21.0060   -5.9630   24.9840 C   0  0  0  0  0  3  0  0  0  0  0  0
  -21.3170   -4.5920   24.9140 C   0  0  0  0  0  0  0  0  0  0  0  0
  -21.7500   -4.0260   23.7020 C   0  0  0  0  0  3  0  0  0  0  0  0
  -21.8690   -4.8320   22.5550 C   0  0  0  0  0  0  0  0  0  0  0  0
  -22.2670   -4.2790   21.3860 F   0  0  0  0  0  0  0  0  0  0  0  0
  -21.1960   -3.8150   26.0170 F   0  0  0  0  0  0  0  0  0  0  0  0
  -22.7260  -13.5770   21.0400 C   0  0  0  0  0  0  0  0  0  0  0  0
  -21.9820  -12.9000   21.9090 N   0  0  0  0  0  0  0  0  0  0  0  0
  -22.3000  -14.5870   20.4820 O   0  0  0  0  0  0  0  0  0  0  0  0
  -22.3490  -12.0820   22.3730 H   0  0  0  0  0  0  0  0  0  0  0  0
  -21.0390  -13.2000   22.1100 H   0  0  0  0  0  0  0  0  0  0  0  0
  -25.3890  -15.2240   20.2630 N   0  0  0  0  0  0  0  0  0  0  0  0
  -24.6290  -15.8920   20.3150 H   0  0  0  0  0  0  0  0  0  0  0  0
  -26.2610  -15.6400   19.9570 H   0  0  0  0  0  0  0  0  0  0  0  0
  1  2  1  0
  1 54  1  0
  3  1  1  0
  5  4  1  0
  5  1  1  0
  6  8  1  0
  6 10  1  0
  7  9  1  0
  8 11  1  0
 10 12  1  0
 10  7  1  0
 11  5  1  0
 11  9  1  0
 12 13  1  0
 14 25  2  0
 15 13  1  0
 15 20  1  0
 16 24  1  0
 16 26  1  0
 17 23  1  0
 17 19  1  0
 18 24  1  0
 19 18  1  0
 20 19  2  0
 21 22  1  0
 21 15  2  0
 22 17  2  0
 23 16  1  0
 24 14  1  0
 26 28  2  0
 27 26  1  0
 29 27  1  0
 30 39  2  0
 30 35  1  0
 31 27  1  0
 31 35  1  0
 32 31  1  0
 33 34  1  0
 33 32  1  0
 34 30  1  0
 35 36  2  0
 36 37  1  0
 38 37  2  0
 39 38  1  0
 40 14  1  0
 40 41  1  0
 40 50  1  0
 41 44  1  0
 42 46  1  0
 42 41  1  0
 43 42  2  0
 46 45  1  0
 48 46  1  0
 48 49  1  0
 48 47  1  0
 50 53  1  1
 50 51  1  0
 52 50  1  0
 54 57  1  0
 56 55  1  0
 56 61  1  0
 57 56  2  0
 58 60  2  0
 58 57  1  0
 59 72  1  0
 59 55  2  0
 60 59  1  0
 62 58  1  0
 63 60  1  0
 64 72  1  0
 65 70  1  0
 66 67  1  0
 66 65  1  0
 68 67  1  0
 68 77  1  0
 68 69  1  0
 70 64  1  0
 70 69  1  0
 71 64  2  0
 72 73  1  0
 74 75  2  0
 75 76  1  0
 75 94  1  0
 76 79  1  0
 77 74  1  0
 77 78  1  0
 78 76  2  0
 79 80  1  0
 80 81  2  0
 82 85  1  0
 82 81  1  0
 83 82  2  0
 84 83  1  0
 84 79  2  0
 85 86  1  0
 86 87  1  0
 87 88  2  0
 89 88  1  0
 89 93  1  0
 90 89  2  0
 91 86  2  0
 91 90  1  0
 92 91  1  0
 94 95  1  0
 95 98  1  0
 95 97  1  0
 96 94  2  0
 99100  1  0
 99 74  1  0
101 99  1  0
M  ISO  4  12 101  13 101  64 100  72 100
M  END
>  <TORSDO>  (15) 
F 21

>  <SCORE>  (15) 
-13.521

>  <name>  (15) 
14

>  <ligand_id>  (15) 
14

>  <original_smiles>  (15) 
[H]c1c([H])c([H])c2c(c1[H])C([H])([H])C([H])([H])C([H])([H])C2([H])N([H])C(=O)C1([H])N(C(=O)C([H])(N([H])C(=O)C([H])(N([H])C([H])([H])[H])C([H])([H])[H])C(C([H])([H])[H])(C([H])([H])[H])C([H])([H])[H])C([H])([H])c2c([H])c(OC([H])([H])C3([H])C([H])([H])C([H])([H])C([H])(C([H])(C([H])([H])[H])[N+]([H])([H])C([H])([H])c4c(C([H])([H])[H])c([H])c(N([H])C(=O)N5C([H])([H])C([H])([H])C([H])([H])C([H])(n6nc(-c7c([H])c([H])c(Oc8c([H])c([H])c(F)c([H])c8F)c([H])c7[H])c(C(=O)N([H])[H])c6N([H])[H])C5([H])[H])c(F)c4C([H])([H])[H])C([H])([H])C3([H])[H])c([H])c([H])c2C1([H])[H]

>  <smiles>  (15) 
[H]c1c([H])c([H])c2c(c1[H])C([H])([H])C([H])([H])C([H])([H])C2([H])N([H])C(=O)C1([H])N(C(=O)C([H])(N([H])C(=O)C([H])(N([H])C([H])([H])[H])C([H])([H])[H])C(C([H])([H])[H])(C([H])([H])[H])C([H])([H])[H])C([H])([H])c2c([H])c(OC([H])([H])C3([H])C([H])([H])C([H])([H])C([H])(C([H])(C([H])([H])[H])[N+]([H])([H])C([H])([H])c4c(C([H])([H])[H])c([H])c(N([H])C(=O)N5C([H])([H])C([H])([H])C([H])([H])C([H])(n6nc(-c7c([H])c([H])c(Oc8c([H])c([H])c(F)c([H])c8F)c([H])c7[H])c(C(=O)N([H])[H])c6N([H])[H])C5([H])[H])c(F)c4C([H])([H])[H])C([H])([H])C3([H])[H])c([H])c([H])c2C1([H])[H]

$$$$
16:0:0
     RDKit          3D

100108  0  0  1  0  0  0  0  0999 V2000
  -30.2270  -21.8640   19.2740 C   0  0  0  0  0  0  0  0  0  0  0  0
  -29.6660  -20.7980   20.0360 C   0  0  0  0  0  0  0  0  0  0  0  0
  -29.2010  -22.5650   18.6720 C   0  0  0  0  0  0  0  0  0  0  0  0
  -28.3240  -20.9330   19.8790 C   0  0  0  0  0  0  0  0  0  0  0  0
  -31.7000  -22.1740   19.1610 C   0  0  0  0  0  1  0  0  0  0  0  0
  -27.9920  -21.8640   18.8920 N   0  0  0  0  0  0  0  0  0  0  0  0
  -27.1830  -19.9860   20.7590 Cl  0  0  0  0  0  0  0  0  0  0  0  0
  -26.0950  -20.6800   17.7570 C   0  0  0  0  0  1  0  0  0  0  0  0
  -26.5920  -22.9310   17.0230 C   0  0  0  0  0  1  0  0  0  0  0  0
  -25.6510  -22.6140   19.3300 C   0  0  0  0  0  1  0  0  0  0  0  0
  -26.6310  -22.0400   18.2890 C   0  0  2  0  0  0  0  0  0  0  0  0
  -30.3830  -19.7420   20.8570 C   0  0  0  0  0  2  0  0  0  0  0  0
  -30.5210  -18.4790   20.0940 N   0  0  0  0  0  4  0  0  0  0  0  0
  -30.5660  -18.7090   19.1150 H   0  0  0  0  0  0  0  0  0  0  0  0
  -29.7040  -17.9120   20.2360 H   0  0  0  0  0  0  0  0  0  0  0  0
  -31.7140  -17.6750   20.4370 C   0  0  0  0  0  2  0  0  0  0  0  0
  -30.7730  -16.9790   22.7280 C   0  0  0  0  0  1  0  0  0  0  0  0
  -31.4060  -16.5030   21.4060 C   0  0  0  0  0  3  0  0  0  0  0  0
  -31.0310  -14.5090   19.9290 C   0  0  0  0  0  0  0  0  0  0  0  0
  -30.6610  -12.2780   18.9290 C   0  0  0  0  0  2  0  0  0  0  0  0
  -29.6500  -12.3170   17.7670 C   0  0  0  0  0  2  0  0  0  0  0  0
  -28.2090  -12.1920   18.2980 C   0  0  0  0  0  2  0  0  0  0  0  0
  -27.9170  -13.1770   19.4610 C   0  0  0  0  0  3  0  0  0  0  0  0
  -29.0250  -13.0980   20.5330 C   0  0  0  0  0  2  0  0  0  0  0  0
  -30.3220  -13.3510   19.8780 N   0  0  0  0  0  0  0  0  0  0  0  0
  -32.0310  -14.7160   19.2360 O   0  0  0  0  0  0  0  0  0  0  0  0
  -30.6080  -15.4090   20.8330 N   0  0  0  0  0  0  0  0  0  0  0  0
  -29.7830  -15.1340   21.3460 H   0  0  0  0  0  0  0  0  0  0  0  0
  -25.6120  -13.8610   20.3830 C   0  0  0  0  0  0  0  0  0  0  0  0
  -24.5420  -13.1190   20.8110 C   0  0  0  0  0  0  0  0  0  0  0  0
  -24.9370  -11.7520   20.6910 C   0  0  0  0  0  0  0  0  0  0  0  0
  -26.5940  -12.9440   20.0380 N   0  0  0  0  0  0  0  0  0  0  0  0
  -26.1940  -11.6690   20.2770 N   0  0  0  0  0  0  0  0  0  0  0  0
  -24.1730  -10.5150   20.8940 C   0  0  0  0  0  0  0  0  0  0  0  0
  -24.5770   -9.5440   21.8370 C   0  0  0  0  0  3  0  0  0  0  0  0
  -23.8160   -8.3690   22.0250 C   0  0  0  0  0  3  0  0  0  0  0  0
  -22.6380   -8.1590   21.2710 C   0  0  0  0  0  0  0  0  0  0  0  0
  -22.2520   -9.1200   20.3190 C   0  0  0  0  0  3  0  0  0  0  0  0
  -23.0120  -10.2850   20.1290 C   0  0  0  0  0  3  0  0  0  0  0  0
  -21.8500   -7.0380   21.3690 O   0  0  0  0  0  0  0  0  0  0  0  0
  -21.6980   -6.3650   22.5550 C   0  0  0  0  0  0  0  0  0  0  0  0
  -21.1910   -6.9980   23.7100 C   0  0  0  0  0  3  0  0  0  0  0  0
  -20.9870   -6.2510   24.8880 C   0  0  0  0  0  3  0  0  0  0  0  0
  -21.2790   -4.8750   24.9110 C   0  0  0  0  0  0  0  0  0  0  0  0
  -21.7830   -4.2430   23.7600 C   0  0  0  0  0  3  0  0  0  0  0  0
  -21.9890   -4.9860   22.5840 C   0  0  0  0  0  0  0  0  0  0  0  0
  -22.4510   -4.3680   21.4710 F   0  0  0  0  0  0  0  0  0  0  0  0
  -21.0770   -4.1560   26.0400 F   0  0  0  0  0  0  0  0  0  0  0  0
  -23.1950  -13.6460   21.2150 C   0  0  0  0  0  0  0  0  0  0  0  0
  -22.5210  -12.9580   22.1320 N   0  0  0  0  0  0  0  0  0  0  0  0
  -22.7540  -14.6970   20.7550 O   0  0  0  0  0  0  0  0  0  0  0  0
  -22.8920  -12.1060   22.5250 H   0  0  0  0  0  0  0  0  0  0  0  0
  -21.6220  -13.2910   22.4460 H   0  0  0  0  0  0  0  0  0  0  0  0
  -25.8250  -15.2270   20.2440 N   0  0  0  0  0  0  0  0  0  0  0  0
  -25.1000  -15.9100   20.4380 H   0  0  0  0  0  0  0  0  0  0  0  0
  -26.6660  -15.6420   19.8610 H   0  0  0  0  0  0  0  0  0  0  0  0
  -29.3800  -23.8110   17.8270 C   0  0  0  0  0  2  0  0  0  0  0  0
  -28.7910  -25.1430   18.3580 C   0  0  0  0  0  3  0  0  0  0  0  0
  -29.4170  -25.7990   19.5940 C   0  0  0  0  0  3  0  0  0  0  0  0
  -29.0640  -27.1690   19.9250 O   0  0  0  0  0  0  0  0  0  0  0  0
  -24.7790  -31.7640   23.3430 C   0  0  0  0  0  0  0  0  0  0  0  0
  -27.7880  -27.7210   19.9930 C   0  0  0  0  0  0  0  0  0  0  0  0
  -23.7230  -30.4820   21.5120 C   0  0  0  0  0  3  0  0  0  0  0  0
  -25.3110  -29.1290   20.0580 C   0  0  0  0  0  0  0  0  0  0  0  0
  -26.2420  -30.9340   21.5010 C   0  0  0  0  0  2  0  0  0  0  0  0
  -26.4140  -29.6280   20.7540 C   0  0  0  0  0  0  0  0  0  0  0  0
  -27.6480  -28.9310   20.7220 C   0  0  0  0  0  3  0  0  0  0  0  0
  -26.6510  -27.2540   19.2900 C   0  0  0  0  0  3  0  0  0  0  0  0
  -25.4190  -27.9370   19.3340 C   0  0  0  0  0  3  0  0  0  0  0  0
  -24.0390  -29.9470   20.0930 C   0  0  0  0  0  2  0  0  0  0  0  0
  -24.9290  -31.0730   22.1780 N   0  0  0  0  0  0  0  0  0  0  0  0
  -23.6570  -31.9440   23.8410 O   0  0  0  0  0  0  0  0  0  0  0  0
  -23.0650  -29.3500   22.3330 C   0  0  0  0  0  0  0  0  0  0  0  0
  -21.7460  -29.1680   22.1560 N   0  0  0  0  0  0  0  0  0  0  0  0
  -23.7420  -28.6400   23.0830 O   0  0  0  0  0  0  0  0  0  0  0  0
  -21.2650  -29.7860   21.5170 H   0  0  0  0  0  0  0  0  0  0  0  0
  -18.3700  -27.9230   22.4960 C   0  0  0  0  0  0  0  0  0  0  0  0
  -20.9270  -28.1410   22.8000 C   0  0  0  0  0  3  0  0  0  0  0  0
  -21.0330  -26.7950   22.0460 C   0  0  0  0  0  2  0  0  0  0  0  0
  -19.9310  -26.6080   20.9980 C   0  0  0  0  0  2  0  0  0  0  0  0
  -18.5470  -26.6720   21.6510 C   0  0  0  0  0  2  0  0  0  0  0  0
  -19.4890  -28.6190   23.0230 C   0  0  0  0  0  0  0  0  0  0  0  0
  -19.2720  -29.7950   23.7730 C   0  0  0  0  0  3  0  0  0  0  0  0
  -17.9700  -30.2750   24.0000 C   0  0  0  0  0  3  0  0  0  0  0  0
  -16.8640  -29.5780   23.4810 C   0  0  0  0  0  3  0  0  0  0  0  0
  -17.0650  -28.4020   22.7360 C   0  0  0  0  0  3  0  0  0  0  0  0
  -26.0040  -32.3760   24.0930 C   0  0  0  0  0  3  0  0  0  0  0  0
  -25.6630  -33.7640   24.4360 N   0  0  0  0  0  0  0  0  0  0  0  0
  -26.0530  -34.8340   23.7330 C   0  0  0  0  0  0  0  0  0  0  0  0
  -26.8090  -34.7590   22.7610 O   0  0  0  0  0  0  0  0  0  0  0  0
  -25.0200  -33.8990   25.2030 H   0  0  0  0  0  0  0  0  0  0  0  0
  -24.3460  -36.6170   23.2590 C   0  0  0  0  0  1  0  0  0  0  0  0
  -25.5160  -36.2100   24.1690 C   0  0  0  0  0  3  0  0  0  0  0  0
  -27.5670  -37.0840   25.1980 C   0  0  0  0  0  1  0  0  0  0  0  0
  -26.5470  -37.2720   24.1700 N   0  0  0  0  0  0  0  0  0  0  0  0
  -26.1220  -38.1870   24.3010 H   0  0  0  0  0  0  0  0  0  0  0  0
  -26.4100  -31.5680   25.3850 C   0  0  1  0  0  0  0  0  0  0  0  0
  -25.2280  -31.2950   26.3450 C   0  0  0  0  0  1  0  0  0  0  0  0
  -27.0350  -30.2040   25.0070 C   0  0  0  0  0  1  0  0  0  0  0  0
  -27.5000  -32.3370   26.1730 C   0  0  0  0  0  1  0  0  0  0  0  0
  1  2  1  0
  2 12  1  0
  3  6  1  0
  3  1  2  0
  4  2  2  0
  4  7  1  0
  5  1  1  0
  6  4  1  0
 11  8  1  6
  9 11  1  0
 11  6  1  0
 11 10  1  0
 13 15  1  0
 13 16  1  0
 13 12  1  0
 14 13  1  0
 16 18  1  0
 18 17  1  0
 19 27  1  0
 20 25  1  0
 21 22  1  0
 21 20  1  0
 23 22  1  0
 23 32  1  0
 23 24  1  0
 25 19  1  0
 25 24  1  0
 26 19  2  0
 27 28  1  0
 27 18  1  0
 29 30  2  0
 30 49  1  0
 31 30  1  0
 31 34  1  0
 32 33  1  0
 32 29  1  0
 33 31  2  0
 34 35  1  0
 35 36  2  0
 37 40  1  0
 37 36  1  0
 38 37  2  0
 39 38  1  0
 39 34  2  0
 40 41  1  0
 41 46  2  0
 41 42  1  0
 42 43  2  0
 43 44  1  0
 44 48  1  0
 45 44  2  0
 46 45  1  0
 47 46  1  0
 49 50  1  0
 50 53  1  0
 50 52  1  0
 51 49  2  0
 54 29  1  0
 54 55  1  0
 56 54  1  0
 57 58  1  0
 57  3  1  0
 58 59  2  0
 59 60  1  0
 60 62  1  0
 61 72  2  0
 62 67  1  0
 63 71  1  0
 63 73  1  0
 64 70  1  0
 64 66  1  0
 65 71  1  0
 66 65  1  0
 67 66  2  0
 68 69  1  0
 68 62  2  0
 69 64  2  0
 70 63  1  0
 71 61  1  0
 73 75  2  0
 74 73  1  0
 76 74  1  0
 77 86  2  0
 77 82  1  0
 78 74  1  0
 78 82  1  0
 79 78  1  0
 80 81  1  0
 80 79  1  0
 81 77  1  0
 82 83  2  0
 83 84  1  0
 85 84  2  0
 86 85  1  0
 87 61  1  0
 87 88  1  0
 87 97  1  0
 88 91  1  0
 89 93  1  0
 89 88  1  0
 90 89  2  0
 93 92  1  0
 93 95  1  0
 95 96  1  0
 95 94  1  0
 97100  1  1
 97 98  1  0
 99 97  1  0
M  ISO  4  19 100  27 100  59 101  60 101
M  END
>  <TORSDO>  (16) 
F 24

>  <SCORE>  (16) 
-10.646

>  <name>  (16) 
16

>  <ligand_id>  (16) 
16

>  <original_smiles>  (16) 
[H]c1c([H])c([H])c2c(c1[H])C([H])([H])C([H])([H])C([H])([H])C2([H])N([H])C(=O)C1([H])N(C(=O)C([H])(N([H])C(=O)C([H])(N([H])C([H])([H])[H])C([H])([H])[H])C(C([H])([H])[H])(C([H])([H])[H])C([H])([H])[H])C([H])([H])c2c([H])c(OC([H])([H])C([H])([H])C([H])([H])c3c(C([H])([H])[H])c(C([H])([H])[N+]([H])([H])C([H])([H])C([H])(N([H])C(=O)N4C([H])([H])C([H])([H])C([H])([H])C([H])(n5nc(-c6c([H])c([H])c(Oc7c([H])c([H])c(F)c([H])c7F)c([H])c6[H])c(C(=O)N([H])[H])c5N([H])[H])C4([H])[H])C([H])([H])[H])c(Cl)n3C(C([H])([H])[H])(C([H])([H])[H])C([H])([H])[H])c([H])c([H])c2C1([H])[H]

>  <smiles>  (16) 
[H]c1c([H])c([H])c2c(c1[H])C([H])([H])C([H])([H])C([H])([H])C2([H])N([H])C(=O)C1([H])N(C(=O)C([H])(N([H])C(=O)C([H])(N([H])C([H])([H])[H])C([H])([H])[H])C(C([H])([H])[H])(C([H])([H])[H])C([H])([H])[H])C([H])([H])c2c([H])c(OC([H])([H])C([H])([H])C([H])([H])c3c(C([H])([H])[H])c(C([H])([H])[N+]([H])([H])C([H])([H])C([H])(N([H])C(=O)N4C([H])([H])C([H])([H])C([H])([H])C([H])(n5nc(-c6c([H])c([H])c(Oc7c([H])c([H])c(F)c([H])c7F)c([H])c6[H])c(C(=O)N([H])[H])c5N([H])[H])C4([H])[H])C([H])([H])[H])c(Cl)n3C(C([H])([H])[H])(C([H])([H])[H])C([H])([H])[H])c([H])c([H])c2C1([H])[H]

$$$$
17:0:0
     RDKit          3D

104109  0  0  1  0  0  0  0  0999 V2000
  -32.9340  -27.4850   22.7080 C   0  0  0  0  0  2  0  0  0  0  0  0
  -30.6020  -26.6230   22.3900 C   0  0  0  0  0  0  0  0  0  0  0  0
  -31.8510  -26.8560   21.9510 N   0  0  0  0  0  0  0  0  0  0  0  0
  -30.1770  -27.0410   23.4650 O   0  0  0  0  0  0  0  0  0  0  0  0
  -32.0800  -26.5340   21.0230 H   0  0  0  0  0  0  0  0  0  0  0  0
  -29.7870  -23.4050   19.4100 C   0  0  0  0  0  3  0  0  0  0  0  0
  -29.8470  -25.6020   21.5900 C   0  0  0  0  0  3  0  0  0  0  0  0
  -28.8460  -22.1990   20.2500 C   0  0  0  0  0  2  0  0  0  0  0  0
  -30.4380  -24.9690   20.0050 C   0  0  0  0  0  0  0  0  0  0  0  0
  -28.5300  -24.6050   22.3430 C   0  0  0  0  0  0  0  0  0  0  0  0
  -28.0410  -23.0640   21.5470 C   0  0  0  0  0  0  0  0  0  0  0  0
  -31.7160  -25.7500   19.1330 Cl  0  0  0  0  0  0  0  0  0  0  0  0
  -27.8100  -25.0660   23.8510 Cl  0  0  0  0  0  0  0  0  0  0  0  0
  -26.9120  -22.1230   22.4490 Cl  0  0  0  0  0  0  0  0  0  0  0  0
  -29.3450  -20.1410   20.0220 C   0  0  0  0  0 15  0  0  0  0  0  0
  -30.1030  -16.6240   20.5170 C   0  0  0  0  0  0  0  0  0  0  0  0
  -30.5180  -13.8790   19.9880 C   0  0  0  0  0  2  0  0  0  0  0  0
  -29.8430  -13.0550   18.8270 C   0  0  0  0  0  2  0  0  0  0  0  0
  -28.4530  -12.5400   19.2120 C   0  0  0  0  0  2  0  0  0  0  0  0
  -27.7310  -13.6180   20.0400 C   0  0  0  0  0  3  0  0  0  0  0  0
  -28.5830  -14.3200   21.1490 C   0  0  0  0  0  2  0  0  0  0  0  0
  -29.6900  -15.1290   20.5030 N   0  0  0  0  0  0  0  0  0  0  0  0
  -31.3580  -16.4670   20.5070 O   0  0  0  0  0  0  0  0  0  0  0  0
  -29.3410  -18.1630   20.4010 N   0  0  0  0  0  2  0  0  0  0  0  0
  -28.3590  -17.9280   20.4570 H   0  0  0  0  0  0  0  0  0  0  0  0
  -25.3430  -14.0860   20.6890 C   0  0  0  0  0  0  0  0  0  0  0  0
  -24.2590  -13.2990   20.9460 C   0  0  0  0  0  0  0  0  0  0  0  0
  -24.7250  -11.9480   20.8780 C   0  0  0  0  0  0  0  0  0  0  0  0
  -26.3980  -13.2240   20.4760 N   0  0  0  0  0  0  0  0  0  0  0  0
  -26.0400  -11.9210   20.6460 N   0  0  0  0  0  0  0  0  0  0  0  0
  -23.9720  -10.6860   20.9590 C   0  0  0  0  0  0  0  0  0  0  0  0
  -24.2810   -9.6960   21.9190 C   0  0  0  0  0  3  0  0  0  0  0  0
  -23.5220   -8.5070   21.9930 C   0  0  0  0  0  3  0  0  0  0  0  0
  -22.4400   -8.2980   21.1060 C   0  0  0  0  0  0  0  0  0  0  0  0
  -22.1500   -9.2750   20.1390 C   0  0  0  0  0  3  0  0  0  0  0  0
  -22.9080  -10.4550   20.0640 C   0  0  0  0  0  3  0  0  0  0  0  0
  -21.6620   -7.1640   21.0880 O   0  0  0  0  0  0  0  0  0  0  0  0
  -21.4450   -6.4240   22.2220 C   0  0  0  0  0  0  0  0  0  0  0  0
  -20.8460   -6.9810   23.3730 C   0  0  0  0  0  3  0  0  0  0  0  0
  -20.5780   -6.1670   24.4930 C   0  0  0  0  0  3  0  0  0  0  0  0
  -20.8930   -4.7950   24.4590 C   0  0  0  0  0  0  0  0  0  0  0  0
  -21.4810   -4.2360   23.3100 C   0  0  0  0  0  3  0  0  0  0  0  0
  -21.7510   -5.0480   22.1940 C   0  0  0  0  0  0  0  0  0  0  0  0
  -22.2980   -4.5000   21.0830 F   0  0  0  0  0  0  0  0  0  0  0  0
  -20.6280   -4.0110   25.5290 F   0  0  0  0  0  0  0  0  0  0  0  0
  -22.8520  -13.7800   21.1330 C   0  0  0  0  0  0  0  0  0  0  0  0
  -22.0790  -13.0900   21.9620 N   0  0  0  0  0  0  0  0  0  0  0  0
  -22.4550  -14.8100   20.5900 O   0  0  0  0  0  0  0  0  0  0  0  0
  -22.4190  -12.2560   22.4190 H   0  0  0  0  0  0  0  0  0  0  0  0
  -21.1310  -13.3900   22.1380 H   0  0  0  0  0  0  0  0  0  0  0  0
  -25.5240  -15.4630   20.5770 N   0  0  0  0  0  0  0  0  0  0  0  0
  -24.7520  -16.1160   20.6560 H   0  0  0  0  0  0  0  0  0  0  0  0
  -26.3930  -15.9020   20.2970 H   0  0  0  0  0  0  0  0  0  0  0  0
  -34.3400  -27.0560   22.2160 C   0  0  0  0  0  2  0  0  0  0  0  0
  -34.7850  -27.6410   20.8540 C   0  0  0  0  0  2  0  0  0  0  0  0
  -36.2630  -27.3430   20.4880 C   0  0  0  0  0  2  0  0  0  0  0  0
  -37.5650  -25.3590   19.7990 C   0  0  0  0  0  1  0  0  0  0  0  0
  -36.4440  -26.2740   19.4660 N   0  0  2  0  0  4  0  0  0  0  0  0
  -35.6190  -25.6970   19.5040 H   0  0  0  0  0  0  0  0  0  0  0  0
  -36.5220  -26.7540   18.0610 C   0  0  0  0  0  2  0  0  0  0  0  0
  -35.6890  -25.8340   17.1380 C   0  0  0  0  0  2  0  0  0  0  0  0
  -34.4910  -26.5260   16.4410 C   0  0  0  0  0  2  0  0  0  0  0  0
  -33.1290  -25.6760   16.4460 C   0  0  0  0  0  1  0  0  0  0  0  0
  -30.3560  -26.4960   15.9950 O   0  0  0  0  0  1  0  0  0  0  0  0
  -25.1360  -28.8350   22.0580 C   0  0  0  0  0  0  0  0  0  0  0  0
  -29.0720  -27.3460   16.8140 C   0  0  0  0  0  0  0  0  0  0  0  0
  -24.3480  -28.1810   19.8300 C   0  0  0  0  0  3  0  0  0  0  0  0
  -26.1220  -28.2180   17.8500 C   0  0  0  0  0  0  0  0  0  0  0  0
  -26.7010  -29.2700   19.9970 C   0  0  0  0  0  2  0  0  0  0  0  0
  -27.2250  -28.5350   18.6490 C   0  0  0  0  0  0  0  0  0  0  0  0
  -28.6330  -28.1270   18.1290 C   0  0  0  0  0  3  0  0  0  0  0  0
  -27.7910  -27.3290   16.1410 C   0  0  0  0  0  3  0  0  0  0  0  0
  -26.4540  -27.6810   16.5910 C   0  0  0  0  0  3  0  0  0  0  0  0
  -24.6550  -28.4610   18.3230 C   0  0  0  0  0  2  0  0  0  0  0  0
  -25.4120  -28.7810   20.6980 N   0  0  0  0  0  0  0  0  0  0  0  0
  -24.0850  -28.3760   22.5470 O   0  0  0  0  0  0  0  0  0  0  0  0
  -24.1590  -26.6550   20.0750 C   0  0  0  0  0  0  0  0  0  0  0  0
  -23.0830  -26.0330   19.5480 N   0  0  0  0  0  0  0  0  0  0  0  0
  -25.0020  -26.0400   20.7320 O   0  0  0  0  0  0  0  0  0  0  0  0
  -22.4080  -26.5890   19.0410 H   0  0  0  0  0  0  0  0  0  0  0  0
  -21.0800  -23.3060   18.1810 C   0  0  0  0  0  0  0  0  0  0  0  0
  -22.8370  -24.5810   19.5940 C   0  0  0  0  0  3  0  0  0  0  0  0
  -23.8940  -23.8140   18.7610 C   0  0  0  0  0  2  0  0  0  0  0  0
  -23.4450  -23.5410   17.3210 C   0  0  0  0  0  2  0  0  0  0  0  0
  -22.1660  -22.7020   17.3080 C   0  0  0  0  0  2  0  0  0  0  0  0
  -21.3910  -24.2000   19.2420 C   0  0  0  0  0  0  0  0  0  0  0  0
  -20.3350  -24.7450   20.0050 C   0  0  0  0  0  3  0  0  0  0  0  0
  -18.9960  -24.4110   19.7270 C   0  0  0  0  0  3  0  0  0  0  0  0
  -18.6950  -23.5200   18.6840 C   0  0  0  0  0  3  0  0  0  0  0  0
  -19.7360  -22.9690   17.9150 C   0  0  0  0  0  3  0  0  0  0  0  0
  -26.1170  -29.4870   23.0820 C   0  0  0  0  0  3  0  0  0  0  0  0
  -25.4950  -30.7140   23.6310 N   0  0  0  0  0  0  0  0  0  0  0  0
  -25.9900  -31.9570   23.5360 C   0  0  0  0  0  0  0  0  0  0  0  0
  -27.0700  -32.1960   22.9900 O   0  0  0  0  0  0  0  0  0  0  0  0
  -24.5800  -30.6030   24.0390 H   0  0  0  0  0  0  0  0  0  0  0  0
  -24.5140  -33.9400   23.0270 C   0  0  0  0  0  1  0  0  0  0  0  0
  -25.1720  -33.1160   24.1450 C   0  0  0  0  0  3  0  0  0  0  0  0
  -26.4370  -33.3850   26.2370 C   0  0  0  0  0  1  0  0  0  0  0  0
  -25.9680  -34.0160   25.0080 N   0  0  0  0  0  0  0  0  0  0  0  0
  -25.4280  -34.8390   25.2590 H   0  0  0  0  0  0  0  0  0  0  0  0
  -26.4980  -28.5170   24.2700 C   0  0  1  0  0  0  0  0  0  0  0  0
  -25.2770  -27.9490   25.0310 C   0  0  0  0  0  1  0  0  0  0  0  0
  -27.3320  -27.3160   23.7720 C   0  0  0  0  0  1  0  0  0  0  0  0
  -27.3820  -29.2640   25.2970 C   0  0  0  0  0  1  0  0  0  0  0  0
  2  4  2  0
  3  2  1  0
  3  1  1  0
  5  3  1  0
  6  9  2  0
  6  8  1  0
  7 10  1  0
  7  2  1  0
  8 11  1  0
  9  7  1  0
 10 13  1  0
 11 10  2  0
 11 14  1  0
 12  9  1  0
 17 22  1  0
 18 19  1  0
 18 17  1  0
 20 19  1  0
 20 29  1  0
 20 21  1  0
 22 16  1  0
 22 21  1  0
 23 16  2  0
 24 25  1  0
 24 16  1  0
 26 27  2  0
 27 46  1  0
 28 27  1  0
 28 31  1  0
 29 30  1  0
 29 26  1  0
 30 28  2  0
 31 32  1  0
 32 33  2  0
 34 33  1  0
 35 34  2  0
 36 35  1  0
 36 31  2  0
 37 34  1  0
 37 38  1  0
 38 39  1  0
 39 40  2  0
 41 40  1  0
 41 45  1  0
 42 41  2  0
 43 38  2  0
 43 42  1  0
 44 43  1  0
 46 47  1  0
 47 50  1  0
 47 49  1  0
 48 46  2  0
 51 52  1  0
 51 26  1  0
 53 51  1  0
 54  1  1  0
 55 54  1  0
 56 55  1  0
 58 59  1  6
 58 57  1  0
 58 56  1  0
 60 58  1  0
 61 60  1  0
 62 63  1  0
 62 61  1  0
 64 66  1  0
 65 76  2  0
 66 71  1  0
 67 77  1  0
 67 75  1  0
 68 74  1  0
 68 70  1  0
 69 75  1  0
 70 69  1  0
 71 70  2  0
 72 73  1  0
 72 66  2  0
 73 68  2  0
 74 67  1  0
 75 65  1  0
 77 79  2  0
 78 77  1  0
 80 78  1  0
 81 86  1  0
 82 78  1  0
 83 82  1  0
 84 83  1  0
 85 84  1  0
 85 81  1  0
 86 82  1  0
 86 87  2  0
 88 87  1  0
 89 88  2  0
 90 81  2  0
 90 89  1  0
 91 65  1  0
 91 92  1  0
 91101  1  0
 92 95  1  0
 93 92  1  0
 93 97  1  0
 94 93  2  0
 97 96  1  0
 97 99  1  0
 99100  1  0
 99 98  1  0
101102  1  1
101104  1  0
103101  1  0
M  ISO  4  16 100  24 100  63 101  64 101
M  END
>  <TORSDO>  (17) 
F 27

>  <SCORE>  (17) 
-6.174

>  <name>  (17) 
17

>  <ligand_id>  (17) 
17

>  <original_smiles>  (17) 
[H]c1c([H])c([H])c2c(c1[H])C([H])([H])C([H])([H])C([H])([H])C2([H])N([H])C(=O)C1([H])N(C(=O)C([H])(N([H])C(=O)C([H])(N([H])C([H])([H])[H])C([H])([H])[H])C(C([H])([H])[H])(C([H])([H])[H])C([H])([H])[H])C([H])([H])c2c([H])c(OC([H])([H])C([H])([H])C([H])([H])C([H])([H])[N+]([H])(C([H])([H])[H])C([H])([H])C([H])([H])C([H])([H])C([H])([H])N([H])C(=O)c3c(Cl)c([H])c(C([H])([H])N([H])C(=O)N4C([H])([H])C([H])([H])C([H])([H])C([H])(n5nc(-c6c([H])c([H])c(Oc7c([H])c([H])c(F)c([H])c7F)c([H])c6[H])c(C(=O)N([H])[H])c5N([H])[H])C4([H])[H])c(Cl)c3Cl)c([H])c([H])c2C1([H])[H]

>  <smiles>  (17) 
[H]c1c([H])c([H])c2c(c1[H])C([H])([H])C([H])([H])C([H])([H])C2([H])N([H])C(=O)C1([H])N(C(=O)C([H])(N([H])C(=O)C([H])(N([H])C([H])([H])[H])C([H])([H])[H])C(C([H])([H])[H])(C([H])([H])[H])C([H])([H])[H])C([H])([H])c2c([H])c(OC([H])([H])C([H])([H])C([H])([H])C([H])([H])[N+]([H])(C([H])([H])[H])C([H])([H])C([H])([H])C([H])([H])C([H])([H])N([H])C(=O)c3c(Cl)c([H])c(C([H])([H])N([H])C(=O)N4C([H])([H])C([H])([H])C([H])([H])C([H])(n5nc(-c6c([H])c([H])c(Oc7c([H])c([H])c(F)c([H])c7F)c([H])c6[H])c(C(=O)N([H])[H])c5N([H])[H])C4([H])[H])c(Cl)c3Cl)c([H])c([H])c2C1([H])[H]

$$$$
18:0:0
     RDKit          3D

 92100  0  0  1  0  0  0  0  0999 V2000
  -29.9390  -19.4960   21.3710 C   0  0  0  0  0  3  0  0  0  0  0  0
  -29.1190  -20.0410   20.3480 C   0  0  0  0  0  0  0  0  0  0  0  0
  -28.6840  -19.1250   19.3430 C   0  0  0  0  0  0  0  0  0  0  0  0
  -29.7080  -17.1710   20.5270 C   0  0  0  0  0  0  0  0  0  0  0  0
  -30.2290  -18.1030   21.4640 C   0  0  0  0  0  0  0  0  0  0  0  0
  -28.9570  -17.7160   19.4480 C   0  0  0  0  0  0  0  0  0  0  0  0
  -27.8490  -19.6480   18.1790 C   0  0  0  0  0  1  0  0  0  0  0  0
  -31.1560  -17.5410   22.8100 Cl  0  0  0  0  0  0  0  0  0  0  0  0
  -28.2830  -16.6230   18.2840 Cl  0  0  0  0  0  0  0  0  0  0  0  0
  -30.5190  -14.7160   20.4300 C   0  0  0  0  0  0  0  0  0  0  0  0
  -30.3470  -12.4770   19.3680 C   0  0  0  0  0  2  0  0  0  0  0  0
  -29.4060  -12.6070   18.1500 C   0  0  0  0  0  2  0  0  0  0  0  0
  -27.9320  -12.4400   18.5680 C   0  0  0  0  0  2  0  0  0  0  0  0
  -27.5620  -13.2930   19.8100 C   0  0  0  0  0  3  0  0  0  0  0  0
  -28.6130  -13.1280   20.9300 C   0  0  0  0  0  2  0  0  0  0  0  0
  -29.9270  -13.4820   20.3630 N   0  0  0  0  0  0  0  0  0  0  0  0
  -31.6790  -14.9010   20.0480 O   0  0  0  0  0  0  0  0  0  0  0  0
  -29.6940  -15.7340   20.8090 N   0  0  0  0  0  0  0  0  0  0  0  0
  -28.7950  -15.3980   21.1150 H   0  0  0  0  0  0  0  0  0  0  0  0
  -25.1590  -13.8990   20.4860 C   0  0  0  0  0  0  0  0  0  0  0  0
  -24.0880  -13.1270   20.8510 C   0  0  0  0  0  0  0  0  0  0  0  0
  -24.5530  -11.7770   20.8370 C   0  0  0  0  0  0  0  0  0  0  0  0
  -26.2080  -13.0170   20.2760 N   0  0  0  0  0  0  0  0  0  0  0  0
  -25.8480  -11.7380   20.5450 N   0  0  0  0  0  0  0  0  0  0  0  0
  -23.8280  -10.5140   21.0270 C   0  0  0  0  0  0  0  0  0  0  0  0
  -24.2520   -9.5550   21.9730 C   0  0  0  0  0  3  0  0  0  0  0  0
  -23.5280   -8.3550   22.1480 C   0  0  0  0  0  3  0  0  0  0  0  0
  -22.3680   -8.1070   21.3770 C   0  0  0  0  0  0  0  0  0  0  0  0
  -21.9640   -9.0550   20.4200 C   0  0  0  0  0  3  0  0  0  0  0  0
  -22.6880  -10.2470   20.2430 C   0  0  0  0  0  3  0  0  0  0  0  0
  -21.6160   -6.9600   21.4630 O   0  0  0  0  0  0  0  0  0  0  0  0
  -21.5540   -6.2260   22.6200 C   0  0  0  0  0  0  0  0  0  0  0  0
  -21.1040   -6.7850   23.8350 C   0  0  0  0  0  3  0  0  0  0  0  0
  -20.9900   -5.9770   24.9840 C   0  0  0  0  0  3  0  0  0  0  0  0
  -21.3190   -4.6090   24.9180 C   0  0  0  0  0  0  0  0  0  0  0  0
  -21.7630   -4.0490   23.7070 C   0  0  0  0  0  3  0  0  0  0  0  0
  -21.8780   -4.8550   22.5610 C   0  0  0  0  0  0  0  0  0  0  0  0
  -22.2870   -4.3060   21.3910 F   0  0  0  0  0  0  0  0  0  0  0  0
  -21.2020   -3.8290   26.0180 F   0  0  0  0  0  0  0  0  0  0  0  0
  -22.6860  -13.6030   21.1010 C   0  0  0  0  0  0  0  0  0  0  0  0
  -21.9450  -12.9070   21.9560 N   0  0  0  0  0  0  0  0  0  0  0  0
  -22.2550  -14.6280   20.5730 O   0  0  0  0  0  0  0  0  0  0  0  0
  -22.3050  -12.0770   22.4050 H   0  0  0  0  0  0  0  0  0  0  0  0
  -21.0050  -13.2090   22.1660 H   0  0  0  0  0  0  0  0  0  0  0  0
  -25.3220  -15.2670   20.2920 N   0  0  0  0  0  0  0  0  0  0  0  0
  -24.5410  -15.9120   20.3510 H   0  0  0  0  0  0  0  0  0  0  0  0
  -26.1480  -15.6870   19.8840 H   0  0  0  0  0  0  0  0  0  0  0  0
  -28.5660  -21.5180   20.4540 C   0  0  0  0  0  2  0  0  0  0  0  0
  -29.4190  -22.7460   19.9470 C   0  0  0  0  0  2  0  0  0  0  0  0
  -28.7080  -24.1270   19.5560 C   0  0  0  0  0  2  0  0  0  0  0  0
  -28.3300  -25.2210   20.6370 C   0  0  0  0  0  2  0  0  0  0  0  0
  -28.3870  -26.6360   20.2240 O   0  0  0  0  0  0  0  0  0  0  0  0
  -24.5780  -31.9610   23.2550 C   0  0  0  0  0  0  0  0  0  0  0  0
  -27.2290  -27.4180   20.2340 C   0  0  0  0  0  0  0  0  0  0  0  0
  -23.3830  -30.5440   21.6180 C   0  0  0  0  0  3  0  0  0  0  0  0
  -24.8440  -28.9850   20.2140 C   0  0  0  0  0  0  0  0  0  0  0  0
  -25.9160  -30.8840   21.4360 C   0  0  0  0  0  2  0  0  0  0  0  0
  -26.0070  -29.5010   20.8030 C   0  0  0  0  0  0  0  0  0  0  0  0
  -27.2050  -28.7290   20.7970 C   0  0  0  0  0  3  0  0  0  0  0  0
  -26.0450  -26.9370   19.6390 C   0  0  0  0  0  3  0  0  0  0  0  0
  -24.8630  -27.7080   19.6230 C   0  0  0  0  0  3  0  0  0  0  0  0
  -23.6030  -29.8550   20.2450 C   0  0  0  0  0  2  0  0  0  0  0  0
  -24.6430  -31.1470   22.1620 N   0  0  0  0  0  0  0  0  0  0  0  0
  -23.4920  -32.2400   23.7840 O   0  0  0  0  0  0  0  0  0  0  0  0
  -22.7200  -29.5340   22.5850 C   0  0  0  0  0  0  0  0  0  0  0  0
  -21.3940  -29.3540   22.4540 N   0  0  0  0  0  0  0  0  0  0  0  0
  -23.3970  -28.9150   23.4110 O   0  0  0  0  0  0  0  0  0  0  0  0
  -20.9080  -29.9110   21.7630 H   0  0  0  0  0  0  0  0  0  0  0  0
  -18.0140  -28.1720   22.9570 C   0  0  0  0  0  0  0  0  0  0  0  0
  -20.5730  -28.4200   23.2240 C   0  0  0  0  0  3  0  0  0  0  0  0
  -20.6690  -26.9880   22.6480 C   0  0  0  0  0  2  0  0  0  0  0  0
  -19.5630  -26.6690   21.6350 C   0  0  0  0  0  2  0  0  0  0  0  0
  -18.1830  -26.8210   22.2810 C   0  0  0  0  0  2  0  0  0  0  0  0
  -19.1360  -28.9290   23.3840 C   0  0  0  0  0  0  0  0  0  0  0  0
  -18.9270  -30.1940   23.9750 C   0  0  0  0  0  3  0  0  0  0  0  0
  -17.6260  -30.7050   24.1410 C   0  0  0  0  0  3  0  0  0  0  0  0
  -16.5170  -29.9440   23.7330 C   0  0  0  0  0  3  0  0  0  0  0  0
  -16.7110  -28.6790   23.1470 C   0  0  0  0  0  3  0  0  0  0  0  0
  -25.8590  -32.5990   23.8770 C   0  0  0  0  0  3  0  0  0  0  0  0
  -26.3700  -31.8410   25.1640 C   0  0  1  0  0  0  0  0  0  0  0  0
  -25.2700  -31.6110   26.2280 C   0  0  0  0  0  1  0  0  0  0  0  0
  -26.9570  -30.4590   24.7870 C   0  0  0  0  0  1  0  0  0  0  0  0
  -27.5170  -32.6410   25.8230 C   0  0  0  0  0  1  0  0  0  0  0  0
  -25.5500  -33.9990   24.1920 N   0  0  0  0  0  0  0  0  0  0  0  0
  -25.8930  -35.0460   23.4270 C   0  0  0  0  0  0  0  0  0  0  0  0
  -26.5760  -34.9310   22.4050 O   0  0  0  0  0  0  0  0  0  0  0  0
  -24.9460  -34.1610   24.9820 H   0  0  0  0  0  0  0  0  0  0  0  0
  -24.1790  -36.8450   23.0320 C   0  0  0  0  0  1  0  0  0  0  0  0
  -25.4050  -36.4390   23.8660 C   0  0  0  0  0  3  0  0  0  0  0  0
  -27.5270  -37.3210   24.7300 C   0  0  0  0  0  1  0  0  0  0  0  0
  -26.4430  -37.4880   23.7650 N   0  0  0  0  0  0  0  0  0  0  0  0
  -26.0360  -38.4070   23.9070 H   0  0  0  0  0  0  0  0  0  0  0  0
  1  5  1  0
  2 48  1  0
  2  1  2  0
  3  6  2  0
  3  2  1  0
  4 18  1  0
  4  5  2  0
  5  8  1  0
  6  4  1  0
  7  3  1  0
  9  6  1  0
 10 18  1  0
 11 16  1  0
 12 13  1  0
 12 11  1  0
 14 13  1  0
 14 23  1  0
 14 15  1  0
 16 10  1  0
 16 15  1  0
 17 10  2  0
 18 19  1  0
 20 21  2  0
 21 40  1  0
 22 21  1  0
 22 25  1  0
 23 20  1  0
 23 24  1  0
 24 22  2  0
 25 26  1  0
 26 27  2  0
 28 31  1  0
 28 27  1  0
 29 28  2  0
 30 29  1  0
 30 25  2  0
 31 32  1  0
 32 33  1  0
 33 34  2  0
 35 34  1  0
 35 39  1  0
 36 35  2  0
 37 32  2  0
 37 36  1  0
 38 37  1  0
 40 41  1  0
 41 44  1  0
 41 43  1  0
 42 40  2  0
 45 46  1  0
 45 20  1  0
 47 45  1  0
 49 48  1  0
 50 49  1  0
 50 51  1  0
 52 54  1  0
 52 51  1  0
 53 64  2  0
 54 59  1  0
 55 63  1  0
 55 65  1  0
 56 62  1  0
 56 58  1  0
 57 63  1  0
 58 57  1  0
 59 58  2  0
 60 54  2  0
 61 60  1  0
 61 56  2  0
 62 55  1  0
 63 53  1  0
 65 67  2  0
 66 65  1  0
 68 66  1  0
 69 78  2  0
 69 74  1  0
 70 66  1  0
 70 74  1  0
 71 70  1  0
 72 73  1  0
 72 71  1  0
 73 69  1  0
 74 75  2  0
 75 76  1  0
 77 76  2  0
 78 77  1  0
 79 53  1  0
 79 84  1  0
 79 80  1  0
 80 83  1  1
 80 81  1  0
 82 80  1  0
 84 87  1  0
 85 89  1  0
 85 84  1  0
 86 85  2  0
 89 88  1  0
 91 89  1  0
 91 92  1  0
 91 90  1  0
M  ISO  4  10 100  18 100  51 101  52 101
M  END
>  <TORSDO>  (18) 
F 20

>  <SCORE>  (18) 
-13.377

>  <name>  (18) 
18

>  <ligand_id>  (18) 
18

>  <original_smiles>  (18) 
[H]c1c([H])c([H])c2c(c1[H])C([H])([H])C([H])([H])C([H])([H])C2([H])N([H])C(=O)C1([H])N(C(=O)C([H])(N([H])C(=O)C([H])(N([H])C([H])([H])[H])C([H])([H])[H])C(C([H])([H])[H])(C([H])([H])[H])C([H])([H])[H])C([H])([H])c2c([H])c(OC([H])([H])C([H])([H])C([H])([H])C([H])([H])c3c([H])c(Cl)c(N([H])C(=O)N4C([H])([H])C([H])([H])C([H])([H])C([H])(n5nc(-c6c([H])c([H])c(Oc7c([H])c([H])c(F)c([H])c7F)c([H])c6[H])c(C(=O)N([H])[H])c5N([H])[H])C4([H])[H])c(Cl)c3C([H])([H])[H])c([H])c([H])c2C1([H])[H]

>  <smiles>  (18) 
[H]c1c([H])c([H])c2c(c1[H])C([H])([H])C([H])([H])C([H])([H])C2([H])N([H])C(=O)C1([H])N(C(=O)C([H])(N([H])C(=O)C([H])(N([H])C([H])([H])[H])C([H])([H])[H])C(C([H])([H])[H])(C([H])([H])[H])C([H])([H])[H])C([H])([H])c2c([H])c(OC([H])([H])C([H])([H])C([H])([H])C([H])([H])c3c([H])c(Cl)c(N([H])C(=O)N4C([H])([H])C([H])([H])C([H])([H])C([H])(n5nc(-c6c([H])c([H])c(Oc7c([H])c([H])c(F)c([H])c7F)c([H])c6[H])c(C(=O)N([H])[H])c5N([H])[H])C4([H])[H])c(Cl)c3C([H])([H])[H])c([H])c([H])c2C1([H])[H]

$$$$
19:0:0
     RDKit          3D

 99107  0  0  1  0  0  0  0  0999 V2000
  -29.7940  -23.1120   22.9640 C   0  0  0  0  0  2  0  0  0  0  0  0
  -30.5330  -23.2000   21.6140 C   0  0  0  0  0  2  0  0  0  0  0  0
  -29.5180  -21.0140   20.8370 C   0  0  0  0  0  3  0  0  0  0  0  0
  -30.6370  -21.8700   20.8660 C   0  0  0  0  0  0  0  0  0  0  0  0
  -30.6600  -19.5020   19.2850 C   0  0  0  0  0  0  0  0  0  0  0  0
  -29.5250  -19.8340   20.0690 C   0  0  0  0  0  0  0  0  0  0  0  0
  -31.8080  -21.4940   20.1620 C   0  0  0  0  0  0  0  0  0  0  0  0
  -31.8120  -20.3260   19.3630 C   0  0  0  0  0  0  0  0  0  0  0  0
  -28.1110  -18.8380   20.1060 Cl  0  0  0  0  0  0  0  0  0  0  0  0
  -33.2420  -22.4630   20.2540 Cl  0  0  0  0  0  0  0  0  0  0  0  0
  -33.2310  -19.9230   18.4470 Cl  0  0  0  0  0  0  0  0  0  0  0  0
  -30.6270  -18.3200   18.3150 C   0  0  0  0  0  2  0  0  0  0  0  0
  -31.0910  -15.9390   18.8150 C   0  0  0  0  0  0  0  0  0  0  0  0
  -31.4990  -13.6190   19.5340 C   0  0  0  0  0  2  0  0  0  0  0  0
  -30.7990  -12.6250   18.5890 C   0  0  0  0  0  2  0  0  0  0  0  0
  -29.3560  -12.3660   19.0590 C   0  0  0  0  0  2  0  0  0  0  0  0
  -28.5750  -13.6780   19.3330 C   0  0  0  0  0  3  0  0  0  0  0  0
  -29.4020  -14.6620   20.1940 C   0  0  0  0  0  2  0  0  0  0  0  0
  -30.7160  -14.8630   19.5530 N   0  0  0  0  0  0  0  0  0  0  0  0
  -32.1030  -15.9530   18.1110 O   0  0  0  0  0  0  0  0  0  0  0  0
  -30.3240  -17.0290   18.9370 N   0  0  0  0  0  0  0  0  0  0  0  0
  -29.5430  -16.9800   19.5730 H   0  0  0  0  0  0  0  0  0  0  0  0
  -26.2530  -14.2880   20.2700 C   0  0  0  0  0  0  0  0  0  0  0  0
  -25.2220  -13.5170   20.7310 C   0  0  0  0  0  0  0  0  0  0  0  0
  -25.6670  -12.1620   20.6410 C   0  0  0  0  0  0  0  0  0  0  0  0
  -27.2680  -13.4040   19.9330 N   0  0  0  0  0  0  0  0  0  0  0  0
  -26.9220  -12.1210   20.2080 N   0  0  0  0  0  0  0  0  0  0  0  0
  -24.9530  -10.9030   20.8850 C   0  0  0  0  0  0  0  0  0  0  0  0
  -25.2750  -10.0720   21.9800 C   0  0  0  0  0  3  0  0  0  0  0  0
  -24.5610   -8.8750   22.2070 C   0  0  0  0  0  3  0  0  0  0  0  0
  -23.5120   -8.4990   21.3350 C   0  0  0  0  0  0  0  0  0  0  0  0
  -23.2090   -9.3200   20.2330 C   0  0  0  0  0  3  0  0  0  0  0  0
  -23.9250  -10.5070   20.0070 C   0  0  0  0  0  3  0  0  0  0  0  0
  -22.7810   -7.3420   21.4600 O   0  0  0  0  0  0  0  0  0  0  0  0
  -22.1380   -7.0200   22.6290 C   0  0  0  0  0  0  0  0  0  0  0  0
  -21.2770   -7.9300   23.2800 C   0  0  0  0  0  3  0  0  0  0  0  0
  -20.5820   -7.5340   24.4410 C   0  0  0  0  0  3  0  0  0  0  0  0
  -20.7380   -6.2290   24.9440 C   0  0  0  0  0  0  0  0  0  0  0  0
  -21.5910   -5.3200   24.2930 C   0  0  0  0  0  3  0  0  0  0  0  0
  -22.2860   -5.7140   23.1370 C   0  0  0  0  0  0  0  0  0  0  0  0
  -23.0900   -4.8280   22.5020 F   0  0  0  0  0  0  0  0  0  0  0  0
  -20.0640   -5.8450   26.0540 F   0  0  0  0  0  0  0  0  0  0  0  0
  -23.8600  -13.9980   21.1450 C   0  0  0  0  0  0  0  0  0  0  0  0
  -23.2370  -13.3260   22.1060 N   0  0  0  0  0  0  0  0  0  0  0  0
  -23.3600  -15.0080   20.6480 O   0  0  0  0  0  0  0  0  0  0  0  0
  -23.6550  -12.5100   22.5290 H   0  0  0  0  0  0  0  0  0  0  0  0
  -22.3270  -13.6310   22.4260 H   0  0  0  0  0  0  0  0  0  0  0  0
  -26.4070  -15.6590   20.0940 N   0  0  0  0  0  0  0  0  0  0  0  0
  -25.6550  -16.3150   20.2770 H   0  0  0  0  0  0  0  0  0  0  0  0
  -27.2290  -16.1010   19.7010 H   0  0  0  0  0  0  0  0  0  0  0  0
  -28.2950  -23.4850   22.9220 C   0  0  0  0  0  2  0  0  0  0  0  0
  -27.9840  -24.8930   22.5480 N   0  0  0  0  0  4  0  0  0  0  0  0
  -28.8310  -25.4000   22.3510 H   0  0  0  0  0  0  0  0  0  0  0  0
  -27.5530  -25.3490   23.3380 H   0  0  0  0  0  0  0  0  0  0  0  0
  -25.8010  -25.7880   21.7490 C   0  0  0  0  0  1  0  0  0  0  0  0
  -27.0630  -24.9920   21.3790 C   0  0  0  0  0  3  0  0  0  0  0  0
  -27.7790  -25.5260   20.1040 C   0  0  0  0  0  2  0  0  0  0  0  0
  -26.8730  -25.6490   18.8450 C   0  0  0  0  0  2  0  0  0  0  0  0
  -26.7740  -26.9640   18.2910 O   0  0  0  0  0  0  0  0  0  0  0  0
  -25.5870  -30.5530   24.2450 C   0  0  0  0  0  0  0  0  0  0  0  0
  -25.9410  -27.8650   18.9090 C   0  0  0  0  0  0  0  0  0  0  0  0
  -23.7310  -30.5810   22.6050 C   0  0  0  0  0  3  0  0  0  0  0  0
  -24.2980  -29.7050   20.2810 C   0  0  0  0  0  0  0  0  0  0  0  0
  -26.1510  -30.3580   21.8250 C   0  0  0  0  0  2  0  0  0  0  0  0
  -25.6340  -29.5440   20.6590 C   0  0  0  0  0  0  0  0  0  0  0  0
  -26.4620  -28.6340   19.9700 C   0  0  0  0  0  3  0  0  0  0  0  0
  -24.5920  -28.0470   18.5230 C   0  0  0  0  0  3  0  0  0  0  0  0
  -23.7690  -28.9560   19.2140 C   0  0  0  0  0  3  0  0  0  0  0  0
  -23.4780  -30.6920   21.0770 C   0  0  0  0  0  2  0  0  0  0  0  0
  -25.1870  -30.4740   22.9430 N   0  0  0  0  0  0  0  0  0  0  0  0
  -24.7720  -30.7660   25.1530 O   0  0  0  0  0  0  0  0  0  0  0  0
  -22.8840  -29.4150   23.1600 C   0  0  0  0  0  0  0  0  0  0  0  0
  -21.5570  -29.5010   22.9700 N   0  0  0  0  0  0  0  0  0  0  0  0
  -23.4180  -28.4510   23.7140 O   0  0  0  0  0  0  0  0  0  0  0  0
  -21.1960  -30.3280   22.5150 H   0  0  0  0  0  0  0  0  0  0  0  0
  -18.0920  -28.5530   22.6000 C   0  0  0  0  0  0  0  0  0  0  0  0
  -20.5620  -28.5040   23.3660 C   0  0  0  0  0  3  0  0  0  0  0  0
  -20.6940  -27.2180   22.5180 C   0  0  0  0  0  2  0  0  0  0  0  0
  -19.7890  -27.2160   21.2810 C   0  0  0  0  0  2  0  0  0  0  0  0
  -18.3190  -27.3570   21.6900 C   0  0  0  0  0  2  0  0  0  0  0  0
  -19.1510  -29.1000   23.3740 C   0  0  0  0  0  0  0  0  0  0  0  0
  -18.8980  -30.2350   24.1740 C   0  0  0  0  0  3  0  0  0  0  0  0
  -17.6170  -30.8150   24.2160 C   0  0  0  0  0  3  0  0  0  0  0  0
  -16.5670  -30.2590   23.4660 C   0  0  0  0  0  3  0  0  0  0  0  0
  -16.8060  -29.1270   22.6640 C   0  0  0  0  0  3  0  0  0  0  0  0
  -27.0890  -30.4060   24.6530 C   0  0  0  0  0  3  0  0  0  0  0  0
  -27.3390  -31.3340   25.7630 N   0  0  0  0  0  0  0  0  0  0  0  0
  -28.0340  -32.4740   25.6550 C   0  0  0  0  0  0  0  0  0  0  0  0
  -28.5950  -32.8210   24.6110 O   0  0  0  0  0  0  0  0  0  0  0  0
  -26.8530  -31.1480   26.6270 H   0  0  0  0  0  0  0  0  0  0  0  0
  -27.1360  -34.5520   26.7500 C   0  0  0  0  0  1  0  0  0  0  0  0
  -28.1140  -33.3760   26.9000 C   0  0  0  0  0  3  0  0  0  0  0  0
  -30.4100  -32.8470   27.5850 C   0  0  0  0  0  1  0  0  0  0  0  0
  -29.4750  -33.8870   27.1710 N   0  0  0  0  0  0  0  0  0  0  0  0
  -29.4530  -34.5990   27.8960 H   0  0  0  0  0  0  0  0  0  0  0  0
  -27.4790  -28.9310   25.0570 C   0  0  1  0  0  0  0  0  0  0  0  0
  -26.5230  -28.3010   26.0970 C   0  0  0  0  0  1  0  0  0  0  0  0
  -27.5070  -28.0130   23.8100 C   0  0  0  0  0  1  0  0  0  0  0  0
  -28.9050  -28.9110   25.6540 C   0  0  0  0  0  1  0  0  0  0  0  0
  2  1  1  0
  3  4  1  0
  4  2  1  0
  5  8  2  0
  5  6  1  0
  6  9  1  0
  6  3  2  0
  7 10  1  0
  7  4  2  0
  8  7  1  0
 11  8  1  0
 12 21  1  0
 12  5  1  0
 13 21  1  0
 13 19  1  0
 14 19  1  0
 15 16  1  0
 15 14  1  0
 17 16  1  0
 17 26  1  0
 17 18  1  0
 19 18  1  0
 20 13  2  0
 21 22  1  0
 23 24  2  0
 24 43  1  0
 25 24  1  0
 25 28  1  0
 26 27  1  0
 26 23  1  0
 27 25  2  0
 28 29  1  0
 29 30  2  0
 31 34  1  0
 31 30  1  0
 32 31  2  0
 33 32  1  0
 33 28  2  0
 34 35  1  0
 35 40  2  0
 35 36  1  0
 36 37  2  0
 37 38  1  0
 38 42  1  0
 39 38  2  0
 40 39  1  0
 41 40  1  0
 43 44  1  0
 44 47  1  0
 44 46  1  0
 45 43  2  0
 48 23  1  0
 48 49  1  0
 50 48  1  0
 51  1  1  0
 52 51  1  0
 52 54  1  0
 53 52  1  0
 56 55  1  0
 56 52  1  0
 57 56  1  0
 58 57  1  0
 59 58  1  0
 59 61  1  0
 60 71  2  0
 61 66  1  0
 62 70  1  0
 62 72  1  0
 63 65  1  0
 63 69  1  0
 64 70  1  0
 65 64  1  0
 66 65  2  0
 67 61  2  0
 67 68  1  0
 68 63  2  0
 69 62  1  0
 70 60  1  0
 72 74  2  0
 73 72  1  0
 75 73  1  0
 76 85  2  0
 76 81  1  0
 77 73  1  0
 77 81  1  0
 78 77  1  0
 79 80  1  0
 79 78  1  0
 80 76  1  0
 81 82  2  0
 82 83  1  0
 84 83  2  0
 85 84  1  0
 86 60  1  0
 86 96  1  0
 86 87  1  0
 87 90  1  0
 88 87  1  0
 88 92  1  0
 89 88  2  0
 92 91  1  0
 92 94  1  0
 94 93  1  0
 94 95  1  0
 96 99  1  1
 96 97  1  0
 98 96  1  0
M  ISO  4  13 100  21 100  58 101  59 101
M  END
>  <TORSDO>  (19) 
F 24

>  <SCORE>  (19) 
-8.829

>  <name>  (19) 
19

>  <ligand_id>  (19) 
19

>  <original_smiles>  (19) 
[H]c1c([H])c([H])c2c(c1[H])C([H])([H])C([H])([H])C([H])([H])C2([H])N([H])C(=O)C1([H])N(C(=O)C([H])(N([H])C(=O)C([H])(N([H])C([H])([H])[H])C([H])([H])[H])C(C([H])([H])[H])(C([H])([H])[H])C([H])([H])[H])C([H])([H])c2c([H])c(OC([H])([H])C([H])([H])C([H])(C([H])([H])[H])[N+]([H])([H])C([H])([H])C([H])([H])C([H])([H])c3c([H])c(Cl)c(C([H])([H])N([H])C(=O)N4C([H])([H])C([H])([H])C([H])([H])C([H])(n5nc(-c6c([H])c([H])c(Oc7c([H])c([H])c(F)c([H])c7F)c([H])c6[H])c(C(=O)N([H])[H])c5N([H])[H])C4([H])[H])c(Cl)c3Cl)c([H])c([H])c2C1([H])[H]

>  <smiles>  (19) 
[H]c1c([H])c([H])c2c(c1[H])C([H])([H])C([H])([H])C([H])([H])C2([H])N([H])C(=O)C1([H])N(C(=O)C([H])(N([H])C(=O)C([H])(N([H])C([H])([H])[H])C([H])([H])[H])C(C([H])([H])[H])(C([H])([H])[H])C([H])([H])[H])C([H])([H])c2c([H])c(OC([H])([H])C([H])([H])C([H])(C([H])([H])[H])[N+]([H])([H])C([H])([H])C([H])([H])C([H])([H])c3c([H])c(Cl)c(C([H])([H])N([H])C(=O)N4C([H])([H])C([H])([H])C([H])([H])C([H])(n5nc(-c6c([H])c([H])c(Oc7c([H])c([H])c(F)c([H])c7F)c([H])c6[H])c(C(=O)N([H])[H])c5N([H])[H])C4([H])[H])c(Cl)c3Cl)c([H])c([H])c2C1([H])[H]

$$$$
20:0:0
     RDKit          3D

106115  0  0  1  0  0  0  0  0999 V2000
  -29.6110  -24.6710   21.5610 C   0  0  0  0  0  2  0  0  0  0  0  0
  -28.6290  -24.5780   18.7120 C   0  0  0  0  0  2  0  0  0  0  0  0
  -30.1250  -23.2920   21.0660 C   0  0  0  0  0  2  0  0  0  0  0  0
  -28.1370  -23.3160   19.5070 C   0  0  0  0  0  2  0  0  0  0  0  0
  -29.8800  -25.8600   20.5800 C   0  0  0  0  0  3  0  0  0  0  0  0
  -28.8000  -25.9540   19.4480 C   0  0  0  0  0  3  0  0  0  0  0  0
  -29.1510  -22.4970   20.2700 N   0  0  1  0  0  4  0  0  0  0  0  0
  -28.5850  -22.0200   20.9570 H   0  0  0  0  0  0  0  0  0  0  0  0
  -27.6390  -26.4330   20.1280 O   0  0  0  0  0  0  0  0  0  0  0  0
  -24.4960  -31.8930   23.1690 C   0  0  0  0  0  0  0  0  0  0  0  0
  -26.7380  -27.4210   19.7830 C   0  0  0  0  0  0  0  0  0  0  0  0
  -23.1330  -30.6110   21.5480 C   0  0  0  0  0  3  0  0  0  0  0  0
  -24.4320  -29.0800   19.9520 C   0  0  0  0  0  0  0  0  0  0  0  0
  -25.6620  -30.8470   21.2300 C   0  0  0  0  0  2  0  0  0  0  0  0
  -25.6450  -29.5120   20.5030 C   0  0  0  0  0  0  0  0  0  0  0  0
  -26.7960  -28.6860   20.4230 C   0  0  0  0  0  3  0  0  0  0  0  0
  -25.5170  -27.0230   19.2010 C   0  0  0  0  0  3  0  0  0  0  0  0
  -24.3680  -27.8390   19.2870 C   0  0  0  0  0  3  0  0  0  0  0  0
  -23.2290  -29.9870   20.1280 C   0  0  0  0  0  2  0  0  0  0  0  0
  -24.4500  -31.1290   22.0380 N   0  0  0  0  0  0  0  0  0  0  0  0
  -23.4640  -32.1970   23.7840 O   0  0  0  0  0  0  0  0  0  0  0  0
  -22.4830  -29.5910   22.5120 C   0  0  0  0  0  0  0  0  0  0  0  0
  -21.1500  -29.4450   22.4270 N   0  0  0  0  0  0  0  0  0  0  0  0
  -23.1750  -28.9370   23.2960 O   0  0  0  0  0  0  0  0  0  0  0  0
  -20.6500  -30.0270   21.7680 H   0  0  0  0  0  0  0  0  0  0  0  0
  -17.7780  -28.2510   22.9550 C   0  0  0  0  0  0  0  0  0  0  0  0
  -20.3380  -28.5110   23.2080 C   0  0  0  0  0  3  0  0  0  0  0  0
  -20.4340  -27.0760   22.6400 C   0  0  0  0  0  2  0  0  0  0  0  0
  -19.3270  -26.7520   21.6320 C   0  0  0  0  0  2  0  0  0  0  0  0
  -17.9490  -26.9010   22.2810 C   0  0  0  0  0  2  0  0  0  0  0  0
  -18.8990  -29.0150   23.3760 C   0  0  0  0  0  0  0  0  0  0  0  0
  -18.6830  -30.2790   23.9660 C   0  0  0  0  0  3  0  0  0  0  0  0
  -17.3800  -30.7810   24.1370 C   0  0  0  0  0  3  0  0  0  0  0  0
  -16.2730  -30.0160   23.7300 C   0  0  0  0  0  3  0  0  0  0  0  0
  -16.4730  -28.7520   23.1470 C   0  0  0  0  0  3  0  0  0  0  0  0
  -25.8480  -32.4350   23.7330 C   0  0  0  0  0  3  0  0  0  0  0  0
  -25.6360  -33.8360   24.1220 N   0  0  0  0  0  0  0  0  0  0  0  0
  -26.0300  -34.8940   23.4030 C   0  0  0  0  0  0  0  0  0  0  0  0
  -26.6800  -34.7890   22.3580 O   0  0  0  0  0  0  0  0  0  0  0  0
  -25.0660  -33.9950   24.9390 H   0  0  0  0  0  0  0  0  0  0  0  0
  -24.4230  -36.8080   23.1420 C   0  0  0  0  0  1  0  0  0  0  0  0
  -25.6400  -36.2900   23.9230 C   0  0  0  0  0  3  0  0  0  0  0  0
  -27.8350  -36.9960   24.7630 C   0  0  0  0  0  1  0  0  0  0  0  0
  -26.7380  -37.2760   23.8410 N   0  0  0  0  0  0  0  0  0  0  0  0
  -26.3970  -38.2140   24.0280 H   0  0  0  0  0  0  0  0  0  0  0  0
  -26.3980  -31.6000   24.9540 C   0  0  1  0  0  0  0  0  0  0  0  0
  -25.3610  -31.4040   26.0830 C   0  0  0  0  0  1  0  0  0  0  0  0
  -26.8690  -30.2000   24.4970 C   0  0  0  0  0  1  0  0  0  0  0  0
  -27.6310  -32.3070   25.5590 C   0  0  0  0  0  1  0  0  0  0  0  0
  -29.7980  -21.3650   19.5120 C   0  0  0  0  0  2  0  0  0  0  0  0
  -30.6030  -19.4300   21.0550 C   0  0  0  0  0  3  0  0  0  0  0  0
  -28.7690  -17.6300   19.9790 C   0  0  0  0  0  3  0  0  0  0  0  0
  -29.6800  -19.9220   20.0960 C   0  0  0  0  0  0  0  0  0  0  0  0
  -29.7280  -17.1230   20.8910 C   0  0  0  0  0  0  0  0  0  0  0  0
  -30.6270  -18.0650   21.4580 C   0  0  0  0  0  0  0  0  0  0  0  0
  -28.7370  -18.9900   19.5850 C   0  0  0  0  0  0  0  0  0  0  0  0
  -31.7450  -17.5910   22.6900 Cl  0  0  0  0  0  0  0  0  0  0  0  0
  -27.5350  -19.4880   18.4480 Cl  0  0  0  0  0  0  0  0  0  0  0  0
  -30.5150  -14.7170   20.9650 C   0  0  0  0  0  0  0  0  0  0  0  0
  -30.4460  -12.4340   19.9960 C   0  0  0  0  0  2  0  0  0  0  0  0
  -29.6210  -12.5050   18.6930 C   0  0  0  0  0  2  0  0  0  0  0  0
  -28.1100  -12.3730   18.9800 C   0  0  0  0  0  2  0  0  0  0  0  0
  -27.6290  -13.2770   20.1440 C   0  0  0  0  0  3  0  0  0  0  0  0
  -28.5750  -13.1540   21.3580 C   0  0  0  0  0  2  0  0  0  0  0  0
  -29.9380  -13.4800   20.8990 N   0  0  0  0  0  0  0  0  0  0  0  0
  -31.6850  -14.9120   20.6170 O   0  0  0  0  0  0  0  0  0  0  0  0
  -29.6710  -15.7300   21.2870 N   0  0  0  0  0  0  0  0  0  0  0  0
  -28.7580  -15.3990   21.5600 H   0  0  0  0  0  0  0  0  0  0  0  0
  -25.1770  -13.8810   20.6340 C   0  0  0  0  0  0  0  0  0  0  0  0
  -24.0830  -13.1100   20.9190 C   0  0  0  0  0  0  0  0  0  0  0  0
  -24.5490  -11.7600   20.9570 C   0  0  0  0  0  0  0  0  0  0  0  0
  -26.2400  -12.9990   20.5090 N   0  0  0  0  0  0  0  0  0  0  0  0
  -25.8590  -11.7210   20.7610 N   0  0  0  0  0  0  0  0  0  0  0  0
  -23.8110  -10.4980   21.1100 C   0  0  0  0  0  0  0  0  0  0  0  0
  -24.1850   -9.5340   22.0730 C   0  0  0  0  0  3  0  0  0  0  0  0
  -23.4500   -8.3390   22.2150 C   0  0  0  0  0  3  0  0  0  0  0  0
  -22.3270   -8.0960   21.3890 C   0  0  0  0  0  0  0  0  0  0  0  0
  -21.9690   -9.0500   20.4180 C   0  0  0  0  0  3  0  0  0  0  0  0
  -22.7070  -10.2360   20.2730 C   0  0  0  0  0  3  0  0  0  0  0  0
  -21.5740   -6.9460   21.4360 O   0  0  0  0  0  0  0  0  0  0  0  0
  -21.4920   -6.1870   22.5740 C   0  0  0  0  0  0  0  0  0  0  0  0
  -21.0100   -6.7180   23.7900 C   0  0  0  0  0  3  0  0  0  0  0  0
  -20.8700   -5.8870   24.9170 C   0  0  0  0  0  3  0  0  0  0  0  0
  -21.2080   -4.5210   24.8300 C   0  0  0  0  0  0  0  0  0  0  0  0
  -21.6850   -3.9880   23.6190 C   0  0  0  0  0  3  0  0  0  0  0  0
  -21.8230   -4.8170   22.4920 C   0  0  0  0  0  0  0  0  0  0  0  0
  -22.2630   -4.2950   21.3210 F   0  0  0  0  0  0  0  0  0  0  0  0
  -21.0660   -3.7170   25.9060 F   0  0  0  0  0  0  0  0  0  0  0  0
  -22.6660  -13.5860   21.0570 C   0  0  0  0  0  0  0  0  0  0  0  0
  -21.8630  -12.9170   21.8780 N   0  0  0  0  0  0  0  0  0  0  0  0
  -22.2700  -14.5930   20.4660 O   0  0  0  0  0  0  0  0  0  0  0  0
  -22.1870  -12.1070   22.3840 H   0  0  0  0  0  0  0  0  0  0  0  0
  -20.9130  -13.2340   22.0080 H   0  0  0  0  0  0  0  0  0  0  0  0
  -25.3480  -15.2520   20.4520 N   0  0  0  0  0  0  0  0  0  0  0  0
  -24.5770  -15.9060   20.5180 H   0  0  0  0  0  0  0  0  0  0  0  0
  -26.2100  -15.7010   20.1750 H   0  0  0  0  0  0  0  0  0  0  0  0
  -30.0080  -27.1990   21.3730 C   0  0  0  0  0  2  0  0  0  0  0  0
  -31.4500  -27.6220   21.7710 C   0  0  1  0  0  0  0  0  0  0  0  0
  -31.9200  -26.8340   22.7390 F   0  0  0  0  0  0  0  0  0  0  0  0
  -32.2020  -27.4490   20.6820 F   0  0  0  0  0  0  0  0  0  0  0  0
  -31.6140  -29.1050   22.2090 C   0  0  0  0  0  3  0  0  0  0  0  0
  -32.9200  -29.3440   22.3810 F   0  0  0  0  0  0  0  0  0  0  0  0
  -30.8680  -29.5620   23.4880 C   0  0  2  0  0  0  0  0  0  0  0  0
  -29.5520  -29.4290   23.3330 F   0  0  0  0  0  0  0  0  0  0  0  0
  -31.1100  -30.8540   23.7130 F   0  0  0  0  0  0  0  0  0  0  0  0
  -31.2510  -28.8610   24.5590 F   0  0  0  0  0  0  0  0  0  0  0  0
  2  6  1  0
  2  4  1  0
  3  1  1  0
  4  7  1  0
  5 97  1  0
  5  1  1  0
  6  9  1  0
  6  5  1  0
  7  8  1  1
  7  3  1  0
 10 21  2  0
 11  9  1  0
 11 16  1  0
 12 20  1  0
 12 22  1  0
 13 19  1  0
 13 15  1  0
 14 20  1  0
 15 14  1  0
 16 15  2  0
 17 18  1  0
 17 11  2  0
 18 13  2  0
 19 12  1  0
 20 10  1  0
 22 24  2  0
 23 22  1  0
 25 23  1  0
 26 35  2  0
 26 31  1  0
 27 23  1  0
 27 31  1  0
 28 27  1  0
 29 30  1  0
 29 28  1  0
 30 26  1  0
 31 32  2  0
 32 33  1  0
 34 33  2  0
 35 34  1  0
 36 10  1  0
 36 37  1  0
 36 46  1  0
 37 40  1  0
 38 42  1  0
 38 37  1  0
 39 38  2  0
 42 41  1  0
 44 42  1  0
 44 45  1  0
 44 43  1  0
 46 49  1  1
 46 47  1  0
 48 46  1  0
 50 53  1  0
 50  7  1  0
 51 55  1  0
 52 54  1  0
 53 51  2  0
 54 67  1  0
 54 55  2  0
 55 57  1  0
 56 52  2  0
 56 53  1  0
 58 56  1  0
 59 67  1  0
 60 65  1  0
 61 62  1  0
 61 60  1  0
 63 62  1  0
 63 72  1  0
 63 64  1  0
 65 59  1  0
 65 64  1  0
 66 59  2  0
 67 68  1  0
 69 70  2  0
 70 71  1  0
 70 89  1  0
 71 74  1  0
 72 69  1  0
 72 73  1  0
 73 71  2  0
 74 75  1  0
 75 76  2  0
 77 80  1  0
 77 76  1  0
 78 77  2  0
 79 78  1  0
 79 74  2  0
 80 81  1  0
 81 82  1  0
 82 83  2  0
 84 83  1  0
 84 88  1  0
 85 84  2  0
 86 81  2  0
 86 85  1  0
 87 86  1  0
 89 90  1  0
 90 93  1  0
 90 92  1  0
 91 89  2  0
 94 95  1  0
 94 69  1  0
 96 94  1  0
 97 98  1  0
 98101  1  0
 98 99  1  1
100 98  1  0
101102  1  0
101103  1  0
103105  1  1
103106  1  0
104103  1  0
M  ISO  4   6 101   9 101  59 100  67 100
M  END
>  <TORSDO>  (20) 
F 22

>  <SCORE>  (20) 
-12.713

>  <name>  (20) 
20

>  <ligand_id>  (20) 
20

>  <original_smiles>  (20) 
[H]c1c([H])c([H])c2c(c1[H])C([H])([H])C([H])([H])C([H])([H])C2([H])N([H])C(=O)C1([H])N(C(=O)C([H])(N([H])C(=O)C([H])(N([H])C([H])([H])[H])C([H])([H])[H])C(C([H])([H])[H])(C([H])([H])[H])C([H])([H])[H])C([H])([H])c2c([H])c(OC3([H])C([H])([H])C([H])([H])[N+]([H])(C([H])([H])c4c([H])c(Cl)c(N([H])C(=O)N5C([H])([H])C([H])([H])C([H])([H])C([H])(n6nc(-c7c([H])c([H])c(Oc8c([H])c([H])c(F)c([H])c8F)c([H])c7[H])c(C(=O)N([H])[H])c6N([H])[H])C5([H])[H])c([H])c4Cl)C([H])([H])C([H])([H])C3([H])C([H])([H])C(F)(F)C([H])(F)C(F)(F)F)c([H])c([H])c2C1([H])[H]

>  <smiles>  (20) 
[H]c1c([H])c([H])c2c(c1[H])C([H])([H])C([H])([H])C([H])([H])C2([H])N([H])C(=O)C1([H])N(C(=O)C([H])(N([H])C(=O)C([H])(N([H])C([H])([H])[H])C([H])([H])[H])C(C([H])([H])[H])(C([H])([H])[H])C([H])([H])[H])C([H])([H])c2c([H])c(OC3([H])C([H])([H])C([H])([H])[N+]([H])(C([H])([H])c4c([H])c(Cl)c(N([H])C(=O)N5C([H])([H])C([H])([H])C([H])([H])C([H])(n6nc(-c7c([H])c([H])c(Oc8c([H])c([H])c(F)c([H])c8F)c([H])c7[H])c(C(=O)N([H])[H])c6N([H])[H])C5([H])[H])c([H])c4Cl)C([H])([H])C([H])([H])C3([H])C([H])([H])C(F)(F)C([H])(F)C(F)(F)F)c([H])c([H])c2C1([H])[H]

$$$$
21:0:0
     RDKit          3D

 95103  0  0  1  0  0  0  0  0999 V2000
  -29.4770  -22.1650   19.2470 C   0  0  0  0  0  2  0  0  0  0  0  0
  -28.7970  -18.7080   20.8150 C   0  0  0  0  0  3  0  0  0  0  0  0
  -30.3740  -19.8430   18.7930 C   0  0  0  0  0  3  0  0  0  0  0  0
  -29.5640  -17.8640   19.9820 C   0  0  0  0  0  0  0  0  0  0  0  0
  -29.5630  -20.6810   19.5880 C   0  0  0  0  0  0  0  0  0  0  0  0
  -30.3640  -18.4470   18.9690 C   0  0  0  0  0  0  0  0  0  0  0  0
  -28.7810  -20.1040   20.6160 C   0  0  0  0  0  0  0  0  0  0  0  0
  -31.2860  -17.4820   17.8740 Cl  0  0  0  0  0  0  0  0  0  0  0  0
  -27.7730  -21.0860   21.6180 Cl  0  0  0  0  0  0  0  0  0  0  0  0
  -29.4110  -16.3470   20.1110 C   0  0  0  0  0  2  0  0  0  0  0  0
  -31.0590  -14.5390   20.0640 C   0  0  0  0  0  0  0  0  0  0  0  0
  -30.6460  -12.3630   18.9730 C   0  0  0  0  0  2  0  0  0  0  0  0
  -29.6820  -12.5200   17.7820 C   0  0  0  0  0  2  0  0  0  0  0  0
  -28.2200  -12.3980   18.2520 C   0  0  0  0  0  2  0  0  0  0  0  0
  -27.9110  -13.3050   19.4690 C   0  0  0  0  0  3  0  0  0  0  0  0
  -28.9920  -13.1570   20.5670 C   0  0  0  0  0  2  0  0  0  0  0  0
  -30.3100  -13.4040   19.9570 N   0  0  0  0  0  0  0  0  0  0  0  0
  -32.1930  -14.6270   19.5850 O   0  0  0  0  0  0  0  0  0  0  0  0
  -31.3360  -16.3380   21.6800 C   0  0  0  0  0  1  0  0  0  0  0  0
  -30.5130  -15.5840   20.7310 N   0  0  0  0  0  0  0  0  0  0  0  0
  -25.5610  -14.0070   20.2390 C   0  0  0  0  0  0  0  0  0  0  0  0
  -24.4790  -13.2740   20.6450 C   0  0  0  0  0  0  0  0  0  0  0  0
  -24.8970  -11.9090   20.6160 C   0  0  0  0  0  0  0  0  0  0  0  0
  -26.5680  -13.0860   19.9910 N   0  0  0  0  0  0  0  0  0  0  0  0
  -26.1760  -11.8210   20.2760 N   0  0  0  0  0  0  0  0  0  0  0  0
  -24.1390  -10.6720   20.8330 C   0  0  0  0  0  0  0  0  0  0  0  0
  -24.5320   -9.7290   21.8070 C   0  0  0  0  0  3  0  0  0  0  0  0
  -23.7770   -8.5540   22.0090 C   0  0  0  0  0  3  0  0  0  0  0  0
  -22.6150   -8.3150   21.2360 C   0  0  0  0  0  0  0  0  0  0  0  0
  -22.2420   -9.2470   20.2520 C   0  0  0  0  0  3  0  0  0  0  0  0
  -22.9970  -10.4140   20.0480 C   0  0  0  0  0  3  0  0  0  0  0  0
  -21.8340   -7.1910   21.3470 O   0  0  0  0  0  0  0  0  0  0  0  0
  -21.7120   -6.5140   22.5340 C   0  0  0  0  0  0  0  0  0  0  0  0
  -21.2120   -7.1360   23.6990 C   0  0  0  0  0  3  0  0  0  0  0  0
  -21.0370   -6.3860   24.8780 C   0  0  0  0  0  3  0  0  0  0  0  0
  -21.3530   -5.0130   24.8930 C   0  0  0  0  0  0  0  0  0  0  0  0
  -21.8460   -4.3910   23.7330 C   0  0  0  0  0  3  0  0  0  0  0  0
  -22.0230   -5.1390   22.5560 C   0  0  0  0  0  0  0  0  0  0  0  0
  -22.4790   -4.5310   21.4350 F   0  0  0  0  0  0  0  0  0  0  0  0
  -21.1770   -4.2890   26.0230 F   0  0  0  0  0  0  0  0  0  0  0  0
  -23.1050  -13.7980   20.9440 C   0  0  0  0  0  0  0  0  0  0  0  0
  -22.3760  -13.1330   21.8340 N   0  0  0  0  0  0  0  0  0  0  0  0
  -22.6860  -14.8320   20.4230 O   0  0  0  0  0  0  0  0  0  0  0  0
  -22.7280  -12.2970   22.2760 H   0  0  0  0  0  0  0  0  0  0  0  0
  -21.4540  -13.4660   22.0770 H   0  0  0  0  0  0  0  0  0  0  0  0
  -25.7620  -15.3700   20.0400 N   0  0  0  0  0  0  0  0  0  0  0  0
  -25.0080  -16.0400   20.1510 H   0  0  0  0  0  0  0  0  0  0  0  0
  -26.5930  -15.7760   19.6330 H   0  0  0  0  0  0  0  0  0  0  0  0
  -29.9850  -23.0600   20.3070 N   0  0  0  0  0  4  0  0  0  0  0  0
  -30.8510  -22.6850   20.6620 H   0  0  0  0  0  0  0  0  0  0  0  0
  -29.3090  -23.0520   21.0560 H   0  0  0  0  0  0  0  0  0  0  0  0
  -30.2250  -24.4430   19.8320 C   0  0  0  0  0  2  0  0  0  0  0  0
  -30.2550  -25.5010   20.9560 C   0  0  0  0  0  2  0  0  0  0  0  0
  -28.9080  -26.2110   21.1840 C   0  0  0  0  0  2  0  0  0  0  0  0
  -28.5190  -26.8550   19.9770 O   0  0  0  0  0  0  0  0  0  0  0  0
  -24.6540  -31.8830   23.2250 C   0  0  0  0  0  0  0  0  0  0  0  0
  -27.3440  -27.5550   20.0590 C   0  0  0  0  0  0  0  0  0  0  0  0
  -23.4530  -30.4860   21.5700 C   0  0  0  0  0  3  0  0  0  0  0  0
  -24.9190  -28.9900   20.1150 C   0  0  0  0  0  0  0  0  0  0  0  0
  -25.9660  -30.8950   21.3540 C   0  0  0  0  0  2  0  0  0  0  0  0
  -26.0690  -29.5330   20.7040 C   0  0  0  0  0  0  0  0  0  0  0  0
  -27.2850  -28.8190   20.6830 C   0  0  0  0  0  3  0  0  0  0  0  0
  -26.1860  -27.0180   19.4640 C   0  0  0  0  0  3  0  0  0  0  0  0
  -24.9690  -27.7270   19.4960 C   0  0  0  0  0  3  0  0  0  0  0  0
  -23.6600  -29.8250   20.1810 C   0  0  0  0  0  2  0  0  0  0  0  0
  -24.7090  -31.1010   22.1090 N   0  0  0  0  0  0  0  0  0  0  0  0
  -23.5740  -32.1300   23.7800 O   0  0  0  0  0  0  0  0  0  0  0  0
  -22.8270  -29.4410   22.5230 C   0  0  0  0  0  0  0  0  0  0  0  0
  -21.5060  -29.2340   22.3960 N   0  0  0  0  0  0  0  0  0  0  0  0
  -23.5260  -28.8210   23.3280 O   0  0  0  0  0  0  0  0  0  0  0  0
  -21.0030  -29.7880   21.7170 H   0  0  0  0  0  0  0  0  0  0  0  0
  -18.1600  -27.9620   22.8770 C   0  0  0  0  0  0  0  0  0  0  0  0
  -20.7100  -28.2710   23.1560 C   0  0  0  0  0  3  0  0  0  0  0  0
  -20.8450  -26.8480   22.5660 C   0  0  0  0  0  2  0  0  0  0  0  0
  -19.7520  -26.5130   21.5470 C   0  0  0  0  0  2  0  0  0  0  0  0
  -18.3670  -26.6230   22.1910 C   0  0  0  0  0  2  0  0  0  0  0  0
  -19.2610  -28.7440   23.3160 C   0  0  0  0  0  0  0  0  0  0  0  0
  -19.0160  -29.9980   23.9160 C   0  0  0  0  0  3  0  0  0  0  0  0
  -17.7010  -30.4710   24.0820 C   0  0  0  0  0  3  0  0  0  0  0  0
  -16.6130  -29.6870   23.6590 C   0  0  0  0  0  3  0  0  0  0  0  0
  -16.8440  -28.4340   23.0630 C   0  0  0  0  0  3  0  0  0  0  0  0
  -25.9380  -32.5210   23.8410 C   0  0  0  0  0  3  0  0  0  0  0  0
  -25.6210  -33.9150   24.1770 N   0  0  0  0  0  0  0  0  0  0  0  0
  -25.9450  -34.9710   23.4180 C   0  0  0  0  0  0  0  0  0  0  0  0
  -26.6150  -34.8740   22.3860 O   0  0  0  0  0  0  0  0  0  0  0  0
  -25.0270  -34.0630   24.9780 H   0  0  0  0  0  0  0  0  0  0  0  0
  -24.2060  -36.7520   23.0640 C   0  0  0  0  0  1  0  0  0  0  0  0
  -25.4480  -36.3530   23.8780 C   0  0  0  0  0  3  0  0  0  0  0  0
  -27.5720  -37.2510   24.7210 C   0  0  0  0  0  1  0  0  0  0  0  0
  -26.4730  -37.4140   23.7720 N   0  0  0  0  0  0  0  0  0  0  0  0
  -26.0610  -38.3310   23.9190 H   0  0  0  0  0  0  0  0  0  0  0  0
  -26.4710  -31.7460   25.1090 C   0  0  1  0  0  0  0  0  0  0  0  0
  -25.3860  -31.4910   26.1820 C   0  0  0  0  0  1  0  0  0  0  0  0
  -27.0660  -30.3780   24.7020 C   0  0  0  0  0  1  0  0  0  0  0  0
  -27.6170  -32.5480   25.7700 C   0  0  0  0  0  1  0  0  0  0  0  0
  1  5  1  0
  1 49  1  0
  3  6  2  0
  3  5  1  0
  4 10  1  0
  4  2  2  0
  5  7  2  0
  6  4  1  0
  7  2  1  0
  7  9  1  0
  8  6  1  0
 10 20  1  0
 11 20  1  0
 12 17  1  0
 13 14  1  0
 13 12  1  0
 15 14  1  0
 15 24  1  0
 15 16  1  0
 17 11  1  0
 17 16  1  0
 18 11  2  0
 20 19  1  0
 21 22  2  0
 22 41  1  0
 23 22  1  0
 23 26  1  0
 24 21  1  0
 24 25  1  0
 25 23  2  0
 26 27  1  0
 27 28  2  0
 29 32  1  0
 29 28  1  0
 30 29  2  0
 31 30  1  0
 31 26  2  0
 32 33  1  0
 33 38  2  0
 33 34  1  0
 34 35  2  0
 35 36  1  0
 36 40  1  0
 37 36  2  0
 38 37  1  0
 39 38  1  0
 41 42  1  0
 42 45  1  0
 42 44  1  0
 43 41  2  0
 46 47  1  0
 46 21  1  0
 48 46  1  0
 49 50  1  0
 49 51  1  0
 52 49  1  0
 52 53  1  0
 53 54  1  0
 55 57  1  0
 55 54  1  0
 56 67  2  0
 57 62  1  0
 58 66  1  0
 58 68  1  0
 59 65  1  0
 59 61  1  0
 60 66  1  0
 61 60  1  0
 62 61  2  0
 63 64  1  0
 63 57  2  0
 64 59  2  0
 65 58  1  0
 66 56  1  0
 68 70  2  0
 69 68  1  0
 71 69  1  0
 72 81  2  0
 72 77  1  0
 73 69  1  0
 73 77  1  0
 74 73  1  0
 75 76  1  0
 75 74  1  0
 76 72  1  0
 77 78  2  0
 78 79  1  0
 80 79  2  0
 81 80  1  0
 82 56  1  0
 82 83  1  0
 82 92  1  0
 83 86  1  0
 84 88  1  0
 84 83  1  0
 85 84  2  0
 88 87  1  0
 90 88  1  0
 90 91  1  0
 90 89  1  0
 92 95  1  1
 92 93  1  0
 94 92  1  0
M  ISO  4  11 100  20 100  54 101  55 101
M  END
>  <TORSDO>  (21) 
F 22

>  <SCORE>  (21) 
-12.371

>  <name>  (21) 
21

>  <ligand_id>  (21) 
21

>  <original_smiles>  (21) 
[H]c1c([H])c([H])c2c(c1[H])C([H])([H])C([H])([H])C([H])([H])C2([H])N([H])C(=O)C1([H])N(C(=O)C([H])(N([H])C(=O)C([H])(N([H])C([H])([H])[H])C([H])([H])[H])C(C([H])([H])[H])(C([H])([H])[H])C([H])([H])[H])C([H])([H])c2c([H])c(OC([H])([H])C([H])([H])C([H])([H])[N+]([H])([H])C([H])([H])c3c([H])c(Cl)c(C([H])([H])N(C(=O)N4C([H])([H])C([H])([H])C([H])([H])C([H])(n5nc(-c6c([H])c([H])c(Oc7c([H])c([H])c(F)c([H])c7F)c([H])c6[H])c(C(=O)N([H])[H])c5N([H])[H])C4([H])[H])C([H])([H])[H])c([H])c3Cl)c([H])c([H])c2C1([H])[H]

>  <smiles>  (21) 
[H]c1c([H])c([H])c2c(c1[H])C([H])([H])C([H])([H])C([H])([H])C2([H])N([H])C(=O)C1([H])N(C(=O)C([H])(N([H])C(=O)C([H])(N([H])C([H])([H])[H])C([H])([H])[H])C(C([H])([H])[H])(C([H])([H])[H])C([H])([H])[H])C([H])([H])c2c([H])c(OC([H])([H])C([H])([H])C([H])([H])[N+]([H])([H])C([H])([H])c3c([H])c(Cl)c(C([H])([H])N(C(=O)N4C([H])([H])C([H])([H])C([H])([H])C([H])(n5nc(-c6c([H])c([H])c(Oc7c([H])c([H])c(F)c([H])c7F)c([H])c6[H])c(C(=O)N([H])[H])c5N([H])[H])C4([H])[H])C([H])([H])[H])c([H])c3Cl)c([H])c([H])c2C1([H])[H]

$$$$
22:0:0
     RDKit          3D

101109  0  0  1  0  0  0  0  0999 V2000
  -32.3340  -22.5080   21.1030 C   0  0  0  0  0  2  0  0  0  0  0  0
  -31.7030  -20.6420   19.5290 C   0  0  0  0  0  3  0  0  0  0  0  0
  -31.8420  -18.7060   21.5500 C   0  0  0  0  0  3  0  0  0  0  0  0
  -32.0090  -21.0420   20.8440 C   0  0  0  0  0  0  0  0  0  0  0  0
  -31.4820  -19.2900   19.2120 C   0  0  0  0  0  0  0  0  0  0  0  0
  -32.0680  -20.0640   21.8700 C   0  0  0  0  0  0  0  0  0  0  0  0
  -31.5290  -18.3110   20.2330 C   0  0  0  0  0  0  0  0  0  0  0  0
  -31.2810  -18.9340   17.7510 C   0  0  0  0  0  1  0  0  0  0  0  0
  -32.4070  -20.4380   23.3070 C   0  0  0  0  0  1  0  0  0  0  0  0
  -31.4190  -16.9520   19.9200 N   0  0  0  0  0  0  0  0  0  0  0  0
  -31.3550  -16.7780   18.9150 H   0  0  0  0  0  0  0  0  0  0  0  0
  -29.0230  -16.3840   20.2080 C   0  0  0  0  0  1  0  0  0  0  0  0
  -30.4830  -15.9620   20.5010 C   0  0  1  0  0  0  0  0  0  0  0  0
  -30.8120  -14.6340   19.6950 C   0  0  0  0  0  0  0  0  0  0  0  0
  -30.3950  -12.4060   18.7210 C   0  0  0  0  0  2  0  0  0  0  0  0
  -29.3730  -12.5260   17.5760 C   0  0  0  0  0  2  0  0  0  0  0  0
  -27.9430  -12.3690   18.1200 C   0  0  0  0  0  2  0  0  0  0  0  0
  -27.6820  -13.2660   19.3570 C   0  0  0  0  0  3  0  0  0  0  0  0
  -28.8250  -13.1790   20.3890 C   0  0  0  0  0  2  0  0  0  0  0  0
  -30.0950  -13.4680   19.7060 N   0  0  0  0  0  0  0  0  0  0  0  0
  -31.7920  -14.7170   18.9370 O   0  0  0  0  0  0  0  0  0  0  0  0
  -25.3750  -13.8460   20.3280 C   0  0  0  0  0  0  0  0  0  0  0  0
  -24.3590  -13.0680   20.8040 C   0  0  0  0  0  0  0  0  0  0  0  0
  -24.8160  -11.7150   20.7030 C   0  0  0  0  0  0  0  0  0  0  0  0
  -26.3910  -12.9740   19.9720 N   0  0  0  0  0  0  0  0  0  0  0  0
  -26.0650  -11.6870   20.2540 N   0  0  0  0  0  0  0  0  0  0  0  0
  -24.1150  -10.4480   20.9490 C   0  0  0  0  0  0  0  0  0  0  0  0
  -24.5810   -9.5200   21.9070 C   0  0  0  0  0  3  0  0  0  0  0  0
  -23.8780   -8.3180   22.1450 C   0  0  0  0  0  3  0  0  0  0  0  0
  -22.6970   -8.0320   21.4200 C   0  0  0  0  0  0  0  0  0  0  0  0
  -22.2520   -8.9460   20.4480 C   0  0  0  0  0  3  0  0  0  0  0  0
  -22.9550  -10.1380   20.2110 C   0  0  0  0  0  3  0  0  0  0  0  0
  -21.9680   -6.8750   21.5600 O   0  0  0  0  0  0  0  0  0  0  0  0
  -21.8710   -6.2260   22.7650 C   0  0  0  0  0  0  0  0  0  0  0  0
  -21.3730   -6.8690   23.9190 C   0  0  0  0  0  3  0  0  0  0  0  0
  -21.2240   -6.1440   25.1190 C   0  0  0  0  0  3  0  0  0  0  0  0
  -21.5610   -4.7780   25.1630 C   0  0  0  0  0  0  0  0  0  0  0  0
  -22.0510   -4.1350   24.0130 C   0  0  0  0  0  3  0  0  0  0  0  0
  -22.2040   -4.8570   22.8160 C   0  0  0  0  0  0  0  0  0  0  0  0
  -22.6570   -4.2280   21.7050 F   0  0  0  0  0  0  0  0  0  0  0  0
  -21.4090   -4.0770   26.3120 F   0  0  0  0  0  0  0  0  0  0  0  0
  -22.9970  -13.5290   21.2380 C   0  0  0  0  0  0  0  0  0  0  0  0
  -22.3890  -12.8330   22.1910 N   0  0  0  0  0  0  0  0  0  0  0  0
  -22.4890  -14.5480   20.7690 O   0  0  0  0  0  0  0  0  0  0  0  0
  -22.8240  -12.0130   22.5920 H   0  0  0  0  0  0  0  0  0  0  0  0
  -21.4790  -13.1220   22.5230 H   0  0  0  0  0  0  0  0  0  0  0  0
  -25.5240  -15.2210   20.1500 N   0  0  0  0  0  0  0  0  0  0  0  0
  -24.7850  -15.8860   20.3490 H   0  0  0  0  0  0  0  0  0  0  0  0
  -26.3430  -15.6590   19.7510 H   0  0  0  0  0  0  0  0  0  0  0  0
  -30.3720  -17.0440   22.9180 C   0  0  0  0  0  1  0  0  0  0  0  0
  -30.7740  -15.8370   22.0340 C   0  0  0  0  0  2  0  0  0  0  0  0
  -31.1000  -23.3360   21.5100 C   0  0  0  0  0  2  0  0  0  0  0  0
  -30.2380  -23.8250   20.3280 C   0  0  0  0  0  2  0  0  0  0  0  0
  -30.7200  -25.1540   19.8830 N   0  0  0  0  0  4  0  0  0  0  0  0
  -31.7260  -25.1240   19.8760 H   0  0  0  0  0  0  0  0  0  0  0  0
  -30.4400  -25.8140   20.5970 H   0  0  0  0  0  0  0  0  0  0  0  0
  -31.1270  -27.0000   18.3810 C   0  0  0  0  0  1  0  0  0  0  0  0
  -30.6030  -24.7330   17.4070 C   0  0  0  0  0  1  0  0  0  0  0  0
  -30.2960  -25.7100   18.5720 C   0  0  1  0  0  0  0  0  0  0  0  0
  -28.7860  -26.0530   18.5980 C   0  0  0  0  0  2  0  0  0  0  0  0
  -28.5530  -26.9290   19.7050 O   0  0  0  0  0  0  0  0  0  0  0  0
  -24.6360  -31.7510   23.1610 C   0  0  0  0  0  0  0  0  0  0  0  0
  -27.3390  -27.5720   19.7730 C   0  0  0  0  0  0  0  0  0  0  0  0
  -23.4360  -30.4150   21.4570 C   0  0  0  0  0  3  0  0  0  0  0  0
  -24.9010  -28.9930   19.9300 C   0  0  0  0  0  0  0  0  0  0  0  0
  -25.9490  -30.8410   21.2500 C   0  0  0  0  0  2  0  0  0  0  0  0
  -26.0520  -29.5120   20.5350 C   0  0  0  0  0  0  0  0  0  0  0  0
  -27.2690  -28.8010   20.4660 C   0  0  0  0  0  3  0  0  0  0  0  0
  -26.1620  -27.0520   19.1840 C   0  0  0  0  0  3  0  0  0  0  0  0
  -24.9480  -27.7600   19.2600 C   0  0  0  0  0  3  0  0  0  0  0  0
  -23.6400  -29.8210   20.0380 C   0  0  0  0  0  2  0  0  0  0  0  0
  -24.6920  -31.0150   22.0150 N   0  0  0  0  0  0  0  0  0  0  0  0
  -23.5580  -31.9680   23.7290 O   0  0  0  0  0  0  0  0  0  0  0  0
  -22.8240  -29.3260   22.3660 C   0  0  0  0  0  0  0  0  0  0  0  0
  -21.5060  -29.1090   22.2350 N   0  0  0  0  0  0  0  0  0  0  0  0
  -23.5310  -28.6800   23.1450 O   0  0  0  0  0  0  0  0  0  0  0  0
  -20.9950  -29.6850   21.5790 H   0  0  0  0  0  0  0  0  0  0  0  0
  -18.1710  -27.7980   22.6860 C   0  0  0  0  0  0  0  0  0  0  0  0
  -20.7220  -28.1110   22.9590 C   0  0  0  0  0  3  0  0  0  0  0  0
  -20.8610  -26.7160   22.3080 C   0  0  0  0  0  2  0  0  0  0  0  0
  -19.7620  -26.4170   21.2830 C   0  0  0  0  0  2  0  0  0  0  0  0
  -18.3810  -26.4910   21.9410 C   0  0  0  0  0  2  0  0  0  0  0  0
  -19.2710  -28.5670   23.1500 C   0  0  0  0  0  0  0  0  0  0  0  0
  -19.0230  -29.7910   23.8070 C   0  0  0  0  0  3  0  0  0  0  0  0
  -17.7060  -30.2480   24.0040 C   0  0  0  0  0  3  0  0  0  0  0  0
  -16.6200  -29.4760   23.5560 C   0  0  0  0  0  3  0  0  0  0  0  0
  -16.8530  -28.2530   22.9030 C   0  0  0  0  0  3  0  0  0  0  0  0
  -25.9190  -32.3740   23.7950 C   0  0  0  0  0  3  0  0  0  0  0  0
  -26.4170  -31.6000   25.0780 C   0  0  1  0  0  0  0  0  0  0  0  0
  -25.3050  -31.3490   26.1220 C   0  0  0  0  0  1  0  0  0  0  0  0
  -27.0200  -30.2290   24.6900 C   0  0  0  0  0  1  0  0  0  0  0  0
  -27.5490  -32.4000   25.7650 C   0  0  0  0  0  1  0  0  0  0  0  0
  -25.6170  -33.7740   24.1170 N   0  0  0  0  0  0  0  0  0  0  0  0
  -25.9800  -34.8210   23.3660 C   0  0  0  0  0  0  0  0  0  0  0  0
  -26.6790  -34.7110   22.3540 O   0  0  0  0  0  0  0  0  0  0  0  0
  -25.0020  -33.9350   24.9010 H   0  0  0  0  0  0  0  0  0  0  0  0
  -24.2840  -36.6320   22.9540 C   0  0  0  0  0  1  0  0  0  0  0  0
  -25.4920  -36.2150   23.8070 C   0  0  0  0  0  3  0  0  0  0  0  0
  -27.6060  -37.0770   24.7130 C   0  0  0  0  0  1  0  0  0  0  0  0
  -26.5390  -37.2570   23.7310 N   0  0  0  0  0  0  0  0  0  0  0  0
  -26.1380  -38.1810   23.8650 H   0  0  0  0  0  0  0  0  0  0  0  0
  1 52  1  0
  2  4  1  0
  3  6  1  0
  4  1  1  0
  4  6  2  0
  5  2  2  0
  5  7  1  0
  6  9  1  0
  7  3  2  0
  8  5  1  0
 10  7  1  0
 10 13  1  0
 11 10  1  0
 13 12  1  1
 13 51  1  0
 14 20  1  0
 14 13  1  0
 15 20  1  0
 16 17  1  0
 16 15  1  0
 18 17  1  0
 18 25  1  0
 18 19  1  0
 20 19  1  0
 21 14  2  0
 22 23  2  0
 23 42  1  0
 24 23  1  0
 24 27  1  0
 25 26  1  0
 25 22  1  0
 26 24  2  0
 27 28  1  0
 28 29  2  0
 30 33  1  0
 30 29  1  0
 31 30  2  0
 32 31  1  0
 32 27  2  0
 33 34  1  0
 34 39  2  0
 34 35  1  0
 35 36  2  0
 36 37  1  0
 37 41  1  0
 38 37  2  0
 39 38  1  0
 40 39  1  0
 42 43  1  0
 43 46  1  0
 43 45  1  0
 44 42  2  0
 47 22  1  0
 47 48  1  0
 49 47  1  0
 51 50  1  0
 53 52  1  0
 54 53  1  0
 54 56  1  0
 55 54  1  0
 59 57  1  6
 58 59  1  0
 59 60  1  0
 59 54  1  0
 60 61  1  0
 61 63  1  0
 62 73  2  0
 63 68  1  0
 64 72  1  0
 64 74  1  0
 65 71  1  0
 65 67  1  0
 66 72  1  0
 67 66  1  0
 68 67  2  0
 69 70  1  0
 69 63  2  0
 70 65  2  0
 71 64  1  0
 72 62  1  0
 74 76  2  0
 75 74  1  0
 77 75  1  0
 78 87  2  0
 78 83  1  0
 79 75  1  0
 79 83  1  0
 80 79  1  0
 81 82  1  0
 81 80  1  0
 82 78  1  0
 83 84  2  0
 84 85  1  0
 86 85  2  0
 87 86  1  0
 88 62  1  0
 88 93  1  0
 88 89  1  0
 89 92  1  1
 89 90  1  0
 91 89  1  0
 93 96  1  0
 94 98  1  0
 94 93  1  0
 95 94  2  0
 98 97  1  0
100 98  1  0
100101  1  0
100 99  1  0
M  ISO  4  13 100  14 100  60 101  61 101
M  END
>  <TORSDO>  (22) 
F 25

>  <SCORE>  (22) 
-11.157

>  <name>  (22) 
22

>  <ligand_id>  (22) 
22

>  <original_smiles>  (22) 
[H]c1c([H])c([H])c2c(c1[H])C([H])([H])C([H])([H])C([H])([H])C2([H])N([H])C(=O)C1([H])N(C(=O)C([H])(N([H])C(=O)C([H])(N([H])C([H])([H])[H])C([H])([H])[H])C(C([H])([H])[H])(C([H])([H])[H])C([H])([H])[H])C([H])([H])c2c([H])c(OC([H])([H])C(C([H])([H])[H])(C([H])([H])[H])[N+]([H])([H])C([H])([H])C([H])([H])C([H])([H])c3c([H])c(C([H])([H])[H])c(N([H])C(C(=O)N4C([H])([H])C([H])([H])C([H])([H])C([H])(n5nc(-c6c([H])c([H])c(Oc7c([H])c([H])c(F)c([H])c7F)c([H])c6[H])c(C(=O)N([H])[H])c5N([H])[H])C4([H])[H])(C([H])([H])[H])C([H])([H])C([H])([H])[H])c([H])c3C([H])([H])[H])c([H])c([H])c2C1([H])[H]

>  <smiles>  (22) 
[H]c1c([H])c([H])c2c(c1[H])C([H])([H])C([H])([H])C([H])([H])C2([H])N([H])C(=O)C1([H])N(C(=O)C([H])(N([H])C(=O)C([H])(N([H])C([H])([H])[H])C([H])([H])[H])C(C([H])([H])[H])(C([H])([H])[H])C([H])([H])[H])C([H])([H])c2c([H])c(OC([H])([H])C(C([H])([H])[H])(C([H])([H])[H])[N+]([H])([H])C([H])([H])C([H])([H])C([H])([H])c3c([H])c(C([H])([H])[H])c(N([H])C(C(=O)N4C([H])([H])C([H])([H])C([H])([H])C([H])(n5nc(-c6c([H])c([H])c(Oc7c([H])c([H])c(F)c([H])c7F)c([H])c6[H])c(C(=O)N([H])[H])c5N([H])[H])C4([H])[H])(C([H])([H])[H])C([H])([H])C([H])([H])[H])c([H])c3C([H])([H])[H])c([H])c([H])c2C1([H])[H]

$$$$
23:0:0
     RDKit          3D

 94100  0  0  1  0  0  0  0  0999 V2000
  -26.5480  -23.6770   21.2210 C   0  0  0  0  0  3  0  0  0  0  0  0
  -28.3470  -21.4090   21.1870 C   0  0  0  0  0  3  0  0  0  0  0  0
  -27.0760  -24.9430   21.9470 C   0  0  0  0  0  0  0  0  0  0  0  0
  -27.0590  -22.2010   20.8950 C   0  0  0  0  0  0  0  0  0  0  0  0
  -28.8850  -22.6590   21.9150 C   0  0  0  0  0  0  0  0  0  0  0  0
  -28.3550  -24.1340   22.2400 C   0  0  0  0  0  0  0  0  0  0  0  0
  -25.9140  -21.2820   19.9860 Cl  0  0  0  0  0  0  0  0  0  0  0  0
  -30.4860  -22.3450   22.4960 Cl  0  0  0  0  0  0  0  0  0  0  0  0
  -29.4790  -25.1210   23.1140 Cl  0  0  0  0  0  0  0  0  0  0  0  0
  -26.5800  -26.6340   22.2540 N   0  0  1  0  0  4  0  0  0  0  0  0
  -27.3010  -27.0350   22.8420 H   0  0  0  0  0  0  0  0  0  0  0  0
  -25.3130  -31.0510   20.4580 C   0  0  0  0  0 15  0  0  0  0  0  0
  -25.5000  -28.0770   21.6350 C   0  0  0  0  0  2  0  0  0  0  0  0
  -25.6970  -26.7610   20.5900 C   0  0  0  0  0  3  0  0  0  0  0  0
  -27.1490  -26.6080   19.9550 O   0  0  0  0  0  0  0  0  0  0  0  0
  -24.7430  -31.5690   23.4520 C   0  0  0  0  0  0  0  0  0  0  0  0
  -27.5080  -27.6390   19.2180 C   0  0  0  0  0  3  0  0  0  0  0  0
  -23.5630  -29.8990   21.8990 C   0  0  0  0  0  3  0  0  0  0  0  0
  -25.2770  -28.9830   19.4250 C   0  0  0  0  0  0  0  0  0  0  0  0
  -26.5590  -30.1240   21.9650 C   0  0  0  0  0  3  0  0  0  0  0  0
  -26.6690  -29.4130   20.2500 C   0  0  0  0  0  0  0  0  0  0  0  0
  -27.8040  -28.7550   19.9870 C   0  0  0  0  0  2  0  0  0  0  0  0
  -26.5480  -27.5690   18.2000 C   0  0  0  0  0  2  0  0  0  0  0  0
  -25.3400  -28.2530   18.2910 C   0  0  0  0  0  2  0  0  0  0  0  0
  -23.6590  -29.1050   20.2370 C   0  0  0  0  0  3  0  0  0  0  0  0
  -24.9880  -30.3920   22.7140 N   0  0  0  0  0  0  0  0  0  0  0  0
  -23.6030  -31.9730   23.7490 O   0  0  0  0  0  0  0  0  0  0  0  0
  -22.6850  -29.2090   22.8050 C   0  0  0  0  0  0  0  0  0  0  0  0
  -21.3970  -29.1940   22.5110 N   0  0  0  0  0  0  0  0  0  0  0  0
  -23.2170  -28.6370   23.7430 O   0  0  0  0  0  0  0  0  0  0  0  0
  -21.0320  -29.7120   21.7230 H   0  0  0  0  0  0  0  0  0  0  0  0
  -18.0370  -28.0310   22.8090 C   0  0  0  0  0  0  0  0  0  0  0  0
  -20.5460  -28.2460   23.1710 C   0  0  0  0  0  3  0  0  0  0  0  0
  -20.6960  -26.8720   22.4840 C   0  0  0  0  0  2  0  0  0  0  0  0
  -19.6320  -26.6350   21.4180 C   0  0  0  0  0  2  0  0  0  0  0  0
  -18.2420  -26.7270   22.0540 C   0  0  0  0  0  2  0  0  0  0  0  0
  -19.1340  -28.7740   23.2990 C   0  0  0  0  0  0  0  0  0  0  0  0
  -18.9190  -30.0080   23.9480 C   0  0  0  0  0  3  0  0  0  0  0  0
  -17.6120  -30.4920   24.1320 C   0  0  0  0  0  3  0  0  0  0  0  0
  -16.5180  -29.7370   23.6760 C   0  0  0  0  0  3  0  0  0  0  0  0
  -16.7310  -28.5110   23.0180 C   0  0  0  0  0  3  0  0  0  0  0  0
  -25.9090  -32.4520   23.9940 C   0  0  0  0  0  3  0  0  0  0  0  0
  -26.3780  -31.8400   25.3610 C   0  0  1  0  0  0  0  0  0  0  0  0
  -25.2030  -31.5710   26.3320 C   0  0  0  0  0  1  0  0  0  0  0  0
  -27.1290  -30.5060   25.1900 C   0  0  0  0  0  1  0  0  0  0  0  0
  -27.3890  -32.7820   26.0420 C   0  0  0  0  0  1  0  0  0  0  0  0
  -25.5160  -33.8810   24.1850 N   0  0  0  0  0  0  0  0  0  0  0  0
  -25.9270  -34.9490   23.4710 C   0  0  0  0  0  0  0  0  0  0  0  0
  -26.6880  -34.8480   22.5060 O   0  0  0  0  0  0  0  0  0  0  0  0
  -24.8410  -34.0490   24.9160 H   0  0  0  0  0  0  0  0  0  0  0  0
  -24.2380  -36.7820   23.0130 C   0  0  0  0  0  1  0  0  0  0  0  0
  -25.4270  -36.3590   23.8910 C   0  0  0  0  0  3  0  0  0  0  0  0
  -27.5100  -37.2720   24.8410 C   0  0  0  0  0  1  0  0  0  0  0  0
  -26.4680  -37.4140   23.8290 N   0  0  0  0  0  0  0  0  0  0  0  0
  -26.0520  -38.3380   23.9310 H   0  0  0  0  0  0  0  0  0  0  0  0
  -29.2580  -19.6240   20.7760 C   0  0  0  0  0 15  0  0  0  0  0  0
  -30.1820  -16.3220   20.1890 C   0  0  0  0  0  0  0  0  0  0  0  0
  -30.5630  -13.7220   19.2220 C   0  0  0  0  0  2  0  0  0  0  0  0
  -29.7270  -13.0930   18.0460 C   0  0  0  0  0  2  0  0  0  0  0  0
  -28.3660  -12.5840   18.5330 C   0  0  0  0  0  2  0  0  0  0  0  0
  -27.7920  -13.5810   19.5570 C   0  0  0  0  0  3  0  0  0  0  0  0
  -28.7780  -14.0280   20.6650 C   0  0  0  0  0  2  0  0  0  0  0  0
  -29.8240  -14.8610   20.0230 N   0  0  0  0  0  0  0  0  0  0  0  0
  -31.4020  -16.3040   19.8740 O   0  0  0  0  0  0  0  0  0  0  0  0
  -29.3170  -17.7050   20.5330 N   0  0  0  0  0  2  0  0  0  0  0  0
  -28.3770  -17.3750   20.7000 H   0  0  0  0  0  0  0  0  0  0  0  0
  -25.4860  -14.0300   20.4540 C   0  0  0  0  0  0  0  0  0  0  0  0
  -24.4640  -13.2210   20.8540 C   0  0  0  0  0  0  0  0  0  0  0  0
  -24.9470  -11.8810   20.7360 C   0  0  0  0  0  0  0  0  0  0  0  0
  -26.5160  -13.1830   20.1060 N   0  0  0  0  0  0  0  0  0  0  0  0
  -26.2170  -11.8790   20.3400 N   0  0  0  0  0  0  0  0  0  0  0  0
  -24.2460  -10.6040   20.9200 C   0  0  0  0  0  0  0  0  0  0  0  0
  -24.6630   -9.6610   21.8850 C   0  0  0  0  0  3  0  0  0  0  0  0
  -23.9530   -8.4530   22.0570 C   0  0  0  0  0  3  0  0  0  0  0  0
  -22.8130   -8.1800   21.2640 C   0  0  0  0  0  0  0  0  0  0  0  0
  -22.4170   -9.1120   20.2890 C   0  0  0  0  0  3  0  0  0  0  0  0
  -23.1280  -10.3110   20.1150 C   0  0  0  0  0  3  0  0  0  0  0  0
  -22.0760   -7.0230   21.3440 O   0  0  0  0  0  0  0  0  0  0  0  0
  -21.8930   -6.3670   22.5340 C   0  0  0  0  0  0  0  0  0  0  0  0
  -21.2810   -6.9930   23.6430 C   0  0  0  0  0  3  0  0  0  0  0  0
  -21.0500   -6.2610   24.8250 C   0  0  0  0  0  3  0  0  0  0  0  0
  -21.4190   -4.9050   24.8970 C   0  0  0  0  0  0  0  0  0  0  0  0
  -22.0230   -4.2790   23.7930 C   0  0  0  0  0  3  0  0  0  0  0  0
  -22.2570   -5.0080   22.6130 C   0  0  0  0  0  0  0  0  0  0  0  0
  -22.8210   -4.3950   21.5450 F   0  0  0  0  0  0  0  0  0  0  0  0
  -21.1890   -4.1990   26.0290 F   0  0  0  0  0  0  0  0  0  0  0  0
  -23.0850  -13.6720   21.2270 C   0  0  0  0  0  0  0  0  0  0  0  0
  -22.4220  -12.9430   22.1170 N   0  0  0  0  0  0  0  0  0  0  0  0
  -22.6080  -14.7080   20.7650 O   0  0  0  0  0  0  0  0  0  0  0  0
  -22.8260  -12.1060   22.5100 H   0  0  0  0  0  0  0  0  0  0  0  0
  -21.4980  -13.2260   22.4120 H   0  0  0  0  0  0  0  0  0  0  0  0
  -25.6200  -15.4100   20.3260 N   0  0  0  0  0  0  0  0  0  0  0  0
  -24.8470  -16.0430   20.5030 H   0  0  0  0  0  0  0  0  0  0  0  0
  -26.4200  -15.8690   19.9100 H   0  0  0  0  0  0  0  0  0  0  0  0
  1  3  1  0
  2  5  2  0
  3  6  2  0
  3 10  1  0
  4  2  1  0
  4  1  2  0
  5  6  1  0
  5  8  1  0
  6  9  1  0
  7  4  1  0
 10 11  1  1
 13 10  1  0
 14 15  1  0
 14 13  1  0
 14 10  1  0
 16 27  2  0
 17 15  1  0
 17 22  1  0
 18 26  1  0
 18 28  1  0
 19 25  2  0
 19 21  1  0
 20 26  1  0
 21 20  2  0
 22 21  1  0
 23 24  1  0
 23 17  1  0
 24 19  1  0
 25 18  1  0
 26 16  1  0
 28 30  2  0
 29 28  1  0
 31 29  1  0
 32 41  2  0
 32 37  1  0
 33 29  1  0
 33 37  1  0
 34 33  1  0
 35 36  1  0
 35 34  1  0
 36 32  1  0
 37 38  2  0
 38 39  1  0
 40 39  2  0
 41 40  1  0
 42 16  1  0
 42 47  1  0
 42 43  1  0
 43 46  1  1
 43 44  1  0
 45 43  1  0
 47 50  1  0
 48 52  1  0
 48 47  1  0
 49 48  2  0
 52 51  1  0
 54 52  1  0
 54 55  1  0
 54 53  1  0
 57 65  1  0
 58 63  1  0
 59 60  1  0
 59 58  1  0
 61 60  1  0
 61 70  1  0
 61 62  1  0
 63 57  1  0
 63 62  1  0
 64 57  2  0
 65 66  1  0
 67 68  2  0
 68 87  1  0
 69 68  1  0
 69 72  1  0
 70 71  1  0
 70 67  1  0
 71 69  2  0
 72 73  1  0
 73 74  2  0
 75 78  1  0
 75 74  1  0
 76 75  2  0
 77 76  1  0
 77 72  2  0
 78 79  1  0
 79 84  2  0
 79 80  1  0
 80 81  2  0
 81 82  1  0
 82 86  1  0
 83 82  2  0
 84 83  1  0
 85 84  1  0
 87 88  1  0
 88 91  1  0
 88 90  1  0
 89 87  2  0
 92 67  1  0
 92 93  1  0
 94 92  1  0
M  ISO  4  14 101  15 101  57 100  65 100
M  END
>  <TORSDO>  (23) 
F 20

>  <SCORE>  (23) 
-13.360

>  <name>  (23) 
23

>  <ligand_id>  (23) 
23

>  <original_smiles>  (23) 
[H]c1c([H])c([H])c2c(c1[H])C([H])([H])C([H])([H])C([H])([H])C2([H])N([H])C(=O)C1([H])N(C(=O)C([H])(N([H])C(=O)C([H])(N([H])C([H])([H])[H])C([H])([H])[H])C(C([H])([H])[H])(C([H])([H])[H])C([H])([H])[H])C([H])([H])c2c([H])c(OC([H])([H])C([H])(N([H])c3c([H])c(Cl)c(C([H])([H])N([H])C(=O)N4C([H])([H])C([H])([H])C([H])([H])C([H])(n5nc(-c6c([H])c([H])c(Oc7c([H])c([H])c(F)c([H])c7F)c([H])c6[H])c(C(=O)N([H])[H])c5N([H])[H])C4([H])[H])c(Cl)c3Cl)C([H])([H])[H])c([H])c([H])c2C1([H])[H]

>  <smiles>  (23) 
[H]c1c([H])c([H])c2c(c1[H])C([H])([H])C([H])([H])C([H])([H])C2([H])N([H])C(=O)C1([H])N(C(=O)C([H])(N([H])C(=O)C([H])(N([H])C([H])([H])[H])C([H])([H])[H])C(C([H])([H])[H])(C([H])([H])[H])C([H])([H])[H])C([H])([H])c2c([H])c(OC([H])([H])C([H])(N([H])c3c([H])c(Cl)c(C([H])([H])N([H])C(=O)N4C([H])([H])C([H])([H])C([H])([H])C([H])(n5nc(-c6c([H])c([H])c(Oc7c([H])c([H])c(F)c([H])c7F)c([H])c6[H])c(C(=O)N([H])[H])c5N([H])[H])C4([H])[H])c(Cl)c3Cl)C([H])([H])[H])c([H])c([H])c2C1([H])[H]

$$$$
24:0:0
     RDKit          3D

 97106  0  0  1  0  0  0  0  0999 V2000
  -30.8100  -21.8710   21.7700 C   0  0  0  0  0  0  0  0  0  0  0  0
  -29.8930  -21.3370   20.9030 C   0  0  0  0  0  0  0  0  0  0  0  0
  -31.5360  -20.7820   22.3000 C   0  0  0  0  0  0  0  0  0  0  0  0
  -31.0150  -23.3170   22.1180 C   0  0  0  0  0  2  0  0  0  0  0  0
  -28.9170  -22.2840   20.1180 C   0  0  1  0  0  0  0  0  0  0  0  0
  -29.7640  -24.1820   21.8310 C   0  0  1  0  0  0  0  0  0  0  0  0
  -29.2190  -23.9210   20.3460 C   0  0  1  0  0  0  0  0  0  0  0  0
  -32.6570  -20.7970   23.2980 C   0  0  0  0  0  1  0  0  0  0  0  0
  -28.9970  -21.8970   18.6200 C   0  0  0  0  0  1  0  0  0  0  0  0
  -27.4620  -21.9410   20.5190 C   0  0  0  0  0  1  0  0  0  0  0  0
  -28.7240  -23.8550   22.9350 C   0  0  0  0  0  1  0  0  0  0  0  0
  -30.1840  -25.6490   22.1150 C   0  0  0  0  0  1  0  0  0  0  0  0
  -30.3260  -24.3320   19.3290 C   0  0  0  0  0  1  0  0  0  0  0  0
  -31.1130  -19.6410   21.8190 N   0  0  0  0  0  0  0  0  0  0  0  0
  -30.1040  -19.8990   20.9500 N   0  0  0  0  0  0  0  0  0  0  0  0
  -28.0220  -24.9680   19.9980 C   0  0  0  0  0  2  0  0  0  0  0  0
  -28.2420  -26.4530   20.0290 O   0  0  0  0  0  0  0  0  0  0  0  0
  -24.5250  -31.8030   23.1900 C   0  0  0  0  0  0  0  0  0  0  0  0
  -27.1290  -27.3180   20.0040 C   0  0  0  0  0  0  0  0  0  0  0  0
  -23.3200  -30.4560   21.5090 C   0  0  0  0  0  3  0  0  0  0  0  0
  -24.7690  -28.9490   20.0330 C   0  0  0  0  0  0  0  0  0  0  0  0
  -25.8600  -30.7750   21.3340 C   0  0  0  0  0  2  0  0  0  0  0  0
  -25.9400  -29.4150   20.6440 C   0  0  0  0  0  0  0  0  0  0  0  0
  -27.1230  -28.6140   20.6140 C   0  0  0  0  0  3  0  0  0  0  0  0
  -25.9320  -26.9100   19.3700 C   0  0  0  0  0  3  0  0  0  0  0  0
  -24.7700  -27.7040   19.3840 C   0  0  0  0  0  3  0  0  0  0  0  0
  -23.5330  -29.8240   20.1070 C   0  0  0  0  0  2  0  0  0  0  0  0
  -24.5870  -31.0280   22.0670 N   0  0  0  0  0  0  0  0  0  0  0  0
  -23.4420  -32.0650   23.7330 O   0  0  0  0  0  0  0  0  0  0  0  0
  -22.6560  -29.4120   22.4380 C   0  0  0  0  0  0  0  0  0  0  0  0
  -21.3350  -29.2180   22.2860 N   0  0  0  0  0  0  0  0  0  0  0  0
  -23.3300  -28.7790   23.2560 O   0  0  0  0  0  0  0  0  0  0  0  0
  -20.8500  -29.7810   21.6010 H   0  0  0  0  0  0  0  0  0  0  0  0
  -17.9700  -27.9550   22.6970 C   0  0  0  0  0  0  0  0  0  0  0  0
  -20.5170  -28.2550   23.0250 C   0  0  0  0  0  3  0  0  0  0  0  0
  -20.6560  -26.8350   22.4280 C   0  0  0  0  0  2  0  0  0  0  0  0
  -19.5820  -26.5100   21.3860 C   0  0  0  0  0  2  0  0  0  0  0  0
  -18.1850  -26.6200   22.0030 C   0  0  0  0  0  2  0  0  0  0  0  0
  -19.0650  -28.7290   23.1620 C   0  0  0  0  0  0  0  0  0  0  0  0
  -18.8110  -29.9780   23.7700 C   0  0  0  0  0  3  0  0  0  0  0  0
  -17.4950  -30.4530   23.9170 C   0  0  0  0  0  3  0  0  0  0  0  0
  -16.4130  -29.6760   23.4680 C   0  0  0  0  0  3  0  0  0  0  0  0
  -16.6520  -28.4290   22.8640 C   0  0  0  0  0  3  0  0  0  0  0  0
  -25.8070  -32.4150   23.8310 C   0  0  0  0  0  3  0  0  0  0  0  0
  -26.3040  -31.6260   25.1050 C   0  0  1  0  0  0  0  0  0  0  0  0
  -25.1970  -31.3860   26.1580 C   0  0  0  0  0  1  0  0  0  0  0  0
  -26.8790  -30.2480   24.7040 C   0  0  0  0  0  1  0  0  0  0  0  0
  -27.4540  -32.4020   25.7880 C   0  0  0  0  0  1  0  0  0  0  0  0
  -25.5090  -33.8130   24.1750 N   0  0  0  0  0  0  0  0  0  0  0  0
  -25.8340  -34.8710   23.4210 C   0  0  0  0  0  0  0  0  0  0  0  0
  -26.4890  -34.7730   22.3800 O   0  0  0  0  0  0  0  0  0  0  0  0
  -24.9260  -33.9630   24.9860 H   0  0  0  0  0  0  0  0  0  0  0  0
  -24.1060  -36.6740   23.1120 C   0  0  0  0  0  1  0  0  0  0  0  0
  -25.3610  -36.2580   23.8970 C   0  0  0  0  0  3  0  0  0  0  0  0
  -27.5070  -37.1380   24.7030 C   0  0  0  0  0  1  0  0  0  0  0  0
  -26.3940  -37.3090   23.7720 N   0  0  0  0  0  0  0  0  0  0  0  0
  -25.9930  -38.2300   23.9230 H   0  0  0  0  0  0  0  0  0  0  0  0
  -29.5070  -18.6260   20.3600 C   0  0  0  0  0  3  0  0  0  0  0  0
  -30.3670  -17.2600   20.6020 C   0  0  0  0  0  3  0  0  0  0  0  0
  -30.5430  -14.7320   20.0610 C   0  0  0  0  0  0  0  0  0  0  0  0
  -30.2750  -12.4890   19.0060 C   0  0  0  0  0  2  0  0  0  0  0  0
  -29.2730  -12.5840   17.8360 C   0  0  0  0  0  2  0  0  0  0  0  0
  -27.8290  -12.4030   18.3410 C   0  0  0  0  0  2  0  0  0  0  0  0
  -27.5180  -13.2710   19.5900 C   0  0  0  0  0  3  0  0  0  0  0  0
  -28.6340  -13.1670   20.6520 C   0  0  0  0  0  2  0  0  0  0  0  0
  -29.8970  -13.5230   19.9940 N   0  0  0  0  0  0  0  0  0  0  0  0
  -31.7080  -14.8370   19.6710 O   0  0  0  0  0  0  0  0  0  0  0  0
  -29.8160  -15.8580   20.3910 N   0  0  0  0  0  0  0  0  0  0  0  0
  -28.8480  -15.7080   20.6330 H   0  0  0  0  0  0  0  0  0  0  0  0
  -25.1680  -13.8380   20.4530 C   0  0  0  0  0  0  0  0  0  0  0  0
  -24.1280  -13.0510   20.8680 C   0  0  0  0  0  0  0  0  0  0  0  0
  -24.5970  -11.7030   20.7920 C   0  0  0  0  0  0  0  0  0  0  0  0
  -26.2030  -12.9690   20.1480 N   0  0  0  0  0  0  0  0  0  0  0  0
  -25.8700  -11.6790   20.4150 N   0  0  0  0  0  0  0  0  0  0  0  0
  -23.8890  -10.4330   21.0000 C   0  0  0  0  0  0  0  0  0  0  0  0
  -24.3680   -9.4590   21.9040 C   0  0  0  0  0  3  0  0  0  0  0  0
  -23.6590   -8.2550   22.1010 C   0  0  0  0  0  3  0  0  0  0  0  0
  -22.4560   -8.0160   21.3930 C   0  0  0  0  0  0  0  0  0  0  0  0
  -21.9960   -8.9780   20.4770 C   0  0  0  0  0  3  0  0  0  0  0  0
  -22.7060  -10.1740   20.2780 C   0  0  0  0  0  3  0  0  0  0  0  0
  -21.7140   -6.8650   21.5010 O   0  0  0  0  0  0  0  0  0  0  0  0
  -21.7120   -6.1140   22.6510 C   0  0  0  0  0  0  0  0  0  0  0  0
  -21.2760   -6.6440   23.8850 C   0  0  0  0  0  3  0  0  0  0  0  0
  -21.2250   -5.8190   25.0260 C   0  0  0  0  0  3  0  0  0  0  0  0
  -21.5970   -4.4650   24.9330 C   0  0  0  0  0  0  0  0  0  0  0  0
  -22.0240   -3.9340   23.7030 C   0  0  0  0  0  3  0  0  0  0  0  0
  -22.0780   -4.7560   22.5650 C   0  0  0  0  0  0  0  0  0  0  0  0
  -22.4700   -4.2350   21.3780 F   0  0  0  0  0  0  0  0  0  0  0  0
  -21.5400   -3.6690   26.0270 F   0  0  0  0  0  0  0  0  0  0  0  0
  -22.7440  -13.5150   21.2170 C   0  0  0  0  0  0  0  0  0  0  0  0
  -22.0670  -12.8040   22.1120 N   0  0  0  0  0  0  0  0  0  0  0  0
  -22.2730  -14.5430   20.7320 O   0  0  0  0  0  0  0  0  0  0  0  0
  -22.4610  -11.9720   22.5250 H   0  0  0  0  0  0  0  0  0  0  0  0
  -21.1400  -13.0970   22.3870 H   0  0  0  0  0  0  0  0  0  0  0  0
  -25.3140  -15.2110   20.2860 N   0  0  0  0  0  0  0  0  0  0  0  0
  -24.5440  -15.8550   20.4360 H   0  0  0  0  0  0  0  0  0  0  0  0
  -26.1290  -15.6590   19.8860 H   0  0  0  0  0  0  0  0  0  0  0  0
  1  4  1  0
  1  3  1  0
  2 15  1  0
  2  1  2  0
  3  8  1  0
  5  7  1  0
  5 10  1  1
  5  2  1  0
  6 12  1  6
  6  4  1  0
  6 11  1  0
  7 13  1  6
  7  6  1  0
  9  5  1  0
 14  3  2  0
 15 14  1  0
 16 17  1  0
 16  7  1  0
 18 29  2  0
 19 17  1  0
 19 24  1  0
 20 28  1  0
 20 30  1  0
 21 27  1  0
 21 23  1  0
 22 28  1  0
 23 22  1  0
 24 23  2  0
 25 26  1  0
 25 19  2  0
 26 21  2  0
 27 20  1  0
 28 18  1  0
 30 32  2  0
 31 30  1  0
 33 31  1  0
 34 43  2  0
 34 39  1  0
 35 31  1  0
 35 39  1  0
 36 35  1  0
 37 38  1  0
 37 36  1  0
 38 34  1  0
 39 40  2  0
 40 41  1  0
 42 41  2  0
 43 42  1  0
 44 18  1  0
 44 49  1  0
 44 45  1  0
 45 48  1  1
 45 46  1  0
 47 45  1  0
 49 52  1  0
 50 54  1  0
 50 49  1  0
 51 50  2  0
 54 53  1  0
 56 54  1  0
 56 57  1  0
 56 55  1  0
 58 59  2  0
 58 15  1  0
 60 68  1  0
 61 66  1  0
 62 63  1  0
 62 61  1  0
 64 63  1  0
 64 73  1  0
 64 65  1  0
 66 60  1  0
 66 65  1  0
 67 60  2  0
 68 59  1  0
 68 69  1  0
 70 71  2  0
 71 90  1  0
 72 71  1  0
 72 75  1  0
 73 74  1  0
 73 70  1  0
 74 72  2  0
 75 76  1  0
 76 77  2  0
 78 81  1  0
 78 77  1  0
 79 78  2  0
 80 79  1  0
 80 75  2  0
 81 82  1  0
 82 83  1  0
 83 84  2  0
 85 84  1  0
 85 89  1  0
 86 85  2  0
 87 82  2  0
 87 86  1  0
 88 87  1  0
 90 91  1  0
 91 94  1  0
 91 93  1  0
 92 90  2  0
 95 96  1  0
 95 70  1  0
 97 95  1  0
M  ISO  4  16 101  17 101  60 100  68 100
M  END
>  <TORSDO>  (24) 
F 19

>  <SCORE>  (24) 
-13.839

>  <name>  (24) 
24

>  <ligand_id>  (24) 
24

>  <original_smiles>  (24) 
[H]c1c([H])c([H])c2c(c1[H])C([H])([H])C([H])([H])C([H])([H])C2([H])N([H])C(=O)C1([H])N(C(=O)C([H])(N([H])C(=O)C([H])(N([H])C([H])([H])[H])C([H])([H])[H])C(C([H])([H])[H])(C([H])([H])[H])C([H])([H])[H])C([H])([H])c2c([H])c(OC([H])([H])C3(C([H])([H])[H])C(C([H])([H])[H])(C([H])([H])[H])c4c(c(C([H])([H])[H])nn4C([H])([H])C([H])([H])N([H])C(=O)N4C([H])([H])C([H])([H])C([H])([H])C([H])(n5nc(-c6c([H])c([H])c(Oc7c([H])c([H])c(F)c([H])c7F)c([H])c6[H])c(C(=O)N([H])[H])c5N([H])[H])C4([H])[H])C([H])([H])C3(C([H])([H])[H])C([H])([H])[H])c([H])c([H])c2C1([H])[H]

>  <smiles>  (24) 
[H]c1c([H])c([H])c2c(c1[H])C([H])([H])C([H])([H])C([H])([H])C2([H])N([H])C(=O)C1([H])N(C(=O)C([H])(N([H])C(=O)C([H])(N([H])C([H])([H])[H])C([H])([H])[H])C(C([H])([H])[H])(C([H])([H])[H])C([H])([H])[H])C([H])([H])c2c([H])c(OC([H])([H])C3(C([H])([H])[H])C(C([H])([H])[H])(C([H])([H])[H])c4c(c(C([H])([H])[H])nn4C([H])([H])C([H])([H])N([H])C(=O)N4C([H])([H])C([H])([H])C([H])([H])C([H])(n5nc(-c6c([H])c([H])c(Oc7c([H])c([H])c(F)c([H])c7F)c([H])c6[H])c(C(=O)N([H])[H])c5N([H])[H])C4([H])[H])C([H])([H])C3(C([H])([H])[H])C([H])([H])[H])c([H])c([H])c2C1([H])[H]

$$$$
25:0:0
     RDKit          3D

 98106  0  0  1  0  0  0  0  0999 V2000
  -30.9840  -20.7190   16.2430 N   0  0  0  0  0  4  0  0  0  0  0  0
  -31.9480  -20.9010   16.4700 H   0  0  0  0  0  0  0  0  0  0  0  0
  -30.4360  -20.9320   17.0580 H   0  0  0  0  0  0  0  0  0  0  0  0
  -30.8180  -19.2820   15.9610 C   0  0  0  0  0  2  0  0  0  0  0  0
  -31.5810  -17.0340   18.9890 C   0  0  0  0  0  3  0  0  0  0  0  0
  -31.7650  -17.8920   17.8880 C   0  0  0  0  0  0  0  0  0  0  0  0
  -30.6410  -18.4800   17.2540 C   0  0  0  0  0  0  0  0  0  0  0  0
  -29.3500  -18.2800   17.8190 C   0  0  0  0  0  0  0  0  0  0  0  0
  -30.2890  -16.7020   19.4640 C   0  0  0  0  0  0  0  0  0  0  0  0
  -29.1900  -17.3980   18.9180 C   0  0  0  0  0  0  0  0  0  0  0  0
  -33.1840  -18.1170   17.3850 C   0  0  0  0  0  1  0  0  0  0  0  0
  -28.1110  -18.9610   17.2370 C   0  0  0  0  0  1  0  0  0  0  0  0
  -27.6250  -17.1340   19.5900 Cl  0  0  0  0  0  0  0  0  0  0  0  0
  -30.7410  -14.5210   20.4890 C   0  0  0  0  0  0  0  0  0  0  0  0
  -30.3890  -12.3350   19.4800 C   0  0  0  0  0  2  0  0  0  0  0  0
  -29.4860  -12.5360   18.2490 C   0  0  0  0  0  2  0  0  0  0  0  0
  -28.0070  -12.4060   18.6530 C   0  0  0  0  0  2  0  0  0  0  0  0
  -27.6380  -13.2770   19.8840 C   0  0  0  0  0  3  0  0  0  0  0  0
  -28.6820  -13.1480   21.0190 C   0  0  0  0  0  2  0  0  0  0  0  0
  -30.0170  -13.3740   20.4490 N   0  0  0  0  0  0  0  0  0  0  0  0
  -31.9550  -14.5310   20.3040 O   0  0  0  0  0  0  0  0  0  0  0  0
  -30.0360  -15.6640   20.4270 N   0  0  0  0  0  0  0  0  0  0  0  0
  -29.0630  -15.5670   20.6710 H   0  0  0  0  0  0  0  0  0  0  0  0
  -25.2270  -13.8670   20.5690 C   0  0  0  0  0  0  0  0  0  0  0  0
  -24.1570  -13.0920   20.9150 C   0  0  0  0  0  0  0  0  0  0  0  0
  -24.6280  -11.7440   20.8940 C   0  0  0  0  0  0  0  0  0  0  0  0
  -26.2820  -12.9950   20.3520 N   0  0  0  0  0  0  0  0  0  0  0  0
  -25.9240  -11.7110   20.6110 N   0  0  0  0  0  0  0  0  0  0  0  0
  -23.9010  -10.4830   21.0710 C   0  0  0  0  0  0  0  0  0  0  0  0
  -24.3180   -9.5170   22.0130 C   0  0  0  0  0  3  0  0  0  0  0  0
  -23.5910   -8.3190   22.1790 C   0  0  0  0  0  3  0  0  0  0  0  0
  -22.4330   -8.0790   21.4010 C   0  0  0  0  0  0  0  0  0  0  0  0
  -22.0360   -9.0340   20.4490 C   0  0  0  0  0  3  0  0  0  0  0  0
  -22.7640  -10.2240   20.2820 C   0  0  0  0  0  3  0  0  0  0  0  0
  -21.6790   -6.9330   21.4760 O   0  0  0  0  0  0  0  0  0  0  0  0
  -21.6110   -6.1910   22.6280 C   0  0  0  0  0  0  0  0  0  0  0  0
  -21.1520   -6.7420   23.8440 C   0  0  0  0  0  3  0  0  0  0  0  0
  -21.0340   -5.9250   24.9850 C   0  0  0  0  0  3  0  0  0  0  0  0
  -21.3640   -4.5590   24.9120 C   0  0  0  0  0  0  0  0  0  0  0  0
  -21.8150   -4.0070   23.7000 C   0  0  0  0  0  3  0  0  0  0  0  0
  -21.9360   -4.8210   22.5600 C   0  0  0  0  0  0  0  0  0  0  0  0
  -22.3520   -4.2810   21.3900 F   0  0  0  0  0  0  0  0  0  0  0  0
  -21.2410   -3.7710   26.0060 F   0  0  0  0  0  0  0  0  0  0  0  0
  -22.7560  -13.5690   21.1590 C   0  0  0  0  0  0  0  0  0  0  0  0
  -22.0090  -12.8680   22.0050 N   0  0  0  0  0  0  0  0  0  0  0  0
  -22.3300  -14.5980   20.6370 O   0  0  0  0  0  0  0  0  0  0  0  0
  -22.3660  -12.0340   22.4480 H   0  0  0  0  0  0  0  0  0  0  0  0
  -21.0690  -13.1700   22.2130 H   0  0  0  0  0  0  0  0  0  0  0  0
  -25.3670  -15.2350   20.4040 N   0  0  0  0  0  0  0  0  0  0  0  0
  -24.5810  -15.8670   20.5000 H   0  0  0  0  0  0  0  0  0  0  0  0
  -26.2100  -15.7080   20.0920 H   0  0  0  0  0  0  0  0  0  0  0  0
  -30.5540  -21.6070   15.1420 C   0  0  0  0  0  2  0  0  0  0  0  0
  -30.5730  -23.0890   15.5570 C   0  0  0  0  0  2  0  0  0  0  0  0
  -29.6910  -23.3880   16.7820 C   0  0  0  0  0  2  0  0  0  0  0  0
  -29.6740  -24.8760   17.1490 C   0  0  0  0  0  2  0  0  0  0  0  0
  -28.9720  -25.1300   18.4900 C   0  0  0  0  0  2  0  0  0  0  0  0
  -28.9830  -26.6120   18.8780 C   0  0  0  0  0  2  0  0  0  0  0  0
  -28.4040  -26.7800   20.1660 O   0  0  0  0  0  0  0  0  0  0  0  0
  -24.5510  -31.8780   23.2460 C   0  0  0  0  0  0  0  0  0  0  0  0
  -27.2180  -27.4650   20.1780 C   0  0  0  0  0  0  0  0  0  0  0  0
  -23.3490  -30.4690   21.6020 C   0  0  0  0  0  3  0  0  0  0  0  0
  -24.8100  -28.9280   20.1900 C   0  0  0  0  0  0  0  0  0  0  0  0
  -25.8710  -30.8370   21.4110 C   0  0  0  0  0  2  0  0  0  0  0  0
  -25.9590  -29.4630   20.7850 C   0  0  0  0  0  0  0  0  0  0  0  0
  -27.1630  -28.7300   20.7930 C   0  0  0  0  0  3  0  0  0  0  0  0
  -26.0560  -26.9250   19.5900 C   0  0  0  0  0  3  0  0  0  0  0  0
  -24.8490  -27.6520   19.5960 C   0  0  0  0  0  3  0  0  0  0  0  0
  -23.5640  -29.7820   20.2260 C   0  0  0  0  0  2  0  0  0  0  0  0
  -24.6080  -31.0760   22.1450 N   0  0  0  0  0  0  0  0  0  0  0  0
  -23.4690  -32.1520   23.7820 O   0  0  0  0  0  0  0  0  0  0  0  0
  -22.6980  -29.4520   22.5630 C   0  0  0  0  0  0  0  0  0  0  0  0
  -21.3730  -29.2780   22.4390 N   0  0  0  0  0  0  0  0  0  0  0  0
  -23.3800  -28.8210   23.3760 O   0  0  0  0  0  0  0  0  0  0  0  0
  -20.8840  -29.8380   21.7540 H   0  0  0  0  0  0  0  0  0  0  0  0
  -17.9900  -28.1230   22.9510 C   0  0  0  0  0  0  0  0  0  0  0  0
  -20.5510  -28.3460   23.2090 C   0  0  0  0  0  3  0  0  0  0  0  0
  -20.6320  -26.9160   22.6230 C   0  0  0  0  0  2  0  0  0  0  0  0
  -19.5190  -26.6150   21.6140 C   0  0  0  0  0  2  0  0  0  0  0  0
  -18.1440  -26.7750   22.2670 C   0  0  0  0  0  2  0  0  0  0  0  0
  -19.1200  -28.8670   23.3790 C   0  0  0  0  0  0  0  0  0  0  0  0
  -18.9220  -30.1300   23.9770 C   0  0  0  0  0  3  0  0  0  0  0  0
  -17.6260  -30.6490   24.1520 C   0  0  0  0  0  3  0  0  0  0  0  0
  -16.5090  -29.9010   23.7410 C   0  0  0  0  0  3  0  0  0  0  0  0
  -16.6920  -28.6390   23.1470 C   0  0  0  0  0  3  0  0  0  0  0  0
  -25.8380  -32.5080   23.8680 C   0  0  0  0  0  3  0  0  0  0  0  0
  -25.5370  -33.9130   24.1740 N   0  0  0  0  0  0  0  0  0  0  0  0
  -25.8840  -34.9500   23.4000 C   0  0  0  0  0  0  0  0  0  0  0  0
  -26.5610  -34.8250   22.3760 O   0  0  0  0  0  0  0  0  0  0  0  0
  -24.9370  -34.0850   24.9670 H   0  0  0  0  0  0  0  0  0  0  0  0
  -24.1730  -36.7480   22.9940 C   0  0  0  0  0  1  0  0  0  0  0  0
  -25.4000  -36.3470   23.8290 C   0  0  0  0  0  3  0  0  0  0  0  0
  -27.5280  -37.2280   24.6790 C   0  0  0  0  0  1  0  0  0  0  0  0
  -26.4420  -37.3910   23.7160 N   0  0  0  0  0  0  0  0  0  0  0  0
  -26.0410  -38.3160   23.8440 H   0  0  0  0  0  0  0  0  0  0  0  0
  -26.3430  -31.7500   25.1570 C   0  0  1  0  0  0  0  0  0  0  0  0
  -25.2420  -31.5310   26.2200 C   0  0  0  0  0  1  0  0  0  0  0  0
  -26.9200  -30.3650   24.7820 C   0  0  0  0  0  1  0  0  0  0  0  0
  -27.4940  -32.5460   25.8150 C   0  0  0  0  0  1  0  0  0  0  0  0
  1  2  1  0
  1  3  1  0
  4  1  1  0
  4  7  1  0
  5  9  1  0
  6  5  2  0
  7  8  2  0
  7  6  1  0
  8 10  1  0
  9 22  1  0
 10  9  2  0
 10 13  1  0
 11  6  1  0
 12  8  1  0
 15 20  1  0
 16 17  1  0
 16 15  1  0
 18 17  1  0
 18 27  1  0
 18 19  1  0
 20 14  1  0
 20 19  1  0
 21 14  2  0
 22 14  1  0
 22 23  1  0
 24 25  2  0
 25 44  1  0
 26 25  1  0
 26 29  1  0
 27 24  1  0
 27 28  1  0
 28 26  2  0
 29 30  1  0
 30 31  2  0
 32 35  1  0
 32 31  1  0
 33 32  2  0
 34 33  1  0
 34 29  2  0
 35 36  1  0
 36 37  1  0
 37 38  2  0
 39 38  1  0
 39 43  1  0
 40 39  2  0
 41 36  2  0
 41 40  1  0
 42 41  1  0
 44 45  1  0
 45 48  1  0
 45 47  1  0
 46 44  2  0
 49 50  1  0
 49 24  1  0
 51 49  1  0
 52 53  1  0
 52  1  1  0
 53 54  1  0
 54 55  1  0
 55 56  1  0
 56 57  1  0
 57 58  1  0
 58 60  1  0
 59 70  2  0
 60 65  1  0
 61 69  1  0
 61 71  1  0
 62 68  1  0
 62 64  1  0
 63 69  1  0
 64 65  2  0
 64 63  1  0
 66 67  1  0
 66 60  2  0
 67 62  2  0
 68 61  1  0
 69 59  1  0
 71 73  2  0
 72 71  1  0
 74 72  1  0
 75 84  2  0
 75 80  1  0
 76 72  1  0
 76 80  1  0
 77 76  1  0
 78 79  1  0
 78 77  1  0
 79 75  1  0
 80 81  2  0
 81 82  1  0
 83 82  2  0
 84 83  1  0
 85 59  1  0
 85 86  1  0
 85 95  1  0
 86 89  1  0
 87 91  1  0
 87 86  1  0
 88 87  2  0
 91 90  1  0
 93 91  1  0
 93 94  1  0
 93 92  1  0
 95 98  1  1
 95 96  1  0
 97 95  1  0
M  ISO  4  14 100  22 100  57 101  58 101
M  END
>  <TORSDO>  (25) 
F 24

>  <SCORE>  (25) 
-12.693

>  <name>  (25) 
25

>  <ligand_id>  (25) 
25

>  <original_smiles>  (25) 
[H]c1c([H])c([H])c2c(c1[H])C([H])([H])C([H])([H])C([H])([H])C2([H])N([H])C(=O)C1([H])N(C(=O)C([H])(N([H])C(=O)C([H])(N([H])C([H])([H])[H])C([H])([H])[H])C(C([H])([H])[H])(C([H])([H])[H])C([H])([H])[H])C([H])([H])c2c([H])c(OC([H])([H])C([H])([H])C([H])([H])C([H])([H])C([H])([H])C([H])([H])[N+]([H])([H])C([H])([H])c3c(C([H])([H])[H])c([H])c(N([H])C(=O)N4C([H])([H])C([H])([H])C([H])([H])C([H])(n5nc(-c6c([H])c([H])c(Oc7c([H])c([H])c(F)c([H])c7F)c([H])c6[H])c(C(=O)N([H])[H])c5N([H])[H])C4([H])[H])c(Cl)c3C([H])([H])[H])c([H])c([H])c2C1([H])[H]

>  <smiles>  (25) 
[H]c1c([H])c([H])c2c(c1[H])C([H])([H])C([H])([H])C([H])([H])C2([H])N([H])C(=O)C1([H])N(C(=O)C([H])(N([H])C(=O)C([H])(N([H])C([H])([H])[H])C([H])([H])[H])C(C([H])([H])[H])(C([H])([H])[H])C([H])([H])[H])C([H])([H])c2c([H])c(OC([H])([H])C([H])([H])C([H])([H])C([H])([H])C([H])([H])C([H])([H])[N+]([H])([H])C([H])([H])c3c(C([H])([H])[H])c([H])c(N([H])C(=O)N4C([H])([H])C([H])([H])C([H])([H])C([H])(n5nc(-c6c([H])c([H])c(Oc7c([H])c([H])c(F)c([H])c7F)c([H])c6[H])c(C(=O)N([H])[H])c5N([H])[H])C4([H])[H])c(Cl)c3C([H])([H])[H])c([H])c([H])c2C1([H])[H]

$$$$
26:0:0
     RDKit          3D

 98106  0  0  1  0  0  0  0  0999 V2000
  -27.9220  -20.6280   21.0150 C   0  0  0  0  0  2  0  0  0  0  0  0
  -27.3470  -19.3570   20.3480 C   0  0  0  0  0  2  0  0  0  0  0  0
  -29.0670  -18.1360   18.8700 C   0  0  0  0  0  0  0  0  0  0  0  0
  -30.7320  -16.7720   20.0130 C   0  0  0  0  0  0  0  0  0  0  0  0
  -30.2220  -17.3220   18.8190 C   0  0  0  0  0  0  0  0  0  0  0  0
  -28.4590  -18.3370   20.1320 C   0  0  0  0  0  0  0  0  0  0  0  0
  -30.0400  -17.0250   21.2140 C   0  0  0  0  0  0  0  0  0  0  0  0
  -28.5330  -18.8040   17.6000 C   0  0  0  0  0  1  0  0  0  0  0  0
  -28.9260  -17.7780   21.2650 N   0  0  0  0  0  0  0  0  0  0  0  0
  -31.0440  -17.0450   17.3180 Cl  0  0  0  0  0  0  0  0  0  0  0  0
  -30.6810  -16.4640   22.7180 Cl  0  0  0  0  0  0  0  0  0  0  0  0
  -32.6810  -15.1660   20.4190 C   0  0  0  0  0  0  0  0  0  0  0  0
  -32.6190  -12.7320   20.7590 C   0  0  0  0  0  2  0  0  0  0  0  0
  -31.9490  -12.0530   19.5510 C   0  0  0  0  0  2  0  0  0  0  0  0
  -30.4250  -11.9750   19.7560 C   0  0  0  0  0  2  0  0  0  0  0  0
  -29.8070  -13.3180   20.2220 C   0  0  0  0  0  3  0  0  0  0  0  0
  -30.6270  -13.9500   21.3670 C   0  0  0  0  0  2  0  0  0  0  0  0
  -32.0150  -14.0720   20.8990 N   0  0  0  0  0  0  0  0  0  0  0  0
  -33.8760  -15.1250   20.1380 O   0  0  0  0  0  0  0  0  0  0  0  0
  -32.0680  -16.3020   20.0530 N   0  0  0  0  0  0  0  0  0  0  0  0
  -32.7140  -16.9280   19.5910 H   0  0  0  0  0  0  0  0  0  0  0  0
  -27.4060  -14.1070   20.6810 C   0  0  0  0  0  0  0  0  0  0  0  0
  -26.2540  -13.4250   20.9630 C   0  0  0  0  0  0  0  0  0  0  0  0
  -26.6120  -12.0450   20.9870 C   0  0  0  0  0  0  0  0  0  0  0  0
  -28.4000  -13.1490   20.5730 N   0  0  0  0  0  0  0  0  0  0  0  0
  -27.9190  -11.9020   20.8050 N   0  0  0  0  0  0  0  0  0  0  0  0
  -25.7720  -10.8480   21.1170 C   0  0  0  0  0  0  0  0  0  0  0  0
  -25.8200  -10.0390   22.2740 C   0  0  0  0  0  3  0  0  0  0  0  0
  -24.9960   -8.8990   22.3880 C   0  0  0  0  0  3  0  0  0  0  0  0
  -24.1070   -8.5630   21.3400 C   0  0  0  0  0  0  0  0  0  0  0  0
  -24.0750   -9.3590   20.1810 C   0  0  0  0  0  3  0  0  0  0  0  0
  -24.9010  -10.4900   20.0680 C   0  0  0  0  0  3  0  0  0  0  0  0
  -23.2840   -7.4630   21.3550 O   0  0  0  0  0  0  0  0  0  0  0  0
  -22.5800   -7.1050   22.4750 C   0  0  0  0  0  0  0  0  0  0  0  0
  -21.7190   -8.0100   23.1350 C   0  0  0  0  0  3  0  0  0  0  0  0
  -20.9580   -7.5780   24.2410 C   0  0  0  0  0  3  0  0  0  0  0  0
  -21.0520   -6.2450   24.6840 C   0  0  0  0  0  0  0  0  0  0  0  0
  -21.9060   -5.3420   24.0260 C   0  0  0  0  0  3  0  0  0  0  0  0
  -22.6640   -5.7710   22.9220 C   0  0  0  0  0  0  0  0  0  0  0  0
  -23.4690   -4.8910   22.2810 F   0  0  0  0  0  0  0  0  0  0  0  0
  -20.3160   -5.8300   25.7400 F   0  0  0  0  0  0  0  0  0  0  0  0
  -24.8820  -14.0140   21.0920 C   0  0  0  0  0  0  0  0  0  0  0  0
  -24.0370  -13.4270   21.9300 N   0  0  0  0  0  0  0  0  0  0  0  0
  -24.5650  -15.0360   20.4830 O   0  0  0  0  0  0  0  0  0  0  0  0
  -24.3000  -12.6020   22.4480 H   0  0  0  0  0  0  0  0  0  0  0  0
  -23.1140  -13.8190   22.0620 H   0  0  0  0  0  0  0  0  0  0  0  0
  -27.6690  -15.4550   20.4830 N   0  0  0  0  0  0  0  0  0  0  0  0
  -26.9030  -16.1170   20.4790 H   0  0  0  0  0  0  0  0  0  0  0  0
  -28.5090  -15.8210   20.0610 H   0  0  0  0  0  0  0  0  0  0  0  0
  -27.3850  -21.9590   20.4620 C   0  0  0  0  0  2  0  0  0  0  0  0
  -27.9970  -24.3410   20.5750 C   0  0  0  0  0  1  0  0  0  0  0  0
  -28.4790  -22.9620   20.3080 N   0  0  2  0  0  4  0  0  0  0  0  0
  -29.1480  -22.7500   21.0320 H   0  0  0  0  0  0  0  0  0  0  0  0
  -29.1790  -22.8400   18.9950 C   0  0  0  0  0  2  0  0  0  0  0  0
  -30.4720  -23.6880   18.8630 C   0  0  0  0  0  2  0  0  0  0  0  0
  -30.6050  -24.2920   17.4480 C   0  0  0  0  0  2  0  0  0  0  0  0
  -31.3180  -25.6640   17.3900 C   0  0  0  0  0  2  0  0  0  0  0  0
  -30.7630  -26.4830   16.3570 O   0  0  0  0  0  0  0  0  0  0  0  0
  -25.5790  -28.0520   20.9840 C   0  0  0  0  0  0  0  0  0  0  0  0
  -29.4570  -26.8610   16.5590 C   0  0  0  0  0  0  0  0  0  0  0  0
  -24.8800  -27.7920   18.6270 C   0  0  0  0  0  3  0  0  0  0  0  0
  -26.7760  -27.6650   16.9190 C   0  0  0  0  0  0  0  0  0  0  0  0
  -27.2520  -28.5460   19.2090 C   0  0  0  0  0  2  0  0  0  0  0  0
  -27.7160  -27.8790   17.9360 C   0  0  0  0  0  0  0  0  0  0  0  0
  -29.0560  -27.4770   17.7630 C   0  0  0  0  0  3  0  0  0  0  0  0
  -28.5090  -26.6680   15.5350 C   0  0  0  0  0  3  0  0  0  0  0  0
  -27.1670  -27.0550   15.7160 C   0  0  0  0  0  3  0  0  0  0  0  0
  -25.3620  -28.1250   17.1860 C   0  0  0  0  0  2  0  0  0  0  0  0
  -25.9120  -28.1100   19.6650 N   0  0  0  0  0  0  0  0  0  0  0  0
  -24.4240  -27.7800   21.3390 O   0  0  0  0  0  0  0  0  0  0  0  0
  -24.4190  -26.3160   18.6600 C   0  0  0  0  0  0  0  0  0  0  0  0
  -23.2610  -26.0440   18.0400 N   0  0  0  0  0  0  0  0  0  0  0  0
  -25.1130  -25.4480   19.1980 O   0  0  0  0  0  0  0  0  0  0  0  0
  -22.7380  -26.8130   17.6470 H   0  0  0  0  0  0  0  0  0  0  0  0
  -20.4850  -24.2570   16.5660 C   0  0  0  0  0  0  0  0  0  0  0  0
  -22.6660  -24.7210   17.8710 C   0  0  0  0  0  3  0  0  0  0  0  0
  -23.3930  -23.9260   16.7560 C   0  0  0  0  0  2  0  0  0  0  0  0
  -22.7080  -24.0130   15.3870 C   0  0  0  0  0  2  0  0  0  0  0  0
  -21.2570  -23.5370   15.4710 C   0  0  0  0  0  2  0  0  0  0  0  0
  -21.1450  -24.8170   17.6920 C   0  0  0  0  0  0  0  0  0  0  0  0
  -20.3820  -25.4860   18.6730 C   0  0  0  0  0  3  0  0  0  0  0  0
  -18.9850  -25.6100   18.5340 C   0  0  0  0  0  3  0  0  0  0  0  0
  -18.3330  -25.0480   17.4190 C   0  0  0  0  0  3  0  0  0  0  0  0
  -19.0830  -24.3680   16.4440 C   0  0  0  0  0  3  0  0  0  0  0  0
  -26.6250  -28.3410   22.1070 C   0  0  0  0  0  3  0  0  0  0  0  0
  -25.9110  -28.9800   23.2190 N   0  0  0  0  0  0  0  0  0  0  0  0
  -25.9840  -30.2840   23.5180 C   0  0  0  0  0  0  0  0  0  0  0  0
  -26.7250  -31.0720   22.9230 O   0  0  0  0  0  0  0  0  0  0  0  0
  -25.2510  -28.4100   23.7260 H   0  0  0  0  0  0  0  0  0  0  0  0
  -23.8620  -31.5080   24.0770 C   0  0  0  0  0  1  0  0  0  0  0  0
  -25.0910  -30.7960   24.6650 C   0  0  0  0  0  3  0  0  0  0  0  0
  -26.8130  -31.0250   26.4020 C   0  0  0  0  0  1  0  0  0  0  0  0
  -25.7950  -31.7020   25.6000 N   0  0  0  0  0  0  0  0  0  0  0  0
  -25.1360  -32.1420   26.2340 H   0  0  0  0  0  0  0  0  0  0  0  0
  -27.3910  -27.0500   22.5970 C   0  0  1  0  0  0  0  0  0  0  0  0
  -26.4510  -25.8700   22.9340 C   0  0  0  0  0  1  0  0  0  0  0  0
  -28.3890  -26.5640   21.5180 C   0  0  0  0  0  1  0  0  0  0  0  0
  -28.2230  -27.3800   23.8580 C   0  0  0  0  0  1  0  0  0  0  0  0
  2  1  1  0
  3  6  1  0
  4 20  1  0
  4  7  2  0
  5  3  2  0
  5  4  1  0
  6  2  1  0
  6  9  2  0
  7  9  1  0
  7 11  1  0
  8  3  1  0
 10  5  1  0
 12 18  1  0
 13 18  1  0
 14 15  1  0
 14 13  1  0
 16 15  1  0
 16 25  1  0
 16 17  1  0
 18 17  1  0
 19 12  2  0
 20 12  1  0
 21 20  1  0
 22 23  2  0
 23 24  1  0
 23 42  1  0
 24 27  1  0
 25 22  1  0
 25 26  1  0
 26 24  2  0
 27 28  1  0
 28 29  2  0
 30 33  1  0
 30 29  1  0
 31 30  2  0
 32 31  1  0
 32 27  2  0
 33 34  1  0
 34 39  2  0
 34 35  1  0
 35 36  2  0
 36 37  1  0
 37 41  1  0
 38 37  2  0
 39 38  1  0
 40 39  1  0
 42 43  1  0
 43 46  1  0
 43 45  1  0
 44 42  2  0
 47 22  1  0
 48 47  1  0
 49 47  1  0
 50  1  1  0
 52 50  1  0
 52 51  1  0
 52 53  1  1
 54 52  1  0
 55 54  1  0
 56 55  1  0
 57 56  1  0
 58 60  1  0
 58 57  1  0
 59 70  2  0
 60 65  1  0
 61 71  1  0
 61 69  1  0
 62 68  1  0
 62 64  1  0
 63 69  1  0
 64 63  1  0
 65 64  2  0
 66 67  1  0
 66 60  2  0
 67 62  2  0
 68 61  1  0
 69 59  1  0
 71 73  2  0
 72 71  1  0
 74 72  1  0
 75 80  1  0
 76 72  1  0
 77 76  1  0
 78 79  1  0
 78 77  1  0
 79 75  1  0
 80 76  1  0
 80 81  2  0
 82 81  1  0
 83 82  2  0
 84 75  2  0
 84 83  1  0
 85 59  1  0
 85 95  1  0
 85 86  1  0
 86 87  1  0
 86 89  1  0
 87 91  1  0
 88 87  2  0
 91 90  1  0
 91 93  1  0
 93 94  1  0
 93 92  1  0
 95 96  1  1
 95 98  1  0
 97 95  1  0
M  ISO  4  12 100  20 100  57 101  58 101
M  END
>  <TORSDO>  (26) 
F 24

>  <SCORE>  (26) 
-5.839

>  <name>  (26) 
26

>  <ligand_id>  (26) 
26

>  <original_smiles>  (26) 
[H]c1c([H])c([H])c2c(c1[H])C([H])([H])C([H])([H])C([H])([H])C2([H])N([H])C(=O)C1([H])N(C(=O)C([H])(N([H])C(=O)C([H])(N([H])C([H])([H])[H])C([H])([H])[H])C(C([H])([H])[H])(C([H])([H])[H])C([H])([H])[H])C([H])([H])c2c([H])c(OC([H])([H])C([H])([H])C([H])([H])C([H])([H])[N+]([H])(C([H])([H])[H])C([H])([H])C([H])([H])C([H])([H])c3nc(Cl)c(N([H])C(=O)N4C([H])([H])C([H])([H])C([H])([H])C([H])(n5nc(-c6c([H])c([H])c(Oc7c([H])c([H])c(F)c([H])c7F)c([H])c6[H])c(C(=O)N([H])[H])c5N([H])[H])C4([H])[H])c(Cl)c3C([H])([H])[H])c([H])c([H])c2C1([H])[H]

>  <smiles>  (26) 
[H]c1c([H])c([H])c2c(c1[H])C([H])([H])C([H])([H])C([H])([H])C2([H])N([H])C(=O)C1([H])N(C(=O)C([H])(N([H])C(=O)C([H])(N([H])C([H])([H])[H])C([H])([H])[H])C(C([H])([H])[H])(C([H])([H])[H])C([H])([H])[H])C([H])([H])c2c([H])c(OC([H])([H])C([H])([H])C([H])([H])C([H])([H])[N+]([H])(C([H])([H])[H])C([H])([H])C([H])([H])C([H])([H])c3nc(Cl)c(N([H])C(=O)N4C([H])([H])C([H])([H])C([H])([H])C([H])(n5nc(-c6c([H])c([H])c(Oc7c([H])c([H])c(F)c([H])c7F)c([H])c6[H])c(C(=O)N([H])[H])c5N([H])[H])C4([H])[H])c(Cl)c3C([H])([H])[H])c([H])c([H])c2C1([H])[H]

$$$$
27:0:0
     RDKit          3D

107113  0  0  1  0  0  0  0  0999 V2000
  -26.2740  -16.7170   17.8100 C   0  0  0  0  0  3  0  0  0  0  0  0
  -29.0360  -17.0190   17.4620 C   0  0  0  0  0  3  0  0  0  0  0  0
  -26.8030  -18.0300   17.7350 C   0  0  0  0  0  0  0  0  0  0  0  0
  -28.2070  -18.1650   17.5310 C   0  0  0  0  0  0  0  0  0  0  0  0
  -28.5020  -15.7150   17.5560 C   0  0  0  0  0  0  0  0  0  0  0  0
  -27.1050  -15.5770   17.6940 C   0  0  0  0  0  0  0  0  0  0  0  0
  -28.8540  -19.5320   17.3650 C   0  0  0  0  0  1  0  0  0  0  0  0
  -26.5690  -14.3360   17.7540 F   0  0  0  0  0  0  0  0  0  0  0  0
  -24.4720  -19.1230   17.2700 C   0  0  0  0  0  2  0  0  0  0  0  0
  -25.6920  -19.7410   19.3310 C   0  0  0  0  0  2  0  0  0  0  0  0
  -23.6890  -20.4620   17.3390 C   0  0  0  0  0  2  0  0  0  0  0  0
  -24.9180  -21.0870   19.3900 C   0  0  0  0  0  2  0  0  0  0  0  0
  -25.8800  -19.2680   17.8770 C   0  0  0  0  0  3  0  0  0  0  0  0
  -23.5860  -21.0370   18.7150 N   0  0  1  0  0  4  0  0  0  0  0  0
  -23.0080  -20.4020   19.2450 H   0  0  0  0  0  0  0  0  0  0  0  0
  -22.8800  -22.3660   18.7230 C   0  0  0  0  0  2  0  0  0  0  0  0
  -21.9100  -22.5920   19.9190 C   0  0  0  0  0  2  0  0  0  0  0  0
  -20.8180  -23.6770   19.6580 C   0  0  0  0  0  2  0  0  0  0  0  0
  -19.8770  -23.9420   20.8690 C   0  0  0  0  0  2  0  0  0  0  0  0
  -18.5880  -24.5160   20.5460 O   0  0  0  0  0  0  0  0  0  0  0  0
  -11.8290  -24.6080   22.9040 C   0  0  0  0  0  0  0  0  0  0  0  0
  -17.4590  -23.7910   20.8850 C   0  0  0  0  0  0  0  0  0  0  0  0
  -12.9290  -22.3970   22.8250 C   0  0  0  0  0  3  0  0  0  0  0  0
  -15.1450  -22.3050   21.5710 C   0  0  0  0  0  0  0  0  0  0  0  0
  -13.6350  -24.2630   21.2160 C   0  0  0  0  0  2  0  0  0  0  0  0
  -15.0240  -23.6530   21.2080 C   0  0  0  0  0  0  0  0  0  0  0  0
  -16.1760  -24.3980   20.8540 C   0  0  0  0  0  3  0  0  0  0  0  0
  -17.5480  -22.4320   21.2610 C   0  0  0  0  0  3  0  0  0  0  0  0
  -16.4060  -21.6910   21.6000 C   0  0  0  0  0  3  0  0  0  0  0  0
  -13.8780  -21.5640   21.9250 C   0  0  0  0  0  2  0  0  0  0  0  0
  -12.7800  -23.8090   22.3430 N   0  0  0  0  0  0  0  0  0  0  0  0
  -11.0620  -24.1760   23.7760 O   0  0  0  0  0  0  0  0  0  0  0  0
  -13.4200  -22.2970   24.2860 C   0  0  0  0  0  0  0  0  0  0  0  0
  -12.8460  -21.3500   25.0480 N   0  0  0  0  0  0  0  0  0  0  0  0
  -14.3130  -23.0380   24.7060 O   0  0  0  0  0  0  0  0  0  0  0  0
  -12.1170  -20.7890   24.6330 H   0  0  0  0  0  0  0  0  0  0  0  0
  -11.8100  -19.4480   27.9400 C   0  0  0  0  0  0  0  0  0  0  0  0
  -13.1760  -21.0500   26.4410 C   0  0  0  0  0  3  0  0  0  0  0  0
  -14.3100  -20.0040   26.5310 C   0  0  0  0  0  2  0  0  0  0  0  0
  -13.7970  -18.5650   26.6450 C   0  0  0  0  0  2  0  0  0  0  0  0
  -12.9150  -18.4070   27.8880 C   0  0  0  0  0  2  0  0  0  0  0  0
  -11.9270  -20.6830   27.2490 C   0  0  0  0  0  0  0  0  0  0  0  0
  -10.8560  -21.6010   27.3040 C   0  0  0  0  0  3  0  0  0  0  0  0
   -9.6890  -21.3060   28.0320 C   0  0  0  0  0  3  0  0  0  0  0  0
   -9.5850  -20.0880   28.7270 C   0  0  0  0  0  3  0  0  0  0  0  0
  -10.6450  -19.1660   28.6850 C   0  0  0  0  0  3  0  0  0  0  0  0
  -11.6440  -26.0920   22.4610 C   0  0  0  0  0  3  0  0  0  0  0  0
  -10.2000  -26.3490   22.3710 N   0  0  0  0  0  0  0  0  0  0  0  0
   -9.4780  -26.2460   21.2480 C   0  0  0  0  0  0  0  0  0  0  0  0
   -9.9810  -25.9900   20.1500 O   0  0  0  0  0  0  0  0  0  0  0  0
   -9.7140  -26.5060   23.2410 H   0  0  0  0  0  0  0  0  0  0  0  0
   -7.2510  -25.1020   21.4840 C   0  0  0  0  0  1  0  0  0  0  0  0
   -7.9570  -26.4610   21.3600 C   0  0  0  0  0  3  0  0  0  0  0  0
   -7.8000  -28.6150   20.1930 C   0  0  0  0  0  1  0  0  0  0  0  0
   -7.3840  -27.2160   20.2240 N   0  0  0  0  0  0  0  0  0  0  0  0
   -6.3690  -27.1870   20.2470 H   0  0  0  0  0  0  0  0  0  0  0  0
  -12.3350  -27.1220   23.4370 C   0  0  1  0  0  0  0  0  0  0  0  0
  -11.9290  -26.9440   24.9180 C   0  0  0  0  0  1  0  0  0  0  0  0
  -13.8740  -27.0080   23.3510 C   0  0  0  0  0  1  0  0  0  0  0  0
  -11.9760  -28.5660   23.0120 C   0  0  0  0  0  1  0  0  0  0  0  0
  -29.4260  -14.4890   17.4720 C   0  0  0  0  0  2  0  0  0  0  0  0
  -29.2950  -13.5380   18.6140 N   0  0  0  0  0  4  0  0  0  0  0  0
  -28.6910  -12.7860   18.3230 H   0  0  0  0  0  0  0  0  0  0  0  0
  -28.8010  -14.0380   19.3380 H   0  0  0  0  0  0  0  0  0  0  0  0
  -30.9430  -11.6580   18.4980 C   0  0  0  0  0  1  0  0  0  0  0  0
  -30.5570  -12.9830   19.1930 C   0  0  0  0  0  3  0  0  0  0  0  0
  -30.4710  -12.7970   20.7530 C   0  0  0  0  0  2  0  0  0  0  0  0
  -31.5810  -13.4880   21.6190 C   0  0  0  0  0  2  0  0  0  0  0  0
  -31.2350  -14.6390   22.6440 C   0  0  0  0  0  2  0  0  0  0  0  0
  -31.2470  -17.5310   21.7590 C   0  0  2  0  0  0  0  0  0  0  0  0
  -32.7320  -16.9780   21.7940 C   0  0  0  0  0  1  0  0  0  0  0  0
  -32.2310  -16.1310   20.1450 C   0  0  0  0  0  1  0  0  0  0  0  0
  -30.4980  -16.0480   19.7480 C   0  0  0  0  0  2  0  0  0  0  0  0
  -29.2560  -17.0390   20.5280 C   0  0  0  0  0  2  0  0  0  0  0  0
  -29.7020  -17.9870   22.0850 C   0  0  0  0  0  1  0  0  0  0  0  0
  -31.3860  -17.8430   22.6640 N   0  0  0  0  0  1  0  0  0  0  0  0
  -31.5210  -18.5160   20.8110 O   0  0  0  0  0  1  0  0  0  0  0  0
  -30.7710  -16.0360   22.2940 N   0  0  0  0  0  2  0  0  0  0  0  0
  -30.1730  -16.2790   23.0700 H   0  0  0  0  0  0  0  0  0  0  0  0
  -26.7120  -16.9720   20.5990 C   0  0  0  0  0  0  0  0  0  0  0  0
  -25.7660  -15.9900   20.6990 C   0  0  0  0  0  0  0  0  0  0  0  0
  -26.4730  -14.7480   20.7370 C   0  0  0  0  0  0  0  0  0  0  0  0
  -27.9440  -16.3500   20.6090 N   0  0  0  0  0  0  0  0  0  0  0  0
  -27.7950  -14.9890   20.7090 N   0  0  0  0  0  0  0  0  0  0  0  0
  -25.9300  -13.3660   20.7500 C   0  0  0  0  0  0  0  0  0  0  0  0
  -26.2190  -12.4470   21.7850 C   0  0  0  0  0  3  0  0  0  0  0  0
  -25.6520  -11.1500   21.7860 C   0  0  0  0  0  3  0  0  0  0  0  0
  -24.7730  -10.7560   20.7490 C   0  0  0  0  0  0  0  0  0  0  0  0
  -24.4940  -11.6650   19.7160 C   0  0  0  0  0  3  0  0  0  0  0  0
  -25.0650  -12.9520   19.7140 C   0  0  0  0  0  3  0  0  0  0  0  0
  -24.2040   -9.5070   20.6490 O   0  0  0  0  0  0  0  0  0  0  0  0
  -23.7380   -8.8320   21.7490 C   0  0  0  0  0  0  0  0  0  0  0  0
  -22.7850   -9.4010   22.6230 C   0  0  0  0  0  3  0  0  0  0  0  0
  -22.2840   -8.6520   23.7050 C   0  0  0  0  0  3  0  0  0  0  0  0
  -22.7260   -7.3310   23.9120 C   0  0  0  0  0  0  0  0  0  0  0  0
  -23.6680   -6.7590   23.0410 C   0  0  0  0  0  3  0  0  0  0  0  0
  -24.1700   -7.5060   21.9600 C   0  0  0  0  0  0  0  0  0  0  0  0
  -25.0640   -6.9420   21.1120 F   0  0  0  0  0  0  0  0  0  0  0  0
  -22.2390   -6.6100   24.9470 F   0  0  0  0  0  0  0  0  0  0  0  0
  -24.2800  -16.2090   20.6880 C   0  0  0  0  0  0  0  0  0  0  0  0
  -23.5210  -15.3220   21.3200 N   0  0  0  0  0  0  0  0  0  0  0  0
  -23.7830  -17.2090   20.1680 O   0  0  0  0  0  0  0  0  0  0  0  0
  -23.9180  -14.5170   21.7800 H   0  0  0  0  0  0  0  0  0  0  0  0
  -22.5180  -15.4530   21.3440 H   0  0  0  0  0  0  0  0  0  0  0  0
  -26.6240  -18.3530   20.5020 N   0  0  0  0  0  0  0  0  0  0  0  0
  -25.7190  -18.8090   20.4570 H   0  0  0  0  0  0  0  0  0  0  0  0
  -27.4070  -18.9930   20.4560 H   0  0  0  0  0  0  0  0  0  0  0  0
  2  4  1  0
  2  5  2  0
  3  1  1  0
  4  3  2  0
  5  6  1  0
  6  8  1  0
  6  1  2  0
  7  4  1  0
  9 11  1  0
  9 13  1  0
 10 12  1  0
 11 14  1  0
 13  3  1  0
 13 10  1  0
 14 16  1  0
 14 15  1  1
 14 12  1  0
 16 17  1  0
 18 17  1  0
 18 19  1  0
 20 19  1  0
 20 22  1  0
 21 32  2  0
 22 28  1  0
 23 33  1  0
 24 29  1  0
 24 30  1  0
 25 31  1  0
 26 25  1  0
 26 24  2  0
 27 22  2  0
 27 26  1  0
 28 29  2  0
 30 23  1  0
 31 23  1  0
 31 21  1  0
 33 35  2  0
 33 34  1  0
 36 34  1  0
 37 46  1  0
 38 34  1  0
 38 39  1  0
 38 42  1  0
 39 40  1  0
 40 41  1  0
 41 37  1  0
 42 43  1  0
 42 37  2  0
 43 44  2  0
 44 45  1  0
 46 45  2  0
 47 21  1  0
 47 57  1  0
 48 47  1  0
 48 51  1  0
 49 53  1  0
 49 48  1  0
 50 49  2  0
 53 52  1  0
 54 55  1  0
 55 56  1  0
 55 53  1  0
 57 58  1  1
 59 57  1  0
 60 57  1  0
 61  5  1  0
 61 62  1  0
 62 66  1  0
 62 64  1  0
 63 62  1  0
 66 65  1  0
 66 67  1  0
 67 68  1  0
 68 69  1  0
 70 71  1  6
 70 75  1  0
 70 76  1  0
 73 72  1  0
 73 74  1  0
 74 83  1  0
 77 70  1  0
 78 69  1  0
 78 79  1  0
 80 83  1  0
 80 81  2  0
 81 82  1  0
 82 85  1  0
 83 84  1  0
 84 82  2  0
 85 86  1  0
 86 87  2  0
 88 87  1  0
 89 88  2  0
 90 89  1  0
 90 85  2  0
 91 88  1  0
 91 92  1  0
 92 97  2  0
 92 93  1  0
 93 94  2  0
 94 95  1  0
 95 99  1  0
 96 95  2  0
 97 96  1  0
 98 97  1  0
100 81  1  0
100101  1  0
101104  1  0
101103  1  0
102100  2  0
105 80  1  0
106105  1  0
107105  1  0
M  ISO  4  19 101  20 101  70 100  78 100
M  END
>  <TORSDO>  (27) 
F 27

>  <SCORE>  (27) 
22.565

>  <name>  (27) 
27

>  <ligand_id>  (27) 
27

>  <original_smiles>  (27) 
[H]c1c([H])c([H])c2c(c1[H])C([H])([H])C([H])([H])C([H])([H])C2([H])N([H])C(=O)C1([H])N(C(=O)C([H])(N([H])C(=O)C([H])(N([H])C([H])([H])[H])C([H])([H])[H])C(C([H])([H])[H])(C([H])([H])[H])C([H])([H])[H])C([H])([H])c2c([H])c(OC([H])([H])C([H])([H])C([H])([H])C([H])([H])[N+]3([H])C([H])([H])C([H])([H])C([H])(c4c([H])c(F)c(C([H])([H])[N+]([H])([H])C([H])(C([H])([H])[H])C([H])([H])C([H])([H])C([H])([H])N([H])C(=O)N5C([H])([H])C([H])([H])C([H])([H])C([H])(n6nc(-c7c([H])c([H])c(Oc8c([H])c([H])c(F)c([H])c8F)c([H])c7[H])c(C(=O)N([H])[H])c6N([H])[H])C5([H])[H])c([H])c4C([H])([H])[H])C([H])([H])C3([H])[H])c([H])c([H])c2C1([H])[H]

>  <smiles>  (27) 
[H]c1c([H])c([H])c2c(c1[H])C([H])([H])C([H])([H])C([H])([H])C2([H])N([H])C(=O)C1([H])N(C(=O)C([H])(N([H])C(=O)C([H])(N([H])C([H])([H])[H])C([H])([H])[H])C(C([H])([H])[H])(C([H])([H])[H])C([H])([H])[H])C([H])([H])c2c([H])c(OC([H])([H])C([H])([H])C([H])([H])C([H])([H])[N+]3([H])C([H])([H])C([H])([H])C([H])(c4c([H])c(F)c(C([H])([H])[N+]([H])([H])C([H])(C([H])([H])[H])C([H])([H])C([H])([H])C([H])([H])N([H])C(=O)N5C([H])([H])C([H])([H])C([H])([H])C([H])(n6nc(-c7c([H])c([H])c(Oc8c([H])c([H])c(F)c([H])c8F)c([H])c7[H])c(C(=O)N([H])[H])c6N([H])[H])C5([H])[H])c([H])c4C([H])([H])[H])C([H])([H])C3([H])[H])c([H])c([H])c2C1([H])[H]

$$$$
28:0:0
     RDKit          3D

 96105  0  0  1  0  0  0  0  0999 V2000
  -34.9390  -22.0590   20.4490 C   0  0  0  0  0  3  0  0  0  0  0  0
  -35.7610  -23.2030   20.6390 C   0  0  0  0  0  0  0  0  0  0  0  0
  -35.0820  -20.8830   21.2410 C   0  0  0  0  0  0  0  0  0  0  0  0
  -36.7470  -23.1660   21.6680 C   0  0  0  0  0  0  0  0  0  0  0  0
  -36.0820  -20.8680   22.2500 C   0  0  0  0  0  0  0  0  0  0  0  0
  -36.8830  -22.0080   22.4750 C   0  0  0  0  0  0  0  0  0  0  0  0
  -37.6750  -24.3590   21.9060 C   0  0  0  0  0  1  0  0  0  0  0  0
  -36.3950  -19.4520   23.2060 Cl  0  0  0  0  0  0  0  0  0  0  0  0
  -38.0610  -21.9580   23.7530 Cl  0  0  0  0  0  0  0  0  0  0  0  0
  -34.5230  -25.4730   20.0190 C   0  0  0  0  0  2  0  0  0  0  0  0
  -35.5870  -24.1090   18.2350 C   0  0  0  0  0  2  0  0  0  0  0  0
  -34.7650  -26.7780   19.2000 C   0  0  0  0  0  2  0  0  0  0  0  0
  -35.8520  -25.3620   17.3760 C   0  0  0  0  0  2  0  0  0  0  0  0
  -35.6450  -24.4560   19.7330 C   0  0  0  0  0  3  0  0  0  0  0  0
  -34.9040  -26.5550   17.6660 C   0  0  0  0  0  3  0  0  0  0  0  0
  -35.4380  -27.8040   16.8960 C   0  0  0  0  0  2  0  0  0  0  0  0
  -36.2090  -28.7400   17.6620 O   0  0  0  0  0  0  0  0  0  0  0  0
  -40.8080  -30.5430   12.5030 C   0  0  0  0  0  0  0  0  0  0  0  0
  -37.5160  -28.8290   17.2370 C   0  0  0  0  0  0  0  0  0  0  0  0
  -41.6970  -29.1080   14.3110 C   0  0  0  0  0  3  0  0  0  0  0  0
  -40.2050  -28.8660   16.3690 C   0  0  0  0  0  0  0  0  0  0  0  0
  -39.7730  -30.7330   14.7630 C   0  0  0  0  0  2  0  0  0  0  0  0
  -39.2820  -29.7660   15.8220 C   0  0  0  0  0  0  0  0  0  0  0  0
  -37.9340  -29.7550   16.2530 C   0  0  0  0  0  3  0  0  0  0  0  0
  -38.4580  -27.9390   17.7870 C   0  0  0  0  0  3  0  0  0  0  0  0
  -39.7990  -27.9480   17.3550 C   0  0  0  0  0  3  0  0  0  0  0  0
  -41.6260  -28.9390   15.8530 C   0  0  0  0  0  2  0  0  0  0  0  0
  -40.7340  -30.1390   13.8030 N   0  0  0  0  0  0  0  0  0  0  0  0
  -41.6850  -30.1060   11.7440 O   0  0  0  0  0  0  0  0  0  0  0  0
  -41.5160  -27.7220   13.6510 C   0  0  0  0  0  0  0  0  0  0  0  0
  -42.6240  -27.1420   13.1620 N   0  0  0  0  0  0  0  0  0  0  0  0
  -40.4070  -27.1830   13.6100 O   0  0  0  0  0  0  0  0  0  0  0  0
  -43.4950  -27.6510   13.2260 H   0  0  0  0  0  0  0  0  0  0  0  0
  -44.5070  -25.1300   10.8270 C   0  0  0  0  0  0  0  0  0  0  0  0
  -42.6950  -25.8220   12.5340 C   0  0  0  0  0  3  0  0  0  0  0  0
  -43.3400  -24.7870   13.4840 C   0  0  0  0  0  2  0  0  0  0  0  0
  -44.8520  -24.6470   13.2860 C   0  0  0  0  0  2  0  0  0  0  0  0
  -45.1690  -24.2230   11.8500 C   0  0  0  0  0  2  0  0  0  0  0  0
  -43.3550  -25.8920   11.1520 C   0  0  0  0  0  0  0  0  0  0  0  0
  -42.8010  -26.7460   10.1740 C   0  0  0  0  0  3  0  0  0  0  0  0
  -43.3750  -26.8420    8.8920 C   0  0  0  0  0  3  0  0  0  0  0  0
  -44.5060  -26.0720    8.5700 C   0  0  0  0  0  3  0  0  0  0  0  0
  -45.0680  -25.2160    9.5340 C   0  0  0  0  0  3  0  0  0  0  0  0
  -39.8140  -31.5930   11.9160 C   0  0  0  0  0  3  0  0  0  0  0  0
  -38.6940  -30.9500   11.0080 C   0  0  1  0  0  0  0  0  0  0  0  0
  -39.1020  -30.8150    9.5230 C   0  0  0  0  0  1  0  0  0  0  0  0
  -38.3140  -29.5430   11.5240 C   0  0  0  0  0  1  0  0  0  0  0  0
  -37.4080  -31.8080   11.0750 C   0  0  0  0  0  1  0  0  0  0  0  0
  -40.6010  -32.5710   11.1540 N   0  0  0  0  0  0  0  0  0  0  0  0
  -41.1950  -33.6490   11.6860 C   0  0  0  0  0  0  0  0  0  0  0  0
  -41.0730  -33.9640   12.8720 O   0  0  0  0  0  0  0  0  0  0  0  0
  -40.7870  -32.3500   10.1870 H   0  0  0  0  0  0  0  0  0  0  0  0
  -43.5450  -34.1730   10.9600 C   0  0  0  0  0  1  0  0  0  0  0  0
  -42.0610  -34.5160   10.7520 C   0  0  0  0  0  3  0  0  0  0  0  0
  -40.6000  -36.4530   10.3680 C   0  0  0  0  0  1  0  0  0  0  0  0
  -41.8550  -35.9690   10.9390 N   0  0  0  0  0  0  0  0  0  0  0  0
  -42.6180  -36.4980   10.5240 H   0  0  0  0  0  0  0  0  0  0  0  0
  -34.2160  -19.6460   20.9170 C   0  0  0  0  0  2  0  0  0  0  0  0
  -31.7590  -20.0940   20.6240 C   0  0  0  0  0  0  0  0  0  0  0  0
  -29.3650  -19.8790   20.0520 C   0  0  0  0  0  2  0  0  0  0  0  0
  -29.0770  -18.4230   19.6290 C   0  0  0  0  0  2  0  0  0  0  0  0
  -29.3650  -18.2170   18.1280 C   0  0  0  0  0  2  0  0  0  0  0  0
  -30.7450  -18.7810   17.6990 C   0  0  0  0  0  3  0  0  0  0  0  0
  -30.9440  -20.2160   18.2390 C   0  0  0  0  0  2  0  0  0  0  0  0
  -30.7620  -20.1760   19.6990 N   0  0  0  0  0  0  0  0  0  0  0  0
  -31.5470  -20.0910   21.8390 O   0  0  0  0  0  0  0  0  0  0  0  0
  -32.9900  -19.8660   20.1280 N   0  0  0  0  0  0  0  0  0  0  0  0
  -33.0840  -19.8750   19.1240 H   0  0  0  0  0  0  0  0  0  0  0  0
  -31.4890  -17.7150   15.4780 C   0  0  0  0  0  0  0  0  0  0  0  0
  -31.3420  -18.1170   14.1770 C   0  0  0  0  0  0  0  0  0  0  0  0
  -30.6710  -19.3760   14.2250 C   0  0  0  0  0  0  0  0  0  0  0  0
  -30.9240  -18.7180   16.2510 N   0  0  0  0  0  0  0  0  0  0  0  0
  -30.4790  -19.7470   15.4840 N   0  0  0  0  0  0  0  0  0  0  0  0
  -30.1500  -20.2240   13.1460 C   0  0  0  0  0  0  0  0  0  0  0  0
  -30.3250  -21.6250   13.1570 C   0  0  0  0  0  3  0  0  0  0  0  0
  -29.8300  -22.4170   12.0980 C   0  0  0  0  0  3  0  0  0  0  0  0
  -29.1560  -21.8100   11.0120 C   0  0  0  0  0  0  0  0  0  0  0  0
  -28.9640  -20.4170   11.0170 C   0  0  0  0  0  3  0  0  0  0  0  0
  -29.4530  -19.6300   12.0740 C   0  0  0  0  0  3  0  0  0  0  0  0
  -28.6200  -22.5010    9.9540 O   0  0  0  0  0  0  0  0  0  0  0  0
  -29.4070  -23.2120    9.0850 C   0  0  0  0  0  0  0  0  0  0  0  0
  -30.3170  -22.5750    8.2110 C   0  0  0  0  0  3  0  0  0  0  0  0
  -31.0560  -23.3390    7.2870 C   0  0  0  0  0  3  0  0  0  0  0  0
  -30.8830  -24.7350    7.2270 C   0  0  0  0  0  0  0  0  0  0  0  0
  -29.9750  -25.3700    8.0920 C   0  0  0  0  0  3  0  0  0  0  0  0
  -29.2380  -24.6090    9.0160 C   0  0  0  0  0  0  0  0  0  0  0  0
  -28.3480  -25.2240    9.8330 F   0  0  0  0  0  0  0  0  0  0  0  0
  -31.5880  -25.4690    6.3340 F   0  0  0  0  0  0  0  0  0  0  0  0
  -31.7160  -17.3320   12.9520 C   0  0  0  0  0  0  0  0  0  0  0  0
  -32.7520  -17.7630   12.2410 N   0  0  0  0  0  0  0  0  0  0  0  0
  -31.1180  -16.3020   12.6450 O   0  0  0  0  0  0  0  0  0  0  0  0
  -33.2560  -18.5960   12.5050 H   0  0  0  0  0  0  0  0  0  0  0  0
  -33.0480  -17.2500   11.4220 H   0  0  0  0  0  0  0  0  0  0  0  0
  -32.0350  -16.5780   16.0660 N   0  0  0  0  0  0  0  0  0  0  0  0
  -32.4060  -15.8120   15.5140 H   0  0  0  0  0  0  0  0  0  0  0  0
  -32.0300  -16.3840   17.0590 H   0  0  0  0  0  0  0  0  0  0  0  0
  1  2  2  0
  1  3  1  0
  2  4  1  0
  3  5  2  0
  4  7  1  0
  4  6  2  0
  5  6  1  0
  5  8  1  0
  6  9  1  0
 11 14  1  0
 12 10  1  0
 13 15  1  0
 13 11  1  0
 14 10  1  0
 14  2  1  0
 15 16  1  0
 15 12  1  0
 16 17  1  0
 18 28  1  0
 19 17  1  0
 19 25  1  0
 20 30  1  0
 20 27  1  0
 21 26  1  0
 22 23  1  0
 23 24  1  0
 23 21  2  0
 24 19  2  0
 26 25  2  0
 27 21  1  0
 28 20  1  0
 28 22  1  0
 29 18  2  0
 31 33  1  0
 31 30  1  0
 32 30  2  0
 34 39  1  0
 34 38  1  0
 35 31  1  0
 35 36  1  0
 37 36  1  0
 38 37  1  0
 39 35  1  0
 40 39  2  0
 41 40  1  0
 42 41  2  0
 42 43  1  0
 43 34  2  0
 44 18  1  0
 45 48  1  6
 45 47  1  0
 45 44  1  0
 46 45  1  0
 49 50  1  0
 49 44  1  0
 50 51  2  0
 52 49  1  0
 54 56  1  0
 54 53  1  0
 54 50  1  0
 55 56  1  0
 57 56  1  0
 58  3  1  0
 59 66  2  0
 61 60  1  0
 62 61  1  0
 63 72  1  0
 63 62  1  0
 63 64  1  0
 64 65  1  0
 65 60  1  0
 65 59  1  0
 67 59  1  0
 67 58  1  0
 68 67  1  0
 69 94  1  0
 69 72  1  0
 70 71  1  0
 70 69  2  0
 71 73  2  0
 73 72  1  0
 74 75  1  0
 74 71  1  0
 76 75  2  0
 77 78  2  0
 77 76  1  0
 78 79  1  0
 79 74  2  0
 80 77  1  0
 81 80  1  0
 82 81  2  0
 83 82  1  0
 84 83  2  0
 84 85  1  0
 85 86  2  0
 86 81  1  0
 86 87  1  0
 88 84  1  0
 89 70  1  0
 90 92  1  0
 90 89  1  0
 91 89  2  0
 93 90  1  0
 94 96  1  0
 95 94  1  0
M  ISO  4  16 101  17 101  59 100  67 100
M  END
>  <TORSDO>  (28) 
F 19

>  <SCORE>  (28) 
-3.150

>  <name>  (28) 
28

>  <ligand_id>  (28) 
28

>  <original_smiles>  (28) 
[H]c1c([H])c([H])c2c(c1[H])C([H])([H])C([H])([H])C([H])([H])C2([H])N([H])C(=O)C1([H])N(C(=O)C([H])(N([H])C(=O)C([H])(N([H])C([H])([H])[H])C([H])([H])[H])C(C([H])([H])[H])(C([H])([H])[H])C([H])([H])[H])C([H])([H])c2c([H])c(OC([H])([H])C3([H])C([H])([H])C([H])([H])C([H])(c4c([H])c(C([H])([H])N([H])C(=O)N5C([H])([H])C([H])([H])C([H])([H])C([H])(n6nc(-c7c([H])c([H])c(Oc8c([H])c([H])c(F)c([H])c8F)c([H])c7[H])c(C(=O)N([H])[H])c6N([H])[H])C5([H])[H])c(Cl)c(Cl)c4C([H])([H])[H])C([H])([H])C3([H])[H])c([H])c([H])c2C1([H])[H]

>  <smiles>  (28) 
[H]c1c([H])c([H])c2c(c1[H])C([H])([H])C([H])([H])C([H])([H])C2([H])N([H])C(=O)C1([H])N(C(=O)C([H])(N([H])C(=O)C([H])(N([H])C([H])([H])[H])C([H])([H])[H])C(C([H])([H])[H])(C([H])([H])[H])C([H])([H])[H])C([H])([H])c2c([H])c(OC([H])([H])C3([H])C([H])([H])C([H])([H])C([H])(c4c([H])c(C([H])([H])N([H])C(=O)N5C([H])([H])C([H])([H])C([H])([H])C([H])(n6nc(-c7c([H])c([H])c(Oc8c([H])c([H])c(F)c([H])c8F)c([H])c7[H])c(C(=O)N([H])[H])c6N([H])[H])C5([H])[H])c(Cl)c(Cl)c4C([H])([H])[H])C([H])([H])C3([H])[H])c([H])c([H])c2C1([H])[H]

$$$$
29:0:0
     RDKit          3D

 99108  0  0  1  0  0  0  0  0999 V2000
  -30.2110  -21.3610   23.0670 C   0  0  0  0  0  2  0  0  0  0  0  0
  -30.0760  -22.8850   23.0030 C   0  0  0  0  0  2  0  0  0  0  0  0
  -29.8360  -21.9940   20.7810 C   0  0  0  0  0  2  0  0  0  0  0  0
  -30.6370  -20.9960   21.6470 C   0  0  0  0  0  3  0  0  0  0  0  0
  -29.6680  -23.2210   21.6130 N   0  0  2  0  0  4  0  0  0  0  0  0
  -28.6690  -23.3630   21.6690 H   0  0  0  0  0  0  0  0  0  0  0  0
  -30.5180  -19.5020   21.3050 C   0  0  0  0  0  0  0  0  0  0  0  0
  -29.1680  -17.5820   20.5760 C   0  0  0  0  0  0  0  0  0  0  0  0
  -30.2440  -16.6960   20.8350 C   0  0  0  0  0  0  0  0  0  0  0  0
  -29.3090  -18.9690   20.8090 C   0  0  0  0  0  0  0  0  0  0  0  0
  -31.5930  -18.6160   21.5600 C   0  0  0  0  0  0  0  0  0  0  0  0
  -31.4570  -17.2270   21.3380 C   0  0  0  0  0  0  0  0  0  0  0  0
  -27.8520  -17.0520   20.0390 C   0  0  0  0  0  1  0  0  0  0  0  0
  -28.2570  -19.7910   20.5780 F   0  0  0  0  0  0  0  0  0  0  0  0
  -32.7610  -19.0910   22.0600 F   0  0  0  0  0  0  0  0  0  0  0  0
  -32.4850  -16.4090   21.6660 F   0  0  0  0  0  0  0  0  0  0  0  0
  -30.4950  -14.4690   19.7190 C   0  0  0  0  0  0  0  0  0  0  0  0
  -30.0460  -12.3690   18.4900 C   0  0  0  0  0  2  0  0  0  0  0  0
  -28.9490  -12.5940   17.4290 C   0  0  0  0  0  2  0  0  0  0  0  0
  -27.5450  -12.4210   18.0420 C   0  0  0  0  0  2  0  0  0  0  0  0
  -27.3670  -13.2220   19.3590 C   0  0  0  0  0  3  0  0  0  0  0  0
  -28.5540  -12.9610   20.3130 C   0  0  0  0  0  2  0  0  0  0  0  0
  -29.8060  -13.3010   19.6030 N   0  0  0  0  0  0  0  0  0  0  0  0
  -31.4520  -14.7580   18.9940 O   0  0  0  0  0  0  0  0  0  0  0  0
  -30.0250  -15.2930   20.6710 N   0  0  0  0  0  0  0  0  0  0  0  0
  -29.2260  -14.9180   21.1580 H   0  0  0  0  0  0  0  0  0  0  0  0
  -25.0620  -13.7870   20.3660 C   0  0  0  0  0  0  0  0  0  0  0  0
  -24.0620  -12.9970   20.8640 C   0  0  0  0  0  0  0  0  0  0  0  0
  -24.5300  -11.6520   20.7470 C   0  0  0  0  0  0  0  0  0  0  0  0
  -26.0840  -12.9250   19.9950 N   0  0  0  0  0  0  0  0  0  0  0  0
  -25.7700  -11.6350   20.2750 N   0  0  0  0  0  0  0  0  0  0  0  0
  -23.8440  -10.3800   21.0020 C   0  0  0  0  0  0  0  0  0  0  0  0
  -24.3540   -9.4390   21.9240 C   0  0  0  0  0  3  0  0  0  0  0  0
  -23.6680   -8.2310   22.1670 C   0  0  0  0  0  3  0  0  0  0  0  0
  -22.4570   -7.9530   21.4860 C   0  0  0  0  0  0  0  0  0  0  0  0
  -21.9670   -8.8830   20.5530 C   0  0  0  0  0  3  0  0  0  0  0  0
  -22.6550  -10.0830   20.3090 C   0  0  0  0  0  3  0  0  0  0  0  0
  -21.7370   -6.7930   21.6390 O   0  0  0  0  0  0  0  0  0  0  0  0
  -21.7170   -6.1100   22.8290 C   0  0  0  0  0  0  0  0  0  0  0  0
  -21.2870   -6.7160   24.0290 C   0  0  0  0  0  3  0  0  0  0  0  0
  -21.2160   -5.9580   25.2140 C   0  0  0  0  0  3  0  0  0  0  0  0
  -21.5630   -4.5940   25.2010 C   0  0  0  0  0  0  0  0  0  0  0  0
  -21.9870   -3.9870   24.0050 C   0  0  0  0  0  3  0  0  0  0  0  0
  -22.0600   -4.7420   22.8220 C   0  0  0  0  0  0  0  0  0  0  0  0
  -22.4480   -4.1480   21.6680 F   0  0  0  0  0  0  0  0  0  0  0  0
  -21.4880   -3.8640   26.3370 F   0  0  0  0  0  0  0  0  0  0  0  0
  -22.7080  -13.4540   21.3240 C   0  0  0  0  0  0  0  0  0  0  0  0
  -22.1170  -12.7520   22.2840 N   0  0  0  0  0  0  0  0  0  0  0  0
  -22.1840  -14.4690   20.8660 O   0  0  0  0  0  0  0  0  0  0  0  0
  -22.5540  -11.9310   22.6760 H   0  0  0  0  0  0  0  0  0  0  0  0
  -21.2150  -13.0400   22.6350 H   0  0  0  0  0  0  0  0  0  0  0  0
  -25.1720  -15.1590   20.1790 N   0  0  0  0  0  0  0  0  0  0  0  0
  -24.3960  -15.7840   20.3630 H   0  0  0  0  0  0  0  0  0  0  0  0
  -25.9210  -15.6000   19.6620 H   0  0  0  0  0  0  0  0  0  0  0  0
  -31.7160  -24.3690   20.6550 C   0  0  0  0  0  1  0  0  0  0  0  0
  -30.2420  -24.5050   21.1010 C   0  0  0  0  0  3  0  0  0  0  0  0
  -29.3680  -25.1510   19.9930 C   0  0  0  0  0  2  0  0  0  0  0  0
  -28.2500  -26.0880   20.5020 C   0  0  0  0  0  2  0  0  0  0  0  0
  -27.6510  -26.7040   19.3680 O   0  0  0  0  0  0  0  0  0  0  0  0
  -24.4720  -31.8180   23.2280 C   0  0  0  0  0  0  0  0  0  0  0  0
  -26.5530  -27.4880   19.6200 C   0  0  0  0  0  0  0  0  0  0  0  0
  -23.0390  -30.6180   21.6040 C   0  0  0  0  0  3  0  0  0  0  0  0
  -24.2650  -29.1040   19.9580 C   0  0  0  0  0  0  0  0  0  0  0  0
  -25.5550  -30.8420   21.2100 C   0  0  0  0  0  2  0  0  0  0  0  0
  -25.4980  -29.5160   20.4810 C   0  0  0  0  0  0  0  0  0  0  0  0
  -26.6470  -28.7100   20.3210 C   0  0  0  0  0  3  0  0  0  0  0  0
  -25.3100  -27.0860   19.0940 C   0  0  0  0  0  3  0  0  0  0  0  0
  -24.1620  -27.8830   19.2680 C   0  0  0  0  0  3  0  0  0  0  0  0
  -23.0880  -30.0290   20.1690 C   0  0  0  0  0  2  0  0  0  0  0  0
  -24.3800  -31.1020   22.0720 N   0  0  0  0  0  0  0  0  0  0  0  0
  -23.4620  -32.1120   23.8810 O   0  0  0  0  0  0  0  0  0  0  0  0
  -22.4060  -29.5700   22.5450 C   0  0  0  0  0  0  0  0  0  0  0  0
  -21.0760  -29.4100   22.4530 N   0  0  0  0  0  0  0  0  0  0  0  0
  -23.1050  -28.9030   23.3130 O   0  0  0  0  0  0  0  0  0  0  0  0
  -20.5730  -29.9990   21.8050 H   0  0  0  0  0  0  0  0  0  0  0  0
  -17.7160  -28.1710   22.9310 C   0  0  0  0  0  0  0  0  0  0  0  0
  -20.2700  -28.4540   23.2110 C   0  0  0  0  0  3  0  0  0  0  0  0
  -20.3900  -27.0310   22.6180 C   0  0  0  0  0  2  0  0  0  0  0  0
  -19.2930  -26.7090   21.5980 C   0  0  0  0  0  2  0  0  0  0  0  0
  -17.9090  -26.8300   22.2410 C   0  0  0  0  0  2  0  0  0  0  0  0
  -18.8250  -28.9400   23.3730 C   0  0  0  0  0  0  0  0  0  0  0  0
  -18.5920  -30.1950   23.9770 C   0  0  0  0  0  3  0  0  0  0  0  0
  -17.2820  -30.6800   24.1440 C   0  0  0  0  0  3  0  0  0  0  0  0
  -16.1860  -29.9080   23.7190 C   0  0  0  0  0  3  0  0  0  0  0  0
  -16.4050  -28.6550   23.1200 C   0  0  0  0  0  3  0  0  0  0  0  0
  -25.8470  -32.3180   23.7720 C   0  0  0  0  0  3  0  0  0  0  0  0
  -26.3970  -31.4480   24.9690 C   0  0  1  0  0  0  0  0  0  0  0  0
  -25.3660  -31.2240   26.0990 C   0  0  0  0  0  1  0  0  0  0  0  0
  -26.8580  -30.0590   24.4670 C   0  0  0  0  0  1  0  0  0  0  0  0
  -27.6410  -32.1310   25.5840 C   0  0  0  0  0  1  0  0  0  0  0  0
  -25.6770  -33.7180   24.1810 N   0  0  0  0  0  0  0  0  0  0  0  0
  -26.0550  -34.7740   23.4490 C   0  0  0  0  0  0  0  0  0  0  0  0
  -26.6560  -34.6660   22.3770 O   0  0  0  0  0  0  0  0  0  0  0  0
  -25.1420  -33.8820   25.0220 H   0  0  0  0  0  0  0  0  0  0  0  0
  -24.4680  -36.7170   23.2690 C   0  0  0  0  0  1  0  0  0  0  0  0
  -25.7100  -36.1740   23.9930 C   0  0  0  0  0  3  0  0  0  0  0  0
  -27.9510  -36.8380   24.7460 C   0  0  0  0  0  1  0  0  0  0  0  0
  -26.8220  -37.1420   23.8710 N   0  0  0  0  0  0  0  0  0  0  0  0
  -26.5030  -38.0850   24.0810 H   0  0  0  0  0  0  0  0  0  0  0  0
  2  1  1  0
  3  5  1  0
  3  4  1  0
  4  7  1  0
  4  1  1  0
  5  6  1  1
  5  2  1  0
  7 11  1  0
  8 10  1  0
  8  9  2  0
  9 12  1  0
 10  7  2  0
 11 15  1  0
 12 11  2  0
 12 16  1  0
 13  8  1  0
 14 10  1  0
 17 25  1  0
 18 23  1  0
 19 20  1  0
 19 18  1  0
 21 20  1  0
 21 30  1  0
 21 22  1  0
 23 17  1  0
 23 22  1  0
 24 17  2  0
 25  9  1  0
 25 26  1  0
 27 28  2  0
 28 47  1  0
 29 28  1  0
 29 32  1  0
 30 31  1  0
 30 27  1  0
 31 29  2  0
 32 33  1  0
 33 34  2  0
 35 38  1  0
 35 34  1  0
 36 35  2  0
 37 36  1  0
 37 32  2  0
 38 39  1  0
 39 40  1  0
 40 41  2  0
 42 41  1  0
 42 46  1  0
 43 42  2  0
 44 39  2  0
 44 43  1  0
 45 44  1  0
 47 48  1  0
 48 51  1  0
 48 50  1  0
 49 47  2  0
 52 53  1  0
 52 27  1  0
 54 52  1  0
 56 55  1  0
 56  5  1  0
 57 58  1  0
 57 56  1  0
 59 61  1  0
 59 58  1  0
 60 71  2  0
 61 66  1  0
 62 70  1  0
 62 72  1  0
 63 69  1  0
 63 65  1  0
 64 70  1  0
 65 64  1  0
 66 65  2  0
 67 68  1  0
 67 61  2  0
 68 63  2  0
 69 62  1  0
 70 60  1  0
 72 74  2  0
 73 72  1  0
 75 73  1  0
 76 85  2  0
 76 81  1  0
 77 73  1  0
 77 81  1  0
 78 77  1  0
 79 80  1  0
 79 78  1  0
 80 76  1  0
 81 82  2  0
 82 83  1  0
 84 83  2  0
 85 84  1  0
 86 60  1  0
 86 91  1  0
 86 87  1  0
 87 90  1  1
 87 88  1  0
 89 87  1  0
 91 94  1  0
 92 96  1  0
 92 91  1  0
 93 92  2  0
 96 95  1  0
 98 96  1  0
 98 99  1  0
 98 97  1  0
M  ISO  4  17 100  25 100  58 101  59 101
M  END
>  <TORSDO>  (29) 
F 20

>  <SCORE>  (29) 
-12.482

>  <name>  (29) 
29

>  <ligand_id>  (29) 
29

>  <original_smiles>  (29) 
[H]c1c([H])c([H])c2c(c1[H])C([H])([H])C([H])([H])C([H])([H])C2([H])N([H])C(=O)C1([H])N(C(=O)C([H])(N([H])C(=O)C([H])(N([H])C([H])([H])[H])C([H])([H])[H])C(C([H])([H])[H])(C([H])([H])[H])C([H])([H])[H])C([H])([H])c2c([H])c(OC([H])([H])C([H])([H])C([H])(C([H])([H])[H])[N+]3([H])C([H])([H])C([H])([H])C([H])(c4c(F)c(F)c(N([H])C(=O)N5C([H])([H])C([H])([H])C([H])([H])C([H])(n6nc(-c7c([H])c([H])c(Oc8c([H])c([H])c(F)c([H])c8F)c([H])c7[H])c(C(=O)N([H])[H])c6N([H])[H])C5([H])[H])c(C([H])([H])[H])c4F)C3([H])[H])c([H])c([H])c2C1([H])[H]

>  <smiles>  (29) 
[H]c1c([H])c([H])c2c(c1[H])C([H])([H])C([H])([H])C([H])([H])C2([H])N([H])C(=O)C1([H])N(C(=O)C([H])(N([H])C(=O)C([H])(N([H])C([H])([H])[H])C([H])([H])[H])C(C([H])([H])[H])(C([H])([H])[H])C([H])([H])[H])C([H])([H])c2c([H])c(OC([H])([H])C([H])([H])C([H])(C([H])([H])[H])[N+]3([H])C([H])([H])C([H])([H])C([H])(c4c(F)c(F)c(N([H])C(=O)N5C([H])([H])C([H])([H])C([H])([H])C([H])(n6nc(-c7c([H])c([H])c(Oc8c([H])c([H])c(F)c([H])c8F)c([H])c7[H])c(C(=O)N([H])[H])c6N([H])[H])C5([H])[H])c(C([H])([H])[H])c4F)C3([H])[H])c([H])c([H])c2C1([H])[H]

$$$$
30:0:0
     RDKit          3D

 89 97  0  0  1  0  0  0  0  0999 V2000
  -28.8300  -22.6620   20.1190 C   0  0  0  0  0  0  0  0  0  0  0  0
  -28.8920  -21.2760   19.4350 C   0  0  0  0  0  0  0  0  0  0  0  0
  -29.5700  -20.1050   20.0260 C   0  0  0  0  0  0  0  0  0  0  0  0
  -29.5590  -22.1850   21.1960 C   0  0  0  0  0  0  0  0  0  0  0  0
  -30.7760  -20.2040   22.2400 C   0  0  0  0  0  1  0  0  0  0  0  0
  -29.9840  -20.8060   21.1800 N   0  0  0  0  0  0  0  0  0  0  0  0
  -28.1410  -21.0920   17.8930 Cl  0  0  0  0  0  0  0  0  0  0  0  0
  -29.9470  -23.1550   22.5640 Cl  0  0  0  0  0  0  0  0  0  0  0  0
  -27.9820  -24.2410   19.8650 C   0  0  0  0  0  2  0  0  0  0  0  0
  -28.2350  -25.8690   20.1620 O   0  0  0  0  0  0  0  0  0  0  0  0
  -24.6690  -31.9000   23.1110 C   0  0  0  0  0  0  0  0  0  0  0  0
  -27.2430  -27.0040   20.0680 C   0  0  0  0  0  0  0  0  0  0  0  0
  -23.4770  -30.4910   21.4840 C   0  0  0  0  0  3  0  0  0  0  0  0
  -24.9300  -28.8980   20.0430 C   0  0  0  0  0  0  0  0  0  0  0  0
  -26.0420  -30.7140   21.3200 C   0  0  0  0  0  2  0  0  0  0  0  0
  -26.1200  -29.3020   20.6610 C   0  0  0  0  0  0  0  0  0  0  0  0
  -27.2660  -28.3760   20.6520 C   0  0  0  0  0  3  0  0  0  0  0  0
  -26.0230  -26.7740   19.3900 C   0  0  0  0  0  3  0  0  0  0  0  0
  -24.9090  -27.6570   19.3860 C   0  0  0  0  0  3  0  0  0  0  0  0
  -23.7030  -29.8100   20.1060 C   0  0  0  0  0  2  0  0  0  0  0  0
  -24.7510  -31.0650   22.0240 N   0  0  0  0  0  0  0  0  0  0  0  0
  -23.5820  -32.1800   23.6420 O   0  0  0  0  0  0  0  0  0  0  0  0
  -22.7990  -29.4910   22.4580 C   0  0  0  0  0  0  0  0  0  0  0  0
  -21.4740  -29.2880   22.3240 N   0  0  0  0  0  0  0  0  0  0  0  0
  -23.4720  -28.8980   23.3040 O   0  0  0  0  0  0  0  0  0  0  0  0
  -20.9810  -29.8180   21.6200 H   0  0  0  0  0  0  0  0  0  0  0  0
  -18.1320  -27.9470   22.7880 C   0  0  0  0  0  0  0  0  0  0  0  0
  -20.6710  -28.3360   23.1010 C   0  0  0  0  0  3  0  0  0  0  0  0
  -20.8490  -26.8940   22.5690 C   0  0  0  0  0  2  0  0  0  0  0  0
  -19.7870  -26.4960   21.5390 C   0  0  0  0  0  2  0  0  0  0  0  0
  -18.3850  -26.5920   22.1480 C   0  0  0  0  0  2  0  0  0  0  0  0
  -19.2050  -28.7720   23.2210 C   0  0  0  0  0  0  0  0  0  0  0  0
  -18.9130  -30.0340   23.7830 C   0  0  0  0  0  3  0  0  0  0  0  0
  -17.5820  -30.4730   23.9140 C   0  0  0  0  0  3  0  0  0  0  0  0
  -16.5240  -29.6480   23.4950 C   0  0  0  0  0  3  0  0  0  0  0  0
  -16.8010  -28.3870   22.9380 C   0  0  0  0  0  3  0  0  0  0  0  0
  -25.9380  -32.5590   23.7330 C   0  0  0  0  0  3  0  0  0  0  0  0
  -25.6020  -33.9510   24.0850 N   0  0  0  0  0  0  0  0  0  0  0  0
  -25.9230  -35.0280   23.3560 C   0  0  0  0  0  0  0  0  0  0  0  0
  -26.5940  -34.9560   22.3240 O   0  0  0  0  0  0  0  0  0  0  0  0
  -25.0040  -34.0790   24.8890 H   0  0  0  0  0  0  0  0  0  0  0  0
  -24.1880  -36.8270   23.0370 C   0  0  0  0  0  1  0  0  0  0  0  0
  -25.4230  -36.4030   23.8480 C   0  0  0  0  0  3  0  0  0  0  0  0
  -27.5380  -37.2870   24.7320 C   0  0  0  0  0  1  0  0  0  0  0  0
  -26.4500  -37.4660   23.7750 N   0  0  0  0  0  0  0  0  0  0  0  0
  -26.0340  -38.3800   23.9370 H   0  0  0  0  0  0  0  0  0  0  0  0
  -26.4710  -31.7940   25.0080 C   0  0  1  0  0  0  0  0  0  0  0  0
  -25.3850  -31.5330   26.0790 C   0  0  0  0  0  1  0  0  0  0  0  0
  -27.0790  -30.4280   24.6200 C   0  0  0  0  0  1  0  0  0  0  0  0
  -27.6090  -32.6080   25.6690 C   0  0  0  0  0  1  0  0  0  0  0  0
  -30.1100  -18.4640   19.5620 C   0  0  0  0  0  2  0  0  0  0  0  0
  -30.6230  -15.5410   19.8550 C   0  0  0  0  0  0  0  0  0  0  0  0
  -30.5970  -13.0550   19.0470 C   0  0  0  0  0  2  0  0  0  0  0  0
  -29.6260  -12.7820   17.8690 C   0  0  0  0  0  2  0  0  0  0  0  0
  -28.2100  -12.4860   18.3890 C   0  0  0  0  0  2  0  0  0  0  0  0
  -27.7940  -13.4710   19.5100 C   0  0  0  0  0  3  0  0  0  0  0  0
  -28.8920  -13.6870   20.5760 C   0  0  0  0  0  2  0  0  0  0  0  0
  -30.0730  -14.2170   19.8710 N   0  0  0  0  0  0  0  0  0  0  0  0
  -31.8210  -15.5250   19.5320 O   0  0  0  0  0  0  0  0  0  0  0  0
  -29.8790  -16.8410   19.9920 N   0  0  0  0  0  0  0  0  0  0  0  0
  -28.9290  -16.6750   20.2920 H   0  0  0  0  0  0  0  0  0  0  0  0
  -25.4820  -14.0120   20.4290 C   0  0  0  0  0  0  0  0  0  0  0  0
  -24.4410  -13.2290   20.8400 C   0  0  0  0  0  0  0  0  0  0  0  0
  -24.8960  -11.8780   20.7400 C   0  0  0  0  0  0  0  0  0  0  0  0
  -26.5010  -13.1400   20.0940 N   0  0  0  0  0  0  0  0  0  0  0  0
  -26.1670  -11.8470   20.3480 N   0  0  0  0  0  0  0  0  0  0  0  0
  -24.1730  -10.6140   20.9350 C   0  0  0  0  0  0  0  0  0  0  0  0
  -24.6080   -9.6490   21.8690 C   0  0  0  0  0  3  0  0  0  0  0  0
  -23.8810   -8.4530   22.0550 C   0  0  0  0  0  3  0  0  0  0  0  0
  -22.7040   -8.2140   21.3070 C   0  0  0  0  0  0  0  0  0  0  0  0
  -22.2870   -9.1680   20.3620 C   0  0  0  0  0  3  0  0  0  0  0  0
  -23.0150  -10.3550   20.1750 C   0  0  0  0  0  3  0  0  0  0  0  0
  -21.9480   -7.0700   21.4020 O   0  0  0  0  0  0  0  0  0  0  0  0
  -21.8440   -6.3720   22.5790 C   0  0  0  0  0  0  0  0  0  0  0  0
  -21.3170   -6.9600   23.7500 C   0  0  0  0  0  3  0  0  0  0  0  0
  -21.1630   -6.1860   24.9170 C   0  0  0  0  0  3  0  0  0  0  0  0
  -21.5250   -4.8270   24.9150 C   0  0  0  0  0  0  0  0  0  0  0  0
  -22.0440   -4.2380   23.7490 C   0  0  0  0  0  3  0  0  0  0  0  0
  -22.2000   -5.0080   22.5830 C   0  0  0  0  0  0  0  0  0  0  0  0
  -22.6810   -4.4310   21.4560 F   0  0  0  0  0  0  0  0  0  0  0  0
  -21.3700   -4.0810   26.0350 F   0  0  0  0  0  0  0  0  0  0  0  0
  -23.0660  -13.7050   21.2050 C   0  0  0  0  0  0  0  0  0  0  0  0
  -22.3970  -13.0060   22.1150 N   0  0  0  0  0  0  0  0  0  0  0  0
  -22.5980  -14.7350   20.7190 O   0  0  0  0  0  0  0  0  0  0  0  0
  -22.7920  -12.1750   22.5280 H   0  0  0  0  0  0  0  0  0  0  0  0
  -21.4770  -13.3080   22.4030 H   0  0  0  0  0  0  0  0  0  0  0  0
  -25.6410  -15.3870   20.2800 N   0  0  0  0  0  0  0  0  0  0  0  0
  -24.8790  -16.0360   20.4470 H   0  0  0  0  0  0  0  0  0  0  0  0
  -26.4540  -15.8290   19.8720 H   0  0  0  0  0  0  0  0  0  0  0  0
  1  4  2  0
  2  3  2  0
  2  1  1  0
  3  6  1  0
  4  8  1  0
  6  4  1  0
  6  5  1  0
  7  2  1  0
  9  1  1  0
  9 10  1  0
 11 22  2  0
 12 10  1  0
 12 17  1  0
 13 21  1  0
 13 23  1  0
 14 20  1  0
 14 16  1  0
 15 21  1  0
 16 15  1  0
 17 16  2  0
 18 12  2  0
 19 18  1  0
 19 14  2  0
 20 13  1  0
 21 11  1  0
 23 25  2  0
 24 23  1  0
 26 24  1  0
 27 36  2  0
 27 32  1  0
 28 24  1  0
 28 32  1  0
 29 28  1  0
 30 31  1  0
 30 29  1  0
 31 27  1  0
 32 33  2  0
 33 34  1  0
 35 34  2  0
 36 35  1  0
 37 11  1  0
 37 38  1  0
 37 47  1  0
 38 41  1  0
 39 43  1  0
 39 38  1  0
 40 39  2  0
 43 42  1  0
 45 43  1  0
 45 46  1  0
 45 44  1  0
 47 50  1  1
 47 48  1  0
 49 47  1  0
 51 60  1  0
 51  3  1  0
 52 58  1  0
 52 60  1  0
 53 58  1  0
 54 55  1  0
 54 53  1  0
 56 55  1  0
 56 65  1  0
 56 57  1  0
 58 57  1  0
 59 52  2  0
 60 61  1  0
 62 63  2  0
 63 82  1  0
 64 63  1  0
 64 67  1  0
 65 66  1  0
 65 62  1  0
 66 64  2  0
 67 68  1  0
 68 69  2  0
 70 73  1  0
 70 69  1  0
 71 70  2  0
 72 71  1  0
 72 67  2  0
 73 74  1  0
 74 79  2  0
 74 75  1  0
 75 76  2  0
 77 76  1  0
 77 81  1  0
 78 77  2  0
 79 78  1  0
 80 79  1  0
 82 83  1  0
 83 86  1  0
 83 85  1  0
 84 82  2  0
 87 62  1  0
 87 88  1  0
 89 87  1  0
M  ISO  4   9 101  10 101  52 100  60 100
M  END
>  <TORSDO>  (30) 
F 18

>  <SCORE>  (30) 
-16.619

>  <name>  (30) 
30

>  <ligand_id>  (30) 
30

>  <original_smiles>  (30) 
[H]c1c([H])c([H])c2c(c1[H])C([H])([H])C([H])([H])C([H])([H])C2([H])N([H])C(=O)C1([H])N(C(=O)C([H])(N([H])C(=O)C([H])(N([H])C([H])([H])[H])C([H])([H])[H])C(C([H])([H])[H])(C([H])([H])[H])C([H])([H])[H])C([H])([H])c2c([H])c(OC([H])([H])c3c(Cl)c(C([H])([H])N([H])C(=O)N4C([H])([H])C([H])([H])C([H])([H])C([H])(n5nc(-c6c([H])c([H])c(Oc7c([H])c([H])c(F)c([H])c7F)c([H])c6[H])c(C(=O)N([H])[H])c5N([H])[H])C4([H])[H])n(C([H])([H])[H])c3Cl)c([H])c([H])c2C1([H])[H]

>  <smiles>  (30) 
[H]c1c([H])c([H])c2c(c1[H])C([H])([H])C([H])([H])C([H])([H])C2([H])N([H])C(=O)C1([H])N(C(=O)C([H])(N([H])C(=O)C([H])(N([H])C([H])([H])[H])C([H])([H])[H])C(C([H])([H])[H])(C([H])([H])[H])C([H])([H])[H])C([H])([H])c2c([H])c(OC([H])([H])c3c(Cl)c(C([H])([H])N([H])C(=O)N4C([H])([H])C([H])([H])C([H])([H])C([H])(n5nc(-c6c([H])c([H])c(Oc7c([H])c([H])c(F)c([H])c7F)c([H])c6[H])c(C(=O)N([H])[H])c5N([H])[H])C4([H])[H])n(C([H])([H])[H])c3Cl)c([H])c([H])c2C1([H])[H]

$$$$
31:0:0
     RDKit          3D

 97105  0  0  1  0  0  0  0  0999 V2000
  -31.5540  -18.2610   22.1270 C   0  0  0  0  0  3  0  0  0  0  0  0
  -30.7760  -19.3540   21.6900 C   0  0  0  0  0  0  0  0  0  0  0  0
  -29.6200  -19.1380   20.8940 C   0  0  0  0  0  0  0  0  0  0  0  0
  -30.0590  -16.6850   21.0180 C   0  0  0  0  0  0  0  0  0  0  0  0
  -31.1800  -16.9260   21.8550 C   0  0  0  0  0  0  0  0  0  0  0  0
  -29.2790  -17.7890   20.5570 C   0  0  0  0  0  0  0  0  0  0  0  0
  -31.1630  -20.7440   22.1870 C   0  0  0  0  0  1  0  0  0  0  0  0
  -27.8490  -17.4480   19.6380 Cl  0  0  0  0  0  0  0  0  0  0  0  0
  -30.2050  -14.4290   19.9400 C   0  0  0  0  0  0  0  0  0  0  0  0
  -29.7390  -12.4100   18.5840 C   0  0  0  0  0  2  0  0  0  0  0  0
  -28.6510  -12.7400   17.5420 C   0  0  0  0  0  2  0  0  0  0  0  0
  -27.2390  -12.5560   18.1320 C   0  0  0  0  0  2  0  0  0  0  0  0
  -27.0760  -13.2190   19.5260 C   0  0  0  0  0  3  0  0  0  0  0  0
  -28.2660  -12.8810   20.4530 C   0  0  0  0  0  2  0  0  0  0  0  0
  -29.5070  -13.2710   19.7570 N   0  0  0  0  0  0  0  0  0  0  0  0
  -31.2380  -14.6790   19.3120 O   0  0  0  0  0  0  0  0  0  0  0  0
  -29.6190  -15.3470   20.7390 N   0  0  0  0  0  0  0  0  0  0  0  0
  -28.6950  -15.1140   21.0660 H   0  0  0  0  0  0  0  0  0  0  0  0
  -24.7320  -13.6820   20.4810 C   0  0  0  0  0  0  0  0  0  0  0  0
  -23.7480  -12.8540   20.9370 C   0  0  0  0  0  0  0  0  0  0  0  0
  -24.2640  -11.5270   20.8210 C   0  0  0  0  0  0  0  0  0  0  0  0
  -25.7930  -12.8650   20.1280 N   0  0  0  0  0  0  0  0  0  0  0  0
  -25.5170  -11.5590   20.3820 N   0  0  0  0  0  0  0  0  0  0  0  0
  -23.6150  -10.2310   21.0490 C   0  0  0  0  0  0  0  0  0  0  0  0
  -24.1430   -9.2900   21.9620 C   0  0  0  0  0  3  0  0  0  0  0  0
  -23.4890   -8.0580   22.1780 C   0  0  0  0  0  3  0  0  0  0  0  0
  -22.2940   -7.7560   21.4810 C   0  0  0  0  0  0  0  0  0  0  0  0
  -21.7870   -8.6850   20.5560 C   0  0  0  0  0  3  0  0  0  0  0  0
  -22.4430   -9.9100   20.3380 C   0  0  0  0  0  3  0  0  0  0  0  0
  -21.6050   -6.5750   21.6070 O   0  0  0  0  0  0  0  0  0  0  0  0
  -21.6150   -5.8560   22.7760 C   0  0  0  0  0  0  0  0  0  0  0  0
  -21.1890   -6.4180   23.9990 C   0  0  0  0  0  3  0  0  0  0  0  0
  -21.1510   -5.6250   25.1630 C   0  0  0  0  0  3  0  0  0  0  0  0
  -21.5330   -4.2710   25.1070 C   0  0  0  0  0  0  0  0  0  0  0  0
  -21.9510   -3.7080   23.8880 C   0  0  0  0  0  3  0  0  0  0  0  0
  -21.9900   -4.4970   22.7260 C   0  0  0  0  0  0  0  0  0  0  0  0
  -22.3760   -3.9470   21.5490 F   0  0  0  0  0  0  0  0  0  0  0  0
  -21.4890   -3.5050   26.2220 F   0  0  0  0  0  0  0  0  0  0  0  0
  -22.3670  -13.2550   21.3680 C   0  0  0  0  0  0  0  0  0  0  0  0
  -21.7850  -12.5350   22.3180 N   0  0  0  0  0  0  0  0  0  0  0  0
  -21.8180  -14.2520   20.8990 O   0  0  0  0  0  0  0  0  0  0  0  0
  -22.2440  -11.7300   22.7190 H   0  0  0  0  0  0  0  0  0  0  0  0
  -20.8630  -12.7900   22.6510 H   0  0  0  0  0  0  0  0  0  0  0  0
  -24.8040  -15.0640   20.3190 N   0  0  0  0  0  0  0  0  0  0  0  0
  -24.0290  -15.6720   20.5630 H   0  0  0  0  0  0  0  0  0  0  0  0
  -25.5770  -15.5620   19.8980 H   0  0  0  0  0  0  0  0  0  0  0  0
  -28.6710  -20.3210   20.5800 C   0  0  0  0  0  2  0  0  0  0  0  0
  -29.2600  -21.5650   19.9970 N   0  0  0  0  0  4  0  0  0  0  0  0
  -29.2440  -21.4760   18.9930 H   0  0  0  0  0  0  0  0  0  0  0  0
  -30.2190  -21.6440   20.2850 H   0  0  0  0  0  0  0  0  0  0  0  0
  -28.4920  -22.7930   20.3710 C   0  0  0  0  0  2  0  0  0  0  0  0
  -29.0630  -24.1760   19.9220 C   0  0  0  0  0  2  0  0  0  0  0  0
  -28.1570  -25.3250   20.4330 C   0  0  0  0  0  2  0  0  0  0  0  0
  -28.3230  -26.6040   19.7820 O   0  0  0  0  0  0  0  0  0  0  0  0
  -24.5610  -31.6880   23.0980 C   0  0  0  0  0  0  0  0  0  0  0  0
  -27.1790  -27.3820   19.7890 C   0  0  0  0  0  0  0  0  0  0  0  0
  -23.3390  -30.3450   21.4170 C   0  0  0  0  0  3  0  0  0  0  0  0
  -24.7810  -28.8800   19.9040 C   0  0  0  0  0  0  0  0  0  0  0  0
  -25.8690  -30.7220   21.2050 C   0  0  0  0  0  2  0  0  0  0  0  0
  -25.9500  -29.3860   20.4910 C   0  0  0  0  0  0  0  0  0  0  0  0
  -27.1560  -28.6440   20.4290 C   0  0  0  0  0  3  0  0  0  0  0  0
  -25.9990  -26.9130   19.1690 C   0  0  0  0  0  3  0  0  0  0  0  0
  -24.8010  -27.6420   19.2430 C   0  0  0  0  0  3  0  0  0  0  0  0
  -23.5250  -29.7110   20.0160 C   0  0  0  0  0  2  0  0  0  0  0  0
  -24.6070  -30.9320   21.9620 N   0  0  0  0  0  0  0  0  0  0  0  0
  -23.4840  -31.9350   23.6600 O   0  0  0  0  0  0  0  0  0  0  0  0
  -22.7030  -29.2860   22.3460 C   0  0  0  0  0  0  0  0  0  0  0  0
  -21.3750  -29.1190   22.2430 N   0  0  0  0  0  0  0  0  0  0  0  0
  -23.4060  -28.6150   23.1080 O   0  0  0  0  0  0  0  0  0  0  0  0
  -20.8760  -29.7100   21.5930 H   0  0  0  0  0  0  0  0  0  0  0  0
  -17.9920  -27.9630   22.7770 C   0  0  0  0  0  0  0  0  0  0  0  0
  -20.5620  -28.1520   22.9800 C   0  0  0  0  0  3  0  0  0  0  0  0
  -20.6140  -26.7570   22.3160 C   0  0  0  0  0  2  0  0  0  0  0  0
  -19.4750  -26.5190   21.3220 C   0  0  0  0  0  2  0  0  0  0  0  0
  -18.1170  -26.6540   22.0180 C   0  0  0  0  0  2  0  0  0  0  0  0
  -19.1390  -28.6780   23.2090 C   0  0  0  0  0  0  0  0  0  0  0  0
  -18.9670  -29.9100   23.8750 C   0  0  0  0  0  3  0  0  0  0  0  0
  -17.6800  -30.4250   24.1180 C   0  0  0  0  0  3  0  0  0  0  0  0
  -16.5460  -29.7020   23.7050 C   0  0  0  0  0  3  0  0  0  0  0  0
  -16.7040  -28.4730   23.0390 C   0  0  0  0  0  3  0  0  0  0  0  0
  -25.8510  -32.2960   23.7330 C   0  0  0  0  0  3  0  0  0  0  0  0
  -25.5490  -33.6840   24.1010 N   0  0  0  0  0  0  0  0  0  0  0  0
  -25.8890  -34.7570   23.3740 C   0  0  0  0  0  0  0  0  0  0  0  0
  -26.5620  -34.6820   22.3420 O   0  0  0  0  0  0  0  0  0  0  0  0
  -24.9610  -33.8210   24.9100 H   0  0  0  0  0  0  0  0  0  0  0  0
  -24.1620  -36.5610   23.0840 C   0  0  0  0  0  1  0  0  0  0  0  0
  -25.4110  -36.1350   23.8720 C   0  0  0  0  0  3  0  0  0  0  0  0
  -27.5550  -36.9880   24.7110 C   0  0  0  0  0  1  0  0  0  0  0  0
  -26.4470  -37.1860   23.7810 N   0  0  0  0  0  0  0  0  0  0  0  0
  -26.0460  -38.1030   23.9630 H   0  0  0  0  0  0  0  0  0  0  0  0
  -26.3720  -31.4880   24.9860 C   0  0  1  0  0  0  0  0  0  0  0  0
  -25.2870  -31.2130   26.0540 C   0  0  0  0  0  1  0  0  0  0  0  0
  -26.9570  -30.1250   24.5510 C   0  0  0  0  0  1  0  0  0  0  0  0
  -27.5240  -32.2690   25.6660 C   0  0  0  0  0  1  0  0  0  0  0  0
  -31.8460  -15.8560   22.4210 O   0  0  0  0  0  0  0  0  0  0  0  0
  -32.0490  -14.2650   24.2560 C   0  0  0  0  0  1  0  0  0  0  0  0
  -31.7420  -15.7120   23.8410 C   0  0  0  0  0  2  0  0  0  0  0  0
  2  1  2  0
  2  7  1  0
  3  2  1  0
  4  5  2  0
  5  1  1  0
  5 95  1  0
  6  3  2  0
  6  4  1  0
  8  6  1  0
  9 17  1  0
 10 15  1  0
 11 12  1  0
 11 10  1  0
 13 12  1  0
 13 22  1  0
 13 14  1  0
 15  9  1  0
 15 14  1  0
 16  9  2  0
 17  4  1  0
 17 18  1  0
 19 20  2  0
 20 39  1  0
 21 20  1  0
 21 24  1  0
 22 23  1  0
 22 19  1  0
 23 21  2  0
 24 25  1  0
 25 26  2  0
 27 30  1  0
 27 26  1  0
 28 27  2  0
 29 28  1  0
 29 24  2  0
 30 31  1  0
 31 32  1  0
 32 33  2  0
 34 33  1  0
 34 38  1  0
 35 34  2  0
 36 31  2  0
 36 35  1  0
 37 36  1  0
 39 40  1  0
 40 43  1  0
 40 42  1  0
 41 39  2  0
 44 19  1  0
 44 45  1  0
 46 44  1  0
 47  3  1  0
 48 50  1  0
 48 51  1  0
 48 47  1  0
 49 48  1  0
 52 51  1  0
 52 53  1  0
 54 56  1  0
 54 53  1  0
 55 66  2  0
 56 61  1  0
 57 65  1  0
 57 67  1  0
 58 64  1  0
 58 60  1  0
 59 65  1  0
 60 59  1  0
 61 60  2  0
 62 63  1  0
 62 56  2  0
 63 58  2  0
 64 57  1  0
 65 55  1  0
 67 69  2  0
 68 67  1  0
 70 68  1  0
 71 80  2  0
 71 76  1  0
 72 68  1  0
 72 76  1  0
 73 72  1  0
 74 75  1  0
 74 73  1  0
 75 71  1  0
 76 77  2  0
 77 78  1  0
 79 78  2  0
 80 79  1  0
 81 55  1  0
 81 82  1  0
 81 91  1  0
 82 85  1  0
 83 87  1  0
 83 82  1  0
 84 83  2  0
 87 86  1  0
 89 87  1  0
 89 90  1  0
 89 88  1  0
 91 94  1  1
 91 92  1  0
 93 91  1  0
 95 97  1  0
 97 96  1  0
M  ISO  4   9 100  17 100  53 101  54 101
M  END
>  <TORSDO>  (31) 
F 23

>  <SCORE>  (31) 
-3.657

>  <name>  (31) 
31

>  <ligand_id>  (31) 
31

>  <original_smiles>  (31) 
[H]c1c([H])c([H])c2c(c1[H])C([H])([H])C([H])([H])C([H])([H])C2([H])N([H])C(=O)C1([H])N(C(=O)C([H])(N([H])C(=O)C([H])(N([H])C([H])([H])[H])C([H])([H])[H])C(C([H])([H])[H])(C([H])([H])[H])C([H])([H])[H])C([H])([H])c2c([H])c(OC([H])([H])C([H])([H])C([H])([H])[N+]([H])([H])C([H])([H])c3c(Cl)c(N([H])C(=O)N4C([H])([H])C([H])([H])C([H])([H])C([H])(n5nc(-c6c([H])c([H])c(Oc7c([H])c([H])c(F)c([H])c7F)c([H])c6[H])c(C(=O)N([H])[H])c5N([H])[H])C4([H])[H])c(OC([H])([H])C([H])([H])[H])c([H])c3C([H])([H])[H])c([H])c([H])c2C1([H])[H]

>  <smiles>  (31) 
[H]c1c([H])c([H])c2c(c1[H])C([H])([H])C([H])([H])C([H])([H])C2([H])N([H])C(=O)C1([H])N(C(=O)C([H])(N([H])C(=O)C([H])(N([H])C([H])([H])[H])C([H])([H])[H])C(C([H])([H])[H])(C([H])([H])[H])C([H])([H])[H])C([H])([H])c2c([H])c(OC([H])([H])C([H])([H])C([H])([H])[N+]([H])([H])C([H])([H])c3c(Cl)c(N([H])C(=O)N4C([H])([H])C([H])([H])C([H])([H])C([H])(n5nc(-c6c([H])c([H])c(Oc7c([H])c([H])c(F)c([H])c7F)c([H])c6[H])c(C(=O)N([H])[H])c5N([H])[H])C4([H])[H])c(OC([H])([H])C([H])([H])[H])c([H])c3C([H])([H])[H])c([H])c([H])c2C1([H])[H]

$$$$
32:0:0
     RDKit          3D

101110  0  0  1  0  0  0  0  0999 V2000
  -28.9430  -23.8830   20.3480 C   0  0  0  0  0  3  0  0  0  0  0  0
  -26.3030  -23.5120   21.1610 C   0  0  0  0  0  3  0  0  0  0  0  0
  -28.2810  -24.9800   20.9760 C   0  0  0  0  0  0  0  0  0  0  0  0
  -28.3210  -22.6310   20.1460 C   0  0  0  0  0  0  0  0  0  0  0  0
  -26.9350  -24.7480   21.4070 C   0  0  0  0  0  0  0  0  0  0  0  0
  -26.9790  -22.4600   20.5280 C   0  0  0  0  0  0  0  0  0  0  0  0
  -25.9610  -25.8980   22.2540 Cl  0  0  0  0  0  0  0  0  0  0  0  0
  -26.1600  -20.9640   20.2440 Cl  0  0  0  0  0  0  0  0  0  0  0  0
  -28.9460  -26.8850   22.6280 C   0  0  0  0  0  1  0  0  0  0  0  0
  -30.5680  -26.1780   20.9410 C   0  0  0  0  0  1  0  0  0  0  0  0
  -29.0490  -26.3320   21.1840 C   0  0  1  0  0  0  0  0  0  0  0  0
  -28.7570  -27.3350   20.1870 O   0  0  0  0  0  0  0  0  0  0  0  0
  -24.6510  -32.1070   23.5140 C   0  0  0  0  0  0  0  0  0  0  0  0
  -27.5660  -28.0190   20.2340 C   0  0  0  0  0  0  0  0  0  0  0  0
  -23.5550  -30.7910   21.7250 C   0  0  0  0  0  3  0  0  0  0  0  0
  -25.1170  -29.4210   20.2430 C   0  0  0  0  0  0  0  0  0  0  0  0
  -26.0670  -31.2620   21.6470 C   0  0  0  0  0  2  0  0  0  0  0  0
  -26.2280  -29.9470   20.9160 C   0  0  0  0  0  0  0  0  0  0  0  0
  -27.4570  -29.2560   20.9060 C   0  0  0  0  0  3  0  0  0  0  0  0
  -26.4520  -27.5130   19.5340 C   0  0  0  0  0  3  0  0  0  0  0  0
  -25.2230  -28.2030   19.5470 C   0  0  0  0  0  3  0  0  0  0  0  0
  -23.8380  -30.2240   20.3070 C   0  0  0  0  0  2  0  0  0  0  0  0
  -24.7730  -31.3970   22.3560 N   0  0  0  0  0  0  0  0  0  0  0  0
  -23.5430  -32.2980   24.0340 O   0  0  0  0  0  0  0  0  0  0  0  0
  -22.9100  -29.6810   22.5840 C   0  0  0  0  0  0  0  0  0  0  0  0
  -21.5990  -29.4650   22.3950 N   0  0  0  0  0  0  0  0  0  0  0  0
  -23.5860  -29.0220   23.3770 O   0  0  0  0  0  0  0  0  0  0  0  0
  -21.1110  -30.0530   21.7350 H   0  0  0  0  0  0  0  0  0  0  0  0
  -18.2430  -28.1770   22.7400 C   0  0  0  0  0  0  0  0  0  0  0  0
  -20.7930  -28.4450   23.0640 C   0  0  0  0  0  3  0  0  0  0  0  0
  -20.9240  -27.0780   22.3530 C   0  0  0  0  0  2  0  0  0  0  0  0
  -19.8380  -26.8400   21.3000 C   0  0  0  0  0  2  0  0  0  0  0  0
  -18.4480  -26.9030   21.9390 C   0  0  0  0  0  2  0  0  0  0  0  0
  -19.3450  -28.9100   23.2550 C   0  0  0  0  0  0  0  0  0  0  0  0
  -19.1010  -30.1080   23.9610 C   0  0  0  0  0  3  0  0  0  0  0  0
  -17.7860  -30.5730   24.1580 C   0  0  0  0  0  3  0  0  0  0  0  0
  -16.6980  -29.8360   23.6590 C   0  0  0  0  0  3  0  0  0  0  0  0
  -16.9280  -28.6400   22.9550 C   0  0  0  0  0  3  0  0  0  0  0  0
  -25.8920  -32.7310   24.2260 C   0  0  0  0  0  3  0  0  0  0  0  0
  -26.2940  -31.9750   25.5520 C   0  0  1  0  0  0  0  0  0  0  0  0
  -25.1100  -31.7430   26.5190 C   0  0  0  0  0  1  0  0  0  0  0  0
  -26.9180  -30.5990   25.2230 C   0  0  0  0  0  1  0  0  0  0  0  0
  -27.3750  -32.7840   26.3080 C   0  0  0  0  0  1  0  0  0  0  0  0
  -25.5790  -34.1380   24.5050 N   0  0  0  0  0  0  0  0  0  0  0  0
  -25.9940  -35.1710   23.7590 C   0  0  0  0  0  0  0  0  0  0  0  0
  -26.7510  -35.0380   22.7920 O   0  0  0  0  0  0  0  0  0  0  0  0
  -24.9200  -34.3180   25.2480 H   0  0  0  0  0  0  0  0  0  0  0  0
  -24.3330  -36.9790   23.2210 C   0  0  0  0  0  1  0  0  0  0  0  0
  -25.4920  -36.5740   24.1460 C   0  0  0  0  0  3  0  0  0  0  0  0
  -27.5630  -37.4410   25.1400 C   0  0  0  0  0  1  0  0  0  0  0  0
  -26.5470  -37.6100   24.1040 N   0  0  0  0  0  0  0  0  0  0  0  0
  -26.1460  -38.5390   24.2040 H   0  0  0  0  0  0  0  0  0  0  0  0
  -29.0110  -21.6080   19.5350 O   0  0  0  0  0  0  0  0  0  0  0  0
  -32.1600  -21.1060   21.5040 C   0  0  0  0  0  3  0  0  0  0  0  0
  -31.7250  -19.1390   20.1200 C   0  0  0  0  0  0  0  0  0  0  0  0
  -30.1740  -21.0730   20.0700 C   0  0  0  0  0  0  0  0  0  0  0  0
  -31.0110  -21.7400   21.0030 C   0  0  0  0  0  0  0  0  0  0  0  0
  -32.5220  -19.8190   21.0700 C   0  0  0  0  0  0  0  0  0  0  0  0
  -30.5370  -19.7670   19.6470 C   0  0  0  0  0  0  0  0  0  0  0  0
  -30.7440  -22.9970   21.4360 F   0  0  0  0  0  0  0  0  0  0  0  0
  -33.9720  -19.1150   21.6980 Cl  0  0  0  0  0  0  0  0  0  0  0  0
  -29.5050  -18.9560   18.5160 Cl  0  0  0  0  0  0  0  0  0  0  0  0
  -32.2180  -17.8130   19.5250 C   0  0  0  0  0  2  0  0  0  0  0  0
  -32.4050  -15.4390   20.1140 C   0  0  0  0  0  0  0  0  0  0  0  0
  -32.2800  -12.9810   20.0610 C   0  0  0  0  0  2  0  0  0  0  0  0
  -31.4940  -12.5350   18.8130 C   0  0  0  0  0  2  0  0  0  0  0  0
  -29.9840  -12.4870   19.1160 C   0  0  0  0  0  2  0  0  0  0  0  0
  -29.4680  -13.7800   19.8050 C   0  0  0  0  0  3  0  0  0  0  0  0
  -30.3840  -14.1940   20.9790 C   0  0  0  0  0  2  0  0  0  0  0  0
  -31.7610  -14.2960   20.4690 N   0  0  0  0  0  0  0  0  0  0  0  0
  -33.5650  -15.4430   19.6930 O   0  0  0  0  0  0  0  0  0  0  0  0
  -31.6810  -16.5710   20.1030 N   0  0  0  0  0  0  0  0  0  0  0  0
  -30.7240  -16.5450   20.4230 H   0  0  0  0  0  0  0  0  0  0  0  0
  -27.1210  -14.6150   20.4470 C   0  0  0  0  0  0  0  0  0  0  0  0
  -25.9650  -13.9510   20.7580 C   0  0  0  0  0  0  0  0  0  0  0  0
  -26.2840  -12.5590   20.7070 C   0  0  0  0  0  0  0  0  0  0  0  0
  -28.0770  -13.6350   20.2290 N   0  0  0  0  0  0  0  0  0  0  0  0
  -27.5750  -12.3920   20.4410 N   0  0  0  0  0  0  0  0  0  0  0  0
  -25.4250  -11.3770   20.8370 C   0  0  0  0  0  0  0  0  0  0  0  0
  -25.6570  -10.4000   21.8310 C   0  0  0  0  0  3  0  0  0  0  0  0
  -24.8040   -9.2810   21.9480 C   0  0  0  0  0  3  0  0  0  0  0  0
  -23.7060   -9.1300   21.0690 C   0  0  0  0  0  0  0  0  0  0  0  0
  -23.4930  -10.0920   20.0670 C   0  0  0  0  0  3  0  0  0  0  0  0
  -24.3450  -11.2040   19.9480 C   0  0  0  0  0  3  0  0  0  0  0  0
  -22.8400   -8.0640   21.0930 O   0  0  0  0  0  0  0  0  0  0  0  0
  -22.4760   -7.4570   22.2680 C   0  0  0  0  0  0  0  0  0  0  0  0
  -21.8520   -8.1710   23.3140 C   0  0  0  0  0  3  0  0  0  0  0  0
  -21.4330   -7.4940   24.4760 C   0  0  0  0  0  3  0  0  0  0  0  0
  -21.6260   -6.1060   24.5920 C   0  0  0  0  0  0  0  0  0  0  0  0
  -22.2430   -5.3910   23.5490 C   0  0  0  0  0  3  0  0  0  0  0  0
  -22.6640   -6.0660   22.3890 C   0  0  0  0  0  0  0  0  0  0  0  0
  -23.2380   -5.3690   21.3790 F   0  0  0  0  0  0  0  0  0  0  0  0
  -21.2170   -5.4530   25.7040 F   0  0  0  0  0  0  0  0  0  0  0  0
  -24.6170  -14.5660   20.9960 C   0  0  0  0  0  0  0  0  0  0  0  0
  -23.8050  -13.9500   21.8490 N   0  0  0  0  0  0  0  0  0  0  0  0
  -24.2940  -15.6250   20.4620 O   0  0  0  0  0  0  0  0  0  0  0  0
  -24.0770  -13.0910   22.3020 H   0  0  0  0  0  0  0  0  0  0  0  0
  -22.8970  -14.3450   22.0500 H   0  0  0  0  0  0  0  0  0  0  0  0
  -27.4350  -15.9650   20.3120 N   0  0  0  0  0  0  0  0  0  0  0  0
  -26.7370  -16.6930   20.4130 H   0  0  0  0  0  0  0  0  0  0  0  0
  -28.3370  -16.3180   20.0170 H   0  0  0  0  0  0  0  0  0  0  0  0
  1  3  1  0
  2  5  1  0
  3 11  1  0
  3  5  2  0
  4  1  2  0
  4  6  1  0
  5  7  1  0
  6  2  2  0
  8  6  1  0
 11 10  1  6
 11  9  1  0
 12 14  1  0
 12 11  1  0
 13 24  2  0
 14 19  1  0
 15 23  1  0
 15 25  1  0
 16 22  1  0
 16 18  1  0
 17 23  1  0
 18 17  1  0
 19 18  2  0
 20 21  1  0
 20 14  2  0
 21 16  2  0
 22 15  1  0
 23 13  1  0
 25 27  2  0
 26 25  1  0
 28 26  1  0
 29 38  2  0
 29 34  1  0
 30 26  1  0
 30 34  1  0
 31 30  1  0
 32 33  1  0
 32 31  1  0
 33 29  1  0
 34 35  2  0
 35 36  1  0
 37 36  2  0
 38 37  1  0
 39 13  1  0
 39 44  1  0
 39 40  1  0
 40 43  1  1
 40 41  1  0
 42 40  1  0
 44 47  1  0
 45 49  1  0
 45 44  1  0
 46 45  2  0
 49 48  1  0
 51 49  1  0
 51 52  1  0
 51 50  1  0
 53 56  1  0
 53  4  1  0
 55 58  2  0
 56 57  1  0
 57 60  1  0
 57 54  2  0
 58 54  1  0
 58 61  1  0
 59 56  2  0
 59 55  1  0
 62 59  1  0
 63 72  1  0
 63 55  1  0
 64 70  1  0
 65 70  1  0
 66 67  1  0
 66 65  1  0
 68 67  1  0
 68 77  1  0
 68 69  1  0
 70 69  1  0
 71 64  2  0
 72 64  1  0
 72 73  1  0
 74 75  2  0
 75 94  1  0
 76 75  1  0
 76 79  1  0
 77 78  1  0
 77 74  1  0
 78 76  2  0
 79 80  1  0
 80 81  2  0
 82 85  1  0
 82 81  1  0
 83 82  2  0
 84 83  1  0
 84 79  2  0
 85 86  1  0
 86 91  2  0
 86 87  1  0
 87 88  2  0
 88 89  1  0
 89 93  1  0
 90 89  2  0
 91 90  1  0
 92 91  1  0
 94 95  1  0
 95 98  1  0
 95 97  1  0
 96 94  2  0
 99100  1  0
 99 74  1  0
101 99  1  0
M  ISO  4  11 101  12 101  64 100  72 100
M  END
>  <TORSDO>  (32) 
F 20

>  <SCORE>  (32) 
-9.896

>  <name>  (32) 
32

>  <ligand_id>  (32) 
32

>  <original_smiles>  (32) 
[H]c1c([H])c([H])c2c(c1[H])C([H])([H])C([H])([H])C([H])([H])C2([H])N([H])C(=O)C1([H])N(C(=O)C([H])(N([H])C(=O)C([H])(N([H])C([H])([H])[H])C([H])([H])[H])C(C([H])([H])[H])(C([H])([H])[H])C([H])([H])[H])C([H])([H])c2c([H])c(OC(c3c([H])c(Oc4c(F)c([H])c(Cl)c(C([H])([H])N([H])C(=O)N5C([H])([H])C([H])([H])C([H])([H])C([H])(n6nc(-c7c([H])c([H])c(Oc8c([H])c([H])c(F)c([H])c8F)c([H])c7[H])c(C(=O)N([H])[H])c6N([H])[H])C5([H])[H])c4Cl)c(Cl)c([H])c3Cl)(C([H])([H])[H])C([H])([H])[H])c([H])c([H])c2C1([H])[H]

>  <smiles>  (32) 
[H]c1c([H])c([H])c2c(c1[H])C([H])([H])C([H])([H])C([H])([H])C2([H])N([H])C(=O)C1([H])N(C(=O)C([H])(N([H])C(=O)C([H])(N([H])C([H])([H])[H])C([H])([H])[H])C(C([H])([H])[H])(C([H])([H])[H])C([H])([H])[H])C([H])([H])c2c([H])c(OC(c3c([H])c(Oc4c(F)c([H])c(Cl)c(C([H])([H])N([H])C(=O)N5C([H])([H])C([H])([H])C([H])([H])C([H])(n6nc(-c7c([H])c([H])c(Oc8c([H])c([H])c(F)c([H])c8F)c([H])c7[H])c(C(=O)N([H])[H])c6N([H])[H])C5([H])[H])c4Cl)c(Cl)c([H])c3Cl)(C([H])([H])[H])C([H])([H])[H])c([H])c([H])c2C1([H])[H]

$$$$
33:0:0
     RDKit          3D

 96104  0  0  1  0  0  0  0  0999 V2000
  -30.6250  -19.0250   19.4820 C   0  0  0  0  0  0  0  0  0  0  0  0
  -30.9880  -19.7810   20.6340 C   0  0  0  0  0  0  0  0  0  0  0  0
  -30.5410  -16.9630   20.8370 C   0  0  0  0  0  0  0  0  0  0  0  0
  -30.3900  -17.6260   19.5900 C   0  0  0  0  0  0  0  0  0  0  0  0
  -31.0500  -19.1230   21.8920 C   0  0  0  0  0  0  0  0  0  0  0  0
  -30.8290  -17.7290   21.9880 C   0  0  0  0  0  0  0  0  0  0  0  0
  -30.5030  -19.6810   18.1060 C   0  0  0  0  0  1  0  0  0  0  0  0
  -29.8610  -16.7500   18.1870 Cl  0  0  0  0  0  0  0  0  0  0  0  0
  -31.4110  -20.0170   23.3330 Cl  0  0  0  0  0  0  0  0  0  0  0  0
  -30.9170  -16.9430   23.5330 Cl  0  0  0  0  0  0  0  0  0  0  0  0
  -31.0710  -14.5520   20.5160 C   0  0  0  0  0  0  0  0  0  0  0  0
  -30.8030  -12.3680   19.4170 C   0  0  0  0  0  2  0  0  0  0  0  0
  -29.8790  -12.5620   18.1960 C   0  0  0  0  0  2  0  0  0  0  0  0
  -28.3940  -12.4560   18.6000 C   0  0  0  0  0  2  0  0  0  0  0  0
  -28.0470  -13.3190   19.8440 C   0  0  0  0  0  3  0  0  0  0  0  0
  -29.0780  -13.0830   20.9700 C   0  0  0  0  0  2  0  0  0  0  0  0
  -30.4180  -13.3640   20.4260 N   0  0  0  0  0  0  0  0  0  0  0  0
  -32.2100  -14.7370   20.0780 O   0  0  0  0  0  0  0  0  0  0  0  0
  -30.3190  -15.5600   20.9940 N   0  0  0  0  0  0  0  0  0  0  0  0
  -29.4830  -15.2930   21.4880 H   0  0  0  0  0  0  0  0  0  0  0  0
  -25.6520  -13.9780   20.5250 C   0  0  0  0  0  0  0  0  0  0  0  0
  -24.5630  -13.2280   20.8790 C   0  0  0  0  0  0  0  0  0  0  0  0
  -24.9940  -11.8670   20.8460 C   0  0  0  0  0  0  0  0  0  0  0  0
  -26.6800  -13.0740   20.3010 N   0  0  0  0  0  0  0  0  0  0  0  0
  -26.2860  -11.7990   20.5500 N   0  0  0  0  0  0  0  0  0  0  0  0
  -24.2390  -10.6200   21.0240 C   0  0  0  0  0  0  0  0  0  0  0  0
  -24.6250   -9.6520   21.9770 C   0  0  0  0  0  3  0  0  0  0  0  0
  -23.8740   -8.4680   22.1420 C   0  0  0  0  0  3  0  0  0  0  0  0
  -22.7210   -8.2450   21.3520 C   0  0  0  0  0  0  0  0  0  0  0  0
  -22.3530   -9.2010   20.3890 C   0  0  0  0  0  3  0  0  0  0  0  0
  -23.1050  -10.3760   20.2230 C   0  0  0  0  0  3  0  0  0  0  0  0
  -21.9450   -7.1130   21.4250 O   0  0  0  0  0  0  0  0  0  0  0  0
  -21.8180   -6.4010   22.5890 C   0  0  0  0  0  0  0  0  0  0  0  0
  -21.3340   -6.9940   23.7760 C   0  0  0  0  0  3  0  0  0  0  0  0
  -21.1530   -6.2090   24.9320 C   0  0  0  0  0  3  0  0  0  0  0  0
  -21.4450   -4.8320   24.9020 C   0  0  0  0  0  0  0  0  0  0  0  0
  -21.9210   -4.2390   23.7200 C   0  0  0  0  0  3  0  0  0  0  0  0
  -22.1040   -5.0220   22.5660 C   0  0  0  0  0  0  0  0  0  0  0  0
  -22.5430   -4.4410   21.4240 F   0  0  0  0  0  0  0  0  0  0  0  0
  -21.2630   -4.0760   26.0100 F   0  0  0  0  0  0  0  0  0  0  0  0
  -23.1740  -13.7340   21.1390 C   0  0  0  0  0  0  0  0  0  0  0  0
  -22.4250  -13.0580   22.0040 N   0  0  0  0  0  0  0  0  0  0  0  0
  -22.7600  -14.7660   20.6120 O   0  0  0  0  0  0  0  0  0  0  0  0
  -22.7720  -12.2260   22.4560 H   0  0  0  0  0  0  0  0  0  0  0  0
  -21.4930  -13.3820   22.2200 H   0  0  0  0  0  0  0  0  0  0  0  0
  -25.8500  -15.3450   20.3570 N   0  0  0  0  0  0  0  0  0  0  0  0
  -25.0940  -16.0140   20.4560 H   0  0  0  0  0  0  0  0  0  0  0  0
  -26.7100  -15.7660   20.0290 H   0  0  0  0  0  0  0  0  0  0  0  0
  -31.4080  -21.2600   20.5220 C   0  0  0  0  0  2  0  0  0  0  0  0
  -30.2940  -22.2390   20.3970 N   0  0  0  0  0  4  0  0  0  0  0  0
  -29.6900  -22.1610   21.1980 H   0  0  0  0  0  0  0  0  0  0  0  0
  -29.7570  -22.0050   19.5790 H   0  0  0  0  0  0  0  0  0  0  0  0
  -30.7830  -23.6410   20.2750 C   0  0  0  0  0  2  0  0  0  0  0  0
  -29.7930  -24.6520   19.6360 C   0  0  0  0  0  2  0  0  0  0  0  0
  -28.9460  -25.4920   20.6190 C   0  0  0  0  0  2  0  0  0  0  0  0
  -28.9060  -26.8570   20.1840 O   0  0  0  0  0  0  0  0  0  0  0  0
  -24.7620  -31.7670   23.2460 C   0  0  0  0  0  0  0  0  0  0  0  0
  -27.6870  -27.4970   20.1940 C   0  0  0  0  0  0  0  0  0  0  0  0
  -23.6640  -30.3400   21.5490 C   0  0  0  0  0  3  0  0  0  0  0  0
  -25.2250  -28.8830   20.1520 C   0  0  0  0  0  0  0  0  0  0  0  0
  -26.1740  -30.8130   21.4290 C   0  0  0  0  0  2  0  0  0  0  0  0
  -26.3400  -29.4560   20.7780 C   0  0  0  0  0  0  0  0  0  0  0  0
  -27.5740  -28.7710   20.7900 C   0  0  0  0  0  3  0  0  0  0  0  0
  -26.5580  -26.9320   19.5640 C   0  0  0  0  0  3  0  0  0  0  0  0
  -25.3270  -27.6190   19.5420 C   0  0  0  0  0  3  0  0  0  0  0  0
  -23.9440  -29.6860   20.1680 C   0  0  0  0  0  2  0  0  0  0  0  0
  -24.8830  -30.9890   22.1340 N   0  0  0  0  0  0  0  0  0  0  0  0
  -23.6550  -31.9850   23.7580 O   0  0  0  0  0  0  0  0  0  0  0  0
  -23.0290  -29.2790   22.4760 C   0  0  0  0  0  0  0  0  0  0  0  0
  -21.7210  -29.0370   22.2990 N   0  0  0  0  0  0  0  0  0  0  0  0
  -23.7140  -28.6750   23.3070 O   0  0  0  0  0  0  0  0  0  0  0  0
  -21.2280  -29.5800   21.6040 H   0  0  0  0  0  0  0  0  0  0  0  0
  -18.3950  -27.6680   22.6430 C   0  0  0  0  0  0  0  0  0  0  0  0
  -20.9210  -28.0530   23.0290 C   0  0  0  0  0  3  0  0  0  0  0  0
  -21.1220  -26.6330   22.4510 C   0  0  0  0  0  2  0  0  0  0  0  0
  -20.0840  -26.2620   21.3860 C   0  0  0  0  0  2  0  0  0  0  0  0
  -18.6710  -26.3330   21.9700 C   0  0  0  0  0  2  0  0  0  0  0  0
  -19.4540  -28.4820   23.1260 C   0  0  0  0  0  0  0  0  0  0  0  0
  -19.1450  -29.7290   23.7110 C   0  0  0  0  0  3  0  0  0  0  0  0
  -17.8120  -30.1640   23.8190 C   0  0  0  0  0  3  0  0  0  0  0  0
  -16.7670  -29.3470   23.3550 C   0  0  0  0  0  3  0  0  0  0  0  0
  -17.0600  -28.1010   22.7730 C   0  0  0  0  0  3  0  0  0  0  0  0
  -26.0030  -32.4420   23.9120 C   0  0  0  0  0  3  0  0  0  0  0  0
  -25.6320  -33.8250   24.2390 N   0  0  0  0  0  0  0  0  0  0  0  0
  -25.9440  -34.8920   23.4900 C   0  0  0  0  0  0  0  0  0  0  0  0
  -26.6440  -34.8170   22.4770 O   0  0  0  0  0  0  0  0  0  0  0  0
  -25.0140  -33.9540   25.0260 H   0  0  0  0  0  0  0  0  0  0  0  0
  -24.1490  -36.6080   23.1000 C   0  0  0  0  0  1  0  0  0  0  0  0
  -25.3900  -36.2590   23.9350 C   0  0  0  0  0  3  0  0  0  0  0  0
  -27.4720  -37.2310   24.8030 C   0  0  0  0  0  1  0  0  0  0  0  0
  -26.3800  -37.3540   23.8400 N   0  0  0  0  0  0  0  0  0  0  0  0
  -25.9340  -38.2560   23.9800 H   0  0  0  0  0  0  0  0  0  0  0  0
  -26.5080  -31.6810   25.1990 C   0  0  1  0  0  0  0  0  0  0  0  0
  -25.3920  -31.3950   26.2320 C   0  0  0  0  0  1  0  0  0  0  0  0
  -27.1520  -30.3290   24.8130 C   0  0  0  0  0  1  0  0  0  0  0  0
  -27.6090  -32.5100   25.9020 C   0  0  0  0  0  1  0  0  0  0  0  0
  1  4  2  0
  1  2  1  0
  2  5  2  0
  3 19  1  0
  3  6  2  0
  4  3  1  0
  5  6  1  0
  5  9  1  0
  6 10  1  0
  7  1  1  0
  8  4  1  0
 11 19  1  0
 12 17  1  0
 13 14  1  0
 13 12  1  0
 15 14  1  0
 15 24  1  0
 15 16  1  0
 17 11  1  0
 17 16  1  0
 18 11  2  0
 19 20  1  0
 21 22  2  0
 22 41  1  0
 23 22  1  0
 23 26  1  0
 24 21  1  0
 24 25  1  0
 25 23  2  0
 26 27  1  0
 27 28  2  0
 29 32  1  0
 29 28  1  0
 30 29  2  0
 31 30  1  0
 31 26  2  0
 32 33  1  0
 33 34  1  0
 34 35  2  0
 36 35  1  0
 36 40  1  0
 37 36  2  0
 38 33  2  0
 38 37  1  0
 39 38  1  0
 41 42  1  0
 42 45  1  0
 42 44  1  0
 43 41  2  0
 46 47  1  0
 46 21  1  0
 48 46  1  0
 49  2  1  0
 50 49  1  0
 50 51  1  0
 52 50  1  0
 53 50  1  0
 54 53  1  0
 54 55  1  0
 56 58  1  0
 56 55  1  0
 57 68  2  0
 58 63  1  0
 59 67  1  0
 59 69  1  0
 60 66  1  0
 60 62  1  0
 61 67  1  0
 62 63  2  0
 62 61  1  0
 64 58  2  0
 65 64  1  0
 65 60  2  0
 66 59  1  0
 67 57  1  0
 69 71  2  0
 70 69  1  0
 72 70  1  0
 73 82  2  0
 73 78  1  0
 74 70  1  0
 74 78  1  0
 75 74  1  0
 76 77  1  0
 76 75  1  0
 77 73  1  0
 78 79  2  0
 79 80  1  0
 81 80  2  0
 82 81  1  0
 83 57  1  0
 83 84  1  0
 83 93  1  0
 84 87  1  0
 85 89  1  0
 85 84  1  0
 86 85  2  0
 89 88  1  0
 91 89  1  0
 91 92  1  0
 91 90  1  0
 93 96  1  1
 93 94  1  0
 95 93  1  0
M  ISO  4  11 100  19 100  55 101  56 101
M  END
>  <TORSDO>  (33) 
F 21

>  <SCORE>  (33) 
-12.395

>  <name>  (33) 
33

>  <ligand_id>  (33) 
33

>  <original_smiles>  (33) 
[H]c1c([H])c([H])c2c(c1[H])C([H])([H])C([H])([H])C([H])([H])C2([H])N([H])C(=O)C1([H])N(C(=O)C([H])(N([H])C(=O)C([H])(N([H])C([H])([H])[H])C([H])([H])[H])C(C([H])([H])[H])(C([H])([H])[H])C([H])([H])[H])C([H])([H])c2c([H])c(OC([H])([H])C([H])([H])C([H])([H])[N+]([H])([H])C([H])([H])c3c(Cl)c(Cl)c(N([H])C(=O)N4C([H])([H])C([H])([H])C([H])([H])C([H])(n5nc(-c6c([H])c([H])c(Oc7c([H])c([H])c(F)c([H])c7F)c([H])c6[H])c(C(=O)N([H])[H])c5N([H])[H])C4([H])[H])c(Cl)c3C([H])([H])[H])c([H])c([H])c2C1([H])[H]

>  <smiles>  (33) 
[H]c1c([H])c([H])c2c(c1[H])C([H])([H])C([H])([H])C([H])([H])C2([H])N([H])C(=O)C1([H])N(C(=O)C([H])(N([H])C(=O)C([H])(N([H])C([H])([H])[H])C([H])([H])[H])C(C([H])([H])[H])(C([H])([H])[H])C([H])([H])[H])C([H])([H])c2c([H])c(OC([H])([H])C([H])([H])C([H])([H])[N+]([H])([H])C([H])([H])c3c(Cl)c(Cl)c(N([H])C(=O)N4C([H])([H])C([H])([H])C([H])([H])C([H])(n5nc(-c6c([H])c([H])c(Oc7c([H])c([H])c(F)c([H])c7F)c([H])c6[H])c(C(=O)N([H])[H])c5N([H])[H])C4([H])[H])c(Cl)c3C([H])([H])[H])c([H])c([H])c2C1([H])[H]

$$$$
34:0:0
     RDKit          3D

 90 98  0  0  1  0  0  0  0  0999 V2000
  -30.0620  -20.3920   18.8320 C   0  0  0  0  0  3  0  0  0  0  0  0
  -30.6000  -19.2680   18.1740 C   0  0  0  0  0  0  0  0  0  0  0  0
  -30.4790  -17.9570   18.7120 C   0  0  0  0  0  0  0  0  0  0  0  0
  -29.3640  -20.2550   20.0340 C   0  0  0  0  0  0  0  0  0  0  0  0
  -29.8630  -17.7340   19.9860 C   0  0  0  0  0  0  0  0  0  0  0  0
  -31.2780  -19.4890   16.8310 C   0  0  0  0  0  1  0  0  0  0  0  0
  -29.2930  -18.9240   20.5770 N   0  0  0  0  0  0  0  0  0  0  0  0
  -31.0070  -16.6540   17.6930 Cl  0  0  0  0  0  0  0  0  0  0  0  0
  -30.5250  -15.0610   20.3590 C   0  0  0  0  0  0  0  0  0  0  0  0
  -30.4290  -12.6860   19.4640 C   0  0  0  0  0  2  0  0  0  0  0  0
  -29.5130  -12.6220   18.2200 C   0  0  0  0  0  2  0  0  0  0  0  0
  -28.0480  -12.4000   18.6370 C   0  0  0  0  0  2  0  0  0  0  0  0
  -27.6190  -13.3290   19.8040 C   0  0  0  0  0  3  0  0  0  0  0  0
  -28.6640  -13.3690   20.9400 C   0  0  0  0  0  2  0  0  0  0  0  0
  -29.9340  -13.7920   20.3380 N   0  0  0  0  0  0  0  0  0  0  0  0
  -31.7420  -15.0840   20.1410 O   0  0  0  0  0  0  0  0  0  0  0  0
  -29.7460  -16.2640   20.4800 N   0  0  0  0  0  0  0  0  0  0  0  0
  -28.8420  -16.0780   20.8820 H   0  0  0  0  0  0  0  0  0  0  0  0
  -25.2310  -13.8930   20.5250 C   0  0  0  0  0  0  0  0  0  0  0  0
  -24.1690  -13.1120   20.8900 C   0  0  0  0  0  0  0  0  0  0  0  0
  -24.6410  -11.7650   20.8680 C   0  0  0  0  0  0  0  0  0  0  0  0
  -26.2810  -13.0200   20.2950 N   0  0  0  0  0  0  0  0  0  0  0  0
  -25.9360  -11.7340   20.5690 N   0  0  0  0  0  0  0  0  0  0  0  0
  -23.9190  -10.4990   21.0550 C   0  0  0  0  0  0  0  0  0  0  0  0
  -24.3410   -9.5390   22.0000 C   0  0  0  0  0  3  0  0  0  0  0  0
  -23.6160   -8.3390   22.1750 C   0  0  0  0  0  3  0  0  0  0  0  0
  -22.4540   -8.0930   21.4060 C   0  0  0  0  0  0  0  0  0  0  0  0
  -22.0510   -9.0430   20.4500 C   0  0  0  0  0  3  0  0  0  0  0  0
  -22.7770  -10.2320   20.2730 C   0  0  0  0  0  3  0  0  0  0  0  0
  -21.7020   -6.9460   21.4900 O   0  0  0  0  0  0  0  0  0  0  0  0
  -21.6370   -6.2120   22.6480 C   0  0  0  0  0  0  0  0  0  0  0  0
  -21.1730   -6.7700   23.8600 C   0  0  0  0  0  3  0  0  0  0  0  0
  -21.0550   -5.9600   25.0070 C   0  0  0  0  0  3  0  0  0  0  0  0
  -21.3910   -4.5950   24.9440 C   0  0  0  0  0  0  0  0  0  0  0  0
  -21.8480   -4.0360   23.7370 C   0  0  0  0  0  3  0  0  0  0  0  0
  -21.9660   -4.8430   22.5920 C   0  0  0  0  0  0  0  0  0  0  0  0
  -22.3870   -4.2950   21.4250 F   0  0  0  0  0  0  0  0  0  0  0  0
  -21.2720   -3.8160   26.0440 F   0  0  0  0  0  0  0  0  0  0  0  0
  -22.7660  -13.5840   21.1420 C   0  0  0  0  0  0  0  0  0  0  0  0
  -22.0310  -12.8910   22.0040 N   0  0  0  0  0  0  0  0  0  0  0  0
  -22.3290  -14.6030   20.6090 O   0  0  0  0  0  0  0  0  0  0  0  0
  -22.3970  -12.0690   22.4610 H   0  0  0  0  0  0  0  0  0  0  0  0
  -21.0890  -13.1890   22.2130 H   0  0  0  0  0  0  0  0  0  0  0  0
  -25.3860  -15.2640   20.3420 N   0  0  0  0  0  0  0  0  0  0  0  0
  -24.6070  -15.9060   20.4350 H   0  0  0  0  0  0  0  0  0  0  0  0
  -26.2210  -15.7060   19.9780 H   0  0  0  0  0  0  0  0  0  0  0  0
  -28.6480  -21.6340   20.6300 C   0  0  0  0  0  2  0  0  0  0  0  0
  -28.8750  -23.2430   20.0850 C   0  0  0  0  0  3  0  0  0  0  0  0
  -27.9840  -24.6290   20.5320 C   0  0  0  0  0  3  0  0  0  0  0  0
  -28.2410  -26.1570   20.2380 O   0  0  0  0  0  0  0  0  0  0  0  0
  -24.6020  -31.8840   23.2340 C   0  0  0  0  0  0  0  0  0  0  0  0
  -27.1850  -27.1490   20.2160 C   0  0  0  0  0  0  0  0  0  0  0  0
  -23.4070  -30.4870   21.5920 C   0  0  0  0  0  3  0  0  0  0  0  0
  -24.8600  -28.9090   20.1720 C   0  0  0  0  0  0  0  0  0  0  0  0
  -25.9640  -30.7480   21.4340 C   0  0  0  0  0  2  0  0  0  0  0  0
  -26.0390  -29.3530   20.7850 C   0  0  0  0  0  0  0  0  0  0  0  0
  -27.2040  -28.4900   20.7850 C   0  0  0  0  0  3  0  0  0  0  0  0
  -25.9810  -26.8180   19.5580 C   0  0  0  0  0  3  0  0  0  0  0  0
  -24.8450  -27.6570   19.5400 C   0  0  0  0  0  3  0  0  0  0  0  0
  -23.6330  -29.8090   20.2150 C   0  0  0  0  0  2  0  0  0  0  0  0
  -24.6780  -31.0620   22.1410 N   0  0  0  0  0  0  0  0  0  0  0  0
  -23.5150  -32.1680   23.7580 O   0  0  0  0  0  0  0  0  0  0  0  0
  -22.7270  -29.4790   22.5540 C   0  0  0  0  0  0  0  0  0  0  0  0
  -21.4010  -29.2970   22.4160 N   0  0  0  0  0  0  0  0  0  0  0  0
  -23.3950  -28.8630   23.3880 O   0  0  0  0  0  0  0  0  0  0  0  0
  -20.9190  -29.8460   21.7190 H   0  0  0  0  0  0  0  0  0  0  0  0
  -18.0270  -28.0660   22.8900 C   0  0  0  0  0  0  0  0  0  0  0  0
  -20.5800  -28.3580   23.1840 C   0  0  0  0  0  3  0  0  0  0  0  0
  -20.7020  -26.9230   22.6230 C   0  0  0  0  0  2  0  0  0  0  0  0
  -19.6160  -26.5800   21.5990 C   0  0  0  0  0  2  0  0  0  0  0  0
  -18.2260  -26.7140   22.2250 C   0  0  0  0  0  2  0  0  0  0  0  0
  -19.1320  -28.8440   23.3260 C   0  0  0  0  0  0  0  0  0  0  0  0
  -18.8910  -30.1070   23.9100 C   0  0  0  0  0  3  0  0  0  0  0  0
  -17.5780  -30.5930   24.0600 C   0  0  0  0  0  3  0  0  0  0  0  0
  -16.4870  -29.8130   23.6390 C   0  0  0  0  0  3  0  0  0  0  0  0
  -16.7130  -28.5510   23.0600 C   0  0  0  0  0  3  0  0  0  0  0  0
  -25.8770  -32.5230   23.8640 C   0  0  0  0  0  3  0  0  0  0  0  0
  -26.3730  -31.7660   25.1580 C   0  0  1  0  0  0  0  0  0  0  0  0
  -25.2660  -31.5500   26.2160 C   0  0  0  0  0  1  0  0  0  0  0  0
  -26.9520  -30.3790   24.7960 C   0  0  0  0  0  1  0  0  0  0  0  0
  -27.5220  -32.5630   25.8210 C   0  0  0  0  0  1  0  0  0  0  0  0
  -25.5650  -33.9260   24.1810 N   0  0  0  0  0  0  0  0  0  0  0  0
  -25.9100  -34.9760   23.4240 C   0  0  0  0  0  0  0  0  0  0  0  0
  -26.5890  -34.8660   22.4000 O   0  0  0  0  0  0  0  0  0  0  0  0
  -24.9610  -34.0850   24.9740 H   0  0  0  0  0  0  0  0  0  0  0  0
  -24.2010  -36.7850   23.0410 C   0  0  0  0  0  1  0  0  0  0  0  0
  -25.4260  -36.3710   23.8710 C   0  0  0  0  0  3  0  0  0  0  0  0
  -27.5520  -37.2440   24.7360 C   0  0  0  0  0  1  0  0  0  0  0  0
  -26.4680  -37.4150   23.7730 N   0  0  0  0  0  0  0  0  0  0  0  0
  -26.0670  -38.3390   23.9070 H   0  0  0  0  0  0  0  0  0  0  0  0
  1  4  1  0
  2  3  1  0
  2  1  2  0
  3  5  2  0
  4  7  2  0
  4 47  1  0
  5 17  1  0
  5  7  1  0
  6  2  1  0
  8  3  1  0
  9 17  1  0
 10 15  1  0
 11 12  1  0
 11 10  1  0
 13 12  1  0
 13 22  1  0
 13 14  1  0
 15  9  1  0
 15 14  1  0
 16  9  2  0
 17 18  1  0
 19 20  2  0
 20 39  1  0
 21 20  1  0
 21 24  1  0
 22 19  1  0
 22 23  1  0
 23 21  2  0
 24 25  1  0
 25 26  2  0
 27 30  1  0
 27 26  1  0
 28 27  2  0
 29 28  1  0
 29 24  2  0
 30 31  1  0
 31 32  1  0
 32 33  2  0
 34 33  1  0
 34 38  1  0
 35 34  2  0
 36 31  2  0
 36 35  1  0
 37 36  1  0
 39 40  1  0
 40 43  1  0
 40 42  1  0
 41 39  2  0
 44 45  1  0
 44 19  1  0
 46 44  1  0
 48 49  2  0
 48 47  1  0
 50 49  1  0
 51 62  2  0
 52 50  1  0
 52 57  1  0
 53 61  1  0
 53 63  1  0
 54 60  1  0
 54 56  1  0
 55 61  1  0
 56 57  2  0
 56 55  1  0
 58 52  2  0
 59 58  1  0
 59 54  2  0
 60 53  1  0
 61 51  1  0
 63 65  2  0
 64 63  1  0
 66 64  1  0
 67 76  2  0
 67 72  1  0
 68 64  1  0
 68 72  1  0
 69 68  1  0
 70 71  1  0
 70 69  1  0
 71 67  1  0
 72 73  2  0
 73 74  1  0
 75 74  2  0
 76 75  1  0
 77 51  1  0
 77 82  1  0
 77 78  1  0
 78 81  1  1
 78 79  1  0
 80 78  1  0
 82 85  1  0
 83 87  1  0
 83 82  1  0
 84 83  2  0
 87 86  1  0
 89 87  1  0
 89 90  1  0
 89 88  1  0
M  ISO  4   9 100  17 100  49 101  50 101
M  END
>  <TORSDO>  (34) 
F 19

>  <SCORE>  (34) 
-15.296

>  <name>  (34) 
34

>  <ligand_id>  (34) 
34

>  <original_smiles>  (34) 
[H]c1c([H])c([H])c2c(c1[H])C([H])([H])C([H])([H])C([H])([H])C2([H])N([H])C(=O)C1([H])N(C(=O)C([H])(N([H])C(=O)C([H])(N([H])C([H])([H])[H])C([H])([H])[H])C(C([H])([H])[H])(C([H])([H])[H])C([H])([H])[H])C([H])([H])c2c([H])c(OC([H])([H])C([H])([H])C([H])([H])c3nc(N([H])C(=O)N4C([H])([H])C([H])([H])C([H])([H])C([H])(n5nc(-c6c([H])c([H])c(Oc7c([H])c([H])c(F)c([H])c7F)c([H])c6[H])c(C(=O)N([H])[H])c5N([H])[H])C4([H])[H])c(Cl)c(C([H])([H])[H])c3[H])c([H])c([H])c2C1([H])[H]

>  <smiles>  (34) 
[H]c1c([H])c([H])c2c(c1[H])C([H])([H])C([H])([H])C([H])([H])C2([H])N([H])C(=O)C1([H])N(C(=O)C([H])(N([H])C(=O)C([H])(N([H])C([H])([H])[H])C([H])([H])[H])C(C([H])([H])[H])(C([H])([H])[H])C([H])([H])[H])C([H])([H])c2c([H])c(OC([H])([H])C([H])([H])C([H])([H])c3nc(N([H])C(=O)N4C([H])([H])C([H])([H])C([H])([H])C([H])(n5nc(-c6c([H])c([H])c(Oc7c([H])c([H])c(F)c([H])c7F)c([H])c6[H])c(C(=O)N([H])[H])c5N([H])[H])C4([H])[H])c(Cl)c(C([H])([H])[H])c3[H])c([H])c([H])c2C1([H])[H]

$$$$
35:0:0
     RDKit          3D

106114  0  0  1  0  0  0  0  0999 V2000
  -27.5700  -22.6540   21.4780 C   0  0  0  0  0  3  0  0  0  0  0  0
  -30.6770  -20.4660   20.8270 C   0  0  0  0  0  3  0  0  0  0  0  0
  -29.7130  -21.2540   21.4900 C   0  0  0  0  0  0  0  0  0  0  0  0
  -28.5760  -21.7350   20.7850 C   0  0  0  0  0  0  0  0  0  0  0  0
  -30.5460  -20.1740   19.4550 C   0  0  0  0  0  0  0  0  0  0  0  0
  -28.4320  -21.4190   19.4070 C   0  0  0  0  0  0  0  0  0  0  0  0
  -29.4240  -20.6610   18.7440 C   0  0  0  0  0  0  0  0  0  0  0  0
  -29.9400  -21.5980   22.9540 C   0  0  0  0  0  1  0  0  0  0  0  0
  -27.0500  -21.9700   18.5090 Cl  0  0  0  0  0  0  0  0  0  0  0  0
  -29.2720  -20.3120   17.0510 Cl  0  0  0  0  0  0  0  0  0  0  0  0
  -31.5170  -19.4130   18.7870 N   0  0  0  0  0  0  0  0  0  0  0  0
  -31.4030  -19.4670   17.7770 H   0  0  0  0  0  0  0  0  0  0  0  0
  -31.6960  -18.0370   19.2490 C   0  0  0  0  0  2  0  0  0  0  0  0
  -30.5390  -17.1230   18.8010 C   0  0  0  0  0  2  0  0  0  0  0  0
  -29.5710  -16.7230   19.9420 C   0  0  0  0  0  2  0  0  0  0  0  0
  -30.7600  -14.5630   20.4910 C   0  0  0  0  0  0  0  0  0  0  0  0
  -30.4650  -12.4940   19.2300 C   0  0  0  0  0  2  0  0  0  0  0  0
  -29.5170  -12.8420   18.0580 C   0  0  0  0  0  2  0  0  0  0  0  0
  -28.0410  -12.6930   18.4790 C   0  0  0  0  0  2  0  0  0  0  0  0
  -27.7270  -13.4090   19.8170 C   0  0  0  0  0  3  0  0  0  0  0  0
  -28.7850  -13.0660   20.8950 C   0  0  0  0  0  2  0  0  0  0  0  0
  -30.1200  -13.3760   20.3520 N   0  0  0  0  0  0  0  0  0  0  0  0
  -31.9150  -14.7650   20.1030 O   0  0  0  0  0  0  0  0  0  0  0  0
  -29.9230  -15.5670   20.7930 N   0  0  0  0  0  0  0  0  0  0  0  0
  -29.1370  -15.2420   21.3380 H   0  0  0  0  0  0  0  0  0  0  0  0
  -25.3560  -14.0180   20.6170 C   0  0  0  0  0  0  0  0  0  0  0  0
  -24.2700  -13.2430   20.9110 C   0  0  0  0  0  0  0  0  0  0  0  0
  -24.6900  -11.8890   20.7220 C   0  0  0  0  0  0  0  0  0  0  0  0
  -26.3720  -13.1350   20.2780 N   0  0  0  0  0  0  0  0  0  0  0  0
  -25.9740  -11.8440   20.4000 N   0  0  0  0  0  0  0  0  0  0  0  0
  -23.9320  -10.6360   20.7780 C   0  0  0  0  0  0  0  0  0  0  0  0
  -24.3710   -9.5440   21.5590 C   0  0  0  0  0  3  0  0  0  0  0  0
  -23.6160   -8.3520   21.6070 C   0  0  0  0  0  3  0  0  0  0  0  0
  -22.4090   -8.2460   20.8760 C   0  0  0  0  0  0  0  0  0  0  0  0
  -21.9900   -9.3280   20.0800 C   0  0  0  0  0  3  0  0  0  0  0  0
  -22.7440  -10.5130   20.0300 C   0  0  0  0  0  3  0  0  0  0  0  0
  -21.6210   -7.1220   20.8440 O   0  0  0  0  0  0  0  0  0  0  0  0
  -21.6180   -6.2190   21.8760 C   0  0  0  0  0  0  0  0  0  0  0  0
  -21.2970   -6.5990   23.1990 C   0  0  0  0  0  3  0  0  0  0  0  0
  -21.2400   -5.6250   24.2160 C   0  0  0  0  0  3  0  0  0  0  0  0
  -21.4900   -4.2730   23.9130 C   0  0  0  0  0  0  0  0  0  0  0  0
  -21.8020   -3.8930   22.5960 C   0  0  0  0  0  3  0  0  0  0  0  0
  -21.8640   -4.8630   21.5800 C   0  0  0  0  0  0  0  0  0  0  0  0
  -22.1460   -4.4900   20.3090 F   0  0  0  0  0  0  0  0  0  0  0  0
  -21.4260   -3.3370   24.8880 F   0  0  0  0  0  0  0  0  0  0  0  0
  -22.8880  -13.7230   21.2530 C   0  0  0  0  0  0  0  0  0  0  0  0
  -22.1580  -12.9680   22.0630 N   0  0  0  0  0  0  0  0  0  0  0  0
  -22.4690  -14.8040   20.8360 O   0  0  0  0  0  0  0  0  0  0  0  0
  -22.5110  -12.0920   22.4210 H   0  0  0  0  0  0  0  0  0  0  0  0
  -21.2320  -13.2690   22.3340 H   0  0  0  0  0  0  0  0  0  0  0  0
  -25.5600  -15.3960   20.5880 N   0  0  0  0  0  0  0  0  0  0  0  0
  -24.8060  -16.0510   20.7640 H   0  0  0  0  0  0  0  0  0  0  0  0
  -26.4140  -15.8470   20.2920 H   0  0  0  0  0  0  0  0  0  0  0  0
  -26.2270  -22.0030   21.8720 C   0  0  0  0  0  3  0  0  0  0  0  0
  -25.2020  -22.9430   22.5710 C   0  0  0  0  0  2  0  0  0  0  0  0
  -24.6340  -24.1220   21.7340 C   0  0  0  0  0  2  0  0  0  0  0  0
  -25.3110  -25.4840   22.0060 C   0  0  0  0  0  2  0  0  0  0  0  0
  -26.6830  -25.4830   21.4590 N   0  0  0  0  0  4  0  0  0  0  0  0
  -26.5920  -25.5770   20.4550 H   0  0  0  0  0  0  0  0  0  0  0  0
  -27.0410  -24.5610   21.6500 H   0  0  0  0  0  0  0  0  0  0  0  0
  -27.0340  -27.8710   22.0190 C   0  0  0  0  0  1  0  0  0  0  0  0
  -28.1680  -26.1160   23.3690 C   0  0  0  0  0  1  0  0  0  0  0  0
  -27.6770  -26.4790   21.9440 C   0  0  1  0  0  0  0  0  0  0  0  0
  -28.9410  -26.4590   21.0150 C   0  0  0  0  0  2  0  0  0  0  0  0
  -28.7610  -26.3540   19.4750 C   0  0  0  0  0  2  0  0  0  0  0  0
  -28.6320  -27.6200   18.8290 O   0  0  0  0  0  0  0  0  0  0  0  0
  -24.5160  -31.6170   22.9320 C   0  0  0  0  0  0  0  0  0  0  0  0
  -27.3930  -28.1870   18.9620 C   0  0  0  0  0  0  0  0  0  0  0  0
  -23.3560  -30.3670   21.1370 C   0  0  0  0  0  3  0  0  0  0  0  0
  -24.8490  -29.3210   19.3630 C   0  0  0  0  0  0  0  0  0  0  0  0
  -25.7850  -31.1070   20.8510 C   0  0  0  0  0  2  0  0  0  0  0  0
  -25.9770  -29.8980   19.9600 C   0  0  0  0  0  0  0  0  0  0  0  0
  -27.2550  -29.3450   19.7490 C   0  0  0  0  0  3  0  0  0  0  0  0
  -26.2570  -27.6190   18.3440 C   0  0  0  0  0  3  0  0  0  0  0  0
  -24.9840  -28.1840   18.5430 C   0  0  0  0  0  3  0  0  0  0  0  0
  -23.5190  -29.9780   19.6400 C   0  0  0  0  0  2  0  0  0  0  0  0
  -24.5710  -31.0390   21.6980 N   0  0  0  0  0  0  0  0  0  0  0  0
  -23.4590  -31.6430   23.5790 O   0  0  0  0  0  0  0  0  0  0  0  0
  -22.9220  -29.1180   21.9350 C   0  0  0  0  0  0  0  0  0  0  0  0
  -21.6460  -28.7350   21.7850 N   0  0  0  0  0  0  0  0  0  0  0  0
  -23.7260  -28.5000   22.6380 O   0  0  0  0  0  0  0  0  0  0  0  0
  -21.0650  -29.2900   21.1700 H   0  0  0  0  0  0  0  0  0  0  0  0
  -18.5620  -26.8440   22.0130 C   0  0  0  0  0  0  0  0  0  0  0  0
  -21.0140  -27.5720   22.4060 C   0  0  0  0  0  3  0  0  0  0  0  0
  -21.4130  -26.2680   21.6750 C   0  0  0  0  0  2  0  0  0  0  0  0
  -20.4030  -25.8500   20.5990 C   0  0  0  0  0  2  0  0  0  0  0  0
  -19.0200  -25.6300   21.2240 C   0  0  0  0  0  2  0  0  0  0  0  0
  -19.4990  -27.7630   22.5550 C   0  0  0  0  0  0  0  0  0  0  0  0
  -19.0260  -28.8910   23.2600 C   0  0  0  0  0  3  0  0  0  0  0  0
  -17.6440  -29.0960   23.4430 C   0  0  0  0  0  3  0  0  0  0  0  0
  -16.7200  -28.1770   22.9150 C   0  0  0  0  0  3  0  0  0  0  0  0
  -17.1770  -27.0550   22.2010 C   0  0  0  0  0  3  0  0  0  0  0  0
  -25.7670  -32.2960   23.5740 C   0  0  0  0  0  3  0  0  0  0  0  0
  -25.3660  -33.6350   24.0220 N   0  0  0  0  0  0  0  0  0  0  0  0
  -25.6280  -34.7700   23.3610 C   0  0  0  0  0  0  0  0  0  0  0  0
  -26.3080  -34.8010   22.3310 O   0  0  0  0  0  0  0  0  0  0  0  0
  -24.7540  -33.6760   24.8250 H   0  0  0  0  0  0  0  0  0  0  0  0
  -23.7840  -36.4690   23.1370 C   0  0  0  0  0  1  0  0  0  0  0  0
  -25.0420  -36.0790   23.9300 C   0  0  0  0  0  3  0  0  0  0  0  0
  -27.1050  -37.0200   24.8600 C   0  0  0  0  0  1  0  0  0  0  0  0
  -26.0000  -37.2050   23.9230 N   0  0  0  0  0  0  0  0  0  0  0  0
  -25.5330  -38.0770   24.1550 H   0  0  0  0  0  0  0  0  0  0  0  0
  -26.3780  -31.4740   24.7760 C   0  0  1  0  0  0  0  0  0  0  0  0
  -25.3350  -31.0690   25.8420 C   0  0  0  0  0  1  0  0  0  0  0  0
  -27.0470  -30.1820   24.2610 C   0  0  0  0  0  1  0  0  0  0  0  0
  -27.4830  -32.2980   25.4760 C   0  0  0  0  0  1  0  0  0  0  0  0
  1 54  2  0
  2  3  1  0
  3  8  1  0
  4  1  1  0
  4  3  2  0
  5  2  2  0
  6  4  1  0
  7  6  2  0
  7  5  1  0
  9  6  1  0
 10  7  1  0
 11 13  1  0
 11  5  1  0
 12 11  1  0
 14 13  1  0
 14 15  1  0
 15 24  1  0
 16 24  1  0
 17 22  1  0
 18 19  1  0
 18 17  1  0
 20 19  1  0
 20 29  1  0
 20 21  1  0
 22 16  1  0
 22 21  1  0
 23 16  2  0
 24 25  1  0
 26 27  2  0
 27 46  1  0
 28 31  1  0
 28 27  1  0
 29 30  1  0
 29 26  1  0
 30 28  2  0
 31 32  1  0
 32 33  2  0
 34 33  1  0
 35 34  2  0
 36 35  1  0
 36 31  2  0
 37 34  1  0
 37 38  1  0
 38 39  1  0
 39 40  2  0
 41 40  1  0
 41 45  1  0
 42 41  2  0
 43 38  2  0
 43 42  1  0
 44 43  1  0
 46 47  1  0
 47 50  1  0
 47 49  1  0
 48 46  2  0
 51 26  1  0
 51 52  1  0
 53 51  1  0
 54 55  1  0
 56 57  1  0
 56 55  1  0
 58 60  1  0
 58 63  1  0
 58 57  1  0
 59 58  1  0
 63 61  1  1
 63 62  1  0
 64 63  1  0
 65 64  1  0
 66 68  1  0
 66 65  1  0
 67 78  2  0
 68 73  1  0
 69 77  1  0
 69 79  1  0
 70 76  1  0
 70 72  1  0
 71 77  1  0
 72 71  1  0
 73 72  2  0
 74 75  1  0
 74 68  2  0
 75 70  2  0
 76 69  1  0
 77 67  1  0
 79 81  2  0
 80 79  1  0
 82 80  1  0
 83 92  2  0
 83 88  1  0
 84 80  1  0
 84 88  1  0
 85 84  1  0
 86 87  1  0
 86 85  1  0
 87 83  1  0
 88 89  2  0
 89 90  1  0
 91 90  2  0
 92 91  1  0
 93 67  1  0
 93 94  1  0
 93103  1  0
 94 97  1  0
 95 99  1  0
 95 94  1  0
 96 95  2  0
 99 98  1  0
101 99  1  0
101102  1  0
101100  1  0
103106  1  1
103104  1  0
105103  1  0
M  ISO  4  16 100  24 100  65 101  66 101
M  END
>  <TORSDO>  (35) 
F 29

>  <SCORE>  (35) 
-6.822

>  <name>  (35) 
35

>  <ligand_id>  (35) 
35

>  <original_smiles>  (35) 
[H]c1c([H])c([H])c2c(c1[H])C([H])([H])C([H])([H])C([H])([H])C2([H])N([H])C(=O)C1([H])N(C(=O)C([H])(N([H])C(=O)C([H])(N([H])C([H])([H])[H])C([H])([H])[H])C(C([H])([H])[H])(C([H])([H])[H])C([H])([H])[H])C([H])([H])c2c([H])c(OC([H])([H])C([H])([H])C(C([H])([H])[H])(C([H])([H])[H])[N+]([H])([H])C([H])([H])C([H])([H])C([H])([H])C([H])([H])C([H])([H])c3c(Cl)c(Cl)c(N([H])C([H])([H])C([H])([H])C([H])([H])N([H])C(=O)N4C([H])([H])C([H])([H])C([H])([H])C([H])(n5nc(-c6c([H])c([H])c(Oc7c([H])c([H])c(F)c([H])c7F)c([H])c6[H])c(C(=O)N([H])[H])c5N([H])[H])C4([H])[H])c([H])c3C([H])([H])[H])c([H])c([H])c2C1([H])[H]

>  <smiles>  (35) 
[H]c1c([H])c([H])c2c(c1[H])C([H])([H])C([H])([H])C([H])([H])C2([H])N([H])C(=O)C1([H])N(C(=O)C([H])(N([H])C(=O)C([H])(N([H])C([H])([H])[H])C([H])([H])[H])C(C([H])([H])[H])(C([H])([H])[H])C([H])([H])[H])C([H])([H])c2c([H])c(OC([H])([H])C([H])([H])C(C([H])([H])[H])(C([H])([H])[H])[N+]([H])([H])C([H])([H])C([H])([H])C([H])([H])C([H])([H])C([H])([H])c3c(Cl)c(Cl)c(N([H])C([H])([H])C([H])([H])C([H])([H])N([H])C(=O)N4C([H])([H])C([H])([H])C([H])([H])C([H])(n5nc(-c6c([H])c([H])c(Oc7c([H])c([H])c(F)c([H])c7F)c([H])c6[H])c(C(=O)N([H])[H])c5N([H])[H])C4([H])[H])c([H])c3C([H])([H])[H])c([H])c([H])c2C1([H])[H]

$$$$
36:0:0
     RDKit          3D

 96104  0  0  1  0  0  0  0  0999 V2000
  -31.6860  -18.7280   18.6800 C   0  0  0  0  0  3  0  0  0  0  0  0
  -31.8300  -17.8880   17.5480 C   0  0  0  0  0  0  0  0  0  0  0  0
  -31.0230  -19.9790   18.5830 C   0  0  0  0  0  0  0  0  0  0  0  0
  -30.7020  -19.5710   16.1760 C   0  0  0  0  0  0  0  0  0  0  0  0
  -31.3380  -18.3190   16.3010 C   0  0  0  0  0  0  0  0  0  0  0  0
  -30.5300  -20.3950   17.3180 C   0  0  0  0  0  0  0  0  0  0  0  0
  -30.1750  -20.0060   14.8170 C   0  0  0  0  0  1  0  0  0  0  0  0
  -31.4550  -17.5030   15.2250 F   0  0  0  0  0  0  0  0  0  0  0  0
  -29.6650  -21.8870   17.1580 Cl  0  0  0  0  0  0  0  0  0  0  0  0
  -32.4570  -16.4990   17.6600 C   0  0  0  0  0  2  0  0  0  0  0  0
  -34.5240  -16.4340   16.3430 C   0  0  0  0  0  0  0  0  0  0  0  0
  -36.3780  -17.4980   15.1270 C   0  0  0  0  0  2  0  0  0  0  0  0
  -37.5450  -17.7520   16.1020 C   0  0  0  0  0  2  0  0  0  0  0  0
  -37.3740  -19.0990   16.8320 C   0  0  0  0  0  2  0  0  0  0  0  0
  -35.9460  -19.2980   17.4110 C   0  0  0  0  0  3  0  0  0  0  0  0
  -34.8630  -18.9350   16.3700 C   0  0  0  0  0  2  0  0  0  0  0  0
  -35.1310  -17.5660   15.9010 N   0  0  0  0  0  0  0  0  0  0  0  0
  -34.7520  -15.3160   15.8760 O   0  0  0  0  0  0  0  0  0  0  0  0
  -33.9120  -16.5300   17.5300 N   0  0  0  0  0  0  0  0  0  0  0  0
  -34.3140  -15.8740   18.1820 H   0  0  0  0  0  0  0  0  0  0  0  0
  -36.0220  -21.1410   19.2060 C   0  0  0  0  0  0  0  0  0  0  0  0
  -35.7580  -22.4840   19.1520 C   0  0  0  0  0  0  0  0  0  0  0  0
  -35.3540  -22.7530   17.8090 C   0  0  0  0  0  0  0  0  0  0  0  0
  -35.7680  -20.6510   17.9350 N   0  0  0  0  0  0  0  0  0  0  0  0
  -35.3180  -21.6280   17.1050 N   0  0  0  0  0  0  0  0  0  0  0  0
  -35.0610  -24.0240   17.1330 C   0  0  0  0  0  0  0  0  0  0  0  0
  -33.7350  -24.4600   16.9290 C   0  0  0  0  0  3  0  0  0  0  0  0
  -33.4760  -25.6940   16.2940 C   0  0  0  0  0  3  0  0  0  0  0  0
  -34.5510  -26.5050   15.8580 C   0  0  0  0  0  0  0  0  0  0  0  0
  -35.8690  -26.0560   16.0460 C   0  0  0  0  0  3  0  0  0  0  0  0
  -36.1250  -24.8270   16.6750 C   0  0  0  0  0  3  0  0  0  0  0  0
  -34.3970  -27.7060   15.2100 O   0  0  0  0  0  0  0  0  0  0  0  0
  -33.7020  -28.7450   15.7770 C   0  0  0  0  0  0  0  0  0  0  0  0
  -34.2130  -29.4710   16.8750 C   0  0  0  0  0  3  0  0  0  0  0  0
  -33.4990  -30.5730   17.3830 C   0  0  0  0  0  3  0  0  0  0  0  0
  -32.2830  -30.9590   16.7890 C   0  0  0  0  0  0  0  0  0  0  0  0
  -31.7760  -30.2410   15.6920 C   0  0  0  0  0  3  0  0  0  0  0  0
  -32.4860  -29.1400   15.1850 C   0  0  0  0  0  0  0  0  0  0  0  0
  -32.0040  -28.4660   14.1130 F   0  0  0  0  0  0  0  0  0  0  0  0
  -31.6020  -32.0260   17.2710 F   0  0  0  0  0  0  0  0  0  0  0  0
  -35.9550  -23.4810   20.2590 C   0  0  0  0  0  0  0  0  0  0  0  0
  -35.0390  -24.4340   20.3920 N   0  0  0  0  0  0  0  0  0  0  0  0
  -36.8970  -23.3860   21.0430 O   0  0  0  0  0  0  0  0  0  0  0  0
  -34.2430  -24.4820   19.7720 H   0  0  0  0  0  0  0  0  0  0  0  0
  -35.1150  -25.1030   21.1440 H   0  0  0  0  0  0  0  0  0  0  0  0
  -36.4700  -20.3010   20.2210 N   0  0  0  0  0  0  0  0  0  0  0  0
  -36.6170  -20.6180   21.1690 H   0  0  0  0  0  0  0  0  0  0  0  0
  -36.4500  -19.2930   20.1350 H   0  0  0  0  0  0  0  0  0  0  0  0
  -30.7370  -20.7920   19.8620 C   0  0  0  0  0  2  0  0  0  0  0  0
  -31.7770  -21.7740   20.2700 N   0  0  0  0  0  4  0  0  0  0  0  0
  -32.6810  -21.3930   20.0440 H   0  0  0  0  0  0  0  0  0  0  0  0
  -31.7380  -21.8330   21.2740 H   0  0  0  0  0  0  0  0  0  0  0  0
  -31.6840  -23.1640   19.7440 C   0  0  0  0  0  2  0  0  0  0  0  0
  -30.9190  -24.1520   20.6790 C   0  0  0  0  0  2  0  0  0  0  0  0
  -30.3540  -25.3750   19.9130 C   0  0  0  0  0  2  0  0  0  0  0  0
  -30.2700  -26.5960   20.6840 O   0  0  0  0  0  0  0  0  0  0  0  0
  -25.3740  -30.3830   24.1990 C   0  0  0  0  0  0  0  0  0  0  0  0
  -29.0740  -27.2900   20.5940 C   0  0  0  0  0  0  0  0  0  0  0  0
  -24.6860  -29.5170   21.9900 C   0  0  0  0  0  3  0  0  0  0  0  0
  -26.5630  -28.6110   20.5230 C   0  0  0  0  0  0  0  0  0  0  0  0
  -27.1430  -30.0600   22.4710 C   0  0  0  0  0  2  0  0  0  0  0  0
  -27.5170  -28.9730   21.4820 C   0  0  0  0  0  0  0  0  0  0  0  0
  -28.7730  -28.3220   21.5190 C   0  0  0  0  0  3  0  0  0  0  0  0
  -28.1070  -26.9740   19.6090 C   0  0  0  0  0  3  0  0  0  0  0  0
  -26.8580  -27.6150   19.5780 C   0  0  0  0  0  3  0  0  0  0  0  0
  -25.2380  -29.3360   20.5530 C   0  0  0  0  0  2  0  0  0  0  0  0
  -25.7400  -29.9820   22.9490 N   0  0  0  0  0  0  0  0  0  0  0  0
  -24.1810  -30.4060   24.5410 O   0  0  0  0  0  0  0  0  0  0  0  0
  -23.9940  -28.2050   22.4260 C   0  0  0  0  0  0  0  0  0  0  0  0
  -22.7470  -28.0020   21.9670 N   0  0  0  0  0  0  0  0  0  0  0  0
  -24.5830  -27.3890   23.1380 O   0  0  0  0  0  0  0  0  0  0  0  0
  -22.3310  -28.7220   21.3950 H   0  0  0  0  0  0  0  0  0  0  0  0
  -19.5320  -26.5030   21.2810 C   0  0  0  0  0  0  0  0  0  0  0  0
  -21.9180  -26.8230   22.2220 C   0  0  0  0  0  3  0  0  0  0  0  0
  -22.3270  -25.6470   21.3050 C   0  0  0  0  0  2  0  0  0  0  0  0
  -21.5150  -25.5820   20.0080 C   0  0  0  0  0  2  0  0  0  0  0  0
  -20.0210  -25.4390   20.3150 C   0  0  0  0  0  2  0  0  0  0  0  0
  -20.4240  -27.1640   22.1660 C   0  0  0  0  0  0  0  0  0  0  0  0
  -19.9220  -28.1700   23.0200 C   0  0  0  0  0  3  0  0  0  0  0  0
  -18.5570  -28.5140   23.0020 C   0  0  0  0  0  3  0  0  0  0  0  0
  -17.6750  -27.8450   22.1370 C   0  0  0  0  0  3  0  0  0  0  0  0
  -18.1610  -26.8410   21.2810 C   0  0  0  0  0  3  0  0  0  0  0  0
  -26.4290  -30.8540   25.2490 C   0  0  0  0  0  3  0  0  0  0  0  0
  -26.1780  -32.2770   25.5170 N   0  0  0  0  0  0  0  0  0  0  0  0
  -26.8640  -33.2860   24.9650 C   0  0  0  0  0  0  0  0  0  0  0  0
  -27.8320  -33.1100   24.2170 O   0  0  0  0  0  0  0  0  0  0  0  0
  -25.3680  -32.4970   26.0780 H   0  0  0  0  0  0  0  0  0  0  0  0
  -26.0400  -35.4560   23.9920 C   0  0  0  0  0  1  0  0  0  0  0  0
  -26.4040  -34.7200   25.2920 C   0  0  0  0  0  3  0  0  0  0  0  0
  -27.9300  -34.8070   27.2140 C   0  0  0  0  0  1  0  0  0  0  0  0
  -27.4090  -35.5040   26.0410 N   0  0  0  0  0  0  0  0  0  0  0  0
  -27.0170  -36.3920   26.3460 H   0  0  0  0  0  0  0  0  0  0  0  0
  -26.3950  -30.0170   26.5840 C   0  0  1  0  0  0  0  0  0  0  0  0
  -25.0460  -30.1010   27.3370 C   0  0  0  0  0  1  0  0  0  0  0  0
  -26.6850  -28.5240   26.3000 C   0  0  0  0  0  1  0  0  0  0  0  0
  -27.5080  -30.5080   27.5390 C   0  0  0  0  0  1  0  0  0  0  0  0
  2 10  1  0
  2  1  2  0
  3  1  1  0
  3 49  1  0
  4  5  2  0
  4  6  1  0
  5  2  1  0
  6  3  2  0
  7  4  1  0
  8  5  1  0
  9  6  1  0
 11 19  1  0
 12 17  1  0
 12 13  1  0
 13 14  1  0
 14 15  1  0
 15 16  1  0
 15 24  1  0
 17 11  1  0
 17 16  1  0
 18 11  2  0
 19 10  1  0
 19 20  1  0
 21 46  1  0
 22 21  2  0
 22 41  1  0
 23 22  1  0
 24 21  1  0
 25 23  2  0
 25 24  1  0
 26 23  1  0
 27 26  1  0
 28 27  2  0
 29 30  2  0
 29 28  1  0
 30 31  1  0
 31 26  2  0
 32 33  1  0
 32 29  1  0
 33 34  1  0
 34 35  2  0
 36 40  1  0
 36 35  1  0
 37 36  2  0
 38 37  1  0
 38 33  2  0
 39 38  1  0
 41 42  1  0
 41 43  2  0
 42 45  1  0
 44 42  1  0
 46 47  1  0
 48 46  1  0
 49 50  1  0
 50 52  1  0
 51 50  1  0
 53 50  1  0
 53 54  1  0
 55 54  1  0
 55 56  1  0
 57 68  2  0
 58 56  1  0
 58 63  1  0
 59 69  1  0
 59 67  1  0
 60 66  1  0
 60 62  1  0
 61 67  1  0
 62 63  2  0
 62 61  1  0
 64 58  2  0
 65 64  1  0
 65 60  2  0
 66 59  1  0
 67 57  1  0
 69 71  2  0
 70 69  1  0
 72 70  1  0
 73 78  1  0
 74 70  1  0
 75 74  1  0
 76 77  1  0
 76 75  1  0
 77 73  1  0
 78 74  1  0
 78 79  2  0
 80 79  1  0
 81 80  2  0
 82 73  2  0
 82 81  1  0
 83 57  1  0
 83 84  1  0
 83 93  1  0
 84 87  1  0
 85 89  1  0
 85 84  1  0
 86 85  2  0
 89 88  1  0
 89 91  1  0
 91 92  1  0
 91 90  1  0
 93 94  1  1
 93 96  1  0
 95 93  1  0
M  ISO  4  11 100  19 100  55 101  56 101
M  END
>  <TORSDO>  (36) 
F 22

>  <SCORE>  (36) 
-5.696

>  <name>  (36) 
36

>  <ligand_id>  (36) 
36

>  <original_smiles>  (36) 
[H]c1c([H])c([H])c2c(c1[H])C([H])([H])C([H])([H])C([H])([H])C2([H])N([H])C(=O)C1([H])N(C(=O)C([H])(N([H])C(=O)C([H])(N([H])C([H])([H])[H])C([H])([H])[H])C(C([H])([H])[H])(C([H])([H])[H])C([H])([H])[H])C([H])([H])c2c([H])c(OC([H])([H])C([H])([H])C([H])([H])[N+]([H])([H])C([H])([H])c3c([H])c(C([H])([H])N([H])C(=O)N4C([H])([H])C([H])([H])C([H])([H])C([H])(n5nc(-c6c([H])c([H])c(Oc7c([H])c([H])c(F)c([H])c7F)c([H])c6[H])c(C(=O)N([H])[H])c5N([H])[H])C4([H])[H])c(F)c(C([H])([H])[H])c3Cl)c([H])c([H])c2C1([H])[H]

>  <smiles>  (36) 
[H]c1c([H])c([H])c2c(c1[H])C([H])([H])C([H])([H])C([H])([H])C2([H])N([H])C(=O)C1([H])N(C(=O)C([H])(N([H])C(=O)C([H])(N([H])C([H])([H])[H])C([H])([H])[H])C(C([H])([H])[H])(C([H])([H])[H])C([H])([H])[H])C([H])([H])c2c([H])c(OC([H])([H])C([H])([H])C([H])([H])[N+]([H])([H])C([H])([H])c3c([H])c(C([H])([H])N([H])C(=O)N4C([H])([H])C([H])([H])C([H])([H])C([H])(n5nc(-c6c([H])c([H])c(Oc7c([H])c([H])c(F)c([H])c7F)c([H])c6[H])c(C(=O)N([H])[H])c5N([H])[H])C4([H])[H])c(F)c(C([H])([H])[H])c3Cl)c([H])c([H])c2C1([H])[H]

$$$$
37:0:0
     RDKit          3D

102110  0  0  1  0  0  0  0  0999 V2000
  -31.8620  -22.8700   18.6120 C   0  0  0  0  0  2  0  0  0  0  0  0
  -31.1920  -21.6440   19.2560 C   0  0  0  0  0  2  0  0  0  0  0  0
  -31.1180  -21.7420   20.7880 C   0  0  0  0  0  2  0  0  0  0  0  0
  -30.1630  -20.7180   21.4560 C   0  0  0  0  0  3  0  0  0  0  0  0
  -30.8350  -19.3380   21.7190 C   0  0  0  0  0  0  0  0  0  0  0  0
  -28.7710  -18.1740   20.9550 C   0  0  0  0  0  1  0  0  0  0  0  0
  -30.1810  -18.1930   21.3820 N   0  0  0  0  0  0  0  0  0  0  0  0
  -31.9540  -19.3200   22.2390 O   0  0  0  0  0  0  0  0  0  0  0  0
  -31.9220  -16.2830   21.0730 C   0  0  0  0  0  2  0  0  0  0  0  0
  -29.9170  -15.7020   20.9900 C   0  0  0  0  0  2  0  0  0  0  0  0
  -31.2270  -14.8990   21.0980 C   0  0  0  0  0  3  0  0  0  0  0  0
  -30.6410  -16.8330   21.7400 C   0  0  0  0  0  3  0  0  0  0  0  0
  -31.5110  -13.9410   19.9220 C   0  0  0  0  0  0  0  0  0  0  0  0
  -30.8740  -11.9180   18.6370 C   0  0  0  0  0  2  0  0  0  0  0  0
  -29.8820  -12.2540   17.5080 C   0  0  0  0  0  2  0  0  0  0  0  0
  -28.4330  -12.2750   18.0310 C   0  0  0  0  0  2  0  0  0  0  0  0
  -28.2790  -13.1240   19.3210 C   0  0  0  0  0  3  0  0  0  0  0  0
  -29.3560  -12.7210   20.3550 C   0  0  0  0  0  2  0  0  0  0  0  0
  -30.6760  -12.8870   19.7250 N   0  0  0  0  0  0  0  0  0  0  0  0
  -32.5140  -14.1270   19.2260 O   0  0  0  0  0  0  0  0  0  0  0  0
  -26.0050  -14.0200   20.1430 C   0  0  0  0  0  0  0  0  0  0  0  0
  -24.8730  -13.3800   20.5740 C   0  0  0  0  0  0  0  0  0  0  0  0
  -25.1690  -11.9830   20.5280 C   0  0  0  0  0  0  0  0  0  0  0  0
  -26.9270  -13.0190   19.8690 N   0  0  0  0  0  0  0  0  0  0  0  0
  -26.4260  -11.7910   20.1530 N   0  0  0  0  0  0  0  0  0  0  0  0
  -24.3110  -10.8160   20.7670 C   0  0  0  0  0  0  0  0  0  0  0  0
  -24.6500   -9.8330   21.7230 C   0  0  0  0  0  3  0  0  0  0  0  0
  -23.8010   -8.7280   21.9470 C   0  0  0  0  0  3  0  0  0  0  0  0
  -22.5970   -8.5990   21.2160 C   0  0  0  0  0  0  0  0  0  0  0  0
  -22.2750   -9.5670   20.2470 C   0  0  0  0  0  3  0  0  0  0  0  0
  -23.1250  -10.6640   20.0220 C   0  0  0  0  0  3  0  0  0  0  0  0
  -21.7240   -7.5460   21.3480 O   0  0  0  0  0  0  0  0  0  0  0  0
  -21.5780   -6.8780   22.5370 C   0  0  0  0  0  0  0  0  0  0  0  0
  -21.2100   -7.5450   23.7250 C   0  0  0  0  0  3  0  0  0  0  0  0
  -21.0020   -6.8090   24.9090 C   0  0  0  0  0  3  0  0  0  0  0  0
  -21.1530   -5.4090   24.9050 C   0  0  0  0  0  0  0  0  0  0  0  0
  -21.5130   -4.7430   23.7200 C   0  0  0  0  0  3  0  0  0  0  0  0
  -21.7220   -5.4760   22.5390 C   0  0  0  0  0  0  0  0  0  0  0  0
  -22.0500   -4.8270   21.3960 F   0  0  0  0  0  0  0  0  0  0  0  0
  -20.9450   -4.7020   26.0400 F   0  0  0  0  0  0  0  0  0  0  0  0
  -23.5580  -14.0180   20.9190 C   0  0  0  0  0  0  0  0  0  0  0  0
  -22.8170  -13.4310   21.8530 N   0  0  0  0  0  0  0  0  0  0  0  0
  -23.2010  -15.0730   20.3960 O   0  0  0  0  0  0  0  0  0  0  0  0
  -23.1190  -12.5760   22.2980 H   0  0  0  0  0  0  0  0  0  0  0  0
  -21.9360  -13.8420   22.1270 H   0  0  0  0  0  0  0  0  0  0  0  0
  -26.3190  -15.3610   19.9440 N   0  0  0  0  0  0  0  0  0  0  0  0
  -25.6420  -16.1020   20.0870 H   0  0  0  0  0  0  0  0  0  0  0  0
  -27.1970  -15.6940   19.5690 H   0  0  0  0  0  0  0  0  0  0  0  0
  -30.5570  -21.7450   23.8170 C   0  0  0  0  0  1  0  0  0  0  0  0
  -28.5400  -22.4500   22.4430 C   0  0  0  0  0  1  0  0  0  0  0  0
  -29.5280  -21.3080   22.7540 C   0  0  0  0  0  3  0  0  0  0  0  0
  -33.3450  -23.0440   19.0000 C   0  0  0  0  0  2  0  0  0  0  0  0
  -34.0290  -24.1930   18.2340 C   0  0  0  0  0  2  0  0  0  0  0  0
  -34.4690  -25.3960   19.1010 C   0  0  0  0  0  2  0  0  0  0  0  0
  -33.0300  -27.4040   18.7050 C   0  0  0  0  0  0  0  0  0  0  0  0
  -35.0870  -27.0840   17.4040 C   0  0  0  0  0  1  0  0  0  0  0  0
  -34.1390  -26.6700   18.4450 N   0  0  0  0  0  0  0  0  0  0  0  0
  -32.7830  -28.4480   18.0920 O   0  0  0  0  0  0  0  0  0  0  0  0
  -32.0500  -26.9420   19.7940 C   0  0  0  0  0  2  0  0  0  0  0  0
  -30.6300  -27.5110   19.6270 C   0  0  0  0  0  2  0  0  0  0  0  0
  -29.6620  -26.9800   20.6940 C   0  0  0  0  0  2  0  0  0  0  0  0
  -28.4410  -26.6450   20.0500 O   0  0  0  0  0  0  0  0  0  0  0  0
  -24.7140  -31.8380   23.2610 C   0  0  0  0  0  0  0  0  0  0  0  0
  -27.3410  -27.4700   20.1110 C   0  0  0  0  0  0  0  0  0  0  0  0
  -23.5010  -30.4890   21.5790 C   0  0  0  0  0  3  0  0  0  0  0  0
  -24.9480  -28.9700   20.1320 C   0  0  0  0  0  0  0  0  0  0  0  0
  -26.0220  -30.8430   21.3910 C   0  0  0  0  0  2  0  0  0  0  0  0
  -26.1030  -29.4840   20.7320 C   0  0  0  0  0  0  0  0  0  0  0  0
  -27.3050  -28.7460   20.7200 C   0  0  0  0  0  3  0  0  0  0  0  0
  -26.1690  -26.9660   19.5140 C   0  0  0  0  0  3  0  0  0  0  0  0
  -24.9730  -27.7060   19.5180 C   0  0  0  0  0  3  0  0  0  0  0  0
  -23.7110  -29.8360   20.1860 C   0  0  0  0  0  2  0  0  0  0  0  0
  -24.7640  -31.0670   22.1400 N   0  0  0  0  0  0  0  0  0  0  0  0
  -23.6340  -32.1070   23.8040 O   0  0  0  0  0  0  0  0  0  0  0  0
  -22.8340  -29.4530   22.5110 C   0  0  0  0  0  0  0  0  0  0  0  0
  -21.5070  -29.2940   22.3730 N   0  0  0  0  0  0  0  0  0  0  0  0
  -23.5050  -28.7970   23.3120 O   0  0  0  0  0  0  0  0  0  0  0  0
  -21.0280  -29.8780   21.7020 H   0  0  0  0  0  0  0  0  0  0  0  0
  -18.1160  -28.1360   22.8110 C   0  0  0  0  0  0  0  0  0  0  0  0
  -20.6730  -28.3500   23.1140 C   0  0  0  0  0  3  0  0  0  0  0  0
  -20.7620  -26.9310   22.5030 C   0  0  0  0  0  2  0  0  0  0  0  0
  -19.6650  -26.6470   21.4730 C   0  0  0  0  0  2  0  0  0  0  0  0
  -18.2800  -26.8000   22.1090 C   0  0  0  0  0  2  0  0  0  0  0  0
  -19.2410  -28.8720   23.2710 C   0  0  0  0  0  0  0  0  0  0  0  0
  -19.0360  -30.1260   23.8860 C   0  0  0  0  0  3  0  0  0  0  0  0
  -17.7370  -30.6420   24.0510 C   0  0  0  0  0  3  0  0  0  0  0  0
  -16.6260  -29.9030   23.6100 C   0  0  0  0  0  3  0  0  0  0  0  0
  -16.8160  -28.6530   22.9940 C   0  0  0  0  0  3  0  0  0  0  0  0
  -26.0070  -32.4380   23.9020 C   0  0  0  0  0  3  0  0  0  0  0  0
  -25.7010  -33.8160   24.3050 N   0  0  0  0  0  0  0  0  0  0  0  0
  -26.0350  -34.9040   23.5980 C   0  0  0  0  0  0  0  0  0  0  0  0
  -26.7010  -34.8510   22.5600 O   0  0  0  0  0  0  0  0  0  0  0  0
  -25.1090  -33.9300   25.1140 H   0  0  0  0  0  0  0  0  0  0  0  0
  -24.3070  -36.7100   23.3360 C   0  0  0  0  0  1  0  0  0  0  0  0
  -25.5490  -36.2660   24.1250 C   0  0  0  0  0  3  0  0  0  0  0  0
  -27.6870  -37.1090   24.9940 C   0  0  0  0  0  1  0  0  0  0  0  0
  -26.5820  -37.3230   24.0620 N   0  0  0  0  0  0  0  0  0  0  0  0
  -26.1770  -38.2350   24.2550 H   0  0  0  0  0  0  0  0  0  0  0  0
  -26.5360  -31.6000   25.1290 C   0  0  1  0  0  0  0  0  0  0  0  0
  -25.4490  -31.2870   26.1840 C   0  0  0  0  0  1  0  0  0  0  0  0
  -27.1360  -30.2580   24.6500 C   0  0  0  0  0  1  0  0  0  0  0  0
  -27.6760  -32.3690   25.8380 C   0  0  0  0  0  1  0  0  0  0  0  0
  1 52  1  0
  1  2  1  0
  2  3  1  0
  4  3  1  0
  4  5  1  0
  4 51  1  0
  5  8  2  0
  6  7  1  0
  7  5  1  0
  9 11  1  0
  9 12  1  0
 10 11  1  0
 10 12  1  0
 11 13  1  0
 12  7  1  0
 14 19  1  0
 15 16  1  0
 15 14  1  0
 17 16  1  0
 17 24  1  0
 17 18  1  0
 19 13  1  0
 19 18  1  0
 20 13  2  0
 21 22  2  0
 22 41  1  0
 23 22  1  0
 23 26  1  0
 24 21  1  0
 24 25  1  0
 25 23  2  0
 26 27  1  0
 27 28  2  0
 29 32  1  0
 29 28  1  0
 30 29  2  0
 31 30  1  0
 31 26  2  0
 32 33  1  0
 33 38  2  0
 33 34  1  0
 34 35  2  0
 36 35  1  0
 36 40  1  0
 37 36  2  0
 38 37  1  0
 39 38  1  0
 41 42  1  0
 42 45  1  0
 42 44  1  0
 43 41  2  0
 46 47  1  0
 46 21  1  0
 48 46  1  0
 50 51  1  0
 51 49  1  0
 53 52  1  0
 53 54  1  0
 55 59  1  0
 56 57  1  0
 57 55  1  0
 57 54  1  0
 58 55  2  0
 60 59  1  0
 60 61  1  0
 62 64  1  0
 62 61  1  0
 63 74  2  0
 64 69  1  0
 65 73  1  0
 65 75  1  0
 66 72  1  0
 66 68  1  0
 67 73  1  0
 68 67  1  0
 69 68  2  0
 70 71  1  0
 70 64  2  0
 71 66  2  0
 72 65  1  0
 73 63  1  0
 75 77  2  0
 76 75  1  0
 78 76  1  0
 79 88  2  0
 79 84  1  0
 80 76  1  0
 80 84  1  0
 81 80  1  0
 82 83  1  0
 82 81  1  0
 83 79  1  0
 84 85  2  0
 85 86  1  0
 87 86  2  0
 88 87  1  0
 89 63  1  0
 89 90  1  0
 89 99  1  0
 90 93  1  0
 91 95  1  0
 91 90  1  0
 92 91  2  0
 95 94  1  0
 97 95  1  0
 97 98  1  0
 97 96  1  0
 99102  1  1
 99100  1  0
101 99  1  0
M  ISO  4  11 100  13 100  61 101  62 101
M  END
>  <TORSDO>  (37) 
F 29

>  <SCORE>  (37) 
-10.458

>  <name>  (37) 
37

>  <ligand_id>  (37) 
37

>  <original_smiles>  (37) 
[H]c1c([H])c([H])c2c(c1[H])C([H])([H])C([H])([H])C([H])([H])C2([H])N([H])C(=O)C1([H])N(C(=O)C([H])(N([H])C(=O)C([H])(N([H])C([H])([H])[H])C([H])([H])[H])C(C([H])([H])[H])(C([H])([H])[H])C([H])([H])[H])C([H])([H])c2c([H])c(OC([H])([H])C([H])([H])C([H])([H])C(=O)N(C([H])([H])[H])C([H])([H])C([H])([H])C([H])([H])C([H])([H])C([H])([H])C([H])([H])C([H])(C(=O)N(C([H])([H])[H])C3([H])C([H])([H])C([H])(C(=O)N4C([H])([H])C([H])([H])C([H])([H])C([H])(n5nc(-c6c([H])c([H])c(Oc7c([H])c([H])c(F)c([H])c7F)c([H])c6[H])c(C(=O)N([H])[H])c5N([H])[H])C4([H])[H])C3([H])[H])C([H])(C([H])([H])[H])C([H])([H])[H])c([H])c([H])c2C1([H])[H]

>  <smiles>  (37) 
[H]c1c([H])c([H])c2c(c1[H])C([H])([H])C([H])([H])C([H])([H])C2([H])N([H])C(=O)C1([H])N(C(=O)C([H])(N([H])C(=O)C([H])(N([H])C([H])([H])[H])C([H])([H])[H])C(C([H])([H])[H])(C([H])([H])[H])C([H])([H])[H])C([H])([H])c2c([H])c(OC([H])([H])C([H])([H])C([H])([H])C(=O)N(C([H])([H])[H])C([H])([H])C([H])([H])C([H])([H])C([H])([H])C([H])([H])C([H])([H])C([H])(C(=O)N(C([H])([H])[H])C3([H])C([H])([H])C([H])(C(=O)N4C([H])([H])C([H])([H])C([H])([H])C([H])(n5nc(-c6c([H])c([H])c(Oc7c([H])c([H])c(F)c([H])c7F)c([H])c6[H])c(C(=O)N([H])[H])c5N([H])[H])C4([H])[H])C3([H])[H])C([H])(C([H])([H])[H])C([H])([H])[H])c([H])c([H])c2C1([H])[H]

$$$$
38:0:0
     RDKit          3D

 93101  0  0  1  0  0  0  0  0999 V2000
  -29.6080  -19.4760   20.7300 C   0  0  0  0  0  3  0  0  0  0  0  0
  -29.7000  -18.1180   20.2930 C   0  0  0  0  0  0  0  0  0  0  0  0
  -28.8090  -18.8480   18.1270 C   0  0  0  0  0  0  0  0  0  0  0  0
  -29.1240  -20.5290   19.8950 C   0  0  0  0  0  0  0  0  0  0  0  0
  -29.2820  -17.8240   18.9750 C   0  0  0  0  0  0  0  0  0  0  0  0
  -28.7250  -20.1820   18.5760 C   0  0  0  0  0  0  0  0  0  0  0  0
  -28.4230  -18.5250   16.6960 C   0  0  0  0  0  1  0  0  0  0  0  0
  -29.3570  -16.5590   18.4960 F   0  0  0  0  0  0  0  0  0  0  0  0
  -28.2620  -21.1130   17.7050 F   0  0  0  0  0  0  0  0  0  0  0  0
  -30.3110  -17.0330   21.2190 C   0  0  0  0  0  2  0  0  0  0  0  0
  -30.6460  -14.5970   20.5280 C   0  0  0  0  0  0  0  0  0  0  0  0
  -30.3880  -12.4280   19.3620 C   0  0  0  0  0  2  0  0  0  0  0  0
  -29.4550  -12.6250   18.1490 C   0  0  0  0  0  2  0  0  0  0  0  0
  -27.9770  -12.4750   18.5640 C   0  0  0  0  0  2  0  0  0  0  0  0
  -27.6200  -13.3050   19.8270 C   0  0  0  0  0  3  0  0  0  0  0  0
  -28.6660  -13.0870   20.9430 C   0  0  0  0  0  2  0  0  0  0  0  0
  -29.9900  -13.4080   20.3870 N   0  0  0  0  0  0  0  0  0  0  0  0
  -31.7940  -14.7720   20.1080 O   0  0  0  0  0  0  0  0  0  0  0  0
  -29.9100  -15.6140   21.0280 N   0  0  0  0  0  0  0  0  0  0  0  0
  -28.9720  -15.3820   21.3120 H   0  0  0  0  0  0  0  0  0  0  0  0
  -25.2140  -13.9070   20.5180 C   0  0  0  0  0  0  0  0  0  0  0  0
  -24.1440  -13.1310   20.8780 C   0  0  0  0  0  0  0  0  0  0  0  0
  -24.6110  -11.7820   20.8540 C   0  0  0  0  0  0  0  0  0  0  0  0
  -26.2640  -13.0280   20.2960 N   0  0  0  0  0  0  0  0  0  0  0  0
  -25.9040  -11.7450   20.5560 N   0  0  0  0  0  0  0  0  0  0  0  0
  -23.8880  -10.5170   21.0360 C   0  0  0  0  0  0  0  0  0  0  0  0
  -24.3040   -9.5560   21.9850 C   0  0  0  0  0  3  0  0  0  0  0  0
  -23.5760   -8.3580   22.1580 C   0  0  0  0  0  3  0  0  0  0  0  0
  -22.4190   -8.1130   21.3810 C   0  0  0  0  0  0  0  0  0  0  0  0
  -22.0230   -9.0620   20.4230 C   0  0  0  0  0  3  0  0  0  0  0  0
  -22.7520  -10.2510   20.2480 C   0  0  0  0  0  3  0  0  0  0  0  0
  -21.6680   -6.9660   21.4610 O   0  0  0  0  0  0  0  0  0  0  0  0
  -21.5920   -6.2330   22.6190 C   0  0  0  0  0  0  0  0  0  0  0  0
  -21.1230   -6.7950   23.8270 C   0  0  0  0  0  3  0  0  0  0  0  0
  -20.9930   -5.9870   24.9740 C   0  0  0  0  0  3  0  0  0  0  0  0
  -21.3240   -4.6200   24.9140 C   0  0  0  0  0  0  0  0  0  0  0  0
  -21.7880   -4.0590   23.7120 C   0  0  0  0  0  3  0  0  0  0  0  0
  -21.9180   -4.8630   22.5660 C   0  0  0  0  0  0  0  0  0  0  0  0
  -22.3430   -4.3110   21.4040 F   0  0  0  0  0  0  0  0  0  0  0  0
  -21.1930   -3.8430   26.0150 F   0  0  0  0  0  0  0  0  0  0  0  0
  -22.7430  -13.6070   21.1300 C   0  0  0  0  0  0  0  0  0  0  0  0
  -22.0020  -12.9130   21.9850 N   0  0  0  0  0  0  0  0  0  0  0  0
  -22.3120  -14.6340   20.6050 O   0  0  0  0  0  0  0  0  0  0  0  0
  -22.3600  -12.0880   22.4430 H   0  0  0  0  0  0  0  0  0  0  0  0
  -21.0620  -13.2190   22.1910 H   0  0  0  0  0  0  0  0  0  0  0  0
  -25.3720  -15.2780   20.3420 N   0  0  0  0  0  0  0  0  0  0  0  0
  -24.5940  -15.9220   20.4490 H   0  0  0  0  0  0  0  0  0  0  0  0
  -26.2130  -15.7270   20.0050 H   0  0  0  0  0  0  0  0  0  0  0  0
  -29.0750  -21.8230   20.4240 O   0  0  0  0  0  0  0  0  0  0  0  0
  -28.7070  -22.9540   19.5950 C   0  0  0  0  0  2  0  0  0  0  0  0
  -28.6960  -24.3070   20.3680 C   0  0  0  0  0  2  0  0  0  0  0  0
  -28.6440  -25.5720   19.4670 C   0  0  0  0  0  2  0  0  0  0  0  0
  -28.4900  -26.8040   20.2120 O   0  0  0  0  0  0  0  0  0  0  0  0
  -24.5970  -31.9700   23.2410 C   0  0  0  0  0  0  0  0  0  0  0  0
  -27.2910  -27.5020   20.2050 C   0  0  0  0  0  0  0  0  0  0  0  0
  -23.4140  -30.5570   21.5950 C   0  0  0  0  0  3  0  0  0  0  0  0
  -24.8860  -29.0150   20.2060 C   0  0  0  0  0  0  0  0  0  0  0  0
  -25.9470  -30.9180   21.4260 C   0  0  0  0  0  2  0  0  0  0  0  0
  -26.0420  -29.5450   20.7880 C   0  0  0  0  0  0  0  0  0  0  0  0
  -27.2490  -28.8020   20.7710 C   0  0  0  0  0  3  0  0  0  0  0  0
  -26.0940  -26.9770   19.6580 C   0  0  0  0  0  3  0  0  0  0  0  0
  -24.9060  -27.7290   19.6450 C   0  0  0  0  0  3  0  0  0  0  0  0
  -23.6460  -29.8810   20.2230 C   0  0  0  0  0  2  0  0  0  0  0  0
  -24.6690  -31.1650   22.1450 N   0  0  0  0  0  0  0  0  0  0  0  0
  -23.5060  -32.2410   23.7640 O   0  0  0  0  0  0  0  0  0  0  0  0
  -22.7550  -29.5340   22.5530 C   0  0  0  0  0  0  0  0  0  0  0  0
  -21.4330  -29.3460   22.4100 N   0  0  0  0  0  0  0  0  0  0  0  0
  -23.4310  -28.9160   23.3790 O   0  0  0  0  0  0  0  0  0  0  0  0
  -20.9500  -29.9000   21.7170 H   0  0  0  0  0  0  0  0  0  0  0  0
  -18.0530  -28.1570   22.9040 C   0  0  0  0  0  0  0  0  0  0  0  0
  -20.6110  -28.4110   23.1780 C   0  0  0  0  0  3  0  0  0  0  0  0
  -20.7090  -26.9780   22.6070 C   0  0  0  0  0  2  0  0  0  0  0  0
  -19.6090  -26.6560   21.5890 C   0  0  0  0  0  2  0  0  0  0  0  0
  -18.2250  -26.8070   22.2280 C   0  0  0  0  0  2  0  0  0  0  0  0
  -19.1720  -28.9150   23.3350 C   0  0  0  0  0  0  0  0  0  0  0  0
  -18.9580  -30.1780   23.9290 C   0  0  0  0  0  3  0  0  0  0  0  0
  -17.6550  -30.6850   24.0900 C   0  0  0  0  0  3  0  0  0  0  0  0
  -16.5480  -29.9250   23.6710 C   0  0  0  0  0  3  0  0  0  0  0  0
  -16.7480  -28.6610   23.0860 C   0  0  0  0  0  3  0  0  0  0  0  0
  -25.8720  -32.6080   23.8740 C   0  0  0  0  0  3  0  0  0  0  0  0
  -25.5520  -34.0070   24.1920 N   0  0  0  0  0  0  0  0  0  0  0  0
  -25.8800  -35.0550   23.4260 C   0  0  0  0  0  0  0  0  0  0  0  0
  -26.5620  -34.9480   22.4030 O   0  0  0  0  0  0  0  0  0  0  0  0
  -24.9600  -34.1660   24.9950 H   0  0  0  0  0  0  0  0  0  0  0  0
  -24.1500  -36.8380   23.0250 C   0  0  0  0  0  1  0  0  0  0  0  0
  -25.3760  -36.4440   23.8650 C   0  0  0  0  0  3  0  0  0  0  0  0
  -27.4900  -37.3470   24.7280 C   0  0  0  0  0  1  0  0  0  0  0  0
  -26.4050  -37.5020   23.7640 N   0  0  0  0  0  0  0  0  0  0  0  0
  -25.9910  -38.4220   23.8910 H   0  0  0  0  0  0  0  0  0  0  0  0
  -26.3810  -31.8460   25.1600 C   0  0  1  0  0  0  0  0  0  0  0  0
  -25.2810  -31.6040   26.2190 C   0  0  0  0  0  1  0  0  0  0  0  0
  -26.9870  -30.4710   24.7870 C   0  0  0  0  0  1  0  0  0  0  0  0
  -27.5160  -32.6550   25.8340 C   0  0  0  0  0  1  0  0  0  0  0  0
  2  1  1  0
  2 10  1  0
  3  6  2  0
  3  5  1  0
  4 49  1  0
  4  1  2  0
  5  2  2  0
  6  4  1  0
  7  3  1  0
  8  5  1  0
  9  6  1  0
 11 19  1  0
 12 17  1  0
 13 14  1  0
 13 12  1  0
 15 14  1  0
 15 24  1  0
 15 16  1  0
 17 11  1  0
 17 16  1  0
 18 11  2  0
 19 10  1  0
 19 20  1  0
 21 22  2  0
 22 41  1  0
 23 22  1  0
 23 26  1  0
 24 21  1  0
 24 25  1  0
 25 23  2  0
 26 27  1  0
 27 28  2  0
 29 32  1  0
 29 28  1  0
 30 29  2  0
 31 30  1  0
 31 26  2  0
 32 33  1  0
 33 34  1  0
 34 35  2  0
 36 35  1  0
 36 40  1  0
 37 36  2  0
 38 33  2  0
 38 37  1  0
 39 38  1  0
 41 42  1  0
 42 45  1  0
 42 44  1  0
 43 41  2  0
 46 47  1  0
 46 21  1  0
 48 46  1  0
 50 51  1  0
 50 49  1  0
 52 53  1  0
 52 51  1  0
 54 65  2  0
 55 53  1  0
 55 60  1  0
 56 64  1  0
 56 66  1  0
 57 63  1  0
 57 59  1  0
 58 64  1  0
 59 58  1  0
 60 59  2  0
 61 55  2  0
 62 61  1  0
 62 57  2  0
 63 56  1  0
 64 54  1  0
 66 68  2  0
 67 66  1  0
 69 67  1  0
 70 79  2  0
 70 75  1  0
 71 67  1  0
 71 75  1  0
 72 71  1  0
 73 74  1  0
 73 72  1  0
 74 70  1  0
 75 76  2  0
 76 77  1  0
 78 77  2  0
 79 78  1  0
 80 54  1  0
 80 81  1  0
 80 90  1  0
 81 84  1  0
 82 86  1  0
 82 81  1  0
 83 82  2  0
 86 85  1  0
 88 86  1  0
 88 89  1  0
 88 87  1  0
 90 93  1  1
 90 91  1  0
 92 90  1  0
M  ISO  4  11 100  19 100  52 101  53 101
M  END
>  <TORSDO>  (38) 
F 21

>  <SCORE>  (38) 
-13.728

>  <name>  (38) 
38

>  <ligand_id>  (38) 
38

>  <original_smiles>  (38) 
[H]c1c([H])c([H])c2c(c1[H])C([H])([H])C([H])([H])C([H])([H])C2([H])N([H])C(=O)C1([H])N(C(=O)C([H])(N([H])C(=O)C([H])(N([H])C([H])([H])[H])C([H])([H])[H])C(C([H])([H])[H])(C([H])([H])[H])C([H])([H])[H])C([H])([H])c2c([H])c(OC([H])([H])C([H])([H])C([H])([H])Oc3c([H])c(C([H])([H])N([H])C(=O)N4C([H])([H])C([H])([H])C([H])([H])C([H])(n5nc(-c6c([H])c([H])c(Oc7c([H])c([H])c(F)c([H])c7F)c([H])c6[H])c(C(=O)N([H])[H])c5N([H])[H])C4([H])[H])c(F)c(C([H])([H])[H])c3F)c([H])c([H])c2C1([H])[H]

>  <smiles>  (38) 
[H]c1c([H])c([H])c2c(c1[H])C([H])([H])C([H])([H])C([H])([H])C2([H])N([H])C(=O)C1([H])N(C(=O)C([H])(N([H])C(=O)C([H])(N([H])C([H])([H])[H])C([H])([H])[H])C(C([H])([H])[H])(C([H])([H])[H])C([H])([H])[H])C([H])([H])c2c([H])c(OC([H])([H])C([H])([H])C([H])([H])Oc3c([H])c(C([H])([H])N([H])C(=O)N4C([H])([H])C([H])([H])C([H])([H])C([H])(n5nc(-c6c([H])c([H])c(Oc7c([H])c([H])c(F)c([H])c7F)c([H])c6[H])c(C(=O)N([H])[H])c5N([H])[H])C4([H])[H])c(F)c(C([H])([H])[H])c3F)c([H])c([H])c2C1([H])[H]

$$$$
39:0:0
     RDKit          3D

 98106  0  0  1  0  0  0  0  0999 V2000
  -26.4880  -20.5280   20.2500 C   0  0  0  0  0  2  0  0  0  0  0  0
  -28.9910  -20.1100   20.7210 C   0  0  0  0  0  3  0  0  0  0  0  0
  -28.7320  -17.4030   20.0330 C   0  0  0  0  0  3  0  0  0  0  0  0
  -30.1360  -19.2870   20.6870 C   0  0  0  0  0  0  0  0  0  0  0  0
  -27.7250  -19.6160   20.3380 C   0  0  0  0  0  0  0  0  0  0  0  0
  -30.0160  -17.9300   20.2870 C   0  0  0  0  0  0  0  0  0  0  0  0
  -27.5960  -18.2390   20.0540 C   0  0  0  0  0  0  0  0  0  0  0  0
  -31.4630  -19.9210   21.0750 C   0  0  0  0  0  1  0  0  0  0  0  0
  -26.0270  -17.5620   19.7790 Cl  0  0  0  0  0  0  0  0  0  0  0  0
  -32.2800  -17.0530   21.7810 C   0  0  0  0  0  1  0  0  0  0  0  0
  -30.9260  -15.3180   20.2320 N   0  0  0  0  0  2  0  0  0  0  0  0
  -32.3390  -17.2690   19.1090 O   0  0  0  0  0  1  0  0  0  0  0  0
  -31.4390  -16.8040   20.1820 S   0  0  1  0  0  0  0  0  0  0  0  0
  -31.5130  -14.3070   19.4610 C   0  0  0  0  0  0  0  0  0  0  0  0
  -31.0570  -12.0360   18.5820 C   0  0  0  0  0  2  0  0  0  0  0  0
  -29.9260  -12.0850   17.5350 C   0  0  0  0  0  2  0  0  0  0  0  0
  -28.5330  -12.0590   18.1970 C   0  0  0  0  0  2  0  0  0  0  0  0
  -28.4100  -13.0650   19.3710 C   0  0  0  0  0  3  0  0  0  0  0  0
  -29.6100  -12.9060   20.3220 C   0  0  0  0  0  2  0  0  0  0  0  0
  -30.8380  -13.1290   19.5380 N   0  0  0  0  0  0  0  0  0  0  0  0
  -32.4920  -14.4530   18.7260 O   0  0  0  0  0  0  0  0  0  0  0  0
  -26.3460  -13.8830   20.6720 C   0  0  0  0  0  0  0  0  0  0  0  0
  -25.2400  -13.2270   21.1400 C   0  0  0  0  0  0  0  0  0  0  0  0
  -25.4130  -11.8580   20.7710 C   0  0  0  0  0  0  0  0  0  0  0  0
  -27.1380  -12.9150   20.0730 N   0  0  0  0  0  0  0  0  0  0  0  0
  -26.5850  -11.6820   20.1780 N   0  0  0  0  0  0  0  0  0  0  0  0
  -24.5020  -10.7140   20.8930 C   0  0  0  0  0  0  0  0  0  0  0  0
  -24.7980   -9.6230   21.7410 C   0  0  0  0  0  3  0  0  0  0  0  0
  -23.9020   -8.5380   21.8490 C   0  0  0  0  0  3  0  0  0  0  0  0
  -22.6910   -8.5430   21.1190 C   0  0  0  0  0  0  0  0  0  0  0  0
  -22.4120   -9.6200   20.2600 C   0  0  0  0  0  3  0  0  0  0  0  0
  -23.3070  -10.6980   20.1480 C   0  0  0  0  0  3  0  0  0  0  0  0
  -21.7720   -7.5210   21.1440 O   0  0  0  0  0  0  0  0  0  0  0  0
  -21.4970   -6.8310   22.2950 C   0  0  0  0  0  0  0  0  0  0  0  0
  -20.9930   -7.4750   23.4470 C   0  0  0  0  0  3  0  0  0  0  0  0
  -20.6550   -6.7180   24.5850 C   0  0  0  0  0  3  0  0  0  0  0  0
  -20.8150   -5.3190   24.5750 C   0  0  0  0  0  0  0  0  0  0  0  0
  -21.3110   -4.6760   23.4260 C   0  0  0  0  0  3  0  0  0  0  0  0
  -21.6500   -5.4300   22.2910 C   0  0  0  0  0  0  0  0  0  0  0  0
  -22.1080   -4.8040   21.1800 F   0  0  0  0  0  0  0  0  0  0  0  0
  -20.4820   -4.5890   25.6650 F   0  0  0  0  0  0  0  0  0  0  0  0
  -24.0430  -13.8450   21.8020 C   0  0  0  0  0  0  0  0  0  0  0  0
  -23.3820  -13.1060   22.6850 N   0  0  0  0  0  0  0  0  0  0  0  0
  -23.7130  -15.0090   21.5740 O   0  0  0  0  0  0  0  0  0  0  0  0
  -23.6650  -12.1590   22.8940 H   0  0  0  0  0  0  0  0  0  0  0  0
  -22.5840  -13.4950   23.1690 H   0  0  0  0  0  0  0  0  0  0  0  0
  -26.7370  -15.2120   20.6840 N   0  0  0  0  0  0  0  0  0  0  0  0
  -26.2030  -15.9310   21.1580 H   0  0  0  0  0  0  0  0  0  0  0  0
  -27.6060  -15.5510   20.2960 H   0  0  0  0  0  0  0  0  0  0  0  0
  -26.7690  -21.9700   20.0440 N   0  0  0  0  0  4  0  0  0  0  0  0
  -27.3470  -22.2900   20.8030 H   0  0  0  0  0  0  0  0  0  0  0  0
  -25.8980  -22.4660   20.1450 H   0  0  0  0  0  0  0  0  0  0  0  0
  -26.4170  -22.1830   17.5680 C   0  0  0  0  0  1  0  0  0  0  0  0
  -27.3970  -22.3600   18.7510 C   0  0  0  0  0  3  0  0  0  0  0  0
  -27.8340  -23.8260   18.8260 C   0  0  0  0  0  2  0  0  0  0  0  0
  -29.0240  -24.2230   19.7780 C   0  0  0  0  0  2  0  0  0  0  0  0
  -28.7980  -25.6420   20.3640 C   0  0  0  0  0  2  0  0  0  0  0  0
  -29.0000  -27.0250   20.0060 O   0  0  0  0  0  0  0  0  0  0  0  0
  -24.5780  -31.5220   23.2770 C   0  0  0  0  0  0  0  0  0  0  0  0
  -27.7820  -27.6980   19.9460 C   0  0  0  0  0  0  0  0  0  0  0  0
  -23.5720  -30.0910   21.5310 C   0  0  0  0  0  3  0  0  0  0  0  0
  -25.2170  -28.8690   20.0270 C   0  0  0  0  0  0  0  0  0  0  0  0
  -26.0300  -30.7930   21.3930 C   0  0  0  0  0  2  0  0  0  0  0  0
  -26.2980  -29.4950   20.6650 C   0  0  0  0  0  0  0  0  0  0  0  0
  -27.5880  -28.9160   20.6270 C   0  0  0  0  0  3  0  0  0  0  0  0
  -26.6800  -27.1080   19.2750 C   0  0  0  0  0  3  0  0  0  0  0  0
  -25.4000  -27.6690   19.3320 C   0  0  0  0  0  3  0  0  0  0  0  0
  -23.8720  -29.5440   20.1130 C   0  0  0  0  0  2  0  0  0  0  0  0
  -24.7450  -30.8110   22.1300 N   0  0  0  0  0  0  0  0  0  0  0  0
  -23.4670  -31.6190   23.8140 O   0  0  0  0  0  0  0  0  0  0  0  0
  -23.0460  -28.9360   22.4110 C   0  0  0  0  0  0  0  0  0  0  0  0
  -21.7850  -28.5350   22.1910 N   0  0  0  0  0  0  0  0  0  0  0  0
  -23.7750  -28.3990   23.2490 O   0  0  0  0  0  0  0  0  0  0  0  0
  -21.2450  -29.0400   21.5020 H   0  0  0  0  0  0  0  0  0  0  0  0
  -18.6860  -26.6860   22.3320 C   0  0  0  0  0  0  0  0  0  0  0  0
  -21.0970  -27.4390   22.8730 C   0  0  0  0  0  3  0  0  0  0  0  0
  -21.5470  -26.0710   22.3100 C   0  0  0  0  0  2  0  0  0  0  0  0
  -20.6420  -25.5540   21.1870 C   0  0  0  0  0  2  0  0  0  0  0  0
  -19.1990  -25.4110   21.6830 C   0  0  0  0  0  2  0  0  0  0  0  0
  -19.5790  -27.6450   22.8780 C   0  0  0  0  0  0  0  0  0  0  0  0
  -19.0560  -28.8230   23.4530 C   0  0  0  0  0  3  0  0  0  0  0  0
  -17.6660  -29.0550   23.4770 C   0  0  0  0  0  3  0  0  0  0  0  0
  -16.7830  -28.1040   22.9340 C   0  0  0  0  0  3  0  0  0  0  0  0
  -17.2930  -26.9180   22.3710 C   0  0  0  0  0  3  0  0  0  0  0  0
  -25.7710  -32.2680   23.9510 C   0  0  0  0  0  3  0  0  0  0  0  0
  -25.3410  -33.6480   24.2100 N   0  0  0  0  0  0  0  0  0  0  0  0
  -25.6360  -34.6930   23.4270 C   0  0  0  0  0  0  0  0  0  0  0  0
  -26.3710  -34.6050   22.4410 O   0  0  0  0  0  0  0  0  0  0  0  0
  -24.6910  -33.7870   24.9690 H   0  0  0  0  0  0  0  0  0  0  0  0
  -23.8010  -36.3310   22.9020 C   0  0  0  0  0  1  0  0  0  0  0  0
  -25.0180  -36.0530   23.8000 C   0  0  0  0  0  3  0  0  0  0  0  0
  -27.0180  -37.1340   24.7220 C   0  0  0  0  0  1  0  0  0  0  0  0
  -25.9720  -37.1800   23.7040 N   0  0  0  0  0  0  0  0  0  0  0  0
  -25.4870  -38.0690   23.7880 H   0  0  0  0  0  0  0  0  0  0  0  0
  -26.2610  -31.5760   25.2800 C   0  0  1  0  0  0  0  0  0  0  0  0
  -25.1210  -31.2890   26.2840 C   0  0  0  0  0  1  0  0  0  0  0  0
  -26.9700  -30.2360   24.9710 C   0  0  0  0  0  1  0  0  0  0  0  0
  -27.3020  -32.4760   25.9870 C   0  0  0  0  0  1  0  0  0  0  0  0
  1  5  1  0
  3  7  2  0
  3  6  1  0
  4  2  1  0
  4  8  1  0
  5  2  2  0
  6  4  2  0
  7  5  1  0
  9  7  1  0
 12 13  1  0
 13 11  1  0
 13  6  1  0
 13 10  1  1
 14 20  1  0
 14 11  1  0
 15 20  1  0
 16 17  1  0
 16 15  1  0
 18 17  1  0
 18 25  1  0
 18 19  1  0
 20 19  1  0
 21 14  2  0
 22 47  1  0
 22 23  2  0
 23 42  1  0
 24 27  1  0
 24 23  1  0
 25 26  1  0
 25 22  1  0
 26 24  2  0
 27 28  1  0
 28 29  2  0
 30 33  1  0
 30 29  1  0
 31 30  2  0
 32 31  1  0
 32 27  2  0
 33 34  1  0
 34 35  1  0
 35 36  2  0
 37 36  1  0
 37 41  1  0
 38 37  2  0
 39 34  2  0
 39 38  1  0
 40 39  1  0
 42 43  1  0
 43 45  1  0
 43 46  1  0
 44 42  2  0
 47 48  1  0
 49 47  1  0
 50 52  1  0
 50  1  1  0
 50 51  1  0
 54 53  1  0
 54 55  1  0
 54 50  1  0
 55 56  1  0
 56 57  1  0
 58 57  1  0
 59 70  2  0
 60 58  1  0
 60 65  1  0
 61 69  1  0
 61 71  1  0
 62 68  1  0
 62 64  1  0
 63 69  1  0
 64 63  1  0
 65 64  2  0
 66 67  1  0
 66 60  2  0
 67 62  2  0
 68 61  1  0
 69 59  1  0
 71 73  2  0
 72 71  1  0
 74 72  1  0
 75 84  2  0
 75 80  1  0
 76 72  1  0
 76 80  1  0
 77 76  1  0
 78 79  1  0
 78 77  1  0
 79 75  1  0
 80 81  2  0
 81 82  1  0
 83 82  2  0
 84 83  1  0
 85 59  1  0
 85 86  1  0
 85 95  1  0
 86 89  1  0
 87 91  1  0
 87 86  1  0
 88 87  2  0
 91 90  1  0
 93 94  1  0
 93 91  1  0
 93 92  1  0
 95 98  1  1
 95 96  1  0
 97 95  1  0
M  ISO  4  11 100  14 100  57 101  58 101
M  END
>  <TORSDO>  (39) 
F 23

>  <SCORE>  (39) 
-7.602

>  <name>  (39) 
39

>  <ligand_id>  (39) 
39

>  <original_smiles>  (39) 
[H]c1c([H])c([H])c2c(c1[H])C([H])([H])C([H])([H])C([H])([H])C2([H])N([H])C(=O)C1([H])N(C(=O)C([H])(N([H])C(=O)C([H])(N([H])C([H])([H])[H])C([H])([H])[H])C(C([H])([H])[H])(C([H])([H])[H])C([H])([H])[H])C([H])([H])c2c([H])c(OC([H])([H])C([H])([H])C([H])([H])C([H])(C([H])([H])[H])[N+]([H])([H])C([H])([H])c3c([H])c(C([H])([H])[H])c(S(=O)(=NC(=O)N4C([H])([H])C([H])([H])C([H])([H])C([H])(n5nc(-c6c([H])c([H])c(Oc7c([H])c([H])c(F)c([H])c7F)c([H])c6[H])c(C(=O)N([H])[H])c5N([H])[H])C4([H])[H])C([H])([H])[H])c([H])c3Cl)c([H])c([H])c2C1([H])[H]

>  <smiles>  (39) 
[H]c1c([H])c([H])c2c(c1[H])C([H])([H])C([H])([H])C([H])([H])C2([H])N([H])C(=O)C1([H])N(C(=O)C([H])(N([H])C(=O)C([H])(N([H])C([H])([H])[H])C([H])([H])[H])C(C([H])([H])[H])(C([H])([H])[H])C([H])([H])[H])C([H])([H])c2c([H])c(OC([H])([H])C([H])([H])C([H])([H])C([H])(C([H])([H])[H])[N+]([H])([H])C([H])([H])c3c([H])c(C([H])([H])[H])c(S(=O)(=NC(=O)N4C([H])([H])C([H])([H])C([H])([H])C([H])(n5nc(-c6c([H])c([H])c(Oc7c([H])c([H])c(F)c([H])c7F)c([H])c6[H])c(C(=O)N([H])[H])c5N([H])[H])C4([H])[H])C([H])([H])[H])c([H])c3Cl)c([H])c([H])c2C1([H])[H]

$$$$
40:0:0
     RDKit          3D

 99109  0  0  1  0  0  0  0  0999 V2000
  -29.6770  -20.5130   19.4060 C   0  0  0  0  0  2  0  0  0  0  0  0
  -29.4920  -20.3770   21.9480 C   0  0  0  0  0  2  0  0  0  0  0  0
  -30.1920  -21.9530   19.6050 C   0  0  0  0  0  2  0  0  0  0  0  0
  -29.9770  -21.8580   22.0030 C   0  0  0  0  0  2  0  0  0  0  0  0
  -29.8240  -19.5730   20.6380 C   0  0  0  0  0  3  0  0  0  0  0  0
  -29.5650  -22.6030   20.7830 N   0  0  1  0  0  4  0  0  0  0  0  0
  -28.5680  -22.4800   20.6970 H   0  0  0  0  0  0  0  0  0  0  0  0
  -28.9260  -18.3190   20.4750 C   0  0  0  0  0  0  0  0  0  0  0  0
  -29.0520  -16.9110   20.5770 C   0  0  0  0  0  0  0  0  0  0  0  0
  -26.9440  -17.4740   20.1400 C   0  0  0  0  0  0  0  0  0  0  0  0
  -25.4760  -17.3910   19.8150 C   0  0  0  0  0  1  0  0  0  0  0  0
  -27.2680  -15.0940   20.7580 C   0  0  0  0  0  1  0  0  0  0  0  0
  -27.6150  -18.6070   20.0950 N   0  0  0  0  0  0  0  0  0  0  0  0
  -27.7230  -16.4460   20.5060 N   0  0  0  0  0  0  0  0  0  0  0  0
  -31.0720  -13.7070   19.7560 C   0  0  0  0  0  0  0  0  0  0  0  0
  -30.7520  -11.2930   19.3260 C   0  0  0  0  0  2  0  0  0  0  0  0
  -29.8240  -11.0250   18.1290 C   0  0  0  0  0  2  0  0  0  0  0  0
  -28.3580  -10.9770   18.5960 C   0  0  0  0  0  2  0  0  0  0  0  0
  -27.9780  -12.1890   19.5000 C   0  0  0  0  0  3  0  0  0  0  0  0
  -29.0490  -12.4210   20.6130 C   0  0  0  0  0  2  0  0  0  0  0  0
  -30.3380  -12.5710   19.9500 N   0  0  0  0  0  0  0  0  0  0  0  0
  -32.2250  -13.5600   19.3410 O   0  0  0  0  0  0  0  0  0  0  0  0
  -31.5760  -16.5940   21.0020 C   0  0  0  0  0  2  0  0  0  0  0  0
  -31.1750  -15.8900   18.7410 C   0  0  0  0  0  2  0  0  0  0  0  0
  -30.2220  -15.8960   20.7870 C   0  0  0  0  0  3  0  0  0  0  0  0
  -32.2370  -16.5790   19.6220 C   0  0  0  0  0  3  0  0  0  0  0  0
  -30.4810  -14.9530   19.6530 N   0  0  0  0  0  0  0  0  0  0  0  0
  -33.3700  -15.8800   19.6660 F   0  0  0  0  0  0  0  0  0  0  0  0
  -25.6510  -13.0510   20.2130 C   0  0  0  0  0  0  0  0  0  0  0  0
  -24.5270  -12.4010   20.6640 C   0  0  0  0  0  0  0  0  0  0  0  0
  -24.8780  -11.0230   20.7300 C   0  0  0  0  0  0  0  0  0  0  0  0
  -26.6170  -12.0700   20.0350 N   0  0  0  0  0  0  0  0  0  0  0  0
  -26.1510  -10.8470   20.3950 N   0  0  0  0  0  0  0  0  0  0  0  0
  -24.0510   -9.8440   21.0230 C   0  0  0  0  0  0  0  0  0  0  0  0
  -24.4610   -8.8670   21.9540 C   0  0  0  0  0  3  0  0  0  0  0  0
  -23.6430   -7.7510   22.2310 C   0  0  0  0  0  3  0  0  0  0  0  0
  -22.3960   -7.6070   21.5750 C   0  0  0  0  0  0  0  0  0  0  0  0
  -22.0010   -8.5700   20.6290 C   0  0  0  0  0  3  0  0  0  0  0  0
  -22.8210   -9.6790   20.3540 C   0  0  0  0  0  3  0  0  0  0  0  0
  -21.5460   -6.5440   21.7680 O   0  0  0  0  0  0  0  0  0  0  0  0
  -21.6010   -5.7700   22.8990 C   0  0  0  0  0  0  0  0  0  0  0  0
  -21.3750   -6.3060   24.1860 C   0  0  0  0  0  3  0  0  0  0  0  0
  -21.3750   -5.4600   25.3140 C   0  0  0  0  0  3  0  0  0  0  0  0
  -21.5880   -4.0780   25.1560 C   0  0  0  0  0  0  0  0  0  0  0  0
  -21.8000   -3.5390   23.8750 C   0  0  0  0  0  3  0  0  0  0  0  0
  -21.8060   -4.3820   22.7510 C   0  0  0  0  0  0  0  0  0  0  0  0
  -21.9940   -3.8510   21.5190 F   0  0  0  0  0  0  0  0  0  0  0  0
  -21.5790   -3.2650   26.2380 F   0  0  0  0  0  0  0  0  0  0  0  0
  -23.1800  -13.0160   20.9190 C   0  0  0  0  0  0  0  0  0  0  0  0
  -22.4180  -12.4560   21.8550 N   0  0  0  0  0  0  0  0  0  0  0  0
  -22.8170  -14.0280   20.3260 O   0  0  0  0  0  0  0  0  0  0  0  0
  -22.7250  -11.6350   22.3480 H   0  0  0  0  0  0  0  0  0  0  0  0
  -21.5110  -12.8490   22.0640 H   0  0  0  0  0  0  0  0  0  0  0  0
  -25.9240  -14.3800   19.9280 N   0  0  0  0  0  0  0  0  0  0  0  0
  -25.2230  -15.1040   20.0000 H   0  0  0  0  0  0  0  0  0  0  0  0
  -26.7990  -14.7040   19.5270 H   0  0  0  0  0  0  0  0  0  0  0  0
  -29.7910  -24.0900   20.8110 C   0  0  0  0  0  2  0  0  0  0  0  0
  -28.4780  -24.9250   20.9130 C   0  0  0  0  0  2  0  0  0  0  0  0
  -28.6760  -26.3570   20.6990 O   0  0  0  0  0  0  0  0  0  0  0  0
  -24.7440  -31.7740   23.1800 C   0  0  0  0  0  0  0  0  0  0  0  0
  -27.5320  -27.1260   20.5520 C   0  0  0  0  0  0  0  0  0  0  0  0
  -23.6300  -30.2740   21.5650 C   0  0  0  0  0  3  0  0  0  0  0  0
  -25.1530  -28.6610   20.3070 C   0  0  0  0  0  0  0  0  0  0  0  0
  -26.1650  -30.6260   21.4780 C   0  0  0  0  0  2  0  0  0  0  0  0
  -26.2820  -29.2180   20.9220 C   0  0  0  0  0  0  0  0  0  0  0  0
  -27.4760  -28.4620   21.0360 C   0  0  0  0  0  3  0  0  0  0  0  0
  -26.3920  -26.6020   19.9050 C   0  0  0  0  0  3  0  0  0  0  0  0
  -25.2010  -27.3480   19.8030 C   0  0  0  0  0  3  0  0  0  0  0  0
  -23.9100  -29.5210   20.2400 C   0  0  0  0  0  2  0  0  0  0  0  0
  -24.8630  -30.9130   22.1320 N   0  0  0  0  0  0  0  0  0  0  0  0
  -23.6370  -32.0750   23.6470 O   0  0  0  0  0  0  0  0  0  0  0  0
  -22.9320  -29.3130   22.5490 C   0  0  0  0  0  0  0  0  0  0  0  0
  -21.6060  -29.1650   22.3970 N   0  0  0  0  0  0  0  0  0  0  0  0
  -23.5730  -28.7010   23.4100 O   0  0  0  0  0  0  0  0  0  0  0  0
  -21.1500  -29.7170   21.6830 H   0  0  0  0  0  0  0  0  0  0  0  0
  -18.1780  -28.1160   22.9230 C   0  0  0  0  0  0  0  0  0  0  0  0
  -20.7450  -28.2790   23.1820 C   0  0  0  0  0  3  0  0  0  0  0  0
  -20.7870  -26.8320   22.6440 C   0  0  0  0  0  2  0  0  0  0  0  0
  -19.6650  -26.5130   21.6460 C   0  0  0  0  0  2  0  0  0  0  0  0
  -18.2880  -26.7470   22.2750 C   0  0  0  0  0  2  0  0  0  0  0  0
  -19.3290  -28.8400   23.3330 C   0  0  0  0  0  0  0  0  0  0  0  0
  -19.1660  -30.1220   23.9000 C   0  0  0  0  0  3  0  0  0  0  0  0
  -17.8850  -30.6810   24.0550 C   0  0  0  0  0  3  0  0  0  0  0  0
  -16.7480  -29.9570   23.6530 C   0  0  0  0  0  3  0  0  0  0  0  0
  -16.8970  -28.6720   23.1060 C   0  0  0  0  0  3  0  0  0  0  0  0
  -25.9960  -32.4440   23.8280 C   0  0  0  0  0  3  0  0  0  0  0  0
  -26.5410  -31.6690   25.0920 C   0  0  1  0  0  0  0  0  0  0  0  0
  -25.4520  -31.3280   26.1350 C   0  0  0  0  0  1  0  0  0  0  0  0
  -27.2200  -30.3410   24.6740 C   0  0  0  0  0  1  0  0  0  0  0  0
  -27.6260  -32.5180   25.7990 C   0  0  0  0  0  1  0  0  0  0  0  0
  -25.6330  -33.8260   24.1730 N   0  0  0  0  0  0  0  0  0  0  0  0
  -25.9760  -34.9010   23.4500 C   0  0  0  0  0  0  0  0  0  0  0  0
  -26.6960  -34.8410   22.4520 O   0  0  0  0  0  0  0  0  0  0  0  0
  -24.9890  -33.9510   24.9400 H   0  0  0  0  0  0  0  0  0  0  0  0
  -24.2170  -36.6630   23.0540 C   0  0  0  0  0  1  0  0  0  0  0  0
  -25.4270  -36.2640   23.9130 C   0  0  0  0  0  3  0  0  0  0  0  0
  -27.4980  -37.1840   24.8600 C   0  0  0  0  0  1  0  0  0  0  0  0
  -26.4330  -37.3450   23.8740 N   0  0  0  0  0  0  0  0  0  0  0  0
  -25.9920  -38.2490   24.0260 H   0  0  0  0  0  0  0  0  0  0  0  0
  1  3  1  0
  1  5  1  0
  2  4  1  0
  3  6  1  0
  5  8  1  0
  5  2  1  0
  6 57  1  0
  6  4  1  0
  6  7  1  6
  8  9  2  0
 10 14  1  0
 11 10  1  0
 13 10  2  0
 13  8  1  0
 14  9  1  0
 14 12  1  0
 15 21  1  0
 16 21  1  0
 17 18  1  0
 17 16  1  0
 19 18  1  0
 19 32  1  0
 19 20  1  0
 21 20  1  0
 22 15  2  0
 24 26  1  0
 24 27  1  0
 25  9  1  0
 25 23  1  0
 26 28  1  0
 26 23  1  0
 27 15  1  0
 27 25  1  0
 29 30  2  0
 30 31  1  0
 30 49  1  0
 31 34  1  0
 32 29  1  0
 32 33  1  0
 33 31  2  0
 34 35  1  0
 35 36  2  0
 37 40  1  0
 37 36  1  0
 38 37  2  0
 39 38  1  0
 39 34  2  0
 40 41  1  0
 41 42  1  0
 42 43  2  0
 44 43  1  0
 44 48  1  0
 45 44  2  0
 46 41  2  0
 46 45  1  0
 47 46  1  0
 49 50  1  0
 50 53  1  0
 50 52  1  0
 51 49  2  0
 54 55  1  0
 54 29  1  0
 56 54  1  0
 57 58  1  0
 59 58  1  0
 60 71  2  0
 61 59  1  0
 61 66  1  0
 62 70  1  0
 62 72  1  0
 63 65  1  0
 64 70  1  0
 65 66  2  0
 65 64  1  0
 67 61  2  0
 68 67  1  0
 68 63  2  0
 69 63  1  0
 69 62  1  0
 70 60  1  0
 72 74  2  0
 73 72  1  0
 75 73  1  0
 76 85  2  0
 76 81  1  0
 77 73  1  0
 77 81  1  0
 78 77  1  0
 79 80  1  0
 79 78  1  0
 80 76  1  0
 81 82  2  0
 82 83  1  0
 84 83  2  0
 85 84  1  0
 86 60  1  0
 86 91  1  0
 86 87  1  0
 87 90  1  1
 87 88  1  0
 89 87  1  0
 91 94  1  0
 92 96  1  0
 92 91  1  0
 93 92  2  0
 96 95  1  0
 98 96  1  0
 98 99  1  0
 98 97  1  0
M  ISO  4  15 100  27 100  58 101  59 101
M  END
>  <TORSDO>  (40) 
F 19

>  <SCORE>  (40) 
-13.108

>  <name>  (40) 
40

>  <ligand_id>  (40) 
40

>  <original_smiles>  (40) 
[H]c1c([H])c([H])c2c(c1[H])C([H])([H])C([H])([H])C([H])([H])C2([H])N([H])C(=O)C1([H])N(C(=O)C([H])(N([H])C(=O)C([H])(N([H])C([H])([H])[H])C([H])([H])[H])C(C([H])([H])[H])(C([H])([H])[H])C([H])([H])[H])C([H])([H])c2c([H])c(OC([H])([H])C([H])([H])[N+]3([H])C([H])([H])C([H])([H])C([H])(c4nc(C([H])([H])[H])n(C([H])([H])[H])c4C4([H])N(C(=O)N5C([H])([H])C([H])([H])C([H])([H])C([H])(n6nc(-c7c([H])c([H])c(Oc8c([H])c([H])c(F)c([H])c8F)c([H])c7[H])c(C(=O)N([H])[H])c6N([H])[H])C5([H])[H])C([H])([H])C([H])(F)C4([H])[H])C([H])([H])C3([H])[H])c([H])c([H])c2C1([H])[H]

>  <smiles>  (40) 
[H]c1c([H])c([H])c2c(c1[H])C([H])([H])C([H])([H])C([H])([H])C2([H])N([H])C(=O)C1([H])N(C(=O)C([H])(N([H])C(=O)C([H])(N([H])C([H])([H])[H])C([H])([H])[H])C(C([H])([H])[H])(C([H])([H])[H])C([H])([H])[H])C([H])([H])c2c([H])c(OC([H])([H])C([H])([H])[N+]3([H])C([H])([H])C([H])([H])C([H])(c4nc(C([H])([H])[H])n(C([H])([H])[H])c4C4([H])N(C(=O)N5C([H])([H])C([H])([H])C([H])([H])C([H])(n6nc(-c7c([H])c([H])c(Oc8c([H])c([H])c(F)c([H])c8F)c([H])c7[H])c(C(=O)N([H])[H])c6N([H])[H])C5([H])[H])C([H])([H])C([H])(F)C4([H])[H])C([H])([H])C3([H])[H])c([H])c([H])c2C1([H])[H]

$$$$
41:0:0
     RDKit          3D

 96104  0  0  1  0  0  0  0  0999 V2000
  -30.9090  -20.4780   22.3140 C   0  0  0  0  0  3  0  0  0  0  0  0
  -29.5780  -20.1640   21.9880 C   0  0  0  0  0  0  0  0  0  0  0  0
  -31.7000  -18.4130   21.2650 C   0  0  0  0  0  0  0  0  0  0  0  0
  -30.3560  -18.0700   20.9320 C   0  0  0  0  0  0  0  0  0  0  0  0
  -31.9610  -19.6170   21.9660 C   0  0  0  0  0  0  0  0  0  0  0  0
  -29.2990  -18.9530   21.3040 C   0  0  0  0  0  0  0  0  0  0  0  0
  -32.8610  -17.5080   20.8590 C   0  0  0  0  0  1  0  0  0  0  0  0
  -33.5620  -20.0950   22.4130 Cl  0  0  0  0  0  0  0  0  0  0  0  0
  -27.6550  -18.5720   20.9110 Cl  0  0  0  0  0  0  0  0  0  0  0  0
  -30.0550  -16.8120   20.0970 C   0  0  0  0  0  2  0  0  0  0  0  0
  -30.7080  -14.4620   20.5130 C   0  0  0  0  0  0  0  0  0  0  0  0
  -30.4160  -12.2770   19.4410 C   0  0  0  0  0  2  0  0  0  0  0  0
  -29.4990  -12.4870   18.2180 C   0  0  0  0  0  2  0  0  0  0  0  0
  -28.0190  -12.3570   18.6260 C   0  0  0  0  0  2  0  0  0  0  0  0
  -27.6630  -13.2070   19.8760 C   0  0  0  0  0  3  0  0  0  0  0  0
  -28.7040  -13.0060   21.0040 C   0  0  0  0  0  2  0  0  0  0  0  0
  -30.0400  -13.2790   20.4500 N   0  0  0  0  0  0  0  0  0  0  0  0
  -31.8480  -14.6070   20.0710 O   0  0  0  0  0  0  0  0  0  0  0  0
  -29.9500  -15.5290   20.8150 N   0  0  0  0  0  0  0  0  0  0  0  0
  -29.0480  -15.3260   21.2160 H   0  0  0  0  0  0  0  0  0  0  0  0
  -25.2590  -13.8160   20.5690 C   0  0  0  0  0  0  0  0  0  0  0  0
  -24.1840  -13.0440   20.9170 C   0  0  0  0  0  0  0  0  0  0  0  0
  -24.6390  -11.6910   20.8740 C   0  0  0  0  0  0  0  0  0  0  0  0
  -26.3030  -12.9330   20.3380 N   0  0  0  0  0  0  0  0  0  0  0  0
  -25.9320  -11.6490   20.5780 N   0  0  0  0  0  0  0  0  0  0  0  0
  -23.9060  -10.4290   21.0410 C   0  0  0  0  0  0  0  0  0  0  0  0
  -24.3610   -9.4210   21.9190 C   0  0  0  0  0  3  0  0  0  0  0  0
  -23.6290   -8.2250   22.0760 C   0  0  0  0  0  3  0  0  0  0  0  0
  -22.4270   -8.0280   21.3550 C   0  0  0  0  0  0  0  0  0  0  0  0
  -21.9900   -9.0260   20.4660 C   0  0  0  0  0  3  0  0  0  0  0  0
  -22.7230  -10.2140   20.3070 C   0  0  0  0  0  3  0  0  0  0  0  0
  -21.6640   -6.8880   21.4240 O   0  0  0  0  0  0  0  0  0  0  0  0
  -21.6860   -6.0730   22.5280 C   0  0  0  0  0  0  0  0  0  0  0  0
  -21.4010   -6.5630   23.8210 C   0  0  0  0  0  3  0  0  0  0  0  0
  -21.3660   -5.6790   24.9170 C   0  0  0  0  0  3  0  0  0  0  0  0
  -21.6050   -4.3050   24.7230 C   0  0  0  0  0  0  0  0  0  0  0  0
  -21.8820   -3.8140   23.4350 C   0  0  0  0  0  3  0  0  0  0  0  0
  -21.9190   -4.6960   22.3400 C   0  0  0  0  0  0  0  0  0  0  0  0
  -22.1660   -4.2140   21.0980 F   0  0  0  0  0  0  0  0  0  0  0  0
  -21.5630   -3.4530   25.7740 F   0  0  0  0  0  0  0  0  0  0  0  0
  -22.7860  -13.5250   21.1830 C   0  0  0  0  0  0  0  0  0  0  0  0
  -22.0490  -12.8260   22.0400 N   0  0  0  0  0  0  0  0  0  0  0  0
  -22.3550  -14.5550   20.6670 O   0  0  0  0  0  0  0  0  0  0  0  0
  -22.4090  -11.9930   22.4810 H   0  0  0  0  0  0  0  0  0  0  0  0
  -21.1110  -13.1310   22.2590 H   0  0  0  0  0  0  0  0  0  0  0  0
  -25.4300  -15.1880   20.4110 N   0  0  0  0  0  0  0  0  0  0  0  0
  -24.6630  -15.8410   20.5290 H   0  0  0  0  0  0  0  0  0  0  0  0
  -26.2840  -15.6380   20.1070 H   0  0  0  0  0  0  0  0  0  0  0  0
  -28.4840  -21.1340   22.4380 C   0  0  0  0  0  2  0  0  0  0  0  0
  -28.2820  -22.2770   21.5120 N   0  0  0  0  0  4  0  0  0  0  0  0
  -27.3710  -22.1630   21.0990 H   0  0  0  0  0  0  0  0  0  0  0  0
  -28.9630  -22.2210   20.7730 H   0  0  0  0  0  0  0  0  0  0  0  0
  -28.3580  -23.6080   22.1680 C   0  0  0  0  0  2  0  0  0  0  0  0
  -27.6770  -24.7700   21.4020 C   0  0  0  0  0  2  0  0  0  0  0  0
  -28.4230  -25.3250   20.1640 C   0  0  0  0  0  2  0  0  0  0  0  0
  -28.4320  -26.7590   20.1160 O   0  0  0  0  0  0  0  0  0  0  0  0
  -24.6130  -31.8690   23.2090 C   0  0  0  0  0  0  0  0  0  0  0  0
  -27.2390  -27.4510   20.0950 C   0  0  0  0  0  0  0  0  0  0  0  0
  -23.3980  -30.4910   21.5490 C   0  0  0  0  0  3  0  0  0  0  0  0
  -24.8450  -28.9550   20.1150 C   0  0  0  0  0  0  0  0  0  0  0  0
  -25.9240  -30.8420   21.3550 C   0  0  0  0  0  2  0  0  0  0  0  0
  -26.0030  -29.4760   20.7040 C   0  0  0  0  0  0  0  0  0  0  0  0
  -27.2010  -28.7330   20.6870 C   0  0  0  0  0  3  0  0  0  0  0  0
  -26.0640  -26.9370   19.5030 C   0  0  0  0  0  3  0  0  0  0  0  0
  -24.8700  -27.6840   19.5120 C   0  0  0  0  0  3  0  0  0  0  0  0
  -23.6040  -29.8170   20.1650 C   0  0  0  0  0  2  0  0  0  0  0  0
  -24.6630  -31.0810   22.0970 N   0  0  0  0  0  0  0  0  0  0  0  0
  -23.5330  -32.1430   23.7510 O   0  0  0  0  0  0  0  0  0  0  0  0
  -22.7390  -29.4680   22.5000 C   0  0  0  0  0  0  0  0  0  0  0  0
  -21.4120  -29.3040   22.3730 N   0  0  0  0  0  0  0  0  0  0  0  0
  -23.4170  -28.8230   23.3040 O   0  0  0  0  0  0  0  0  0  0  0  0
  -20.9260  -29.8750   21.6960 H   0  0  0  0  0  0  0  0  0  0  0  0
  -18.0270  -28.1380   22.8490 C   0  0  0  0  0  0  0  0  0  0  0  0
  -20.5860  -28.3660   23.1320 C   0  0  0  0  0  3  0  0  0  0  0  0
  -20.6760  -26.9400   22.5410 C   0  0  0  0  0  2  0  0  0  0  0  0
  -19.5740  -26.6390   21.5210 C   0  0  0  0  0  2  0  0  0  0  0  0
  -18.1920  -26.7930   22.1620 C   0  0  0  0  0  2  0  0  0  0  0  0
  -19.1520  -28.8840   23.2910 C   0  0  0  0  0  0  0  0  0  0  0  0
  -18.9450  -30.1440   23.8920 C   0  0  0  0  0  3  0  0  0  0  0  0
  -17.6450  -30.6590   24.0570 C   0  0  0  0  0  3  0  0  0  0  0  0
  -16.5340  -29.9090   23.6330 C   0  0  0  0  0  3  0  0  0  0  0  0
  -16.7260  -28.6500   23.0350 C   0  0  0  0  0  3  0  0  0  0  0  0
  -25.9030  -32.4820   23.8380 C   0  0  0  0  0  3  0  0  0  0  0  0
  -25.5900  -33.8620   24.2320 N   0  0  0  0  0  0  0  0  0  0  0  0
  -25.9030  -34.9470   23.5120 C   0  0  0  0  0  0  0  0  0  0  0  0
  -26.5580  -34.8920   22.4680 O   0  0  0  0  0  0  0  0  0  0  0  0
  -25.0080  -33.9780   25.0490 H   0  0  0  0  0  0  0  0  0  0  0  0
  -24.1480  -36.7320   23.2640 C   0  0  0  0  0  1  0  0  0  0  0  0
  -25.4110  -36.3110   24.0330 C   0  0  0  0  0  3  0  0  0  0  0  0
  -27.5580  -37.1820   24.8470 C   0  0  0  0  0  1  0  0  0  0  0  0
  -26.4290  -37.3790   23.9410 N   0  0  0  0  0  0  0  0  0  0  0  0
  -26.0180  -38.2870   24.1400 H   0  0  0  0  0  0  0  0  0  0  0  0
  -26.4480  -31.6600   25.0710 C   0  0  1  0  0  0  0  0  0  0  0  0
  -25.3750  -31.3700   26.1460 C   0  0  0  0  0  1  0  0  0  0  0  0
  -27.0300  -30.3050   24.6060 C   0  0  0  0  0  1  0  0  0  0  0  0
  -27.6060  -32.4310   25.7470 C   0  0  0  0  0  1  0  0  0  0  0  0
  2  1  1  0
  2 49  1  0
  3  5  1  0
  4  3  2  0
  4  6  1  0
  5  1  2  0
  5  8  1  0
  6  2  2  0
  7  3  1  0
  9  6  1  0
 10 19  1  0
 10  4  1  0
 11 19  1  0
 12 17  1  0
 13 14  1  0
 13 12  1  0
 15 14  1  0
 15 24  1  0
 15 16  1  0
 17 11  1  0
 17 16  1  0
 18 11  2  0
 19 20  1  0
 21 22  2  0
 22 41  1  0
 23 22  1  0
 23 26  1  0
 24 21  1  0
 24 25  1  0
 25 23  2  0
 26 27  1  0
 27 28  2  0
 29 32  1  0
 29 28  1  0
 30 29  2  0
 31 30  1  0
 31 26  2  0
 32 33  1  0
 33 34  1  0
 34 35  2  0
 36 35  1  0
 36 40  1  0
 37 36  2  0
 38 33  2  0
 38 37  1  0
 39 38  1  0
 41 42  1  0
 42 45  1  0
 42 44  1  0
 43 41  2  0
 46 47  1  0
 46 21  1  0
 48 46  1  0
 50 53  1  0
 50 49  1  0
 51 50  1  0
 52 50  1  0
 54 53  1  0
 55 54  1  0
 56 55  1  0
 57 68  2  0
 58 56  1  0
 58 63  1  0
 59 67  1  0
 59 69  1  0
 60 66  1  0
 60 62  1  0
 61 67  1  0
 62 61  1  0
 63 62  2  0
 64 65  1  0
 64 58  2  0
 65 60  2  0
 66 59  1  0
 67 57  1  0
 69 71  2  0
 70 69  1  0
 72 70  1  0
 73 82  2  0
 73 78  1  0
 74 70  1  0
 74 78  1  0
 75 74  1  0
 76 77  1  0
 76 75  1  0
 77 73  1  0
 78 79  2  0
 79 80  1  0
 81 80  2  0
 82 81  1  0
 83 57  1  0
 83 84  1  0
 83 93  1  0
 84 87  1  0
 85 89  1  0
 85 84  1  0
 86 85  2  0
 89 88  1  0
 91 89  1  0
 91 92  1  0
 91 90  1  0
 93 96  1  1
 93 94  1  0
 95 93  1  0
M  ISO  4  11 100  19 100  55 101  56 101
M  END
>  <TORSDO>  (41) 
F 22

>  <SCORE>  (41) 
-10.611

>  <name>  (41) 
41

>  <ligand_id>  (41) 
41

>  <original_smiles>  (41) 
[H]c1c([H])c([H])c2c(c1[H])C([H])([H])C([H])([H])C([H])([H])C2([H])N([H])C(=O)C1([H])N(C(=O)C([H])(N([H])C(=O)C([H])(N([H])C([H])([H])[H])C([H])([H])[H])C(C([H])([H])[H])(C([H])([H])[H])C([H])([H])[H])C([H])([H])c2c([H])c(OC([H])([H])C([H])([H])C([H])([H])[N+]([H])([H])C([H])([H])c3c([H])c(Cl)c(C([H])([H])[H])c(C([H])([H])N([H])C(=O)N4C([H])([H])C([H])([H])C([H])([H])C([H])(n5nc(-c6c([H])c([H])c(Oc7c([H])c([H])c(F)c([H])c7F)c([H])c6[H])c(C(=O)N([H])[H])c5N([H])[H])C4([H])[H])c3Cl)c([H])c([H])c2C1([H])[H]

>  <smiles>  (41) 
[H]c1c([H])c([H])c2c(c1[H])C([H])([H])C([H])([H])C([H])([H])C2([H])N([H])C(=O)C1([H])N(C(=O)C([H])(N([H])C(=O)C([H])(N([H])C([H])([H])[H])C([H])([H])[H])C(C([H])([H])[H])(C([H])([H])[H])C([H])([H])[H])C([H])([H])c2c([H])c(OC([H])([H])C([H])([H])C([H])([H])[N+]([H])([H])C([H])([H])c3c([H])c(Cl)c(C([H])([H])[H])c(C([H])([H])N([H])C(=O)N4C([H])([H])C([H])([H])C([H])([H])C([H])(n5nc(-c6c([H])c([H])c(Oc7c([H])c([H])c(F)c([H])c7F)c([H])c6[H])c(C(=O)N([H])[H])c5N([H])[H])C4([H])[H])c3Cl)c([H])c([H])c2C1([H])[H]

$$$$
42:0:0
     RDKit          3D

103111  0  0  1  0  0  0  0  0999 V2000
  -31.7790  -19.7800   26.8970 N   0  0  0  0  0  4  0  0  0  0  0  0
  -31.9570  -20.2140   26.0070 H   0  0  0  0  0  0  0  0  0  0  0  0
  -32.2080  -20.3600   27.6020 H   0  0  0  0  0  0  0  0  0  0  0  0
  -29.9190  -19.3770   28.5170 C   0  0  0  0  0  1  0  0  0  0  0  0
  -30.3080  -19.7720   27.0810 C   0  0  0  0  0  3  0  0  0  0  0  0
  -29.7340  -21.1540   26.7110 C   0  0  0  0  0  2  0  0  0  0  0  0
  -29.8030  -21.4660   25.2040 C   0  0  0  0  0  2  0  0  0  0  0  0
  -29.5290  -22.9460   24.9030 C   0  0  0  0  0  2  0  0  0  0  0  0
  -29.4250  -23.2340   23.3990 C   0  0  0  0  0  2  0  0  0  0  0  0
  -29.3630  -24.7380   23.0960 C   0  0  0  0  0  2  0  0  0  0  0  0
  -28.9940  -25.0330   21.6350 C   0  0  0  0  0  2  0  0  0  0  0  0
  -29.0490  -26.5300   21.2990 C   0  0  0  0  0  2  0  0  0  0  0  0
  -28.3960  -26.7330   20.0490 O   0  0  0  0  0  0  0  0  0  0  0  0
  -24.6090  -31.8710   23.2130 C   0  0  0  0  0  0  0  0  0  0  0  0
  -27.2440  -27.4790   20.0950 C   0  0  0  0  0  0  0  0  0  0  0  0
  -23.3950  -30.4920   21.5530 C   0  0  0  0  0  3  0  0  0  0  0  0
  -24.8450  -28.9620   20.1160 C   0  0  0  0  0  0  0  0  0  0  0  0
  -25.9170  -30.8520   21.3580 C   0  0  0  0  0  2  0  0  0  0  0  0
  -25.9970  -29.4870   20.7120 C   0  0  0  0  0  0  0  0  0  0  0  0
  -27.2000  -28.7530   20.7030 C   0  0  0  0  0  3  0  0  0  0  0  0
  -26.0830  -26.9630   19.4880 C   0  0  0  0  0  3  0  0  0  0  0  0
  -24.8790  -27.6960   19.5030 C   0  0  0  0  0  3  0  0  0  0  0  0
  -23.6010  -29.8210   20.1680 C   0  0  0  0  0  2  0  0  0  0  0  0
  -24.6580  -31.0850   22.1010 N   0  0  0  0  0  0  0  0  0  0  0  0
  -23.5290  -32.1440   23.7550 O   0  0  0  0  0  0  0  0  0  0  0  0
  -22.7380  -29.4670   22.5020 C   0  0  0  0  0  0  0  0  0  0  0  0
  -21.4110  -29.3020   22.3750 N   0  0  0  0  0  0  0  0  0  0  0  0
  -23.4170  -28.8220   23.3060 O   0  0  0  0  0  0  0  0  0  0  0  0
  -20.9270  -29.8740   21.6980 H   0  0  0  0  0  0  0  0  0  0  0  0
  -18.0260  -28.1360   22.8500 C   0  0  0  0  0  0  0  0  0  0  0  0
  -20.5850  -28.3650   23.1340 C   0  0  0  0  0  3  0  0  0  0  0  0
  -20.6750  -26.9390   22.5420 C   0  0  0  0  0  2  0  0  0  0  0  0
  -19.5740  -26.6380   21.5210 C   0  0  0  0  0  2  0  0  0  0  0  0
  -18.1920  -26.7910   22.1620 C   0  0  0  0  0  2  0  0  0  0  0  0
  -19.1510  -28.8820   23.2910 C   0  0  0  0  0  0  0  0  0  0  0  0
  -18.9440  -30.1430   23.8920 C   0  0  0  0  0  3  0  0  0  0  0  0
  -17.6450  -30.6580   24.0570 C   0  0  0  0  0  3  0  0  0  0  0  0
  -16.5340  -29.9090   23.6320 C   0  0  0  0  0  3  0  0  0  0  0  0
  -16.7260  -28.6490   23.0350 C   0  0  0  0  0  3  0  0  0  0  0  0
  -25.9000  -32.4840   23.8410 C   0  0  0  0  0  3  0  0  0  0  0  0
  -25.5880  -33.8630   24.2350 N   0  0  0  0  0  0  0  0  0  0  0  0
  -25.9020  -34.9480   23.5140 C   0  0  0  0  0  0  0  0  0  0  0  0
  -26.5590  -34.8930   22.4710 O   0  0  0  0  0  0  0  0  0  0  0  0
  -25.0050  -33.9800   25.0500 H   0  0  0  0  0  0  0  0  0  0  0  0
  -24.1480  -36.7320   23.2640 C   0  0  0  0  0  1  0  0  0  0  0  0
  -25.4100  -36.3120   24.0340 C   0  0  0  0  0  3  0  0  0  0  0  0
  -27.5580  -37.1820   24.8470 C   0  0  0  0  0  1  0  0  0  0  0  0
  -26.4300  -37.3800   23.9400 N   0  0  0  0  0  0  0  0  0  0  0  0
  -26.0200  -38.2880   24.1390 H   0  0  0  0  0  0  0  0  0  0  0  0
  -26.4460  -31.6600   25.0710 C   0  0  1  0  0  0  0  0  0  0  0  0
  -25.3740  -31.3670   26.1460 C   0  0  0  0  0  1  0  0  0  0  0  0
  -27.0300  -30.3060   24.6030 C   0  0  0  0  0  1  0  0  0  0  0  0
  -27.6030  -32.4310   25.7480 C   0  0  0  0  0  1  0  0  0  0  0  0
  -32.4320  -18.4540   26.8900 C   0  0  0  0  0  2  0  0  0  0  0  0
  -33.8270  -18.5070   26.2330 C   0  0  0  0  0  2  0  0  0  0  0  0
  -33.8170  -18.7270   24.7030 C   0  0  0  0  0  2  0  0  0  0  0  0
  -31.7460  -18.0510   23.4360 C   0  0  0  0  0  3  0  0  0  0  0  0
  -33.0090  -17.6780   23.9450 C   0  0  0  0  0  0  0  0  0  0  0  0
  -30.9300  -17.1200   22.7650 C   0  0  0  0  0  0  0  0  0  0  0  0
  -33.4690  -16.3460   23.7710 C   0  0  0  0  0  0  0  0  0  0  0  0
  -31.3870  -15.7960   22.5860 C   0  0  0  0  0  0  0  0  0  0  0  0
  -32.6440  -15.4010   23.1120 C   0  0  0  0  0  0  0  0  0  0  0  0
  -29.5700  -17.5560   22.2460 C   0  0  0  0  0  1  0  0  0  0  0  0
  -34.8290  -15.8900   24.2930 C   0  0  0  0  0  1  0  0  0  0  0  0
  -33.1590  -13.7460   23.0030 Cl  0  0  0  0  0  0  0  0  0  0  0  0
  -30.8130  -14.3000   20.7390 C   0  0  0  0  0  0  0  0  0  0  0  0
  -30.4100  -12.2860   19.3760 C   0  0  0  0  0  2  0  0  0  0  0  0
  -29.4740  -12.5380   18.1830 C   0  0  0  0  0  2  0  0  0  0  0  0
  -28.0040  -12.3840   18.6070 C   0  0  0  0  0  2  0  0  0  0  0  0
  -27.6660  -13.2030   19.8790 C   0  0  0  0  0  3  0  0  0  0  0  0
  -28.7040  -12.9440   20.9930 C   0  0  0  0  0  2  0  0  0  0  0  0
  -30.0530  -13.2120   20.4590 N   0  0  0  0  0  0  0  0  0  0  0  0
  -31.7490  -14.6790   20.0280 O   0  0  0  0  0  0  0  0  0  0  0  0
  -30.5530  -14.8600   21.9270 N   0  0  0  0  0  0  0  0  0  0  0  0
  -29.7590  -14.5070   22.4390 H   0  0  0  0  0  0  0  0  0  0  0  0
  -25.2610  -13.8160   20.5670 C   0  0  0  0  0  0  0  0  0  0  0  0
  -24.1850  -13.0440   20.9160 C   0  0  0  0  0  0  0  0  0  0  0  0
  -24.6390  -11.6910   20.8720 C   0  0  0  0  0  0  0  0  0  0  0  0
  -26.3050  -12.9330   20.3370 N   0  0  0  0  0  0  0  0  0  0  0  0
  -25.9320  -11.6490   20.5750 N   0  0  0  0  0  0  0  0  0  0  0  0
  -23.9060  -10.4300   21.0400 C   0  0  0  0  0  0  0  0  0  0  0  0
  -24.3610   -9.4220   21.9180 C   0  0  0  0  0  3  0  0  0  0  0  0
  -23.6290   -8.2250   22.0750 C   0  0  0  0  0  3  0  0  0  0  0  0
  -22.4270   -8.0280   21.3540 C   0  0  0  0  0  0  0  0  0  0  0  0
  -21.9910   -9.0250   20.4640 C   0  0  0  0  0  3  0  0  0  0  0  0
  -22.7230  -10.2140   20.3050 C   0  0  0  0  0  3  0  0  0  0  0  0
  -21.6630   -6.8880   21.4240 O   0  0  0  0  0  0  0  0  0  0  0  0
  -21.6850   -6.0740   22.5280 C   0  0  0  0  0  0  0  0  0  0  0  0
  -21.4010   -6.5640   23.8210 C   0  0  0  0  0  3  0  0  0  0  0  0
  -21.3660   -5.6790   24.9180 C   0  0  0  0  0  3  0  0  0  0  0  0
  -21.6050   -4.3050   24.7230 C   0  0  0  0  0  0  0  0  0  0  0  0
  -21.8820   -3.8150   23.4350 C   0  0  0  0  0  3  0  0  0  0  0  0
  -21.9190   -4.6960   22.3400 C   0  0  0  0  0  0  0  0  0  0  0  0
  -22.1660   -4.2150   21.0980 F   0  0  0  0  0  0  0  0  0  0  0  0
  -21.5630   -3.4540   25.7740 F   0  0  0  0  0  0  0  0  0  0  0  0
  -22.7870  -13.5240   21.1830 C   0  0  0  0  0  0  0  0  0  0  0  0
  -22.0510  -12.8230   22.0390 N   0  0  0  0  0  0  0  0  0  0  0  0
  -22.3550  -14.5540   20.6680 O   0  0  0  0  0  0  0  0  0  0  0  0
  -22.4110  -11.9880   22.4770 H   0  0  0  0  0  0  0  0  0  0  0  0
  -21.1130  -13.1260   22.2590 H   0  0  0  0  0  0  0  0  0  0  0  0
  -25.4350  -15.1880   20.4100 N   0  0  0  0  0  0  0  0  0  0  0  0
  -24.6740  -15.8490   20.5200 H   0  0  0  0  0  0  0  0  0  0  0  0
  -26.2980  -15.6240   20.1080 H   0  0  0  0  0  0  0  0  0  0  0  0
  1  5  1  0
  1  3  1  0
  2  1  1  0
  5  4  1  0
  6  5  1  0
  7  6  1  0
  8  7  1  0
  9  8  1  0
 10  9  1  0
 11 10  1  0
 12 11  1  0
 13 15  1  0
 13 12  1  0
 14 25  2  0
 15 20  1  0
 16 24  1  0
 16 26  1  0
 17 23  1  0
 17 19  1  0
 18 24  1  0
 19 18  1  0
 20 19  2  0
 21 22  1  0
 21 15  2  0
 22 17  2  0
 23 16  1  0
 24 14  1  0
 26 28  2  0
 27 26  1  0
 29 27  1  0
 30 39  2  0
 30 35  1  0
 31 27  1  0
 31 35  1  0
 32 31  1  0
 33 34  1  0
 33 32  1  0
 34 30  1  0
 35 36  2  0
 36 37  1  0
 38 37  2  0
 39 38  1  0
 40 14  1  0
 40 41  1  0
 40 50  1  0
 41 44  1  0
 42 46  1  0
 42 41  1  0
 43 42  2  0
 46 45  1  0
 48 46  1  0
 48 49  1  0
 48 47  1  0
 50 53  1  1
 50 51  1  0
 52 50  1  0
 54  1  1  0
 55 54  1  0
 56 55  1  0
 57 58  1  0
 58 56  1  0
 59 57  2  0
 60 58  2  0
 60 64  1  0
 61 59  1  0
 61 62  2  0
 62 60  1  0
 63 59  1  0
 65 62  1  0
 66 74  1  0
 67 72  1  0
 68 69  1  0
 68 67  1  0
 70 69  1  0
 70 79  1  0
 70 71  1  0
 72 66  1  0
 72 71  1  0
 73 66  2  0
 74 75  1  0
 74 61  1  0
 76 77  2  0
 77 96  1  0
 78 77  1  0
 78 81  1  0
 79 76  1  0
 79 80  1  0
 80 78  2  0
 81 82  1  0
 82 83  2  0
 84 87  1  0
 84 83  1  0
 85 84  2  0
 86 85  1  0
 86 81  2  0
 87 88  1  0
 88 89  1  0
 89 90  2  0
 91 90  1  0
 91 95  1  0
 92 91  2  0
 93 88  2  0
 93 92  1  0
 94 93  1  0
 96 97  1  0
 97100  1  0
 97 99  1  0
 98 96  2  0
101102  1  0
101 76  1  0
103101  1  0
M  ISO  4  12 101  13 101  66 100  74 100
M  END
>  <TORSDO>  (42) 
F 28

>  <SCORE>  (42) 
72.240

>  <name>  (42) 
42

>  <ligand_id>  (42) 
42

>  <original_smiles>  (42) 
[H]c1c([H])c([H])c2c(c1[H])C([H])([H])C([H])([H])C([H])([H])C2([H])N([H])C(=O)C1([H])N(C(=O)C([H])(N([H])C(=O)C([H])(N([H])C([H])([H])[H])C([H])([H])[H])C(C([H])([H])[H])(C([H])([H])[H])C([H])([H])[H])C([H])([H])c2c([H])c(OC([H])([H])C([H])([H])C([H])([H])C([H])([H])C([H])([H])C([H])([H])C([H])([H])C([H])(C([H])([H])[H])[N+]([H])([H])C([H])([H])C([H])([H])C([H])([H])c3c([H])c(C([H])([H])[H])c(N([H])C(=O)N4C([H])([H])C([H])([H])C([H])([H])C([H])(n5nc(-c6c([H])c([H])c(Oc7c([H])c([H])c(F)c([H])c7F)c([H])c6[H])c(C(=O)N([H])[H])c5N([H])[H])C4([H])[H])c(Cl)c3C([H])([H])[H])c([H])c([H])c2C1([H])[H]

>  <smiles>  (42) 
[H]c1c([H])c([H])c2c(c1[H])C([H])([H])C([H])([H])C([H])([H])C2([H])N([H])C(=O)C1([H])N(C(=O)C([H])(N([H])C(=O)C([H])(N([H])C([H])([H])[H])C([H])([H])[H])C(C([H])([H])[H])(C([H])([H])[H])C([H])([H])[H])C([H])([H])c2c([H])c(OC([H])([H])C([H])([H])C([H])([H])C([H])([H])C([H])([H])C([H])([H])C([H])([H])C([H])(C([H])([H])[H])[N+]([H])([H])C([H])([H])C([H])([H])C([H])([H])c3c([H])c(C([H])([H])[H])c(N([H])C(=O)N4C([H])([H])C([H])([H])C([H])([H])C([H])(n5nc(-c6c([H])c([H])c(Oc7c([H])c([H])c(F)c([H])c7F)c([H])c6[H])c(C(=O)N([H])[H])c5N([H])[H])C4([H])[H])c(Cl)c3C([H])([H])[H])c([H])c([H])c2C1([H])[H]

$$$$
43:0:0
     RDKit          3D

 96104  0  0  1  0  0  0  0  0999 V2000
  -29.2090  -17.9600   23.2100 C   0  0  0  0  0  3  0  0  0  0  0  0
  -29.3700  -19.3020   23.5970 C   0  0  0  0  0  0  0  0  0  0  0  0
  -29.3420  -17.5740   21.8610 C   0  0  0  0  0  0  0  0  0  0  0  0
  -29.7410  -19.9340   21.2530 C   0  0  0  0  0  0  0  0  0  0  0  0
  -29.6410  -20.2870   22.6230 C   0  0  0  0  0  0  0  0  0  0  0  0
  -29.6040  -18.5660   20.8770 C   0  0  0  0  0  0  0  0  0  0  0  0
  -29.2560  -19.6730   25.0650 C   0  0  0  0  0  1  0  0  0  0  0  0
  -29.8440  -21.9360   23.1200 Cl  0  0  0  0  0  0  0  0  0  0  0  0
  -29.7630  -18.0870   19.2190 Cl  0  0  0  0  0  0  0  0  0  0  0  0
  -29.1570  -16.0880   21.5140 C   0  0  0  0  0  2  0  0  0  0  0  0
  -30.7490  -14.4130   20.6590 C   0  0  0  0  0  0  0  0  0  0  0  0
  -30.4190  -12.3130   19.3920 C   0  0  0  0  0  2  0  0  0  0  0  0
  -29.4800  -12.5240   18.1890 C   0  0  0  0  0  2  0  0  0  0  0  0
  -28.0060  -12.3700   18.6100 C   0  0  0  0  0  2  0  0  0  0  0  0
  -27.6620  -13.1970   19.8760 C   0  0  0  0  0  3  0  0  0  0  0  0
  -28.7070  -12.9450   20.9870 C   0  0  0  0  0  2  0  0  0  0  0  0
  -30.0380  -13.2690   20.4460 N   0  0  0  0  0  0  0  0  0  0  0  0
  -31.8120  -14.6490   20.0730 O   0  0  0  0  0  0  0  0  0  0  0  0
  -31.3180  -15.5880   22.6960 C   0  0  0  0  0  1  0  0  0  0  0  0
  -30.3350  -15.2030   21.6770 N   0  0  0  0  0  0  0  0  0  0  0  0
  -25.2610  -13.8140   20.5690 C   0  0  0  0  0  0  0  0  0  0  0  0
  -24.1850  -13.0430   20.9190 C   0  0  0  0  0  0  0  0  0  0  0  0
  -24.6390  -11.6890   20.8740 C   0  0  0  0  0  0  0  0  0  0  0  0
  -26.3030  -12.9290   20.3380 N   0  0  0  0  0  0  0  0  0  0  0  0
  -25.9310  -11.6460   20.5770 N   0  0  0  0  0  0  0  0  0  0  0  0
  -23.9050  -10.4290   21.0410 C   0  0  0  0  0  0  0  0  0  0  0  0
  -24.3600   -9.4210   21.9190 C   0  0  0  0  0  3  0  0  0  0  0  0
  -23.6290   -8.2240   22.0760 C   0  0  0  0  0  3  0  0  0  0  0  0
  -22.4270   -8.0280   21.3540 C   0  0  0  0  0  0  0  0  0  0  0  0
  -21.9900   -9.0250   20.4650 C   0  0  0  0  0  3  0  0  0  0  0  0
  -22.7220  -10.2130   20.3060 C   0  0  0  0  0  3  0  0  0  0  0  0
  -21.6630   -6.8880   21.4240 O   0  0  0  0  0  0  0  0  0  0  0  0
  -21.6850   -6.0730   22.5280 C   0  0  0  0  0  0  0  0  0  0  0  0
  -21.4010   -6.5640   23.8210 C   0  0  0  0  0  3  0  0  0  0  0  0
  -21.3660   -5.6790   24.9170 C   0  0  0  0  0  3  0  0  0  0  0  0
  -21.6050   -4.3050   24.7230 C   0  0  0  0  0  0  0  0  0  0  0  0
  -21.8820   -3.8150   23.4350 C   0  0  0  0  0  3  0  0  0  0  0  0
  -21.9190   -4.6960   22.3400 C   0  0  0  0  0  0  0  0  0  0  0  0
  -22.1660   -4.2150   21.0980 F   0  0  0  0  0  0  0  0  0  0  0  0
  -21.5630   -3.4540   25.7740 F   0  0  0  0  0  0  0  0  0  0  0  0
  -22.7870  -13.5240   21.1850 C   0  0  0  0  0  0  0  0  0  0  0  0
  -22.0500  -12.8240   22.0400 N   0  0  0  0  0  0  0  0  0  0  0  0
  -22.3570  -14.5550   20.6690 O   0  0  0  0  0  0  0  0  0  0  0  0
  -22.4100  -11.9900   22.4790 H   0  0  0  0  0  0  0  0  0  0  0  0
  -21.1130  -13.1280   22.2600 H   0  0  0  0  0  0  0  0  0  0  0  0
  -25.4320  -15.1860   20.4080 N   0  0  0  0  0  0  0  0  0  0  0  0
  -24.6580  -15.8340   20.5100 H   0  0  0  0  0  0  0  0  0  0  0  0
  -26.2730  -15.6260   20.0600 H   0  0  0  0  0  0  0  0  0  0  0  0
  -30.0540  -21.0330   20.2240 C   0  0  0  0  0  2  0  0  0  0  0  0
  -29.0080  -22.0850   20.1330 N   0  0  0  0  0  4  0  0  0  0  0  0
  -28.8380  -22.4070   21.0740 H   0  0  0  0  0  0  0  0  0  0  0  0
  -28.1600  -21.6700   19.7800 H   0  0  0  0  0  0  0  0  0  0  0  0
  -29.3930  -23.2400   19.2790 C   0  0  0  0  0  2  0  0  0  0  0  0
  -28.3600  -24.3970   19.2300 C   0  0  0  0  0  2  0  0  0  0  0  0
  -28.3800  -25.3520   20.4470 C   0  0  0  0  0  2  0  0  0  0  0  0
  -28.4210  -26.7390   20.0800 O   0  0  0  0  0  0  0  0  0  0  0  0
  -24.6130  -31.8680   23.2090 C   0  0  0  0  0  0  0  0  0  0  0  0
  -27.2370  -27.4430   20.0960 C   0  0  0  0  0  0  0  0  0  0  0  0
  -23.4000  -30.4900   21.5500 C   0  0  0  0  0  3  0  0  0  0  0  0
  -24.8470  -28.9530   20.1200 C   0  0  0  0  0  0  0  0  0  0  0  0
  -25.9270  -30.8380   21.3580 C   0  0  0  0  0  2  0  0  0  0  0  0
  -26.0060  -29.4720   20.7070 C   0  0  0  0  0  0  0  0  0  0  0  0
  -27.2070  -28.7280   20.6840 C   0  0  0  0  0  3  0  0  0  0  0  0
  -26.0590  -26.9310   19.5120 C   0  0  0  0  0  3  0  0  0  0  0  0
  -24.8670  -27.6810   19.5200 C   0  0  0  0  0  3  0  0  0  0  0  0
  -23.6070  -29.8180   20.1670 C   0  0  0  0  0  2  0  0  0  0  0  0
  -24.6650  -31.0790   22.0980 N   0  0  0  0  0  0  0  0  0  0  0  0
  -23.5320  -32.1440   23.7490 O   0  0  0  0  0  0  0  0  0  0  0  0
  -22.7400  -29.4650   22.5000 C   0  0  0  0  0  0  0  0  0  0  0  0
  -21.4130  -29.3020   22.3740 N   0  0  0  0  0  0  0  0  0  0  0  0
  -23.4190  -28.8180   23.3020 O   0  0  0  0  0  0  0  0  0  0  0  0
  -20.9300  -29.8780   21.7000 H   0  0  0  0  0  0  0  0  0  0  0  0
  -18.0270  -28.1360   22.8490 C   0  0  0  0  0  0  0  0  0  0  0  0
  -20.5860  -28.3640   23.1320 C   0  0  0  0  0  3  0  0  0  0  0  0
  -20.6760  -26.9380   22.5420 C   0  0  0  0  0  2  0  0  0  0  0  0
  -19.5740  -26.6370   21.5210 C   0  0  0  0  0  2  0  0  0  0  0  0
  -18.1920  -26.7910   22.1620 C   0  0  0  0  0  2  0  0  0  0  0  0
  -19.1520  -28.8820   23.2900 C   0  0  0  0  0  0  0  0  0  0  0  0
  -18.9450  -30.1430   23.8910 C   0  0  0  0  0  3  0  0  0  0  0  0
  -17.6460  -30.6570   24.0560 C   0  0  0  0  0  3  0  0  0  0  0  0
  -16.5350  -29.9070   23.6320 C   0  0  0  0  0  3  0  0  0  0  0  0
  -16.7260  -28.6480   23.0340 C   0  0  0  0  0  3  0  0  0  0  0  0
  -25.9020  -32.4830   23.8390 C   0  0  0  0  0  3  0  0  0  0  0  0
  -25.5890  -33.8630   24.2330 N   0  0  0  0  0  0  0  0  0  0  0  0
  -25.9040  -34.9480   23.5130 C   0  0  0  0  0  0  0  0  0  0  0  0
  -26.5590  -34.8920   22.4680 O   0  0  0  0  0  0  0  0  0  0  0  0
  -25.0080  -33.9800   25.0500 H   0  0  0  0  0  0  0  0  0  0  0  0
  -24.1480  -36.7320   23.2640 C   0  0  0  0  0  1  0  0  0  0  0  0
  -25.4110  -36.3120   24.0330 C   0  0  0  0  0  3  0  0  0  0  0  0
  -27.5580  -37.1810   24.8460 C   0  0  0  0  0  1  0  0  0  0  0  0
  -26.4300  -37.3800   23.9400 N   0  0  0  0  0  0  0  0  0  0  0  0
  -26.0200  -38.2880   24.1410 H   0  0  0  0  0  0  0  0  0  0  0  0
  -26.4450  -31.6620   25.0720 C   0  0  1  0  0  0  0  0  0  0  0  0
  -25.3710  -31.3720   26.1480 C   0  0  0  0  0  1  0  0  0  0  0  0
  -27.0280  -30.3060   24.6080 C   0  0  0  0  0  1  0  0  0  0  0  0
  -27.6040  -32.4330   25.7480 C   0  0  0  0  0  1  0  0  0  0  0  0
  1  2  1  0
  2  7  1  0
  3  1  2  0
  4  5  1  0
  5  8  1  0
  5  2  2  0
  6  4  2  0
  6  3  1  0
  9  6  1  0
 10 20  1  0
 10  3  1  0
 11 20  1  0
 12 17  1  0
 13 14  1  0
 13 12  1  0
 15 14  1  0
 15 24  1  0
 15 16  1  0
 17 11  1  0
 17 16  1  0
 18 11  2  0
 20 19  1  0
 21 22  2  0
 22 41  1  0
 23 22  1  0
 23 26  1  0
 24 21  1  0
 24 25  1  0
 25 23  2  0
 26 27  1  0
 27 28  2  0
 29 32  1  0
 29 28  1  0
 30 29  2  0
 31 30  1  0
 31 26  2  0
 32 33  1  0
 33 34  1  0
 34 35  2  0
 36 35  1  0
 36 40  1  0
 37 36  2  0
 38 33  2  0
 38 37  1  0
 39 38  1  0
 41 42  1  0
 42 45  1  0
 42 44  1  0
 43 41  2  0
 46 47  1  0
 46 21  1  0
 48 46  1  0
 49  4  1  0
 50 49  1  0
 50 51  1  0
 52 50  1  0
 53 50  1  0
 54 53  1  0
 54 55  1  0
 56 58  1  0
 56 55  1  0
 57 68  2  0
 58 63  1  0
 59 67  1  0
 59 69  1  0
 60 66  1  0
 60 62  1  0
 61 67  1  0
 62 61  1  0
 63 62  2  0
 64 65  1  0
 64 58  2  0
 65 60  2  0
 66 59  1  0
 67 57  1  0
 69 71  2  0
 70 69  1  0
 72 70  1  0
 73 82  2  0
 73 78  1  0
 74 70  1  0
 74 78  1  0
 75 74  1  0
 76 77  1  0
 76 75  1  0
 77 73  1  0
 78 79  2  0
 79 80  1  0
 81 80  2  0
 82 81  1  0
 83 57  1  0
 83 84  1  0
 83 93  1  0
 84 87  1  0
 85 89  1  0
 85 84  1  0
 86 85  2  0
 89 88  1  0
 91 89  1  0
 91 92  1  0
 91 90  1  0
 93 96  1  1
 93 94  1  0
 95 93  1  0
M  ISO  4  11 100  20 100  55 101  56 101
M  END
>  <TORSDO>  (43) 
F 22

>  <SCORE>  (43) 
-2.247

>  <name>  (43) 
43

>  <ligand_id>  (43) 
43

>  <original_smiles>  (43) 
[H]c1c([H])c([H])c2c(c1[H])C([H])([H])C([H])([H])C([H])([H])C2([H])N([H])C(=O)C1([H])N(C(=O)C([H])(N([H])C(=O)C([H])(N([H])C([H])([H])[H])C([H])([H])[H])C(C([H])([H])[H])(C([H])([H])[H])C([H])([H])[H])C([H])([H])c2c([H])c(OC([H])([H])C([H])([H])C([H])([H])[N+]([H])([H])C([H])([H])c3c(Cl)c(C([H])([H])[H])c([H])c(C([H])([H])N(C(=O)N4C([H])([H])C([H])([H])C([H])([H])C([H])(n5nc(-c6c([H])c([H])c(Oc7c([H])c([H])c(F)c([H])c7F)c([H])c6[H])c(C(=O)N([H])[H])c5N([H])[H])C4([H])[H])C([H])([H])[H])c3Cl)c([H])c([H])c2C1([H])[H]

>  <smiles>  (43) 
[H]c1c([H])c([H])c2c(c1[H])C([H])([H])C([H])([H])C([H])([H])C2([H])N([H])C(=O)C1([H])N(C(=O)C([H])(N([H])C(=O)C([H])(N([H])C([H])([H])[H])C([H])([H])[H])C(C([H])([H])[H])(C([H])([H])[H])C([H])([H])[H])C([H])([H])c2c([H])c(OC([H])([H])C([H])([H])C([H])([H])[N+]([H])([H])C([H])([H])c3c(Cl)c(C([H])([H])[H])c([H])c(C([H])([H])N(C(=O)N4C([H])([H])C([H])([H])C([H])([H])C([H])(n5nc(-c6c([H])c([H])c(Oc7c([H])c([H])c(F)c([H])c7F)c([H])c6[H])c(C(=O)N([H])[H])c5N([H])[H])C4([H])[H])C([H])([H])[H])c3Cl)c([H])c([H])c2C1([H])[H]

$$$$
44:0:0
     RDKit          3D

 92100  0  0  1  0  0  0  0  0999 V2000
  -30.4510  -21.1110   19.7920 C   0  0  0  0  0  3  0  0  0  0  0  0
  -29.6990  -19.8590   19.6900 C   0  0  0  0  0  0  0  0  0  0  0  0
  -28.5740  -22.9460   19.8250 C   0  0  0  0  0  0  0  0  0  0  0  0
  -29.9610  -22.5160   19.8560 C   0  0  0  0  0  0  0  0  0  0  0  0
  -28.3150  -20.2780   19.6580 C   0  0  0  0  0  0  0  0  0  0  0  0
  -27.8030  -21.6810   19.7260 C   0  0  0  0  0  0  0  0  0  0  0  0
  -31.1630  -23.7460   20.0040 Cl  0  0  0  0  0  0  0  0  0  0  0  0
  -27.1730  -18.9810   19.5490 Cl  0  0  0  0  0  0  0  0  0  0  0  0
  -26.0700  -21.7870   19.7150 Cl  0  0  0  0  0  0  0  0  0  0  0  0
  -27.5450  -24.7300   21.4800 C   0  0  0  0  0  1  0  0  0  0  0  0
  -27.8270  -24.5350   19.9790 C   0  0  2  0  0  0  0  0  0  0  0  0
  -26.6520  -24.2510   19.3750 F   0  0  0  0  0  0  0  0  0  0  0  0
  -28.1710  -25.9530   19.5910 O   0  0  0  0  0  0  0  0  0  0  0  0
  -24.6980  -31.7290   23.0560 C   0  0  0  0  0  0  0  0  0  0  0  0
  -27.2090  -27.0960   19.6680 C   0  0  0  0  0  0  0  0  0  0  0  0
  -23.4860  -30.4600   21.3330 C   0  0  0  0  0  3  0  0  0  0  0  0
  -24.9200  -28.9800   19.7810 C   0  0  0  0  0  0  0  0  0  0  0  0
  -26.0530  -30.6790   21.1850 C   0  0  0  0  0  2  0  0  0  0  0  0
  -26.1130  -29.3230   20.4320 C   0  0  0  0  0  0  0  0  0  0  0  0
  -27.2530  -28.4010   20.3650 C   0  0  0  0  0  3  0  0  0  0  0  0
  -26.0050  -26.9460   18.9380 C   0  0  0  0  0  3  0  0  0  0  0  0
  -24.8900  -27.8100   19.0140 C   0  0  0  0  0  3  0  0  0  0  0  0
  -23.7030  -29.8910   19.9070 C   0  0  0  0  0  2  0  0  0  0  0  0
  -24.7670  -30.9790   21.9120 N   0  0  0  0  0  0  0  0  0  0  0  0
  -23.6150  -31.9820   23.6090 O   0  0  0  0  0  0  0  0  0  0  0  0
  -22.8030  -29.3920   22.2270 C   0  0  0  0  0  0  0  0  0  0  0  0
  -21.4700  -29.2490   22.1180 N   0  0  0  0  0  0  0  0  0  0  0  0
  -23.4800  -28.6930   22.9860 O   0  0  0  0  0  0  0  0  0  0  0  0
  -20.9770  -29.8620   21.4840 H   0  0  0  0  0  0  0  0  0  0  0  0
  -18.0740  -28.1020   22.6860 C   0  0  0  0  0  0  0  0  0  0  0  0
  -20.6530  -28.2610   22.8320 C   0  0  0  0  0  3  0  0  0  0  0  0
  -20.6720  -26.8950   22.1070 C   0  0  0  0  0  2  0  0  0  0  0  0
  -19.5070  -26.7150   21.1270 C   0  0  0  0  0  2  0  0  0  0  0  0
  -18.1670  -26.8300   21.8600 C   0  0  0  0  0  2  0  0  0  0  0  0
  -19.2400  -28.7810   23.1290 C   0  0  0  0  0  0  0  0  0  0  0  0
  -19.0960  -29.9750   23.8690 C   0  0  0  0  0  3  0  0  0  0  0  0
  -17.8190  -30.4890   24.1660 C   0  0  0  0  0  3  0  0  0  0  0  0
  -16.6680  -29.8060   23.7350 C   0  0  0  0  0  3  0  0  0  0  0  0
  -16.7970  -28.6130   23.0010 C   0  0  0  0  0  3  0  0  0  0  0  0
  -25.9780  -32.3240   23.7180 C   0  0  0  0  0  3  0  0  0  0  0  0
  -25.6660  -33.6980   24.1500 N   0  0  0  0  0  0  0  0  0  0  0  0
  -25.9520  -34.8060   23.4520 C   0  0  0  0  0  0  0  0  0  0  0  0
  -26.5710  -34.7790   22.3850 O   0  0  0  0  0  0  0  0  0  0  0  0
  -25.1060  -33.7900   24.9840 H   0  0  0  0  0  0  0  0  0  0  0  0
  -24.1790  -36.5900   23.3390 C   0  0  0  0  0  1  0  0  0  0  0  0
  -25.4820  -36.1570   24.0290 C   0  0  0  0  0  3  0  0  0  0  0  0
  -27.6510  -37.0410   24.7660 C   0  0  0  0  0  1  0  0  0  0  0  0
  -26.4880  -37.2340   23.9050 N   0  0  0  0  0  0  0  0  0  0  0  0
  -26.0770  -38.1380   24.1240 H   0  0  0  0  0  0  0  0  0  0  0  0
  -26.4920  -31.4710   24.9440 C   0  0  1  0  0  0  0  0  0  0  0  0
  -25.3990  -31.1740   25.9980 C   0  0  0  0  0  1  0  0  0  0  0  0
  -27.0670  -30.1150   24.4760 C   0  0  0  0  0  1  0  0  0  0  0  0
  -27.6480  -32.2170   25.6510 C   0  0  0  0  0  1  0  0  0  0  0  0
  -30.4510  -18.2840   19.7110 C   0  0  0  0  0  2  0  0  0  0  0  0
  -30.7860  -15.4240   19.7080 C   0  0  0  0  0  0  0  0  0  0  0  0
  -30.6980  -12.9840   18.8620 C   0  0  0  0  0  2  0  0  0  0  0  0
  -29.6790  -12.7700   17.7140 C   0  0  0  0  0  2  0  0  0  0  0  0
  -28.2730  -12.4960   18.2760 C   0  0  0  0  0  2  0  0  0  0  0  0
  -27.9110  -13.4590   19.4360 C   0  0  0  0  0  3  0  0  0  0  0  0
  -29.0500  -13.6250   20.4640 C   0  0  0  0  0  2  0  0  0  0  0  0
  -30.2190  -14.1230   19.7230 N   0  0  0  0  0  0  0  0  0  0  0  0
  -31.9750  -15.4360   19.3610 O   0  0  0  0  0  0  0  0  0  0  0  0
  -30.0470  -16.6900   19.8740 N   0  0  0  0  0  0  0  0  0  0  0  0
  -29.0780  -16.5480   20.1150 H   0  0  0  0  0  0  0  0  0  0  0  0
  -25.6420  -13.9870   20.4760 C   0  0  0  0  0  0  0  0  0  0  0  0
  -24.6140  -13.1970   20.9060 C   0  0  0  0  0  0  0  0  0  0  0  0
  -25.0530  -11.8480   20.7380 C   0  0  0  0  0  0  0  0  0  0  0  0
  -26.6390  -13.1210   20.0630 N   0  0  0  0  0  0  0  0  0  0  0  0
  -26.3030  -11.8240   20.2860 N   0  0  0  0  0  0  0  0  0  0  0  0
  -24.3290  -10.5830   20.9200 C   0  0  0  0  0  0  0  0  0  0  0  0
  -24.7600   -9.6100   21.8490 C   0  0  0  0  0  3  0  0  0  0  0  0
  -24.0330   -8.4120   22.0230 C   0  0  0  0  0  3  0  0  0  0  0  0
  -22.8600   -8.1780   21.2670 C   0  0  0  0  0  0  0  0  0  0  0  0
  -22.4470   -9.1400   20.3270 C   0  0  0  0  0  3  0  0  0  0  0  0
  -23.1750  -10.3280   20.1530 C   0  0  0  0  0  3  0  0  0  0  0  0
  -22.1050   -7.0330   21.3490 O   0  0  0  0  0  0  0  0  0  0  0  0
  -21.9490   -6.3570   22.5330 C   0  0  0  0  0  0  0  0  0  0  0  0
  -21.3770   -6.9680   23.6700 C   0  0  0  0  0  3  0  0  0  0  0  0
  -21.1710   -6.2170   24.8440 C   0  0  0  0  0  3  0  0  0  0  0  0
  -21.5280   -4.8550   24.8810 C   0  0  0  0  0  0  0  0  0  0  0  0
  -22.0910   -4.2440   23.7480 C   0  0  0  0  0  3  0  0  0  0  0  0
  -22.2980   -4.9930   22.5760 C   0  0  0  0  0  0  0  0  0  0  0  0
  -22.8230   -4.3940   21.4800 F   0  0  0  0  0  0  0  0  0  0  0  0
  -21.3230   -4.1310   26.0060 F   0  0  0  0  0  0  0  0  0  0  0  0
  -23.2600  -13.6690   21.3500 C   0  0  0  0  0  0  0  0  0  0  0  0
  -22.6150  -12.9290   22.2440 N   0  0  0  0  0  0  0  0  0  0  0  0
  -22.7880  -14.7290   20.9410 O   0  0  0  0  0  0  0  0  0  0  0  0
  -23.0130  -12.0710   22.5980 H   0  0  0  0  0  0  0  0  0  0  0  0
  -21.7100  -13.2250   22.5820 H   0  0  0  0  0  0  0  0  0  0  0  0
  -25.8030  -15.3660   20.3720 N   0  0  0  0  0  0  0  0  0  0  0  0
  -25.0590  -16.0100   20.6180 H   0  0  0  0  0  0  0  0  0  0  0  0
  -26.6050  -15.8250   19.9630 H   0  0  0  0  0  0  0  0  0  0  0  0
  1  4  1  0
  2 54  1  0
  2  1  2  0
  3  4  2  0
  3 11  1  0
  4  7  1  0
  5  2  1  0
  5  6  2  0
  6  3  1  0
  8  5  1  0
  9  6  1  0
 11 10  1  1
 12 11  1  0
 13 15  1  0
 13 11  1  0
 14 25  2  0
 15 20  1  0
 16 24  1  0
 16 26  1  0
 17 23  1  0
 17 19  1  0
 18 24  1  0
 19 18  1  0
 20 19  2  0
 21 22  1  0
 21 15  2  0
 22 17  2  0
 23 16  1  0
 24 14  1  0
 26 28  2  0
 27 26  1  0
 29 27  1  0
 30 39  2  0
 30 35  1  0
 31 27  1  0
 31 35  1  0
 32 31  1  0
 33 34  1  0
 33 32  1  0
 34 30  1  0
 35 36  2  0
 36 37  1  0
 38 37  2  0
 39 38  1  0
 40 14  1  0
 40 41  1  0
 40 50  1  0
 41 44  1  0
 42 46  1  0
 42 41  1  0
 43 42  2  0
 46 45  1  0
 48 46  1  0
 48 49  1  0
 48 47  1  0
 50 53  1  1
 50 51  1  0
 52 50  1  0
 54 63  1  0
 55 61  1  0
 55 63  1  0
 56 61  1  0
 57 58  1  0
 57 56  1  0
 59 58  1  0
 59 68  1  0
 59 60  1  0
 61 60  1  0
 62 55  2  0
 63 64  1  0
 65 66  2  0
 66 85  1  0
 67 66  1  0
 67 70  1  0
 68 69  1  0
 68 65  1  0
 69 67  2  0
 70 71  1  0
 71 72  2  0
 73 76  1  0
 73 72  1  0
 74 73  2  0
 75 74  1  0
 75 70  2  0
 76 77  1  0
 77 82  2  0
 77 78  1  0
 78 79  2  0
 79 80  1  0
 80 84  1  0
 81 80  2  0
 82 81  1  0
 83 82  1  0
 85 86  1  0
 86 89  1  0
 86 88  1  0
 87 85  2  0
 90 65  1  0
 90 91  1  0
 92 90  1  0
M  ISO  4  11 101  13 101  55 100  63 100
M  END
>  <TORSDO>  (44) 
F 18

>  <SCORE>  (44) 
-14.436

>  <name>  (44) 
44

>  <ligand_id>  (44) 
44

>  <original_smiles>  (44) 
[H]c1c([H])c([H])c2c(c1[H])C([H])([H])C([H])([H])C([H])([H])C2([H])N([H])C(=O)C1([H])N(C(=O)C([H])(N([H])C(=O)C([H])(N([H])C([H])([H])[H])C([H])([H])[H])C(C([H])([H])[H])(C([H])([H])[H])C([H])([H])[H])C([H])([H])c2c([H])c(OC(F)(c3c(Cl)c([H])c(C([H])([H])N([H])C(=O)N4C([H])([H])C([H])([H])C([H])([H])C([H])(n5nc(-c6c([H])c([H])c(Oc7c([H])c([H])c(F)c([H])c7F)c([H])c6[H])c(C(=O)N([H])[H])c5N([H])[H])C4([H])[H])c(Cl)c3Cl)C([H])([H])[H])c([H])c([H])c2C1([H])[H]

>  <smiles>  (44) 
[H]c1c([H])c([H])c2c(c1[H])C([H])([H])C([H])([H])C([H])([H])C2([H])N([H])C(=O)C1([H])N(C(=O)C([H])(N([H])C(=O)C([H])(N([H])C([H])([H])[H])C([H])([H])[H])C(C([H])([H])[H])(C([H])([H])[H])C([H])([H])[H])C([H])([H])c2c([H])c(OC(F)(c3c(Cl)c([H])c(C([H])([H])N([H])C(=O)N4C([H])([H])C([H])([H])C([H])([H])C([H])(n5nc(-c6c([H])c([H])c(Oc7c([H])c([H])c(F)c([H])c7F)c([H])c6[H])c(C(=O)N([H])[H])c5N([H])[H])C4([H])[H])c(Cl)c3Cl)C([H])([H])[H])c([H])c([H])c2C1([H])[H]

$$$$
45:0:0
     RDKit          3D

101110  0  0  1  0  0  0  0  0999 V2000
  -29.8520  -20.9050   21.6740 N   0  0  0  0  0  4  0  0  0  0  0  0
  -29.7530  -20.3540   20.8360 H   0  0  0  0  0  0  0  0  0  0  0  0
  -29.2330  -20.5220   22.3720 H   0  0  0  0  0  0  0  0  0  0  0  0
  -28.9530  -24.6570   22.1570 C   0  0  0  0  0  2  0  0  0  0  0  0
  -27.0490  -23.3080   21.1190 C   0  0  0  0  0  2  0  0  0  0  0  0
  -29.4050  -23.2340   22.5530 C   0  0  0  0  0  2  0  0  0  0  0  0
  -28.0200  -22.2100   20.6540 C   0  0  0  0  0  2  0  0  0  0  0  0
  -27.7200  -24.6880   21.2170 C   0  0  0  0  0  3  0  0  0  0  0  0
  -29.4130  -22.2770   21.3370 C   0  0  0  0  0  3  0  0  0  0  0  0
  -28.0570  -25.2600   19.8150 C   0  0  0  0  0  2  0  0  0  0  0  0
  -28.1280  -26.6850   19.8330 O   0  0  0  0  0  0  0  0  0  0  0  0
  -24.5170  -31.8080   23.1570 C   0  0  0  0  0  0  0  0  0  0  0  0
  -26.9480  -27.3990   19.8730 C   0  0  0  0  0  0  0  0  0  0  0  0
  -23.2150  -30.4630   21.5400 C   0  0  0  0  0  3  0  0  0  0  0  0
  -24.5770  -28.9280   20.0290 C   0  0  0  0  0  0  0  0  0  0  0  0
  -25.7350  -30.7820   21.2450 C   0  0  0  0  0  2  0  0  0  0  0  0
  -25.7670  -29.4250   20.5730 C   0  0  0  0  0  0  0  0  0  0  0  0
  -26.9540  -28.6680   20.4900 C   0  0  0  0  0  3  0  0  0  0  0  0
  -25.7340  -26.9110   19.3280 C   0  0  0  0  0  3  0  0  0  0  0  0
  -24.5540  -27.6710   19.4070 C   0  0  0  0  0  3  0  0  0  0  0  0
  -23.3540  -29.8080   20.1410 C   0  0  0  0  0  2  0  0  0  0  0  0
  -24.5100  -31.0300   22.0380 N   0  0  0  0  0  0  0  0  0  0  0  0
  -23.4640  -32.0920   23.7460 O   0  0  0  0  0  0  0  0  0  0  0  0
  -22.5850  -29.4360   22.5060 C   0  0  0  0  0  0  0  0  0  0  0  0
  -21.2620  -29.2360   22.3840 N   0  0  0  0  0  0  0  0  0  0  0  0
  -23.2800  -28.8190   23.3180 O   0  0  0  0  0  0  0  0  0  0  0  0
  -20.7640  -29.7840   21.6950 H   0  0  0  0  0  0  0  0  0  0  0  0
  -17.9180  -27.9500   22.8430 C   0  0  0  0  0  0  0  0  0  0  0  0
  -20.4600  -28.2910   23.1590 C   0  0  0  0  0  3  0  0  0  0  0  0
  -20.6180  -26.8520   22.6170 C   0  0  0  0  0  2  0  0  0  0  0  0
  -19.5460  -26.4740   21.5910 C   0  0  0  0  0  2  0  0  0  0  0  0
  -18.1470  -26.5920   22.2030 C   0  0  0  0  0  2  0  0  0  0  0  0
  -19.0040  -28.7540   23.2780 C   0  0  0  0  0  0  0  0  0  0  0  0
  -18.7400  -30.0240   23.8350 C   0  0  0  0  0  3  0  0  0  0  0  0
  -17.4180  -30.4900   23.9620 C   0  0  0  0  0  3  0  0  0  0  0  0
  -16.3450  -29.6840   23.5430 C   0  0  0  0  0  3  0  0  0  0  0  0
  -16.5950  -28.4160   22.9910 C   0  0  0  0  0  3  0  0  0  0  0  0
  -25.8410  -32.3980   23.7370 C   0  0  0  0  0  3  0  0  0  0  0  0
  -25.5710  -33.7880   24.1260 N   0  0  0  0  0  0  0  0  0  0  0  0
  -25.8920  -34.8590   23.3880 C   0  0  0  0  0  0  0  0  0  0  0  0
  -26.5180  -34.7790   22.3280 O   0  0  0  0  0  0  0  0  0  0  0  0
  -25.0090  -33.9290   24.9540 H   0  0  0  0  0  0  0  0  0  0  0  0
  -24.1820  -36.6880   23.1530 C   0  0  0  0  0  1  0  0  0  0  0  0
  -25.4430  -36.2380   23.9070 C   0  0  0  0  0  3  0  0  0  0  0  0
  -27.6230  -37.0530   24.6830 C   0  0  0  0  0  1  0  0  0  0  0  0
  -26.4880  -37.2790   23.7940 N   0  0  0  0  0  0  0  0  0  0  0  0
  -26.1050  -38.1990   23.9950 H   0  0  0  0  0  0  0  0  0  0  0  0
  -26.4080  -31.5730   24.9570 C   0  0  1  0  0  0  0  0  0  0  0  0
  -25.3580  -31.2860   26.0550 C   0  0  0  0  0  1  0  0  0  0  0  0
  -26.9800  -30.2170   24.4820 C   0  0  0  0  0  1  0  0  0  0  0  0
  -27.5830  -32.3430   25.6050 C   0  0  0  0  0  1  0  0  0  0  0  0
  -31.2380  -20.7310   22.1580 C   0  0  0  0  0  2  0  0  0  0  0  0
  -31.6900  -19.3070   21.8730 C   0  0  0  0  0  0  0  0  0  0  0  0
  -32.3230  -16.6290   21.2000 C   0  0  0  0  0  0  0  0  0  0  0  0
  -32.3750  -19.0180   20.6760 C   0  0  0  0  0  0  0  0  0  0  0  0
  -31.3800  -18.2600   22.7710 C   0  0  0  0  0  0  0  0  0  0  0  0
  -32.6990  -17.6900   20.3380 C   0  0  0  0  0  0  0  0  0  0  0  0
  -31.6960  -16.9250   22.4370 C   0  0  0  0  0  0  0  0  0  0  0  0
  -32.6930  -20.0230   19.8230 F   0  0  0  0  0  0  0  0  0  0  0  0
  -30.5470  -18.6040   24.2520 Cl  0  0  0  0  0  0  0  0  0  0  0  0
  -33.5340  -17.4080   18.8470 Cl  0  0  0  0  0  0  0  0  0  0  0  0
  -31.2770  -15.6540   23.5410 Cl  0  0  0  0  0  0  0  0  0  0  0  0
  -32.5420  -15.1770   20.7980 C   0  0  0  0  0  2  0  0  0  0  0  0
  -30.9960  -14.2960   19.0490 C   0  0  0  0  0  0  0  0  0  0  0  0
  -30.1620  -12.3280   17.8490 C   0  0  0  0  0  2  0  0  0  0  0  0
  -29.0020  -12.5690   16.8750 C   0  0  0  0  0  2  0  0  0  0  0  0
  -27.6580  -12.4900   17.6160 C   0  0  0  0  0  2  0  0  0  0  0  0
  -27.6250  -13.3960   18.8730 C   0  0  0  0  0  3  0  0  0  0  0  0
  -28.8700  -13.1710   19.7610 C   0  0  0  0  0  2  0  0  0  0  0  0
  -30.0870  -13.3050   18.9380 N   0  0  0  0  0  0  0  0  0  0  0  0
  -31.6770  -14.7200   18.1120 O   0  0  0  0  0  0  0  0  0  0  0  0
  -31.3170  -14.5350   20.3240 N   0  0  0  0  0  0  0  0  0  0  0  0
  -30.7530  -14.0650   21.0170 H   0  0  0  0  0  0  0  0  0  0  0  0
  -25.4940  -14.1600   20.1050 C   0  0  0  0  0  0  0  0  0  0  0  0
  -24.4600  -13.4570   20.6640 C   0  0  0  0  0  0  0  0  0  0  0  0
  -24.7760  -12.0770   20.4810 C   0  0  0  0  0  0  0  0  0  0  0  0
  -26.3830  -13.2090   19.6230 N   0  0  0  0  0  0  0  0  0  0  0  0
  -25.9630  -11.9490   19.9010 N   0  0  0  0  0  0  0  0  0  0  0  0
  -23.9920  -10.8700   20.7750 C   0  0  0  0  0  0  0  0  0  0  0  0
  -24.4790   -9.8630   21.6370 C   0  0  0  0  0  3  0  0  0  0  0  0
  -23.6990   -8.7210   21.9180 C   0  0  0  0  0  3  0  0  0  0  0  0
  -22.4170   -8.5770   21.3370 C   0  0  0  0  0  0  0  0  0  0  0  0
  -21.9450   -9.5700   20.4620 C   0  0  0  0  0  3  0  0  0  0  0  0
  -22.7250  -10.7040   20.1790 C   0  0  0  0  0  3  0  0  0  0  0  0
  -21.6000   -7.4900   21.5320 O   0  0  0  0  0  0  0  0  0  0  0  0
  -21.6080   -6.7840   22.7070 C   0  0  0  0  0  0  0  0  0  0  0  0
  -21.3550   -7.4050   23.9510 C   0  0  0  0  0  3  0  0  0  0  0  0
  -21.3050   -6.6300   25.1270 C   0  0  0  0  0  3  0  0  0  0  0  0
  -21.4960   -5.2370   25.0620 C   0  0  0  0  0  0  0  0  0  0  0  0
  -21.7430   -4.6160   23.8250 C   0  0  0  0  0  3  0  0  0  0  0  0
  -21.7960   -5.3880   22.6510 C   0  0  0  0  0  0  0  0  0  0  0  0
  -22.0120   -4.7830   21.4590 F   0  0  0  0  0  0  0  0  0  0  0  0
  -21.4410   -4.4920   26.1910 F   0  0  0  0  0  0  0  0  0  0  0  0
  -23.2040  -14.0320   21.2530 C   0  0  0  0  0  0  0  0  0  0  0  0
  -22.6410  -13.3730   22.2600 N   0  0  0  0  0  0  0  0  0  0  0  0
  -22.7390  -15.0980   20.8530 O   0  0  0  0  0  0  0  0  0  0  0  0
  -23.0330  -12.5090   22.6030 H   0  0  0  0  0  0  0  0  0  0  0  0
  -21.8060  -13.7380   22.6940 H   0  0  0  0  0  0  0  0  0  0  0  0
  -25.7440  -15.5190   19.9480 N   0  0  0  0  0  0  0  0  0  0  0  0
  -25.0840  -16.2310   20.2450 H   0  0  0  0  0  0  0  0  0  0  0  0
  -26.5540  -15.9020   19.4780 H   0  0  0  0  0  0  0  0  0  0  0  0
  1 52  1  0
  1  3  1  0
  2  1  1  0
  4  6  1  0
  5  8  1  0
  7  5  1  0
  7  9  1  0
  8 10  1  0
  8  4  1  0
  9  1  1  0
  9  6  1  0
 10 11  1  0
 11 13  1  0
 12 23  2  0
 13 18  1  0
 14 22  1  0
 14 24  1  0
 15 21  1  0
 15 17  1  0
 16 22  1  0
 17 16  1  0
 18 17  2  0
 19 20  1  0
 19 13  2  0
 20 15  2  0
 21 14  1  0
 22 12  1  0
 24 26  2  0
 25 24  1  0
 27 25  1  0
 28 37  2  0
 28 33  1  0
 29 25  1  0
 29 33  1  0
 30 29  1  0
 31 32  1  0
 31 30  1  0
 32 28  1  0
 33 34  2  0
 34 35  1  0
 36 35  2  0
 37 36  1  0
 38 12  1  0
 38 39  1  0
 38 48  1  0
 39 42  1  0
 40 44  1  0
 40 39  1  0
 41 40  2  0
 44 43  1  0
 46 44  1  0
 46 47  1  0
 46 45  1  0
 48 51  1  1
 48 49  1  0
 50 48  1  0
 53 52  1  0
 53 56  1  0
 54 58  1  0
 55 53  2  0
 56 60  1  0
 57 55  1  0
 57 54  2  0
 58 56  2  0
 58 62  1  0
 59 55  1  0
 61 57  1  0
 63 54  1  0
 64 72  1  0
 65 70  1  0
 66 67  1  0
 66 65  1  0
 68 67  1  0
 68 77  1  0
 68 69  1  0
 70 64  1  0
 70 69  1  0
 71 64  2  0
 72 63  1  0
 72 73  1  0
 74 75  2  0
 75 94  1  0
 76 75  1  0
 76 79  1  0
 77 78  1  0
 77 74  1  0
 78 76  2  0
 79 80  1  0
 80 81  2  0
 82 85  1  0
 82 81  1  0
 83 82  2  0
 84 83  1  0
 84 79  2  0
 85 86  1  0
 86 87  1  0
 87 88  2  0
 89 88  1  0
 89 93  1  0
 90 89  2  0
 91 86  2  0
 91 90  1  0
 92 91  1  0
 94 95  1  0
 95 97  1  0
 95 98  1  0
 96 94  2  0
 99 74  1  0
 99100  1  0
101 99  1  0
M  ISO  4  10 101  11 101  64 100  72 100
M  END
>  <TORSDO>  (45) 
F 21

>  <SCORE>  (45) 
-6.248

>  <name>  (45) 
45

>  <ligand_id>  (45) 
45

>  <original_smiles>  (45) 
[H]c1c([H])c([H])c2c(c1[H])C([H])([H])C([H])([H])C([H])([H])C2([H])N([H])C(=O)C1([H])N(C(=O)C([H])(N([H])C(=O)C([H])(N([H])C([H])([H])[H])C([H])([H])[H])C(C([H])([H])[H])(C([H])([H])[H])C([H])([H])[H])C([H])([H])c2c([H])c(OC([H])([H])C3([H])C([H])([H])C([H])([H])C([H])([N+]([H])([H])C([H])([H])c4c(F)c(Cl)c(C([H])([H])N([H])C(=O)N5C([H])([H])C([H])([H])C([H])([H])C([H])(n6nc(-c7c([H])c([H])c(Oc8c([H])c([H])c(F)c([H])c8F)c([H])c7[H])c(C(=O)N([H])[H])c6N([H])[H])C5([H])[H])c(Cl)c4Cl)C([H])([H])C3([H])[H])c([H])c([H])c2C1([H])[H]

>  <smiles>  (45) 
[H]c1c([H])c([H])c2c(c1[H])C([H])([H])C([H])([H])C([H])([H])C2([H])N([H])C(=O)C1([H])N(C(=O)C([H])(N([H])C(=O)C([H])(N([H])C([H])([H])[H])C([H])([H])[H])C(C([H])([H])[H])(C([H])([H])[H])C([H])([H])[H])C([H])([H])c2c([H])c(OC([H])([H])C3([H])C([H])([H])C([H])([H])C([H])([N+]([H])([H])C([H])([H])c4c(F)c(Cl)c(C([H])([H])N([H])C(=O)N5C([H])([H])C([H])([H])C([H])([H])C([H])(n6nc(-c7c([H])c([H])c(Oc8c([H])c([H])c(F)c([H])c8F)c([H])c7[H])c(C(=O)N([H])[H])c6N([H])[H])C5([H])[H])c(Cl)c4Cl)C([H])([H])C3([H])[H])c([H])c([H])c2C1([H])[H]

$$$$
46:0:0
     RDKit          3D

 91 99  0  0  1  0  0  0  0  0999 V2000
  -28.3380  -19.9520   19.8590 C   0  0  0  0  0  3  0  0  0  0  0  0
  -30.1580  -20.9130   21.1000 C   0  0  0  0  0  3  0  0  0  0  0  0
  -28.9760  -21.1170   20.3570 C   0  0  0  0  0  0  0  0  0  0  0  0
  -30.0160  -18.4240   20.8450 C   0  0  0  0  0  0  0  0  0  0  0  0
  -28.8350  -18.6370   20.0820 C   0  0  0  0  0  0  0  0  0  0  0  0
  -30.6670  -19.6030   21.3330 C   0  0  0  0  0  0  0  0  0  0  0  0
  -27.9590  -17.3280   19.3710 Cl  0  0  0  0  0  0  0  0  0  0  0  0
  -32.1400  -19.4790   22.2300 Cl  0  0  0  0  0  0  0  0  0  0  0  0
  -28.3340  -22.5040   20.0500 C   0  0  0  0  0  2  0  0  0  0  0  0
  -28.9490  -23.8930   20.4940 C   0  0  0  0  0  2  0  0  0  0  0  0
  -28.0140  -25.0800   20.0340 C   0  0  0  0  0  2  0  0  0  0  0  0
  -28.2950  -26.5040   20.2840 O   0  0  0  0  0  0  0  0  0  0  0  0
  -24.6230  -31.9240   23.2630 C   0  0  0  0  0  0  0  0  0  0  0  0
  -27.1910  -27.3690   20.2020 C   0  0  0  0  0  0  0  0  0  0  0  0
  -23.4030  -30.5350   21.6270 C   0  0  0  0  0  3  0  0  0  0  0  0
  -24.8390  -28.9860   20.1960 C   0  0  0  0  0  0  0  0  0  0  0  0
  -25.9430  -30.8420   21.4370 C   0  0  0  0  0  2  0  0  0  0  0  0
  -26.0110  -29.4660   20.7920 C   0  0  0  0  0  0  0  0  0  0  0  0
  -27.1910  -28.6660   20.7930 C   0  0  0  0  0  3  0  0  0  0  0  0
  -25.9970  -26.9530   19.5600 C   0  0  0  0  0  3  0  0  0  0  0  0
  -24.8310  -27.7320   19.5740 C   0  0  0  0  0  3  0  0  0  0  0  0
  -23.6080  -29.8660   20.2460 C   0  0  0  0  0  2  0  0  0  0  0  0
  -24.6760  -31.1160   22.1660 N   0  0  0  0  0  0  0  0  0  0  0  0
  -23.5420  -32.2100   23.8000 O   0  0  0  0  0  0  0  0  0  0  0  0
  -22.7400  -29.5190   22.5870 C   0  0  0  0  0  0  0  0  0  0  0  0
  -21.4130  -29.3470   22.4610 N   0  0  0  0  0  0  0  0  0  0  0  0
  -23.4160  -28.8890   23.4050 O   0  0  0  0  0  0  0  0  0  0  0  0
  -20.9260  -29.9080   21.7740 H   0  0  0  0  0  0  0  0  0  0  0  0
  -18.0290  -28.1730   22.9610 C   0  0  0  0  0  0  0  0  0  0  0  0
  -20.5880  -28.4170   23.2330 C   0  0  0  0  0  3  0  0  0  0  0  0
  -20.6830  -26.9830   22.6640 C   0  0  0  0  0  2  0  0  0  0  0  0
  -19.5810  -26.6620   21.6500 C   0  0  0  0  0  2  0  0  0  0  0  0
  -18.1980  -26.8200   22.2910 C   0  0  0  0  0  2  0  0  0  0  0  0
  -19.1530  -28.9300   23.3900 C   0  0  0  0  0  0  0  0  0  0  0  0
  -18.9410  -30.1960   23.9760 C   0  0  0  0  0  3  0  0  0  0  0  0
  -17.6390  -30.7080   24.1360 C   0  0  0  0  0  3  0  0  0  0  0  0
  -16.5300  -29.9490   23.7240 C   0  0  0  0  0  3  0  0  0  0  0  0
  -16.7260  -28.6830   23.1430 C   0  0  0  0  0  3  0  0  0  0  0  0
  -25.9130  -32.5460   23.8810 C   0  0  0  0  0  3  0  0  0  0  0  0
  -26.4260  -31.7700   25.1550 C   0  0  1  0  0  0  0  0  0  0  0  0
  -25.3340  -31.5420   26.2250 C   0  0  0  0  0  1  0  0  0  0  0  0
  -26.9970  -30.3880   24.7600 C   0  0  0  0  0  1  0  0  0  0  0  0
  -27.5850  -32.5550   25.8120 C   0  0  0  0  0  1  0  0  0  0  0  0
  -25.6150  -33.9460   24.2100 N   0  0  0  0  0  0  0  0  0  0  0  0
  -25.9410  -34.9950   23.4430 C   0  0  0  0  0  0  0  0  0  0  0  0
  -26.5970  -34.8850   22.4030 O   0  0  0  0  0  0  0  0  0  0  0  0
  -25.0300  -34.1070   25.0170 H   0  0  0  0  0  0  0  0  0  0  0  0
  -24.2120  -36.7910   23.1120 C   0  0  0  0  0  1  0  0  0  0  0  0
  -25.4670  -36.3870   23.9020 C   0  0  0  0  0  3  0  0  0  0  0  0
  -27.6210  -37.2680   24.6860 C   0  0  0  0  0  1  0  0  0  0  0  0
  -26.5010  -37.4370   23.7630 N   0  0  0  0  0  0  0  0  0  0  0  0
  -26.1010  -38.3590   23.9170 H   0  0  0  0  0  0  0  0  0  0  0  0
  -30.6800  -17.0290   21.1430 C   0  0  0  0  0  2  0  0  0  0  0  0
  -30.6780  -14.5890   20.4490 C   0  0  0  0  0  0  0  0  0  0  0  0
  -30.3560  -12.3890   19.3510 C   0  0  0  0  0  2  0  0  0  0  0  0
  -29.4130  -12.5350   18.1390 C   0  0  0  0  0  2  0  0  0  0  0  0
  -27.9460  -12.3830   18.5830 C   0  0  0  0  0  2  0  0  0  0  0  0
  -27.6010  -13.2550   19.8200 C   0  0  0  0  0  3  0  0  0  0  0  0
  -28.6660  -13.1160   20.9300 C   0  0  0  0  0  2  0  0  0  0  0  0
  -29.9750  -13.4210   20.3360 N   0  0  0  0  0  0  0  0  0  0  0  0
  -31.8320  -14.6790   20.0290 O   0  0  0  0  0  0  0  0  0  0  0  0
  -30.0300  -15.6980   20.9010 N   0  0  0  0  0  0  0  0  0  0  0  0
  -29.0610  -15.5960   21.1640 H   0  0  0  0  0  0  0  0  0  0  0  0
  -25.2120  -13.8460   20.5590 C   0  0  0  0  0  0  0  0  0  0  0  0
  -24.1480  -13.0700   20.9300 C   0  0  0  0  0  0  0  0  0  0  0  0
  -24.6110  -11.7190   20.8910 C   0  0  0  0  0  0  0  0  0  0  0  0
  -26.2570  -12.9690   20.3160 N   0  0  0  0  0  0  0  0  0  0  0  0
  -25.9010  -11.6850   20.5760 N   0  0  0  0  0  0  0  0  0  0  0  0
  -23.8870  -10.4560   21.0790 C   0  0  0  0  0  0  0  0  0  0  0  0
  -24.3360   -9.4760   21.9910 C   0  0  0  0  0  3  0  0  0  0  0  0
  -23.6120   -8.2770   22.1680 C   0  0  0  0  0  3  0  0  0  0  0  0
  -22.4240   -8.0510   21.4340 C   0  0  0  0  0  0  0  0  0  0  0  0
  -21.9930   -9.0200   20.5100 C   0  0  0  0  0  3  0  0  0  0  0  0
  -22.7190  -10.2100   20.3300 C   0  0  0  0  0  3  0  0  0  0  0  0
  -21.6700   -6.9050   21.5210 O   0  0  0  0  0  0  0  0  0  0  0  0
  -21.6500   -6.1420   22.6600 C   0  0  0  0  0  0  0  0  0  0  0  0
  -21.2590   -6.6740   23.9080 C   0  0  0  0  0  3  0  0  0  0  0  0
  -21.1870   -5.8370   25.0390 C   0  0  0  0  0  3  0  0  0  0  0  0
  -21.4950   -4.4680   24.9240 C   0  0  0  0  0  0  0  0  0  0  0  0
  -21.8770   -3.9340   23.6810 C   0  0  0  0  0  3  0  0  0  0  0  0
  -21.9520   -4.7690   22.5520 C   0  0  0  0  0  0  0  0  0  0  0  0
  -22.3030   -4.2460   21.3510 F   0  0  0  0  0  0  0  0  0  0  0  0
  -21.4170   -3.6610   26.0080 F   0  0  0  0  0  0  0  0  0  0  0  0
  -22.7520  -13.5440   21.2110 C   0  0  0  0  0  0  0  0  0  0  0  0
  -22.0310  -12.8480   22.0820 N   0  0  0  0  0  0  0  0  0  0  0  0
  -22.3090  -14.5690   20.6930 O   0  0  0  0  0  0  0  0  0  0  0  0
  -22.4030  -12.0200   22.5240 H   0  0  0  0  0  0  0  0  0  0  0  0
  -21.0950  -13.1470   22.3110 H   0  0  0  0  0  0  0  0  0  0  0  0
  -25.3700  -15.2190   20.3880 N   0  0  0  0  0  0  0  0  0  0  0  0
  -24.5960  -15.8620   20.5080 H   0  0  0  0  0  0  0  0  0  0  0  0
  -26.2100  -15.6710   20.0470 H   0  0  0  0  0  0  0  0  0  0  0  0
  1  5  2  0
  1  3  1  0
  2  6  1  0
  3  2  2  0
  4 53  1  0
  4  6  2  0
  5  4  1  0
  6  8  1  0
  7  5  1  0
  9  3  1  0
  9 10  1  0
 11 12  1  0
 11 10  1  0
 13 24  2  0
 14 12  1  0
 14 19  1  0
 15 23  1  0
 15 25  1  0
 16 22  1  0
 16 18  1  0
 17 23  1  0
 18 19  2  0
 18 17  1  0
 20 21  1  0
 20 14  2  0
 21 16  2  0
 22 15  1  0
 23 13  1  0
 25 27  2  0
 26 25  1  0
 28 26  1  0
 29 38  2  0
 29 34  1  0
 30 26  1  0
 30 34  1  0
 31 30  1  0
 32 33  1  0
 32 31  1  0
 33 29  1  0
 34 35  2  0
 35 36  1  0
 37 36  2  0
 38 37  1  0
 39 13  1  0
 39 44  1  0
 39 40  1  0
 40 43  1  1
 40 41  1  0
 42 40  1  0
 44 47  1  0
 45 49  1  0
 45 44  1  0
 46 45  2  0
 49 48  1  0
 51 49  1  0
 51 52  1  0
 51 50  1  0
 54 62  1  0
 55 60  1  0
 56 57  1  0
 56 55  1  0
 58 57  1  0
 58 67  1  0
 58 59  1  0
 60 54  1  0
 60 59  1  0
 61 54  2  0
 62 53  1  0
 62 63  1  0
 64 65  2  0
 65 84  1  0
 66 65  1  0
 66 69  1  0
 67 64  1  0
 67 68  1  0
 68 66  2  0
 69 70  1  0
 70 71  2  0
 72 75  1  0
 72 71  1  0
 73 72  2  0
 74 73  1  0
 74 69  2  0
 75 76  1  0
 76 77  1  0
 77 78  2  0
 79 78  1  0
 79 83  1  0
 80 79  2  0
 81 76  2  0
 81 80  1  0
 82 81  1  0
 84 85  1  0
 85 88  1  0
 85 87  1  0
 86 84  2  0
 89 90  1  0
 89 64  1  0
 91 89  1  0
M  ISO  4  11 101  12 101  54 100  62 100
M  END
>  <TORSDO>  (46) 
F 20

>  <SCORE>  (46) 
-14.222

>  <name>  (46) 
46

>  <ligand_id>  (46) 
46

>  <original_smiles>  (46) 
[H]c1c([H])c([H])c2c(c1[H])C([H])([H])C([H])([H])C([H])([H])C2([H])N([H])C(=O)C1([H])N(C(=O)C([H])(N([H])C(=O)C([H])(N([H])C([H])([H])[H])C([H])([H])[H])C(C([H])([H])[H])(C([H])([H])[H])C([H])([H])[H])C([H])([H])c2c([H])c(OC([H])([H])C([H])([H])C([H])([H])c3c([H])c(Cl)c(C([H])([H])N([H])C(=O)N4C([H])([H])C([H])([H])C([H])([H])C([H])(n5nc(-c6c([H])c([H])c(Oc7c([H])c([H])c(F)c([H])c7F)c([H])c6[H])c(C(=O)N([H])[H])c5N([H])[H])C4([H])[H])c(Cl)c3[H])c([H])c([H])c2C1([H])[H]

>  <smiles>  (46) 
[H]c1c([H])c([H])c2c(c1[H])C([H])([H])C([H])([H])C([H])([H])C2([H])N([H])C(=O)C1([H])N(C(=O)C([H])(N([H])C(=O)C([H])(N([H])C([H])([H])[H])C([H])([H])[H])C(C([H])([H])[H])(C([H])([H])[H])C([H])([H])[H])C([H])([H])c2c([H])c(OC([H])([H])C([H])([H])C([H])([H])c3c([H])c(Cl)c(C([H])([H])N([H])C(=O)N4C([H])([H])C([H])([H])C([H])([H])C([H])(n5nc(-c6c([H])c([H])c(Oc7c([H])c([H])c(F)c([H])c7F)c([H])c6[H])c(C(=O)N([H])[H])c5N([H])[H])C4([H])[H])c(Cl)c3[H])c([H])c([H])c2C1([H])[H]

$$$$
47:0:0
     RDKit          3D

 99108  0  0  1  0  0  0  0  0999 V2000
  -31.8230  -21.7090   20.1780 C   0  0  0  0  0  2  0  0  0  0  0  0
  -30.1850  -20.4920   18.7870 C   0  0  0  0  0  2  0  0  0  0  0  0
  -31.0380  -23.0160   20.0230 C   0  0  0  0  0  2  0  0  0  0  0  0
  -29.3690  -21.7690   18.5420 C   0  0  0  0  0  2  0  0  0  0  0  0
  -30.8250  -20.5500   20.1770 C   0  0  0  0  0  3  0  0  0  0  0  0
  -30.0990  -23.0420   18.8530 N   0  0  1  0  0  4  0  0  0  0  0  0
  -30.6940  -23.2050   18.0540 H   0  0  0  0  0  0  0  0  0  0  0  0
  -31.4520  -17.3090   22.1230 C   0  0  0  0  0  0  0  0  0  0  0  0
  -31.0330  -18.6340   21.8790 C   0  0  0  0  0  0  0  0  0  0  0  0
  -31.3950  -19.2170   20.6350 C   0  0  0  0  0  0  0  0  0  0  0  0
  -32.2520  -16.7010   21.1260 C   0  0  0  0  0  0  0  0  0  0  0  0
  -31.0330  -16.5730   23.3930 C   0  0  0  0  0  1  0  0  0  0  0  0
  -32.1790  -18.5760   19.7360 N   0  0  0  0  0  0  0  0  0  0  0  0
  -32.6230  -17.3460   19.9940 N   0  0  0  0  0  0  0  0  0  0  0  0
  -30.0690  -19.4810   23.0470 Cl  0  0  0  0  0  0  0  0  0  0  0  0
  -32.6380  -15.2350   21.1840 C   0  0  0  0  0  2  0  0  0  0  0  0
  -31.3390  -14.0940   19.4060 C   0  0  0  0  0  0  0  0  0  0  0  0
  -30.5030  -12.1730   18.1210 C   0  0  0  0  0  2  0  0  0  0  0  0
  -29.4090  -12.5160   17.1020 C   0  0  0  0  0  2  0  0  0  0  0  0
  -28.0270  -12.4690   17.7700 C   0  0  0  0  0  2  0  0  0  0  0  0
  -27.9690  -13.3200   19.0630 C   0  0  0  0  0  3  0  0  0  0  0  0
  -29.1580  -13.0060   20.0000 C   0  0  0  0  0  2  0  0  0  0  0  0
  -30.4200  -13.1160   19.2450 N   0  0  0  0  0  0  0  0  0  0  0  0
  -32.0920  -14.4850   18.5100 O   0  0  0  0  0  0  0  0  0  0  0  0
  -31.5500  -14.3980   20.6900 N   0  0  0  0  0  0  0  0  0  0  0  0
  -30.9410  -13.9710   21.3710 H   0  0  0  0  0  0  0  0  0  0  0  0
  -25.7910  -14.1240   20.1810 C   0  0  0  0  0  0  0  0  0  0  0  0
  -24.7150  -13.4450   20.6850 C   0  0  0  0  0  0  0  0  0  0  0  0
  -25.0120  -12.0570   20.5140 C   0  0  0  0  0  0  0  0  0  0  0  0
  -26.6840  -13.1580   19.7440 N   0  0  0  0  0  0  0  0  0  0  0  0
  -26.2240  -11.9050   19.9970 N   0  0  0  0  0  0  0  0  0  0  0  0
  -24.1890  -10.8670   20.7650 C   0  0  0  0  0  0  0  0  0  0  0  0
  -24.6080   -9.8500   21.6510 C   0  0  0  0  0  3  0  0  0  0  0  0
  -23.7880   -8.7260   21.8910 C   0  0  0  0  0  3  0  0  0  0  0  0
  -22.5360   -8.6100   21.2420 C   0  0  0  0  0  0  0  0  0  0  0  0
  -22.1330   -9.6130   20.3420 C   0  0  0  0  0  3  0  0  0  0  0  0
  -22.9530  -10.7290   20.1030 C   0  0  0  0  0  3  0  0  0  0  0  0
  -21.6880   -7.5380   21.3910 O   0  0  0  0  0  0  0  0  0  0  0  0
  -21.6150   -6.8350   22.5660 C   0  0  0  0  0  0  0  0  0  0  0  0
  -21.2820   -7.4600   23.7870 C   0  0  0  0  0  3  0  0  0  0  0  0
  -21.1460   -6.6890   24.9590 C   0  0  0  0  0  3  0  0  0  0  0  0
  -21.3390   -5.2950   24.9110 C   0  0  0  0  0  0  0  0  0  0  0  0
  -21.6660   -4.6710   23.6960 C   0  0  0  0  0  3  0  0  0  0  0  0
  -21.8020   -5.4390   22.5260 C   0  0  0  0  0  0  0  0  0  0  0  0
  -22.0960   -4.8290   21.3520 F   0  0  0  0  0  0  0  0  0  0  0  0
  -21.2020   -4.5520   26.0340 F   0  0  0  0  0  0  0  0  0  0  0  0
  -23.4420  -14.0430   21.2090 C   0  0  0  0  0  0  0  0  0  0  0  0
  -22.8150  -13.3950   22.1830 N   0  0  0  0  0  0  0  0  0  0  0  0
  -23.0220  -15.1220   20.7890 O   0  0  0  0  0  0  0  0  0  0  0  0
  -23.1730  -12.5230   22.5420 H   0  0  0  0  0  0  0  0  0  0  0  0
  -21.9670  -13.7780   22.5750 H   0  0  0  0  0  0  0  0  0  0  0  0
  -26.0750  -15.4800   20.0440 N   0  0  0  0  0  0  0  0  0  0  0  0
  -25.4160  -16.1990   20.3150 H   0  0  0  0  0  0  0  0  0  0  0  0
  -26.9160  -15.8490   19.6190 H   0  0  0  0  0  0  0  0  0  0  0  0
  -28.3810  -24.4320   17.6430 C   0  0  0  0  0  1  0  0  0  0  0  0
  -29.1950  -24.2260   18.9370 C   0  0  0  0  0  3  0  0  0  0  0  0
  -28.2820  -24.1930   20.1970 C   0  0  0  0  0  2  0  0  0  0  0  0
  -28.4340  -25.4290   21.0890 C   0  0  0  0  0  2  0  0  0  0  0  0
  -28.4560  -26.6150   20.3110 O   0  0  0  0  0  0  0  0  0  0  0  0
  -24.6250  -31.8250   23.2270 C   0  0  0  0  0  0  0  0  0  0  0  0
  -27.2760  -27.3070   20.3090 C   0  0  0  0  0  0  0  0  0  0  0  0
  -23.4280  -30.3890   21.6070 C   0  0  0  0  0  3  0  0  0  0  0  0
  -24.8880  -28.7970   20.2540 C   0  0  0  0  0  0  0  0  0  0  0  0
  -25.9590  -30.7230   21.4400 C   0  0  0  0  0  2  0  0  0  0  0  0
  -26.0370  -29.3380   20.8440 C   0  0  0  0  0  0  0  0  0  0  0  0
  -27.2360  -28.5960   20.8730 C   0  0  0  0  0  3  0  0  0  0  0  0
  -26.1170  -26.7720   19.7090 C   0  0  0  0  0  3  0  0  0  0  0  0
  -24.9210  -27.5130   19.6850 C   0  0  0  0  0  3  0  0  0  0  0  0
  -23.6490  -29.6630   20.2540 C   0  0  0  0  0  2  0  0  0  0  0  0
  -24.6880  -30.9940   22.1510 N   0  0  0  0  0  0  0  0  0  0  0  0
  -23.5370  -32.1260   23.7390 O   0  0  0  0  0  0  0  0  0  0  0  0
  -22.7540  -29.4030   22.5830 C   0  0  0  0  0  0  0  0  0  0  0  0
  -21.4320  -29.2220   22.4290 N   0  0  0  0  0  0  0  0  0  0  0  0
  -23.4130  -28.8000   23.4340 O   0  0  0  0  0  0  0  0  0  0  0  0
  -20.9630  -29.7560   21.7120 H   0  0  0  0  0  0  0  0  0  0  0  0
  -18.0380  -28.0700   22.8710 C   0  0  0  0  0  0  0  0  0  0  0  0
  -20.5890  -28.3170   23.2070 C   0  0  0  0  0  3  0  0  0  0  0  0
  -20.6960  -26.8660   22.6810 C   0  0  0  0  0  2  0  0  0  0  0  0
  -19.6190  -26.5160   21.6490 C   0  0  0  0  0  2  0  0  0  0  0  0
  -18.2210  -26.6940   22.2480 C   0  0  0  0  0  2  0  0  0  0  0  0
  -19.1500  -28.8380   23.3040 C   0  0  0  0  0  0  0  0  0  0  0  0
  -18.9240  -30.1240   23.8430 C   0  0  0  0  0  3  0  0  0  0  0  0
  -17.6200  -30.6410   23.9530 C   0  0  0  0  0  3  0  0  0  0  0  0
  -16.5220  -29.8680   23.5370 C   0  0  0  0  0  3  0  0  0  0  0  0
  -16.7320  -28.5840   23.0030 C   0  0  0  0  0  3  0  0  0  0  0  0
  -25.9080  -32.4570   23.8490 C   0  0  0  0  0  3  0  0  0  0  0  0
  -25.5940  -33.8540   24.1750 N   0  0  0  0  0  0  0  0  0  0  0  0
  -25.9270  -34.9060   23.4150 C   0  0  0  0  0  0  0  0  0  0  0  0
  -26.6010  -34.8050   22.3850 O   0  0  0  0  0  0  0  0  0  0  0  0
  -24.9890  -34.0070   24.9700 H   0  0  0  0  0  0  0  0  0  0  0  0
  -24.1960  -36.6980   23.0540 C   0  0  0  0  0  1  0  0  0  0  0  0
  -25.4360  -36.2950   23.8670 C   0  0  0  0  0  3  0  0  0  0  0  0
  -27.5710  -37.1870   24.6940 C   0  0  0  0  0  1  0  0  0  0  0  0
  -26.4680  -37.3490   23.7520 N   0  0  0  0  0  0  0  0  0  0  0  0
  -26.0590  -38.2680   23.8980 H   0  0  0  0  0  0  0  0  0  0  0  0
  -26.4280  -31.6850   25.1240 C   0  0  1  0  0  0  0  0  0  0  0  0
  -25.3230  -31.4040   26.1700 C   0  0  0  0  0  1  0  0  0  0  0  0
  -27.0520  -30.3270   24.7230 C   0  0  0  0  0  1  0  0  0  0  0  0
  -27.5530  -32.4970   25.8080 C   0  0  0  0  0  1  0  0  0  0  0  0
  2  5  1  0
  3  1  1  0
  4  2  1  0
  4  6  1  0
  5  1  1  0
  5 10  1  0
  6 56  1  0
  6  3  1  0
  6  7  1  6
  8 12  1  0
  9  8  1  0
  9 15  1  0
 10  9  2  0
 11 16  1  0
 11  8  2  0
 13 14  2  0
 13 10  1  0
 14 11  1  0
 17 25  1  0
 18 23  1  0
 19 20  1  0
 19 18  1  0
 21 20  1  0
 21 30  1  0
 21 22  1  0
 23 17  1  0
 23 22  1  0
 24 17  2  0
 25 16  1  0
 25 26  1  0
 27 28  2  0
 28 47  1  0
 29 28  1  0
 29 32  1  0
 30 31  1  0
 30 27  1  0
 31 29  2  0
 32 33  1  0
 33 34  2  0
 35 38  1  0
 35 34  1  0
 36 35  2  0
 37 36  1  0
 37 32  2  0
 38 39  1  0
 39 40  1  0
 40 41  2  0
 42 41  1  0
 42 46  1  0
 43 42  2  0
 44 39  2  0
 44 43  1  0
 45 44  1  0
 47 48  1  0
 48 50  1  0
 48 51  1  0
 49 47  2  0
 52 27  1  0
 52 53  1  0
 54 52  1  0
 56 55  1  0
 56 57  1  0
 57 58  1  0
 59 58  1  0
 60 71  2  0
 61 59  1  0
 61 66  1  0
 62 70  1  0
 62 72  1  0
 63 69  1  0
 63 65  1  0
 64 70  1  0
 65 66  2  0
 65 64  1  0
 67 61  2  0
 68 67  1  0
 68 63  2  0
 69 62  1  0
 70 60  1  0
 72 74  2  0
 73 72  1  0
 75 73  1  0
 76 85  2  0
 76 81  1  0
 77 73  1  0
 77 81  1  0
 78 77  1  0
 79 80  1  0
 79 78  1  0
 80 76  1  0
 81 82  2  0
 82 83  1  0
 84 83  2  0
 85 84  1  0
 86 60  1  0
 86 87  1  0
 86 96  1  0
 87 90  1  0
 88 92  1  0
 88 87  1  0
 89 88  2  0
 92 91  1  0
 94 92  1  0
 94 95  1  0
 94 93  1  0
 96 99  1  1
 96 97  1  0
 98 96  1  0
M  ISO  4  17 100  25 100  58 101  59 101
M  END
>  <TORSDO>  (47) 
F 21

>  <SCORE>  (47) 
-8.423

>  <name>  (47) 
47

>  <ligand_id>  (47) 
47

>  <original_smiles>  (47) 
[H]c1c([H])c([H])c2c(c1[H])C([H])([H])C([H])([H])C([H])([H])C2([H])N([H])C(=O)C1([H])N(C(=O)C([H])(N([H])C(=O)C([H])(N([H])C([H])([H])[H])C([H])([H])[H])C(C([H])([H])[H])(C([H])([H])[H])C([H])([H])[H])C([H])([H])c2c([H])c(OC([H])([H])C([H])([H])C([H])(C([H])([H])[H])[N+]3([H])C([H])([H])C([H])([H])C([H])(c4nnc(C([H])([H])N([H])C(=O)N5C([H])([H])C([H])([H])C([H])([H])C([H])(n6nc(-c7c([H])c([H])c(Oc8c([H])c([H])c(F)c([H])c8F)c([H])c7[H])c(C(=O)N([H])[H])c6N([H])[H])C5([H])[H])c(C([H])([H])[H])c4Cl)C([H])([H])C3([H])[H])c([H])c([H])c2C1([H])[H]

>  <smiles>  (47) 
[H]c1c([H])c([H])c2c(c1[H])C([H])([H])C([H])([H])C([H])([H])C2([H])N([H])C(=O)C1([H])N(C(=O)C([H])(N([H])C(=O)C([H])(N([H])C([H])([H])[H])C([H])([H])[H])C(C([H])([H])[H])(C([H])([H])[H])C([H])([H])[H])C([H])([H])c2c([H])c(OC([H])([H])C([H])([H])C([H])(C([H])([H])[H])[N+]3([H])C([H])([H])C([H])([H])C([H])(c4nnc(C([H])([H])N([H])C(=O)N5C([H])([H])C([H])([H])C([H])([H])C([H])(n6nc(-c7c([H])c([H])c(Oc8c([H])c([H])c(F)c([H])c8F)c([H])c7[H])c(C(=O)N([H])[H])c6N([H])[H])C5([H])[H])c(C([H])([H])[H])c4Cl)C([H])([H])C3([H])[H])c([H])c([H])c2C1([H])[H]

$$$$
48:0:0
     RDKit          3D

 91 99  0  0  1  0  0  0  0  0999 V2000
  -28.2680  -22.3810   18.7040 C   0  0  0  0  0  0  0  0  0  0  0  0
  -29.0600  -21.3570   20.7590 C   0  0  0  0  0  0  0  0  0  0  0  0
  -28.5610  -22.6650   20.0710 C   0  0  0  0  0  0  0  0  0  0  0  0
  -28.4290  -21.0730   18.1180 C   0  0  0  0  0  0  0  0  0  0  0  0
  -29.2390  -19.9150   20.1940 C   0  0  0  0  0  0  0  0  0  0  0  0
  -28.8570  -19.9020   18.8310 C   0  0  0  0  0  0  0  0  0  0  0  0
  -27.7240  -23.5000   17.8150 C   0  0  0  0  0  1  0  0  0  0  0  0
  -29.4230  -21.5130   22.2210 C   0  0  0  0  0  1  0  0  0  0  0  0
  -28.1020  -20.8950   16.6320 C   0  0  0  0  0  1  0  0  0  0  0  0
  -28.9370  -18.3830   17.9960 Cl  0  0  0  0  0  0  0  0  0  0  0  0
  -29.9260  -18.4070   20.8460 C   0  0  0  0  0  2  0  0  0  0  0  0
  -30.5450  -15.4640   20.6720 C   0  0  0  0  0  0  0  0  0  0  0  0
  -30.6520  -12.9800   19.8740 C   0  0  0  0  0  2  0  0  0  0  0  0
  -29.8210  -12.6630   18.6050 C   0  0  0  0  0  2  0  0  0  0  0  0
  -28.3550  -12.3640   18.9660 C   0  0  0  0  0  2  0  0  0  0  0  0
  -27.8020  -13.3650   20.0090 C   0  0  0  0  0  3  0  0  0  0  0  0
  -28.7690  -13.6060   21.1870 C   0  0  0  0  0  2  0  0  0  0  0  0
  -30.0110  -14.1400   20.5990 N   0  0  0  0  0  0  0  0  0  0  0  0
  -31.7840  -15.4640   20.6170 O   0  0  0  0  0  0  0  0  0  0  0  0
  -29.7520  -16.7340   20.6220 N   0  0  0  0  0  0  0  0  0  0  0  0
  -28.7760  -16.5040   20.5160 H   0  0  0  0  0  0  0  0  0  0  0  0
  -25.3840  -13.8990   20.6070 C   0  0  0  0  0  0  0  0  0  0  0  0
  -24.3120  -13.1120   20.9190 C   0  0  0  0  0  0  0  0  0  0  0  0
  -24.7990  -11.7680   20.9410 C   0  0  0  0  0  0  0  0  0  0  0  0
  -26.4520  -13.0350   20.4450 N   0  0  0  0  0  0  0  0  0  0  0  0
  -26.1090  -11.7490   20.7180 N   0  0  0  0  0  0  0  0  0  0  0  0
  -24.0780  -10.4990   21.1030 C   0  0  0  0  0  0  0  0  0  0  0  0
  -24.4560   -9.5530   22.0810 C   0  0  0  0  0  3  0  0  0  0  0  0
  -23.7330   -8.3490   22.2300 C   0  0  0  0  0  3  0  0  0  0  0  0
  -22.6180   -8.0830   21.4020 C   0  0  0  0  0  0  0  0  0  0  0  0
  -22.2600   -9.0170   20.4130 C   0  0  0  0  0  3  0  0  0  0  0  0
  -22.9840  -10.2110   20.2620 C   0  0  0  0  0  3  0  0  0  0  0  0
  -21.8720   -6.9300   21.4590 O   0  0  0  0  0  0  0  0  0  0  0  0
  -21.7470   -6.2110   22.6200 C   0  0  0  0  0  0  0  0  0  0  0  0
  -21.1910   -6.7750   23.7900 C   0  0  0  0  0  3  0  0  0  0  0  0
  -21.0170   -5.9800   24.9400 C   0  0  0  0  0  3  0  0  0  0  0  0
  -21.3870   -4.6220   24.9220 C   0  0  0  0  0  0  0  0  0  0  0  0
  -21.9360   -4.0570   23.7570 C   0  0  0  0  0  3  0  0  0  0  0  0
  -22.1130   -4.8500   22.6090 C   0  0  0  0  0  0  0  0  0  0  0  0
  -22.6210   -4.2950   21.4820 F   0  0  0  0  0  0  0  0  0  0  0  0
  -21.2120   -3.8560   26.0240 F   0  0  0  0  0  0  0  0  0  0  0  0
  -22.8930  -13.5710   21.0820 C   0  0  0  0  0  0  0  0  0  0  0  0
  -22.1160  -12.8800   21.9080 N   0  0  0  0  0  0  0  0  0  0  0  0
  -22.4790  -14.5800   20.5120 O   0  0  0  0  0  0  0  0  0  0  0  0
  -22.4640  -12.0660   22.3920 H   0  0  0  0  0  0  0  0  0  0  0  0
  -21.1600  -13.1690   22.0590 H   0  0  0  0  0  0  0  0  0  0  0  0
  -25.5360  -15.2690   20.4140 N   0  0  0  0  0  0  0  0  0  0  0  0
  -24.7500  -15.9090   20.4580 H   0  0  0  0  0  0  0  0  0  0  0  0
  -26.3870  -15.7110   20.0930 H   0  0  0  0  0  0  0  0  0  0  0  0
  -28.0930  -24.2670   20.6930 C   0  0  0  0  0  2  0  0  0  0  0  0
  -28.2300  -25.8590   20.1960 O   0  0  0  0  0  0  0  0  0  0  0  0
  -24.6260  -31.8870   23.2020 C   0  0  0  0  0  0  0  0  0  0  0  0
  -27.2090  -26.9620   20.2290 C   0  0  0  0  0  0  0  0  0  0  0  0
  -23.4470  -30.4710   21.5750 C   0  0  0  0  0  3  0  0  0  0  0  0
  -24.9060  -28.8600   20.1700 C   0  0  0  0  0  0  0  0  0  0  0  0
  -26.0160  -30.6850   21.4330 C   0  0  0  0  0  2  0  0  0  0  0  0
  -26.0950  -29.2670   20.7860 C   0  0  0  0  0  0  0  0  0  0  0  0
  -27.2440  -28.3450   20.7810 C   0  0  0  0  0  3  0  0  0  0  0  0
  -25.9780  -26.7140   19.5800 C   0  0  0  0  0  3  0  0  0  0  0  0
  -24.8740  -27.6040   19.5460 C   0  0  0  0  0  3  0  0  0  0  0  0
  -23.6850  -29.7800   20.2060 C   0  0  0  0  0  2  0  0  0  0  0  0
  -24.7180  -31.0430   22.1230 N   0  0  0  0  0  0  0  0  0  0  0  0
  -23.5330  -32.1740   23.7170 O   0  0  0  0  0  0  0  0  0  0  0  0
  -22.7540  -29.4780   22.5440 C   0  0  0  0  0  0  0  0  0  0  0  0
  -21.4240  -29.3070   22.4190 N   0  0  0  0  0  0  0  0  0  0  0  0
  -23.4200  -28.8620   23.3800 O   0  0  0  0  0  0  0  0  0  0  0  0
  -20.9390  -29.8530   21.7210 H   0  0  0  0  0  0  0  0  0  0  0  0
  -18.0440  -28.0900   22.9450 C   0  0  0  0  0  0  0  0  0  0  0  0
  -20.6050  -28.3670   23.1950 C   0  0  0  0  0  3  0  0  0  0  0  0
  -20.7090  -26.9340   22.6240 C   0  0  0  0  0  2  0  0  0  0  0  0
  -19.6040  -26.6050   21.6150 C   0  0  0  0  0  2  0  0  0  0  0  0
  -18.2230  -26.7420   22.2660 C   0  0  0  0  0  2  0  0  0  0  0  0
  -19.1610  -28.8590   23.3670 C   0  0  0  0  0  0  0  0  0  0  0  0
  -18.9370  -30.1160   23.9670 C   0  0  0  0  0  3  0  0  0  0  0  0
  -17.6300  -30.6070   24.1470 C   0  0  0  0  0  3  0  0  0  0  0  0
  -16.5270  -29.8360   23.7400 C   0  0  0  0  0  3  0  0  0  0  0  0
  -16.7350  -28.5790   23.1440 C   0  0  0  0  0  3  0  0  0  0  0  0
  -25.8900  -32.5450   23.8350 C   0  0  0  0  0  3  0  0  0  0  0  0
  -25.5600  -33.9460   24.1540 N   0  0  0  0  0  0  0  0  0  0  0  0
  -25.9120  -35.0070   23.4140 C   0  0  0  0  0  0  0  0  0  0  0  0
  -26.6100  -34.9080   22.4010 O   0  0  0  0  0  0  0  0  0  0  0  0
  -24.9420  -34.0930   24.9370 H   0  0  0  0  0  0  0  0  0  0  0  0
  -24.2160  -36.8230   23.0070 C   0  0  0  0  0  1  0  0  0  0  0  0
  -25.4150  -36.3960   23.8660 C   0  0  0  0  0  3  0  0  0  0  0  0
  -27.5140  -37.2600   24.8090 C   0  0  0  0  0  1  0  0  0  0  0  0
  -26.4610  -37.4420   23.8120 N   0  0  0  0  0  0  0  0  0  0  0  0
  -26.0550  -38.3640   23.9480 H   0  0  0  0  0  0  0  0  0  0  0  0
  -26.3880  -31.7990   25.1340 C   0  0  1  0  0  0  0  0  0  0  0  0
  -25.2820  -31.5750   26.1900 C   0  0  0  0  0  1  0  0  0  0  0  0
  -26.9840  -30.4170   24.7830 C   0  0  0  0  0  1  0  0  0  0  0  0
  -27.5260  -32.6110   25.7960 C   0  0  0  0  0  1  0  0  0  0  0  0
  1  3  1  0
  2  8  1  0
  3 50  1  0
  3  2  2  0
  4  1  2  0
  4  6  1  0
  5  2  1  0
  5 11  1  0
  6  5  2  0
  7  1  1  0
  9  4  1  0
 10  6  1  0
 13 18  1  0
 14 15  1  0
 14 13  1  0
 16 15  1  0
 16 25  1  0
 16 17  1  0
 18 12  1  0
 18 17  1  0
 19 12  2  0
 20 12  1  0
 20 11  1  0
 21 20  1  0
 22 23  2  0
 23 24  1  0
 23 42  1  0
 24 27  1  0
 25 22  1  0
 25 26  1  0
 26 24  2  0
 27 28  1  0
 28 29  2  0
 30 33  1  0
 30 29  1  0
 31 30  2  0
 32 31  1  0
 32 27  2  0
 33 34  1  0
 34 35  1  0
 35 36  2  0
 37 36  1  0
 37 41  1  0
 38 37  2  0
 39 34  2  0
 39 38  1  0
 40 39  1  0
 42 43  1  0
 43 46  1  0
 43 45  1  0
 44 42  2  0
 47 48  1  0
 47 22  1  0
 49 47  1  0
 51 53  1  0
 51 50  1  0
 52 63  2  0
 53 58  1  0
 54 62  1  0
 54 64  1  0
 55 61  1  0
 55 57  1  0
 56 62  1  0
 57 56  1  0
 58 57  2  0
 59 53  2  0
 60 59  1  0
 60 55  2  0
 61 54  1  0
 62 52  1  0
 64 66  2  0
 65 64  1  0
 67 65  1  0
 68 77  2  0
 68 73  1  0
 69 65  1  0
 69 73  1  0
 70 69  1  0
 71 72  1  0
 71 70  1  0
 72 68  1  0
 73 74  2  0
 74 75  1  0
 76 75  2  0
 77 76  1  0
 78 52  1  0
 78 79  1  0
 78 88  1  0
 79 82  1  0
 80 84  1  0
 80 79  1  0
 81 80  2  0
 84 83  1  0
 86 84  1  0
 86 87  1  0
 86 85  1  0
 88 91  1  1
 88 89  1  0
 90 88  1  0
M  ISO  4  12 100  20 100  50 101  51 101
M  END
>  <TORSDO>  (48) 
F 18

>  <SCORE>  (48) 
-16.269

>  <name>  (48) 
48

>  <ligand_id>  (48) 
48

>  <original_smiles>  (48) 
[H]c1c([H])c([H])c2c(c1[H])C([H])([H])C([H])([H])C([H])([H])C2([H])N([H])C(=O)C1([H])N(C(=O)C([H])(N([H])C(=O)C([H])(N([H])C([H])([H])[H])C([H])([H])[H])C(C([H])([H])[H])(C([H])([H])[H])C([H])([H])[H])C([H])([H])c2c([H])c(OC([H])([H])c3c(C([H])([H])[H])c(C([H])([H])[H])c(Cl)c(C([H])([H])N([H])C(=O)N4C([H])([H])C([H])([H])C([H])([H])C([H])(n5nc(-c6c([H])c([H])c(Oc7c([H])c([H])c(F)c([H])c7F)c([H])c6[H])c(C(=O)N([H])[H])c5N([H])[H])C4([H])[H])c3C([H])([H])[H])c([H])c([H])c2C1([H])[H]

>  <smiles>  (48) 
[H]c1c([H])c([H])c2c(c1[H])C([H])([H])C([H])([H])C([H])([H])C2([H])N([H])C(=O)C1([H])N(C(=O)C([H])(N([H])C(=O)C([H])(N([H])C([H])([H])[H])C([H])([H])[H])C(C([H])([H])[H])(C([H])([H])[H])C([H])([H])[H])C([H])([H])c2c([H])c(OC([H])([H])c3c(C([H])([H])[H])c(C([H])([H])[H])c(Cl)c(C([H])([H])N([H])C(=O)N4C([H])([H])C([H])([H])C([H])([H])C([H])(n5nc(-c6c([H])c([H])c(Oc7c([H])c([H])c(F)c([H])c7F)c([H])c6[H])c(C(=O)N([H])[H])c5N([H])[H])C4([H])[H])c3C([H])([H])[H])c([H])c([H])c2C1([H])[H]

$$$$
49:0:0
     RDKit          3D

 95103  0  0  1  0  0  0  0  0999 V2000
  -28.3720  -21.5210   20.8060 C   0  0  0  0  0  2  0  0  0  0  0  0
  -28.8140  -17.9030   19.3330 C   0  0  0  0  0  3  0  0  0  0  0  0
  -28.3850  -19.2450   19.5130 C   0  0  0  0  0  0  0  0  0  0  0  0
  -28.9700  -20.0820   20.5020 C   0  0  0  0  0  0  0  0  0  0  0  0
  -29.8660  -17.2780   20.0630 C   0  0  0  0  0  0  0  0  0  0  0  0
  -29.9950  -19.4660   21.2910 C   0  0  0  0  0  0  0  0  0  0  0  0
  -30.4380  -18.1070   21.0840 C   0  0  0  0  0  0  0  0  0  0  0  0
  -27.2500  -19.7480   18.6330 C   0  0  0  0  0  1  0  0  0  0  0  0
  -30.7200  -20.3980   22.5580 Cl  0  0  0  0  0  0  0  0  0  0  0  0
  -31.7010  -17.4960   22.0970 Cl  0  0  0  0  0  0  0  0  0  0  0  0
  -30.9330  -14.8800   20.2840 C   0  0  0  0  0  0  0  0  0  0  0  0
  -30.7140  -12.5670   19.3900 C   0  0  0  0  0  2  0  0  0  0  0  0
  -29.7870  -12.5400   18.1530 C   0  0  0  0  0  2  0  0  0  0  0  0
  -28.3030  -12.4670   18.5590 C   0  0  0  0  0  2  0  0  0  0  0  0
  -27.9220  -13.4110   19.7320 C   0  0  0  0  0  3  0  0  0  0  0  0
  -28.9710  -13.3800   20.8620 C   0  0  0  0  0  2  0  0  0  0  0  0
  -30.2700  -13.6780   20.2540 N   0  0  0  0  0  0  0  0  0  0  0  0
  -32.1670  -14.8960   20.2450 O   0  0  0  0  0  0  0  0  0  0  0  0
  -30.5630  -15.8730   18.1670 C   0  0  0  0  0  1  0  0  0  0  0  0
  -30.2860  -15.9160   19.6230 N   0  0  0  0  0  0  0  0  0  0  0  0
  -25.5340  -14.0200   20.4430 C   0  0  0  0  0  0  0  0  0  0  0  0
  -24.4600  -13.2530   20.8000 C   0  0  0  0  0  0  0  0  0  0  0  0
  -24.9170  -11.9000   20.7870 C   0  0  0  0  0  0  0  0  0  0  0  0
  -26.5760  -13.1350   20.2250 N   0  0  0  0  0  0  0  0  0  0  0  0
  -26.2120  -11.8560   20.5030 N   0  0  0  0  0  0  0  0  0  0  0  0
  -24.1840  -10.6390   20.9700 C   0  0  0  0  0  0  0  0  0  0  0  0
  -24.5760   -9.6920   21.9420 C   0  0  0  0  0  3  0  0  0  0  0  0
  -23.8430   -8.4980   22.1120 C   0  0  0  0  0  3  0  0  0  0  0  0
  -22.7050   -8.2430   21.3110 C   0  0  0  0  0  0  0  0  0  0  0  0
  -22.3340   -9.1790   20.3290 C   0  0  0  0  0  3  0  0  0  0  0  0
  -23.0670  -10.3650   20.1570 C   0  0  0  0  0  3  0  0  0  0  0  0
  -21.9460   -7.1000   21.3890 O   0  0  0  0  0  0  0  0  0  0  0  0
  -21.8060   -6.4090   22.5660 C   0  0  0  0  0  0  0  0  0  0  0  0
  -21.2550   -7.0060   23.7200 C   0  0  0  0  0  3  0  0  0  0  0  0
  -21.0630   -6.2400   24.8870 C   0  0  0  0  0  3  0  0  0  0  0  0
  -21.4130   -4.8760   24.8980 C   0  0  0  0  0  0  0  0  0  0  0  0
  -21.9570   -4.2780   23.7480 C   0  0  0  0  0  3  0  0  0  0  0  0
  -22.1490   -5.0420   22.5840 C   0  0  0  0  0  0  0  0  0  0  0  0
  -22.6530   -4.4560   21.4710 F   0  0  0  0  0  0  0  0  0  0  0  0
  -21.2220   -4.1360   26.0160 F   0  0  0  0  0  0  0  0  0  0  0  0
  -23.0590  -13.7370   21.0430 C   0  0  0  0  0  0  0  0  0  0  0  0
  -22.3180  -13.0520   21.9060 N   0  0  0  0  0  0  0  0  0  0  0  0
  -22.6320  -14.7570   20.5030 O   0  0  0  0  0  0  0  0  0  0  0  0
  -22.6810  -12.2300   22.3650 H   0  0  0  0  0  0  0  0  0  0  0  0
  -21.3780  -13.3550   22.1110 H   0  0  0  0  0  0  0  0  0  0  0  0
  -25.7080  -15.3890   20.2600 N   0  0  0  0  0  0  0  0  0  0  0  0
  -24.9480  -16.0500   20.3720 H   0  0  0  0  0  0  0  0  0  0  0  0
  -26.5720  -15.8220   19.9580 H   0  0  0  0  0  0  0  0  0  0  0  0
  -29.0510  -22.7660   20.2640 N   0  0  0  0  0  4  0  0  0  0  0  0
  -29.5500  -22.4670   19.4430 H   0  0  0  0  0  0  0  0  0  0  0  0
  -29.7600  -23.0470   20.9250 H   0  0  0  0  0  0  0  0  0  0  0  0
  -28.4830  -24.2670   18.3560 C   0  0  0  0  0  1  0  0  0  0  0  0
  -28.2070  -23.9750   19.8410 C   0  0  0  0  0  3  0  0  0  0  0  0
  -28.3540  -25.3160   20.7010 C   0  0  0  0  0  2  0  0  0  0  0  0
  -28.3620  -26.6400   20.0390 O   0  0  0  0  0  0  0  0  0  0  0  0
  -24.6120  -31.9150   23.2070 C   0  0  0  0  0  0  0  0  0  0  0  0
  -27.2190  -27.4380   20.0720 C   0  0  0  0  0  0  0  0  0  0  0  0
  -23.3980  -30.5370   21.5540 C   0  0  0  0  0  3  0  0  0  0  0  0
  -24.8420  -29.0110   20.0950 C   0  0  0  0  0  0  0  0  0  0  0  0
  -25.9270  -30.8830   21.3420 C   0  0  0  0  0  2  0  0  0  0  0  0
  -26.0100  -29.5120   20.6840 C   0  0  0  0  0  0  0  0  0  0  0  0
  -27.2030  -28.7390   20.6580 C   0  0  0  0  0  3  0  0  0  0  0  0
  -26.0340  -26.9770   19.4640 C   0  0  0  0  0  3  0  0  0  0  0  0
  -24.8550  -27.7510   19.4730 C   0  0  0  0  0  3  0  0  0  0  0  0
  -23.6000  -29.8780   20.1630 C   0  0  0  0  0  2  0  0  0  0  0  0
  -24.6660  -31.1270   22.0930 N   0  0  0  0  0  0  0  0  0  0  0  0
  -23.5340  -32.1770   23.7580 O   0  0  0  0  0  0  0  0  0  0  0  0
  -22.7500  -29.5030   22.5050 C   0  0  0  0  0  0  0  0  0  0  0  0
  -21.4240  -29.3220   22.3860 N   0  0  0  0  0  0  0  0  0  0  0  0
  -23.4370  -28.8670   23.3080 O   0  0  0  0  0  0  0  0  0  0  0  0
  -20.9290  -29.8820   21.7050 H   0  0  0  0  0  0  0  0  0  0  0  0
  -18.0570  -28.1090   22.9010 C   0  0  0  0  0  0  0  0  0  0  0  0
  -20.6180  -28.3690   23.1490 C   0  0  0  0  0  3  0  0  0  0  0  0
  -20.7170  -26.9500   22.5470 C   0  0  0  0  0  2  0  0  0  0  0  0
  -19.6060  -26.6420   21.5390 C   0  0  0  0  0  2  0  0  0  0  0  0
  -18.2300  -26.7730   22.1990 C   0  0  0  0  0  2  0  0  0  0  0  0
  -19.1790  -28.8650   23.3340 C   0  0  0  0  0  0  0  0  0  0  0  0
  -18.9640  -30.1160   23.9520 C   0  0  0  0  0  3  0  0  0  0  0  0
  -17.6600  -30.6110   24.1410 C   0  0  0  0  0  3  0  0  0  0  0  0
  -16.5540  -29.8520   23.7250 C   0  0  0  0  0  3  0  0  0  0  0  0
  -16.7530  -28.6030   23.1110 C   0  0  0  0  0  3  0  0  0  0  0  0
  -25.9000  -32.5410   23.8290 C   0  0  0  0  0  3  0  0  0  0  0  0
  -26.4110  -31.7690   25.1060 C   0  0  1  0  0  0  0  0  0  0  0  0
  -25.3160  -31.5370   26.1730 C   0  0  0  0  0  1  0  0  0  0  0  0
  -26.9880  -30.3880   24.7150 C   0  0  0  0  0  1  0  0  0  0  0  0
  -27.5680  -32.5560   25.7650 C   0  0  0  0  0  1  0  0  0  0  0  0
  -25.6000  -33.9410   24.1590 N   0  0  0  0  0  0  0  0  0  0  0  0
  -25.9430  -34.9920   23.4020 C   0  0  0  0  0  0  0  0  0  0  0  0
  -26.6180  -34.8830   22.3740 O   0  0  0  0  0  0  0  0  0  0  0  0
  -25.0030  -34.1020   24.9580 H   0  0  0  0  0  0  0  0  0  0  0  0
  -24.2380  -36.8030   23.0280 C   0  0  0  0  0  1  0  0  0  0  0  0
  -25.4620  -36.3850   23.8570 C   0  0  0  0  0  3  0  0  0  0  0  0
  -27.5900  -37.2480   24.7260 C   0  0  0  0  0  1  0  0  0  0  0  0
  -26.5080  -37.4270   23.7630 N   0  0  0  0  0  0  0  0  0  0  0  0
  -26.1080  -38.3520   23.9010 H   0  0  0  0  0  0  0  0  0  0  0  0
  2  3  2  0
  2  5  1  0
  3  4  1  0
  4  1  1  0
  4  6  2  0
  5  7  2  0
  6  9  1  0
  7  6  1  0
  7 10  1  0
  8  3  1  0
 12 17  1  0
 13 14  1  0
 13 12  1  0
 15 14  1  0
 15 24  1  0
 15 16  1  0
 17 11  1  0
 17 16  1  0
 18 11  2  0
 19 20  1  0
 20  5  1  0
 20 11  1  0
 21 22  2  0
 22 41  1  0
 23 22  1  0
 23 26  1  0
 24 21  1  0
 24 25  1  0
 25 23  2  0
 26 27  1  0
 27 28  2  0
 29 32  1  0
 29 28  1  0
 30 29  2  0
 31 30  1  0
 31 26  2  0
 32 33  1  0
 33 38  2  0
 33 34  1  0
 34 35  2  0
 35 36  1  0
 36 40  1  0
 37 36  2  0
 38 37  1  0
 39 38  1  0
 41 42  1  0
 42 45  1  0
 42 44  1  0
 43 41  2  0
 46 47  1  0
 46 21  1  0
 48 46  1  0
 49  1  1  0
 49 51  1  0
 50 49  1  0
 53 52  1  0
 53 49  1  0
 53 54  1  0
 55 57  1  0
 55 54  1  0
 56 67  2  0
 57 62  1  0
 58 66  1  0
 58 68  1  0
 59 65  1  0
 59 61  1  0
 60 66  1  0
 61 60  1  0
 62 61  2  0
 63 64  1  0
 63 57  2  0
 64 59  2  0
 65 58  1  0
 66 56  1  0
 68 70  2  0
 69 68  1  0
 71 69  1  0
 72 81  2  0
 72 77  1  0
 73 69  1  0
 73 77  1  0
 74 73  1  0
 75 76  1  0
 75 74  1  0
 76 72  1  0
 77 78  2  0
 78 79  1  0
 80 79  2  0
 81 80  1  0
 82 56  1  0
 82 87  1  0
 82 83  1  0
 83 86  1  1
 83 84  1  0
 85 83  1  0
 87 90  1  0
 88 92  1  0
 88 87  1  0
 89 88  2  0
 92 91  1  0
 94 92  1  0
 94 95  1  0
 94 93  1  0
M  ISO  4  11 100  20 100  54 101  55 101
M  END
>  <TORSDO>  (49) 
F 20

>  <SCORE>  (49) 
-13.256

>  <name>  (49) 
49

>  <ligand_id>  (49) 
49

>  <original_smiles>  (49) 
[H]c1c([H])c([H])c2c(c1[H])C([H])([H])C([H])([H])C([H])([H])C2([H])N([H])C(=O)C1([H])N(C(=O)C([H])(N([H])C(=O)C([H])(N([H])C([H])([H])[H])C([H])([H])[H])C(C([H])([H])[H])(C([H])([H])[H])C([H])([H])[H])C([H])([H])c2c([H])c(OC([H])([H])C([H])(C([H])([H])[H])[N+]([H])([H])C([H])([H])c3c(Cl)c(Cl)c(N(C(=O)N4C([H])([H])C([H])([H])C([H])([H])C([H])(n5nc(-c6c([H])c([H])c(Oc7c([H])c([H])c(F)c([H])c7F)c([H])c6[H])c(C(=O)N([H])[H])c5N([H])[H])C4([H])[H])C([H])([H])[H])c([H])c3C([H])([H])[H])c([H])c([H])c2C1([H])[H]

>  <smiles>  (49) 
[H]c1c([H])c([H])c2c(c1[H])C([H])([H])C([H])([H])C([H])([H])C2([H])N([H])C(=O)C1([H])N(C(=O)C([H])(N([H])C(=O)C([H])(N([H])C([H])([H])[H])C([H])([H])[H])C(C([H])([H])[H])(C([H])([H])[H])C([H])([H])[H])C([H])([H])c2c([H])c(OC([H])([H])C([H])(C([H])([H])[H])[N+]([H])([H])C([H])([H])c3c(Cl)c(Cl)c(N(C(=O)N4C([H])([H])C([H])([H])C([H])([H])C([H])(n5nc(-c6c([H])c([H])c(Oc7c([H])c([H])c(F)c([H])c7F)c([H])c6[H])c(C(=O)N([H])[H])c5N([H])[H])C4([H])[H])C([H])([H])[H])c([H])c3C([H])([H])[H])c([H])c([H])c2C1([H])[H]

$$$$
50:0:0
     RDKit          3D

 97106  0  0  1  0  0  0  0  0999 V2000
  -29.5450  -23.0050   22.7700 C   0  0  0  0  0  2  0  0  0  0  0  0
  -28.1600  -22.9900   20.5100 C   0  0  0  0  0  2  0  0  0  0  0  0
  -29.7820  -24.5230   22.5350 C   0  0  0  0  0  2  0  0  0  0  0  0
  -28.7060  -24.4140   20.3040 C   0  0  0  0  0  2  0  0  0  0  0  0
  -28.7820  -22.1860   21.6860 C   0  0  0  0  0  3  0  0  0  0  0  0
  -28.8040  -25.2750   21.5900 C   0  0  1  0  0  0  0  0  0  0  0  0
  -29.9880  -20.0610   22.3770 C   0  0  0  0  0  3  0  0  0  0  0  0
  -29.6130  -20.3920   20.0050 C   0  0  0  0  0  3  0  0  0  0  0  0
  -29.4720  -20.8560   21.3320 C   0  0  0  0  0  0  0  0  0  0  0  0
  -30.6590  -18.8450   22.1180 C   0  0  0  0  0  0  0  0  0  0  0  0
  -30.2600  -19.1630   19.7290 C   0  0  0  0  0  0  0  0  0  0  0  0
  -30.8270  -18.3940   20.7830 C   0  0  0  0  0  0  0  0  0  0  0  0
  -31.2140  -18.0660   23.2990 C   0  0  0  0  0  1  0  0  0  0  0  0
  -30.3460  -18.7090   18.2780 C   0  0  0  0  0  1  0  0  0  0  0  0
  -31.7070  -17.1700   20.4860 C   0  0  0  0  0  2  0  0  0  0  0  0
  -31.5800  -14.7730   19.8640 C   0  0  0  0  0  0  0  0  0  0  0  0
  -31.2980  -12.4060   19.2290 C   0  0  0  0  0  2  0  0  0  0  0  0
  -30.3470  -12.2740   18.0260 C   0  0  0  0  0  2  0  0  0  0  0  0
  -28.8840  -12.1910   18.4990 C   0  0  0  0  0  2  0  0  0  0  0  0
  -28.5220  -13.3010   19.5210 C   0  0  0  0  0  3  0  0  0  0  0  0
  -29.5890  -13.4100   20.6330 C   0  0  0  0  0  2  0  0  0  0  0  0
  -30.9010  -13.6010   19.9920 N   0  0  0  0  0  0  0  0  0  0  0  0
  -32.6480  -14.8510   19.2520 O   0  0  0  0  0  0  0  0  0  0  0  0
  -31.0220  -15.8700   20.4050 N   0  0  0  0  0  0  0  0  0  0  0  0
  -30.1300  -15.7750   20.8650 H   0  0  0  0  0  0  0  0  0  0  0  0
  -26.2160  -14.0370   20.3930 C   0  0  0  0  0  0  0  0  0  0  0  0
  -25.1200  -13.3240   20.7970 C   0  0  0  0  0  0  0  0  0  0  0  0
  -25.4860  -11.9460   20.6940 C   0  0  0  0  0  0  0  0  0  0  0  0
  -27.1840  -13.0990   20.0710 N   0  0  0  0  0  0  0  0  0  0  0  0
  -26.7510  -11.8340   20.3090 N   0  0  0  0  0  0  0  0  0  0  0  0
  -24.6880  -10.7280   20.8840 C   0  0  0  0  0  0  0  0  0  0  0  0
  -25.0720   -9.7300   21.8060 C   0  0  0  0  0  3  0  0  0  0  0  0
  -24.2780   -8.5770   21.9850 C   0  0  0  0  0  3  0  0  0  0  0  0
  -23.0850   -8.4140   21.2410 C   0  0  0  0  0  0  0  0  0  0  0  0
  -22.7180   -9.3990   20.3080 C   0  0  0  0  0  3  0  0  0  0  0  0
  -23.5130  -10.5450   20.1280 C   0  0  0  0  0  3  0  0  0  0  0  0
  -22.2650   -7.3150   21.3300 O   0  0  0  0  0  0  0  0  0  0  0  0
  -22.0910   -6.6400   22.5110 C   0  0  0  0  0  0  0  0  0  0  0  0
  -21.6140   -7.2830   23.6740 C   0  0  0  0  0  3  0  0  0  0  0  0
  -21.3840   -6.5360   24.8470 C   0  0  0  0  0  3  0  0  0  0  0  0
  -21.6230   -5.1490   24.8570 C   0  0  0  0  0  0  0  0  0  0  0  0
  -22.0920   -4.5060   23.7000 C   0  0  0  0  0  3  0  0  0  0  0  0
  -22.3250   -5.2490   22.5290 C   0  0  0  0  0  0  0  0  0  0  0  0
  -22.7580   -4.6220   21.4080 F   0  0  0  0  0  0  0  0  0  0  0  0
  -21.3950   -4.4300   25.9820 F   0  0  0  0  0  0  0  0  0  0  0  0
  -23.7770  -13.8810   21.1700 C   0  0  0  0  0  0  0  0  0  0  0  0
  -23.0640  -13.2120   22.0700 N   0  0  0  0  0  0  0  0  0  0  0  0
  -23.3720  -14.9430   20.6980 O   0  0  0  0  0  0  0  0  0  0  0  0
  -23.4060  -12.3520   22.4720 H   0  0  0  0  0  0  0  0  0  0  0  0
  -22.1650  -13.5670   22.3620 H   0  0  0  0  0  0  0  0  0  0  0  0
  -26.4650  -15.3990   20.2510 N   0  0  0  0  0  0  0  0  0  0  0  0
  -25.7570  -16.1010   20.4350 H   0  0  0  0  0  0  0  0  0  0  0  0
  -27.3320  -15.7920   19.9070 H   0  0  0  0  0  0  0  0  0  0  0  0
  -26.7840  -24.5770   23.2230 C   0  0  0  0  0  1  0  0  0  0  0  0
  -27.4180  -25.5860   22.2480 C   0  0  0  0  0  2  0  0  0  0  0  0
  -29.4580  -26.6550   21.2190 C   0  0  0  0  0  2  0  0  0  0  0  0
  -28.9450  -27.2720   20.0320 O   0  0  0  0  0  0  0  0  0  0  0  0
  -24.6350  -31.9430   23.3280 C   0  0  0  0  0  0  0  0  0  0  0  0
  -27.7430  -27.9350   20.1060 C   0  0  0  0  0  0  0  0  0  0  0  0
  -23.6060  -30.5510   21.5610 C   0  0  0  0  0  3  0  0  0  0  0  0
  -25.2350  -29.2300   20.1060 C   0  0  0  0  0  0  0  0  0  0  0  0
  -26.0970  -31.1260   21.4870 C   0  0  0  0  0  2  0  0  0  0  0  0
  -26.3200  -29.8050   20.7820 C   0  0  0  0  0  0  0  0  0  0  0  0
  -27.5780  -29.1590   20.7920 C   0  0  0  0  0  3  0  0  0  0  0  0
  -26.6530  -27.3840   19.4070 C   0  0  0  0  0  3  0  0  0  0  0  0
  -25.3950  -28.0150   19.4180 C   0  0  0  0  0  3  0  0  0  0  0  0
  -23.9220  -29.9780   20.1530 C   0  0  0  0  0  2  0  0  0  0  0  0
  -24.7930  -31.2190   22.1840 N   0  0  0  0  0  0  0  0  0  0  0  0
  -23.5180  -32.0930   23.8410 O   0  0  0  0  0  0  0  0  0  0  0  0
  -23.0100  -29.4220   22.4310 C   0  0  0  0  0  0  0  0  0  0  0  0
  -21.7030  -29.1620   22.2620 N   0  0  0  0  0  0  0  0  0  0  0  0
  -23.7210  -28.7860   23.2140 O   0  0  0  0  0  0  0  0  0  0  0  0
  -21.1890  -29.7360   21.6080 H   0  0  0  0  0  0  0  0  0  0  0  0
  -18.3960  -27.7510   22.6300 C   0  0  0  0  0  0  0  0  0  0  0  0
  -20.9360  -28.1190   22.9420 C   0  0  0  0  0  3  0  0  0  0  0  0
  -21.1180  -26.7500   22.2460 C   0  0  0  0  0  2  0  0  0  0  0  0
  -20.0370  -26.4580   21.2000 C   0  0  0  0  0  2  0  0  0  0  0  0
  -18.6470  -26.4740   21.8440 C   0  0  0  0  0  2  0  0  0  0  0  0
  -19.4720  -28.5310   23.1310 C   0  0  0  0  0  0  0  0  0  0  0  0
  -19.1880  -29.7270   23.8240 C   0  0  0  0  0  3  0  0  0  0  0  0
  -17.8590  -30.1470   24.0190 C   0  0  0  0  0  3  0  0  0  0  0  0
  -16.7960  -29.3630   23.5370 C   0  0  0  0  0  3  0  0  0  0  0  0
  -17.0660  -28.1660   22.8480 C   0  0  0  0  0  3  0  0  0  0  0  0
  -25.8440  -32.6340   24.0340 C   0  0  0  0  0  3  0  0  0  0  0  0
  -26.2790  -31.9140   25.3680 C   0  0  1  0  0  0  0  0  0  0  0  0
  -25.1010  -31.6310   26.3300 C   0  0  0  0  0  1  0  0  0  0  0  0
  -26.9730  -30.5660   25.0580 C   0  0  0  0  0  1  0  0  0  0  0  0
  -27.3120  -32.7870   26.1200 C   0  0  0  0  0  1  0  0  0  0  0  0
  -25.4640  -34.0280   24.2900 N   0  0  0  0  0  0  0  0  0  0  0  0
  -25.8210  -35.0680   23.5230 C   0  0  0  0  0  0  0  0  0  0  0  0
  -26.5720  -34.9560   22.5500 O   0  0  0  0  0  0  0  0  0  0  0  0
  -24.8030  -34.1860   25.0370 H   0  0  0  0  0  0  0  0  0  0  0  0
  -24.0620  -36.7800   22.9810 C   0  0  0  0  0  1  0  0  0  0  0  0
  -25.2550  -36.4510   23.8930 C   0  0  0  0  0  3  0  0  0  0  0  0
  -27.2960  -37.4380   24.8360 C   0  0  0  0  0  1  0  0  0  0  0  0
  -26.2550  -37.5370   23.8150 N   0  0  0  0  0  0  0  0  0  0  0  0
  -25.8080  -38.4450   23.9030 H   0  0  0  0  0  0  0  0  0  0  0  0
  2  5  1  0
  3  1  1  0
  4  2  1  0
  4  6  1  0
  5  9  1  0
  5  1  1  0
  6 56  1  6
  6 55  1  0
  6  3  1  0
  8  9  1  0
  9  7  2  0
 10  7  1  0
 10 13  1  0
 11  8  2  0
 11 12  1  0
 12 10  2  0
 14 11  1  0
 15 12  1  0
 16 22  1  0
 16 24  1  0
 17 22  1  0
 18 19  1  0
 18 17  1  0
 20 19  1  0
 20 29  1  0
 20 21  1  0
 22 21  1  0
 23 16  2  0
 24 15  1  0
 24 25  1  0
 26 27  2  0
 27 46  1  0
 28 27  1  0
 28 31  1  0
 29 30  1  0
 29 26  1  0
 30 28  2  0
 31 32  1  0
 32 33  2  0
 34 37  1  0
 34 33  1  0
 35 34  2  0
 36 35  1  0
 36 31  2  0
 37 38  1  0
 38 43  2  0
 38 39  1  0
 39 40  2  0
 40 41  1  0
 41 45  1  0
 42 41  2  0
 43 42  1  0
 44 43  1  0
 46 47  1  0
 47 50  1  0
 47 49  1  0
 48 46  2  0
 51 26  1  0
 51 52  1  0
 53 51  1  0
 55 54  1  0
 57 59  1  0
 57 56  1  0
 58 69  2  0
 59 64  1  0
 60 68  1  0
 60 70  1  0
 61 67  1  0
 61 63  1  0
 62 68  1  0
 63 64  2  0
 63 62  1  0
 65 66  1  0
 65 59  2  0
 66 61  2  0
 67 60  1  0
 68 58  1  0
 70 72  2  0
 71 70  1  0
 73 71  1  0
 74 83  2  0
 74 79  1  0
 75 71  1  0
 75 79  1  0
 76 75  1  0
 77 78  1  0
 77 76  1  0
 78 74  1  0
 79 80  2  0
 80 81  1  0
 82 81  2  0
 83 82  1  0
 84 58  1  0
 84 89  1  0
 84 85  1  0
 85 88  1  1
 85 86  1  0
 87 85  1  0
 89 92  1  0
 90 94  1  0
 90 89  1  0
 91 90  2  0
 94 93  1  0
 96 94  1  0
 96 97  1  0
 96 95  1  0
M  ISO  4  16 100  24 100  56 101  57 101
M  END
>  <TORSDO>  (50) 
F 20

>  <SCORE>  (50) 
-11.050

>  <name>  (50) 
50

>  <ligand_id>  (50) 
50

>  <original_smiles>  (50) 
[H]c1c([H])c([H])c2c(c1[H])C([H])([H])C([H])([H])C([H])([H])C2([H])N([H])C(=O)C1([H])N(C(=O)C([H])(N([H])C(=O)C([H])(N([H])C([H])([H])[H])C([H])([H])[H])C(C([H])([H])[H])(C([H])([H])[H])C([H])([H])[H])C([H])([H])c2c([H])c(OC([H])([H])C3(C([H])([H])C([H])([H])[H])C([H])([H])C([H])([H])C([H])(c4c([H])c(C([H])([H])[H])c(C([H])([H])N([H])C(=O)N5C([H])([H])C([H])([H])C([H])([H])C([H])(n6nc(-c7c([H])c([H])c(Oc8c([H])c([H])c(F)c([H])c8F)c([H])c7[H])c(C(=O)N([H])[H])c6N([H])[H])C5([H])[H])c(C([H])([H])[H])c4[H])C([H])([H])C3([H])[H])c([H])c([H])c2C1([H])[H]

>  <smiles>  (50) 
[H]c1c([H])c([H])c2c(c1[H])C([H])([H])C([H])([H])C([H])([H])C2([H])N([H])C(=O)C1([H])N(C(=O)C([H])(N([H])C(=O)C([H])(N([H])C([H])([H])[H])C([H])([H])[H])C(C([H])([H])[H])(C([H])([H])[H])C([H])([H])[H])C([H])([H])c2c([H])c(OC([H])([H])C3(C([H])([H])C([H])([H])[H])C([H])([H])C([H])([H])C([H])(c4c([H])c(C([H])([H])[H])c(C([H])([H])N([H])C(=O)N5C([H])([H])C([H])([H])C([H])([H])C([H])(n6nc(-c7c([H])c([H])c(Oc8c([H])c([H])c(F)c([H])c8F)c([H])c7[H])c(C(=O)N([H])[H])c6N([H])[H])C5([H])[H])c(C([H])([H])[H])c4[H])C([H])([H])C3([H])[H])c([H])c([H])c2C1([H])[H]

$$$$
51:0:0
     RDKit          3D

108117  0  0  1  0  0  0  0  0999 V2000
  -29.4150  -23.6300   11.9590 C   0  0  0  0  0  2  0  0  0  0  0  0
  -30.8580  -23.1600   11.8110 C   0  0  0  0  0  2  0  0  0  0  0  0
  -29.1900  -24.4790   13.2320 C   0  0  0  0  0  3  0  0  0  0  0  0
  -30.2520  -25.6170   13.4230 C   0  0  0  0  0  3  0  0  0  0  0  0
  -31.8000  -24.3790   11.7810 C   0  0  0  0  0  3  0  0  0  0  0  0
  -31.7500  -25.2110   13.1090 C   0  0  2  0  0  0  0  0  0  0  0  0
  -32.3900  -24.4360   14.2850 C   0  0  0  0  0  1  0  0  0  0  0  0
  -32.5900  -26.4980   12.8850 C   0  0  0  0  0  1  0  0  0  0  0  0
  -33.7250  -22.7240   11.7580 C   0  0  0  0  0  1  0  0  0  0  0  0
  -33.4190  -24.2910    9.8980 C   0  0  0  0  0  1  0  0  0  0  0  0
  -33.1950  -24.0480   11.3440 N   0  0  1  0  0  4  0  0  0  0  0  0
  -33.7710  -24.7360   11.8080 H   0  0  0  0  0  0  0  0  0  0  0  0
  -30.0630  -26.3730   14.7830 C   0  0  0  0  0  2  0  0  0  0  0  0
  -29.6370  -27.8610   14.7140 C   0  0  0  0  0  2  0  0  0  0  0  0
  -31.7900  -28.5000   15.9030 C   0  0  0  0  0  3  0  0  0  0  0  0
  -30.8780  -30.0240   14.2390 C   0  0  0  0  0  3  0  0  0  0  0  0
  -30.7930  -28.8170   14.9580 C   0  0  0  0  0  0  0  0  0  0  0  0
  -32.8790  -29.3720   16.1280 C   0  0  0  0  0  0  0  0  0  0  0  0
  -31.9570  -30.9040   14.4520 C   0  0  0  0  0  0  0  0  0  0  0  0
  -32.9650  -30.5800   15.3900 C   0  0  0  0  0  0  0  0  0  0  0  0
  -32.0270  -32.3730   13.5420 Cl  0  0  0  0  0  0  0  0  0  0  0  0
  -34.3060  -31.6570   15.6100 Cl  0  0  0  0  0  0  0  0  0  0  0  0
  -33.9570  -28.9610   17.1270 C   0  0  0  0  0  2  0  0  0  0  0  0
  -34.1190  -26.5010   17.5680 C   0  0  0  0  0  0  0  0  0  0  0  0
  -34.1600  -24.1380   18.2850 C   0  0  0  0  0  2  0  0  0  0  0  0
  -32.9780  -23.3480   17.6960 C   0  0  0  0  0  2  0  0  0  0  0  0
  -31.7290  -23.4820   18.5890 C   0  0  0  0  0  2  0  0  0  0  0  0
  -31.4180  -24.9560   18.9570 C   0  0  0  0  0  3  0  0  0  0  0  0
  -32.6870  -25.6680   19.4730 C   0  0  0  0  0  2  0  0  0  0  0  0
  -33.7440  -25.5390   18.4500 N   0  0  0  0  0  0  0  0  0  0  0  0
  -34.8550  -26.2880   16.6000 O   0  0  0  0  0  0  0  0  0  0  0  0
  -33.6650  -27.7260   17.8500 N   0  0  0  0  0  0  0  0  0  0  0  0
  -33.0750  -27.8110   18.6650 H   0  0  0  0  0  0  0  0  0  0  0  0
  -30.2940  -25.6410   21.1720 C   0  0  0  0  0  0  0  0  0  0  0  0
  -29.0100  -25.5030   21.6260 C   0  0  0  0  0  0  0  0  0  0  0  0
  -28.2980  -24.8170   20.5950 C   0  0  0  0  0  0  0  0  0  0  0  0
  -30.3210  -25.0450   19.9200 N   0  0  0  0  0  0  0  0  0  0  0  0
  -29.1170  -24.5030   19.6000 N   0  0  0  0  0  0  0  0  0  0  0  0
  -26.8710  -24.4920   20.4730 C   0  0  0  0  0  0  0  0  0  0  0  0
  -26.4200  -23.4520   19.6300 C   0  0  0  0  0  3  0  0  0  0  0  0
  -25.0450  -23.1470   19.5420 C   0  0  0  0  0  3  0  0  0  0  0  0
  -24.1050  -23.8820   20.3030 C   0  0  0  0  0  0  0  0  0  0  0  0
  -24.5570  -24.9300   21.1240 C   0  0  0  0  0  3  0  0  0  0  0  0
  -25.9260  -25.2360   21.2050 C   0  0  0  0  0  3  0  0  0  0  0  0
  -22.7480  -23.6730   20.2620 O   0  0  0  0  0  0  0  0  0  0  0  0
  -22.0590  -23.6390   19.0760 C   0  0  0  0  0  0  0  0  0  0  0  0
  -22.6560  -23.1790   17.8820 C   0  0  0  0  0  3  0  0  0  0  0  0
  -21.8920  -23.0950   16.7010 C   0  0  0  0  0  3  0  0  0  0  0  0
  -20.5320  -23.4620   16.7130 C   0  0  0  0  0  0  0  0  0  0  0  0
  -19.9360  -23.9170   17.9030 C   0  0  0  0  0  3  0  0  0  0  0  0
  -20.6980  -24.0020   19.0810 C   0  0  0  0  0  0  0  0  0  0  0  0
  -20.1130  -24.4200   20.2290 F   0  0  0  0  0  0  0  0  0  0  0  0
  -19.7950  -23.3750   15.5810 F   0  0  0  0  0  0  0  0  0  0  0  0
  -28.4490  -26.0570   22.9050 C   0  0  0  0  0  0  0  0  0  0  0  0
  -27.2560  -25.6180   23.2920 N   0  0  0  0  0  0  0  0  0  0  0  0
  -29.0870  -26.8510   23.5940 O   0  0  0  0  0  0  0  0  0  0  0  0
  -26.7410  -24.9500   22.7380 H   0  0  0  0  0  0  0  0  0  0  0  0
  -26.8540  -25.9510   24.1560 H   0  0  0  0  0  0  0  0  0  0  0  0
  -31.4310  -26.2370   21.7070 N   0  0  0  0  0  0  0  0  0  0  0  0
  -31.4320  -26.6940   22.6110 H   0  0  0  0  0  0  0  0  0  0  0  0
  -32.3370  -26.2460   21.2570 H   0  0  0  0  0  0  0  0  0  0  0  0
  -27.7230  -24.9960   13.2650 C   0  0  0  0  0  2  0  0  0  0  0  0
  -28.5290  -26.7850   11.8960 C   0  0  0  0  0  0  0  0  0  0  0  0
  -28.3680  -28.1850   11.3420 C   0  0  0  0  0  1  0  0  0  0  0  0
  -27.6170  -26.3150   12.6540 N   0  0  0  0  0  0  0  0  0  0  0  0
  -29.8010  -26.0650   11.4490 C   0  0  0  0  0  2  0  0  0  0  0  0
  -30.6820  -26.9530   10.5540 C   0  0  0  0  0  2  0  0  0  0  0  0
  -30.0300  -27.1720    9.2980 O   0  0  0  0  0  0  0  0  0  0  0  0
  -26.1130  -21.7490    6.9750 C   0  0  0  0  0  0  0  0  0  0  0  0
  -29.9400  -26.1950    8.3280 C   0  0  0  0  0  0  0  0  0  0  0  0
  -28.3380  -21.9770    5.9170 C   0  0  0  0  0  3  0  0  0  0  0  0
  -29.5750  -24.1520    6.4000 C   0  0  0  0  0  0  0  0  0  0  0  0
  -27.1210  -24.0230    6.8510 C   0  0  0  0  0  2  0  0  0  0  0  0
  -28.4800  -24.6300    7.1270 C   0  0  0  0  0  0  0  0  0  0  0  0
  -28.6600  -25.6450    8.0900 C   0  0  0  0  0  3  0  0  0  0  0  0
  -31.0370  -25.6960    7.5850 C   0  0  0  0  0  3  0  0  0  0  0  0
  -30.8570  -24.6800    6.6280 C   0  0  0  0  0  3  0  0  0  0  0  0
  -29.3050  -23.0670    5.3830 C   0  0  0  0  0  2  0  0  0  0  0  0
  -27.1520  -22.5600    6.6240 N   0  0  0  0  0  0  0  0  0  0  0  0
  -26.1150  -20.5450    6.6840 O   0  0  0  0  0  0  0  0  0  0  0  0
  -29.1420  -20.9860    6.7880 C   0  0  0  0  0  0  0  0  0  0  0  0
  -30.0550  -20.2350    6.1500 N   0  0  0  0  0  0  0  0  0  0  0  0
  -28.9600  -20.9210    8.0060 O   0  0  0  0  0  0  0  0  0  0  0  0
  -30.1380  -20.3410    5.1490 H   0  0  0  0  0  0  0  0  0  0  0  0
  -33.1090  -18.3700    5.6580 C   0  0  0  0  0  0  0  0  0  0  0  0
  -30.9520  -19.2600    6.7690 C   0  0  0  0  0  3  0  0  0  0  0  0
  -31.8840  -19.9380    7.8000 C   0  0  0  0  0  2  0  0  0  0  0  0
  -33.2290  -20.3690    7.2050 C   0  0  0  0  0  2  0  0  0  0  0  0
  -33.9710  -19.1610    6.6270 C   0  0  0  0  0  2  0  0  0  0  0  0
  -31.6920  -18.4280    5.7160 C   0  0  0  0  0  0  0  0  0  0  0  0
  -30.9370  -17.7010    4.7690 C   0  0  0  0  0  3  0  0  0  0  0  0
  -31.5750  -16.9240    3.7830 C   0  0  0  0  0  3  0  0  0  0  0  0
  -32.9780  -16.8580    3.7420 C   0  0  0  0  0  3  0  0  0  0  0  0
  -33.7410  -17.5740    4.6800 C   0  0  0  0  0  3  0  0  0  0  0  0
  -24.8670  -22.2980    7.7360 C   0  0  0  0  0  3  0  0  0  0  0  0
  -25.0190  -22.2370    9.3060 C   0  0  1  0  0  0  0  0  0  0  0  0
  -25.4640  -20.8550    9.8340 C   0  0  0  0  0  1  0  0  0  0  0  0
  -26.0460  -23.2840    9.7960 C   0  0  0  0  0  1  0  0  0  0  0  0
  -23.6710  -22.5930    9.9770 C   0  0  0  0  0  1  0  0  0  0  0  0
  -23.7020  -21.5200    7.2960 N   0  0  0  0  0  0  0  0  0  0  0  0
  -23.2560  -21.4680    6.0330 C   0  0  0  0  0  0  0  0  0  0  0  0
  -23.7480  -22.1380    5.1210 O   0  0  0  0  0  0  0  0  0  0  0  0
  -23.2830  -20.9060    7.9780 H   0  0  0  0  0  0  0  0  0  0  0  0
  -22.5720  -19.3280    4.9060 C   0  0  0  0  0  1  0  0  0  0  0  0
  -22.0770  -20.5230    5.7360 C   0  0  0  0  0  3  0  0  0  0  0  0
  -19.6730  -21.0170    5.7170 C   0  0  0  0  0  1  0  0  0  0  0  0
  -20.9540  -21.1840    5.0370 N   0  0  0  0  0  0  0  0  0  0  0  0
  -20.8590  -20.8260    4.0900 H   0  0  0  0  0  0  0  0  0  0  0  0
  1  3  1  0
  2  1  1  0
  3 62  1  0
  3  4  1  0
  4 13  1  0
  5 11  1  0
  5  2  1  0
  5  6  1  0
  6  4  1  0
  6  7  1  1
  8  6  1  0
 10 11  1  0
 11  9  1  0
 11 12  1  1
 14 13  1  0
 14 17  1  0
 15 18  1  0
 16 19  2  0
 16 17  1  0
 17 15  2  0
 18 23  1  0
 19 20  1  0
 20 22  1  0
 20 18  2  0
 21 19  1  0
 23 32  1  0
 24 32  1  0
 24 30  1  0
 25 30  1  0
 26 25  1  0
 26 27  1  0
 28 27  1  0
 28 29  1  0
 28 37  1  0
 30 29  1  0
 31 24  2  0
 32 33  1  0
 34 35  2  0
 34 59  1  0
 35 54  1  0
 36 35  1  0
 37 34  1  0
 38 37  1  0
 38 36  2  0
 39 36  1  0
 39 44  1  0
 40 39  2  0
 41 40  1  0
 41 42  2  0
 42 43  1  0
 43 44  2  0
 45 42  1  0
 46 51  1  0
 46 45  1  0
 47 46  2  0
 48 49  2  0
 48 47  1  0
 49 50  1  0
 50 51  2  0
 51 52  1  0
 53 49  1  0
 54 55  1  0
 54 56  2  0
 55 58  1  0
 57 55  1  0
 59 60  1  0
 61 59  1  0
 63 65  2  0
 64 63  1  0
 65 62  1  0
 66 63  1  0
 67 66  1  0
 68 67  1  0
 70 68  1  0
 71 79  1  0
 71 81  1  0
 72 77  2  0
 72 74  1  0
 73 74  1  0
 74 75  2  0
 75 70  1  0
 76 70  2  0
 77 76  1  0
 78 71  1  0
 78 72  1  0
 79 73  1  0
 79 69  1  0
 80 69  2  0
 81 83  2  0
 82 81  1  0
 84 82  1  0
 85 90  1  0
 85 89  1  0
 86 82  1  0
 86 87  1  0
 88 87  1  0
 89 88  1  0
 90 86  1  0
 91 90  2  0
 92 91  1  0
 93 92  2  0
 93 94  1  0
 94 85  2  0
 95 69  1  0
 95 96  1  0
 96 98  1  1
 96 97  1  0
 96 99  1  0
100 95  1  0
100103  1  0
101100  1  0
102101  2  0
105104  1  0
105101  1  0
107106  1  0
107105  1  0
108107  1  0
M  ISO  4  24 100  32 100  67 101  68 101
M  END
>  <TORSDO>  (51) 
F 25

>  <SCORE>  (51) 
-3.216

>  <name>  (51) 
51

>  <ligand_id>  (51) 
51

>  <original_smiles>  (51) 
[H]c1c([H])c([H])c2c(c1[H])C([H])([H])C([H])([H])C([H])([H])C2([H])N([H])C(=O)C1([H])N(C(=O)C([H])(N([H])C(=O)C([H])(N([H])C([H])([H])[H])C([H])([H])[H])C(C([H])([H])[H])(C([H])([H])[H])C([H])([H])[H])C([H])([H])c2c([H])c(OC([H])([H])C([H])([H])C(=NC([H])([H])C3([H])C([H])([H])C([H])([H])C([H])([N+]([H])(C([H])([H])[H])C([H])([H])[H])C(C([H])([H])[H])(C([H])([H])[H])C3([H])C([H])([H])C([H])([H])c3c([H])c(Cl)c(Cl)c(C([H])([H])N([H])C(=O)N4C([H])([H])C([H])([H])C([H])([H])C([H])(n5nc(-c6c([H])c([H])c(Oc7c([H])c([H])c(F)c([H])c7F)c([H])c6[H])c(C(=O)N([H])[H])c5N([H])[H])C4([H])[H])c3[H])C([H])([H])[H])c([H])c([H])c2C1([H])[H]

>  <smiles>  (51) 
[H]c1c([H])c([H])c2c(c1[H])C([H])([H])C([H])([H])C([H])([H])C2([H])N([H])C(=O)C1([H])N(C(=O)C([H])(N([H])C(=O)C([H])(N([H])C([H])([H])[H])C([H])([H])[H])C(C([H])([H])[H])(C([H])([H])[H])C([H])([H])[H])C([H])([H])c2c([H])c(OC([H])([H])C([H])([H])C(=NC([H])([H])C3([H])C([H])([H])C([H])([H])C([H])([N+]([H])(C([H])([H])[H])C([H])([H])[H])C(C([H])([H])[H])(C([H])([H])[H])C3([H])C([H])([H])C([H])([H])c3c([H])c(Cl)c(Cl)c(C([H])([H])N([H])C(=O)N4C([H])([H])C([H])([H])C([H])([H])C([H])(n5nc(-c6c([H])c([H])c(Oc7c([H])c([H])c(F)c([H])c7F)c([H])c6[H])c(C(=O)N([H])[H])c5N([H])[H])C4([H])[H])c3[H])C([H])([H])[H])c([H])c([H])c2C1([H])[H]

$$$$
52:0:0
     RDKit          3D

 93101  0  0  1  0  0  0  0  0999 V2000
  -31.3360  -18.5040   22.5620 C   0  0  0  0  0  3  0  0  0  0  0  0
  -30.9690  -19.5860   21.7360 C   0  0  0  0  0  0  0  0  0  0  0  0
  -30.9610  -17.1830   22.2550 C   0  0  0  0  0  0  0  0  0  0  0  0
  -30.1570  -19.3690   20.5860 C   0  0  0  0  0  0  0  0  0  0  0  0
  -30.1860  -16.9300   21.1000 C   0  0  0  0  0  0  0  0  0  0  0  0
  -29.7560  -18.0240   20.2900 C   0  0  0  0  0  0  0  0  0  0  0  0
  -31.4910  -20.9600   22.1310 C   0  0  0  0  0  1  0  0  0  0  0  0
  -31.3940  -16.0620   23.1870 C   0  0  0  0  0  1  0  0  0  0  0  0
  -28.7460  -17.6840   18.9220 Cl  0  0  0  0  0  0  0  0  0  0  0  0
  -30.4680  -14.6430   20.1510 C   0  0  0  0  0  0  0  0  0  0  0  0
  -30.1390  -12.5440   18.8860 C   0  0  0  0  0  2  0  0  0  0  0  0
  -29.1140  -12.7990   17.7610 C   0  0  0  0  0  2  0  0  0  0  0  0
  -27.6700  -12.6260   18.2730 C   0  0  0  0  0  2  0  0  0  0  0  0
  -27.4130  -13.3760   19.6080 C   0  0  0  0  0  3  0  0  0  0  0  0
  -28.5410  -13.0890   20.6260 C   0  0  0  0  0  2  0  0  0  0  0  0
  -29.8170  -13.4580   19.9920 N   0  0  0  0  0  0  0  0  0  0  0  0
  -31.5590  -14.8800   19.6210 O   0  0  0  0  0  0  0  0  0  0  0  0
  -29.7720  -15.5900   20.8120 N   0  0  0  0  0  0  0  0  0  0  0  0
  -28.8360  -15.3390   21.0920 H   0  0  0  0  0  0  0  0  0  0  0  0
  -25.0560  -13.9220   20.4830 C   0  0  0  0  0  0  0  0  0  0  0  0
  -24.0220  -13.1190   20.8890 C   0  0  0  0  0  0  0  0  0  0  0  0
  -24.4970  -11.7760   20.7780 C   0  0  0  0  0  0  0  0  0  0  0  0
  -26.0940  -13.0640   20.1560 N   0  0  0  0  0  0  0  0  0  0  0  0
  -25.7640  -11.7670   20.3870 N   0  0  0  0  0  0  0  0  0  0  0  0
  -23.7990  -10.4980   20.9670 C   0  0  0  0  0  0  0  0  0  0  0  0
  -24.2520   -9.5410   21.9020 C   0  0  0  0  0  3  0  0  0  0  0  0
  -23.5540   -8.3270   22.0770 C   0  0  0  0  0  3  0  0  0  0  0  0
  -22.3900   -8.0600   21.3160 C   0  0  0  0  0  0  0  0  0  0  0  0
  -21.9580   -9.0080   20.3710 C   0  0  0  0  0  3  0  0  0  0  0  0
  -22.6560  -10.2140   20.1950 C   0  0  0  0  0  3  0  0  0  0  0  0
  -21.6620   -6.8990   21.4010 O   0  0  0  0  0  0  0  0  0  0  0  0
  -21.5690   -6.1920   22.5730 C   0  0  0  0  0  0  0  0  0  0  0  0
  -21.0370   -6.7630   23.7480 C   0  0  0  0  0  3  0  0  0  0  0  0
  -20.8970   -5.9810   24.9110 C   0  0  0  0  0  3  0  0  0  0  0  0
  -21.2790   -4.6240   24.8990 C   0  0  0  0  0  0  0  0  0  0  0  0
  -21.8020   -4.0510   23.7270 C   0  0  0  0  0  3  0  0  0  0  0  0
  -21.9450   -4.8330   22.5670 C   0  0  0  0  0  0  0  0  0  0  0  0
  -22.4320   -4.2700   21.4350 F   0  0  0  0  0  0  0  0  0  0  0  0
  -21.1360   -3.8690   26.0130 F   0  0  0  0  0  0  0  0  0  0  0  0
  -22.6400  -13.5650   21.2670 C   0  0  0  0  0  0  0  0  0  0  0  0
  -21.9720  -12.8170   22.1390 N   0  0  0  0  0  0  0  0  0  0  0  0
  -22.1610  -14.6090   20.8250 O   0  0  0  0  0  0  0  0  0  0  0  0
  -22.3750  -11.9710   22.5150 H   0  0  0  0  0  0  0  0  0  0  0  0
  -21.0470  -13.0930   22.4350 H   0  0  0  0  0  0  0  0  0  0  0  0
  -25.1920  -15.3010   20.3490 N   0  0  0  0  0  0  0  0  0  0  0  0
  -24.4240  -15.9360   20.5350 H   0  0  0  0  0  0  0  0  0  0  0  0
  -26.0130  -15.7660   19.9810 H   0  0  0  0  0  0  0  0  0  0  0  0
  -29.8250  -20.5530   19.6370 C   0  0  0  0  0  2  0  0  0  0  0  0
  -28.9070  -21.6990   20.1830 C   0  0  0  0  0  2  0  0  0  0  0  0
  -29.0430  -23.0430   19.3960 C   0  0  0  0  0  2  0  0  0  0  0  0
  -28.3520  -24.3000   20.0180 C   0  0  0  0  0  2  0  0  0  0  0  0
  -28.6480  -25.6230   19.2460 C   0  0  0  0  0  2  0  0  0  0  0  0
  -28.4500  -26.8420   19.9910 O   0  0  0  0  0  0  0  0  0  0  0  0
  -24.5870  -31.8710   23.2250 C   0  0  0  0  0  0  0  0  0  0  0  0
  -27.2460  -27.5290   19.9870 C   0  0  0  0  0  0  0  0  0  0  0  0
  -23.3780  -30.5100   21.5480 C   0  0  0  0  0  3  0  0  0  0  0  0
  -24.8310  -29.0230   20.0640 C   0  0  0  0  0  0  0  0  0  0  0  0
  -25.8980  -30.8910   21.3410 C   0  0  0  0  0  2  0  0  0  0  0  0
  -25.9870  -29.5370   20.6610 C   0  0  0  0  0  0  0  0  0  0  0  0
  -27.1910  -28.7950   20.6230 C   0  0  0  0  0  3  0  0  0  0  0  0
  -26.0670  -27.0290   19.3910 C   0  0  0  0  0  3  0  0  0  0  0  0
  -24.8660  -27.7690   19.4270 C   0  0  0  0  0  3  0  0  0  0  0  0
  -23.5800  -29.8680   20.1480 C   0  0  0  0  0  2  0  0  0  0  0  0
  -24.6400  -31.1060   22.0970 N   0  0  0  0  0  0  0  0  0  0  0  0
  -23.5080  -32.1180   23.7820 O   0  0  0  0  0  0  0  0  0  0  0  0
  -22.7420  -29.4580   22.4850 C   0  0  0  0  0  0  0  0  0  0  0  0
  -21.4240  -29.2450   22.3370 N   0  0  0  0  0  0  0  0  0  0  0  0
  -23.4310  -28.8370   23.2980 O   0  0  0  0  0  0  0  0  0  0  0  0
  -20.9290  -29.8000   21.6530 H   0  0  0  0  0  0  0  0  0  0  0  0
  -18.0790  -27.9420   22.7580 C   0  0  0  0  0  0  0  0  0  0  0  0
  -20.6230  -28.2730   23.0800 C   0  0  0  0  0  3  0  0  0  0  0  0
  -20.7780  -26.8550   22.4850 C   0  0  0  0  0  2  0  0  0  0  0  0
  -19.7030  -26.5140   21.4460 C   0  0  0  0  0  2  0  0  0  0  0  0
  -18.3070  -26.6090   22.0670 C   0  0  0  0  0  2  0  0  0  0  0  0
  -19.1670  -28.7310   23.2190 C   0  0  0  0  0  0  0  0  0  0  0  0
  -18.8980  -29.9790   23.8220 C   0  0  0  0  0  3  0  0  0  0  0  0
  -17.5760  -30.4390   23.9680 C   0  0  0  0  0  3  0  0  0  0  0  0
  -16.5030  -29.6470   23.5220 C   0  0  0  0  0  3  0  0  0  0  0  0
  -16.7550  -28.3990   22.9260 C   0  0  0  0  0  3  0  0  0  0  0  0
  -25.8740  -32.4910   23.8550 C   0  0  0  0  0  3  0  0  0  0  0  0
  -25.5720  -33.8870   24.1970 N   0  0  0  0  0  0  0  0  0  0  0  0
  -25.9250  -34.9460   23.4560 C   0  0  0  0  0  0  0  0  0  0  0  0
  -26.6130  -34.8510   22.4350 O   0  0  0  0  0  0  0  0  0  0  0  0
  -24.9740  -34.0370   24.9950 H   0  0  0  0  0  0  0  0  0  0  0  0
  -24.2250  -36.7600   23.0790 C   0  0  0  0  0  1  0  0  0  0  0  0
  -25.4390  -36.3320   23.9190 C   0  0  0  0  0  3  0  0  0  0  0  0
  -27.5540  -37.1870   24.8280 C   0  0  0  0  0  1  0  0  0  0  0  0
  -26.4850  -37.3770   23.8510 N   0  0  0  0  0  0  0  0  0  0  0  0
  -26.0820  -38.2980   23.9980 H   0  0  0  0  0  0  0  0  0  0  0  0
  -26.3900  -31.7060   25.1230 C   0  0  1  0  0  0  0  0  0  0  0  0
  -25.2890  -31.4310   26.1740 C   0  0  0  0  0  1  0  0  0  0  0  0
  -26.9980  -30.3450   24.7110 C   0  0  0  0  0  1  0  0  0  0  0  0
  -27.5200  -32.5060   25.8130 C   0  0  0  0  0  1  0  0  0  0  0  0
  2  7  1  0
  2  1  2  0
  3  1  1  0
  3  8  1  0
  4  2  1  0
  5  3  2  0
  6  4  2  0
  6  5  1  0
  9  6  1  0
 10 18  1  0
 11 16  1  0
 12 13  1  0
 12 11  1  0
 14 13  1  0
 14 23  1  0
 14 15  1  0
 16 10  1  0
 16 15  1  0
 17 10  2  0
 18 19  1  0
 18  5  1  0
 20 21  2  0
 21 40  1  0
 22 21  1  0
 22 25  1  0
 23 24  1  0
 23 20  1  0
 24 22  2  0
 25 26  1  0
 26 27  2  0
 28 31  1  0
 28 27  1  0
 29 28  2  0
 30 29  1  0
 30 25  2  0
 31 32  1  0
 32 33  1  0
 33 34  2  0
 35 34  1  0
 35 39  1  0
 36 35  2  0
 37 32  2  0
 37 36  1  0
 38 37  1  0
 40 41  1  0
 41 44  1  0
 41 43  1  0
 42 40  2  0
 45 20  1  0
 45 46  1  0
 47 45  1  0
 48 49  1  0
 48  4  1  0
 50 51  1  0
 50 49  1  0
 52 53  1  0
 52 51  1  0
 54 65  2  0
 55 53  1  0
 55 60  1  0
 56 64  1  0
 56 66  1  0
 57 63  1  0
 57 59  1  0
 58 64  1  0
 59 58  1  0
 60 59  2  0
 61 62  1  0
 61 55  2  0
 62 57  2  0
 63 56  1  0
 64 54  1  0
 66 68  2  0
 67 66  1  0
 69 67  1  0
 70 79  2  0
 70 75  1  0
 71 67  1  0
 71 75  1  0
 72 71  1  0
 73 74  1  0
 73 72  1  0
 74 70  1  0
 75 76  2  0
 76 77  1  0
 78 77  2  0
 79 78  1  0
 80 54  1  0
 80 81  1  0
 80 90  1  0
 81 84  1  0
 82 86  1  0
 82 81  1  0
 83 82  2  0
 86 85  1  0
 88 86  1  0
 88 89  1  0
 88 87  1  0
 90 93  1  1
 90 91  1  0
 92 90  1  0
M  ISO  4  10 100  18 100  52 101  53 101
M  END
>  <TORSDO>  (52) 
F 21

>  <SCORE>  (52) 
-11.847

>  <name>  (52) 
52

>  <ligand_id>  (52) 
52

>  <original_smiles>  (52) 
[H]c1c([H])c([H])c2c(c1[H])C([H])([H])C([H])([H])C([H])([H])C2([H])N([H])C(=O)C1([H])N(C(=O)C([H])(N([H])C(=O)C([H])(N([H])C([H])([H])[H])C([H])([H])[H])C(C([H])([H])[H])(C([H])([H])[H])C([H])([H])[H])C([H])([H])c2c([H])c(OC([H])([H])C([H])([H])C([H])([H])C([H])([H])C([H])([H])c3c(Cl)c(N([H])C(=O)N4C([H])([H])C([H])([H])C([H])([H])C([H])(n5nc(-c6c([H])c([H])c(Oc7c([H])c([H])c(F)c([H])c7F)c([H])c6[H])c(C(=O)N([H])[H])c5N([H])[H])C4([H])[H])c(C([H])([H])[H])c([H])c3C([H])([H])[H])c([H])c([H])c2C1([H])[H]

>  <smiles>  (52) 
[H]c1c([H])c([H])c2c(c1[H])C([H])([H])C([H])([H])C([H])([H])C2([H])N([H])C(=O)C1([H])N(C(=O)C([H])(N([H])C(=O)C([H])(N([H])C([H])([H])[H])C([H])([H])[H])C(C([H])([H])[H])(C([H])([H])[H])C([H])([H])[H])C([H])([H])c2c([H])c(OC([H])([H])C([H])([H])C([H])([H])C([H])([H])C([H])([H])c3c(Cl)c(N([H])C(=O)N4C([H])([H])C([H])([H])C([H])([H])C([H])(n5nc(-c6c([H])c([H])c(Oc7c([H])c([H])c(F)c([H])c7F)c([H])c6[H])c(C(=O)N([H])[H])c5N([H])[H])C4([H])[H])c(C([H])([H])[H])c([H])c3C([H])([H])[H])c([H])c([H])c2C1([H])[H]

$$$$
53:0:0
     RDKit          3D

 90 98  0  0  1  0  0  0  0  0999 V2000
  -27.5990  -20.3510   20.6800 C   0  0  0  0  0  3  0  0  0  0  0  0
  -29.7060  -20.6940   19.1190 C   0  0  0  0  0  3  0  0  0  0  0  0
  -27.7930  -21.6910   20.2180 C   0  0  0  0  0  0  0  0  0  0  0  0
  -28.3840  -19.1790   20.4180 C   0  0  0  0  0  0  0  0  0  0  0  0
  -28.9130  -22.1030   19.4480 C   0  0  0  0  0  0  0  0  0  0  0  0
  -29.5030  -19.1170   19.5340 C   0  0  0  0  0  0  0  0  0  0  0  0
  -26.7540  -22.7140   20.6520 C   0  0  0  0  0  1  0  0  0  0  0  0
  -27.9490  -17.9130   21.1370 C   0  0  0  0  0  1  0  0  0  0  0  0
  -30.7190  -16.0700   19.3330 C   0  0  0  0  0  0  0  0  0  0  0  0
  -30.8430  -13.4680   18.5770 C   0  0  0  0  0  2  0  0  0  0  0  0
  -29.8550  -12.8930   17.5170 C   0  0  0  0  0  2  0  0  0  0  0  0
  -28.5110  -12.5020   18.1530 C   0  0  0  0  0  2  0  0  0  0  0  0
  -28.0640  -13.5530   19.1930 C   0  0  0  0  0  3  0  0  0  0  0  0
  -29.1930  -14.0070   20.1490 C   0  0  0  0  0  2  0  0  0  0  0  0
  -30.2270  -14.6750   19.3100 N   0  0  0  0  0  0  0  0  0  0  0  0
  -31.9550  -15.9980   19.1680 O   0  0  0  0  0  0  0  0  0  0  0  0
  -29.9070  -17.4280   19.1580 N   0  0  0  0  0  0  0  0  0  0  0  0
  -29.0160  -17.0250   18.9100 H   0  0  0  0  0  0  0  0  0  0  0  0
  -25.8530  -14.0680   20.3270 C   0  0  0  0  0  0  0  0  0  0  0  0
  -24.8340  -13.2890   20.7900 C   0  0  0  0  0  0  0  0  0  0  0  0
  -25.2480  -11.9370   20.5880 C   0  0  0  0  0  0  0  0  0  0  0  0
  -26.8270  -13.1980   19.8760 N   0  0  0  0  0  0  0  0  0  0  0  0
  -26.4840  -11.9000   20.0950 N   0  0  0  0  0  0  0  0  0  0  0  0
  -24.5050  -10.6840   20.7770 C   0  0  0  0  0  0  0  0  0  0  0  0
  -24.9030   -9.7250   21.7330 C   0  0  0  0  0  3  0  0  0  0  0  0
  -24.1550   -8.5400   21.9130 C   0  0  0  0  0  3  0  0  0  0  0  0
  -22.9950   -8.3080   21.1370 C   0  0  0  0  0  0  0  0  0  0  0  0
  -22.6160   -9.2570   20.1710 C   0  0  0  0  0  3  0  0  0  0  0  0
  -23.3640  -10.4310   19.9890 C   0  0  0  0  0  3  0  0  0  0  0  0
  -22.2220   -7.1750   21.2250 O   0  0  0  0  0  0  0  0  0  0  0  0
  -21.9660   -6.5710   22.4290 C   0  0  0  0  0  0  0  0  0  0  0  0
  -21.3190   -7.2530   23.4820 C   0  0  0  0  0  3  0  0  0  0  0  0
  -21.0120   -6.5740   24.6780 C   0  0  0  0  0  3  0  0  0  0  0  0
  -21.3430   -5.2140   24.8200 C   0  0  0  0  0  0  0  0  0  0  0  0
  -21.9840   -4.5310   23.7710 C   0  0  0  0  0  3  0  0  0  0  0  0
  -22.2910   -5.2080   22.5780 C   0  0  0  0  0  0  0  0  0  0  0  0
  -22.8890   -4.5390   21.5630 F   0  0  0  0  0  0  0  0  0  0  0  0
  -21.0420   -4.5590   25.9670 F   0  0  0  0  0  0  0  0  0  0  0  0
  -23.5050  -13.7810   21.2830 C   0  0  0  0  0  0  0  0  0  0  0  0
  -22.8810  -13.0470   22.1960 N   0  0  0  0  0  0  0  0  0  0  0  0
  -23.0370  -14.8510   20.8960 O   0  0  0  0  0  0  0  0  0  0  0  0
  -23.2770  -12.1820   22.5300 H   0  0  0  0  0  0  0  0  0  0  0  0
  -21.9950  -13.3580   22.5690 H   0  0  0  0  0  0  0  0  0  0  0  0
  -26.0120  -15.4420   20.2110 N   0  0  0  0  0  0  0  0  0  0  0  0
  -25.2580  -16.0800   20.4410 H   0  0  0  0  0  0  0  0  0  0  0  0
  -26.7570  -15.8800   19.6900 H   0  0  0  0  0  0  0  0  0  0  0  0
  -29.9650  -24.2960   20.6880 C   0  0  0  0  0  1  0  0  0  0  0  0
  -30.1960  -24.0910   18.2220 C   0  0  0  0  0  1  0  0  0  0  0  0
  -29.2010  -23.9930   19.3880 C   0  0  1  0  0  0  0  0  0  0  0  0
  -28.5230  -25.6620   19.1280 O   0  0  0  0  0  0  0  0  0  0  0  0
  -24.8030  -31.5790   22.8860 C   0  0  0  0  0  0  0  0  0  0  0  0
  -27.4630  -26.7830   19.4610 C   0  0  0  0  0  0  0  0  0  0  0  0
  -23.6290  -30.2480   21.1880 C   0  0  0  0  0  3  0  0  0  0  0  0
  -25.1030  -28.7590   19.6300 C   0  0  0  0  0  0  0  0  0  0  0  0
  -26.1990  -30.5020   21.0020 C   0  0  0  0  0  2  0  0  0  0  0  0
  -26.3080  -29.1100   20.2500 C   0  0  0  0  0  0  0  0  0  0  0  0
  -27.4700  -28.1620   20.1230 C   0  0  0  0  0  3  0  0  0  0  0  0
  -26.2040  -26.6700   18.8090 C   0  0  0  0  0  3  0  0  0  0  0  0
  -25.0910  -27.5680   18.8870 C   0  0  0  0  0  3  0  0  0  0  0  0
  -23.8600  -29.6590   19.7680 C   0  0  0  0  0  2  0  0  0  0  0  0
  -24.9030  -30.8090   21.7460 N   0  0  0  0  0  0  0  0  0  0  0  0
  -23.7130  -31.7890   23.4480 O   0  0  0  0  0  0  0  0  0  0  0  0
  -22.9880  -29.1720   22.1070 C   0  0  0  0  0  0  0  0  0  0  0  0
  -21.6620  -28.9540   22.0030 N   0  0  0  0  0  0  0  0  0  0  0  0
  -23.6960  -28.5310   22.8870 O   0  0  0  0  0  0  0  0  0  0  0  0
  -21.1350  -29.5240   21.3560 H   0  0  0  0  0  0  0  0  0  0  0  0
  -18.3570  -27.5360   22.5380 C   0  0  0  0  0  0  0  0  0  0  0  0
  -20.9090  -27.9200   22.7260 C   0  0  0  0  0  3  0  0  0  0  0  0
  -21.0570  -26.5430   22.0380 C   0  0  0  0  0  2  0  0  0  0  0  0
  -19.9320  -26.2420   21.0410 C   0  0  0  0  0  2  0  0  0  0  0  0
  -18.5730  -26.2590   21.7440 C   0  0  0  0  0  2  0  0  0  0  0  0
  -19.4510  -28.3240   22.9860 C   0  0  0  0  0  0  0  0  0  0  0  0
  -19.1880  -29.5150   23.6970 C   0  0  0  0  0  3  0  0  0  0  0  0
  -17.8670  -29.9220   23.9600 C   0  0  0  0  0  3  0  0  0  0  0  0
  -16.7880  -29.1330   23.5240 C   0  0  0  0  0  3  0  0  0  0  0  0
  -17.0340  -27.9400   22.8200 C   0  0  0  0  0  3  0  0  0  0  0  0
  -26.0510  -32.2470   23.5380 C   0  0  0  0  0  3  0  0  0  0  0  0
  -25.6670  -33.5970   24.0000 N   0  0  0  0  0  0  0  0  0  0  0  0
  -25.9020  -34.7380   23.3360 C   0  0  0  0  0  0  0  0  0  0  0  0
  -26.5180  -34.7680   22.2690 O   0  0  0  0  0  0  0  0  0  0  0  0
  -25.1070  -33.6400   24.8380 H   0  0  0  0  0  0  0  0  0  0  0  0
  -24.0570  -36.4550   23.2640 C   0  0  0  0  0  1  0  0  0  0  0  0
  -25.3730  -36.0530   23.9500 C   0  0  0  0  0  3  0  0  0  0  0  0
  -27.5000  -37.0060   24.7270 C   0  0  0  0  0  1  0  0  0  0  0  0
  -26.3350  -37.1750   23.8640 N   0  0  0  0  0  0  0  0  0  0  0  0
  -25.8850  -38.0540   24.1060 H   0  0  0  0  0  0  0  0  0  0  0  0
  -26.6330  -31.4170   24.7500 C   0  0  1  0  0  0  0  0  0  0  0  0
  -25.5760  -31.0540   25.8210 C   0  0  0  0  0  1  0  0  0  0  0  0
  -27.2730  -30.0980   24.2660 C   0  0  0  0  0  1  0  0  0  0  0  0
  -27.7590  -32.2200   25.4430 C   0  0  0  0  0  1  0  0  0  0  0  0
  2  5  2  0
  2  6  1  0
  3  7  1  0
  3  1  2  0
  4  1  1  0
  4  8  1  0
  5  3  1  0
  6  4  2  0
 10 15  1  0
 11 12  1  0
 11 10  1  0
 13 12  1  0
 13 22  1  0
 13 14  1  0
 15  9  1  0
 15 14  1  0
 16  9  2  0
 17  9  1  0
 17  6  1  0
 18 17  1  0
 19 20  2  0
 20 39  1  0
 21 24  1  0
 21 20  1  0
 22 23  1  0
 22 19  1  0
 23 21  2  0
 24 25  1  0
 25 26  2  0
 27 30  1  0
 27 26  1  0
 28 27  2  0
 29 28  1  0
 29 24  2  0
 30 31  1  0
 31 36  2  0
 31 32  1  0
 32 33  2  0
 33 34  1  0
 34 38  1  0
 35 34  2  0
 36 35  1  0
 37 36  1  0
 39 40  1  0
 40 42  1  0
 40 43  1  0
 41 39  2  0
 44 19  1  0
 44 45  1  0
 46 44  1  0
 49 48  1  6
 49  5  1  0
 49 47  1  0
 50 49  1  0
 50 52  1  0
 51 62  2  0
 52 57  1  0
 53 61  1  0
 53 63  1  0
 54 60  1  0
 54 56  1  0
 55 61  1  0
 56 55  1  0
 57 56  2  0
 58 59  1  0
 58 52  2  0
 59 54  2  0
 60 53  1  0
 61 51  1  0
 63 65  2  0
 64 63  1  0
 66 64  1  0
 67 76  2  0
 67 72  1  0
 68 64  1  0
 68 72  1  0
 69 68  1  0
 70 71  1  0
 70 69  1  0
 71 67  1  0
 72 73  2  0
 73 74  1  0
 75 74  2  0
 76 75  1  0
 77 51  1  0
 77 78  1  0
 77 87  1  0
 78 81  1  0
 79 83  1  0
 79 78  1  0
 80 79  2  0
 83 82  1  0
 85 83  1  0
 85 86  1  0
 85 84  1  0
 87 90  1  1
 87 88  1  0
 89 87  1  0
M  ISO  4   9 100  17 100  49 101  50 101
M  END
>  <TORSDO>  (53) 
F 17

>  <SCORE>  (53) 
-12.532

>  <name>  (53) 
53

>  <ligand_id>  (53) 
53

>  <original_smiles>  (53) 
[H]c1c([H])c([H])c2c(c1[H])C([H])([H])C([H])([H])C([H])([H])C2([H])N([H])C(=O)C1([H])N(C(=O)C([H])(N([H])C(=O)C([H])(N([H])C([H])([H])[H])C([H])([H])[H])C(C([H])([H])[H])(C([H])([H])[H])C([H])([H])[H])C([H])([H])c2c([H])c(OC(c3c([H])c(N([H])C(=O)N4C([H])([H])C([H])([H])C([H])([H])C([H])(n5nc(-c6c([H])c([H])c(Oc7c([H])c([H])c(F)c([H])c7F)c([H])c6[H])c(C(=O)N([H])[H])c5N([H])[H])C4([H])[H])c(C([H])([H])[H])c([H])c3C([H])([H])[H])(C([H])([H])[H])C([H])([H])[H])c([H])c([H])c2C1([H])[H]

>  <smiles>  (53) 
[H]c1c([H])c([H])c2c(c1[H])C([H])([H])C([H])([H])C([H])([H])C2([H])N([H])C(=O)C1([H])N(C(=O)C([H])(N([H])C(=O)C([H])(N([H])C([H])([H])[H])C([H])([H])[H])C(C([H])([H])[H])(C([H])([H])[H])C([H])([H])[H])C([H])([H])c2c([H])c(OC(c3c([H])c(N([H])C(=O)N4C([H])([H])C([H])([H])C([H])([H])C([H])(n5nc(-c6c([H])c([H])c(Oc7c([H])c([H])c(F)c([H])c7F)c([H])c6[H])c(C(=O)N([H])[H])c5N([H])[H])C4([H])[H])c(C([H])([H])[H])c([H])c3C([H])([H])[H])(C([H])([H])[H])C([H])([H])[H])c([H])c([H])c2C1([H])[H]

$$$$
54:0:0
     RDKit          3D

 93 95  0  0  1  0  0  0  0  0999 V2000
  -26.3750  -18.9170   19.1640 N   0  0  1  0  0  4  0  0  0  0  0  0
  -26.5080  -18.8910   18.1640 H   0  0  0  0  0  0  0  0  0  0  0  0
  -25.4130  -17.4520   19.3670 C   0  0  0  0  0  2  0  0  0  0  0  0
  -25.3860  -15.5650   18.8060 C   0  0  0  0  0  1  0  0  0  0  0  0
  -29.6920  -12.9330   20.9730 C   0  0  0  0  0  0  0  0  0  0  0  0
  -31.2240  -11.8830   18.9550 C   0  0  0  0  0  3  0  0  0  0  0  0
  -30.5050  -11.8960   17.4770 C   0  0  0  0  0  3  0  0  0  0  0  0
  -28.9330  -12.0730   17.4110 C   0  0  0  0  0  2  0  0  0  0  0  0
  -28.7020  -12.7120   18.6910 C   0  0  0  0  0  3  0  0  0  0  0  0
  -29.2260  -11.4590   19.6180 C   0  0  0  0  0  2  0  0  0  0  0  0
  -30.3030  -11.9550   20.1900 N   0  0  0  0  0  0  0  0  0  0  0  0
  -30.5880  -13.8560   20.7150 O   0  0  0  0  0  0  0  0  0  0  0  0
  -25.0040  -12.3820   22.7760 C   0  0  0  0  0 15  0  0  0  0  0  0
  -23.9570  -13.0340   21.0330 C   0  0  0  0  0 15  0  0  0  0  0  0
  -27.0410  -12.2640   22.8320 C   0  0  0  0  0  1  0  0  0  0  0  0
  -25.2320  -13.6910   19.5400 C   0  0  0  0  0 15  0  0  0  0  0  0
  -27.9920  -12.7400   21.3540 N   0  0  0  0  0  2  0  0  0  0  0  0
  -27.2080  -14.4240   20.3630 C   0  0  0  0  0  0  0  0  0  0  0  0
  -26.1450  -13.8570   21.4260 C   0  0  0  0  0  2  0  0  0  0  0  0
  -25.9160  -11.8890   20.4900 C   0  0  0  0  0  2  0  0  0  0  0  0
  -27.4720  -13.2200   19.1770 N   0  0  0  0  0  0  0  0  0  0  0  0
  -26.7110  -11.8850   19.3110 N   0  0  0  0  0  2  0  0  0  0  0  0
  -24.9300  -10.5610   20.5370 C   0  0  0  0  0  0  0  0  0  0  0  0
  -25.0870   -9.4650   21.4520 C   0  0  0  0  0  3  0  0  0  0  0  0
  -24.0560   -8.5200   21.7560 C   0  0  0  0  0  3  0  0  0  0  0  0
  -22.7820   -8.5890   21.1440 C   0  0  0  0  0  0  0  0  0  0  0  0
  -22.6090   -9.5990   20.1840 C   0  0  0  0  0  3  0  0  0  0  0  0
  -23.6810  -10.4620   19.8290 C   0  0  0  0  0  3  0  0  0  0  0  0
  -21.7440   -7.6850   21.3160 O   0  0  0  0  0  0  0  0  0  0  0  0
  -21.5590   -6.9560   22.4710 C   0  0  0  0  0  0  0  0  0  0  0  0
  -21.2570   -7.5940   23.6930 C   0  0  0  0  0  3  0  0  0  0  0  0
  -20.9930   -6.8300   24.8490 C   0  0  0  0  0  3  0  0  0  0  0  0
  -21.0230   -5.4240   24.7910 C   0  0  0  0  0  0  0  0  0  0  0  0
  -21.3070   -4.7810   23.5740 C   0  0  0  0  0  3  0  0  0  0  0  0
  -21.5670   -5.5420   22.4170 C   0  0  0  0  0  0  0  0  0  0  0  0
  -21.8100   -4.9040   21.2460 F   0  0  0  0  0  0  0  0  0  0  0  0
  -20.7730   -4.6920   25.9030 F   0  0  0  0  0  0  0  0  0  0  0  0
  -25.0220  -14.9100   22.0310 C   0  0  0  0  0  0  0  0  0  0  0  0
  -24.1930  -14.6190   23.0490 N   0  0  0  0  0  0  0  0  0  0  0  0
  -24.3760  -15.6720   21.3090 O   0  0  0  0  0  0  0  0  0  0  0  0
  -24.3830  -13.8300   23.6440 H   0  0  0  0  0  0  0  0  0  0  0  0
  -23.3790  -15.1930   23.2100 H   0  0  0  0  0  0  0  0  0  0  0  0
  -27.9640  -15.5210   20.4220 N   0  0  0  0  0  4  0  0  0  0  0  0
  -28.0170  -16.0320   21.2930 H   0  0  0  0  0  0  0  0  0  0  0  0
  -28.8420  -15.5370   19.9190 H   0  0  0  0  0  0  0  0  0  0  0  0
  -26.0080  -20.6230   19.3700 C   0  0  0  0  0  3  0  0  0  0  0  0
  -27.0000  -22.2750   19.4230 C   0  0  0  0  0  3  0  0  0  0  0  0
  -26.7960  -24.1020   19.9930 C   0  0  0  0  0  2  0  0  0  0  0  0
  -27.6010  -25.6560   20.1990 O   0  0  0  0  0  0  0  0  0  0  0  0
  -24.6580  -32.0700   23.2760 C   0  0  0  0  0  0  0  0  0  0  0  0
  -26.9500  -27.0180   20.1990 C   0  0  0  0  0  0  0  0  0  0  0  0
  -23.4680  -30.6190   21.7160 C   0  0  0  0  0  3  0  0  0  0  0  0
  -24.8660  -29.0790   20.2070 C   0  0  0  0  0  0  0  0  0  0  0  0
  -26.0370  -30.8300   21.5010 C   0  0  0  0  0  2  0  0  0  0  0  0
  -26.0760  -29.4090   20.8300 C   0  0  0  0  0  0  0  0  0  0  0  0
  -27.1450  -28.3800   20.8130 C   0  0  0  0  0  3  0  0  0  0  0  0
  -25.7930  -26.9530   19.4420 C   0  0  0  0  0  3  0  0  0  0  0  0
  -24.7650  -27.8960   19.4830 C   0  0  0  0  0  3  0  0  0  0  0  0
  -23.6600  -29.9960   20.3170 C   0  0  0  0  0  2  0  0  0  0  0  0
  -24.7500  -31.2090   22.2110 N   0  0  0  0  0  0  0  0  0  0  0  0
  -23.5690  -32.3210   23.8230 O   0  0  0  0  0  0  0  0  0  0  0  0
  -22.8690  -29.5740   22.6960 C   0  0  0  0  0  0  0  0  0  0  0  0
  -21.6090  -29.1570   22.4730 N   0  0  0  0  0  0  0  0  0  0  0  0
  -23.5430  -29.1510   23.6390 O   0  0  0  0  0  0  0  0  0  0  0  0
  -21.1080  -29.5600   21.6940 H   0  0  0  0  0  0  0  0  0  0  0  0
  -18.5230  -27.2630   22.7010 C   0  0  0  0  0  0  0  0  0  0  0  0
  -20.8860  -28.1570   23.2640 C   0  0  0  0  0  3  0  0  0  0  0  0
  -21.3860  -26.7280   22.9480 C   0  0  0  0  0  2  0  0  0  0  0  0
  -20.5670  -26.0300   21.8580 C   0  0  0  0  0  2  0  0  0  0  0  0
  -19.0970  -25.9220   22.2770 C   0  0  0  0  0  2  0  0  0  0  0  0
  -19.3640  -28.3170   23.1510 C   0  0  0  0  0  0  0  0  0  0  0  0
  -18.7800  -29.5520   23.5060 C   0  0  0  0  0  3  0  0  0  0  0  0
  -17.3870  -29.7430   23.4160 C   0  0  0  0  0  3  0  0  0  0  0  0
  -16.5600  -28.6940   22.9830 C   0  0  0  0  0  3  0  0  0  0  0  0
  -17.1270  -27.4560   22.6310 C   0  0  0  0  0  3  0  0  0  0  0  0
  -25.9070  -32.7950   23.8520 C   0  0  0  0  0  3  0  0  0  0  0  0
  -25.5050  -34.1700   24.2100 N   0  0  0  0  0  0  0  0  0  0  0  0
  -25.7050  -35.2570   23.4520 C   0  0  0  0  0  0  0  0  0  0  0  0
  -26.3110  -35.2140   22.3790 O   0  0  0  0  0  0  0  0  0  0  0  0
  -24.9540  -34.2710   25.0490 H   0  0  0  0  0  0  0  0  0  0  0  0
  -23.8030  -36.9050   23.2850 C   0  0  0  0  0  1  0  0  0  0  0  0
  -25.1490  -36.6030   23.9650 C   0  0  0  0  0  3  0  0  0  0  0  0
  -27.2710  -37.6760   24.5860 C   0  0  0  0  0  1  0  0  0  0  0  0
  -26.0720  -37.7420   23.7560 N   0  0  0  0  0  0  0  0  0  0  0  0
  -25.6030  -38.6240   23.9440 H   0  0  0  0  0  0  0  0  0  0  0  0
  -26.5130  -32.0700   25.1170 C   0  0  1  0  0  0  0  0  0  0  0  0
  -25.4560  -31.6710   26.1740 C   0  0  0  0  0  1  0  0  0  0  0  0
  -27.2730  -30.7860   24.7150 C   0  0  0  0  0  1  0  0  0  0  0  0
  -27.5470  -32.9920   25.8020 C   0  0  0  0  0  1  0  0  0  0  0  0
  -27.7650  -18.7430   19.6560 C   0  0  0  0  0  2  0  0  0  0  0  0
  -29.2520  -20.1450   18.0760 C   0  0  0  0  0  1  0  0  0  0  0  0
  -30.1140  -17.9840   19.0550 C   0  0  0  0  0  1  0  0  0  0  0  0
  -28.8680  -18.7380   18.5690 C   0  0  0  0  0  3  0  0  0  0  0  0
  1  3  1  0
  1 46  1  0
  1 90  1  0
  1  2  1  6
  4  3  1  0
  5 17  1  0
  6 11  1  0
  7  6  2  0
  8  7  1  0
  8  9  1  0
  9 21  1  0
  9 10  1  0
 10 11  1  0
 11  5  1  0
 12  5  2  0
 17 15  1  0
 18 43  2  0
 18 19  1  0
 19 38  1  0
 20 23  1  0
 21 22  1  0
 21 18  1  0
 22 20  1  0
 23 24  1  0
 24 25  2  0
 26 29  1  0
 26 25  1  0
 27 26  2  0
 28 27  1  0
 28 23  2  0
 29 30  1  0
 30 31  1  0
 31 32  2  0
 33 32  1  0
 33 37  1  0
 34 33  2  0
 35 30  2  0
 35 34  1  0
 36 35  1  0
 38 39  1  0
 39 42  1  0
 39 41  1  0
 40 38  2  0
 43 44  1  0
 45 43  1  0
 46 47  2  0
 47 48  1  0
 48 49  1  0
 50 61  2  0
 51 49  1  0
 51 56  1  0
 52 60  1  0
 52 62  1  0
 53 59  1  0
 53 55  1  0
 54 60  1  0
 55 54  1  0
 56 55  2  0
 57 58  1  0
 57 51  2  0
 58 53  2  0
 59 52  1  0
 60 50  1  0
 62 64  2  0
 63 62  1  0
 65 63  1  0
 66 71  1  0
 67 63  1  0
 68 67  1  0
 69 70  1  0
 69 68  1  0
 70 66  1  0
 71 67  1  0
 71 72  2  0
 73 72  1  0
 74 73  2  0
 75 66  2  0
 75 74  1  0
 76 50  1  0
 76 77  1  0
 76 86  1  0
 77 80  1  0
 78 82  1  0
 78 77  1  0
 79 78  2  0
 82 81  1  0
 84 85  1  0
 84 82  1  0
 84 83  1  0
 86 89  1  1
 86 87  1  0
 88 86  1  0
 91 93  1  0
 93 92  1  0
 93 90  1  0
M  ISO  4   5 100  17 100  48 101  49 101
M  END
>  <TORSDO>  (54) 
F 23

>  <SCORE>  (54) 
-2.316

>  <name>  (54) 
54

>  <ligand_id>  (54) 
54

>  <original_smiles>  (54) 
[H]c1c([H])c([H])c2c(c1[H])C([H])([H])C([H])([H])C([H])([H])C2([H])N([H])C(=O)C1([H])N(C(=O)C([H])(N([H])C(=O)C([H])(N([H])C([H])([H])[H])C([H])([H])[H])C(C([H])([H])[H])(C([H])([H])[H])C([H])([H])[H])C([H])([H])c2c([H])c(OC([H])([H])C([H])([H])C([H])([H])[N+]([H])(C([H])([H])C([H])([H])C3([H])N(C(=O)N4C([H])([H])C([H])([H])C([H])([H])C([H])(n5nc(-c6c([H])c([H])c(Oc7c([H])c([H])c(F)c([H])c7F)c([H])c6[H])c(C(=O)N([H])[H])c5N([H])[H])C4([H])[H])C([H])([H])C([H])([H])C3([H])[H])C([H])([H])C([H])(C([H])([H])[H])C([H])([H])[H])c([H])c([H])c2C1([H])[H]

>  <smiles>  (54) 
[H]c1c([H])c([H])c2c(c1[H])C([H])([H])C([H])([H])C([H])([H])C2([H])N([H])C(=O)C1([H])N(C(=O)C([H])(N([H])C(=O)C([H])(N([H])C([H])([H])[H])C([H])([H])[H])C(C([H])([H])[H])(C([H])([H])[H])C([H])([H])[H])C([H])([H])c2c([H])c(OC([H])([H])C([H])([H])C([H])([H])[N+]([H])(C([H])([H])C([H])([H])C3([H])N(C(=O)N4C([H])([H])C([H])([H])C([H])([H])C([H])(n5nc(-c6c([H])c([H])c(Oc7c([H])c([H])c(F)c([H])c7F)c([H])c6[H])c(C(=O)N([H])[H])c5N([H])[H])C4([H])[H])C([H])([H])C([H])([H])C3([H])[H])C([H])([H])C([H])(C([H])([H])[H])C([H])([H])[H])c([H])c([H])c2C1([H])[H]

$$$$
55:0:0
     RDKit          3D

 95102  0  0  1  0  0  0  0  0999 V2000
  -29.8890  -19.1790   20.2070 C   0  0  0  0  0  3  0  0  0  0  0  0
  -29.4070  -17.8600   20.4280 C   0  0  0  0  0  0  0  0  0  0  0  0
  -27.2040  -18.5960   19.6080 C   0  0  0  0  0  0  0  0  0  0  0  0
  -29.0650  -20.2020   19.6720 C   0  0  0  0  0  0  0  0  0  0  0  0
  -28.0300  -17.5990   20.1900 C   0  0  0  0  0  3  0  0  0  0  0  0
  -27.7330  -19.8770   19.3110 C   0  0  0  0  0  0  0  0  0  0  0  0
  -25.7460  -18.2990   19.2670 C   0  0  0  0  0  1  0  0  0  0  0  0
  -27.3400  -16.0690   20.6300 Cl  0  0  0  0  0 15  0  0  0  0  0  0
  -26.7540  -21.0350   18.4660 Cl  0  0  0  0  0  0  0  0  0  0  0  0
  -29.6010  -21.4900   19.4350 N   0  0  0  0  0  0  0  0  0  0  0  0
  -29.4520  -21.7390   18.4620 H   0  0  0  0  0  0  0  0  0  0  0  0
  -29.7670  -22.4900   21.6920 C   0  0  0  0  0  1  0  0  0  0  0  0
  -29.1420  -22.6020   20.2930 C   0  0  0  0  0  3  0  0  0  0  0  0
  -29.4390  -23.9990   19.6470 C   0  0  0  0  0  2  0  0  0  0  0  0
  -28.4930  -25.1740   20.0910 C   0  0  0  0  0  2  0  0  0  0  0  0
  -28.6390  -26.6020   20.2800 O   0  0  0  0  0  0  0  0  0  0  0  0
  -24.6380  -31.7540   23.2160 C   0  0  0  0  0  0  0  0  0  0  0  0
  -27.4650  -27.3410   20.2340 C   0  0  0  0  0  0  0  0  0  0  0  0
  -23.5230  -30.3490   21.5170 C   0  0  0  0  0  3  0  0  0  0  0  0
  -25.0560  -28.8370   20.1500 C   0  0  0  0  0  0  0  0  0  0  0  0
  -26.0540  -30.7330   21.4330 C   0  0  0  0  0  2  0  0  0  0  0  0
  -26.1850  -29.3660   20.7870 C   0  0  0  0  0  0  0  0  0  0  0  0
  -27.3950  -28.6290   20.8200 C   0  0  0  0  0  3  0  0  0  0  0  0
  -26.3110  -26.8330   19.5920 C   0  0  0  0  0  3  0  0  0  0  0  0
  -25.1150  -27.5700   19.5490 C   0  0  0  0  0  3  0  0  0  0  0  0
  -23.8030  -29.6830   20.1440 C   0  0  0  0  0  2  0  0  0  0  0  0
  -24.7540  -30.9600   22.1140 N   0  0  0  0  0  0  0  0  0  0  0  0
  -23.5310  -32.0110   23.7090 O   0  0  0  0  0  0  0  0  0  0  0  0
  -22.8430  -29.3130   22.4420 C   0  0  0  0  0  0  0  0  0  0  0  0
  -21.5200  -29.1420   22.2780 N   0  0  0  0  0  0  0  0  0  0  0  0
  -23.5020  -28.6690   23.2610 O   0  0  0  0  0  0  0  0  0  0  0  0
  -21.0520  -29.7140   21.5900 H   0  0  0  0  0  0  0  0  0  0  0  0
  -18.1220  -27.9860   22.6970 C   0  0  0  0  0  0  0  0  0  0  0  0
  -20.6790  -28.1950   23.0100 C   0  0  0  0  0  3  0  0  0  0  0  0
  -20.7680  -26.7800   22.3930 C   0  0  0  0  0  2  0  0  0  0  0  0
  -19.6750  -26.5040   21.3560 C   0  0  0  0  0  2  0  0  0  0  0  0
  -18.2860  -26.6530   21.9850 C   0  0  0  0  0  2  0  0  0  0  0  0
  -19.2470  -28.7170   23.1630 C   0  0  0  0  0  0  0  0  0  0  0  0
  -19.0400  -29.9670   23.7860 C   0  0  0  0  0  3  0  0  0  0  0  0
  -17.7410  -30.4850   23.9490 C   0  0  0  0  0  3  0  0  0  0  0  0
  -16.6310  -29.7500   23.4990 C   0  0  0  0  0  3  0  0  0  0  0  0
  -16.8220  -28.5030   22.8780 C   0  0  0  0  0  3  0  0  0  0  0  0
  -25.8880  -32.3980   23.8940 C   0  0  0  0  0  3  0  0  0  0  0  0
  -25.5540  -33.7930   24.2040 N   0  0  0  0  0  0  0  0  0  0  0  0
  -25.9070  -34.8450   23.4540 C   0  0  0  0  0  0  0  0  0  0  0  0
  -26.6210  -34.7430   22.4520 O   0  0  0  0  0  0  0  0  0  0  0  0
  -24.9270  -33.9470   24.9810 H   0  0  0  0  0  0  0  0  0  0  0  0
  -24.1690  -36.6100   23.0270 C   0  0  0  0  0  1  0  0  0  0  0  0
  -25.3870  -36.2300   23.8830 C   0  0  0  0  0  3  0  0  0  0  0  0
  -27.4840  -37.1460   24.7720 C   0  0  0  0  0  1  0  0  0  0  0  0
  -26.4090  -37.2960   23.7940 N   0  0  0  0  0  0  0  0  0  0  0  0
  -25.9870  -38.2110   23.9250 H   0  0  0  0  0  0  0  0  0  0  0  0
  -26.3510  -31.6330   25.1950 C   0  0  1  0  0  0  0  0  0  0  0  0
  -25.2100  -31.3890   26.2120 C   0  0  0  0  0  1  0  0  0  0  0  0
  -26.9630  -30.2600   24.8320 C   0  0  0  0  0  1  0  0  0  0  0  0
  -27.4620  -32.4390   25.9090 C   0  0  0  0  0  1  0  0  0  0  0  0
  -30.3830  -16.7860   20.9660 C   0  0  0  0  0  2  0  0  0  0  0  0
  -30.6540  -14.3410   20.3420 C   0  0  0  0  0  0  0  0  0  0  0  0
  -30.3710  -12.1190   19.2990 C   0  0  0  0  0  2  0  0  0  0  0  0
  -29.4380  -12.2500   18.0780 C   0  0  0  0  0  2  0  0  0  0  0  0
  -27.9600  -12.1350   18.5010 C   0  0  0  0  0  2  0  0  0  0  0  0
  -27.6120  -13.0370   19.7160 C   0  0  0  0  0  3  0  0  0  0  0  0
  -28.6580  -12.8760   20.8410 C   0  0  0  0  0  2  0  0  0  0  0  0
  -29.9850  -13.1570   20.2680 N   0  0  0  0  0  0  0  0  0  0  0  0
  -31.7780  -14.5030   19.8600 O   0  0  0  0  0  0  0  0  0  0  0  0
  -29.9590  -15.3740   20.8580 N   0  0  0  0  0  0  0  0  0  0  0  0
  -29.0420  -15.1610   21.2220 H   0  0  0  0  0  0  0  0  0  0  0  0
  -25.2150  -13.6840   20.3940 C   0  0  0  0  0  0  0  0  0  0  0  0
  -24.1390  -12.9330   20.7840 C   0  0  0  0  0  0  0  0  0  0  0  0
  -24.5860  -11.5760   20.7860 C   0  0  0  0  0  0  0  0  0  0  0  0
  -26.2540  -12.7880   20.1960 N   0  0  0  0  0  0  0  0  0  0  0  0
  -25.8760  -11.5150   20.4850 N   0  0  0  0  0  0  0  0  0  0  0  0
  -23.8420  -10.3280   21.0010 C   0  0  0  0  0  0  0  0  0  0  0  0
  -24.2890   -9.3520   21.9200 C   0  0  0  0  0  3  0  0  0  0  0  0
  -23.5470   -8.1690   22.1220 C   0  0  0  0  0  3  0  0  0  0  0  0
  -22.3460   -7.9520   21.4050 C   0  0  0  0  0  0  0  0  0  0  0  0
  -21.9190   -8.9150   20.4750 C   0  0  0  0  0  3  0  0  0  0  0  0
  -22.6610  -10.0910   20.2710 C   0  0  0  0  0  3  0  0  0  0  0  0
  -21.5750   -6.8210   21.5180 O   0  0  0  0  0  0  0  0  0  0  0  0
  -21.5790   -6.0580   22.6580 C   0  0  0  0  0  0  0  0  0  0  0  0
  -21.2540   -6.6010   23.9200 C   0  0  0  0  0  3  0  0  0  0  0  0
  -21.2030   -5.7650   25.0550 C   0  0  0  0  0  3  0  0  0  0  0  0
  -21.4670   -4.3890   24.9280 C   0  0  0  0  0  0  0  0  0  0  0  0
  -21.7850   -3.8450   23.6710 C   0  0  0  0  0  3  0  0  0  0  0  0
  -21.8380   -4.6770   22.5390 C   0  0  0  0  0  0  0  0  0  0  0  0
  -22.1240   -4.1440   21.3270 F   0  0  0  0  0  0  0  0  0  0  0  0
  -21.4100   -3.5840   26.0150 F   0  0  0  0  0  0  0  0  0  0  0  0
  -22.7480  -13.4350   21.0430 C   0  0  0  0  0  0  0  0  0  0  0  0
  -22.0150  -12.7730   21.9320 N   0  0  0  0  0  0  0  0  0  0  0  0
  -22.3190  -14.4470   20.4920 O   0  0  0  0  0  0  0  0  0  0  0  0
  -22.3750  -11.9540   22.4000 H   0  0  0  0  0  0  0  0  0  0  0  0
  -21.0810  -13.0910   22.1500 H   0  0  0  0  0  0  0  0  0  0  0  0
  -25.3870  -15.0450   20.1700 N   0  0  0  0  0  0  0  0  0  0  0  0
  -24.6260  -15.7050   20.2710 H   0  0  0  0  0  0  0  0  0  0  0  0
  -26.2560  -15.4760   19.8860 H   0  0  0  0  0  0  0  0  0  0  0  0
  1  2  1  0
  2 57  1  0
  3  5  1  0
  4  1  2  0
  5  2  2  0
  6  3  2  0
  6  4  1  0
  7  3  1  0
  9  6  1  0
 10  4  1  0
 10 13  1  0
 11 10  1  0
 13 12  1  0
 14 15  1  0
 14 13  1  0
 15 16  1  0
 17 28  2  0
 18 16  1  0
 18 23  1  0
 19 27  1  0
 19 29  1  0
 20 22  1  0
 21 27  1  0
 22 23  2  0
 22 21  1  0
 24 18  2  0
 25 24  1  0
 25 20  2  0
 26 20  1  0
 26 19  1  0
 27 17  1  0
 29 31  2  0
 30 29  1  0
 32 30  1  0
 33 42  2  0
 33 38  1  0
 34 30  1  0
 34 38  1  0
 35 34  1  0
 36 37  1  0
 36 35  1  0
 37 33  1  0
 38 39  2  0
 39 40  1  0
 41 40  2  0
 42 41  1  0
 43 17  1  0
 43 44  1  0
 43 53  1  0
 44 47  1  0
 45 49  1  0
 45 44  1  0
 46 45  2  0
 49 48  1  0
 51 49  1  0
 51 52  1  0
 51 50  1  0
 53 56  1  1
 53 54  1  0
 55 53  1  0
 58 66  1  0
 59 64  1  0
 60 61  1  0
 60 59  1  0
 62 61  1  0
 62 71  1  0
 62 63  1  0
 64 58  1  0
 64 63  1  0
 65 58  2  0
 66 57  1  0
 66 67  1  0
 68 69  2  0
 69 70  1  0
 69 88  1  0
 70 73  1  0
 71 68  1  0
 71 72  1  0
 72 70  2  0
 73 74  1  0
 74 75  2  0
 76 79  1  0
 76 75  1  0
 77 76  2  0
 78 77  1  0
 78 73  2  0
 79 80  1  0
 80 81  1  0
 81 82  2  0
 83 82  1  0
 83 87  1  0
 84 83  2  0
 85 80  2  0
 85 84  1  0
 86 85  1  0
 88 89  1  0
 89 92  1  0
 89 91  1  0
 90 88  2  0
 93 94  1  0
 93 68  1  0
 95 93  1  0
M  ISO  4  15 101  16 101  58 100  66 100
M  END
>  <TORSDO>  (55) 
F 21

>  <SCORE>  (55) 
-12.993

>  <name>  (55) 
55

>  <ligand_id>  (55) 
55

>  <original_smiles>  (55) 
[H]c1c([H])c([H])c2c(c1[H])C([H])([H])C([H])([H])C([H])([H])C2([H])N([H])C(=O)C1([H])N(C(=O)C([H])(N([H])C(=O)C([H])(N([H])C([H])([H])[H])C([H])([H])[H])C(C([H])([H])[H])(C([H])([H])[H])C([H])([H])[H])C([H])([H])c2c([H])c(OC([H])([H])C([H])([H])C([H])(N([H])c3c([H])c(C([H])([H])N([H])C(=O)N4C([H])([H])C([H])([H])C([H])([H])C([H])(n5nc(-c6c([H])c([H])c(Oc7c([H])c([H])c(F)c([H])c7F)c([H])c6[H])c(C(=O)N([H])[H])c5N([H])[H])C4([H])[H])c(Cl)c(C([H])([H])[H])c3Cl)C([H])([H])[H])c([H])c([H])c2C1([H])[H]

>  <smiles>  (55) 
[H]c1c([H])c([H])c2c(c1[H])C([H])([H])C([H])([H])C([H])([H])C2([H])N([H])C(=O)C1([H])N(C(=O)C([H])(N([H])C(=O)C([H])(N([H])C([H])([H])[H])C([H])([H])[H])C(C([H])([H])[H])(C([H])([H])[H])C([H])([H])[H])C([H])([H])c2c([H])c(OC([H])([H])C([H])([H])C([H])(N([H])c3c([H])c(C([H])([H])N([H])C(=O)N4C([H])([H])C([H])([H])C([H])([H])C([H])(n5nc(-c6c([H])c([H])c(Oc7c([H])c([H])c(F)c([H])c7F)c([H])c6[H])c(C(=O)N([H])[H])c5N([H])[H])C4([H])[H])c(Cl)c(C([H])([H])[H])c3Cl)C([H])([H])[H])c([H])c([H])c2C1([H])[H]

$$$$
56:0:0
     RDKit          3D

 95102  0  0  1  0  0  0  0  0999 V2000
  -29.7450  -19.7090   20.4240 C   0  0  0  0  0  3  0  0  0  0  0  0
  -31.9830  -20.2760   19.7340 C   0  0  0  0  0  3  0  0  0  0  0  0
  -30.6590  -20.6870   19.9880 C   0  0  0  0  0  0  0  0  0  0  0  0
  -30.1210  -18.3580   20.6260 C   0  0  0  0  0  0  0  0  0  0  0  0
  -31.4570  -17.9300   20.3420 C   0  0  0  0  0  0  0  0  0  0  0  0
  -32.3800  -18.9280   19.9020 C   0  0  0  0  0  0  0  0  0  0  0  0
  -34.0440  -18.5870   19.5910 Cl  0  0  0  0  0  0  0  0  0  0  0  0
  -29.0640  -17.3950   21.1750 C   0  0  0  0  0  3  0  0  0  0  0  0
  -28.7630  -16.4770   20.2610 F   0  0  0  0  0  0  0  0  0  0  0  0
  -29.5050  -16.7920   22.2770 F   0  0  0  0  0  0  0  0  0  0  0  0
  -27.9310  -18.0220   21.4950 F   0  0  0  0  0  0  0  0  0  0  0  0
  -30.1940  -22.1500   19.8840 C   0  0  0  0  0  2  0  0  0  0  0  0
  -30.9810  -23.0780   18.9260 C   0  0  0  0  0  2  0  0  0  0  0  0
  -30.6600  -24.5920   19.0780 C   0  0  0  0  0  2  0  0  0  0  0  0
  -29.2760  -25.0480   18.5660 C   0  0  0  0  0  2  0  0  0  0  0  0
  -29.1700  -26.4740   18.6750 O   0  0  0  0  0  0  0  0  0  0  0  0
  -25.0780  -30.4560   22.9050 C   0  0  0  0  0  0  0  0  0  0  0  0
  -27.9140  -27.0150   18.8660 C   0  0  0  0  0  0  0  0  0  0  0  0
  -23.8920  -29.2270   21.1160 C   0  0  0  0  0  3  0  0  0  0  0  0
  -25.3700  -28.1680   19.3280 C   0  0  0  0  0  0  0  0  0  0  0  0
  -26.3280  -29.9440   20.8070 C   0  0  0  0  0  2  0  0  0  0  0  0
  -26.5100  -28.7310   19.9180 C   0  0  0  0  0  0  0  0  0  0  0  0
  -27.7820  -28.1650   19.6790 C   0  0  0  0  0  3  0  0  0  0  0  0
  -26.7530  -26.4630   18.2760 C   0  0  0  0  0  3  0  0  0  0  0  0
  -25.4860  -27.0340   18.5050 C   0  0  0  0  0  3  0  0  0  0  0  0
  -24.0440  -28.8340   19.6220 C   0  0  0  0  0  2  0  0  0  0  0  0
  -25.1210  -29.8840   21.6680 N   0  0  0  0  0  0  0  0  0  0  0  0
  -24.0290  -30.4810   23.5640 O   0  0  0  0  0  0  0  0  0  0  0  0
  -23.4560  -27.9760   21.9110 C   0  0  0  0  0  0  0  0  0  0  0  0
  -22.2110  -27.5250   21.6830 N   0  0  0  0  0  0  0  0  0  0  0  0
  -24.2340  -27.4170   22.6880 O   0  0  0  0  0  0  0  0  0  0  0  0
  -21.6310  -28.0430   21.0370 H   0  0  0  0  0  0  0  0  0  0  0  0
  -19.2420  -25.4670   21.6930 C   0  0  0  0  0  0  0  0  0  0  0  0
  -21.6020  -26.3420   22.2860 C   0  0  0  0  0  3  0  0  0  0  0  0
  -22.1350  -25.0440   21.6330 C   0  0  0  0  0  2  0  0  0  0  0  0
  -21.2620  -24.5500   20.4750 C   0  0  0  0  0  2  0  0  0  0  0  0
  -19.8340  -24.2780   20.9540 C   0  0  0  0  0  2  0  0  0  0  0  0
  -20.0730  -26.4440   22.3040 C   0  0  0  0  0  0  0  0  0  0  0  0
  -19.4740  -27.5490   22.9470 C   0  0  0  0  0  3  0  0  0  0  0  0
  -18.0720  -27.6820   22.9890 C   0  0  0  0  0  3  0  0  0  0  0  0
  -17.2560  -26.7060   22.3940 C   0  0  0  0  0  3  0  0  0  0  0  0
  -17.8410  -25.5990   21.7510 C   0  0  0  0  0  3  0  0  0  0  0  0
  -26.3360  -31.1260   23.5420 C   0  0  0  0  0  3  0  0  0  0  0  0
  -25.9280  -32.4470   24.0400 N   0  0  0  0  0  0  0  0  0  0  0  0
  -26.1710  -33.6040   23.4130 C   0  0  0  0  0  0  0  0  0  0  0  0
  -26.8360  -33.6770   22.3760 O   0  0  0  0  0  0  0  0  0  0  0  0
  -25.3270  -32.4570   24.8520 H   0  0  0  0  0  0  0  0  0  0  0  0
  -24.3340  -35.3140   23.2600 C   0  0  0  0  0  1  0  0  0  0  0  0
  -25.5890  -34.8870   24.0360 C   0  0  0  0  0  3  0  0  0  0  0  0
  -27.6530  -35.7850   25.0150 C   0  0  0  0  0  1  0  0  0  0  0  0
  -26.5510  -36.0080   24.0830 N   0  0  0  0  0  0  0  0  0  0  0  0
  -26.0830  -36.8730   24.3430 H   0  0  0  0  0  0  0  0  0  0  0  0
  -26.9830  -30.2660   24.6970 C   0  0  1  0  0  0  0  0  0  0  0  0
  -25.9650  -29.7620   25.7450 C   0  0  0  0  0  1  0  0  0  0  0  0
  -27.7110  -29.0330   24.1120 C   0  0  0  0  0  1  0  0  0  0  0  0
  -28.0500  -31.1040   25.4390 C   0  0  0  0  0  1  0  0  0  0  0  0
  -31.8580  -16.4450   20.5980 C   0  0  0  0  0  2  0  0  0  0  0  0
  -32.7650  -14.4090   19.4560 C   0  0  0  0  0  0  0  0  0  0  0  0
  -32.1620  -12.2060   18.5470 C   0  0  0  0  0  2  0  0  0  0  0  0
  -31.1660  -12.4190   17.3890 C   0  0  0  0  0  2  0  0  0  0  0  0
  -29.7210  -12.4570   17.9230 C   0  0  0  0  0  2  0  0  0  0  0  0
  -29.5540  -13.4180   19.1310 C   0  0  0  0  0  3  0  0  0  0  0  0
  -30.6670  -13.2030   20.1800 C   0  0  0  0  0  2  0  0  0  0  0  0
  -31.9580  -13.3150   19.4910 N   0  0  0  0  0  0  0  0  0  0  0  0
  -33.9080  -14.3700   19.0070 O   0  0  0  0  0  0  0  0  0  0  0  0
  -32.1400  -15.6000   19.4310 N   0  0  0  0  0  0  0  0  0  0  0  0
  -32.5950  -16.1700   18.7310 H   0  0  0  0  0  0  0  0  0  0  0  0
  -27.3140  -14.3060   20.0240 C   0  0  0  0  0  0  0  0  0  0  0  0
  -26.1930  -13.6710   20.4810 C   0  0  0  0  0  0  0  0  0  0  0  0
  -26.4790  -12.2720   20.4200 C   0  0  0  0  0  0  0  0  0  0  0  0
  -28.2230  -13.3050   19.7200 N   0  0  0  0  0  0  0  0  0  0  0  0
  -27.7280  -12.0750   20.0150 N   0  0  0  0  0  0  0  0  0  0  0  0
  -25.6180  -11.1090   20.6650 C   0  0  0  0  0  0  0  0  0  0  0  0
  -25.8430  -10.2410   21.7560 C   0  0  0  0  0  3  0  0  0  0  0  0
  -24.9890   -9.1400   21.9820 C   0  0  0  0  0  3  0  0  0  0  0  0
  -23.8960   -8.9000   21.1150 C   0  0  0  0  0  0  0  0  0  0  0  0
  -23.6920   -9.7530   20.0150 C   0  0  0  0  0  3  0  0  0  0  0  0
  -24.5450  -10.8450   19.7890 C   0  0  0  0  0  3  0  0  0  0  0  0
  -23.0290   -7.8430   21.2430 O   0  0  0  0  0  0  0  0  0  0  0  0
  -22.5470   -7.4500   22.4660 C   0  0  0  0  0  0  0  0  0  0  0  0
  -21.8480   -8.3390   23.3110 C   0  0  0  0  0  3  0  0  0  0  0  0
  -21.3080   -7.8780   24.5280 C   0  0  0  0  0  3  0  0  0  0  0  0
  -21.4590   -6.5270   24.8980 C   0  0  0  0  0  0  0  0  0  0  0  0
  -22.1510   -5.6400   24.0570 C   0  0  0  0  0  3  0  0  0  0  0  0
  -22.6910   -6.1000   22.8420 C   0  0  0  0  0  0  0  0  0  0  0  0
  -23.3390   -5.2350   22.0250 F   0  0  0  0  0  0  0  0  0  0  0  0
  -20.9350   -6.0810   26.0640 F   0  0  0  0  0  0  0  0  0  0  0  0
  -24.8910  -14.3150   20.8620 C   0  0  0  0  0  0  0  0  0  0  0  0
  -24.1970  -13.7560   21.8470 N   0  0  0  0  0  0  0  0  0  0  0  0
  -24.5060  -15.3500   20.3190 O   0  0  0  0  0  0  0  0  0  0  0  0
  -24.5250  -12.9200   22.3060 H   0  0  0  0  0  0  0  0  0  0  0  0
  -23.3260  -14.1700   22.1500 H   0  0  0  0  0  0  0  0  0  0  0  0
  -27.6290  -15.6460   19.8200 N   0  0  0  0  0  2  0  0  0  0  0  0
  -26.9710  -16.3950   19.9960 H   0  0  0  0  0  0  0  0  0  0  0  0
  -28.5180  -15.9780   19.4720 H   0  0  0  0  0  0  0  0  0  0  0  0
  1  4  1  0
  2  6  2  0
  2  3  1  0
  3  1  2  0
  4  8  1  0
  5 57  1  0
  5  4  2  0
  6  5  1  0
  7  6  1  0
  8 11  1  0
  8 10  1  0
 12  3  1  0
 13 14  1  0
 13 12  1  0
 15 16  1  0
 15 14  1  0
 16 18  1  0
 17 28  2  0
 18 23  1  0
 19 27  1  0
 19 29  1  0
 20 26  1  0
 20 22  1  0
 21 27  1  0
 22 21  1  0
 23 22  2  0
 24 25  1  0
 24 18  2  0
 25 20  2  0
 26 19  1  0
 27 17  1  0
 29 31  2  0
 30 29  1  0
 32 30  1  0
 33 42  2  0
 33 38  1  0
 34 30  1  0
 34 38  1  0
 35 34  1  0
 36 37  1  0
 36 35  1  0
 37 33  1  0
 38 39  2  0
 39 40  1  0
 41 40  2  0
 42 41  1  0
 43 17  1  0
 43 44  1  0
 43 53  1  0
 44 47  1  0
 45 49  1  0
 45 44  1  0
 46 45  2  0
 49 48  1  0
 49 51  1  0
 51 52  1  0
 51 50  1  0
 53 56  1  1
 53 54  1  0
 55 53  1  0
 58 64  1  0
 59 64  1  0
 60 61  1  0
 60 59  1  0
 62 61  1  0
 62 71  1  0
 62 63  1  0
 64 63  1  0
 65 58  2  0
 66 58  1  0
 66 57  1  0
 67 66  1  0
 68 69  2  0
 69 88  1  0
 70 69  1  0
 70 73  1  0
 71 72  1  0
 71 68  1  0
 72 70  2  0
 73 74  1  0
 74 75  2  0
 76 79  1  0
 76 75  1  0
 77 76  2  0
 78 77  1  0
 78 73  2  0
 79 80  1  0
 80 85  2  0
 80 81  1  0
 81 82  2  0
 82 83  1  0
 83 87  1  0
 84 83  2  0
 85 84  1  0
 86 85  1  0
 88 89  1  0
 89 92  1  0
 89 91  1  0
 90 88  2  0
 93 94  1  0
 93 68  1  0
 95  9  1  0
M  ISO  4  15 101  16 101  58 100  66 100
M  END
>  <TORSDO>  (56) 
F 22

>  <SCORE>  (56) 
-6.874

>  <name>  (56) 
56

>  <ligand_id>  (56) 
56

>  <original_smiles>  (56) 
[H]c1c([H])c([H])c2c(c1[H])C([H])([H])C([H])([H])C([H])([H])C2([H])N([H])C(=O)C1([H])N(C(=O)C([H])(N([H])C(=O)C([H])(N([H])C([H])([H])[H])C([H])([H])[H])C(C([H])([H])[H])(C([H])([H])[H])C([H])([H])[H])C([H])([H])c2c([H])c(OC([H])([H])C([H])([H])C([H])([H])C([H])([H])c3c([H])c(Cl)c(C([H])([H])N([H])C(=O)N4C([H])([H])C([H])([H])C([H])([H])C([H])(n5nc(-c6c([H])c([H])c(Oc7c([H])c([H])c(F)c([H])c7F)c([H])c6[H])c(C(=O)N([H])[H])c5N([H])[H])C4([H])[H])c(C(F)(F)F)c3[H])c([H])c([H])c2C1([H])[H]

>  <smiles>  (56) 
[H]c1c([H])c([H])c2c(c1[H])C([H])([H])C([H])([H])C([H])([H])C2([H])N([H])C(=O)C1([H])N(C(=O)C([H])(N([H])C(=O)C([H])(N([H])C([H])([H])[H])C([H])([H])[H])C(C([H])([H])[H])(C([H])([H])[H])C([H])([H])[H])C([H])([H])c2c([H])c(OC([H])([H])C([H])([H])C([H])([H])C([H])([H])c3c([H])c(Cl)c(C([H])([H])N([H])C(=O)N4C([H])([H])C([H])([H])C([H])([H])C([H])(n5nc(-c6c([H])c([H])c(Oc7c([H])c([H])c(F)c([H])c7F)c([H])c6[H])c(C(=O)N([H])[H])c5N([H])[H])C4([H])[H])c(C(F)(F)F)c3[H])c([H])c([H])c2C1([H])[H]

$$$$
57:0:0
     RDKit          3D

 97105  0  0  1  0  0  0  0  0999 V2000
  -31.6580  -21.1710   22.1390 C   0  0  0  0  0  2  0  0  0  0  0  0
  -32.5790  -17.8930   20.3610 C   0  0  0  0  0  3  0  0  0  0  0  0
  -32.4560  -19.2630   20.6480 C   0  0  0  0  0  0  0  0  0  0  0  0
  -32.0780  -16.9230   21.2460 C   0  0  0  0  0  0  0  0  0  0  0  0
  -31.8090  -19.6810   21.8420 C   0  0  0  0  0  0  0  0  0  0  0  0
  -31.2840  -18.7030   22.7350 C   0  0  0  0  0  0  0  0  0  0  0  0
  -31.4320  -17.3230   22.4360 C   0  0  0  0  0  0  0  0  0  0  0  0
  -33.0380  -20.2540   19.6500 C   0  0  0  0  0  1  0  0  0  0  0  0
  -30.5800  -19.1140   24.0290 C   0  0  0  0  0  1  0  0  0  0  0  0
  -30.8360  -16.1140   23.5280 Cl  0  0  0  0  0  0  0  0  0  0  0  0
  -32.2680  -15.4570   20.8950 C   0  0  0  0  0  2  0  0  0  0  0  0
  -30.7990  -14.4900   19.1360 C   0  0  0  0  0  0  0  0  0  0  0  0
  -30.0600  -12.4870   17.9160 C   0  0  0  0  0  2  0  0  0  0  0  0
  -28.8530  -12.6780   16.9870 C   0  0  0  0  0  2  0  0  0  0  0  0
  -27.5410  -12.5040   17.7690 C   0  0  0  0  0  2  0  0  0  0  0  0
  -27.5020  -13.3750   19.0510 C   0  0  0  0  0  3  0  0  0  0  0  0
  -28.7850  -13.1920   19.8900 C   0  0  0  0  0  2  0  0  0  0  0  0
  -29.9600  -13.4340   19.0310 N   0  0  0  0  0  0  0  0  0  0  0  0
  -31.4740  -14.9300   18.2000 O   0  0  0  0  0  0  0  0  0  0  0  0
  -31.0580  -14.8060   20.4080 N   0  0  0  0  0  0  0  0  0  0  0  0
  -30.4880  -14.3430   21.1010 H   0  0  0  0  0  0  0  0  0  0  0  0
  -25.4220  -13.9850   20.4440 C   0  0  0  0  0  0  0  0  0  0  0  0
  -24.4280  -13.2170   20.9870 C   0  0  0  0  0  0  0  0  0  0  0  0
  -24.7560  -11.8640   20.6690 C   0  0  0  0  0  0  0  0  0  0  0  0
  -26.3000  -13.0990   19.8380 N   0  0  0  0  0  0  0  0  0  0  0  0
  -25.9150  -11.8100   20.0260 N   0  0  0  0  0  0  0  0  0  0  0  0
  -24.0060  -10.6200   20.8900 C   0  0  0  0  0  0  0  0  0  0  0  0
  -24.5180   -9.5840   21.7020 C   0  0  0  0  0  3  0  0  0  0  0  0
  -23.7700   -8.4060   21.9150 C   0  0  0  0  0  3  0  0  0  0  0  0
  -22.4960   -8.2560   21.3160 C   0  0  0  0  0  0  0  0  0  0  0  0
  -22.0030   -9.2800   20.4900 C   0  0  0  0  0  3  0  0  0  0  0  0
  -22.7500  -10.4500   20.2750 C   0  0  0  0  0  3  0  0  0  0  0  0
  -21.7110   -7.1360   21.4460 O   0  0  0  0  0  0  0  0  0  0  0  0
  -21.7000   -6.3940   22.6000 C   0  0  0  0  0  0  0  0  0  0  0  0
  -21.3570   -6.9610   23.8460 C   0  0  0  0  0  3  0  0  0  0  0  0
  -21.2910   -6.1470   24.9950 C   0  0  0  0  0  3  0  0  0  0  0  0
  -21.5550   -4.7670   24.8980 C   0  0  0  0  0  0  0  0  0  0  0  0
  -21.8910   -4.2000   23.6560 C   0  0  0  0  0  3  0  0  0  0  0  0
  -21.9600   -5.0110   22.5100 C   0  0  0  0  0  0  0  0  0  0  0  0
  -22.2630   -4.4560   21.3120 F   0  0  0  0  0  0  0  0  0  0  0  0
  -21.4830   -3.9840   26.0000 F   0  0  0  0  0  0  0  0  0  0  0  0
  -23.1910  -13.7120   21.6820 C   0  0  0  0  0  0  0  0  0  0  0  0
  -22.6910  -12.9580   22.6540 N   0  0  0  0  0  0  0  0  0  0  0  0
  -22.6900  -14.8000   21.3970 O   0  0  0  0  0  0  0  0  0  0  0  0
  -23.1130  -12.0750   22.8990 H   0  0  0  0  0  0  0  0  0  0  0  0
  -21.8720  -13.2670   23.1590 H   0  0  0  0  0  0  0  0  0  0  0  0
  -25.6450  -15.3590   20.3970 N   0  0  0  0  0  0  0  0  0  0  0  0
  -24.9940  -16.0300   20.7890 H   0  0  0  0  0  0  0  0  0  0  0  0
  -26.4310  -15.7940   19.9280 H   0  0  0  0  0  0  0  0  0  0  0  0
  -30.6690  -21.7570   21.2180 N   0  0  0  0  0  4  0  0  0  0  0  0
  -29.7690  -21.3600   21.4300 H   0  0  0  0  0  0  0  0  0  0  0  0
  -30.9090  -21.4820   20.2800 H   0  0  0  0  0  0  0  0  0  0  0  0
  -30.5740  -23.2250   21.2810 C   0  0  0  0  0  2  0  0  0  0  0  0
  -29.6380  -23.7700   20.1910 C   0  0  0  0  0  2  0  0  0  0  0  0
  -29.5690  -25.3010   20.2050 C   0  0  0  0  0  2  0  0  0  0  0  0
  -28.5050  -25.8560   19.2550 C   0  0  0  0  0  2  0  0  0  0  0  0
  -28.4160  -27.2460   19.5210 O   0  0  0  0  0  0  0  0  0  0  0  0
  -24.3740  -31.7680   23.1740 C   0  0  0  0  0  0  0  0  0  0  0  0
  -27.1660  -27.8000   19.6400 C   0  0  0  0  0  0  0  0  0  0  0  0
  -23.1780  -30.3690   21.5190 C   0  0  0  0  0  3  0  0  0  0  0  0
  -24.6520  -29.0530   19.9100 C   0  0  0  0  0  0  0  0  0  0  0  0
  -25.6400  -30.9660   21.1860 C   0  0  0  0  0  2  0  0  0  0  0  0
  -25.7950  -29.6510   20.4540 C   0  0  0  0  0  0  0  0  0  0  0  0
  -27.0520  -29.0300   20.3170 C   0  0  0  0  0  3  0  0  0  0  0  0
  -26.0050  -27.2010   19.0970 C   0  0  0  0  0  3  0  0  0  0  0  0
  -24.7500  -27.8250   19.2320 C   0  0  0  0  0  3  0  0  0  0  0  0
  -23.3470  -29.7930   20.0880 C   0  0  0  0  0  2  0  0  0  0  0  0
  -24.4190  -31.0470   22.0180 N   0  0  0  0  0  0  0  0  0  0  0  0
  -23.3150  -31.9100   23.7980 O   0  0  0  0  0  0  0  0  0  0  0  0
  -22.6810  -29.2390   22.4480 C   0  0  0  0  0  0  0  0  0  0  0  0
  -21.4230  -28.8150   22.2520 N   0  0  0  0  0  0  0  0  0  0  0  0
  -23.4270  -28.7460   23.2980 O   0  0  0  0  0  0  0  0  0  0  0  0
  -20.8740  -29.2770   21.5390 H   0  0  0  0  0  0  0  0  0  0  0  0
  -18.3480  -26.9360   22.4850 C   0  0  0  0  0  0  0  0  0  0  0  0
  -20.7540  -27.7390   22.9810 C   0  0  0  0  0  3  0  0  0  0  0  0
  -21.2110  -26.3530   22.4710 C   0  0  0  0  0  2  0  0  0  0  0  0
  -20.3070  -25.7860   21.3720 C   0  0  0  0  0  2  0  0  0  0  0  0
  -18.8690  -25.6440   21.8800 C   0  0  0  0  0  2  0  0  0  0  0  0
  -19.2330  -27.9270   22.9870 C   0  0  0  0  0  0  0  0  0  0  0  0
  -18.6970  -29.1250   23.5060 C   0  0  0  0  0  3  0  0  0  0  0  0
  -17.3060  -29.3410   23.5300 C   0  0  0  0  0  3  0  0  0  0  0  0
  -16.4330  -28.3510   23.0480 C   0  0  0  0  0  3  0  0  0  0  0  0
  -16.9540  -27.1510   22.5310 C   0  0  0  0  0  3  0  0  0  0  0  0
  -25.6460  -32.4650   23.7530 C   0  0  0  0  0  3  0  0  0  0  0  0
  -25.2980  -33.8660   24.0230 N   0  0  0  0  0  0  0  0  0  0  0  0
  -25.5900  -34.8910   23.2120 C   0  0  0  0  0  0  0  0  0  0  0  0
  -26.2550  -34.7610   22.1810 O   0  0  0  0  0  0  0  0  0  0  0  0
  -24.7060  -34.0390   24.8220 H   0  0  0  0  0  0  0  0  0  0  0  0
  -23.8020  -36.6070   22.7860 C   0  0  0  0  0  1  0  0  0  0  0  0
  -25.0600  -36.2830   23.6080 C   0  0  0  0  0  3  0  0  0  0  0  0
  -27.1710  -37.2690   24.3790 C   0  0  0  0  0  1  0  0  0  0  0  0
  -26.0570  -37.3620   23.4400 N   0  0  0  0  0  0  0  0  0  0  0  0
  -25.6230  -38.2740   23.5520 H   0  0  0  0  0  0  0  0  0  0  0  0
  -26.2010  -31.7670   25.0540 C   0  0  1  0  0  0  0  0  0  0  0  0
  -25.1150  -31.4720   26.1140 C   0  0  0  0  0  1  0  0  0  0  0  0
  -26.8930  -30.4300   24.7000 C   0  0  0  0  0  1  0  0  0  0  0  0
  -27.2790  -32.6620   25.7110 C   0  0  0  0  0  1  0  0  0  0  0  0
  2  3  2  0
  2  4  1  0
  3  5  1  0
  4  7  2  0
  5  1  1  0
  5  6  2  0
  6  9  1  0
  7  6  1  0
  7 10  1  0
  8  3  1  0
 11  4  1  0
 12 20  1  0
 13 18  1  0
 14 15  1  0
 14 13  1  0
 16 15  1  0
 16 25  1  0
 16 17  1  0
 18 12  1  0
 18 17  1  0
 19 12  2  0
 20 11  1  0
 20 21  1  0
 22 23  2  0
 23 42  1  0
 24 27  1  0
 24 23  1  0
 25 26  1  0
 25 22  1  0
 26 24  2  0
 27 28  1  0
 28 29  2  0
 30 33  1  0
 30 29  1  0
 31 30  2  0
 32 31  1  0
 32 27  2  0
 33 34  1  0
 34 35  1  0
 35 36  2  0
 37 36  1  0
 37 41  1  0
 38 37  2  0
 39 34  2  0
 39 38  1  0
 40 39  1  0
 42 43  1  0
 43 45  1  0
 43 46  1  0
 44 42  2  0
 47 22  1  0
 47 48  1  0
 49 47  1  0
 50 53  1  0
 50 51  1  0
 50  1  1  0
 52 50  1  0
 54 55  1  0
 54 53  1  0
 56 57  1  0
 56 55  1  0
 57 59  1  0
 58 69  2  0
 59 64  1  0
 60 68  1  0
 60 70  1  0
 61 67  1  0
 61 63  1  0
 62 68  1  0
 63 62  1  0
 64 63  2  0
 65 66  1  0
 65 59  2  0
 66 61  2  0
 67 60  1  0
 68 58  1  0
 70 72  2  0
 71 70  1  0
 73 71  1  0
 74 83  2  0
 74 79  1  0
 75 71  1  0
 75 79  1  0
 76 75  1  0
 77 78  1  0
 77 76  1  0
 78 74  1  0
 79 80  2  0
 80 81  1  0
 82 81  2  0
 83 82  1  0
 84 58  1  0
 84 85  1  0
 84 94  1  0
 85 88  1  0
 86 90  1  0
 86 85  1  0
 87 86  2  0
 90 89  1  0
 92 93  1  0
 92 90  1  0
 92 91  1  0
 94 97  1  1
 94 95  1  0
 96 94  1  0
M  ISO  4  12 100  20 100  56 101  57 101
M  END
>  <TORSDO>  (57) 
F 23

>  <SCORE>  (57) 
-6.584

>  <name>  (57) 
57

>  <ligand_id>  (57) 
57

>  <original_smiles>  (57) 
[H]c1c([H])c([H])c2c(c1[H])C([H])([H])C([H])([H])C([H])([H])C2([H])N([H])C(=O)C1([H])N(C(=O)C([H])(N([H])C(=O)C([H])(N([H])C([H])([H])[H])C([H])([H])[H])C(C([H])([H])[H])(C([H])([H])[H])C([H])([H])[H])C([H])([H])c2c([H])c(OC([H])([H])C([H])([H])C([H])([H])C([H])([H])[N+]([H])([H])C([H])([H])c3c(C([H])([H])[H])c([H])c(C([H])([H])N([H])C(=O)N4C([H])([H])C([H])([H])C([H])([H])C([H])(n5nc(-c6c([H])c([H])c(Oc7c([H])c([H])c(F)c([H])c7F)c([H])c6[H])c(C(=O)N([H])[H])c5N([H])[H])C4([H])[H])c(Cl)c3C([H])([H])[H])c([H])c([H])c2C1([H])[H]

>  <smiles>  (57) 
[H]c1c([H])c([H])c2c(c1[H])C([H])([H])C([H])([H])C([H])([H])C2([H])N([H])C(=O)C1([H])N(C(=O)C([H])(N([H])C(=O)C([H])(N([H])C([H])([H])[H])C([H])([H])[H])C(C([H])([H])[H])(C([H])([H])[H])C([H])([H])[H])C([H])([H])c2c([H])c(OC([H])([H])C([H])([H])C([H])([H])C([H])([H])[N+]([H])([H])C([H])([H])c3c(C([H])([H])[H])c([H])c(C([H])([H])N([H])C(=O)N4C([H])([H])C([H])([H])C([H])([H])C([H])(n5nc(-c6c([H])c([H])c(Oc7c([H])c([H])c(F)c([H])c7F)c([H])c6[H])c(C(=O)N([H])[H])c5N([H])[H])C4([H])[H])c(Cl)c3C([H])([H])[H])c([H])c([H])c2C1([H])[H]

$$$$
58:0:0
     RDKit          3D

 90 98  0  0  1  0  0  0  0  0999 V2000
  -28.2260  -18.9410   20.2530 C   0  0  0  0  0  2  0  0  0  0  0  0
  -28.3350  -20.2410   19.4000 C   0  0  0  0  0  2  0  0  0  0  0  0
  -30.2590  -21.0230   20.6180 C   0  0  0  0  0  2  0  0  0  0  0  0
  -29.5190  -18.4860   20.9900 C   0  0  0  0  0  3  0  0  0  0  0  0
  -30.2660  -19.7560   21.5350 C   0  0  0  0  0  3  0  0  0  0  0  0
  -31.6740  -19.4580   22.0780 C   0  0  0  0  0  1  0  0  0  0  0  0
  -28.8910  -21.4010   20.1600 N   0  0  1  0  0  4  0  0  0  0  0  0
  -28.3090  -21.5090   20.9780 H   0  0  0  0  0  0  0  0  0  0  0  0
  -30.3250  -17.3010   20.3010 C   0  0  0  0  0  3  0  0  0  0  0  0
  -29.9530  -15.8490   20.8130 C   0  0  0  0  0  3  0  0  0  0  0  0
  -30.6720  -14.6110   20.1610 C   0  0  0  0  0  0  0  0  0  0  0  0
  -30.3650  -12.4320   19.0040 C   0  0  0  0  0  2  0  0  0  0  0  0
  -29.3690  -12.6350   17.8410 C   0  0  0  0  0  2  0  0  0  0  0  0
  -27.9130  -12.4910   18.3310 C   0  0  0  0  0  2  0  0  0  0  0  0
  -27.6320  -13.3150   19.6150 C   0  0  0  0  0  3  0  0  0  0  0  0
  -28.7360  -13.0860   20.6730 C   0  0  0  0  0  2  0  0  0  0  0  0
  -30.0280  -13.4100   20.0540 N   0  0  0  0  0  0  0  0  0  0  0  0
  -31.7880  -14.7780   19.6590 O   0  0  0  0  0  0  0  0  0  0  0  0
  -25.2760  -13.9400   20.4350 C   0  0  0  0  0  0  0  0  0  0  0  0
  -24.2160  -13.1740   20.8390 C   0  0  0  0  0  0  0  0  0  0  0  0
  -24.6600  -11.8180   20.7760 C   0  0  0  0  0  0  0  0  0  0  0  0
  -26.3000  -13.0480   20.1500 N   0  0  0  0  0  0  0  0  0  0  0  0
  -25.9360  -11.7680   20.4130 N   0  0  0  0  0  0  0  0  0  0  0  0
  -23.9280  -10.5630   20.9830 C   0  0  0  0  0  0  0  0  0  0  0  0
  -24.3790   -9.5860   21.8980 C   0  0  0  0  0  3  0  0  0  0  0  0
  -23.6480   -8.3950   22.0920 C   0  0  0  0  0  3  0  0  0  0  0  0
  -22.4510   -8.1700   21.3700 C   0  0  0  0  0  0  0  0  0  0  0  0
  -22.0190   -9.1350   20.4430 C   0  0  0  0  0  3  0  0  0  0  0  0
  -22.7500  -10.3180   20.2470 C   0  0  0  0  0  3  0  0  0  0  0  0
  -21.6900   -7.0320   21.4760 O   0  0  0  0  0  0  0  0  0  0  0  0
  -21.6590   -6.2900   22.6290 C   0  0  0  0  0  0  0  0  0  0  0  0
  -21.2540   -6.8480   23.8620 C   0  0  0  0  0  3  0  0  0  0  0  0
  -21.1710   -6.0320   25.0090 C   0  0  0  0  0  3  0  0  0  0  0  0
  -21.4810   -4.6620   24.9240 C   0  0  0  0  0  0  0  0  0  0  0  0
  -21.8780   -4.1050   23.6960 C   0  0  0  0  0  3  0  0  0  0  0  0
  -21.9640   -4.9170   22.5510 C   0  0  0  0  0  0  0  0  0  0  0  0
  -22.3260   -4.3710   21.3660 F   0  0  0  0  0  0  0  0  0  0  0  0
  -21.3930   -3.8770   26.0230 F   0  0  0  0  0  0  0  0  0  0  0  0
  -22.8360  -13.6640   21.1750 C   0  0  0  0  0  0  0  0  0  0  0  0
  -22.1360  -12.9650   22.0610 N   0  0  0  0  0  0  0  0  0  0  0  0
  -22.3900  -14.7010   20.6850 O   0  0  0  0  0  0  0  0  0  0  0  0
  -22.5120  -12.1260   22.4770 H   0  0  0  0  0  0  0  0  0  0  0  0
  -21.2120  -13.2730   22.3270 H   0  0  0  0  0  0  0  0  0  0  0  0
  -25.4500  -15.3100   20.2660 N   0  0  0  0  0  0  0  0  0  0  0  0
  -24.6990  -15.9730   20.4160 H   0  0  0  0  0  0  0  0  0  0  0  0
  -26.2960  -15.7420   19.9180 H   0  0  0  0  0  0  0  0  0  0  0  0
  -28.8140  -22.7170   19.4070 C   0  0  0  0  0  2  0  0  0  0  0  0
  -28.5440  -24.0340   20.2400 C   0  0  0  0  0  2  0  0  0  0  0  0
  -28.5120  -25.3590   19.3830 C   0  0  0  0  0  2  0  0  0  0  0  0
  -28.3600  -26.6330   20.0860 O   0  0  0  0  0  0  0  0  0  0  0  0
  -24.5730  -31.8640   23.1900 C   0  0  0  0  0  0  0  0  0  0  0  0
  -27.1830  -27.3820   20.0570 C   0  0  0  0  0  0  0  0  0  0  0  0
  -23.3570  -30.4850   21.5410 C   0  0  0  0  0  3  0  0  0  0  0  0
  -24.7980  -28.9480   20.0930 C   0  0  0  0  0  0  0  0  0  0  0  0
  -25.8900  -30.8150   21.3420 C   0  0  0  0  0  2  0  0  0  0  0  0
  -25.9640  -29.4470   20.6840 C   0  0  0  0  0  0  0  0  0  0  0  0
  -27.1550  -28.6710   20.6610 C   0  0  0  0  0  3  0  0  0  0  0  0
  -25.9850  -26.9090   19.4730 C   0  0  0  0  0  3  0  0  0  0  0  0
  -24.8070  -27.6820   19.4860 C   0  0  0  0  0  3  0  0  0  0  0  0
  -23.5610  -29.8190   20.1530 C   0  0  0  0  0  2  0  0  0  0  0  0
  -24.6260  -31.0710   22.0820 N   0  0  0  0  0  0  0  0  0  0  0  0
  -23.4940  -32.1380   23.7350 O   0  0  0  0  0  0  0  0  0  0  0  0
  -22.7010  -29.4590   22.4940 C   0  0  0  0  0  0  0  0  0  0  0  0
  -21.3750  -29.2850   22.3670 N   0  0  0  0  0  0  0  0  0  0  0  0
  -23.3820  -28.8250   23.3030 O   0  0  0  0  0  0  0  0  0  0  0  0
  -20.8850  -29.8480   21.6870 H   0  0  0  0  0  0  0  0  0  0  0  0
  -17.9990  -28.0850   22.8520 C   0  0  0  0  0  0  0  0  0  0  0  0
  -20.5560  -28.3420   23.1300 C   0  0  0  0  0  3  0  0  0  0  0  0
  -20.6600  -26.9150   22.5440 C   0  0  0  0  0  2  0  0  0  0  0  0
  -19.5590  -26.5990   21.5260 C   0  0  0  0  0  2  0  0  0  0  0  0
  -18.1760  -26.7400   22.1680 C   0  0  0  0  0  2  0  0  0  0  0  0
  -19.1170  -28.8440   23.2890 C   0  0  0  0  0  0  0  0  0  0  0  0
  -18.8970  -30.1040   23.8880 C   0  0  0  0  0  3  0  0  0  0  0  0
  -17.5930  -30.6050   24.0540 C   0  0  0  0  0  3  0  0  0  0  0  0
  -16.4890  -29.8430   23.6340 C   0  0  0  0  0  3  0  0  0  0  0  0
  -16.6930  -28.5850   23.0380 C   0  0  0  0  0  3  0  0  0  0  0  0
  -25.8630  -32.4860   23.8140 C   0  0  0  0  0  3  0  0  0  0  0  0
  -25.5590  -33.8790   24.1660 N   0  0  0  0  0  0  0  0  0  0  0  0
  -25.8850  -34.9420   23.4180 C   0  0  0  0  0  0  0  0  0  0  0  0
  -26.5450  -34.8520   22.3800 O   0  0  0  0  0  0  0  0  0  0  0  0
  -24.9730  -34.0220   24.9750 H   0  0  0  0  0  0  0  0  0  0  0  0
  -24.1560  -36.7420   23.1030 C   0  0  0  0  0  1  0  0  0  0  0  0
  -25.4030  -36.3240   23.8990 C   0  0  0  0  0  3  0  0  0  0  0  0
  -27.5440  -37.1970   24.7290 C   0  0  0  0  0  1  0  0  0  0  0  0
  -26.4360  -37.3770   23.7930 N   0  0  0  0  0  0  0  0  0  0  0  0
  -26.0320  -38.2960   23.9540 H   0  0  0  0  0  0  0  0  0  0  0  0
  -26.3870  -31.6940   25.0750 C   0  0  1  0  0  0  0  0  0  0  0  0
  -25.3010  -31.4420   26.1470 C   0  0  0  0  0  1  0  0  0  0  0  0
  -26.9650  -30.3220   24.6580 C   0  0  0  0  0  1  0  0  0  0  0  0
  -27.5430  -32.4760   25.7410 C   0  0  0  0  0  1  0  0  0  0  0  0
  1  4  1  0
  2  7  1  0
  2  1  1  0
  3  5  1  0
  4  9  1  0
  4  5  1  0
  5  6  1  0
  7  3  1  0
  7  8  1  1
  9 10  2  0
 11 10  1  0
 12 17  1  0
 13 14  1  0
 13 12  1  0
 15 14  1  0
 15 22  1  0
 15 16  1  0
 17 11  1  0
 17 16  1  0
 18 11  2  0
 19 20  2  0
 20 39  1  0
 21 20  1  0
 21 24  1  0
 22 23  1  0
 22 19  1  0
 23 21  2  0
 24 25  1  0
 25 26  2  0
 27 30  1  0
 27 26  1  0
 28 27  2  0
 29 28  1  0
 29 24  2  0
 30 31  1  0
 31 32  1  0
 32 33  2  0
 34 33  1  0
 34 38  1  0
 35 34  2  0
 36 31  2  0
 36 35  1  0
 37 36  1  0
 39 40  1  0
 40 43  1  0
 40 42  1  0
 41 39  2  0
 44 45  1  0
 44 19  1  0
 46 44  1  0
 47  7  1  0
 47 48  1  0
 49 50  1  0
 49 48  1  0
 51 62  2  0
 52 50  1  0
 52 57  1  0
 53 61  1  0
 53 63  1  0
 54 60  1  0
 54 56  1  0
 55 61  1  0
 56 55  1  0
 57 56  2  0
 58 59  1  0
 58 52  2  0
 59 54  2  0
 60 53  1  0
 61 51  1  0
 63 65  2  0
 64 63  1  0
 66 64  1  0
 67 76  2  0
 67 72  1  0
 68 64  1  0
 68 72  1  0
 69 68  1  0
 70 71  1  0
 70 69  1  0
 71 67  1  0
 72 73  2  0
 73 74  1  0
 75 74  2  0
 76 75  1  0
 77 51  1  0
 77 78  1  0
 77 87  1  0
 78 81  1  0
 79 83  1  0
 79 78  1  0
 80 79  2  0
 83 82  1  0
 85 83  1  0
 85 86  1  0
 85 84  1  0
 87 90  1  1
 87 88  1  0
 89 87  1  0
M  ISO  4  10 100  11 100  49 101  50 101
M  END
>  <TORSDO>  (58) 
F 21

>  <SCORE>  (58) 
-13.427

>  <name>  (58) 
58

>  <ligand_id>  (58) 
58

>  <original_smiles>  (58) 
[H]c1c([H])c([H])c2c(c1[H])C([H])([H])C([H])([H])C([H])([H])C2([H])N([H])C(=O)C1([H])N(C(=O)C([H])(N([H])C(=O)C([H])(N([H])C([H])([H])[H])C([H])([H])[H])C(C([H])([H])[H])(C([H])([H])[H])C([H])([H])[H])C([H])([H])c2c([H])c(OC([H])([H])C([H])([H])C([H])([H])[N+]3([H])C([H])([H])C([H])([H])C([H])(C([H])([H])C([H])([H])C(=O)N4C([H])([H])C([H])([H])C([H])([H])C([H])(n5nc(-c6c([H])c([H])c(Oc7c([H])c([H])c(F)c([H])c7F)c([H])c6[H])c(C(=O)N([H])[H])c5N([H])[H])C4([H])[H])C([H])(C([H])([H])[H])C3([H])[H])c([H])c([H])c2C1([H])[H]

>  <smiles>  (58) 
[H]c1c([H])c([H])c2c(c1[H])C([H])([H])C([H])([H])C([H])([H])C2([H])N([H])C(=O)C1([H])N(C(=O)C([H])(N([H])C(=O)C([H])(N([H])C([H])([H])[H])C([H])([H])[H])C(C([H])([H])[H])(C([H])([H])[H])C([H])([H])[H])C([H])([H])c2c([H])c(OC([H])([H])C([H])([H])C([H])([H])[N+]3([H])C([H])([H])C([H])([H])C([H])(C([H])([H])C([H])([H])C(=O)N4C([H])([H])C([H])([H])C([H])([H])C([H])(n5nc(-c6c([H])c([H])c(Oc7c([H])c([H])c(F)c([H])c7F)c([H])c6[H])c(C(=O)N([H])[H])c5N([H])[H])C4([H])[H])C([H])(C([H])([H])[H])C3([H])[H])c([H])c([H])c2C1([H])[H]

$$$$
59:0:0
     RDKit          3D

 94102  0  0  1  0  0  0  0  0999 V2000
  -30.2440  -19.5050   21.0780 C   0  0  0  0  0  3  0  0  0  0  0  0
  -29.8720  -18.2220   20.6020 C   0  0  0  0  0  0  0  0  0  0  0  0
  -28.8680  -18.1900   19.5930 C   0  0  0  0  0  0  0  0  0  0  0  0
  -29.6100  -20.6710   20.5970 C   0  0  0  0  0  0  0  0  0  0  0  0
  -28.2760  -19.4120   19.1860 C   0  0  0  0  0  0  0  0  0  0  0  0
  -28.4140  -16.8960   18.9450 C   0  0  0  0  0  1  0  0  0  0  0  0
  -28.6410  -20.6090   19.6750 N   0  0  0  0  0  0  0  0  0  0  0  0
  -29.9920  -21.9560   21.0390 N   0  0  0  0  0  0  0  0  0  0  0  0
  -27.0060  -19.4630   18.0140 Cl  0  0  0  0  0  0  0  0  0  0  0  0
  -30.7600  -21.9880   21.7030 H   0  0  0  0  0  0  0  0  0  0  0  0
  -28.5350  -23.1410   22.6340 C   0  0  0  0  0  1  0  0  0  0  0  0
  -28.9860  -23.0280   21.1660 C   0  0  0  0  0  3  0  0  0  0  0  0
  -29.4590  -24.4110   20.6180 C   0  0  0  0  0  2  0  0  0  0  0  0
  -28.2700  -25.2750   20.1180 C   0  0  0  0  0  2  0  0  0  0  0  0
  -28.4630  -26.7040   20.1410 O   0  0  0  0  0  0  0  0  0  0  0  0
  -24.6450  -31.8870   23.2210 C   0  0  0  0  0  0  0  0  0  0  0  0
  -27.3000  -27.4590   20.1080 C   0  0  0  0  0  0  0  0  0  0  0  0
  -23.4450  -30.4950   21.5700 C   0  0  0  0  0  3  0  0  0  0  0  0
  -24.9030  -28.9760   20.1320 C   0  0  0  0  0  0  0  0  0  0  0  0
  -25.9740  -30.8550   21.3830 C   0  0  0  0  0  2  0  0  0  0  0  0
  -26.0610  -29.4910   20.7240 C   0  0  0  0  0  0  0  0  0  0  0  0
  -27.2630  -28.7420   20.7070 C   0  0  0  0  0  3  0  0  0  0  0  0
  -26.1140  -26.9720   19.5020 C   0  0  0  0  0  3  0  0  0  0  0  0
  -24.9240  -27.7180   19.5120 C   0  0  0  0  0  3  0  0  0  0  0  0
  -23.6590  -29.8330   20.1830 C   0  0  0  0  0  2  0  0  0  0  0  0
  -24.7060  -31.0910   22.1160 N   0  0  0  0  0  0  0  0  0  0  0  0
  -23.5630  -32.1560   23.7610 O   0  0  0  0  0  0  0  0  0  0  0  0
  -22.7970  -29.4610   22.5220 C   0  0  0  0  0  0  0  0  0  0  0  0
  -21.4710  -29.2800   22.3990 N   0  0  0  0  0  0  0  0  0  0  0  0
  -23.4830  -28.8270   23.3260 O   0  0  0  0  0  0  0  0  0  0  0  0
  -20.9790  -29.8460   21.7210 H   0  0  0  0  0  0  0  0  0  0  0  0
  -18.0930  -28.0980   22.9120 C   0  0  0  0  0  0  0  0  0  0  0  0
  -20.6540  -28.3380   23.1640 C   0  0  0  0  0  3  0  0  0  0  0  0
  -20.7440  -26.9130   22.5690 C   0  0  0  0  0  2  0  0  0  0  0  0
  -19.6320  -26.6100   21.5610 C   0  0  0  0  0  2  0  0  0  0  0  0
  -18.2570  -26.7570   22.2190 C   0  0  0  0  0  2  0  0  0  0  0  0
  -19.2200  -28.8490   23.3420 C   0  0  0  0  0  0  0  0  0  0  0  0
  -19.0150  -30.1070   23.9500 C   0  0  0  0  0  3  0  0  0  0  0  0
  -17.7160  -30.6150   24.1320 C   0  0  0  0  0  3  0  0  0  0  0  0
  -16.6030  -29.8620   23.7170 C   0  0  0  0  0  3  0  0  0  0  0  0
  -16.7930  -28.6050   23.1150 C   0  0  0  0  0  3  0  0  0  0  0  0
  -25.9300  -32.5190   23.8420 C   0  0  0  0  0  3  0  0  0  0  0  0
  -26.4560  -31.7370   25.1070 C   0  0  1  0  0  0  0  0  0  0  0  0
  -25.3680  -31.4820   26.1760 C   0  0  0  0  0  1  0  0  0  0  0  0
  -27.0450  -30.3680   24.6990 C   0  0  0  0  0  1  0  0  0  0  0  0
  -27.6060  -32.5300   25.7720 C   0  0  0  0  0  1  0  0  0  0  0  0
  -25.6170  -33.9130   24.1840 N   0  0  0  0  0  0  0  0  0  0  0  0
  -25.9330  -34.9710   23.4240 C   0  0  0  0  0  0  0  0  0  0  0  0
  -26.5870  -34.8750   22.3830 O   0  0  0  0  0  0  0  0  0  0  0  0
  -25.0360  -34.0600   24.9960 H   0  0  0  0  0  0  0  0  0  0  0  0
  -24.1840  -36.7470   23.1000 C   0  0  0  0  0  1  0  0  0  0  0  0
  -25.4420  -36.3540   23.8920 C   0  0  0  0  0  3  0  0  0  0  0  0
  -27.5800  -37.2540   24.6920 C   0  0  0  0  0  1  0  0  0  0  0  0
  -26.4640  -37.4160   23.7650 N   0  0  0  0  0  0  0  0  0  0  0  0
  -26.0540  -38.3320   23.9190 H   0  0  0  0  0  0  0  0  0  0  0  0
  -30.6090  -16.9890   21.1920 C   0  0  0  0  0  2  0  0  0  0  0  0
  -30.7020  -14.5650   20.5000 C   0  0  0  0  0  0  0  0  0  0  0  0
  -30.3820  -12.4000   19.3490 C   0  0  0  0  0  2  0  0  0  0  0  0
  -29.4590  -12.5890   18.1300 C   0  0  0  0  0  2  0  0  0  0  0  0
  -27.9820  -12.4350   18.5410 C   0  0  0  0  0  2  0  0  0  0  0  0
  -27.6260  -13.2750   19.7950 C   0  0  0  0  0  3  0  0  0  0  0  0
  -28.6730  -13.1050   20.9200 C   0  0  0  0  0  2  0  0  0  0  0  0
  -29.9990  -13.4050   20.3570 N   0  0  0  0  0  0  0  0  0  0  0  0
  -31.8420  -14.6980   20.0470 O   0  0  0  0  0  0  0  0  0  0  0  0
  -30.0480  -15.6220   21.0340 N   0  0  0  0  0  0  0  0  0  0  0  0
  -29.1070  -15.4780   21.3630 H   0  0  0  0  0  0  0  0  0  0  0  0
  -25.2180  -13.8950   20.4620 C   0  0  0  0  0  0  0  0  0  0  0  0
  -24.1460  -13.1260   20.8240 C   0  0  0  0  0  0  0  0  0  0  0  0
  -24.6090  -11.7770   20.8170 C   0  0  0  0  0  0  0  0  0  0  0  0
  -26.2680  -13.0100   20.2600 N   0  0  0  0  0  0  0  0  0  0  0  0
  -25.9030  -11.7330   20.5300 N   0  0  0  0  0  0  0  0  0  0  0  0
  -23.8800  -10.5170   21.0080 C   0  0  0  0  0  0  0  0  0  0  0  0
  -24.2980   -9.5600   21.9590 C   0  0  0  0  0  3  0  0  0  0  0  0
  -23.5700   -8.3640   22.1380 C   0  0  0  0  0  3  0  0  0  0  0  0
  -22.4110   -8.1170   21.3640 C   0  0  0  0  0  0  0  0  0  0  0  0
  -22.0140   -9.0620   20.4010 C   0  0  0  0  0  3  0  0  0  0  0  0
  -22.7420  -10.2490   20.2210 C   0  0  0  0  0  3  0  0  0  0  0  0
  -21.6570   -6.9720   21.4520 O   0  0  0  0  0  0  0  0  0  0  0  0
  -21.5890   -6.2420   22.6110 C   0  0  0  0  0  0  0  0  0  0  0  0
  -21.1330   -6.8090   23.8230 C   0  0  0  0  0  3  0  0  0  0  0  0
  -21.0130   -6.0050   24.9720 C   0  0  0  0  0  3  0  0  0  0  0  0
  -21.3370   -4.6360   24.9140 C   0  0  0  0  0  0  0  0  0  0  0  0
  -21.7850   -4.0700   23.7070 C   0  0  0  0  0  3  0  0  0  0  0  0
  -21.9070   -4.8710   22.5590 C   0  0  0  0  0  0  0  0  0  0  0  0
  -22.3190   -4.3160   21.3930 F   0  0  0  0  0  0  0  0  0  0  0  0
  -21.2140   -3.8620   26.0170 F   0  0  0  0  0  0  0  0  0  0  0  0
  -22.7450  -13.6090   21.0680 C   0  0  0  0  0  0  0  0  0  0  0  0
  -22.0000  -12.9180   21.9260 N   0  0  0  0  0  0  0  0  0  0  0  0
  -22.3150  -14.6300   20.5340 O   0  0  0  0  0  0  0  0  0  0  0  0
  -22.3590  -12.0920   22.3820 H   0  0  0  0  0  0  0  0  0  0  0  0
  -21.0600  -13.2220   22.1330 H   0  0  0  0  0  0  0  0  0  0  0  0
  -25.3780  -15.2620   20.2710 N   0  0  0  0  0  0  0  0  0  0  0  0
  -24.5960  -15.9040   20.3450 H   0  0  0  0  0  0  0  0  0  0  0  0
  -26.2170  -15.7030   19.9210 H   0  0  0  0  0  0  0  0  0  0  0  0
  2  1  1  0
  2 56  1  0
  3  2  2  0
  4  8  1  0
  4  1  2  0
  5  3  1  0
  5  7  2  0
  6  3  1  0
  7  4  1  0
  8 12  1  0
  8 10  1  0
  9  5  1  0
 12 11  1  0
 13 12  1  0
 14 15  1  0
 14 13  1  0
 16 27  2  0
 17 15  1  0
 17 22  1  0
 18 26  1  0
 18 28  1  0
 19 25  1  0
 19 21  1  0
 20 26  1  0
 21 20  1  0
 22 21  2  0
 23 24  1  0
 23 17  2  0
 24 19  2  0
 25 18  1  0
 26 16  1  0
 28 30  2  0
 29 28  1  0
 31 29  1  0
 32 41  2  0
 32 37  1  0
 33 29  1  0
 33 37  1  0
 34 33  1  0
 35 36  1  0
 35 34  1  0
 36 32  1  0
 37 38  2  0
 38 39  1  0
 40 39  2  0
 41 40  1  0
 42 16  1  0
 42 47  1  0
 42 43  1  0
 43 46  1  1
 43 44  1  0
 45 43  1  0
 47 50  1  0
 48 52  1  0
 48 47  1  0
 49 48  2  0
 52 51  1  0
 54 52  1  0
 54 55  1  0
 54 53  1  0
 57 65  1  0
 58 63  1  0
 59 60  1  0
 59 58  1  0
 61 60  1  0
 61 70  1  0
 61 62  1  0
 63 57  1  0
 63 62  1  0
 64 57  2  0
 65 56  1  0
 65 66  1  0
 67 68  2  0
 68 87  1  0
 69 68  1  0
 69 72  1  0
 70 67  1  0
 70 71  1  0
 71 69  2  0
 72 73  1  0
 73 74  2  0
 75 78  1  0
 75 74  1  0
 76 75  2  0
 77 76  1  0
 77 72  2  0
 78 79  1  0
 79 80  1  0
 80 81  2  0
 82 81  1  0
 82 86  1  0
 83 82  2  0
 84 79  2  0
 84 83  1  0
 85 84  1  0
 87 88  1  0
 88 91  1  0
 88 90  1  0
 89 87  2  0
 92 93  1  0
 92 67  1  0
 94 92  1  0
M  ISO  4  14 101  15 101  57 100  65 100
M  END
>  <TORSDO>  (59) 
F 20

>  <SCORE>  (59) 
-13.897

>  <name>  (59) 
59

>  <ligand_id>  (59) 
59

>  <original_smiles>  (59) 
[H]c1c([H])c([H])c2c(c1[H])C([H])([H])C([H])([H])C([H])([H])C2([H])N([H])C(=O)C1([H])N(C(=O)C([H])(N([H])C(=O)C([H])(N([H])C([H])([H])[H])C([H])([H])[H])C(C([H])([H])[H])(C([H])([H])[H])C([H])([H])[H])C([H])([H])c2c([H])c(OC([H])([H])C([H])([H])C([H])(N([H])c3nc(Cl)c(C([H])([H])[H])c(C([H])([H])N([H])C(=O)N4C([H])([H])C([H])([H])C([H])([H])C([H])(n5nc(-c6c([H])c([H])c(Oc7c([H])c([H])c(F)c([H])c7F)c([H])c6[H])c(C(=O)N([H])[H])c5N([H])[H])C4([H])[H])c3[H])C([H])([H])[H])c([H])c([H])c2C1([H])[H]

>  <smiles>  (59) 
[H]c1c([H])c([H])c2c(c1[H])C([H])([H])C([H])([H])C([H])([H])C2([H])N([H])C(=O)C1([H])N(C(=O)C([H])(N([H])C(=O)C([H])(N([H])C([H])([H])[H])C([H])([H])[H])C(C([H])([H])[H])(C([H])([H])[H])C([H])([H])[H])C([H])([H])c2c([H])c(OC([H])([H])C([H])([H])C([H])(N([H])c3nc(Cl)c(C([H])([H])[H])c(C([H])([H])N([H])C(=O)N4C([H])([H])C([H])([H])C([H])([H])C([H])(n5nc(-c6c([H])c([H])c(Oc7c([H])c([H])c(F)c([H])c7F)c([H])c6[H])c(C(=O)N([H])[H])c5N([H])[H])C4([H])[H])c3[H])C([H])([H])[H])c([H])c([H])c2C1([H])[H]

$$$$
60:0:0
     RDKit          3D

 97105  0  0  1  0  0  0  0  0999 V2000
  -29.8970  -21.7520   18.9290 N   0  0  0  0  0  4  0  0  0  0  0  0
  -29.1280  -21.8390   19.5720 H   0  0  0  0  0  0  0  0  0  0  0  0
  -29.6290  -21.0680   18.2420 H   0  0  0  0  0  0  0  0  0  0  0  0
  -29.6860  -22.8730   16.7460 C   0  0  0  0  0  1  0  0  0  0  0  0
  -30.1330  -23.0260   18.2130 C   0  0  0  0  0  3  0  0  0  0  0  0
  -29.4150  -24.2030   18.9090 C   0  0  0  0  0  2  0  0  0  0  0  0
  -30.0270  -25.5750   18.5630 C   0  0  0  0  0  2  0  0  0  0  0  0
  -29.0180  -26.7240   18.6470 C   0  0  0  0  0  2  0  0  0  0  0  0
  -28.5000  -26.8440   19.9680 O   0  0  0  0  0  0  0  0  0  0  0  0
  -24.6130  -31.8610   23.1910 C   0  0  0  0  0  0  0  0  0  0  0  0
  -27.3130  -27.5260   20.0320 C   0  0  0  0  0  0  0  0  0  0  0  0
  -23.4210  -30.4700   21.5260 C   0  0  0  0  0  3  0  0  0  0  0  0
  -24.8910  -28.9660   20.0860 C   0  0  0  0  0  0  0  0  0  0  0  0
  -25.9390  -30.8630   21.3360 C   0  0  0  0  0  2  0  0  0  0  0  0
  -26.0390  -29.5010   20.6860 C   0  0  0  0  0  0  0  0  0  0  0  0
  -27.2520  -28.7810   20.6700 C   0  0  0  0  0  3  0  0  0  0  0  0
  -26.1460  -26.9840   19.4520 C   0  0  0  0  0  3  0  0  0  0  0  0
  -24.9360  -27.7000   19.4740 C   0  0  0  0  0  3  0  0  0  0  0  0
  -23.6380  -29.8100   20.1370 C   0  0  0  0  0  2  0  0  0  0  0  0
  -24.6750  -31.0790   22.0760 N   0  0  0  0  0  0  0  0  0  0  0  0
  -23.5290  -32.1150   23.7350 O   0  0  0  0  0  0  0  0  0  0  0  0
  -22.7800  -29.4290   22.4710 C   0  0  0  0  0  0  0  0  0  0  0  0
  -21.4620  -29.2210   22.3240 N   0  0  0  0  0  0  0  0  0  0  0  0
  -23.4650  -28.8110   23.2890 O   0  0  0  0  0  0  0  0  0  0  0  0
  -20.9690  -29.7750   21.6360 H   0  0  0  0  0  0  0  0  0  0  0  0
  -18.1130  -27.9310   22.7320 C   0  0  0  0  0  0  0  0  0  0  0  0
  -20.6530  -28.2610   23.0730 C   0  0  0  0  0  3  0  0  0  0  0  0
  -20.8120  -26.8320   22.5030 C   0  0  0  0  0  2  0  0  0  0  0  0
  -19.7470  -26.4760   21.4610 C   0  0  0  0  0  2  0  0  0  0  0  0
  -18.3450  -26.5850   22.0670 C   0  0  0  0  0  2  0  0  0  0  0  0
  -19.1980  -28.7240   23.1910 C   0  0  0  0  0  0  0  0  0  0  0  0
  -18.9290  -29.9830   23.7710 C   0  0  0  0  0  3  0  0  0  0  0  0
  -17.6060  -30.4480   23.8980 C   0  0  0  0  0  3  0  0  0  0  0  0
  -16.5350  -29.6520   23.4560 C   0  0  0  0  0  3  0  0  0  0  0  0
  -16.7900  -28.3950   22.8800 C   0  0  0  0  0  3  0  0  0  0  0  0
  -25.8940  -32.4920   23.8200 C   0  0  0  0  0  3  0  0  0  0  0  0
  -25.5770  -33.8850   24.1620 N   0  0  0  0  0  0  0  0  0  0  0  0
  -25.9080  -34.9450   23.4120 C   0  0  0  0  0  0  0  0  0  0  0  0
  -26.5850  -34.8520   22.3820 O   0  0  0  0  0  0  0  0  0  0  0  0
  -24.9770  -34.0310   24.9600 H   0  0  0  0  0  0  0  0  0  0  0  0
  -24.1680  -36.7260   23.0610 C   0  0  0  0  0  1  0  0  0  0  0  0
  -25.4100  -36.3270   23.8750 C   0  0  0  0  0  3  0  0  0  0  0  0
  -27.5370  -37.2180   24.7180 C   0  0  0  0  0  1  0  0  0  0  0  0
  -26.4360  -37.3870   23.7730 N   0  0  0  0  0  0  0  0  0  0  0  0
  -26.0240  -38.3030   23.9280 H   0  0  0  0  0  0  0  0  0  0  0  0
  -26.4140  -31.7090   25.0890 C   0  0  1  0  0  0  0  0  0  0  0  0
  -25.3210  -31.4540   26.1520 C   0  0  0  0  0  1  0  0  0  0  0  0
  -27.0050  -30.3400   24.6780 C   0  0  0  0  0  1  0  0  0  0  0  0
  -27.5590  -32.5040   25.7610 C   0  0  0  0  0  1  0  0  0  0  0  0
  -31.0730  -21.1920   19.6280 C   0  0  0  0  0  2  0  0  0  0  0  0
  -30.7050  -18.8740   18.7660 C   0  0  0  0  0  3  0  0  0  0  0  0
  -30.8650  -19.7040   19.8910 C   0  0  0  0  0  0  0  0  0  0  0  0
  -30.4760  -17.4940   18.8980 C   0  0  0  0  0  0  0  0  0  0  0  0
  -30.8060  -19.1410   21.1920 C   0  0  0  0  0  0  0  0  0  0  0  0
  -30.5080  -16.9050   20.1920 C   0  0  0  0  0  0  0  0  0  0  0  0
  -30.6420  -17.7350   21.3320 C   0  0  0  0  0  0  0  0  0  0  0  0
  -30.1510  -16.7270   17.6240 C   0  0  0  0  0  1  0  0  0  0  0  0
  -30.9180  -20.0420   22.4180 C   0  0  0  0  0  1  0  0  0  0  0  0
  -30.5860  -17.0000   22.9030 Cl  0  0  0  0  0  0  0  0  0  0  0  0
  -31.0850  -14.4820   20.0760 C   0  0  0  0  0  0  0  0  0  0  0  0
  -30.7470  -12.3060   19.0010 C   0  0  0  0  0  2  0  0  0  0  0  0
  -29.7650  -12.5180   17.8290 C   0  0  0  0  0  2  0  0  0  0  0  0
  -28.3030  -12.4210   18.3090 C   0  0  0  0  0  2  0  0  0  0  0  0
  -28.0220  -13.2780   19.5710 C   0  0  0  0  0  3  0  0  0  0  0  0
  -29.1090  -13.0390   20.6450 C   0  0  0  0  0  2  0  0  0  0  0  0
  -30.4220  -13.3000   20.0310 N   0  0  0  0  0  0  0  0  0  0  0  0
  -32.2350  -14.6310   19.6570 O   0  0  0  0  0  0  0  0  0  0  0  0
  -30.3080  -15.5160   20.4270 N   0  0  0  0  0  0  0  0  0  0  0  0
  -29.4650  -15.2760   20.9260 H   0  0  0  0  0  0  0  0  0  0  0  0
  -25.6700  -13.9430   20.3840 C   0  0  0  0  0  0  0  0  0  0  0  0
  -24.5950  -13.1930   20.7800 C   0  0  0  0  0  0  0  0  0  0  0  0
  -25.0170  -11.8300   20.7060 C   0  0  0  0  0  0  0  0  0  0  0  0
  -26.6800  -13.0370   20.0970 N   0  0  0  0  0  0  0  0  0  0  0  0
  -26.2910  -11.7610   20.3480 N   0  0  0  0  0  0  0  0  0  0  0  0
  -24.2650  -10.5840   20.9020 C   0  0  0  0  0  0  0  0  0  0  0  0
  -24.6610   -9.6270   21.8620 C   0  0  0  0  0  3  0  0  0  0  0  0
  -23.9110   -8.4450   22.0440 C   0  0  0  0  0  3  0  0  0  0  0  0
  -22.7520   -8.2120   21.2660 C   0  0  0  0  0  0  0  0  0  0  0  0
  -22.3770   -9.1590   20.2950 C   0  0  0  0  0  3  0  0  0  0  0  0
  -23.1260  -10.3320   20.1120 C   0  0  0  0  0  3  0  0  0  0  0  0
  -21.9780   -7.0810   21.3550 O   0  0  0  0  0  0  0  0  0  0  0  0
  -21.8200   -6.4080   22.5400 C   0  0  0  0  0  0  0  0  0  0  0  0
  -21.3020   -7.0390   23.6910 C   0  0  0  0  0  3  0  0  0  0  0  0
  -21.0920   -6.2930   24.8680 C   0  0  0  0  0  3  0  0  0  0  0  0
  -21.3910   -4.9170   24.8930 C   0  0  0  0  0  0  0  0  0  0  0  0
  -21.9020   -4.2860   23.7440 C   0  0  0  0  0  3  0  0  0  0  0  0
  -22.1130   -5.0300   22.5710 C   0  0  0  0  0  0  0  0  0  0  0  0
  -22.5860   -4.4140   21.4610 F   0  0  0  0  0  0  0  0  0  0  0  0
  -21.1820   -4.1980   26.0200 F   0  0  0  0  0  0  0  0  0  0  0  0
  -23.2230  -13.7050   21.1160 C   0  0  0  0  0  0  0  0  0  0  0  0
  -22.5200  -13.0210   22.0120 N   0  0  0  0  0  0  0  0  0  0  0  0
  -22.7860  -14.7420   20.6220 O   0  0  0  0  0  0  0  0  0  0  0  0
  -22.8870  -12.1800   22.4340 H   0  0  0  0  0  0  0  0  0  0  0  0
  -21.6000  -13.3420   22.2820 H   0  0  0  0  0  0  0  0  0  0  0  0
  -25.8660  -15.3110   20.2240 N   0  0  0  0  0  0  0  0  0  0  0  0
  -25.1210  -15.9820   20.3740 H   0  0  0  0  0  0  0  0  0  0  0  0
  -26.7150  -15.7370   19.8710 H   0  0  0  0  0  0  0  0  0  0  0  0
  1  2  1  0
  1 50  1  0
  3  1  1  0
  5  4  1  0
  5  6  1  0
  5  1  1  0
  7  8  1  0
  7  6  1  0
  8  9  1  0
  9 11  1  0
 10 21  2  0
 11 16  1  0
 12 20  1  0
 12 22  1  0
 13 19  1  0
 13 15  1  0
 14 20  1  0
 15 14  1  0
 16 15  2  0
 17 18  1  0
 17 11  2  0
 18 13  2  0
 19 12  1  0
 20 10  1  0
 22 24  2  0
 23 22  1  0
 25 23  1  0
 26 35  2  0
 26 31  1  0
 27 23  1  0
 27 31  1  0
 28 27  1  0
 29 30  1  0
 29 28  1  0
 30 26  1  0
 31 32  2  0
 32 33  1  0
 34 33  2  0
 35 34  1  0
 36 10  1  0
 36 37  1  0
 36 46  1  0
 37 40  1  0
 38 42  1  0
 38 37  1  0
 39 38  2  0
 42 41  1  0
 44 42  1  0
 44 45  1  0
 44 43  1  0
 46 49  1  1
 46 47  1  0
 48 46  1  0
 50 52  1  0
 51 53  2  0
 51 52  1  0
 52 54  2  0
 53 55  1  0
 54 56  1  0
 54 58  1  0
 55 68  1  0
 55 56  2  0
 56 59  1  0
 57 53  1  0
 60 68  1  0
 61 66  1  0
 62 63  1  0
 62 61  1  0
 64 63  1  0
 64 73  1  0
 64 65  1  0
 66 60  1  0
 66 65  1  0
 67 60  2  0
 68 69  1  0
 70 71  2  0
 71 90  1  0
 72 71  1  0
 72 75  1  0
 73 74  1  0
 73 70  1  0
 74 72  2  0
 75 76  1  0
 76 77  2  0
 78 81  1  0
 78 77  1  0
 79 78  2  0
 80 79  1  0
 80 75  2  0
 81 82  1  0
 82 87  2  0
 82 83  1  0
 83 84  2  0
 84 85  1  0
 85 89  1  0
 86 85  2  0
 87 86  1  0
 88 87  1  0
 90 91  1  0
 91 94  1  0
 91 93  1  0
 92 90  2  0
 95 96  1  0
 95 70  1  0
 97 95  1  0
M  ISO  4   8 101   9 101  60 100  68 100
M  END
>  <TORSDO>  (60) 
F 22

>  <SCORE>  (60) 
-12.166

>  <name>  (60) 
60

>  <ligand_id>  (60) 
60

>  <original_smiles>  (60) 
[H]c1c([H])c([H])c2c(c1[H])C([H])([H])C([H])([H])C([H])([H])C2([H])N([H])C(=O)C1([H])N(C(=O)C([H])(N([H])C(=O)C([H])(N([H])C([H])([H])[H])C([H])([H])[H])C(C([H])([H])[H])(C([H])([H])[H])C([H])([H])[H])C([H])([H])c2c([H])c(OC([H])([H])C([H])([H])C([H])([H])C([H])(C([H])([H])[H])[N+]([H])([H])C([H])([H])c3c([H])c(C([H])([H])[H])c(N([H])C(=O)N4C([H])([H])C([H])([H])C([H])([H])C([H])(n5nc(-c6c([H])c([H])c(Oc7c([H])c([H])c(F)c([H])c7F)c([H])c6[H])c(C(=O)N([H])[H])c5N([H])[H])C4([H])[H])c(Cl)c3C([H])([H])[H])c([H])c([H])c2C1([H])[H]

>  <smiles>  (60) 
[H]c1c([H])c([H])c2c(c1[H])C([H])([H])C([H])([H])C([H])([H])C2([H])N([H])C(=O)C1([H])N(C(=O)C([H])(N([H])C(=O)C([H])(N([H])C([H])([H])[H])C([H])([H])[H])C(C([H])([H])[H])(C([H])([H])[H])C([H])([H])[H])C([H])([H])c2c([H])c(OC([H])([H])C([H])([H])C([H])([H])C([H])(C([H])([H])[H])[N+]([H])([H])C([H])([H])c3c([H])c(C([H])([H])[H])c(N([H])C(=O)N4C([H])([H])C([H])([H])C([H])([H])C([H])(n5nc(-c6c([H])c([H])c(Oc7c([H])c([H])c(F)c([H])c7F)c([H])c6[H])c(C(=O)N([H])[H])c5N([H])[H])C4([H])[H])c(Cl)c3C([H])([H])[H])c([H])c([H])c2C1([H])[H]

$$$$
61:0:0
     RDKit          3D

 95103  0  0  1  0  0  0  0  0999 V2000
  -28.4950  -21.3420   19.9960 C   0  0  0  0  0  2  0  0  0  0  0  0
  -29.6110  -19.3430   21.2130 C   0  0  0  0  0  3  0  0  0  0  0  0
  -29.2610  -19.9620   19.9850 C   0  0  0  0  0  0  0  0  0  0  0  0
  -29.9270  -17.1020   20.1730 C   0  0  0  0  0  0  0  0  0  0  0  0
  -29.9190  -17.9590   21.3060 C   0  0  0  0  0  0  0  0  0  0  0  0
  -29.3460  -19.1300   18.8290 C   0  0  0  0  0  0  0  0  0  0  0  0
  -29.6630  -17.7290   18.9150 C   0  0  0  0  0  0  0  0  0  0  0  0
  -30.1980  -17.2960   22.8800 Cl  0  0  0  0  0  0  0  0  0  0  0  0
  -28.9520  -19.8160   17.2890 Cl  0  0  0  0  0  0  0  0  0  0  0  0
  -29.5790  -16.7770   17.4670 Cl  0  0  0  0  0  0  0  0  0  0  0  0
  -30.7620  -14.6320   19.9500 C   0  0  0  0  0  0  0  0  0  0  0  0
  -30.5120  -12.3590   18.9820 C   0  0  0  0  0  2  0  0  0  0  0  0
  -29.4990  -12.4590   17.8200 C   0  0  0  0  0  2  0  0  0  0  0  0
  -28.0530  -12.3100   18.3370 C   0  0  0  0  0  2  0  0  0  0  0  0
  -27.7660  -13.2110   19.5670 C   0  0  0  0  0  3  0  0  0  0  0  0
  -28.8850  -13.0750   20.6250 C   0  0  0  0  0  2  0  0  0  0  0  0
  -30.1620  -13.4000   19.9670 N   0  0  0  0  0  0  0  0  0  0  0  0
  -31.8820  -14.8010   19.4600 O   0  0  0  0  0  0  0  0  0  0  0  0
  -29.9980  -15.6580   20.4260 N   0  0  0  0  0  0  0  0  0  0  0  0
  -29.2530  -15.3320   21.0220 H   0  0  0  0  0  0  0  0  0  0  0  0
  -25.4710  -13.8510   20.5310 C   0  0  0  0  0  0  0  0  0  0  0  0
  -24.3940  -13.0970   20.9120 C   0  0  0  0  0  0  0  0  0  0  0  0
  -24.7740  -11.7360   20.7090 C   0  0  0  0  0  0  0  0  0  0  0  0
  -26.4430  -12.9500   20.1300 N   0  0  0  0  0  0  0  0  0  0  0  0
  -26.0330  -11.6660   20.2920 N   0  0  0  0  0  0  0  0  0  0  0  0
  -23.9950  -10.4980   20.8350 C   0  0  0  0  0  0  0  0  0  0  0  0
  -24.3460   -9.4950   21.7650 C   0  0  0  0  0  3  0  0  0  0  0  0
  -23.5700   -8.3210   21.8800 C   0  0  0  0  0  3  0  0  0  0  0  0
  -22.4270   -8.1430   21.0640 C   0  0  0  0  0  0  0  0  0  0  0  0
  -22.0960   -9.1340   20.1230 C   0  0  0  0  0  3  0  0  0  0  0  0
  -22.8720  -10.2980   20.0060 C   0  0  0  0  0  3  0  0  0  0  0  0
  -21.6290   -7.0240   21.0880 O   0  0  0  0  0  0  0  0  0  0  0  0
  -21.3590   -6.3590   22.2560 C   0  0  0  0  0  0  0  0  0  0  0  0
  -20.7520   -7.0020   23.3570 C   0  0  0  0  0  3  0  0  0  0  0  0
  -20.4280   -6.2630   24.5130 C   0  0  0  0  0  3  0  0  0  0  0  0
  -20.7030   -4.8830   24.5670 C   0  0  0  0  0  0  0  0  0  0  0  0
  -21.3040   -4.2410   23.4710 C   0  0  0  0  0  3  0  0  0  0  0  0
  -21.6280   -4.9770   22.3170 C   0  0  0  0  0  0  0  0  0  0  0  0
  -22.1880   -4.3490   21.2540 F   0  0  0  0  0  0  0  0  0  0  0  0
  -20.3870   -4.1710   25.6750 F   0  0  0  0  0  0  0  0  0  0  0  0
  -23.0520  -13.6110   21.3470 C   0  0  0  0  0  0  0  0  0  0  0  0
  -22.3740  -12.8830   22.2270 N   0  0  0  0  0  0  0  0  0  0  0  0
  -22.6180  -14.6890   20.9430 O   0  0  0  0  0  0  0  0  0  0  0  0
  -22.7390  -12.0090   22.5740 H   0  0  0  0  0  0  0  0  0  0  0  0
  -21.4770  -13.2080   22.5610 H   0  0  0  0  0  0  0  0  0  0  0  0
  -25.6980  -15.2230   20.4750 N   0  0  0  0  0  0  0  0  0  0  0  0
  -24.9750  -15.8980   20.6940 H   0  0  0  0  0  0  0  0  0  0  0  0
  -26.5360  -15.6520   20.1060 H   0  0  0  0  0  0  0  0  0  0  0  0
  -29.1500  -22.7100   19.8390 N   0  0  0  0  0  4  0  0  0  0  0  0
  -29.7710  -22.6680   19.0470 H   0  0  0  0  0  0  0  0  0  0  0  0
  -29.7290  -22.8630   20.6510 H   0  0  0  0  0  0  0  0  0  0  0  0
  -27.1470  -23.5810   18.5810 C   0  0  0  0  0  1  0  0  0  0  0  0
  -28.2010  -23.9160   19.6770 C   0  0  0  0  0  3  0  0  0  0  0  0
  -28.8670  -25.3490   19.3540 C   0  0  0  0  0  2  0  0  0  0  0  0
  -28.6080  -26.6050   20.1020 O   0  0  0  0  0  0  0  0  0  0  0  0
  -24.6250  -31.7550   23.1700 C   0  0  0  0  0  0  0  0  0  0  0  0
  -27.4370  -27.3740   20.0290 C   0  0  0  0  0  0  0  0  0  0  0  0
  -23.4860  -30.3430   21.4950 C   0  0  0  0  0  3  0  0  0  0  0  0
  -25.0020  -28.8810   20.0490 C   0  0  0  0  0  0  0  0  0  0  0  0
  -26.0090  -30.7690   21.3300 C   0  0  0  0  0  2  0  0  0  0  0  0
  -26.1470  -29.4070   20.6600 C   0  0  0  0  0  0  0  0  0  0  0  0
  -27.3620  -28.6630   20.6420 C   0  0  0  0  0  3  0  0  0  0  0  0
  -26.2630  -26.8960   19.4130 C   0  0  0  0  0  3  0  0  0  0  0  0
  -25.0600  -27.6290   19.4210 C   0  0  0  0  0  3  0  0  0  0  0  0
  -23.7320  -29.7040   20.1030 C   0  0  0  0  0  2  0  0  0  0  0  0
  -24.7250  -30.9720   22.0560 N   0  0  0  0  0  0  0  0  0  0  0  0
  -23.5280  -31.9800   23.7010 O   0  0  0  0  0  0  0  0  0  0  0  0
  -22.8570  -29.2820   22.4310 C   0  0  0  0  0  0  0  0  0  0  0  0
  -21.5450  -29.0410   22.2760 N   0  0  0  0  0  0  0  0  0  0  0  0
  -23.5500  -28.6810   23.2560 O   0  0  0  0  0  0  0  0  0  0  0  0
  -21.0410  -29.5860   21.5900 H   0  0  0  0  0  0  0  0  0  0  0  0
  -18.2230  -27.6710   22.6940 C   0  0  0  0  0  0  0  0  0  0  0  0
  -20.7590  -28.0570   23.0210 C   0  0  0  0  0  3  0  0  0  0  0  0
  -20.9440  -26.6380   22.4360 C   0  0  0  0  0  2  0  0  0  0  0  0
  -19.8820  -26.2690   21.3960 C   0  0  0  0  0  2  0  0  0  0  0  0
  -18.4810  -26.3380   22.0110 C   0  0  0  0  0  2  0  0  0  0  0  0
  -19.2920  -28.4840   23.1550 C   0  0  0  0  0  0  0  0  0  0  0  0
  -18.9970  -29.7290   23.7540 C   0  0  0  0  0  3  0  0  0  0  0  0
  -17.6650  -30.1620   23.8950 C   0  0  0  0  0  3  0  0  0  0  0  0
  -16.6100  -29.3470   23.4500 C   0  0  0  0  0  3  0  0  0  0  0  0
  -16.8890  -28.1020   22.8560 C   0  0  0  0  0  3  0  0  0  0  0  0
  -25.8780  -32.4230   23.8150 C   0  0  0  0  0  3  0  0  0  0  0  0
  -26.4150  -31.6480   25.0810 C   0  0  1  0  0  0  0  0  0  0  0  0
  -25.3230  -31.3480   26.1330 C   0  0  0  0  0  1  0  0  0  0  0  0
  -27.0560  -30.3010   24.6670 C   0  0  0  0  0  1  0  0  0  0  0  0
  -27.5270  -32.4760   25.7690 C   0  0  0  0  0  1  0  0  0  0  0  0
  -25.5130  -33.8010   24.1680 N   0  0  0  0  0  0  0  0  0  0  0  0
  -25.7910  -34.8790   23.4220 C   0  0  0  0  0  0  0  0  0  0  0  0
  -26.4530  -34.8210   22.3840 O   0  0  0  0  0  0  0  0  0  0  0  0
  -24.9170  -33.9190   24.9760 H   0  0  0  0  0  0  0  0  0  0  0  0
  -23.9710  -36.5940   23.1340 C   0  0  0  0  0  1  0  0  0  0  0  0
  -25.2500  -36.2380   23.9080 C   0  0  0  0  0  3  0  0  0  0  0  0
  -27.3580  -37.2180   24.6980 C   0  0  0  0  0  1  0  0  0  0  0  0
  -26.2280  -37.3410   23.7810 N   0  0  0  0  0  0  0  0  0  0  0  0
  -25.7810  -38.2380   23.9460 H   0  0  0  0  0  0  0  0  0  0  0  0
  2  5  1  0
  3  1  1  0
  3  2  2  0
  4 19  1  0
  4  5  2  0
  5  8  1  0
  6  7  2  0
  6  3  1  0
  7  4  1  0
  9  6  1  0
 10  7  1  0
 11 17  1  0
 11 19  1  0
 12 17  1  0
 13 14  1  0
 13 12  1  0
 15 14  1  0
 15 24  1  0
 15 16  1  0
 17 16  1  0
 18 11  2  0
 19 20  1  0
 21 22  2  0
 22 41  1  0
 23 26  1  0
 23 22  1  0
 24 25  1  0
 24 21  1  0
 25 23  2  0
 26 27  1  0
 27 28  2  0
 29 32  1  0
 29 28  1  0
 30 29  2  0
 31 30  1  0
 31 26  2  0
 32 33  1  0
 33 38  2  0
 33 34  1  0
 34 35  2  0
 35 36  1  0
 36 40  1  0
 37 36  2  0
 38 37  1  0
 39 38  1  0
 41 42  1  0
 42 45  1  0
 42 44  1  0
 43 41  2  0
 46 21  1  0
 46 47  1  0
 48 46  1  0
 49  1  1  0
 49 51  1  0
 50 49  1  0
 53 52  1  0
 53 49  1  0
 54 53  1  0
 54 55  1  0
 56 67  2  0
 57 55  1  0
 57 62  1  0
 58 66  1  0
 58 68  1  0
 59 65  1  0
 59 61  1  0
 60 66  1  0
 61 60  1  0
 62 61  2  0
 63 64  1  0
 63 57  2  0
 64 59  2  0
 65 58  1  0
 66 56  1  0
 68 70  2  0
 69 68  1  0
 71 69  1  0
 72 81  2  0
 72 77  1  0
 73 69  1  0
 73 77  1  0
 74 73  1  0
 75 76  1  0
 75 74  1  0
 76 72  1  0
 77 78  2  0
 78 79  1  0
 80 79  2  0
 81 80  1  0
 82 56  1  0
 82 87  1  0
 82 83  1  0
 83 86  1  1
 83 84  1  0
 85 83  1  0
 87 90  1  0
 88 92  1  0
 88 87  1  0
 89 88  2  0
 92 91  1  0
 94 92  1  0
 94 95  1  0
 94 93  1  0
M  ISO  4  11 100  19 100  54 101  55 101
M  END
>  <TORSDO>  (61) 
F 20

>  <SCORE>  (61) 
-11.488

>  <name>  (61) 
61

>  <ligand_id>  (61) 
61

>  <original_smiles>  (61) 
[H]c1c([H])c([H])c2c(c1[H])C([H])([H])C([H])([H])C([H])([H])C2([H])N([H])C(=O)C1([H])N(C(=O)C([H])(N([H])C(=O)C([H])(N([H])C([H])([H])[H])C([H])([H])[H])C(C([H])([H])[H])(C([H])([H])[H])C([H])([H])[H])C([H])([H])c2c([H])c(OC([H])([H])C([H])(C([H])([H])[H])[N+]([H])([H])C([H])([H])c3c([H])c(Cl)c(N([H])C(=O)N4C([H])([H])C([H])([H])C([H])([H])C([H])(n5nc(-c6c([H])c([H])c(Oc7c([H])c([H])c(F)c([H])c7F)c([H])c6[H])c(C(=O)N([H])[H])c5N([H])[H])C4([H])[H])c(Cl)c3Cl)c([H])c([H])c2C1([H])[H]

>  <smiles>  (61) 
[H]c1c([H])c([H])c2c(c1[H])C([H])([H])C([H])([H])C([H])([H])C2([H])N([H])C(=O)C1([H])N(C(=O)C([H])(N([H])C(=O)C([H])(N([H])C([H])([H])[H])C([H])([H])[H])C(C([H])([H])[H])(C([H])([H])[H])C([H])([H])[H])C([H])([H])c2c([H])c(OC([H])([H])C([H])(C([H])([H])[H])[N+]([H])([H])C([H])([H])c3c([H])c(Cl)c(N([H])C(=O)N4C([H])([H])C([H])([H])C([H])([H])C([H])(n5nc(-c6c([H])c([H])c(Oc7c([H])c([H])c(F)c([H])c7F)c([H])c6[H])c(C(=O)N([H])[H])c5N([H])[H])C4([H])[H])c(Cl)c3Cl)c([H])c([H])c2C1([H])[H]

$$$$
62:0:0
     RDKit          3D

 99108  0  0  1  0  0  0  0  0999 V2000
  -27.0980  -19.5090   19.0810 C   0  0  0  0  0  3  0  0  0  0  0  0
  -28.4420  -19.7560   19.4390 C   0  0  0  0  0  0  0  0  0  0  0  0
  -26.2190  -20.6000   18.8880 C   0  0  0  0  0  0  0  0  0  0  0  0
  -26.7310  -21.9010   19.0950 C   0  0  0  0  0  0  0  0  0  0  0  0
  -28.8820  -21.0990   19.4770 C   0  0  0  0  0  0  0  0  0  0  0  0
  -24.7580  -20.3670   18.5100 C   0  0  0  0  0  1  0  0  0  0  0  0
  -28.0340  -22.1340   19.3500 N   0  0  0  0  0  0  0  0  0  0  0  0
  -30.5450  -21.5150   19.7210 Cl  0  0  0  0  0  0  0  0  0  0  0  0
  -31.2590  -14.7660   20.2220 C   0  0  0  0  0  0  0  0  0  0  0  0
  -30.9720  -12.4780   19.3790 C   0  0  0  0  0  2  0  0  0  0  0  0
  -30.0520  -12.5060   18.1420 C   0  0  0  0  0  2  0  0  0  0  0  0
  -28.5700  -12.4340   18.5630 C   0  0  0  0  0  2  0  0  0  0  0  0
  -28.2110  -13.4380   19.6920 C   0  0  0  0  0  3  0  0  0  0  0  0
  -29.2440  -13.3720   20.8340 C   0  0  0  0  0  2  0  0  0  0  0  0
  -30.5710  -13.5930   20.2470 N   0  0  0  0  0  0  0  0  0  0  0  0
  -32.4500  -14.8100   19.8910 O   0  0  0  0  0  0  0  0  0  0  0  0
  -28.9540  -17.6870   20.9140 C   0  0  0  0  0  2  0  0  0  0  0  0
  -29.7550  -17.7580   18.5540 C   0  0  0  0  0  2  0  0  0  0  0  0
  -30.0620  -16.6540   21.2470 C   0  0  0  0  0  2  0  0  0  0  0  0
  -30.8590  -16.7550   18.9300 C   0  0  0  0  0  2  0  0  0  0  0  0
  -29.4030  -18.6110   19.7700 C   0  0  0  0  0  3  0  0  0  0  0  0
  -30.4950  -15.8800   20.0670 N   0  0  0  0  0  0  0  0  0  0  0  0
  -25.8670  -14.1670   20.4600 C   0  0  0  0  0  0  0  0  0  0  0  0
  -24.7570  -13.4500   20.8220 C   0  0  0  0  0  0  0  0  0  0  0  0
  -25.1330  -12.0750   20.7340 C   0  0  0  0  0  0  0  0  0  0  0  0
  -26.8510  -13.2320   20.1840 N   0  0  0  0  0  0  0  0  0  0  0  0
  -26.4150  -11.9670   20.4070 N   0  0  0  0  0  0  0  0  0  0  0  0
  -24.3320  -10.8520   20.8820 C   0  0  0  0  0  0  0  0  0  0  0  0
  -24.6750   -9.8520   21.8160 C   0  0  0  0  0  3  0  0  0  0  0  0
  -23.8770   -8.6950   21.9490 C   0  0  0  0  0  3  0  0  0  0  0  0
  -22.7240   -8.5300   21.1440 C   0  0  0  0  0  0  0  0  0  0  0  0
  -22.4010   -9.5200   20.2000 C   0  0  0  0  0  3  0  0  0  0  0  0
  -23.2000  -10.6680   20.0660 C   0  0  0  0  0  3  0  0  0  0  0  0
  -21.9060   -7.4270   21.1860 O   0  0  0  0  0  0  0  0  0  0  0  0
  -21.7190   -6.7140   22.3410 C   0  0  0  0  0  0  0  0  0  0  0  0
  -21.1890   -7.3130   23.5050 C   0  0  0  0  0  3  0  0  0  0  0  0
  -20.9440   -6.5290   24.6500 C   0  0  0  0  0  3  0  0  0  0  0  0
  -21.2240   -5.1490   24.6340 C   0  0  0  0  0  0  0  0  0  0  0  0
  -21.7500   -4.5520   23.4750 C   0  0  0  0  0  3  0  0  0  0  0  0
  -21.9950   -5.3310   22.3310 C   0  0  0  0  0  0  0  0  0  0  0  0
  -22.4820   -4.7480   21.2090 F   0  0  0  0  0  0  0  0  0  0  0  0
  -20.9850   -4.3950   25.7310 F   0  0  0  0  0  0  0  0  0  0  0  0
  -23.3980  -14.0070   21.1240 C   0  0  0  0  0  0  0  0  0  0  0  0
  -22.6410  -13.3340   21.9850 N   0  0  0  0  0  0  0  0  0  0  0  0
  -23.0160  -15.0690   20.6350 O   0  0  0  0  0  0  0  0  0  0  0  0
  -22.9610  -12.4730   22.3990 H   0  0  0  0  0  0  0  0  0  0  0  0
  -21.7300  -13.6920   22.2350 H   0  0  0  0  0  0  0  0  0  0  0  0
  -26.1040  -15.5270   20.3080 N   0  0  0  0  0  0  0  0  0  0  0  0
  -25.3330  -16.1820   20.3320 H   0  0  0  0  0  0  0  0  0  0  0  0
  -26.9240  -15.8940   19.8480 H   0  0  0  0  0  0  0  0  0  0  0  0
  -25.8700  -23.1460   19.2640 C   0  0  0  0  0  2  0  0  0  0  0  0
  -26.0800  -23.5490   20.6660 N   0  0  0  0  0  4  0  0  0  0  0  0
  -27.0320  -23.2250   20.8000 H   0  0  0  0  0  0  0  0  0  0  0  0
  -25.4810  -22.9900   21.2500 H   0  0  0  0  0  0  0  0  0  0  0  0
  -25.0710  -25.1810   22.2230 C   0  0  0  0  0  1  0  0  0  0  0  0
  -25.9740  -24.9920   20.9840 C   0  0  0  0  0  3  0  0  0  0  0  0
  -27.3670  -25.6360   21.2540 C   0  0  0  0  0  2  0  0  0  0  0  0
  -28.3160  -25.9030   20.0410 C   0  0  0  0  0  2  0  0  0  0  0  0
  -28.5150  -27.2890   19.7140 O   0  0  0  0  0  0  0  0  0  0  0  0
  -24.5060  -31.8540   23.2950 C   0  0  0  0  0  0  0  0  0  0  0  0
  -27.3620  -28.0260   19.6690 C   0  0  0  0  0  0  0  0  0  0  0  0
  -23.3800  -30.6310   21.4580 C   0  0  0  0  0  3  0  0  0  0  0  0
  -24.9180  -29.3940   19.8370 C   0  0  0  0  0  0  0  0  0  0  0  0
  -25.8830  -31.1410   21.3410 C   0  0  0  0  0  2  0  0  0  0  0  0
  -26.0380  -29.8850   20.5150 C   0  0  0  0  0  0  0  0  0  0  0  0
  -27.2730  -29.2090   20.4280 C   0  0  0  0  0  3  0  0  0  0  0  0
  -26.2440  -27.5660   18.9420 C   0  0  0  0  0  3  0  0  0  0  0  0
  -25.0130  -28.2390   19.0390 C   0  0  0  0  0  3  0  0  0  0  0  0
  -23.6240  -30.1550   19.9970 C   0  0  0  0  0  2  0  0  0  0  0  0
  -24.6060  -31.2200   22.0900 N   0  0  0  0  0  0  0  0  0  0  0  0
  -23.4090  -31.9960   23.8550 O   0  0  0  0  0  0  0  0  0  0  0  0
  -22.7810  -29.4540   22.2640 C   0  0  0  0  0  0  0  0  0  0  0  0
  -21.4670  -29.2310   22.1230 N   0  0  0  0  0  0  0  0  0  0  0  0
  -23.5000  -28.7470   22.9750 O   0  0  0  0  0  0  0  0  0  0  0  0
  -20.9430  -29.8740   21.5450 H   0  0  0  0  0  0  0  0  0  0  0  0
  -18.1510  -27.8340   22.4490 C   0  0  0  0  0  0  0  0  0  0  0  0
  -20.6960  -28.1520   22.7480 C   0  0  0  0  0  3  0  0  0  0  0  0
  -20.8490  -26.8230   21.9700 C   0  0  0  0  0  2  0  0  0  0  0  0
  -19.7550  -26.6090   20.9210 C   0  0  0  0  0  2  0  0  0  0  0  0
  -18.3720  -26.6070   21.5810 C   0  0  0  0  0  2  0  0  0  0  0  0
  -19.2400  -28.5700   22.9800 C   0  0  0  0  0  0  0  0  0  0  0  0
  -18.9760  -29.7270   23.7460 C   0  0  0  0  0  3  0  0  0  0  0  0
  -17.6530  -30.1480   23.9780 C   0  0  0  0  0  3  0  0  0  0  0  0
  -16.5770  -29.4070   23.4590 C   0  0  0  0  0  3  0  0  0  0  0  0
  -16.8260  -28.2480   22.7030 C   0  0  0  0  0  3  0  0  0  0  0  0
  -25.7580  -32.4550   24.0130 C   0  0  0  0  0  3  0  0  0  0  0  0
  -25.4580  -33.8570   24.3250 N   0  0  0  0  0  0  0  0  0  0  0  0
  -25.8720  -34.9030   23.5970 C   0  0  0  0  0  0  0  0  0  0  0  0
  -26.6070  -34.7860   22.6140 O   0  0  0  0  0  0  0  0  0  0  0  0
  -24.8070  -34.0270   25.0760 H   0  0  0  0  0  0  0  0  0  0  0  0
  -24.1960  -36.7310   23.1400 C   0  0  0  0  0  1  0  0  0  0  0  0
  -25.3780  -36.3000   24.0250 C   0  0  0  0  0  3  0  0  0  0  0  0
  -27.4720  -37.1530   24.9810 C   0  0  0  0  0  1  0  0  0  0  0  0
  -26.4350  -37.3340   23.9720 N   0  0  0  0  0  0  0  0  0  0  0  0
  -26.0370  -38.2630   24.0890 H   0  0  0  0  0  0  0  0  0  0  0  0
  -26.1780  -31.6710   25.3180 C   0  0  1  0  0  0  0  0  0  0  0  0
  -25.0140  -31.4560   26.3160 C   0  0  0  0  0  1  0  0  0  0  0  0
  -26.7530  -30.2750   24.9650 C   0  0  0  0  0  1  0  0  0  0  0  0
  -27.3010  -32.4370   26.0570 C   0  0  0  0  0  1  0  0  0  0  0  0
  1  2  1  0
  2  5  2  0
  3  1  2  0
  3  4  1  0
  4 51  1  0
  4  7  2  0
  5  8  1  0
  6  3  1  0
  7  5  1  0
  9 15  1  0
 10 15  1  0
 11 12  1  0
 11 10  1  0
 13 12  1  0
 13 26  1  0
 13 14  1  0
 15 14  1  0
 16  9  2  0
 17 19  1  0
 18 20  1  0
 18 21  1  0
 20 22  1  0
 21  2  1  0
 21 17  1  0
 22  9  1  0
 22 19  1  0
 23 24  2  0
 24 43  1  0
 25 24  1  0
 25 28  1  0
 26 27  1  0
 26 23  1  0
 27 25  2  0
 28 29  1  0
 29 30  2  0
 31 34  1  0
 31 30  1  0
 32 31  2  0
 33 32  1  0
 33 28  2  0
 34 35  1  0
 35 36  1  0
 36 37  2  0
 38 37  1  0
 38 42  1  0
 39 38  2  0
 40 35  2  0
 40 39  1  0
 41 40  1  0
 43 44  1  0
 44 47  1  0
 44 46  1  0
 45 43  2  0
 48 49  1  0
 48 23  1  0
 50 48  1  0
 51 52  1  0
 52 53  1  0
 52 56  1  0
 52 54  1  0
 56 57  1  0
 56 55  1  0
 58 57  1  0
 59 58  1  0
 60 71  2  0
 61 59  1  0
 61 66  1  0
 62 70  1  0
 62 72  1  0
 63 69  1  0
 63 65  1  0
 64 70  1  0
 65 64  1  0
 66 65  2  0
 67 68  1  0
 67 61  2  0
 68 63  2  0
 69 62  1  0
 70 60  1  0
 72 74  2  0
 73 72  1  0
 75 73  1  0
 76 85  2  0
 76 81  1  0
 77 73  1  0
 77 81  1  0
 78 77  1  0
 79 80  1  0
 79 78  1  0
 80 76  1  0
 81 82  2  0
 82 83  1  0
 84 83  2  0
 85 84  1  0
 86 60  1  0
 86 87  1  0
 86 96  1  0
 87 90  1  0
 88 92  1  0
 88 87  1  0
 89 88  2  0
 92 91  1  0
 94 92  1  0
 94 95  1  0
 94 93  1  0
 96 99  1  1
 96 97  1  0
 98 96  1  0
M  ISO  4   9 100  22 100  58 101  59 101
M  END
>  <TORSDO>  (62) 
F 21

>  <SCORE>  (62) 
-12.058

>  <name>  (62) 
62

>  <ligand_id>  (62) 
62

>  <original_smiles>  (62) 
[H]c1c([H])c([H])c2c(c1[H])C([H])([H])C([H])([H])C([H])([H])C2([H])N([H])C(=O)C1([H])N(C(=O)C([H])(N([H])C(=O)C([H])(N([H])C([H])([H])[H])C([H])([H])[H])C(C([H])([H])[H])(C([H])([H])[H])C([H])([H])[H])C([H])([H])c2c([H])c(OC([H])([H])C([H])([H])C([H])(C([H])([H])[H])[N+]([H])([H])C([H])([H])c3nc(Cl)c(C4([H])C([H])([H])C([H])([H])N(C(=O)N5C([H])([H])C([H])([H])C([H])([H])C([H])(n6nc(-c7c([H])c([H])c(Oc8c([H])c([H])c(F)c([H])c8F)c([H])c7[H])c(C(=O)N([H])[H])c6N([H])[H])C5([H])[H])C([H])([H])C4([H])[H])c([H])c3C([H])([H])[H])c([H])c([H])c2C1([H])[H]

>  <smiles>  (62) 
[H]c1c([H])c([H])c2c(c1[H])C([H])([H])C([H])([H])C([H])([H])C2([H])N([H])C(=O)C1([H])N(C(=O)C([H])(N([H])C(=O)C([H])(N([H])C([H])([H])[H])C([H])([H])[H])C(C([H])([H])[H])(C([H])([H])[H])C([H])([H])[H])C([H])([H])c2c([H])c(OC([H])([H])C([H])([H])C([H])(C([H])([H])[H])[N+]([H])([H])C([H])([H])c3nc(Cl)c(C4([H])C([H])([H])C([H])([H])N(C(=O)N5C([H])([H])C([H])([H])C([H])([H])C([H])(n6nc(-c7c([H])c([H])c(Oc8c([H])c([H])c(F)c([H])c8F)c([H])c7[H])c(C(=O)N([H])[H])c6N([H])[H])C5([H])[H])C([H])([H])C4([H])[H])c([H])c3C([H])([H])[H])c([H])c([H])c2C1([H])[H]

$$$$
63:0:0
     RDKit          3D

 95103  0  0  1  0  0  0  0  0999 V2000
  -30.2690  -20.9800   21.6360 C   0  0  0  0  0  2  0  0  0  0  0  0
  -31.5710  -18.8060   21.4500 C   0  0  0  0  0  3  0  0  0  0  0  0
  -30.3430  -19.4850   21.2790 C   0  0  0  0  0  0  0  0  0  0  0  0
  -29.1920  -18.7250   20.9420 C   0  0  0  0  0  0  0  0  0  0  0  0
  -30.5290  -16.6370   20.9670 C   0  0  0  0  0  0  0  0  0  0  0  0
  -31.6720  -17.4030   21.3280 C   0  0  0  0  0  0  0  0  0  0  0  0
  -29.2940  -17.3140   20.8150 C   0  0  0  0  0  0  0  0  0  0  0  0
  -27.8200  -19.3760   20.7700 C   0  0  0  0  0  1  0  0  0  0  0  0
  -33.1820  -16.6860   21.7720 Cl  0  0  0  0  0  0  0  0  0  0  0  0
  -27.8630  -16.3820   20.5460 Cl  0  0  0  0  0  0  0  0  0  0  0  0
  -30.7880  -14.4720   19.7570 C   0  0  0  0  0  0  0  0  0  0  0  0
  -30.2420  -12.4490   18.4430 C   0  0  0  0  0  2  0  0  0  0  0  0
  -29.1550  -12.7600   17.3970 C   0  0  0  0  0  2  0  0  0  0  0  0
  -27.7500  -12.6010   18.0060 C   0  0  0  0  0  2  0  0  0  0  0  0
  -27.6010  -13.3480   19.3590 C   0  0  0  0  0  3  0  0  0  0  0  0
  -28.7850  -13.0200   20.2990 C   0  0  0  0  0  2  0  0  0  0  0  0
  -30.0480  -13.3380   19.6030 N   0  0  0  0  0  0  0  0  0  0  0  0
  -31.6940  -14.7710   18.9800 O   0  0  0  0  0  0  0  0  0  0  0  0
  -30.4980  -15.2080   20.8450 N   0  0  0  0  0  0  0  0  0  0  0  0
  -29.7890  -14.7770   21.4170 H   0  0  0  0  0  0  0  0  0  0  0  0
  -25.3040  -13.9270   20.3800 C   0  0  0  0  0  0  0  0  0  0  0  0
  -24.2870  -13.1420   20.8490 C   0  0  0  0  0  0  0  0  0  0  0  0
  -24.7240  -11.7930   20.6850 C   0  0  0  0  0  0  0  0  0  0  0  0
  -26.3100  -13.0570   19.9850 N   0  0  0  0  0  0  0  0  0  0  0  0
  -25.9650  -11.7630   20.2160 N   0  0  0  0  0  0  0  0  0  0  0  0
  -24.0080  -10.5280   20.8940 C   0  0  0  0  0  0  0  0  0  0  0  0
  -24.4920   -9.5440   21.7840 C   0  0  0  0  0  3  0  0  0  0  0  0
  -23.7770   -8.3430   21.9800 C   0  0  0  0  0  3  0  0  0  0  0  0
  -22.5630   -8.1190   21.2870 C   0  0  0  0  0  0  0  0  0  0  0  0
  -22.0980   -9.0910   20.3850 C   0  0  0  0  0  3  0  0  0  0  0  0
  -22.8140  -10.2840   20.1860 C   0  0  0  0  0  3  0  0  0  0  0  0
  -21.8140   -6.9730   21.3960 O   0  0  0  0  0  0  0  0  0  0  0  0
  -21.7650   -6.2530   22.5640 C   0  0  0  0  0  0  0  0  0  0  0  0
  -21.3590   -6.8380   23.7830 C   0  0  0  0  0  3  0  0  0  0  0  0
  -21.2560   -6.0470   24.9440 C   0  0  0  0  0  3  0  0  0  0  0  0
  -21.5490   -4.6710   24.8880 C   0  0  0  0  0  0  0  0  0  0  0  0
  -21.9480   -4.0850   23.6730 C   0  0  0  0  0  3  0  0  0  0  0  0
  -22.0520   -4.8740   22.5140 C   0  0  0  0  0  0  0  0  0  0  0  0
  -22.4170   -4.3010   21.3420 F   0  0  0  0  0  0  0  0  0  0  0  0
  -21.4420   -3.9080   26.0000 F   0  0  0  0  0  0  0  0  0  0  0  0
  -22.9440  -13.6130   21.3320 C   0  0  0  0  0  0  0  0  0  0  0  0
  -22.3460  -12.8930   22.2750 N   0  0  0  0  0  0  0  0  0  0  0  0
  -22.4420  -14.6540   20.9120 O   0  0  0  0  0  0  0  0  0  0  0  0
  -22.7680  -12.0500   22.6350 H   0  0  0  0  0  0  0  0  0  0  0  0
  -21.4520  -13.1890   22.6410 H   0  0  0  0  0  0  0  0  0  0  0  0
  -25.4420  -15.3010   20.2390 N   0  0  0  0  0  0  0  0  0  0  0  0
  -24.7220  -15.9500   20.5340 H   0  0  0  0  0  0  0  0  0  0  0  0
  -26.3040  -15.7610   19.9730 H   0  0  0  0  0  0  0  0  0  0  0  0
  -29.9450  -21.9090   20.5240 N   0  0  0  0  0  4  0  0  0  0  0  0
  -29.2440  -21.4930   19.9340 H   0  0  0  0  0  0  0  0  0  0  0  0
  -30.7770  -22.0330   19.9690 H   0  0  0  0  0  0  0  0  0  0  0  0
  -29.4600  -23.2300   21.0160 C   0  0  0  0  0  2  0  0  0  0  0  0
  -29.2390  -24.3150   19.9300 C   0  0  0  0  0  2  0  0  0  0  0  0
  -28.6640  -25.6190   20.5360 C   0  0  0  0  0  2  0  0  0  0  0  0
  -28.5390  -26.6790   19.5790 O   0  0  0  0  0  0  0  0  0  0  0  0
  -24.6620  -31.6180   22.9680 C   0  0  0  0  0  0  0  0  0  0  0  0
  -27.3600  -27.3830   19.6620 C   0  0  0  0  0  0  0  0  0  0  0  0
  -23.4570  -30.2480   21.2980 C   0  0  0  0  0  3  0  0  0  0  0  0
  -24.9230  -28.8040   19.7880 C   0  0  0  0  0  0  0  0  0  0  0  0
  -25.9660  -30.6880   21.0590 C   0  0  0  0  0  2  0  0  0  0  0  0
  -26.0770  -29.3440   20.3690 C   0  0  0  0  0  0  0  0  0  0  0  0
  -27.3010  -28.6420   20.3020 C   0  0  0  0  0  3  0  0  0  0  0  0
  -26.1910  -26.8500   19.0830 C   0  0  0  0  0  3  0  0  0  0  0  0
  -24.9740  -27.5550   19.1430 C   0  0  0  0  0  3  0  0  0  0  0  0
  -23.6550  -29.6240   19.8890 C   0  0  0  0  0  2  0  0  0  0  0  0
  -24.7140  -30.8640   21.8350 N   0  0  0  0  0  0  0  0  0  0  0  0
  -23.5860  -31.8420   23.5410 O   0  0  0  0  0  0  0  0  0  0  0  0
  -22.8550  -29.1740   22.2320 C   0  0  0  0  0  0  0  0  0  0  0  0
  -21.5310  -28.9690   22.1300 N   0  0  0  0  0  0  0  0  0  0  0  0
  -23.5710  -28.5300   23.0030 O   0  0  0  0  0  0  0  0  0  0  0  0
  -21.0110  -29.5430   21.4840 H   0  0  0  0  0  0  0  0  0  0  0  0
  -18.1920  -27.7040   22.6850 C   0  0  0  0  0  0  0  0  0  0  0  0
  -20.7540  -27.9810   22.8800 C   0  0  0  0  0  3  0  0  0  0  0  0
  -20.8520  -26.5830   22.2280 C   0  0  0  0  0  2  0  0  0  0  0  0
  -19.7190  -26.2980   21.2380 C   0  0  0  0  0  2  0  0  0  0  0  0
  -18.3590  -26.3920   21.9370 C   0  0  0  0  0  2  0  0  0  0  0  0
  -19.3160  -28.4580   23.1140 C   0  0  0  0  0  0  0  0  0  0  0  0
  -19.1050  -29.6880   23.7740 C   0  0  0  0  0  3  0  0  0  0  0  0
  -17.8020  -30.1650   24.0090 C   0  0  0  0  0  3  0  0  0  0  0  0
  -16.6920  -29.4070   23.5970 C   0  0  0  0  0  3  0  0  0  0  0  0
  -16.8880  -28.1780   22.9410 C   0  0  0  0  0  3  0  0  0  0  0  0
  -25.9460  -32.2580   23.5850 C   0  0  0  0  0  3  0  0  0  0  0  0
  -25.6010  -33.6170   24.0180 N   0  0  0  0  0  0  0  0  0  0  0  0
  -25.8760  -34.7290   23.3230 C   0  0  0  0  0  0  0  0  0  0  0  0
  -26.5230  -34.7190   22.2710 O   0  0  0  0  0  0  0  0  0  0  0  0
  -25.0230  -33.6970   24.8420 H   0  0  0  0  0  0  0  0  0  0  0  0
  -24.0840  -36.4820   23.1200 C   0  0  0  0  0  1  0  0  0  0  0  0
  -25.3510  -36.0650   23.8830 C   0  0  0  0  0  3  0  0  0  0  0  0
  -27.4730  -36.9590   24.7360 C   0  0  0  0  0  1  0  0  0  0  0  0
  -26.3470  -37.1580   23.8270 N   0  0  0  0  0  0  0  0  0  0  0  0
  -25.9150  -38.0500   24.0500 H   0  0  0  0  0  0  0  0  0  0  0  0
  -26.5410  -31.4260   24.7870 C   0  0  1  0  0  0  0  0  0  0  0  0
  -25.4920  -31.0490   25.8600 C   0  0  0  0  0  1  0  0  0  0  0  0
  -27.1860  -30.1170   24.2750 C   0  0  0  0  0  1  0  0  0  0  0  0
  -27.6640  -32.2330   25.4790 C   0  0  0  0  0  1  0  0  0  0  0  0
  3  2  2  0
  3  1  1  0
  4  3  1  0
  5  6  2  0
  6  2  1  0
  6  9  1  0
  7  4  2  0
  7  5  1  0
  8  4  1  0
 10  7  1  0
 11 19  1  0
 12 17  1  0
 13 14  1  0
 13 12  1  0
 15 14  1  0
 15 24  1  0
 15 16  1  0
 17 11  1  0
 17 16  1  0
 18 11  2  0
 19  5  1  0
 19 20  1  0
 21 22  2  0
 22 41  1  0
 23 22  1  0
 23 26  1  0
 24 25  1  0
 24 21  1  0
 25 23  2  0
 26 27  1  0
 27 28  2  0
 29 32  1  0
 29 28  1  0
 30 29  2  0
 31 30  1  0
 31 26  2  0
 32 33  1  0
 33 34  1  0
 34 35  2  0
 36 35  1  0
 36 40  1  0
 37 36  2  0
 38 33  2  0
 38 37  1  0
 39 38  1  0
 41 42  1  0
 42 44  1  0
 42 45  1  0
 43 41  2  0
 46 21  1  0
 46 47  1  0
 48 46  1  0
 49 52  1  0
 49  1  1  0
 50 49  1  0
 51 49  1  0
 53 54  1  0
 53 52  1  0
 55 57  1  0
 55 54  1  0
 56 67  2  0
 57 62  1  0
 58 66  1  0
 58 68  1  0
 59 65  1  0
 59 61  1  0
 60 66  1  0
 61 60  1  0
 62 61  2  0
 63 64  1  0
 63 57  2  0
 64 59  2  0
 65 58  1  0
 66 56  1  0
 68 70  2  0
 69 68  1  0
 71 69  1  0
 72 81  2  0
 72 77  1  0
 73 69  1  0
 73 77  1  0
 74 73  1  0
 75 76  1  0
 75 74  1  0
 76 72  1  0
 77 78  2  0
 78 79  1  0
 80 79  2  0
 81 80  1  0
 82 56  1  0
 82 83  1  0
 82 92  1  0
 83 86  1  0
 84 88  1  0
 84 83  1  0
 85 84  2  0
 88 87  1  0
 90 88  1  0
 90 91  1  0
 90 89  1  0
 92 95  1  1
 92 93  1  0
 94 92  1  0
M  ISO  4  11 100  19 100  54 101  55 101
M  END
>  <TORSDO>  (63) 
F 21

>  <SCORE>  (63) 
-8.664

>  <name>  (63) 
63

>  <ligand_id>  (63) 
63

>  <original_smiles>  (63) 
[H]c1c([H])c([H])c2c(c1[H])C([H])([H])C([H])([H])C([H])([H])C2([H])N([H])C(=O)C1([H])N(C(=O)C([H])(N([H])C(=O)C([H])(N([H])C([H])([H])[H])C([H])([H])[H])C(C([H])([H])[H])(C([H])([H])[H])C([H])([H])[H])C([H])([H])c2c([H])c(OC([H])([H])C([H])([H])C([H])([H])[N+]([H])([H])C([H])([H])c3c([H])c(Cl)c(N([H])C(=O)N4C([H])([H])C([H])([H])C([H])([H])C([H])(n5nc(-c6c([H])c([H])c(Oc7c([H])c([H])c(F)c([H])c7F)c([H])c6[H])c(C(=O)N([H])[H])c5N([H])[H])C4([H])[H])c(Cl)c3C([H])([H])[H])c([H])c([H])c2C1([H])[H]

>  <smiles>  (63) 
[H]c1c([H])c([H])c2c(c1[H])C([H])([H])C([H])([H])C([H])([H])C2([H])N([H])C(=O)C1([H])N(C(=O)C([H])(N([H])C(=O)C([H])(N([H])C([H])([H])[H])C([H])([H])[H])C(C([H])([H])[H])(C([H])([H])[H])C([H])([H])[H])C([H])([H])c2c([H])c(OC([H])([H])C([H])([H])C([H])([H])[N+]([H])([H])C([H])([H])c3c([H])c(Cl)c(N([H])C(=O)N4C([H])([H])C([H])([H])C([H])([H])C([H])(n5nc(-c6c([H])c([H])c(Oc7c([H])c([H])c(F)c([H])c7F)c([H])c6[H])c(C(=O)N([H])[H])c5N([H])[H])C4([H])[H])c(Cl)c3C([H])([H])[H])c([H])c([H])c2C1([H])[H]

$$$$
64:0:0
     RDKit          3D

 99104  0  0  1  0  0  0  0  0999 V2000
  -25.8200  -30.3900   20.1160 C   0  0  0  0  0  2  0  0  0  0  0  0
  -23.6470  -27.0320   20.6600 C   0  0  0  0  0  1  0  0  0  0  0  0
  -24.9920  -27.8780   21.1410 C   0  0  0  0  0  3  0  0  0  0  0  0
  -28.3660  -24.6680   18.5130 C   0  0  0  0  0  2  0  0  0  0  0  0
  -28.6100  -23.2970   19.7700 C   0  0  0  0  0  2  0  0  0  0  0  0
  -26.0050  -26.6020   20.8030 C   0  0  0  0  0  3  0  0  0  0  0  0
  -27.1960  -26.2110   18.3510 C   0  0  0  0  0  0  0  0  0  0  0  0
  -28.3310  -24.2200   21.2480 C   0  0  0  0  0  3  0  0  0  0  0  0
  -27.2110  -25.5130   21.8700 C   0  0  0  0  0  0  0  0  0  0  0  0
  -27.1960  -27.0870   16.8300 Cl  0  0  0  0  0  0  0  0  0  0  0  0
  -29.2080  -23.4550   22.5260 Cl  0  0  0  0  0  0  0  0  0  0  0  0
  -27.7490  -25.9430   23.4840 Cl  0  0  0  0  0  0  0  0  0  0  0  0
  -29.2950  -20.9740   19.6740 C   0  0  0  0  0 15  0  0  0  0  0  0
  -29.9190  -16.8620   19.8400 C   0  0  0  0  0  0  0  0  0  0  0  0
  -30.2880  -13.9290   19.1800 C   0  0  0  0  0  2  0  0  0  0  0  0
  -29.5720  -12.8930   18.1760 C   0  0  0  0  0  2  0  0  0  0  0  0
  -28.3350  -12.2140   18.7620 C   0  0  0  0  0  2  0  0  0  0  0  0
  -27.6370  -13.2570   19.6380 C   0  0  0  0  0  3  0  0  0  0  0  0
  -28.5730  -14.1950   20.5590 C   0  0  0  0  0  2  0  0  0  0  0  0
  -29.4880  -15.2380   19.7850 N   0  0  0  0  0  0  0  0  0  0  0  0
  -31.1520  -16.5130   19.7570 O   0  0  0  0  0  0  0  0  0  0  0  0
  -29.2870  -18.6730   19.8250 N   0  0  0  0  0  2  0  0  0  0  0  0
  -28.2930  -18.4860   19.8850 H   0  0  0  0  0  0  0  0  0  0  0  0
  -25.2970  -13.5570   20.5360 C   0  0  0  0  0  0  0  0  0  0  0  0
  -24.2810  -12.7280   20.9110 C   0  0  0  0  0  0  0  0  0  0  0  0
  -24.7880  -11.3950   20.8050 C   0  0  0  0  0  0  0  0  0  0  0  0
  -26.3790  -12.7590   20.2380 N   0  0  0  0  0  0  0  0  0  0  0  0
  -26.0800  -11.4320   20.4350 N   0  0  0  0  0  0  0  0  0  0  0  0
  -24.0750  -10.1100   20.9880 C   0  0  0  0  0  0  0  0  0  0  0  0
  -24.4930   -9.1500   21.9380 C   0  0  0  0  0  3  0  0  0  0  0  0
  -23.7650   -7.9500   22.1220 C   0  0  0  0  0  3  0  0  0  0  0  0
  -22.6010   -7.6960   21.3580 C   0  0  0  0  0  0  0  0  0  0  0  0
  -22.1950   -8.6440   20.4020 C   0  0  0  0  0  3  0  0  0  0  0  0
  -22.9240   -9.8340   20.2170 C   0  0  0  0  0  3  0  0  0  0  0  0
  -21.8510   -6.5460   21.4490 O   0  0  0  0  0  0  0  0  0  0  0  0
  -21.7350   -5.8470   22.6240 C   0  0  0  0  0  0  0  0  0  0  0  0
  -21.2170   -6.4420   23.7960 C   0  0  0  0  0  3  0  0  0  0  0  0
  -21.0470   -5.6710   24.9630 C   0  0  0  0  0  3  0  0  0  0  0  0
  -21.3870   -4.3050   24.9610 C   0  0  0  0  0  0  0  0  0  0  0  0
  -21.8960   -3.7080   23.7940 C   0  0  0  0  0  3  0  0  0  0  0  0
  -22.0650   -4.4760   22.6290 C   0  0  0  0  0  0  0  0  0  0  0  0
  -22.5360   -3.8890   21.5020 F   0  0  0  0  0  0  0  0  0  0  0  0
  -21.2180   -3.5620   26.0800 F   0  0  0  0  0  0  0  0  0  0  0  0
  -22.8860  -13.1650   21.2470 C   0  0  0  0  0  0  0  0  0  0  0  0
  -22.2140  -12.4430   22.1350 N   0  0  0  0  0  0  0  0  0  0  0  0
  -22.4050  -14.1900   20.7620 O   0  0  0  0  0  0  0  0  0  0  0  0
  -22.6210  -11.6170   22.5490 H   0  0  0  0  0  0  0  0  0  0  0  0
  -21.2800  -12.7180   22.4070 H   0  0  0  0  0  0  0  0  0  0  0  0
  -25.3870  -14.9350   20.3810 N   0  0  0  0  0  0  0  0  0  0  0  0
  -24.5900  -15.5450   20.5250 H   0  0  0  0  0  0  0  0  0  0  0  0
  -26.2060  -15.4160   20.0320 H   0  0  0  0  0  0  0  0  0  0  0  0
  -24.8560  -27.2030   22.6310 C   0  0  0  0  0  2  0  0  0  0  0  0
  -23.9890  -25.9170   22.9130 N   0  0  0  0  0  4  0  0  0  0  0  0
  -23.0990  -26.3190   23.1700 H   0  0  0  0  0  0  0  0  0  0  0  0
  -24.3590  -25.5670   23.7840 H   0  0  0  0  0  0  0  0  0  0  0  0
  -24.2390  -23.3500   22.6840 C   0  0  0  0  0  1  0  0  0  0  0  0
  -23.5870  -24.6300   22.1070 C   0  0  0  0  0  3  0  0  0  0  0  0
  -23.1580  -24.4330   20.5350 C   0  0  0  0  0  2  0  0  0  0  0  0
  -24.0570  -24.4640   19.3430 O   0  0  0  0  0  0  0  0  0  0  0  0
  -24.0540  -31.5740   22.9250 C   0  0  0  0  0  0  0  0  0  0  0  0
  -24.2680  -25.5520   18.6940 C   0  0  0  0  0  2  0  0  0  0  0  0
  -22.3030  -30.4840   21.3910 C   0  0  0  0  0  3  0  0  0  0  0  0
  -23.3370  -28.9290   18.6050 C   0  0  0  0  0  3  0  0  0  0  0  0
  -25.4580  -29.9510   20.8590 C   0  0  0  0  0  2  0  0  0  0  0  0
  -25.1900  -29.0090   19.0690 C   0  0  0  0  0  0  0  0  0  0  0  0
  -26.1290  -27.3890   18.9110 C   0  0  0  0  0  0  0  0  0  0  0  0
  -22.8220  -26.2010   18.3750 C   0  0  0  0  0  3  0  0  0  0  0  0
  -22.4970  -27.7050   18.2800 C   0  0  0  0  0  3  0  0  0  0  0  0
  -21.9180  -29.7880   19.6370 C   0  0  0  0  0  2  0  0  0  0  0  0
  -24.0000  -30.6290   21.9000 N   0  0  0  0  0  0  0  0  0  0  0  0
  -23.0640  -31.9950   23.5660 O   0  0  0  0  0  0  0  0  0  0  0  0
  -21.4750  -29.8280   22.5660 C   0  0  0  0  0  0  0  0  0  0  0  0
  -20.2350  -29.3280   22.4410 N   0  0  0  0  0  0  0  0  0  0  0  0
  -22.0800  -29.5890   23.6070 O   0  0  0  0  0  0  0  0  0  0  0  0
  -19.7250  -29.4960   21.5840 H   0  0  0  0  0  0  0  0  0  0  0  0
  -17.3360  -27.2660   23.1910 C   0  0  0  0  0  0  0  0  0  0  0  0
  -19.6570  -28.3580   23.4080 C   0  0  0  0  0  3  0  0  0  0  0  0
  -20.1840  -26.9140   23.2000 C   0  0  0  0  0  2  0  0  0  0  0  0
  -19.3540  -26.1110   22.2150 C   0  0  0  0  0  2  0  0  0  0  0  0
  -17.9510  -25.9380   22.7800 C   0  0  0  0  0  2  0  0  0  0  0  0
  -18.1340  -28.4060   23.4750 C   0  0  0  0  0  0  0  0  0  0  0  0
  -17.5060  -29.6140   23.8420 C   0  0  0  0  0  3  0  0  0  0  0  0
  -16.1040  -29.6980   23.9080 C   0  0  0  0  0  3  0  0  0  0  0  0
  -15.3180  -28.5670   23.6240 C   0  0  0  0  0  3  0  0  0  0  0  0
  -15.9340  -27.3520   23.2750 C   0  0  0  0  0  3  0  0  0  0  0  0
  -25.4060  -32.1650   23.3660 C   0  0  0  0  0  3  0  0  0  0  0  0
  -25.2270  -33.5510   23.8620 N   0  0  0  0  0  0  0  0  0  0  0  0
  -25.5830  -34.6720   23.2170 C   0  0  0  0  0  0  0  0  0  0  0  0
  -26.0930  -34.6520   22.0960 O   0  0  0  0  0  0  0  0  0  0  0  0
  -24.7550  -33.6480   24.7490 H   0  0  0  0  0  0  0  0  0  0  0  0
  -24.1010  -36.7130   23.3870 C   0  0  0  0  0  1  0  0  0  0  0  0
  -25.3610  -36.0250   23.9340 C   0  0  0  0  0  3  0  0  0  0  0  0
  -27.6920  -36.5080   24.5570 C   0  0  0  0  0  1  0  0  0  0  0  0
  -26.5120  -36.9490   23.8180 N   0  0  0  0  0  0  0  0  0  0  0  0
  -26.2630  -37.8790   24.1440 H   0  0  0  0  0  0  0  0  0  0  0  0
  -26.0420  -31.2940   24.5040 C   0  0  1  0  0  0  0  0  0  0  0  0
  -25.0820  -31.0050   25.6830 C   0  0  0  0  0  1  0  0  0  0  0  0
  -26.5460  -29.9490   23.9930 C   0  0  0  0  0  1  0  0  0  0  0  0
  -27.3160  -31.9840   25.0200 C   0  0  0  0  0  1  0  0  0  0  0  0
  1 64  1  0
  3  2  1  0
  3 52  1  0
  4  5  1  0
  5  8  1  0
  6  3  1  0
  6  9  2  0
  7  4  1  0
  7 66  2  0
  8  9  1  0
  8 11  1  0
  9 12  1  0
 10  7  1  0
 15 20  1  0
 16 17  1  0
 16 15  1  0
 18 17  1  0
 18 27  1  0
 18 19  1  0
 20 14  1  0
 20 19  1  0
 21 14  2  0
 22 14  1  0
 22 23  1  0
 24 25  2  0
 25 44  1  0
 26 25  1  0
 26 29  1  0
 27 28  1  0
 27 24  1  0
 28 26  2  0
 29 30  1  0
 30 31  2  0
 32 35  1  0
 32 31  1  0
 33 32  2  0
 34 33  1  0
 34 29  2  0
 35 36  1  0
 36 41  2  0
 36 37  1  0
 37 38  2  0
 39 38  1  0
 39 43  1  0
 40 39  2  0
 41 40  1  0
 42 41  1  0
 44 45  1  0
 45 48  1  0
 45 47  1  0
 46 44  2  0
 49 50  1  0
 49 24  1  0
 51 49  1  0
 52 53  1  0
 53 54  1  0
 53 55  1  0
 57 56  1  0
 57 53  1  0
 58 57  1  0
 59 58  1  0
 60 71  2  0
 61 59  1  0
 62 70  1  0
 62 72  1  0
 63 68  1  0
 63 65  1  0
 63 69  1  0
 64 70  1  0
 65  1  1  0
 66 65  2  0
 67 61  1  0
 68 67  2  0
 69 62  1  0
 70 60  1  0
 72 74  2  0
 73 72  1  0
 75 73  1  0
 76 85  2  0
 76 81  1  0
 77 73  1  0
 77 81  1  0
 78 77  1  0
 79 80  1  0
 79 78  1  0
 80 76  1  0
 81 82  2  0
 82 83  1  0
 84 83  2  0
 85 84  1  0
 86 60  1  0
 86 87  1  0
 86 96  1  0
 87 90  1  0
 88 87  1  0
 88 92  1  0
 89 88  2  0
 92 91  1  0
 94 92  1  0
 94 95  1  0
 94 93  1  0
 96 99  1  1
 96 97  1  0
 98 96  1  0
M  ISO  4  14 100  22 100  58 101  59 101
M  END
>  <TORSDO>  (64) 
F 22

>  <SCORE>  (64) 
-9.718

>  <name>  (64) 
64

>  <ligand_id>  (64) 
64

>  <original_smiles>  (64) 
[H]c1c([H])c([H])c2c(c1[H])C([H])([H])C([H])([H])C([H])([H])C2([H])N([H])C(=O)C1([H])N(C(=O)C([H])(N([H])C(=O)C([H])(N([H])C([H])([H])[H])C([H])([H])[H])C(C([H])([H])[H])(C([H])([H])[H])C([H])([H])[H])C([H])([H])c2c([H])c(OC([H])([H])C([H])(C([H])([H])[H])[N+]([H])([H])C([H])([H])C(c3c(Cl)c([H])c(C([H])([H])N([H])C(=O)N4C([H])([H])C([H])([H])C([H])([H])C([H])(n5nc(-c6c([H])c([H])c(Oc7c([H])c([H])c(F)c([H])c7F)c([H])c6[H])c(C(=O)N([H])[H])c5N([H])[H])C4([H])[H])c(Cl)c3Cl)(C([H])([H])[H])C([H])([H])[H])c([H])c([H])c2C1([H])[H]

>  <smiles>  (64) 
[H]c1c([H])c([H])c2c(c1[H])C([H])([H])C([H])([H])C([H])([H])C2([H])N([H])C(=O)C1([H])N(C(=O)C([H])(N([H])C(=O)C([H])(N([H])C([H])([H])[H])C([H])([H])[H])C(C([H])([H])[H])(C([H])([H])[H])C([H])([H])[H])C([H])([H])c2c([H])c(OC([H])([H])C([H])(C([H])([H])[H])[N+]([H])([H])C([H])([H])C(c3c(Cl)c([H])c(C([H])([H])N([H])C(=O)N4C([H])([H])C([H])([H])C([H])([H])C([H])(n5nc(-c6c([H])c([H])c(Oc7c([H])c([H])c(F)c([H])c7F)c([H])c6[H])c(C(=O)N([H])[H])c5N([H])[H])C4([H])[H])c(Cl)c3Cl)(C([H])([H])[H])C([H])([H])[H])c([H])c([H])c2C1([H])[H]

$$$$
65:0:0
     RDKit          3D

 98107  0  0  1  0  0  0  0  0999 V2000
  -29.7780  -23.7230   22.4320 C   0  0  0  0  0  2  0  0  0  0  0  0
  -29.1270  -22.5720   20.3050 C   0  0  0  0  0  2  0  0  0  0  0  0
  -31.0650  -22.8840   22.5060 C   0  0  0  0  0  2  0  0  0  0  0  0
  -30.4020  -21.7150   20.3570 C   0  0  0  0  0  2  0  0  0  0  0  0
  -29.3450  -23.9390   20.9730 C   0  0  0  0  0  3  0  0  0  0  0  0
  -30.9230  -21.5110   21.8030 C   0  0  0  0  0  3  0  0  0  0  0  0
  -32.9290  -20.7170   23.2270 C   0  0  0  0  0  1  0  0  0  0  0  0
  -32.2350  -20.6590   21.8540 C   0  0  2  0  0  0  0  0  0  0  0  0
  -33.0720  -21.2620   21.0120 F   0  0  0  0  0  0  0  0  0  0  0  0
  -32.2940  -17.1790   20.0700 C   0  0  0  0  0  3  0  0  0  0  0  0
  -31.0620  -18.4560   22.2370 C   0  0  0  0  0  3  0  0  0  0  0  0
  -32.6430  -18.5150   20.3800 C   0  0  0  0  0  0  0  0  0  0  0  0
  -31.9940  -19.1850   21.4620 C   0  0  0  0  0  0  0  0  0  0  0  0
  -31.3160  -16.4920   20.8200 C   0  0  0  0  0  0  0  0  0  0  0  0
  -30.7250  -17.1300   21.9230 C   0  0  0  0  0  0  0  0  0  0  0  0
  -33.7170  -19.1610   19.5180 C   0  0  0  0  0  1  0  0  0  0  0  0
  -29.8140  -16.4650   22.6740 F   0  0  0  0  0  0  0  0  0  0  0  0
  -31.2110  -14.3510   19.5460 C   0  0  0  0  0  0  0  0  0  0  0  0
  -30.7340  -12.1440   18.5410 C   0  0  0  0  0  2  0  0  0  0  0  0
  -29.6720  -12.2280   17.4300 C   0  0  0  0  0  2  0  0  0  0  0  0
  -28.2510  -12.1440   18.0190 C   0  0  0  0  0  2  0  0  0  0  0  0
  -28.0440  -13.1250   19.2020 C   0  0  0  0  0  3  0  0  0  0  0  0
  -29.1940  -12.9960   20.2220 C   0  0  0  0  0  2  0  0  0  0  0  0
  -30.4750  -13.2100   19.5180 N   0  0  0  0  0  0  0  0  0  0  0  0
  -32.1250  -14.5820   18.7460 O   0  0  0  0  0  0  0  0  0  0  0  0
  -30.9080  -15.1600   20.5680 N   0  0  0  0  0  0  0  0  0  0  0  0
  -30.1290  -14.8480   21.1300 H   0  0  0  0  0  0  0  0  0  0  0  0
  -25.8040  -13.8710   20.2330 C   0  0  0  0  0  0  0  0  0  0  0  0
  -24.7330  -13.1590   20.7030 C   0  0  0  0  0  0  0  0  0  0  0  0
  -25.0790  -11.7810   20.5540 C   0  0  0  0  0  0  0  0  0  0  0  0
  -26.7410  -12.9290   19.8340 N   0  0  0  0  0  0  0  0  0  0  0  0
  -26.3120  -11.6650   20.0790 N   0  0  0  0  0  0  0  0  0  0  0  0
  -24.2870  -10.5660   20.7810 C   0  0  0  0  0  0  0  0  0  0  0  0
  -24.6720   -9.6020   21.7390 C   0  0  0  0  0  3  0  0  0  0  0  0
  -23.8840   -8.4500   21.9500 C   0  0  0  0  0  3  0  0  0  0  0  0
  -22.6990   -8.2540   21.2050 C   0  0  0  0  0  0  0  0  0  0  0  0
  -22.3320   -9.2050   20.2370 C   0  0  0  0  0  3  0  0  0  0  0  0
  -23.1190  -10.3490   20.0230 C   0  0  0  0  0  3  0  0  0  0  0  0
  -21.8840   -7.1540   21.3250 O   0  0  0  0  0  0  0  0  0  0  0  0
  -21.6880   -6.5330   22.5320 C   0  0  0  0  0  0  0  0  0  0  0  0
  -21.1800   -7.2260   23.6540 C   0  0  0  0  0  3  0  0  0  0  0  0
  -20.9280   -6.5330   24.8540 C   0  0  0  0  0  3  0  0  0  0  0  0
  -21.1720   -5.1500   24.9340 C   0  0  0  0  0  0  0  0  0  0  0  0
  -21.6700   -4.4560   23.8180 C   0  0  0  0  0  3  0  0  0  0  0  0
  -21.9240   -5.1470   22.6190 C   0  0  0  0  0  0  0  0  0  0  0  0
  -22.3850   -4.4700   21.5390 F   0  0  0  0  0  0  0  0  0  0  0  0
  -20.9210   -4.4820   26.0850 F   0  0  0  0  0  0  0  0  0  0  0  0
  -23.4220  -13.7200   21.1770 C   0  0  0  0  0  0  0  0  0  0  0  0
  -22.7810  -13.0540   22.1300 N   0  0  0  0  0  0  0  0  0  0  0  0
  -22.9830  -14.7810   20.7350 O   0  0  0  0  0  0  0  0  0  0  0  0
  -23.1510  -12.1940   22.5070 H   0  0  0  0  0  0  0  0  0  0  0  0
  -21.9060  -13.4100   22.4910 H   0  0  0  0  0  0  0  0  0  0  0  0
  -26.0530  -15.2330   20.0950 N   0  0  0  0  0  0  0  0  0  0  0  0
  -25.3690  -15.9410   20.3400 H   0  0  0  0  0  0  0  0  0  0  0  0
  -26.9060  -15.6230   19.7130 H   0  0  0  0  0  0  0  0  0  0  0  0
  -28.1030  -24.8400   20.8370 C   0  0  0  0  0  2  0  0  0  0  0  0
  -28.4190  -26.3430   20.9230 C   0  0  0  0  0  2  0  0  0  0  0  0
  -27.8420  -27.0000   19.8060 O   0  0  0  0  0  0  0  0  0  0  0  0
  -24.5040  -32.1190   23.4870 C   0  0  0  0  0  0  0  0  0  0  0  0
  -26.7050  -27.7220   20.0450 C   0  0  0  0  0  0  0  0  0  0  0  0
  -23.1100  -30.8360   21.8910 C   0  0  0  0  0  3  0  0  0  0  0  0
  -24.3800  -29.2880   20.3130 C   0  0  0  0  0  0  0  0  0  0  0  0
  -25.6240  -31.0990   21.5130 C   0  0  0  0  0  2  0  0  0  0  0  0
  -25.5980  -29.7480   20.8310 C   0  0  0  0  0  0  0  0  0  0  0  0
  -26.7650  -28.9670   20.7050 C   0  0  0  0  0  3  0  0  0  0  0  0
  -25.4770  -27.2630   19.5320 C   0  0  0  0  0  3  0  0  0  0  0  0
  -24.3110  -28.0400   19.6690 C   0  0  0  0  0  3  0  0  0  0  0  0
  -23.1830  -30.1960   20.4790 C   0  0  0  0  0  2  0  0  0  0  0  0
  -24.4350  -31.3640   22.3540 N   0  0  0  0  0  0  0  0  0  0  0  0
  -23.4810  -32.4160   24.1200 O   0  0  0  0  0  0  0  0  0  0  0  0
  -22.4880  -29.8070   22.8630 C   0  0  0  0  0  0  0  0  0  0  0  0
  -21.1870  -29.5320   22.6860 N   0  0  0  0  0  0  0  0  0  0  0  0
  -23.1750  -29.2590   23.7290 O   0  0  0  0  0  0  0  0  0  0  0  0
  -20.6950  -30.0270   21.9560 H   0  0  0  0  0  0  0  0  0  0  0  0
  -17.9410  -27.9660   22.9270 C   0  0  0  0  0  0  0  0  0  0  0  0
  -20.3990  -28.5690   23.4540 C   0  0  0  0  0  3  0  0  0  0  0  0
  -20.7380  -27.1190   23.0400 C   0  0  0  0  0  2  0  0  0  0  0  0
  -19.8140  -26.5700   21.9500 C   0  0  0  0  0  2  0  0  0  0  0  0
  -18.3550  -26.5950   22.4180 C   0  0  0  0  0  2  0  0  0  0  0  0
  -18.9030  -28.8980   23.3980 C   0  0  0  0  0  0  0  0  0  0  0  0
  -18.4710  -30.1710   23.8290 C   0  0  0  0  0  3  0  0  0  0  0  0
  -17.1060  -30.5180   23.7960 C   0  0  0  0  0  3  0  0  0  0  0  0
  -16.1560  -29.5840   23.3450 C   0  0  0  0  0  3  0  0  0  0  0  0
  -16.5740  -28.3120   22.9170 C   0  0  0  0  0  3  0  0  0  0  0  0
  -25.8640  -32.6640   24.0270 C   0  0  0  0  0  3  0  0  0  0  0  0
  -26.3890  -31.8830   25.2930 C   0  0  1  0  0  0  0  0  0  0  0  0
  -25.3200  -31.6990   26.3940 C   0  0  0  0  0  1  0  0  0  0  0  0
  -26.9050  -30.4810   24.8940 C   0  0  0  0  0  1  0  0  0  0  0  0
  -27.5870  -32.6380   25.9150 C   0  0  0  0  0  1  0  0  0  0  0  0
  -25.6790  -34.0880   24.3320 N   0  0  0  0  0  0  0  0  0  0  0  0
  -26.0880  -35.0930   23.5470 C   0  0  0  0  0  0  0  0  0  0  0  0
  -26.7330  -34.9120   22.5100 O   0  0  0  0  0  0  0  0  0  0  0  0
  -25.1100  -34.3080   25.1360 H   0  0  0  0  0  0  0  0  0  0  0  0
  -24.5120  -37.0150   23.1660 C   0  0  0  0  0  1  0  0  0  0  0  0
  -25.7220  -36.5260   23.9780 C   0  0  0  0  0  3  0  0  0  0  0  0
  -27.9320  -37.2400   24.7730 C   0  0  0  0  0  1  0  0  0  0  0  0
  -26.8380  -37.4860   23.8380 N   0  0  0  0  0  0  0  0  0  0  0  0
  -26.5120  -38.4380   23.9750 H   0  0  0  0  0  0  0  0  0  0  0  0
  1  3  1  0
  2  4  1  0
  2  5  1  0
  4  6  1  0
  5 56  1  0
  5  1  1  0
  6  8  1  0
  6  3  1  0
  8  7  1  1
  9  8  1  0
 10 12  2  0
 10 14  1  0
 12 13  1  0
 13  8  1  0
 13 11  2  0
 14 15  2  0
 15 11  1  0
 15 17  1  0
 16 12  1  0
 18 26  1  0
 19 24  1  0
 20 21  1  0
 20 19  1  0
 22 21  1  0
 22 31  1  0
 22 23  1  0
 24 18  1  0
 24 23  1  0
 25 18  2  0
 26 14  1  0
 26 27  1  0
 28 29  2  0
 29 48  1  0
 30 29  1  0
 30 33  1  0
 31 32  1  0
 31 28  1  0
 32 30  2  0
 33 34  1  0
 34 35  2  0
 36 39  1  0
 36 35  1  0
 37 36  2  0
 38 37  1  0
 38 33  2  0
 39 40  1  0
 40 45  2  0
 40 41  1  0
 41 42  2  0
 42 43  1  0
 43 47  1  0
 44 43  2  0
 45 44  1  0
 46 45  1  0
 48 49  1  0
 49 52  1  0
 49 51  1  0
 50 48  2  0
 53 28  1  0
 53 54  1  0
 55 53  1  0
 56 57  1  0
 58 60  1  0
 58 57  1  0
 59 70  2  0
 60 65  1  0
 61 69  1  0
 61 71  1  0
 62 68  1  0
 62 64  1  0
 63 69  1  0
 64 63  1  0
 65 64  2  0
 66 67  1  0
 66 60  2  0
 67 62  2  0
 68 61  1  0
 69 59  1  0
 71 73  2  0
 72 71  1  0
 74 72  1  0
 75 80  1  0
 76 72  1  0
 77 76  1  0
 78 79  1  0
 78 77  1  0
 79 75  1  0
 80 76  1  0
 80 81  2  0
 82 81  1  0
 83 82  2  0
 84 75  2  0
 84 83  1  0
 85 59  1  0
 85 90  1  0
 85 86  1  0
 86 89  1  1
 86 87  1  0
 88 86  1  0
 90 93  1  0
 91 95  1  0
 91 90  1  0
 92 91  2  0
 95 94  1  0
 97 98  1  0
 97 95  1  0
 97 96  1  0
M  ISO  4  18 100  26 100  57 101  58 101
M  END
>  <TORSDO>  (65) 
F 20

>  <SCORE>  (65) 
-12.414

>  <name>  (65) 
65

>  <ligand_id>  (65) 
65

>  <original_smiles>  (65) 
[H]c1c([H])c([H])c2c(c1[H])C([H])([H])C([H])([H])C([H])([H])C2([H])N([H])C(=O)C1([H])N(C(=O)C([H])(N([H])C(=O)C([H])(N([H])C([H])([H])[H])C([H])([H])[H])C(C([H])([H])[H])(C([H])([H])[H])C([H])([H])[H])C([H])([H])c2c([H])c(OC([H])([H])C([H])([H])C3([H])C([H])([H])C([H])([H])C([H])(C(F)(c4c([H])c(F)c(N([H])C(=O)N5C([H])([H])C([H])([H])C([H])([H])C([H])(n6nc(-c7c([H])c([H])c(Oc8c([H])c([H])c(F)c([H])c8F)c([H])c7[H])c(C(=O)N([H])[H])c6N([H])[H])C5([H])[H])c([H])c4C([H])([H])[H])C([H])([H])[H])C([H])([H])C3([H])[H])c([H])c([H])c2C1([H])[H]

>  <smiles>  (65) 
[H]c1c([H])c([H])c2c(c1[H])C([H])([H])C([H])([H])C([H])([H])C2([H])N([H])C(=O)C1([H])N(C(=O)C([H])(N([H])C(=O)C([H])(N([H])C([H])([H])[H])C([H])([H])[H])C(C([H])([H])[H])(C([H])([H])[H])C([H])([H])[H])C([H])([H])c2c([H])c(OC([H])([H])C([H])([H])C3([H])C([H])([H])C([H])([H])C([H])(C(F)(c4c([H])c(F)c(N([H])C(=O)N5C([H])([H])C([H])([H])C([H])([H])C([H])(n6nc(-c7c([H])c([H])c(Oc8c([H])c([H])c(F)c([H])c8F)c([H])c7[H])c(C(=O)N([H])[H])c6N([H])[H])C5([H])[H])c([H])c4C([H])([H])[H])C([H])([H])[H])C([H])([H])C3([H])[H])c([H])c([H])c2C1([H])[H]

$$$$
66:0:0
     RDKit          3D

100109  0  0  1  0  0  0  0  0999 V2000
  -28.5060  -22.1550   22.0470 N   0  0  0  0  0  4  0  0  0  0  0  0
  -29.2640  -22.8160   21.9600 H   0  0  0  0  0  0  0  0  0  0  0  0
  -27.9040  -22.4760   22.7900 H   0  0  0  0  0  0  0  0  0  0  0  0
  -26.2250  -22.1200   21.0700 C   0  0  0  0  0  1  0  0  0  0  0  0
  -27.7380  -22.1530   20.7840 C   0  0  0  0  0  3  0  0  0  0  0  0
  -27.6150  -24.7650   20.1490 C   0  0  0  0  0  2  0  0  0  0  0  0
  -29.5400  -23.9440   19.9060 C   0  0  0  0  0  2  0  0  0  0  0  0
  -28.9320  -25.3170   19.5740 C   0  0  0  0  0  3  0  0  0  0  0  0
  -28.1240  -23.3430   19.8900 C   0  0  0  0  0  3  0  0  0  0  0  0
  -29.5480  -26.5870   20.1720 C   0  0  0  0  0  2  0  0  0  0  0  0
  -29.1680  -27.7700   19.4720 O   0  0  0  0  0  0  0  0  0  0  0  0
  -24.6470  -31.6110   23.4350 C   0  0  0  0  0  0  0  0  0  0  0  0
  -27.8850  -28.2160   19.6750 C   0  0  0  0  0  0  0  0  0  0  0  0
  -23.6310  -30.2770   21.6170 C   0  0  0  0  0  3  0  0  0  0  0  0
  -25.2660  -29.2360   19.9530 C   0  0  0  0  0  0  0  0  0  0  0  0
  -26.0460  -31.0920   21.4390 C   0  0  0  0  0  2  0  0  0  0  0  0
  -26.3360  -29.8630   20.6040 C   0  0  0  0  0  0  0  0  0  0  0  0
  -27.6470  -29.3580   20.4660 C   0  0  0  0  0  3  0  0  0  0  0  0
  -26.8010  -27.5940   19.0180 C   0  0  0  0  0  3  0  0  0  0  0  0
  -25.4930  -28.0970   19.1590 C   0  0  0  0  0  3  0  0  0  0  0  0
  -23.8970  -29.8480   20.1480 C   0  0  0  0  0  2  0  0  0  0  0  0
  -24.7950  -31.0000   22.2250 N   0  0  0  0  0  0  0  0  0  0  0  0
  -23.5580  -31.6110   24.0270 O   0  0  0  0  0  0  0  0  0  0  0  0
  -23.2010  -29.0270   22.4200 C   0  0  0  0  0  0  0  0  0  0  0  0
  -21.9730  -28.5470   22.1750 N   0  0  0  0  0  0  0  0  0  0  0  0
  -23.9770  -28.4950   23.2210 O   0  0  0  0  0  0  0  0  0  0  0  0
  -21.3940  -29.0440   21.5110 H   0  0  0  0  0  0  0  0  0  0  0  0
  -19.0590  -26.4110   22.1290 C   0  0  0  0  0  0  0  0  0  0  0  0
  -21.3780  -27.3540   22.7750 C   0  0  0  0  0  3  0  0  0  0  0  0
  -21.9630  -26.0630   22.1550 C   0  0  0  0  0  2  0  0  0  0  0  0
  -21.1370  -25.5280   20.9810 C   0  0  0  0  0  2  0  0  0  0  0  0
  -19.7010  -25.2230   21.4290 C   0  0  0  0  0  2  0  0  0  0  0  0
  -19.8480  -27.4170   22.7460 C   0  0  0  0  0  0  0  0  0  0  0  0
  -19.2090  -28.5220   23.3520 C   0  0  0  0  0  3  0  0  0  0  0  0
  -17.8040  -28.6270   23.3510 C   0  0  0  0  0  3  0  0  0  0  0  0
  -17.0260  -27.6220   22.7490 C   0  0  0  0  0  3  0  0  0  0  0  0
  -17.6510  -26.5150   22.1440 C   0  0  0  0  0  3  0  0  0  0  0  0
  -25.8360  -32.3540   24.1220 C   0  0  0  0  0  3  0  0  0  0  0  0
  -25.3980  -33.7310   24.3870 N   0  0  0  0  0  0  0  0  0  0  0  0
  -25.7170  -34.7890   23.6320 C   0  0  0  0  0  0  0  0  0  0  0  0
  -26.4830  -34.7140   22.6650 O   0  0  0  0  0  0  0  0  0  0  0  0
  -24.7180  -33.8540   25.1250 H   0  0  0  0  0  0  0  0  0  0  0  0
  -23.8980  -36.4380   23.0770 C   0  0  0  0  0  1  0  0  0  0  0  0
  -25.0880  -36.1450   24.0030 C   0  0  0  0  0  3  0  0  0  0  0  0
  -27.0750  -37.2000   24.9860 C   0  0  0  0  0  1  0  0  0  0  0  0
  -26.0470  -37.2680   23.9510 N   0  0  0  0  0  0  0  0  0  0  0  0
  -25.5650  -38.1580   24.0470 H   0  0  0  0  0  0  0  0  0  0  0  0
  -26.3220  -31.6540   25.4520 C   0  0  1  0  0  0  0  0  0  0  0  0
  -25.1780  -31.3460   26.4450 C   0  0  0  0  0  1  0  0  0  0  0  0
  -27.0470  -30.3250   25.1390 C   0  0  0  0  0  1  0  0  0  0  0  0
  -27.3460  -32.5600   26.1740 C   0  0  0  0  0  1  0  0  0  0  0  0
  -29.1150  -20.8630   22.4390 C   0  0  0  0  0  2  0  0  0  0  0  0
  -32.2070  -20.7250   20.1890 C   0  0  0  0  0  3  0  0  0  0  0  0
  -31.1040  -18.5410   20.0060 C   0  0  0  0  0  0  0  0  0  0  0  0
  -30.1480  -20.3470   21.4250 C   0  0  0  0  0  0  0  0  0  0  0  0
  -32.1730  -19.4250   19.6690 C   0  0  0  0  0  0  0  0  0  0  0  0
  -31.2120  -21.1910   21.0570 C   0  0  0  0  0  0  0  0  0  0  0  0
  -30.0900  -19.0310   20.8860 C   0  0  0  0  0  0  0  0  0  0  0  0
  -33.4930  -19.0300   18.6220 Cl  0  0  0  0  0  0  0  0  0  0  0  0
  -31.3080  -22.8230   21.6250 Cl  0  0  0  0  0  0  0  0  0  0  0  0
  -28.7600  -18.0030   21.3010 Cl  0  0  0  0  0  0  0  0  0  0  0  0
  -30.9660  -17.0910   19.4800 C   0  0  0  0  0  2  0  0  0  0  0  0
  -32.3760  -15.1280   18.8340 C   0  0  0  0  0  0  0  0  0  0  0  0
  -32.0630  -12.6930   18.5560 C   0  0  0  0  0  2  0  0  0  0  0  0
  -30.9900  -12.3850   17.4940 C   0  0  0  0  0  2  0  0  0  0  0  0
  -29.5810  -12.3930   18.1180 C   0  0  0  0  0  2  0  0  0  0  0  0
  -29.3200  -13.6670   18.9690 C   0  0  0  0  0  3  0  0  0  0  0  0
  -30.4850  -13.8870   19.9610 C   0  0  0  0  0  2  0  0  0  0  0  0
  -31.7340  -13.9820   19.1900 N   0  0  0  0  0  0  0  0  0  0  0  0
  -33.3000  -15.1520   18.0180 O   0  0  0  0  0  0  0  0  0  0  0  0
  -32.1380  -16.2120   19.5840 N   0  0  0  0  0  0  0  0  0  0  0  0
  -32.9690  -16.7870   19.5790 H   0  0  0  0  0  0  0  0  0  0  0  0
  -27.2520  -14.6180   20.1850 C   0  0  0  0  0  0  0  0  0  0  0  0
  -26.1160  -14.0180   20.6620 C   0  0  0  0  0  0  0  0  0  0  0  0
  -26.2650  -12.6240   20.3900 C   0  0  0  0  0  0  0  0  0  0  0  0
  -28.0320  -13.5960   19.6590 N   0  0  0  0  0  0  0  0  0  0  0  0
  -27.4470  -12.3850   19.8360 N   0  0  0  0  0  0  0  0  0  0  0  0
  -25.3260  -11.5100   20.5670 C   0  0  0  0  0  0  0  0  0  0  0  0
  -25.6380  -10.4000   21.3840 C   0  0  0  0  0  3  0  0  0  0  0  0
  -24.7090   -9.3500   21.5540 C   0  0  0  0  0  3  0  0  0  0  0  0
  -23.4510   -9.4070   20.9080 C   0  0  0  0  0  0  0  0  0  0  0  0
  -23.1530  -10.5030   20.0810 C   0  0  0  0  0  3  0  0  0  0  0  0
  -24.0810  -11.5440   19.9080 C   0  0  0  0  0  3  0  0  0  0  0  0
  -22.4980   -8.4230   20.9920 O   0  0  0  0  0  0  0  0  0  0  0  0
  -22.2450   -7.7670   22.1710 C   0  0  0  0  0  0  0  0  0  0  0  0
  -21.8710   -8.4580   23.3440 C   0  0  0  0  0  3  0  0  0  0  0  0
  -21.5520   -7.7390   24.5120 C   0  0  0  0  0  3  0  0  0  0  0  0
  -21.5970   -6.3310   24.5090 C   0  0  0  0  0  0  0  0  0  0  0  0
  -21.9600   -5.6420   23.3410 C   0  0  0  0  0  3  0  0  0  0  0  0
  -22.2810   -6.3580   22.1730 C   0  0  0  0  0  0  0  0  0  0  0  0
  -22.6100   -5.6870   21.0430 F   0  0  0  0  0  0  0  0  0  0  0  0
  -21.2810   -5.6410   25.6290 F   0  0  0  0  0  0  0  0  0  0  0  0
  -24.9190  -14.7100   21.2530 C   0  0  0  0  0  0  0  0  0  0  0  0
  -24.2320  -14.0650   22.1910 N   0  0  0  0  0  0  0  0  0  0  0  0
  -24.6130  -15.8540   20.9190 O   0  0  0  0  0  0  0  0  0  0  0  0
  -24.4860  -13.1340   22.4830 H   0  0  0  0  0  0  0  0  0  0  0  0
  -23.4240  -14.5030   22.6120 H   0  0  0  0  0  0  0  0  0  0  0  0
  -27.6690  -15.9460   20.1410 N   0  0  0  0  0  0  0  0  0  0  0  0
  -27.0930  -16.6960   20.5100 H   0  0  0  0  0  0  0  0  0  0  0  0
  -28.5300  -16.2800   19.7300 H   0  0  0  0  0  0  0  0  0  0  0  0
  1 52  1  0
  1  3  1  0
  2  1  1  0
  5  4  1  0
  5  1  1  0
  8  7  1  0
  8  6  1  0
  8 10  1  0
  9  7  1  0
  9  6  1  0
  9  5  1  0
 11 13  1  0
 11 10  1  0
 12 23  2  0
 13 18  1  0
 14 22  1  0
 14 24  1  0
 15 21  1  0
 15 17  1  0
 16 22  1  0
 17 16  1  0
 18 17  2  0
 19 20  1  0
 19 13  2  0
 20 15  2  0
 21 14  1  0
 22 12  1  0
 24 26  2  0
 25 24  1  0
 27 25  1  0
 28 37  2  0
 28 33  1  0
 29 25  1  0
 30 29  1  0
 31 32  1  0
 31 30  1  0
 32 28  1  0
 33 29  1  0
 33 34  2  0
 35 34  1  0
 36 35  2  0
 37 36  1  0
 38 12  1  0
 38 39  1  0
 38 48  1  0
 39 42  1  0
 40 44  1  0
 40 39  1  0
 41 40  2  0
 44 43  1  0
 46 44  1  0
 46 47  1  0
 46 45  1  0
 48 51  1  1
 48 49  1  0
 50 48  1  0
 53 57  1  0
 54 58  2  0
 55 52  1  0
 56 54  1  0
 56 53  2  0
 57 55  2  0
 57 60  1  0
 58 61  1  0
 58 55  1  0
 59 56  1  0
 62 71  1  0
 62 54  1  0
 63 69  1  0
 63 71  1  0
 64 69  1  0
 65 66  1  0
 65 64  1  0
 67 66  1  0
 67 76  1  0
 67 68  1  0
 69 68  1  0
 70 63  2  0
 72 71  1  0
 73 74  2  0
 74 93  1  0
 75 78  1  0
 75 74  1  0
 76 77  1  0
 76 73  1  0
 77 75  2  0
 78 79  1  0
 79 80  2  0
 81 84  1  0
 81 80  1  0
 82 81  2  0
 83 82  1  0
 83 78  2  0
 84 85  1  0
 85 90  2  0
 85 86  1  0
 86 87  2  0
 88 87  1  0
 88 92  1  0
 89 88  2  0
 90 89  1  0
 91 90  1  0
 93 94  1  0
 94 96  1  0
 94 97  1  0
 95 93  2  0
 98 73  1  0
 98 99  1  0
100 98  1  0
M  ISO  4  10 101  11 101  63 100  71 100
M  END
>  <TORSDO>  (66) 
F 22

>  <SCORE>  (66) 
-6.941

>  <name>  (66) 
66

>  <ligand_id>  (66) 
66

>  <original_smiles>  (66) 
[H]c1c([H])c([H])c2c(c1[H])C([H])([H])C([H])([H])C([H])([H])C2([H])N([H])C(=O)C1([H])N(C(=O)C([H])(N([H])C(=O)C([H])(N([H])C([H])([H])[H])C([H])([H])[H])C(C([H])([H])[H])(C([H])([H])[H])C([H])([H])[H])C([H])([H])c2c([H])c(OC([H])([H])C3([H])C([H])([H])C([H])(C([H])(C([H])([H])[H])[N+]([H])([H])C([H])([H])c4c(Cl)c([H])c(Cl)c(C([H])([H])N([H])C(=O)N5C([H])([H])C([H])([H])C([H])([H])C([H])(n6nc(-c7c([H])c([H])c(Oc8c([H])c([H])c(F)c([H])c8F)c([H])c7[H])c(C(=O)N([H])[H])c6N([H])[H])C5([H])[H])c4Cl)C3([H])[H])c([H])c([H])c2C1([H])[H]

>  <smiles>  (66) 
[H]c1c([H])c([H])c2c(c1[H])C([H])([H])C([H])([H])C([H])([H])C2([H])N([H])C(=O)C1([H])N(C(=O)C([H])(N([H])C(=O)C([H])(N([H])C([H])([H])[H])C([H])([H])[H])C(C([H])([H])[H])(C([H])([H])[H])C([H])([H])[H])C([H])([H])c2c([H])c(OC([H])([H])C3([H])C([H])([H])C([H])(C([H])(C([H])([H])[H])[N+]([H])([H])C([H])([H])c4c(Cl)c([H])c(Cl)c(C([H])([H])N([H])C(=O)N5C([H])([H])C([H])([H])C([H])([H])C([H])(n6nc(-c7c([H])c([H])c(Oc8c([H])c([H])c(F)c([H])c8F)c([H])c7[H])c(C(=O)N([H])[H])c6N([H])[H])C5([H])[H])c4Cl)C3([H])[H])c([H])c([H])c2C1([H])[H]

$$$$
67:0:0
     RDKit          3D

 96104  0  0  1  0  0  0  0  0999 V2000
  -31.5200  -18.8520   21.5300 C   0  0  0  0  0  3  0  0  0  0  0  0
  -30.9680  -20.1160   21.8460 C   0  0  0  0  0  0  0  0  0  0  0  0
  -31.5320  -17.7820   22.4460 C   0  0  0  0  0  0  0  0  0  0  0  0
  -30.4020  -20.3040   23.1480 C   0  0  0  0  0  0  0  0  0  0  0  0
  -30.9330  -17.9570   23.7100 C   0  0  0  0  0  0  0  0  0  0  0  0
  -30.3620  -19.2040   24.0540 C   0  0  0  0  0  0  0  0  0  0  0  0
  -29.8510  -21.6530   23.6090 C   0  0  0  0  0  1  0  0  0  0  0  0
  -30.9230  -16.6540   24.8550 Cl  0  0  0  0  0  0  0  0  0  0  0  0
  -29.6170  -19.3550   25.6140 Cl  0  0  0  0  0  0  0  0  0  0  0  0
  -32.2500  -16.4860   22.0730 C   0  0  0  0  0  2  0  0  0  0  0  0
  -31.7590  -14.6960   20.4030 C   0  0  0  0  0  0  0  0  0  0  0  0
  -31.2390  -12.6680   19.0920 C   0  0  0  0  0  2  0  0  0  0  0  0
  -30.3420  -12.9800   17.8810 C   0  0  0  0  0  2  0  0  0  0  0  0
  -28.8530  -12.9560   18.2810 C   0  0  0  0  0  2  0  0  0  0  0  0
  -28.5670  -13.7950   19.5550 C   0  0  0  0  0  3  0  0  0  0  0  0
  -29.5730  -13.4600   20.6790 C   0  0  0  0  0  2  0  0  0  0  0  0
  -30.9390  -13.6380   20.1550 N   0  0  0  0  0  0  0  0  0  0  0  0
  -32.7990  -14.9010   19.7700 O   0  0  0  0  0  0  0  0  0  0  0  0
  -31.4060  -15.4680   21.4400 N   0  0  0  0  0  0  0  0  0  0  0  0
  -30.5430  -15.2410   21.9090 H   0  0  0  0  0  0  0  0  0  0  0  0
  -26.2030  -14.5920   20.1970 C   0  0  0  0  0  0  0  0  0  0  0  0
  -25.0720  -13.9080   20.5540 C   0  0  0  0  0  0  0  0  0  0  0  0
  -25.4300  -12.5260   20.5560 C   0  0  0  0  0  0  0  0  0  0  0  0
  -27.1840  -13.6310   20.0030 N   0  0  0  0  0  0  0  0  0  0  0  0
  -26.7190  -12.3830   20.2750 N   0  0  0  0  0  0  0  0  0  0  0  0
  -24.6060  -11.3250   20.7500 C   0  0  0  0  0  0  0  0  0  0  0  0
  -24.9450  -10.3450   21.7100 C   0  0  0  0  0  3  0  0  0  0  0  0
  -24.1290   -9.2080   21.8910 C   0  0  0  0  0  3  0  0  0  0  0  0
  -22.9600   -9.0430   21.1100 C   0  0  0  0  0  0  0  0  0  0  0  0
  -22.6410  -10.0090   20.1390 C   0  0  0  0  0  3  0  0  0  0  0  0
  -23.4580  -11.1370   19.9570 C   0  0  0  0  0  3  0  0  0  0  0  0
  -22.1200   -7.9600   21.1990 O   0  0  0  0  0  0  0  0  0  0  0  0
  -21.9690   -7.2570   22.3670 C   0  0  0  0  0  0  0  0  0  0  0  0
  -21.5640   -7.8840   23.5660 C   0  0  0  0  0  3  0  0  0  0  0  0
  -21.3550   -7.1120   24.7280 C   0  0  0  0  0  3  0  0  0  0  0  0
  -21.5440   -5.7180   24.6900 C   0  0  0  0  0  0  0  0  0  0  0  0
  -21.9440   -5.0920   23.4950 C   0  0  0  0  0  3  0  0  0  0  0  0
  -22.1520   -5.8600   22.3370 C   0  0  0  0  0  0  0  0  0  0  0  0
  -22.5170   -5.2510   21.1830 F   0  0  0  0  0  0  0  0  0  0  0  0
  -21.3360   -4.9750   25.8020 F   0  0  0  0  0  0  0  0  0  0  0  0
  -23.7080  -14.4920   20.7870 C   0  0  0  0  0  0  0  0  0  0  0  0
  -22.9200  -13.8830   21.6650 N   0  0  0  0  0  0  0  0  0  0  0  0
  -23.3520  -15.5240   20.2190 O   0  0  0  0  0  0  0  0  0  0  0  0
  -23.2210  -13.0480   22.1480 H   0  0  0  0  0  0  0  0  0  0  0  0
  -22.0020  -14.2590   21.8570 H   0  0  0  0  0  0  0  0  0  0  0  0
  -26.4740  -15.9420   20.0020 N   0  0  0  0  0  0  0  0  0  0  0  0
  -25.7580  -16.6560   20.0850 H   0  0  0  0  0  0  0  0  0  0  0  0
  -27.3690  -16.3130   19.7070 H   0  0  0  0  0  0  0  0  0  0  0  0
  -31.0490  -21.1440   20.6920 C   0  0  0  0  0  2  0  0  0  0  0  0
  -30.7880  -22.5740   20.9590 N   0  0  0  0  0  4  0  0  0  0  0  0
  -31.6070  -23.0710   20.6500 H   0  0  0  0  0  0  0  0  0  0  0  0
  -30.7090  -22.7120   21.9520 H   0  0  0  0  0  0  0  0  0  0  0  0
  -29.6150  -23.1500   20.2500 C   0  0  0  0  0  2  0  0  0  0  0  0
  -29.6020  -24.6930   20.2730 C   0  0  0  0  0  2  0  0  0  0  0  0
  -28.2750  -25.2760   19.7560 C   0  0  0  0  0  2  0  0  0  0  0  0
  -28.3230  -26.7020   19.7960 O   0  0  0  0  0  0  0  0  0  0  0  0
  -24.5580  -31.7290   23.0940 C   0  0  0  0  0  0  0  0  0  0  0  0
  -27.1240  -27.3840   19.8290 C   0  0  0  0  0  0  0  0  0  0  0  0
  -23.3020  -30.3500   21.4660 C   0  0  0  0  0  3  0  0  0  0  0  0
  -24.7110  -28.8520   19.9600 C   0  0  0  0  0  0  0  0  0  0  0  0
  -25.8130  -30.7370   21.1830 C   0  0  0  0  0  2  0  0  0  0  0  0
  -25.8830  -29.3800   20.5130 C   0  0  0  0  0  0  0  0  0  0  0  0
  -27.0900  -28.6520   20.4440 C   0  0  0  0  0  3  0  0  0  0  0  0
  -25.9320  -26.8680   19.2650 C   0  0  0  0  0  3  0  0  0  0  0  0
  -24.7290  -27.5950   19.3320 C   0  0  0  0  0  3  0  0  0  0  0  0
  -23.4640  -29.6980   20.0670 C   0  0  0  0  0  2  0  0  0  0  0  0
  -24.5780  -30.9530   21.9720 N   0  0  0  0  0  0  0  0  0  0  0  0
  -23.4980  -31.9790   23.6850 O   0  0  0  0  0  0  0  0  0  0  0  0
  -22.6970  -29.3050   22.4320 C   0  0  0  0  0  0  0  0  0  0  0  0
  -21.3790  -29.0760   22.3130 N   0  0  0  0  0  0  0  0  0  0  0  0
  -23.4080  -28.7040   23.2410 O   0  0  0  0  0  0  0  0  0  0  0  0
  -20.8640  -29.6140   21.6310 H   0  0  0  0  0  0  0  0  0  0  0  0
  -18.0640  -27.7180   22.7890 C   0  0  0  0  0  0  0  0  0  0  0  0
  -20.6020  -28.1080   23.0880 C   0  0  0  0  0  3  0  0  0  0  0  0
  -20.7850  -26.6760   22.5340 C   0  0  0  0  0  2  0  0  0  0  0  0
  -19.7130  -26.2840   21.5120 C   0  0  0  0  0  2  0  0  0  0  0  0
  -18.3170  -26.3690   22.1350 C   0  0  0  0  0  2  0  0  0  0  0  0
  -19.1380  -28.5410   23.2210 C   0  0  0  0  0  0  0  0  0  0  0  0
  -18.8490  -29.8020   23.7880 C   0  0  0  0  0  3  0  0  0  0  0  0
  -17.5190  -30.2400   23.9270 C   0  0  0  0  0  3  0  0  0  0  0  0
  -16.4600  -29.4150   23.5120 C   0  0  0  0  0  3  0  0  0  0  0  0
  -16.7330  -28.1560   22.9490 C   0  0  0  0  0  3  0  0  0  0  0  0
  -25.8650  -32.3560   23.6750 C   0  0  0  0  0  3  0  0  0  0  0  0
  -25.5550  -33.7340   24.0760 N   0  0  0  0  0  0  0  0  0  0  0  0
  -25.8590  -34.8220   23.3550 C   0  0  0  0  0  0  0  0  0  0  0  0
  -26.5020  -34.7720   22.3040 O   0  0  0  0  0  0  0  0  0  0  0  0
  -24.9920  -33.8480   24.9060 H   0  0  0  0  0  0  0  0  0  0  0  0
  -24.1080  -36.6110   23.1130 C   0  0  0  0  0  1  0  0  0  0  0  0
  -25.3670  -36.1820   23.8860 C   0  0  0  0  0  3  0  0  0  0  0  0
  -27.5080  -37.0440   24.7190 C   0  0  0  0  0  1  0  0  0  0  0  0
  -26.3860  -37.2500   23.8050 N   0  0  0  0  0  0  0  0  0  0  0  0
  -25.9760  -38.1570   24.0080 H   0  0  0  0  0  0  0  0  0  0  0  0
  -26.4590  -31.5450   24.8920 C   0  0  1  0  0  0  0  0  0  0  0  0
  -25.4270  -31.2430   26.0030 C   0  0  0  0  0  1  0  0  0  0  0  0
  -27.0450  -30.1980   24.4100 C   0  0  0  0  0  1  0  0  0  0  0  0
  -27.6240  -32.3360   25.5320 C   0  0  0  0  0  1  0  0  0  0  0  0
  1  2  2  0
  1  3  1  0
  2  4  1  0
  3  5  2  0
  4  7  1  0
  4  6  2  0
  5  6  1  0
  5  8  1  0
  6  9  1  0
 10  3  1  0
 11 19  1  0
 12 17  1  0
 13 14  1  0
 13 12  1  0
 15 14  1  0
 15 24  1  0
 15 16  1  0
 17 11  1  0
 17 16  1  0
 18 11  2  0
 19 20  1  0
 19 10  1  0
 21 22  2  0
 22 23  1  0
 22 41  1  0
 23 26  1  0
 24 21  1  0
 24 25  1  0
 25 23  2  0
 26 27  1  0
 27 28  2  0
 29 32  1  0
 29 28  1  0
 30 29  2  0
 31 30  1  0
 31 26  2  0
 32 33  1  0
 33 34  1  0
 34 35  2  0
 36 35  1  0
 36 40  1  0
 37 36  2  0
 38 33  2  0
 38 37  1  0
 39 38  1  0
 41 42  1  0
 42 45  1  0
 42 44  1  0
 43 41  2  0
 46 47  1  0
 46 21  1  0
 48 46  1  0
 49 50  1  0
 49  2  1  0
 50 52  1  0
 51 50  1  0
 53 54  1  0
 53 50  1  0
 55 56  1  0
 55 54  1  0
 56 58  1  0
 57 68  2  0
 58 63  1  0
 59 67  1  0
 59 69  1  0
 60 66  1  0
 60 62  1  0
 61 67  1  0
 62 61  1  0
 63 62  2  0
 64 65  1  0
 64 58  2  0
 65 60  2  0
 66 59  1  0
 67 57  1  0
 69 71  2  0
 70 69  1  0
 72 70  1  0
 73 82  2  0
 73 78  1  0
 74 70  1  0
 74 78  1  0
 75 74  1  0
 76 77  1  0
 76 75  1  0
 77 73  1  0
 78 79  2  0
 79 80  1  0
 81 80  2  0
 82 81  1  0
 83 57  1  0
 83 84  1  0
 83 93  1  0
 84 87  1  0
 85 89  1  0
 85 84  1  0
 86 85  2  0
 89 88  1  0
 91 89  1  0
 91 92  1  0
 91 90  1  0
 93 96  1  1
 93 94  1  0
 95 93  1  0
M  ISO  4  11 100  19 100  55 101  56 101
M  END
>  <TORSDO>  (67) 
F 22

>  <SCORE>  (67) 
-3.665

>  <name>  (67) 
67

>  <ligand_id>  (67) 
67

>  <original_smiles>  (67) 
[H]c1c([H])c([H])c2c(c1[H])C([H])([H])C([H])([H])C([H])([H])C2([H])N([H])C(=O)C1([H])N(C(=O)C([H])(N([H])C(=O)C([H])(N([H])C([H])([H])[H])C([H])([H])[H])C(C([H])([H])[H])(C([H])([H])[H])C([H])([H])[H])C([H])([H])c2c([H])c(OC([H])([H])C([H])([H])C([H])([H])[N+]([H])([H])C([H])([H])c3c([H])c(C([H])([H])N([H])C(=O)N4C([H])([H])C([H])([H])C([H])([H])C([H])(n5nc(-c6c([H])c([H])c(Oc7c([H])c([H])c(F)c([H])c7F)c([H])c6[H])c(C(=O)N([H])[H])c5N([H])[H])C4([H])[H])c(Cl)c(Cl)c3C([H])([H])[H])c([H])c([H])c2C1([H])[H]

>  <smiles>  (67) 
[H]c1c([H])c([H])c2c(c1[H])C([H])([H])C([H])([H])C([H])([H])C2([H])N([H])C(=O)C1([H])N(C(=O)C([H])(N([H])C(=O)C([H])(N([H])C([H])([H])[H])C([H])([H])[H])C(C([H])([H])[H])(C([H])([H])[H])C([H])([H])[H])C([H])([H])c2c([H])c(OC([H])([H])C([H])([H])C([H])([H])[N+]([H])([H])C([H])([H])c3c([H])c(C([H])([H])N([H])C(=O)N4C([H])([H])C([H])([H])C([H])([H])C([H])(n5nc(-c6c([H])c([H])c(Oc7c([H])c([H])c(F)c([H])c7F)c([H])c6[H])c(C(=O)N([H])[H])c5N([H])[H])C4([H])[H])c(Cl)c(Cl)c3C([H])([H])[H])c([H])c([H])c2C1([H])[H]

$$$$
68:0:0
     RDKit          3D

108117  0  0  1  0  0  0  0  0999 V2000
  -30.5020  -22.8070   25.3350 C   0  0  0  0  0  2  0  0  0  0  0  0
  -28.8250  -21.1380   24.4370 C   0  0  0  0  0  2  0  0  0  0  0  0
  -31.3800  -21.6450   25.8340 C   0  0  0  0  0  2  0  0  0  0  0  0
  -29.7100  -19.9820   24.9520 C   0  0  0  0  0  2  0  0  0  0  0  0
  -29.0060  -22.4210   25.2740 C   0  0  0  0  0  3  0  0  0  0  0  0
  -31.2010  -20.3690   24.9810 C   0  0  0  0  0  3  0  0  0  0  0  0
  -32.9190  -20.5010   23.1430 C   0  0  0  0  0  0  0  0  0  0  0  0
  -31.6640  -20.5480   23.6070 N   0  0  0  0  0  0  0  0  0  0  0  0
  -33.8960  -20.2550   23.8520 O   0  0  0  0  0  0  0  0  0  0  0  0
  -30.9470  -20.7090   22.9150 H   0  0  0  0  0  0  0  0  0  0  0  0
  -32.6210  -22.0290   21.1700 C   0  0  0  0  0  3  0  0  0  0  0  0
  -33.6280  -20.1250   19.3780 C   0  0  0  0  0  3  0  0  0  0  0  0
  -33.0380  -20.7710   21.6670 C   0  0  0  0  0  0  0  0  0  0  0  0
  -33.1900  -21.3790   18.8900 C   0  0  0  0  0  0  0  0  0  0  0  0
  -32.6790  -22.3270   19.7990 C   0  0  0  0  0  0  0  0  0  0  0  0
  -33.5560  -19.8150   20.7520 C   0  0  0  0  0  0  0  0  0  0  0  0
  -32.1140  -23.8630   19.2430 Cl  0  0  0  0  0  0  0  0  0  0  0  0
  -34.0690  -18.2340   21.2400 Cl  0  0  0  0  0  0  0  0  0  0  0  0
  -33.7120  -21.0450   16.4800 C   0  0  0  0  0  0  0  0  0  0  0  0
  -33.8010  -20.8550   14.0220 C   0  0  0  0  0  2  0  0  0  0  0  0
  -34.9190  -21.7160   13.4090 C   0  0  0  0  0  2  0  0  0  0  0  0
  -34.4270  -23.1530   13.1570 C   0  0  0  0  0  2  0  0  0  0  0  0
  -33.7350  -23.7690   14.4000 C   0  0  0  0  0  3  0  0  0  0  0  0
  -32.6820  -22.7960   14.9780 C   0  0  0  0  0  2  0  0  0  0  0  0
  -33.3430  -21.5050   15.2570 N   0  0  0  0  0  0  0  0  0  0  0  0
  -34.4630  -20.0770   16.6400 O   0  0  0  0  0  0  0  0  0  0  0  0
  -33.1650  -21.7050   17.5070 N   0  0  0  0  0  0  0  0  0  0  0  0
  -32.6990  -22.5670   17.2720 H   0  0  0  0  0  0  0  0  0  0  0  0
  -33.3510  -26.2960   14.7170 C   0  0  0  0  0  0  0  0  0  0  0  0
  -32.6290  -27.2090   13.9960 C   0  0  0  0  0  0  0  0  0  0  0  0
  -32.0170  -26.4750   12.9340 C   0  0  0  0  0  0  0  0  0  0  0  0
  -33.1530  -25.0740   14.0930 N   0  0  0  0  0  0  0  0  0  0  0  0
  -32.3000  -25.1840   13.0420 N   0  0  0  0  0  0  0  0  0  0  0  0
  -31.2240  -26.9370   11.7870 C   0  0  0  0  0  0  0  0  0  0  0  0
  -30.0970  -26.2180   11.3300 C   0  0  0  0  0  3  0  0  0  0  0  0
  -29.3400  -26.6910   10.2370 C   0  0  0  0  0  3  0  0  0  0  0  0
  -29.7030  -27.8960    9.5900 C   0  0  0  0  0  0  0  0  0  0  0  0
  -30.8390  -28.5950   10.0330 C   0  0  0  0  0  3  0  0  0  0  0  0
  -31.5960  -28.1210   11.1190 C   0  0  0  0  0  3  0  0  0  0  0  0
  -29.0430  -28.4180    8.5050 O   0  0  0  0  0  0  0  0  0  0  0  0
  -27.7730  -28.0190    8.1740 C   0  0  0  0  0  0  0  0  0  0  0  0
  -26.7090  -28.0790    9.1000 C   0  0  0  0  0  3  0  0  0  0  0  0
  -25.4050  -27.7240    8.6980 C   0  0  0  0  0  3  0  0  0  0  0  0
  -25.1630  -27.3180    7.3720 C   0  0  0  0  0  0  0  0  0  0  0  0
  -26.2200  -27.2630    6.4470 C   0  0  0  0  0  3  0  0  0  0  0  0
  -27.5220  -27.6160    6.8480 C   0  0  0  0  0  0  0  0  0  0  0  0
  -28.5340  -27.5810    5.9470 F   0  0  0  0  0  0  0  0  0  0  0  0
  -23.9100  -26.9850    6.9830 F   0  0  0  0  0  0  0  0  0  0  0  0
  -32.5820  -28.6920   14.2200 C   0  0  0  0  0  0  0  0  0  0  0  0
  -31.4570  -29.3250   13.9020 N   0  0  0  0  0  0  0  0  0  0  0  0
  -33.5280  -29.2940   14.7260 O   0  0  0  0  0  0  0  0  0  0  0  0
  -30.6730  -28.8290   13.5050 H   0  0  0  0  0  0  0  0  0  0  0  0
  -31.3810  -30.3210   14.0570 H   0  0  0  0  0  0  0  0  0  0  0  0
  -34.1700  -26.4050   15.8360 N   0  0  0  0  0  0  0  0  0  0  0  0
  -34.3640  -27.2940   16.2830 H   0  0  0  0  0  0  0  0  0  0  0  0
  -34.6610  -25.6310   16.2660 H   0  0  0  0  0  0  0  0  0  0  0  0
  -28.1470  -23.5830   24.7220 C   0  0  0  0  0  2  0  0  0  0  0  0
  -27.8910  -24.6140   25.7550 N   0  0  0  0  0  4  0  0  0  0  0  0
  -28.7630  -24.8480   26.2000 H   0  0  0  0  0  0  0  0  0  0  0  0
  -27.3100  -24.1870   26.4610 H   0  0  0  0  0  0  0  0  0  0  0  0
  -26.9760  -26.7530   26.5720 C   0  0  0  0  0  1  0  0  0  0  0  0
  -25.8660  -25.6150   24.6610 C   0  0  0  0  0  1  0  0  0  0  0  0
  -27.2380  -25.8810   25.3220 C   0  0  2  0  0  0  0  0  0  0  0  0
  -28.1380  -26.6450   24.3110 C   0  0  0  0  0  2  0  0  0  0  0  0
  -29.4410  -27.2500   24.8780 C   0  0  0  0  0  2  0  0  0  0  0  0
  -30.2760  -27.9460   23.7900 C   0  0  0  0  0  2  0  0  0  0  0  0
  -31.5110  -28.6850   24.3480 C   0  0  0  0  0  2  0  0  0  0  0  0
  -32.1840  -29.4060   23.3150 O   0  0  0  0  0  0  0  0  0  0  0  0
  -31.3200  -36.0210   25.8200 C   0  0  0  0  0  0  0  0  0  0  0  0
  -31.7030  -30.6770   23.1110 C   0  0  0  0  0  0  0  0  0  0  0  0
  -29.9810  -35.4250   23.8240 C   0  0  0  0  0  3  0  0  0  0  0  0
  -30.6230  -33.2430   22.6700 C   0  0  0  0  0  0  0  0  0  0  0  0
  -32.2290  -34.2970   24.2720 C   0  0  0  0  0  2  0  0  0  0  0  0
  -31.6860  -33.0750   23.5650 C   0  0  0  0  0  0  0  0  0  0  0  0
  -32.2300  -31.7940   23.7910 C   0  0  0  0  0  3  0  0  0  0  0  0
  -30.6420  -30.8570   22.2000 C   0  0  0  0  0  3  0  0  0  0  0  0
  -30.0910  -32.1340   21.9850 C   0  0  0  0  0  3  0  0  0  0  0  0
  -30.1010  -34.6490   22.4850 C   0  0  0  0  0  2  0  0  0  0  0  0
  -31.1840  -35.2550   24.7010 N   0  0  0  0  0  0  0  0  0  0  0  0
  -30.4870  -36.8910   26.1030 O   0  0  0  0  0  0  0  0  0  0  0  0
  -28.6600  -35.0170   24.5140 C   0  0  0  0  0  0  0  0  0  0  0  0
  -27.5590  -35.6860   24.1350 N   0  0  0  0  0  0  0  0  0  0  0  0
  -28.6330  -34.1020   25.3420 O   0  0  0  0  0  0  0  0  0  0  0  0
  -27.6670  -36.4240   23.4550 H   0  0  0  0  0  0  0  0  0  0  0  0
  -24.1580  -36.8940   23.9630 C   0  0  0  0  0  0  0  0  0  0  0  0
  -26.2000  -35.4490   24.6190 C   0  0  0  0  0  3  0  0  0  0  0  0
  -25.5190  -34.3090   23.8270 C   0  0  0  0  0  2  0  0  0  0  0  0
  -24.6990  -34.8100   22.6340 C   0  0  0  0  0  2  0  0  0  0  0  0
  -23.6030  -35.7730   23.1010 C   0  0  0  0  0  2  0  0  0  0  0  0
  -25.3860  -36.7470   24.6620 C   0  0  0  0  0  0  0  0  0  0  0  0
  -25.8740  -37.8310   25.4230 C   0  0  0  0  0  3  0  0  0  0  0  0
  -25.1600  -39.0410   25.4940 C   0  0  0  0  0  3  0  0  0  0  0  0
  -23.9370  -39.1750   24.8130 C   0  0  0  0  0  3  0  0  0  0  0  0
  -23.4370  -38.1020   24.0530 C   0  0  0  0  0  3  0  0  0  0  0  0
  -32.5390  -35.8560   26.7810 C   0  0  0  0  0  3  0  0  0  0  0  0
  -32.1950  -35.0480   28.0920 C   0  0  1  0  0  0  0  0  0  0  0  0
  -30.9400  -35.5700   28.8300 C   0  0  0  0  0  1  0  0  0  0  0  0
  -31.9660  -33.5520   27.7680 C   0  0  0  0  0  1  0  0  0  0  0  0
  -33.3900  -35.1090   29.0730 C   0  0  0  0  0  1  0  0  0  0  0  0
  -33.0250  -37.2030   27.1100 N   0  0  0  0  0  0  0  0  0  0  0  0
  -34.0540  -37.8100   26.5030 C   0  0  0  0  0  0  0  0  0  0  0  0
  -34.7460  -37.2560   25.6440 O   0  0  0  0  0  0  0  0  0  0  0  0
  -32.4680  -37.7370   27.7610 H   0  0  0  0  0  0  0  0  0  0  0  0
  -33.7420  -40.2290   25.8920 C   0  0  0  0  0  1  0  0  0  0  0  0
  -34.3630  -39.2620   26.9130 C   0  0  0  0  0  3  0  0  0  0  0  0
  -36.4320  -38.8280   28.1600 C   0  0  0  0  0  1  0  0  0  0  0  0
  -35.8090  -39.5390   27.0470 N   0  0  0  0  0  0  0  0  0  0  0  0
  -35.9760  -40.5340   27.1730 H   0  0  0  0  0  0  0  0  0  0  0  0
  1  3  1  0
  2  4  1  0
  2  5  1  0
  4  6  1  0
  5 57  1  0
  5  1  1  0
  6  8  1  0
  6  3  1  0
  7  8  1  0
  7  9  2  0
 10  8  1  0
 11 13  1  0
 12 16  1  0
 13  7  1  0
 14 12  2  0
 14 15  1  0
 15 11  2  0
 16 18  1  0
 16 13  2  0
 17 15  1  0
 19 26  2  0
 19 27  1  0
 20 25  1  0
 21 20  1  0
 22 21  1  0
 23 22  1  0
 23 24  1  0
 24 25  1  0
 25 19  1  0
 27 14  1  0
 28 27  1  0
 29 54  1  0
 30 49  1  0
 30 29  2  0
 31 33  2  0
 31 30  1  0
 32 23  1  0
 32 29  1  0
 33 32  1  0
 34 31  1  0
 35 34  1  0
 36 35  2  0
 37 38  2  0
 37 36  1  0
 38 39  1  0
 39 34  2  0
 40 37  1  0
 41 40  1  0
 41 42  1  0
 43 42  2  0
 44 43  1  0
 45 46  1  0
 45 44  2  0
 46 41  2  0
 47 46  1  0
 48 44  1  0
 49 51  2  0
 50 53  1  0
 50 49  1  0
 52 50  1  0
 54 56  1  0
 54 55  1  0
 57 58  1  0
 58 59  1  0
 58 60  1  0
 63 62  1  6
 63 58  1  0
 63 61  1  0
 64 65  1  0
 64 63  1  0
 66 67  1  0
 66 65  1  0
 68 67  1  0
 69 80  2  0
 70 68  1  0
 70 75  1  0
 71 81  1  0
 71 79  1  0
 72 74  1  0
 73 79  1  0
 74 75  2  0
 74 73  1  0
 76 70  2  0
 77 76  1  0
 77 72  2  0
 78 72  1  0
 78 71  1  0
 79 69  1  0
 81 83  2  0
 82 81  1  0
 84 82  1  0
 85 94  2  0
 85 90  1  0
 86 82  1  0
 86 90  1  0
 87 86  1  0
 88 89  1  0
 88 87  1  0
 89 85  1  0
 90 91  2  0
 91 92  1  0
 93 92  2  0
 94 93  1  0
 95 69  1  0
 95100  1  0
 95 96  1  0
 96 97  1  1
 96 99  1  0
 98 96  1  0
100103  1  0
101105  1  0
101100  1  0
102101  2  0
105104  1  0
105107  1  0
107108  1  0
107106  1  0
M  ISO  4  19 100  27 100  67 101  68 101
M  END
>  <TORSDO>  (68) 
F 25

>  <SCORE>  (68) 
25.811

>  <name>  (68) 
68

>  <ligand_id>  (68) 
68

>  <original_smiles>  (68) 
[H]c1c([H])c([H])c2c(c1[H])C([H])([H])C([H])([H])C([H])([H])C2([H])N([H])C(=O)C1([H])N(C(=O)C([H])(N([H])C(=O)C([H])(N([H])C([H])([H])[H])C([H])([H])[H])C(C([H])([H])[H])(C([H])([H])[H])C([H])([H])[H])C([H])([H])c2c([H])c(OC([H])([H])C([H])([H])C([H])([H])C([H])([H])C(C([H])([H])[H])(C([H])([H])[H])[N+]([H])([H])C([H])([H])C3([H])C([H])([H])C([H])([H])C([H])(N([H])C(=O)c4c([H])c(Cl)c(N([H])C(=O)N5C([H])([H])C([H])([H])C([H])([H])C([H])(n6nc(-c7c([H])c([H])c(Oc8c([H])c([H])c(F)c([H])c8F)c([H])c7[H])c(C(=O)N([H])[H])c6N([H])[H])C5([H])[H])c([H])c4Cl)C([H])([H])C3([H])[H])c([H])c([H])c2C1([H])[H]

>  <smiles>  (68) 
[H]c1c([H])c([H])c2c(c1[H])C([H])([H])C([H])([H])C([H])([H])C2([H])N([H])C(=O)C1([H])N(C(=O)C([H])(N([H])C(=O)C([H])(N([H])C([H])([H])[H])C([H])([H])[H])C(C([H])([H])[H])(C([H])([H])[H])C([H])([H])[H])C([H])([H])c2c([H])c(OC([H])([H])C([H])([H])C([H])([H])C([H])([H])C(C([H])([H])[H])(C([H])([H])[H])[N+]([H])([H])C([H])([H])C3([H])C([H])([H])C([H])([H])C([H])(N([H])C(=O)c4c([H])c(Cl)c(N([H])C(=O)N5C([H])([H])C([H])([H])C([H])([H])C([H])(n6nc(-c7c([H])c([H])c(Oc8c([H])c([H])c(F)c([H])c8F)c([H])c7[H])c(C(=O)N([H])[H])c6N([H])[H])C5([H])[H])c([H])c4Cl)C([H])([H])C3([H])[H])c([H])c([H])c2C1([H])[H]

$$$$
69:0:0
     RDKit          3D

104112  0  0  1  0  0  0  0  0999 V2000
  -29.2990  -20.4750   16.3550 C   0  0  0  0  0  3  0  0  0  0  0  0
  -29.5690  -21.4310   17.3530 C   0  0  0  0  0  0  0  0  0  0  0  0
  -31.6500  -19.7800   16.3570 C   0  0  0  0  0  0  0  0  0  0  0  0
  -30.3290  -19.6690   15.8450 C   0  0  0  0  0  0  0  0  0  0  0  0
  -30.9060  -21.6630   17.7520 C   0  0  0  0  0  0  0  0  0  0  0  0
  -31.9480  -20.8410   17.2630 C   0  0  0  0  0  0  0  0  0  0  0  0
  -29.9250  -18.5010   14.6310 Cl  0  0  0  0  0  0  0  0  0  0  0  0
  -31.2510  -22.8750   18.9450 Cl  0  0  0  0  0  0  0  0  0  0  0  0
  -33.5450  -21.0750   17.9110 Cl  0  0  0  0  0  0  0  0  0  0  0  0
  -33.9220  -18.9540   15.6600 C   0  0  0  0  0  1  0  0  0  0  0  0
  -32.5520  -18.7200   16.1120 N   0  0  0  0  0  0  0  0  0  0  0  0
  -32.2150  -17.5010   16.8530 C   0  0  0  0  0  2  0  0  0  0  0  0
  -32.2760  -17.6490   18.3940 C   0  0  0  0  0  2  0  0  0  0  0  0
  -30.9960  -17.1520   19.1020 C   0  0  0  0  0  2  0  0  0  0  0  0
  -31.2450  -16.8720   20.5450 N   0  0  0  0  0  4  0  0  0  0  0  0
  -30.9890  -17.6730   21.1000 H   0  0  0  0  0  0  0  0  0  0  0  0
  -32.2360  -16.7200   20.6420 H   0  0  0  0  0  0  0  0  0  0  0  0
  -30.9260  -15.4850   22.5980 C   0  0  0  0  0  1  0  0  0  0  0  0
  -30.6170  -15.6380   21.0930 C   0  0  0  0  0  3  0  0  0  0  0  0
  -31.1440  -14.4160   20.3160 C   0  0  0  0  0  0  0  0  0  0  0  0
  -30.6810  -12.3490   19.0740 C   0  0  0  0  0  2  0  0  0  0  0  0
  -29.7500  -12.6470   17.8820 C   0  0  0  0  0  2  0  0  0  0  0  0
  -28.2720  -12.5720   18.3150 C   0  0  0  0  0  2  0  0  0  0  0  0
  -27.9820  -13.4010   19.5960 C   0  0  0  0  0  3  0  0  0  0  0  0
  -29.0280  -13.0990   20.6900 C   0  0  0  0  0  2  0  0  0  0  0  0
  -30.3690  -13.3200   20.1300 N   0  0  0  0  0  0  0  0  0  0  0  0
  -32.2540  -14.5330   19.7860 O   0  0  0  0  0  0  0  0  0  0  0  0
  -25.5980  -14.0880   20.2930 C   0  0  0  0  0  0  0  0  0  0  0  0
  -24.5130  -13.3520   20.6790 C   0  0  0  0  0  0  0  0  0  0  0  0
  -24.9390  -11.9870   20.6770 C   0  0  0  0  0  0  0  0  0  0  0  0
  -26.6210  -13.1760   20.0780 N   0  0  0  0  0  0  0  0  0  0  0  0
  -26.2260  -11.9090   20.3650 N   0  0  0  0  0  0  0  0  0  0  0  0
  -24.1830  -10.7480   20.8950 C   0  0  0  0  0  0  0  0  0  0  0  0
  -24.5980   -9.7850   21.8410 C   0  0  0  0  0  3  0  0  0  0  0  0
  -23.8440   -8.6100   22.0440 C   0  0  0  0  0  3  0  0  0  0  0  0
  -22.6600   -8.3890   21.3010 C   0  0  0  0  0  0  0  0  0  0  0  0
  -22.2640   -9.3400   20.3440 C   0  0  0  0  0  3  0  0  0  0  0  0
  -23.0190  -10.5060   20.1390 C   0  0  0  0  0  3  0  0  0  0  0  0
  -21.8780   -7.2660   21.4130 O   0  0  0  0  0  0  0  0  0  0  0  0
  -21.8130   -6.5470   22.5790 C   0  0  0  0  0  0  0  0  0  0  0  0
  -21.4310   -7.1420   23.8020 C   0  0  0  0  0  3  0  0  0  0  0  0
  -21.3100   -6.3510   24.9620 C   0  0  0  0  0  3  0  0  0  0  0  0
  -21.5630   -4.9680   24.9010 C   0  0  0  0  0  0  0  0  0  0  0  0
  -21.9400   -4.3730   23.6860 C   0  0  0  0  0  3  0  0  0  0  0  0
  -22.0620   -5.1600   22.5260 C   0  0  0  0  0  0  0  0  0  0  0  0
  -22.4040   -4.5780   21.3520 F   0  0  0  0  0  0  0  0  0  0  0  0
  -21.4400   -4.2070   26.0140 F   0  0  0  0  0  0  0  0  0  0  0  0
  -23.1270  -13.8690   20.9450 C   0  0  0  0  0  0  0  0  0  0  0  0
  -22.3900  -13.2170   21.8380 N   0  0  0  0  0  0  0  0  0  0  0  0
  -22.7100  -14.8880   20.3970 O   0  0  0  0  0  0  0  0  0  0  0  0
  -22.7400  -12.3930   22.3040 H   0  0  0  0  0  0  0  0  0  0  0  0
  -21.4620  -13.5480   22.0590 H   0  0  0  0  0  0  0  0  0  0  0  0
  -25.7980  -15.4510   20.0890 N   0  0  0  0  0  0  0  0  0  0  0  0
  -25.0480  -16.1240   20.1990 H   0  0  0  0  0  0  0  0  0  0  0  0
  -26.6530  -15.8660   19.7440 H   0  0  0  0  0  0  0  0  0  0  0  0
  -28.4140  -22.1540   18.0320 C   0  0  0  0  0  2  0  0  0  0  0  0
  -28.2710  -21.6760   19.4220 N   0  0  0  0  0  4  0  0  0  0  0  0
  -29.1700  -21.7680   19.8720 H   0  0  0  0  0  0  0  0  0  0  0  0
  -28.0270  -20.6960   19.4150 H   0  0  0  0  0  0  0  0  0  0  0  0
  -27.2910  -22.3870   20.2620 C   0  0  0  0  0  2  0  0  0  0  0  0
  -27.9940  -23.1160   21.4260 C   0  0  0  0  0  2  0  0  0  0  0  0
  -27.9560  -24.6470   21.3610 C   0  0  0  0  0  2  0  0  0  0  0  0
  -28.5980  -25.2630   20.1000 C   0  0  0  0  0  2  0  0  0  0  0  0
  -28.6040  -26.6790   20.2060 O   0  0  0  0  0  0  0  0  0  0  0  0
  -24.5680  -31.6900   23.1600 C   0  0  0  0  0  0  0  0  0  0  0  0
  -27.3950  -27.3330   20.1580 C   0  0  0  0  0  0  0  0  0  0  0  0
  -23.4410  -30.2560   21.4880 C   0  0  0  0  0  3  0  0  0  0  0  0
  -24.9630  -28.7550   20.1170 C   0  0  0  0  0  0  0  0  0  0  0  0
  -25.9540  -30.6830   21.3560 C   0  0  0  0  0  2  0  0  0  0  0  0
  -26.0860  -29.3110   20.7360 C   0  0  0  0  0  0  0  0  0  0  0  0
  -27.3030  -28.6030   20.7640 C   0  0  0  0  0  3  0  0  0  0  0  0
  -26.2490  -26.7890   19.5260 C   0  0  0  0  0  3  0  0  0  0  0  0
  -25.0340  -27.4900   19.5120 C   0  0  0  0  0  3  0  0  0  0  0  0
  -23.7010  -29.5740   20.1200 C   0  0  0  0  0  2  0  0  0  0  0  0
  -24.6720  -30.8910   22.0610 N   0  0  0  0  0  0  0  0  0  0  0  0
  -23.4650  -31.9350   23.6670 O   0  0  0  0  0  0  0  0  0  0  0  0
  -22.7830  -29.2220   22.4310 C   0  0  0  0  0  0  0  0  0  0  0  0
  -21.4620  -29.0350   22.2850 N   0  0  0  0  0  0  0  0  0  0  0  0
  -23.4620  -28.5870   23.2430 O   0  0  0  0  0  0  0  0  0  0  0  0
  -20.9690  -29.6020   21.6100 H   0  0  0  0  0  0  0  0  0  0  0  0
  -18.0890  -27.8310   22.7250 C   0  0  0  0  0  0  0  0  0  0  0  0
  -20.6430  -28.0810   23.0320 C   0  0  0  0  0  3  0  0  0  0  0  0
  -20.7510  -26.6580   22.4360 C   0  0  0  0  0  2  0  0  0  0  0  0
  -19.6630  -26.3540   21.4020 C   0  0  0  0  0  2  0  0  0  0  0  0
  -18.2720  -26.4920   22.0330 C   0  0  0  0  0  2  0  0  0  0  0  0
  -19.2030  -28.5870   23.1790 C   0  0  0  0  0  0  0  0  0  0  0  0
  -18.9790  -29.8450   23.7790 C   0  0  0  0  0  3  0  0  0  0  0  0
  -17.6730  -30.3460   23.9340 C   0  0  0  0  0  3  0  0  0  0  0  0
  -16.5720  -29.5870   23.4980 C   0  0  0  0  0  3  0  0  0  0  0  0
  -16.7820  -28.3330   22.8990 C   0  0  0  0  0  3  0  0  0  0  0  0
  -25.8210  -32.3510   23.8140 C   0  0  0  0  0  3  0  0  0  0  0  0
  -25.4680  -33.7360   24.1470 N   0  0  0  0  0  0  0  0  0  0  0  0
  -25.7840  -34.8020   23.4000 C   0  0  0  0  0  0  0  0  0  0  0  0
  -26.4730  -34.7280   22.3790 O   0  0  0  0  0  0  0  0  0  0  0  0
  -24.8650  -33.8700   24.9450 H   0  0  0  0  0  0  0  0  0  0  0  0
  -24.0080  -36.5430   23.0300 C   0  0  0  0  0  1  0  0  0  0  0  0
  -25.2480  -36.1730   23.8610 C   0  0  0  0  0  3  0  0  0  0  0  0
  -27.3430  -37.1120   24.7300 C   0  0  0  0  0  1  0  0  0  0  0  0
  -26.2500  -37.2580   23.7730 N   0  0  0  0  0  0  0  0  0  0  0  0
  -25.8110  -38.1610   23.9290 H   0  0  0  0  0  0  0  0  0  0  0  0
  -26.3310  -31.5790   25.0900 C   0  0  1  0  0  0  0  0  0  0  0  0
  -25.2250  -31.3100   26.1350 C   0  0  0  0  0  1  0  0  0  0  0  0
  -26.9550  -30.2220   24.6880 C   0  0  0  0  0  1  0  0  0  0  0  0
  -27.4520  -32.3890   25.7800 C   0  0  0  0  0  1  0  0  0  0  0  0
  1  2  1  0
  2  5  2  0
  2 56  1  0
  3  6  2  0
  4  1  2  0
  4  3  1  0
  5  8  1  0
  6  5  1  0
  6  9  1  0
  7  4  1  0
 10 11  1  0
 11  3  1  0
 11 12  1  0
 12 13  1  0
 13 14  1  0
 14 15  1  0
 15 17  1  0
 15 19  1  0
 15 16  1  0
 19 18  1  0
 20 19  1  0
 21 26  1  0
 22 23  1  0
 22 21  1  0
 24 23  1  0
 24 31  1  0
 24 25  1  0
 26 20  1  0
 26 25  1  0
 27 20  2  0
 28 29  2  0
 29 48  1  0
 30 29  1  0
 30 33  1  0
 31 28  1  0
 31 32  1  0
 32 30  2  0
 33 34  1  0
 34 35  2  0
 36 39  1  0
 36 35  1  0
 37 36  2  0
 38 37  1  0
 38 33  2  0
 39 40  1  0
 40 41  1  0
 41 42  2  0
 43 42  1  0
 43 47  1  0
 44 43  2  0
 45 40  2  0
 45 44  1  0
 46 45  1  0
 48 49  1  0
 49 52  1  0
 49 51  1  0
 50 48  2  0
 53 54  1  0
 53 28  1  0
 55 53  1  0
 56 57  1  0
 57 58  1  0
 57 60  1  0
 59 57  1  0
 60 61  1  0
 62 61  1  0
 63 64  1  0
 63 62  1  0
 65 76  2  0
 66 64  1  0
 66 71  1  0
 67 75  1  0
 67 77  1  0
 68 74  1  0
 68 70  1  0
 69 75  1  0
 70 71  2  0
 70 69  1  0
 72 66  2  0
 73 72  1  0
 73 68  2  0
 74 67  1  0
 75 65  1  0
 77 79  2  0
 78 77  1  0
 80 78  1  0
 81 90  2  0
 81 86  1  0
 82 78  1  0
 82 86  1  0
 83 82  1  0
 84 85  1  0
 84 83  1  0
 85 81  1  0
 86 87  2  0
 87 88  1  0
 89 88  2  0
 90 89  1  0
 91 65  1  0
 91 92  1  0
 91101  1  0
 92 95  1  0
 93 97  1  0
 93 92  1  0
 94 93  2  0
 97 96  1  0
 99 97  1  0
 99100  1  0
 99 98  1  0
101104  1  1
101102  1  0
103101  1  0
M  ISO  4  19 100  20 100  63 101  64 101
M  END
>  <TORSDO>  (69) 
F 28

>  <SCORE>  (69) 
-10.744

>  <name>  (69) 
69

>  <ligand_id>  (69) 
69

>  <original_smiles>  (69) 
[H]c1c([H])c([H])c2c(c1[H])C([H])([H])C([H])([H])C([H])([H])C2([H])N([H])C(=O)C1([H])N(C(=O)C([H])(N([H])C(=O)C([H])(N([H])C([H])([H])[H])C([H])([H])[H])C(C([H])([H])[H])(C([H])([H])[H])C([H])([H])[H])C([H])([H])c2c([H])c(OC([H])([H])C([H])([H])C([H])([H])C([H])([H])[N+]([H])([H])C([H])([H])c3c([H])c(Cl)c(N(C([H])([H])[H])C([H])([H])C([H])([H])C([H])([H])[N+]([H])([H])C([H])(C(=O)N4C([H])([H])C([H])([H])C([H])([H])C([H])(n5nc(-c6c([H])c([H])c(Oc7c([H])c([H])c(F)c([H])c7F)c([H])c6[H])c(C(=O)N([H])[H])c5N([H])[H])C4([H])[H])C([H])([H])[H])c(Cl)c3Cl)c([H])c([H])c2C1([H])[H]

>  <smiles>  (69) 
[H]c1c([H])c([H])c2c(c1[H])C([H])([H])C([H])([H])C([H])([H])C2([H])N([H])C(=O)C1([H])N(C(=O)C([H])(N([H])C(=O)C([H])(N([H])C([H])([H])[H])C([H])([H])[H])C(C([H])([H])[H])(C([H])([H])[H])C([H])([H])[H])C([H])([H])c2c([H])c(OC([H])([H])C([H])([H])C([H])([H])C([H])([H])[N+]([H])([H])C([H])([H])c3c([H])c(Cl)c(N(C([H])([H])[H])C([H])([H])C([H])([H])C([H])([H])[N+]([H])([H])C([H])(C(=O)N4C([H])([H])C([H])([H])C([H])([H])C([H])(n5nc(-c6c([H])c([H])c(Oc7c([H])c([H])c(F)c([H])c7F)c([H])c6[H])c(C(=O)N([H])[H])c5N([H])[H])C4([H])[H])C([H])([H])[H])c(Cl)c3Cl)c([H])c([H])c2C1([H])[H]

$$$$
70:0:0
     RDKit          3D

101109  0  0  1  0  0  0  0  0999 V2000
  -28.2450  -20.1040   20.6060 C   0  0  0  0  0  3  0  0  0  0  0  0
  -27.1720  -20.4690   19.7660 C   0  0  0  0  0  0  0  0  0  0  0  0
  -27.2360  -20.1380   18.3830 C   0  0  0  0  0  0  0  0  0  0  0  0
  -29.5260  -19.2720   18.6970 C   0  0  0  0  0  0  0  0  0  0  0  0
  -29.4010  -19.4950   20.0880 C   0  0  0  0  0  0  0  0  0  0  0  0
  -28.4300  -19.5860   17.8510 C   0  0  0  0  0  0  0  0  0  0  0  0
  -26.0540  -20.3440   17.4410 C   0  0  0  0  0  1  0  0  0  0  0  0
  -30.6720  -19.0740   21.1860 Cl  0  0  0  0  0  0  0  0  0  0  0  0
  -28.5490  -19.3010   16.1430 Cl  0  0  0  0  0  0  0  0  0  0  0  0
  -30.7220  -18.7330   18.1820 N   0  0  0  0  0  0  0  0  0  0  0  0
  -31.4920  -19.0980   18.7340 H   0  0  0  0  0  0  0  0  0  0  0  0
  -30.9630  -19.0970   16.7850 C   0  0  0  0  0  2  0  0  0  0  0  0
  -31.3920  -17.9210   15.8790 C   0  0  0  0  0  2  0  0  0  0  0  0
  -32.5630  -17.0620   16.3950 C   0  0  0  0  0  2  0  0  0  0  0  0
  -32.9310  -15.1300   17.9390 C   0  0  0  0  0  0  0  0  0  0  0  0
  -33.3120  -13.7750   19.9650 C   0  0  0  0  0  2  0  0  0  0  0  0
  -32.9230  -12.2950   19.8070 C   0  0  0  0  0  2  0  0  0  0  0  0
  -31.4310  -12.0930   20.1200 C   0  0  0  0  0  2  0  0  0  0  0  0
  -30.5260  -13.0900   19.3490 C   0  0  0  0  0  3  0  0  0  0  0  0
  -31.0400  -14.5380   19.4980 C   0  0  0  0  0  2  0  0  0  0  0  0
  -32.4550  -14.5850   19.0860 N   0  0  0  0  0  0  0  0  0  0  0  0
  -34.0620  -14.8940   17.4990 O   0  0  0  0  0  0  0  0  0  0  0  0
  -32.1540  -16.0790   17.3970 N   0  0  0  0  0  0  0  0  0  0  0  0
  -31.2090  -16.1690   17.7460 H   0  0  0  0  0  0  0  0  0  0  0  0
  -28.0900  -13.8780   19.6320 C   0  0  0  0  0  0  0  0  0  0  0  0
  -26.9740  -13.2500   20.1170 C   0  0  0  0  0  0  0  0  0  0  0  0
  -27.4030  -11.9500   20.5230 C   0  0  0  0  0  0  0  0  0  0  0  0
  -29.1290  -12.9700   19.7660 N   0  0  0  0  0  0  0  0  0  0  0  0
  -28.7130  -11.8200   20.3540 N   0  0  0  0  0  0  0  0  0  0  0  0
  -26.6290  -10.8000   21.0070 C   0  0  0  0  0  0  0  0  0  0  0  0
  -26.3420  -10.6280   22.3800 C   0  0  0  0  0  3  0  0  0  0  0  0
  -25.5800   -9.5230   22.8180 C   0  0  0  0  0  3  0  0  0  0  0  0
  -25.0920   -8.5810   21.8810 C   0  0  0  0  0  0  0  0  0  0  0  0
  -25.3980   -8.7470   20.5190 C   0  0  0  0  0  3  0  0  0  0  0  0
  -26.1610   -9.8430   20.0850 C   0  0  0  0  0  3  0  0  0  0  0  0
  -24.3660   -7.4650   22.2190 O   0  0  0  0  0  0  0  0  0  0  0  0
  -23.1200   -7.5620   22.7850 C   0  0  0  0  0  0  0  0  0  0  0  0
  -22.0460   -8.1940   22.1200 C   0  0  0  0  0  3  0  0  0  0  0  0
  -20.7650   -8.2080   22.7070 C   0  0  0  0  0  3  0  0  0  0  0  0
  -20.5540   -7.5860   23.9530 C   0  0  0  0  0  0  0  0  0  0  0  0
  -21.6200   -6.9540   24.6140 C   0  0  0  0  0  3  0  0  0  0  0  0
  -22.9000   -6.9390   24.0300 C   0  0  0  0  0  0  0  0  0  0  0  0
  -23.9190   -6.3080   24.6610 F   0  0  0  0  0  0  0  0  0  0  0  0
  -19.3210   -7.5930   24.5140 F   0  0  0  0  0  0  0  0  0  0  0  0
  -25.5750  -13.7910   20.1150 C   0  0  0  0  0  0  0  0  0  0  0  0
  -24.7710  -13.4140   21.1050 N   0  0  0  0  0  0  0  0  0  0  0  0
  -25.1990  -14.5950   19.2630 O   0  0  0  0  0  0  0  0  0  0  0  0
  -25.0860  -12.7700   21.8150 H   0  0  0  0  0  0  0  0  0  0  0  0
  -23.8280  -13.7740   21.1490 H   0  0  0  0  0  0  0  0  0  0  0  0
  -28.2920  -15.1300   19.0700 N   0  0  0  0  0  0  0  0  0  0  0  0
  -27.5350  -15.7890   18.9380 H   0  0  0  0  0  0  0  0  0  0  0  0
  -29.1990  -15.4980   18.8100 H   0  0  0  0  0  0  0  0  0  0  0  0
  -26.0280  -21.2580   20.4050 C   0  0  0  0  0  2  0  0  0  0  0  0
  -25.9720  -22.6180   19.8290 N   0  0  0  0  0  4  0  0  0  0  0  0
  -26.9190  -22.9250   19.6830 H   0  0  0  0  0  0  0  0  0  0  0  0
  -25.5650  -23.2210   20.5250 H   0  0  0  0  0  0  0  0  0  0  0  0
  -25.1900  -22.7670   18.5800 C   0  0  0  0  0  2  0  0  0  0  0  0
  -25.9590  -23.5720   17.5040 C   0  0  0  0  0  2  0  0  0  0  0  0
  -25.0270  -24.1980   16.4510 C   0  0  0  0  0  2  0  0  0  0  0  0
  -25.7220  -25.1800   15.4670 C   0  0  0  0  0  2  0  0  0  0  0  0
  -24.9670  -26.3640   15.1520 O   0  0  0  0  0  0  0  0  0  0  0  0
  -24.7890  -27.1730   22.2120 C   0  0  0  0  0  0  0  0  0  0  0  0
  -24.2900  -26.8680   16.2330 C   0  0  0  0  0  0  0  0  0  0  0  0
  -22.6450  -27.4830   21.0160 C   0  0  0  0  0  3  0  0  0  0  0  0
  -22.8100  -27.7010   18.4790 C   0  0  0  0  0  0  0  0  0  0  0  0
  -24.8700  -27.9940   19.8630 C   0  0  0  0  0  2  0  0  0  0  0  0
  -24.2080  -27.6260   18.5520 C   0  0  0  0  0  0  0  0  0  0  0  0
  -24.9580  -27.2060   17.4300 C   0  0  0  0  0  3  0  0  0  0  0  0
  -22.8920  -27.0140   16.1550 C   0  0  0  0  0  3  0  0  0  0  0  0
  -22.1440  -27.4020   17.2790 C   0  0  0  0  0  3  0  0  0  0  0  0
  -22.0740  -28.1300   19.7270 C   0  0  0  0  0  2  0  0  0  0  0  0
  -24.1430  -27.5120   21.0600 N   0  0  0  0  0  0  0  0  0  0  0  0
  -24.1580  -26.8750   23.2370 O   0  0  0  0  0  0  0  0  0  0  0  0
  -22.0610  -26.0600   21.1590 C   0  0  0  0  0  0  0  0  0  0  0  0
  -20.7260  -25.9490   21.0590 N   0  0  0  0  0  0  0  0  0  0  0  0
  -22.8020  -25.0850   21.3250 O   0  0  0  0  0  0  0  0  0  0  0  0
  -20.1930  -26.7980   20.9340 H   0  0  0  0  0  0  0  0  0  0  0  0
  -17.4570  -24.5150   20.5030 C   0  0  0  0  0  0  0  0  0  0  0  0
  -19.9580  -24.7070   21.1250 C   0  0  0  0  0  3  0  0  0  0  0  0
  -20.2290  -23.8180   19.8910 C   0  0  0  0  0  2  0  0  0  0  0  0
  -19.2240  -24.0390   18.7560 C   0  0  0  0  0  2  0  0  0  0  0  0
  -17.7980  -23.7510   19.2350 C   0  0  0  0  0  2  0  0  0  0  0  0
  -18.4710  -24.9790   21.3820 C   0  0  0  0  0  0  0  0  0  0  0  0
  -18.1010  -25.7150   22.5280 C   0  0  0  0  0  3  0  0  0  0  0  0
  -16.7490  -25.9920   22.7990 C   0  0  0  0  0  3  0  0  0  0  0  0
  -15.7470  -25.5180   21.9340 C   0  0  0  0  0  3  0  0  0  0  0  0
  -16.1030  -24.7750   20.7930 C   0  0  0  0  0  3  0  0  0  0  0  0
  -26.3470  -27.1650   22.3020 C   0  0  0  0  0  3  0  0  0  0  0  0
  -26.9550  -25.7170   22.4410 C   0  0  1  0  0  0  0  0  0  0  0  0
  -26.2810  -24.8640   23.5410 C   0  0  0  0  0  1  0  0  0  0  0  0
  -26.8340  -24.9440   21.1070 C   0  0  0  0  0  1  0  0  0  0  0  0
  -28.4680  -25.8100   22.7570 C   0  0  0  0  0  1  0  0  0  0  0  0
  -26.7250  -28.0040   23.4460 N   0  0  0  0  0  0  0  0  0  0  0  0
  -27.3380  -29.1910   23.3460 C   0  0  0  0  0  0  0  0  0  0  0  0
  -27.7140  -29.6650   22.2690 O   0  0  0  0  0  0  0  0  0  0  0  0
  -26.4060  -27.7050   24.3550 H   0  0  0  0  0  0  0  0  0  0  0  0
  -26.6170  -31.1780   24.7030 C   0  0  0  0  0  1  0  0  0  0  0  0
  -27.5760  -29.9800   24.6460 C   0  0  0  0  0  3  0  0  0  0  0  0
  -29.9180  -29.3570   25.0460 C   0  0  0  0  0  1  0  0  0  0  0  0
  -28.9710  -30.4430   24.8060 N   0  0  0  0  0  0  0  0  0  0  0  0
  -29.0460  -31.1030   25.5760 H   0  0  0  0  0  0  0  0  0  0  0  0
  2 53  1  0
  2  1  2  0
  3  2  1  0
  4  5  2  0
  5  1  1  0
  5  8  1  0
  6  3  2  0
  6  4  1  0
  7  3  1  0
  9  6  1  0
 10  4  1  0
 10 11  1  0
 12 10  1  0
 13 14  1  0
 13 12  1  0
 14 23  1  0
 15 21  1  0
 17 16  1  0
 17 18  1  0
 19 20  1  0
 19 28  1  0
 19 18  1  0
 21 20  1  0
 21 16  1  0
 22 15  2  0
 23 24  1  0
 23 15  1  0
 25 28  1  0
 25 26  2  0
 26 27  1  0
 27 30  1  0
 28 29  1  0
 29 27  2  0
 30 31  1  0
 31 32  2  0
 33 36  1  0
 33 32  1  0
 34 33  2  0
 35 34  1  0
 35 30  2  0
 36 37  1  0
 37 42  1  0
 38 39  1  0
 38 37  2  0
 39 40  2  0
 40 44  1  0
 40 41  1  0
 42 41  2  0
 42 43  1  0
 45 26  1  0
 45 46  1  0
 46 49  1  0
 46 48  1  0
 47 45  2  0
 50 25  1  0
 51 50  1  0
 52 50  1  0
 54 53  1  0
 54 56  1  0
 55 54  1  0
 57 54  1  0
 58 57  1  0
 59 58  1  0
 60 59  1  0
 61 60  1  0
 61 63  1  0
 62 73  2  0
 63 68  1  0
 64 72  1  0
 64 74  1  0
 65 67  1  0
 65 71  1  0
 66 72  1  0
 67 66  1  0
 68 67  2  0
 69 63  2  0
 69 70  1  0
 70 65  2  0
 71 64  1  0
 72 62  1  0
 74 76  2  0
 75 74  1  0
 77 75  1  0
 78 87  2  0
 78 83  1  0
 79 75  1  0
 79 83  1  0
 80 79  1  0
 81 82  1  0
 81 80  1  0
 82 78  1  0
 83 84  2  0
 84 85  1  0
 86 85  2  0
 87 86  1  0
 88 62  1  0
 88 89  1  0
 88 93  1  0
 89 92  1  1
 89 90  1  0
 91 89  1  0
 93 96  1  0
 94 93  1  0
 94 98  1  0
 95 94  2  0
 98 97  1  0
 98100  1  0
100 99  1  0
100101  1  0
M  ISO  4  15 100  23 100  60 101  61 101
M  END
>  <TORSDO>  (70) 
F 26

>  <SCORE>  (70) 
-1.965

>  <name>  (70) 
70

>  <ligand_id>  (70) 
70

>  <original_smiles>  (70) 
[H]c1c([H])c([H])c2c(c1[H])C([H])([H])C([H])([H])C([H])([H])C2([H])N([H])C(=O)C1([H])N(C(=O)C([H])(N([H])C(=O)C([H])(N([H])C([H])([H])[H])C([H])([H])[H])C(C([H])([H])[H])(C([H])([H])[H])C([H])([H])[H])C([H])([H])c2c([H])c(OC([H])([H])C([H])([H])C([H])([H])C([H])([H])[N+]([H])([H])C([H])([H])c3c([H])c(Cl)c(N([H])C([H])([H])C([H])([H])C([H])([H])N([H])C(=O)N4C([H])([H])C([H])([H])C([H])([H])C([H])(n5nc(-c6c([H])c([H])c(Oc7c([H])c([H])c(F)c([H])c7F)c([H])c6[H])c(C(=O)N([H])[H])c5N([H])[H])C4([H])[H])c(Cl)c3C([H])([H])[H])c([H])c([H])c2C1([H])[H]

>  <smiles>  (70) 
[H]c1c([H])c([H])c2c(c1[H])C([H])([H])C([H])([H])C([H])([H])C2([H])N([H])C(=O)C1([H])N(C(=O)C([H])(N([H])C(=O)C([H])(N([H])C([H])([H])[H])C([H])([H])[H])C(C([H])([H])[H])(C([H])([H])[H])C([H])([H])[H])C([H])([H])c2c([H])c(OC([H])([H])C([H])([H])C([H])([H])C([H])([H])[N+]([H])([H])C([H])([H])c3c([H])c(Cl)c(N([H])C([H])([H])C([H])([H])C([H])([H])N([H])C(=O)N4C([H])([H])C([H])([H])C([H])([H])C([H])(n5nc(-c6c([H])c([H])c(Oc7c([H])c([H])c(F)c([H])c7F)c([H])c6[H])c(C(=O)N([H])[H])c5N([H])[H])C4([H])[H])c(Cl)c3C([H])([H])[H])c([H])c([H])c2C1([H])[H]

$$$$
71:0:0
     RDKit          3D

103111  0  0  1  0  0  0  0  0999 V2000
  -33.2550  -21.4830   27.9070 C   0  0  0  0  0  2  0  0  0  0  0  0
  -34.0620  -22.5570   28.6600 C   0  0  0  0  0  2  0  0  0  0  0  0
  -33.2590  -23.8110   29.0740 C   0  0  0  0  0  2  0  0  0  0  0  0
  -32.1170  -23.5320   30.0700 C   0  0  0  0  0  2  0  0  0  0  0  0
  -31.5500  -24.8070   30.7180 C   0  0  0  0  0  2  0  0  0  0  0  0
  -30.3650  -25.4600   29.9700 C   0  0  0  0  0  2  0  0  0  0  0  0
  -29.0410  -25.3790   30.7590 C   0  0  0  0  0  2  0  0  0  0  0  0
  -27.8410  -26.0230   30.0320 C   0  0  0  0  0  2  0  0  0  0  0  0
  -26.7270  -26.4850   31.0030 C   0  0  0  0  0  2  0  0  0  0  0  0
  -25.9130  -27.6960   30.4900 C   0  0  0  0  0  2  0  0  0  0  0  0
  -25.0160  -28.3530   31.5580 C   0  0  0  0  0  2  0  0  0  0  0  0
  -23.9290  -27.5130   31.9600 O   0  0  0  0  0  0  0  0  0  0  0  0
  -21.0070  -33.1510   35.2280 C   0  0  0  0  0  0  0  0  0  0  0  0
  -22.8230  -28.1080   32.5410 C   0  0  0  0  0  0  0  0  0  0  0  0
  -19.6720  -31.0670   35.2820 C   0  0  0  0  0  3  0  0  0  0  0  0
  -20.5010  -29.1910   33.7610 C   0  0  0  0  0  0  0  0  0  0  0  0
  -21.2800  -31.5330   33.3560 C   0  0  0  0  0  2  0  0  0  0  0  0
  -21.4830  -30.0400   33.2440 C   0  0  0  0  0  0  0  0  0  0  0  0
  -22.6340  -29.5110   32.6270 C   0  0  0  0  0  3  0  0  0  0  0  0
  -21.8280  -27.2650   33.0810 C   0  0  0  0  0  3  0  0  0  0  0  0
  -20.6660  -27.7940   33.6830 C   0  0  0  0  0  3  0  0  0  0  0  0
  -19.2940  -29.8560   34.3850 C   0  0  0  0  0  2  0  0  0  0  0  0
  -20.6970  -31.9580   34.6480 N   0  0  0  0  0  0  0  0  0  0  0  0
  -20.4200  -33.5380   36.2480 O   0  0  0  0  0  0  0  0  0  0  0  0
  -20.0970  -30.5350   36.6690 C   0  0  0  0  0  0  0  0  0  0  0  0
  -19.1230  -30.4160   37.5850 N   0  0  0  0  0  0  0  0  0  0  0  0
  -21.2670  -30.2090   36.8900 O   0  0  0  0  0  0  0  0  0  0  0  0
  -18.1910  -30.7080   37.3270 H   0  0  0  0  0  0  0  0  0  0  0  0
  -17.4230  -29.9440   40.7350 C   0  0  0  0  0  0  0  0  0  0  0  0
  -19.2840  -29.8970   38.9440 C   0  0  0  0  0  3  0  0  0  0  0  0
  -19.1300  -28.3580   38.9710 C   0  0  0  0  0  2  0  0  0  0  0  0
  -17.6990  -27.9020   39.2700 C   0  0  0  0  0  2  0  0  0  0  0  0
  -17.2340  -28.4410   40.6250 C   0  0  0  0  0  2  0  0  0  0  0  0
  -18.3750  -30.6300   39.9350 C   0  0  0  0  0  0  0  0  0  0  0  0
  -18.4850  -32.0330   40.0530 C   0  0  0  0  0  3  0  0  0  0  0  0
  -17.6710  -32.7470   40.9530 C   0  0  0  0  0  3  0  0  0  0  0  0
  -16.7400  -32.0610   41.7520 C   0  0  0  0  0  3  0  0  0  0  0  0
  -16.6190  -30.6630   41.6450 C   0  0  0  0  0  3  0  0  0  0  0  0
  -22.0950  -34.0960   34.6270 C   0  0  0  0  0  3  0  0  0  0  0  0
  -21.5000  -35.4330   34.5080 N   0  0  0  0  0  0  0  0  0  0  0  0
  -20.9130  -35.9060   33.4010 C   0  0  0  0  0  0  0  0  0  0  0  0
  -20.8790  -35.2760   32.3390 O   0  0  0  0  0  0  0  0  0  0  0  0
  -21.4260  -35.9690   35.3600 H   0  0  0  0  0  0  0  0  0  0  0  0
  -18.7550  -37.1450   33.7720 C   0  0  0  0  0  1  0  0  0  0  0  0
  -20.2570  -37.2980   33.4830 C   0  0  0  0  0  3  0  0  0  0  0  0
  -21.8400  -38.4860   32.0290 C   0  0  0  0  0  1  0  0  0  0  0  0
  -20.4490  -38.1110   32.2610 N   0  0  0  0  0  0  0  0  0  0  0  0
  -19.8890  -38.9590   32.3010 H   0  0  0  0  0  0  0  0  0  0  0  0
  -23.4200  -34.1460   35.4860 C   0  0  1  0  0  0  0  0  0  0  0  0
  -23.1760  -34.4220   36.9900 C   0  0  0  0  0  1  0  0  0  0  0  0
  -24.1930  -32.8120   35.3690 C   0  0  0  0  0  1  0  0  0  0  0  0
  -24.3540  -35.2490   34.9390 C   0  0  0  0  0  1  0  0  0  0  0  0
  -33.0710  -21.7820   26.4070 C   0  0  0  0  0  2  0  0  0  0  0  0
  -31.6040  -22.0200   26.0270 C   0  0  0  0  0  2  0  0  0  0  0  0
  -31.4580  -22.7500   24.6840 C   0  0  0  0  0  2  0  0  0  0  0  0
  -30.1090  -23.4750   24.5690 C   0  0  0  0  0  2  0  0  0  0  0  0
  -30.5390  -26.8560   22.7880 C   0  0  0  0  0  3  0  0  0  0  0  0
  -30.6170  -25.8480   23.7680 C   0  0  0  0  0  0  0  0  0  0  0  0
  -30.1020  -24.5550   23.4890 C   0  0  0  0  0  0  0  0  0  0  0  0
  -29.4970  -25.2990   21.2240 C   0  0  0  0  0  0  0  0  0  0  0  0
  -29.9630  -26.6030   21.5300 C   0  0  0  0  0  0  0  0  0  0  0  0
  -29.5580  -24.2840   22.2080 C   0  0  0  0  0  0  0  0  0  0  0  0
  -31.2290  -26.1970   25.1180 C   0  0  0  0  0  1  0  0  0  0  0  0
  -29.7790  -27.9370   20.4420 Cl  0  0  0  0  0  0  0  0  0  0  0  0
  -28.9440  -22.7070   21.8280 Cl  0  0  0  0  0  0  0  0  0  0  0  0
  -29.4190  -24.8220   18.7960 C   0  0  0  0  0  0  0  0  0  0  0  0
  -28.9560  -24.9070   16.3750 C   0  0  0  0  0  2  0  0  0  0  0  0
  -28.7010  -26.3660   15.9540 C   0  0  0  0  0  2  0  0  0  0  0  0
  -27.2220  -26.7530   16.1630 C   0  0  0  0  0  2  0  0  0  0  0  0
  -26.6970  -26.3680   17.5720 C   0  0  0  0  0  3  0  0  0  0  0  0
  -27.0660  -24.9050   17.9010 C   0  0  0  0  0  2  0  0  0  0  0  0
  -28.5280  -24.7580   17.7720 N   0  0  0  0  0  0  0  0  0  0  0  0
  -30.6430  -24.7730   18.6370 O   0  0  0  0  0  0  0  0  0  0  0  0
  -28.8550  -24.9970   19.9960 N   0  0  0  0  0  0  0  0  0  0  0  0
  -27.8590  -24.8570   20.0410 H   0  0  0  0  0  0  0  0  0  0  0  0
  -24.5430  -27.1910   18.7240 C   0  0  0  0  0  0  0  0  0  0  0  0
  -23.2400  -27.2240   18.3080 C   0  0  0  0  0  0  0  0  0  0  0  0
  -23.2290  -26.6440   17.0030 C   0  0  0  0  0  0  0  0  0  0  0  0
  -25.2590  -26.6020   17.6920 N   0  0  0  0  0  0  0  0  0  0  0  0
  -24.4440  -26.2260   16.6730 N   0  0  0  0  0  0  0  0  0  0  0  0
  -22.1420  -26.5120   16.0240 C   0  0  0  0  0  0  0  0  0  0  0  0
  -21.7980  -25.2610   15.4680 C   0  0  0  0  0  3  0  0  0  0  0  0
  -20.7380  -25.1570   14.5410 C   0  0  0  0  0  3  0  0  0  0  0  0
  -20.0070  -26.3100   14.1660 C   0  0  0  0  0  0  0  0  0  0  0  0
  -20.3680  -27.5570   14.7070 C   0  0  0  0  0  3  0  0  0  0  0  0
  -21.4270  -27.6600   15.6240 C   0  0  0  0  0  3  0  0  0  0  0  0
  -18.9780  -26.3090   13.2550 O   0  0  0  0  0  0  0  0  0  0  0  0
  -18.1870  -25.2050   13.0650 C   0  0  0  0  0  0  0  0  0  0  0  0
  -17.4610  -24.6160   14.1240 C   0  0  0  0  0  3  0  0  0  0  0  0
  -16.6050  -23.5270   13.8690 C   0  0  0  0  0  3  0  0  0  0  0  0
  -16.4650  -23.0290   12.5600 C   0  0  0  0  0  0  0  0  0  0  0  0
  -17.1840  -23.6170   11.5040 C   0  0  0  0  0  3  0  0  0  0  0  0
  -18.0400  -24.7030   11.7550 C   0  0  0  0  0  0  0  0  0  0  0  0
  -18.7120  -25.2790   10.7310 F   0  0  0  0  0  0  0  0  0  0  0  0
  -15.6380  -21.9870   12.3150 F   0  0  0  0  0  0  0  0  0  0  0  0
  -22.0820  -27.8450   19.0360 C   0  0  0  0  0  0  0  0  0  0  0  0
  -20.8810  -27.3060   18.8540 N   0  0  0  0  0  0  0  0  0  0  0  0
  -22.2440  -28.7870   19.8120 O   0  0  0  0  0  0  0  0  0  0  0  0
  -20.7490  -26.5220   18.2310 H   0  0  0  0  0  0  0  0  0  0  0  0
  -20.0820  -27.6860   19.3420 H   0  0  0  0  0  0  0  0  0  0  0  0
  -25.1810  -27.6270   19.8820 N   0  0  0  0  0  0  0  0  0  0  0  0
  -24.6850  -28.1100   20.6240 H   0  0  0  0  0  0  0  0  0  0  0  0
  -26.1790  -27.5740   20.0440 H   0  0  0  0  0  0  0  0  0  0  0  0
  1  2  1  0
  2  3  1  0
  3  4  1  0
  4  5  1  0
  6  5  1  0
  6  7  1  0
  8  7  1  0
  8  9  1  0
 10  9  1  0
 10 11  1  0
 11 12  1  0
 12 14  1  0
 13 24  2  0
 14 19  2  0
 14 20  1  0
 15 25  1  0
 16 22  1  0
 17 23  1  0
 18 17  1  0
 18 16  2  0
 19 18  1  0
 20 21  2  0
 21 16  1  0
 22 15  1  0
 23 13  1  0
 23 15  1  0
 25 27  2  0
 25 26  1  0
 28 26  1  0
 29 38  1  0
 30 26  1  0
 30 31  1  0
 30 34  1  0
 31 32  1  0
 32 33  1  0
 33 29  1  0
 34 35  1  0
 34 29  2  0
 35 36  2  0
 36 37  1  0
 38 37  2  0
 39 13  1  0
 39 49  1  0
 40 39  1  0
 40 43  1  0
 41 45  1  0
 41 40  1  0
 42 41  2  0
 45 44  1  0
 46 47  1  0
 47 48  1  0
 47 45  1  0
 49 50  1  1
 51 49  1  0
 52 49  1  0
 53  1  1  0
 54 53  1  0
 55 54  1  0
 56 55  1  0
 57 58  1  0
 58 63  1  0
 59 58  2  0
 59 56  1  0
 60 61  1  0
 60 62  2  0
 61 57  2  0
 62 59  1  0
 64 61  1  0
 65 62  1  0
 66 74  1  0
 67 72  1  0
 68 69  1  0
 68 67  1  0
 70 69  1  0
 70 79  1  0
 70 71  1  0
 72 71  1  0
 72 66  1  0
 73 66  2  0
 74 75  1  0
 74 60  1  0
 76101  1  0
 77 76  2  0
 77 96  1  0
 78 77  1  0
 79 76  1  0
 80 78  2  0
 80 79  1  0
 81 78  1  0
 82 81  2  0
 83 82  1  0
 84 83  2  0
 84 85  1  0
 85 86  2  0
 86 81  1  0
 87 84  1  0
 88 87  1  0
 88 89  1  0
 90 89  2  0
 91 90  1  0
 92 93  1  0
 92 91  2  0
 93 88  2  0
 94 93  1  0
 95 91  1  0
 96 98  2  0
 97 96  1  0
 97100  1  0
 99 97  1  0
101103  1  0
101102  1  0
M  ISO  4  11 101  12 101  66 100  74 100
M  END
>  <TORSDO>  (71) 
F 31

>  <SCORE>  (71) 
36.383

>  <name>  (71) 
71

>  <ligand_id>  (71) 
71

>  <original_smiles>  (71) 
[H]c1c([H])c([H])c2c(c1[H])C([H])([H])C([H])([H])C([H])([H])C2([H])N([H])C(=O)C1([H])N(C(=O)C([H])(N([H])C(=O)C([H])(N([H])C([H])([H])[H])C([H])([H])[H])C(C([H])([H])[H])(C([H])([H])[H])C([H])([H])[H])C([H])([H])c2c([H])c(OC([H])([H])C([H])([H])C([H])([H])C([H])([H])C([H])([H])C([H])([H])C([H])([H])C([H])([H])C([H])([H])C([H])([H])C([H])([H])C([H])([H])C([H])([H])C([H])([H])C([H])([H])c3c(Cl)c(N([H])C(=O)N4C([H])([H])C([H])([H])C([H])([H])C([H])(n5nc(-c6c([H])c([H])c(Oc7c([H])c([H])c(F)c([H])c7F)c([H])c6[H])c(C(=O)N([H])[H])c5N([H])[H])C4([H])[H])c(Cl)c([H])c3C([H])([H])[H])c([H])c([H])c2C1([H])[H]

>  <smiles>  (71) 
[H]c1c([H])c([H])c2c(c1[H])C([H])([H])C([H])([H])C([H])([H])C2([H])N([H])C(=O)C1([H])N(C(=O)C([H])(N([H])C(=O)C([H])(N([H])C([H])([H])[H])C([H])([H])[H])C(C([H])([H])[H])(C([H])([H])[H])C([H])([H])[H])C([H])([H])c2c([H])c(OC([H])([H])C([H])([H])C([H])([H])C([H])([H])C([H])([H])C([H])([H])C([H])([H])C([H])([H])C([H])([H])C([H])([H])C([H])([H])C([H])([H])C([H])([H])C([H])([H])C([H])([H])c3c(Cl)c(N([H])C(=O)N4C([H])([H])C([H])([H])C([H])([H])C([H])(n5nc(-c6c([H])c([H])c(Oc7c([H])c([H])c(F)c([H])c7F)c([H])c6[H])c(C(=O)N([H])[H])c5N([H])[H])C4([H])[H])c(Cl)c([H])c3C([H])([H])[H])c([H])c([H])c2C1([H])[H]

$$$$
72:0:0
     RDKit          3D

102110  0  0  1  0  0  0  0  0999 V2000
  -31.2870  -23.2510   17.8140 C   0  0  0  0  0  3  0  0  0  0  0  0
  -30.8310  -22.5470   16.6840 C   0  0  0  0  0  0  0  0  0  0  0  0
  -30.1080  -24.6550   15.6810 C   0  0  0  0  0  0  0  0  0  0  0  0
  -31.1130  -24.6430   17.9210 C   0  0  0  0  0  0  0  0  0  0  0  0
  -30.2470  -23.2500   15.6120 C   0  0  0  0  0  0  0  0  0  0  0  0
  -30.5390  -25.3510   16.8360 C   0  0  0  0  0  0  0  0  0  0  0  0
  -29.4690  -25.4090   14.5270 C   0  0  0  0  0  1  0  0  0  0  0  0
  -29.8090  -22.5740   14.5220 F   0  0  0  0  0  0  0  0  0  0  0  0
  -30.3480  -27.0700   16.9390 Cl  0  0  0  0  0  0  0  0  0  0  0  0
  -31.4750  -25.3120   19.1020 N   0  0  0  0  0  0  0  0  0  0  0  0
  -31.4360  -26.3170   18.9590 H   0  0  0  0  0  0  0  0  0  0  0  0
  -31.5410  -23.8840   21.1410 C   0  0  0  0  0  1  0  0  0  0  0  0
  -30.7360  -24.8920   20.2950 C   0  0  0  0  0  3  0  0  0  0  0  0
  -30.3680  -26.0840   21.1980 C   0  0  0  0  0  2  0  0  0  0  0  0
  -29.5210  -27.2080   20.5860 C   0  0  0  0  0  2  0  0  0  0  0  0
  -28.2900  -26.7110   20.0520 O   0  0  0  0  0  0  0  0  0  0  0  0
  -24.5450  -31.9070   23.2070 C   0  0  0  0  0  0  0  0  0  0  0  0
  -27.1590  -27.5030   20.0950 C   0  0  0  0  0  0  0  0  0  0  0  0
  -23.3070  -30.5200   21.5700 C   0  0  0  0  0  3  0  0  0  0  0  0
  -24.7370  -28.9770   20.1270 C   0  0  0  0  0  0  0  0  0  0  0  0
  -25.8220  -30.8840   21.3330 C   0  0  0  0  0  2  0  0  0  0  0  0
  -25.8960  -29.5150   20.6940 C   0  0  0  0  0  0  0  0  0  0  0  0
  -27.1030  -28.7970   20.6690 C   0  0  0  0  0  3  0  0  0  0  0  0
  -25.9790  -26.9710   19.5300 C   0  0  0  0  0  3  0  0  0  0  0  0
  -24.7710  -27.7000   19.5400 C   0  0  0  0  0  3  0  0  0  0  0  0
  -23.4950  -29.8360   20.1870 C   0  0  0  0  0  2  0  0  0  0  0  0
  -24.5770  -31.1170   22.0970 N   0  0  0  0  0  0  0  0  0  0  0  0
  -23.4730  -32.1850   23.7620 O   0  0  0  0  0  0  0  0  0  0  0  0
  -22.6610  -29.5030   22.5340 C   0  0  0  0  0  0  0  0  0  0  0  0
  -21.3340  -29.3350   22.4190 N   0  0  0  0  0  0  0  0  0  0  0  0
  -23.3480  -28.8640   23.3370 O   0  0  0  0  0  0  0  0  0  0  0  0
  -20.8440  -29.9000   21.7390 H   0  0  0  0  0  0  0  0  0  0  0  0
  -17.9520  -28.1880   22.9410 C   0  0  0  0  0  0  0  0  0  0  0  0
  -20.5150  -28.4050   23.1920 C   0  0  0  0  0  3  0  0  0  0  0  0
  -20.5910  -26.9770   22.6040 C   0  0  0  0  0  2  0  0  0  0  0  0
  -19.4750  -26.6790   21.5990 C   0  0  0  0  0  2  0  0  0  0  0  0
  -18.1030  -26.8410   22.2560 C   0  0  0  0  0  2  0  0  0  0  0  0
  -19.0850  -28.9300   23.3660 C   0  0  0  0  0  0  0  0  0  0  0  0
  -18.8910  -30.1940   23.9650 C   0  0  0  0  0  3  0  0  0  0  0  0
  -17.5960  -30.7140   24.1450 C   0  0  0  0  0  3  0  0  0  0  0  0
  -16.4770  -29.9670   23.7360 C   0  0  0  0  0  3  0  0  0  0  0  0
  -16.6560  -28.7070   23.1400 C   0  0  0  0  0  3  0  0  0  0  0  0
  -25.8450  -32.5190   23.8180 C   0  0  0  0  0  3  0  0  0  0  0  0
  -26.3740  -31.7300   25.0770 C   0  0  1  0  0  0  0  0  0  0  0  0
  -25.2960  -31.4910   26.1590 C   0  0  0  0  0  1  0  0  0  0  0  0
  -26.9370  -30.3520   24.6560 C   0  0  0  0  0  1  0  0  0  0  0  0
  -27.5460  -32.5040   25.7270 C   0  0  0  0  0  1  0  0  0  0  0  0
  -25.5570  -33.9170   24.1620 N   0  0  0  0  0  0  0  0  0  0  0  0
  -25.8980  -34.9700   23.4090 C   0  0  0  0  0  0  0  0  0  0  0  0
  -26.5610  -34.8670   22.3730 O   0  0  0  0  0  0  0  0  0  0  0  0
  -24.9680  -34.0710   24.9680 H   0  0  0  0  0  0  0  0  0  0  0  0
  -24.1890  -36.7830   23.0720 C   0  0  0  0  0  1  0  0  0  0  0  0
  -25.4280  -36.3600   23.8780 C   0  0  0  0  0  3  0  0  0  0  0  0
  -27.5780  -37.2100   24.7040 C   0  0  0  0  0  1  0  0  0  0  0  0
  -26.4720  -37.4020   23.7690 N   0  0  0  0  0  0  0  0  0  0  0  0
  -26.0780  -38.3260   23.9280 H   0  0  0  0  0  0  0  0  0  0  0  0
  -30.9360  -21.0320   16.6940 C   0  0  0  0  0  2  0  0  0  0  0  0
  -30.0690  -20.5150   17.7690 N   0  0  0  0  0  4  0  0  0  0  0  0
  -29.1540  -20.3260   17.3900 H   0  0  0  0  0  0  0  0  0  0  0  0
  -29.9670  -21.2600   18.4360 H   0  0  0  0  0  0  0  0  0  0  0  0
  -30.5720  -19.3330   18.4940 C   0  0  0  0  0  2  0  0  0  0  0  0
  -29.8190  -19.1630   19.8300 C   0  0  0  0  0  2  0  0  0  0  0  0
  -30.1850  -17.8970   20.6200 C   0  0  0  0  0  2  0  0  0  0  0  0
  -29.7290  -16.6240   19.9010 C   0  0  0  0  0  2  0  0  0  0  0  0
  -30.6460  -14.4230   20.4540 C   0  0  0  0  0  0  0  0  0  0  0  0
  -30.3680  -12.2630   19.3430 C   0  0  0  0  0  2  0  0  0  0  0  0
  -29.4370  -12.5170   18.1370 C   0  0  0  0  0  2  0  0  0  0  0  0
  -27.9530  -12.4050   18.5500 C   0  0  0  0  0  2  0  0  0  0  0  0
  -27.6190  -13.2160   19.8310 C   0  0  0  0  0  3  0  0  0  0  0  0
  -28.6690  -12.9490   20.9390 C   0  0  0  0  0  2  0  0  0  0  0  0
  -30.0070  -13.2290   20.3850 N   0  0  0  0  0  0  0  0  0  0  0  0
  -31.7770  -14.6340   20.0100 O   0  0  0  0  0  0  0  0  0  0  0  0
  -29.8140  -15.4310   20.7350 N   0  0  0  0  0  0  0  0  0  0  0  0
  -28.9480  -15.1380   21.1610 H   0  0  0  0  0  0  0  0  0  0  0  0
  -25.2110  -13.8380   20.5130 C   0  0  0  0  0  0  0  0  0  0  0  0
  -24.1390  -13.0700   20.8800 C   0  0  0  0  0  0  0  0  0  0  0  0
  -24.5970  -11.7190   20.8610 C   0  0  0  0  0  0  0  0  0  0  0  0
  -26.2590  -12.9530   20.2980 N   0  0  0  0  0  0  0  0  0  0  0  0
  -25.8890  -11.6740   20.5610 N   0  0  0  0  0  0  0  0  0  0  0  0
  -23.8700  -10.4580   21.0570 C   0  0  0  0  0  0  0  0  0  0  0  0
  -24.3120   -9.4880   21.9830 C   0  0  0  0  0  3  0  0  0  0  0  0
  -23.5890   -8.2910   22.1670 C   0  0  0  0  0  3  0  0  0  0  0  0
  -22.4070   -8.0540   21.4250 C   0  0  0  0  0  0  0  0  0  0  0  0
  -21.9820   -9.0130   20.4880 C   0  0  0  0  0  3  0  0  0  0  0  0
  -22.7080  -10.2010   20.3020 C   0  0  0  0  0  3  0  0  0  0  0  0
  -21.6540   -6.9090   21.5170 O   0  0  0  0  0  0  0  0  0  0  0  0
  -21.6330   -6.1520   22.6600 C   0  0  0  0  0  0  0  0  0  0  0  0
  -21.2540   -6.6960   23.9070 C   0  0  0  0  0  3  0  0  0  0  0  0
  -21.1780   -5.8670   25.0420 C   0  0  0  0  0  3  0  0  0  0  0  0
  -21.4710   -4.4940   24.9340 C   0  0  0  0  0  0  0  0  0  0  0  0
  -21.8440   -3.9500   23.6930 C   0  0  0  0  0  3  0  0  0  0  0  0
  -21.9210   -4.7760   22.5590 C   0  0  0  0  0  0  0  0  0  0  0  0
  -22.2600   -4.2420   21.3600 F   0  0  0  0  0  0  0  0  0  0  0  0
  -21.3900   -3.6960   26.0250 F   0  0  0  0  0  0  0  0  0  0  0  0
  -22.7410  -13.5510   21.1420 C   0  0  0  0  0  0  0  0  0  0  0  0
  -22.0090  -12.8630   22.0110 N   0  0  0  0  0  0  0  0  0  0  0  0
  -22.3050  -14.5730   20.6130 O   0  0  0  0  0  0  0  0  0  0  0  0
  -22.3750  -12.0380   22.4630 H   0  0  0  0  0  0  0  0  0  0  0  0
  -21.0710  -13.1680   22.2290 H   0  0  0  0  0  0  0  0  0  0  0  0
  -25.3790  -15.2070   20.3280 N   0  0  0  0  0  0  0  0  0  0  0  0
  -24.6120  -15.8620   20.4340 H   0  0  0  0  0  0  0  0  0  0  0  0
  -26.2270  -15.6460   19.9980 H   0  0  0  0  0  0  0  0  0  0  0  0
  1  4  1  0
  2 57  1  0
  2  1  2  0
  3  6  1  0
  4 10  1  0
  5  3  2  0
  5  2  1  0
  6  9  1  0
  6  4  2  0
  7  3  1  0
  8  5  1  0
 10 13  1  0
 11 10  1  0
 13 12  1  0
 13 14  1  0
 15 14  1  0
 16 18  1  0
 16 15  1  0
 17 28  2  0
 18 23  1  0
 19 27  1  0
 19 29  1  0
 20 26  1  0
 20 22  1  0
 21 27  1  0
 22 21  1  0
 23 22  2  0
 24 25  1  0
 24 18  2  0
 25 20  2  0
 26 19  1  0
 27 17  1  0
 29 31  2  0
 30 29  1  0
 32 30  1  0
 33 42  2  0
 33 38  1  0
 34 30  1  0
 34 38  1  0
 35 34  1  0
 36 37  1  0
 36 35  1  0
 37 33  1  0
 38 39  2  0
 39 40  1  0
 41 40  2  0
 42 41  1  0
 43 17  1  0
 43 48  1  0
 43 44  1  0
 44 47  1  1
 44 45  1  0
 46 44  1  0
 48 51  1  0
 49 53  1  0
 49 48  1  0
 50 49  2  0
 53 52  1  0
 55 53  1  0
 55 56  1  0
 55 54  1  0
 57 58  1  0
 58 60  1  0
 58 61  1  0
 59 58  1  0
 61 62  1  0
 62 63  1  0
 64 63  1  0
 64 73  1  0
 65 73  1  0
 66 71  1  0
 67 68  1  0
 67 66  1  0
 69 68  1  0
 69 78  1  0
 69 70  1  0
 71 65  1  0
 71 70  1  0
 72 65  2  0
 73 74  1  0
 75 76  2  0
 76 95  1  0
 77 76  1  0
 77 80  1  0
 78 75  1  0
 78 79  1  0
 79 77  2  0
 80 81  1  0
 81 82  2  0
 83 86  1  0
 83 82  1  0
 84 83  2  0
 85 84  1  0
 85 80  2  0
 86 87  1  0
 87 88  1  0
 88 89  2  0
 90 89  1  0
 90 94  1  0
 91 90  2  0
 92 87  2  0
 92 91  1  0
 93 92  1  0
 95 96  1  0
 96 99  1  0
 96 98  1  0
 97 95  2  0
100101  1  0
100 75  1  0
102100  1  0
M  ISO  4  15 101  16 101  65 100  73 100
M  END
>  <TORSDO>  (72) 
F 26

>  <SCORE>  (72) 
-11.675

>  <name>  (72) 
72

>  <ligand_id>  (72) 
72

>  <original_smiles>  (72) 
[H]c1c([H])c([H])c2c(c1[H])C([H])([H])C([H])([H])C([H])([H])C2([H])N([H])C(=O)C1([H])N(C(=O)C([H])(N([H])C(=O)C([H])(N([H])C([H])([H])[H])C([H])([H])[H])C(C([H])([H])[H])(C([H])([H])[H])C([H])([H])[H])C([H])([H])c2c([H])c(OC([H])([H])C([H])([H])C([H])(N([H])c3c([H])c(C([H])([H])[N+]([H])([H])C([H])([H])C([H])([H])C([H])([H])C([H])([H])N([H])C(=O)N4C([H])([H])C([H])([H])C([H])([H])C([H])(n5nc(-c6c([H])c([H])c(Oc7c([H])c([H])c(F)c([H])c7F)c([H])c6[H])c(C(=O)N([H])[H])c5N([H])[H])C4([H])[H])c(F)c(C([H])([H])[H])c3Cl)C([H])([H])[H])c([H])c([H])c2C1([H])[H]

>  <smiles>  (72) 
[H]c1c([H])c([H])c2c(c1[H])C([H])([H])C([H])([H])C([H])([H])C2([H])N([H])C(=O)C1([H])N(C(=O)C([H])(N([H])C(=O)C([H])(N([H])C([H])([H])[H])C([H])([H])[H])C(C([H])([H])[H])(C([H])([H])[H])C([H])([H])[H])C([H])([H])c2c([H])c(OC([H])([H])C([H])([H])C([H])(N([H])c3c([H])c(C([H])([H])[N+]([H])([H])C([H])([H])C([H])([H])C([H])([H])C([H])([H])N([H])C(=O)N4C([H])([H])C([H])([H])C([H])([H])C([H])(n5nc(-c6c([H])c([H])c(Oc7c([H])c([H])c(F)c([H])c7F)c([H])c6[H])c(C(=O)N([H])[H])c5N([H])[H])C4([H])[H])c(F)c(C([H])([H])[H])c3Cl)C([H])([H])[H])c([H])c([H])c2C1([H])[H]

$$$$
73:0:0
     RDKit          3D

 86 94  0  0  1  0  0  0  0  0999 V2000
  -30.4470  -15.4500   20.3200 C   0  0  0  0  0  0  0  0  0  0  0  0
  -30.4070  -12.9450   19.5400 C   0  0  0  0  0  2  0  0  0  0  0  0
  -29.5380  -12.5930   18.3070 C   0  0  0  0  0  2  0  0  0  0  0  0
  -28.0950  -12.3010   18.7370 C   0  0  0  0  0  2  0  0  0  0  0  0
  -27.5880  -13.3320   19.7730 C   0  0  0  0  0  3  0  0  0  0  0  0
  -28.5980  -13.6280   20.9040 C   0  0  0  0  0  2  0  0  0  0  0  0
  -29.8140  -14.1550   20.2530 N   0  0  0  0  0  0  0  0  0  0  0  0
  -31.6750  -15.2990   20.1870 O   0  0  0  0  0  0  0  0  0  0  0  0
  -28.3290  -19.3370   20.7480 C   0  0  0  0  0  2  0  0  0  0  0  0
  -30.4040  -19.7600   20.0240 C   0  0  0  0  0  2  0  0  0  0  0  0
  -28.5560  -17.6410   20.5020 C   0  0  0  0  0  2  0  0  0  0  0  0
  -29.0040  -20.6240   19.9290 C   0  0  0  0  0  3  0  0  0  0  0  0
  -30.6620  -18.1190   19.6570 C   0  0  0  0  0  3  0  0  0  0  0  0
  -30.7270  -17.9820   18.1230 C   0  0  0  0  0  1  0  0  0  0  0  0
  -29.8900  -16.8790   20.2230 N   0  0  0  0  0  0  0  0  0  0  0  0
  -25.2100  -13.8940   20.4740 C   0  0  0  0  0  0  0  0  0  0  0  0
  -24.1400  -13.1210   20.8270 C   0  0  0  0  0  0  0  0  0  0  0  0
  -24.6090  -11.7710   20.8350 C   0  0  0  0  0  0  0  0  0  0  0  0
  -26.2570  -13.0160   20.2700 N   0  0  0  0  0  0  0  0  0  0  0  0
  -25.9090  -11.7350   20.5590 N   0  0  0  0  0  0  0  0  0  0  0  0
  -23.8770  -10.5120   21.0270 C   0  0  0  0  0  0  0  0  0  0  0  0
  -24.2940   -9.5480   21.9720 C   0  0  0  0  0  3  0  0  0  0  0  0
  -23.5560   -8.3580   22.1530 C   0  0  0  0  0  3  0  0  0  0  0  0
  -22.3870   -8.1250   21.3920 C   0  0  0  0  0  0  0  0  0  0  0  0
  -21.9890   -9.0760   20.4370 C   0  0  0  0  0  3  0  0  0  0  0  0
  -22.7280  -10.2570   20.2540 C   0  0  0  0  0  3  0  0  0  0  0  0
  -21.6200   -6.9870   21.4830 O   0  0  0  0  0  0  0  0  0  0  0  0
  -21.5710   -6.2430   22.6350 C   0  0  0  0  0  0  0  0  0  0  0  0
  -21.1820   -6.8060   23.8700 C   0  0  0  0  0  3  0  0  0  0  0  0
  -21.0770   -5.9910   25.0150 C   0  0  0  0  0  3  0  0  0  0  0  0
  -21.3540   -4.6140   24.9270 C   0  0  0  0  0  0  0  0  0  0  0  0
  -21.7390   -4.0500   23.6970 C   0  0  0  0  0  3  0  0  0  0  0  0
  -21.8430   -4.8630   22.5550 C   0  0  0  0  0  0  0  0  0  0  0  0
  -22.1930   -4.3110   21.3680 F   0  0  0  0  0  0  0  0  0  0  0  0
  -21.2470   -3.8290   26.0240 F   0  0  0  0  0  0  0  0  0  0  0  0
  -22.7370  -13.6040   21.0460 C   0  0  0  0  0  0  0  0  0  0  0  0
  -21.9860  -12.9330   21.9120 N   0  0  0  0  0  0  0  0  0  0  0  0
  -22.3150  -14.6150   20.4840 O   0  0  0  0  0  0  0  0  0  0  0  0
  -22.3420  -12.1160   22.3850 H   0  0  0  0  0  0  0  0  0  0  0  0
  -21.0430  -13.2390   22.1020 H   0  0  0  0  0  0  0  0  0  0  0  0
  -25.3780  -15.2610   20.2750 N   0  0  0  0  0  0  0  0  0  0  0  0
  -24.6130  -15.9210   20.3580 H   0  0  0  0  0  0  0  0  0  0  0  0
  -26.2410  -15.6920   19.9630 H   0  0  0  0  0  0  0  0  0  0  0  0
  -28.9300  -22.4640   20.3120 C   0  0  0  0  0  3  0  0  0  0  0  0
  -28.0330  -24.0320   19.8400 C   0  0  0  0  0  3  0  0  0  0  0  0
  -28.1940  -25.7090   20.0730 O   0  0  0  0  0  0  0  0  0  0  0  0
  -24.6250  -31.7650   23.0440 C   0  0  0  0  0  0  0  0  0  0  0  0
  -27.1910  -26.8450   19.9980 C   0  0  0  0  0  0  0  0  0  0  0  0
  -23.4330  -30.3600   21.4140 C   0  0  0  0  0  3  0  0  0  0  0  0
  -24.8840  -28.7600   19.9720 C   0  0  0  0  0  0  0  0  0  0  0  0
  -26.0000  -30.5750   21.2490 C   0  0  0  0  0  2  0  0  0  0  0  0
  -26.0760  -29.1580   20.5880 C   0  0  0  0  0  0  0  0  0  0  0  0
  -27.2190  -28.2240   20.5740 C   0  0  0  0  0  3  0  0  0  0  0  0
  -25.9670  -26.6220   19.3260 C   0  0  0  0  0  3  0  0  0  0  0  0
  -24.8590  -27.5160   19.3190 C   0  0  0  0  0  3  0  0  0  0  0  0
  -23.6580  -29.6770   20.0360 C   0  0  0  0  0  2  0  0  0  0  0  0
  -24.7090  -30.9290   21.9560 N   0  0  0  0  0  0  0  0  0  0  0  0
  -23.5360  -32.0460   23.5740 O   0  0  0  0  0  0  0  0  0  0  0  0
  -22.7510  -29.3620   22.3890 C   0  0  0  0  0  0  0  0  0  0  0  0
  -21.4170  -29.2080   22.2970 N   0  0  0  0  0  0  0  0  0  0  0  0
  -23.4320  -28.7240   23.1970 O   0  0  0  0  0  0  0  0  0  0  0  0
  -20.9210  -29.7730   21.6220 H   0  0  0  0  0  0  0  0  0  0  0  0
  -18.0400  -28.0070   22.8880 C   0  0  0  0  0  0  0  0  0  0  0  0
  -20.6090  -28.2620   23.0780 C   0  0  0  0  0  3  0  0  0  0  0  0
  -20.6860  -26.8390   22.4790 C   0  0  0  0  0  2  0  0  0  0  0  0
  -19.5530  -26.5370   21.4930 C   0  0  0  0  0  2  0  0  0  0  0  0
  -18.1920  -26.6710   22.1810 C   0  0  0  0  0  2  0  0  0  0  0  0
  -19.1730  -28.7610   23.2950 C   0  0  0  0  0  0  0  0  0  0  0  0
  -18.9740  -30.0080   23.9260 C   0  0  0  0  0  3  0  0  0  0  0  0
  -17.6750  -30.5040   24.1470 C   0  0  0  0  0  3  0  0  0  0  0  0
  -16.5570  -29.7490   23.7500 C   0  0  0  0  0  3  0  0  0  0  0  0
  -16.7410  -28.5020   23.1290 C   0  0  0  0  0  3  0  0  0  0  0  0
  -25.8910  -32.4240   23.6710 C   0  0  0  0  0  3  0  0  0  0  0  0
  -25.5440  -33.8050   24.0550 N   0  0  0  0  0  0  0  0  0  0  0  0
  -25.8380  -34.9020   23.3430 C   0  0  0  0  0  0  0  0  0  0  0  0
  -26.4900  -34.8580   22.2970 O   0  0  0  0  0  0  0  0  0  0  0  0
  -24.9570  -33.9100   24.8700 H   0  0  0  0  0  0  0  0  0  0  0  0
  -24.0620  -36.6760   23.1120 C   0  0  0  0  0  1  0  0  0  0  0  0
  -25.3340  -36.2620   23.8710 C   0  0  0  0  0  3  0  0  0  0  0  0
  -27.4710  -37.1660   24.6820 C   0  0  0  0  0  1  0  0  0  0  0  0
  -26.3390  -37.3430   23.7750 N   0  0  0  0  0  0  0  0  0  0  0  0
  -25.9170  -38.2470   23.9660 H   0  0  0  0  0  0  0  0  0  0  0  0
  -26.4420  -31.6380   24.9250 C   0  0  1  0  0  0  0  0  0  0  0  0
  -25.3730  -31.3600   26.0070 C   0  0  0  0  0  1  0  0  0  0  0  0
  -27.0410  -30.2770   24.5030 C   0  0  0  0  0  1  0  0  0  0  0  0
  -27.5910  -32.4380   25.5820 C   0  0  0  0  0  1  0  0  0  0  0  0
  2  7  1  0
  3  4  1  0
  3  2  1  0
  5  4  1  0
  5 19  1  0
  5  6  1  0
  7  1  1  0
  7  6  1  0
  8  1  2  0
 11  9  1  0
 12 10  1  0
 12 44  1  0
 12  9  1  0
 13 14  1  0
 13 10  1  0
 13 15  1  0
 15  1  1  0
 15 11  1  0
 16 17  2  0
 17 18  1  0
 17 36  1  0
 18 21  1  0
 19 16  1  0
 19 20  1  0
 20 18  2  0
 21 22  1  0
 22 23  2  0
 24 27  1  0
 24 23  1  0
 25 24  2  0
 26 25  1  0
 26 21  2  0
 27 28  1  0
 28 29  1  0
 29 30  2  0
 31 30  1  0
 31 35  1  0
 32 31  2  0
 33 28  2  0
 33 32  1  0
 34 33  1  0
 36 37  1  0
 37 40  1  0
 37 39  1  0
 38 36  2  0
 41 42  1  0
 41 16  1  0
 43 41  1  0
 45 46  1  0
 45 44  2  0
 47 58  2  0
 48 46  1  0
 48 53  1  0
 49 57  1  0
 49 59  1  0
 50 56  1  0
 50 52  1  0
 51 57  1  0
 52 51  1  0
 53 52  2  0
 54 48  2  0
 55 54  1  0
 55 50  2  0
 56 49  1  0
 57 47  1  0
 59 61  2  0
 60 59  1  0
 62 60  1  0
 63 72  2  0
 63 68  1  0
 64 60  1  0
 64 68  1  0
 65 64  1  0
 66 67  1  0
 66 65  1  0
 67 63  1  0
 68 69  2  0
 69 70  1  0
 71 70  2  0
 72 71  1  0
 73 47  1  0
 73 74  1  0
 73 83  1  0
 74 77  1  0
 75 79  1  0
 75 74  1  0
 76 75  2  0
 79 78  1  0
 81 79  1  0
 81 82  1  0
 81 80  1  0
 83 86  1  1
 83 84  1  0
 85 83  1  0
M  ISO  4   1 100  15 100  45 101  46 101
M  END
>  <TORSDO>  (73) 
F 17

>  <SCORE>  (73) 
-16.190

>  <name>  (73) 
73

>  <ligand_id>  (73) 
73

>  <original_smiles>  (73) 
[H]c1c([H])c([H])c2c(c1[H])C([H])([H])C([H])([H])C([H])([H])C2([H])N([H])C(=O)C1([H])N(C(=O)C([H])(N([H])C(=O)C([H])(N([H])C([H])([H])[H])C([H])([H])[H])C(C([H])([H])[H])(C([H])([H])[H])C([H])([H])[H])C([H])([H])c2c([H])c(OC([H])([H])C([H])([H])C3([H])C([H])([H])C([H])([H])N(C(=O)N4C([H])([H])C([H])([H])C([H])([H])C([H])(n5nc(-c6c([H])c([H])c(Oc7c([H])c([H])c(F)c([H])c7F)c([H])c6[H])c(C(=O)N([H])[H])c5N([H])[H])C4([H])[H])C([H])(C([H])([H])[H])C3([H])[H])c([H])c([H])c2C1([H])[H]

>  <smiles>  (73) 
[H]c1c([H])c([H])c2c(c1[H])C([H])([H])C([H])([H])C([H])([H])C2([H])N([H])C(=O)C1([H])N(C(=O)C([H])(N([H])C(=O)C([H])(N([H])C([H])([H])[H])C([H])([H])[H])C(C([H])([H])[H])(C([H])([H])[H])C([H])([H])[H])C([H])([H])c2c([H])c(OC([H])([H])C([H])([H])C3([H])C([H])([H])C([H])([H])N(C(=O)N4C([H])([H])C([H])([H])C([H])([H])C([H])(n5nc(-c6c([H])c([H])c(Oc7c([H])c([H])c(F)c([H])c7F)c([H])c6[H])c(C(=O)N([H])[H])c5N([H])[H])C4([H])[H])C([H])(C([H])([H])[H])C3([H])[H])c([H])c([H])c2C1([H])[H]

$$$$
74:0:0
     RDKit          3D

112121  0  0  1  0  0  0  0  0999 V2000
  -25.8460  -20.6560   17.3350 C   0  0  0  0  0  0  0  0  0  0  0  0
  -26.6040  -22.3370   18.9370 C   0  0  0  0  0  0  0  0  0  0  0  0
  -28.1180  -20.5010   18.2870 C   0  0  0  0  0  0  0  0  0  0  0  0
  -27.1120  -20.0560   17.4020 C   0  0  0  0  0  0  0  0  0  0  0  0
  -25.5880  -21.8090   18.0920 C   0  0  0  0  0  0  0  0  0  0  0  0
  -27.8280  -21.6300   19.1130 C   0  0  0  0  0  0  0  0  0  0  0  0
  -24.7690  -20.0600   16.4400 C   0  0  0  0  0  1  0  0  0  0  0  0
  -27.3600  -19.0000   16.6030 F   0  0  0  0  0  0  0  0  0  0  0  0
  -24.0160  -22.5330   17.9660 Cl  0  0  0  0  0  0  0  0  0  0  0  0
  -28.8890  -22.2100   20.3680 Cl  0  0  0  0  0  0  0  0  0  0  0  0
  -25.2410  -23.6340   20.4760 C   0  0  0  0  0  1  0  0  0  0  0  0
  -26.4310  -23.5500   19.6310 N   0  0  0  0  0  0  0  0  0  0  0  0
  -26.1500  -25.4190   17.9900 C   0  0  0  0  0  1  0  0  0  0  0  0
  -27.0200  -24.7840   19.0910 C   0  0  0  0  0  3  0  0  0  0  0  0
  -28.5150  -24.7100   18.6510 C   0  0  0  0  0  2  0  0  0  0  0  0
  -29.5260  -24.9210   19.8060 C   0  0  0  0  0  2  0  0  0  0  0  0
  -29.8960  -26.3970   20.1050 C   0  0  0  0  0  2  0  0  0  0  0  0
  -29.6370  -26.7780   21.4670 O   0  0  0  0  0  0  0  0  0  0  0  0
  -24.8900  -28.3750   26.5280 C   0  0  0  0  0  0  0  0  0  0  0  0
  -28.4280  -27.3770   21.7660 C   0  0  0  0  0  0  0  0  0  0  0  0
  -24.1210  -28.6630   24.1980 C   0  0  0  0  0  3  0  0  0  0  0  0
  -25.9330  -28.5500   22.4160 C   0  0  0  0  0  0  0  0  0  0  0  0
  -26.6000  -28.8800   24.7930 C   0  0  0  0  0  2  0  0  0  0  0  0
  -26.9150  -28.3870   23.4020 C   0  0  0  0  0  0  0  0  0  0  0  0
  -28.1540  -27.7830   23.0890 C   0  0  0  0  0  3  0  0  0  0  0  0
  -27.4430  -27.6200   20.7830 C   0  0  0  0  0  3  0  0  0  0  0  0
  -26.1900  -28.1580   21.0970 C   0  0  0  0  0  3  0  0  0  0  0  0
  -24.6270  -29.1810   22.8280 C   0  0  0  0  0  2  0  0  0  0  0  0
  -25.2110  -28.6040   25.2240 N   0  0  0  0  0  0  0  0  0  0  0  0
  -23.7110  -28.2490   26.8840 O   0  0  0  0  0  0  0  0  0  0  0  0
  -23.4110  -27.3070   23.9820 C   0  0  0  0  0  0  0  0  0  0  0  0
  -22.2880  -27.3340   23.2450 N   0  0  0  0  0  0  0  0  0  0  0  0
  -23.8820  -26.2660   24.4480 O   0  0  0  0  0  0  0  0  0  0  0  0
  -21.9640  -28.2290   22.9040 H   0  0  0  0  0  0  0  0  0  0  0  0
  -19.6550  -26.2080   21.0440 C   0  0  0  0  0  0  0  0  0  0  0  0
  -21.4690  -26.1790   22.8850 C   0  0  0  0  0  3  0  0  0  0  0  0
  -22.2450  -25.2100   21.9630 C   0  0  0  0  0  2  0  0  0  0  0  0
  -22.0080  -25.4780   20.4740 C   0  0  0  0  0  2  0  0  0  0  0  0
  -20.5200  -25.3550   20.1330 C   0  0  0  0  0  2  0  0  0  0  0  0
  -20.1050  -26.6090   22.3290 C   0  0  0  0  0  0  0  0  0  0  0  0
  -19.2770  -27.4350   23.1190 C   0  0  0  0  0  3  0  0  0  0  0  0
  -18.0160  -27.8530   22.6490 C   0  0  0  0  0  3  0  0  0  0  0  0
  -17.5680  -27.4380   21.3820 C   0  0  0  0  0  3  0  0  0  0  0  0
  -18.3850  -26.6160   20.5850 C   0  0  0  0  0  3  0  0  0  0  0  0
  -25.9850  -28.2830   27.6340 C   0  0  0  0  0  3  0  0  0  0  0  0
  -26.4790  -29.6440   27.8840 N   0  0  0  0  0  0  0  0  0  0  0  0
  -27.7670  -30.0070   27.8220 C   0  0  0  0  0  0  0  0  0  0  0  0
  -28.6810  -29.2020   27.6200 O   0  0  0  0  0  0  0  0  0  0  0  0
  -25.7820  -30.3630   28.0100 H   0  0  0  0  0  0  0  0  0  0  0  0
  -28.8340  -32.0290   26.7760 C   0  0  0  0  0  1  0  0  0  0  0  0
  -28.0940  -31.5000   28.0140 C   0  0  0  0  0  3  0  0  0  0  0  0
  -28.1400  -31.5780   30.4680 C   0  0  0  0  0  1  0  0  0  0  0  0
  -28.8900  -31.7760   29.2300 N   0  0  0  0  0  0  0  0  0  0  0  0
  -29.2390  -32.7310   29.2200 H   0  0  0  0  0  0  0  0  0  0  0  0
  -25.4630  -27.6210   28.9690 C   0  0  1  0  0  0  0  0  0  0  0  0
  -24.1910  -28.2890   29.5390 C   0  0  0  0  0  1  0  0  0  0  0  0
  -25.1480  -26.1220   28.7530 C   0  0  0  0  0  1  0  0  0  0  0  0
  -26.5660  -27.6900   30.0510 C   0  0  0  0  0  1  0  0  0  0  0  0
  -29.2880  -19.7540   18.2060 O   0  0  0  0  0  0  0  0  0  0  0  0
  -30.1640  -19.5430   19.3070 C   0  0  0  0  0  2  0  0  0  0  0  0
  -31.4550  -20.3810   19.1910 C   0  0  0  0  0  2  0  0  0  0  0  0
  -32.2470  -20.4320   20.5130 C   0  0  0  0  0  2  0  0  0  0  0  0
  -33.1320  -21.6840   20.7120 C   0  0  0  0  0  2  0  0  0  0  0  0
  -36.0850  -21.5700   18.8470 C   0  0  0  0  0  3  0  0  0  0  0  0
  -36.6890  -21.1380   20.0660 C   0  0  0  0  0  0  0  0  0  0  0  0
  -35.6410  -21.1650   20.9600 C   0  0  0  0  0  0  0  0  0  0  0  0
  -35.5720  -20.8350   22.4200 C   0  0  0  0  0  1  0  0  0  0  0  0
  -34.7890  -21.8010   18.9610 N   0  0  0  0  0  0  0  0  0  0  0  0
  -34.5070  -21.5330   20.2520 N   0  0  0  0  0  0  0  0  0  0  0  0
  -38.9260  -20.7720   18.9370 C   0  0  0  0  0  1  0  0  0  0  0  0
  -38.8590  -21.6720   21.2380 C   0  0  0  0  0  1  0  0  0  0  0  0
  -38.1430  -20.7100   20.2680 C   0  0  1  0  0  0  0  0  0  0  0  0
  -38.2190  -19.2570   20.8140 C   0  0  0  0  0  2  0  0  0  0  0  0
  -37.9510  -18.1590   19.7600 C   0  0  0  0  0  2  0  0  0  0  0  0
  -39.8180  -16.5800   20.1990 C   0  0  0  0  0  0  0  0  0  0  0  0
  -41.4950  -14.8200   20.6030 C   0  0  0  0  0  2  0  0  0  0  0  0
  -41.8960  -14.1150   19.2950 C   0  0  0  0  0  2  0  0  0  0  0  0
  -40.9330  -12.9560   18.9840 C   0  0  0  0  0  2  0  0  0  0  0  0
  -39.4450  -13.3840   19.0660 C   0  0  0  0  0  3  0  0  0  0  0  0
  -39.1660  -14.1490   20.3790 C   0  0  0  0  0  2  0  0  0  0  0  0
  -40.1060  -15.2840   20.4750 N   0  0  0  0  0  0  0  0  0  0  0  0
  -40.6770  -17.4510   20.0390 O   0  0  0  0  0  0  0  0  0  0  0  0
  -38.5120  -16.8680   20.1490 N   0  0  0  0  0  0  0  0  0  0  0  0
  -37.8710  -16.1110   20.3310 H   0  0  0  0  0  0  0  0  0  0  0  0
  -37.4280  -12.0980   18.1160 C   0  0  0  0  0  0  0  0  0  0  0  0
  -37.0030  -10.8080   18.2720 C   0  0  0  0  0  0  0  0  0  0  0  0
  -37.9140  -10.2090   19.1950 C   0  0  0  0  0  0  0  0  0  0  0  0
  -38.5530  -12.2360   18.9120 N   0  0  0  0  0  0  0  0  0  0  0  0
  -38.8090  -11.0990   19.6060 N   0  0  0  0  0  0  0  0  0  0  0  0
  -38.0190   -8.8260   19.6680 C   0  0  0  0  0  0  0  0  0  0  0  0
  -38.0340   -8.5190   21.0460 C   0  0  0  0  0  3  0  0  0  0  0  0
  -38.1180   -7.1780   21.4790 C   0  0  0  0  0  3  0  0  0  0  0  0
  -38.1840   -6.1300   20.5300 C   0  0  0  0  0  0  0  0  0  0  0  0
  -38.1920   -6.4440   19.1600 C   0  0  0  0  0  3  0  0  0  0  0  0
  -38.1130   -7.7780   18.7310 C   0  0  0  0  0  3  0  0  0  0  0  0
  -38.2960   -4.8010   20.8590 O   0  0  0  0  0  0  0  0  0  0  0  0
  -37.8690   -4.3220   22.0710 C   0  0  0  0  0  0  0  0  0  0  0  0
  -36.5200   -4.4180   22.4770 C   0  0  0  0  0  3  0  0  0  0  0  0
  -36.1100   -3.8490   23.7000 C   0  0  0  0  0  3  0  0  0  0  0  0
  -37.0450   -3.1780   24.5130 C   0  0  0  0  0  0  0  0  0  0  0  0
  -38.3860   -3.0780   24.1070 C   0  0  0  0  0  3  0  0  0  0  0  0
  -38.7970   -3.6460   22.8890 C   0  0  0  0  0  0  0  0  0  0  0  0
  -40.0870   -3.5280   22.4930 F   0  0  0  0  0  0  0  0  0  0  0  0
  -36.6500   -2.6250   25.6830 F   0  0  0  0  0  0  0  0  0  0  0  0
  -35.8690  -10.1420   17.5470 C   0  0  0  0  0  0  0  0  0  0  0  0
  -35.2070   -9.1870   18.1900 N   0  0  0  0  0  0  0  0  0  0  0  0
  -35.5330  -10.4980   16.4170 O   0  0  0  0  0  0  0  0  0  0  0  0
  -35.4710   -8.9080   19.1240 H   0  0  0  0  0  0  0  0  0  0  0  0
  -34.4260   -8.7300   17.7430 H   0  0  0  0  0  0  0  0  0  0  0  0
  -36.9650  -13.1640   17.3630 N   0  0  0  0  0  0  0  0  0  0  0  0
  -36.2420  -13.0640   16.6600 H   0  0  0  0  0  0  0  0  0  0  0  0
  -37.4330  -14.0570   17.2930 H   0  0  0  0  0  0  0  0  0  0  0  0
  1  4  2  0
  1  5  1  0
  2  6  1  0
  2 12  1  0
  3  6  2  0
  4  3  1  0
  5  2  2  0
  6 10  1  0
  7  1  1  0
  8  4  1  0
  9  5  1  0
 12 11  1  0
 14 13  1  0
 14 12  1  0
 15 14  1  0
 15 16  1  0
 16 17  1  0
 17 18  1  0
 18 20  1  0
 19 30  2  0
 20 25  1  0
 21 31  1  0
 21 29  1  0
 22 28  1  0
 22 24  1  0
 23 29  1  0
 24 23  1  0
 25 24  2  0
 26 27  1  0
 26 20  2  0
 27 22  2  0
 28 21  1  0
 29 19  1  0
 31 33  2  0
 32 31  1  0
 34 32  1  0
 35 40  1  0
 36 32  1  0
 37 36  1  0
 38 37  1  0
 39 38  1  0
 39 35  1  0
 40 36  1  0
 40 41  2  0
 42 41  1  0
 43 42  2  0
 44 35  2  0
 44 43  1  0
 45 19  1  0
 45 46  1  0
 45 55  1  0
 46 49  1  0
 47 46  1  0
 47 51  1  0
 48 47  2  0
 51 50  1  0
 51 53  1  0
 53 52  1  0
 54 53  1  0
 55 56  1  1
 55 58  1  0
 57 55  1  0
 59  3  1  0
 59 60  1  0
 61 60  1  0
 61 62  1  0
 62 63  1  0
 64 68  2  0
 64 65  1  0
 65 72  1  0
 65 66  2  0
 66 67  1  0
 68 69  1  0
 69 63  1  0
 69 66  1  0
 72 70  1  6
 72 73  1  0
 72 71  1  0
 74 83  1  0
 74 73  1  0
 75 81  1  0
 77 76  1  0
 78 79  1  0
 78 77  1  0
 79 88  1  0
 79 80  1  0
 80 81  1  0
 81 76  1  0
 82 75  2  0
 83 75  1  0
 83 84  1  0
 85 86  2  0
 85 88  1  0
 86 87  1  0
 87 89  2  0
 87 90  1  0
 88 89  1  0
 90 91  1  0
 91 92  2  0
 93 96  1  0
 93 92  1  0
 94 93  2  0
 95 94  1  0
 95 90  2  0
 96 97  1  0
 97 98  2  0
 97102  1  0
 98 99  1  0
 99100  2  0
100104  1  0
101100  1  0
102101  2  0
103102  1  0
105106  1  0
105 86  1  0
106108  1  0
107105  2  0
109106  1  0
110 85  1  0
111110  1  0
112110  1  0
M  ISO  4  17 101  18 101  75 100  83 100
M  END
>  <TORSDO>  (74) 
F 30

>  <SCORE>  (74) 
-4.926

>  <name>  (74) 
74

>  <ligand_id>  (74) 
74

>  <original_smiles>  (74) 
[H]c1nn(C([H])([H])C([H])([H])C([H])([H])C([H])([H])Oc2c(F)c(C([H])([H])[H])c(Cl)c(N(C([H])([H])[H])C([H])(C([H])([H])[H])C([H])([H])C([H])([H])C([H])([H])Oc3c([H])c([H])c4c(c3[H])C([H])([H])N(C(=O)C([H])(N([H])C(=O)C([H])(N([H])C([H])([H])[H])C([H])([H])[H])C(C([H])([H])[H])(C([H])([H])[H])C([H])([H])[H])C([H])(C(=O)N([H])C3([H])c5c([H])c([H])c([H])c([H])c5C([H])([H])C([H])([H])C3([H])[H])C4([H])[H])c2Cl)c(C([H])([H])[H])c1C(C([H])([H])[H])(C([H])([H])[H])C([H])([H])C([H])([H])N([H])C(=O)N1C([H])([H])C([H])([H])C([H])([H])C([H])(n2nc(-c3c([H])c([H])c(Oc4c([H])c([H])c(F)c([H])c4F)c([H])c3[H])c(C(=O)N([H])[H])c2N([H])[H])C1([H])[H]

>  <smiles>  (74) 
[H]c1nn(C([H])([H])C([H])([H])C([H])([H])C([H])([H])Oc2c(F)c(C([H])([H])[H])c(Cl)c(N(C([H])([H])[H])C([H])(C([H])([H])[H])C([H])([H])C([H])([H])C([H])([H])Oc3c([H])c([H])c4c(c3[H])C([H])([H])N(C(=O)C([H])(N([H])C(=O)C([H])(N([H])C([H])([H])[H])C([H])([H])[H])C(C([H])([H])[H])(C([H])([H])[H])C([H])([H])[H])C([H])(C(=O)N([H])C3([H])c5c([H])c([H])c([H])c([H])c5C([H])([H])C([H])([H])C3([H])[H])C4([H])[H])c2Cl)c(C([H])([H])[H])c1C(C([H])([H])[H])(C([H])([H])[H])C([H])([H])C([H])([H])N([H])C(=O)N1C([H])([H])C([H])([H])C([H])([H])C([H])(n2nc(-c3c([H])c([H])c(Oc4c([H])c([H])c(F)c([H])c4F)c([H])c3[H])c(C(=O)N([H])[H])c2N([H])[H])C1([H])[H]

$$$$
75:0:0
     RDKit          3D

100107  0  0  1  0  0  0  0  0999 V2000
  -25.2710  -24.4820   22.1890 C   0  0  0  0  0  3  0  0  0  0  0  0
  -25.9270  -25.4180   23.1150 C   0  0  0  0  0  0  0  0  0  0  0  0
  -27.2940  -24.8680   23.1590 C   0  0  0  0  0  0  0  0  0  0  0  0
  -27.1970  -22.7680   21.4560 C   0  0  0  0  0  0  0  0  0  0  0  0
  -25.8270  -23.3000   21.4450 C   0  0  0  0  0  0  0  0  0  0  0  0
  -27.8620  -23.6760   22.4120 C   0  0  0  0  0  0  0  0  0  0  0  0
  -28.2700  -25.6760   24.0040 C   0  0  0  0  0  1  0  0  0  0  0  0
  -24.7290  -22.5180   20.3650 Cl  0  0  0  0  0  0  0  0  0  0  0  0
  -29.5520  -23.3640   22.6190 Cl  0  0  0  0  0  0  0  0  0  0  0  0
  -25.3900  -27.0670   23.5570 C   0  0  0  0  0  3  0  0  0  0  0  0
  -24.1550  -28.2330   24.4660 C   0  0  0  0  0  1  0  0  0  0  0  0
  -22.6040  -29.4420   24.0250 C   0  0  0  0  0  1  0  0  0  0  0  0
  -20.2750  -30.5260   22.6940 C   0  0  0  0  0  1  0  0  0  0  0  0
  -21.3850  -29.5260   22.5860 N   0  0  2  0  0  4  0  0  0  0  0  0
  -22.0030  -30.2200   22.1960 H   0  0  0  0  0  0  0  0  0  0  0  0
  -19.8600  -28.0430   20.6610 C   0  0  0  0  0  1  0  0  0  0  0  0
  -21.2740  -28.5980   20.9610 C   0  0  0  0  0  2  0  0  0  0  0  0
  -22.7670  -27.5760   19.8730 C   0  0  0  0  0  1  0  0  0  0  0  0
  -24.6260  -27.5830   19.7130 O   0  0  0  0  0  0  0  0  0  0  0  0
  -25.2800  -31.5440   23.1540 C   0  0  0  0  0  0  0  0  0  0  0  0
  -25.6970  -28.0150   18.8230 C   0  0  0  0  0  3  0  0  0  0  0  0
  -23.9440  -30.1340   21.6720 C   0  0  0  0  0  3  0  0  0  0  0  0
  -24.3640  -30.1050   19.1820 C   0  0  0  0  0  3  0  0  0  0  0  0
  -25.9650  -31.1740   20.7700 C   0  0  0  0  0  2  0  0  0  0  0  0
  -25.6640  -30.1790   19.6650 C   0  0  0  0  0  3  0  0  0  0  0  0
  -26.4780  -29.1070   19.3100 C   0  0  0  0  0  2  0  0  0  0  0  0
  -24.9910  -28.2890   17.6920 C   0  0  0  0  0  2  0  0  0  0  0  0
  -24.0590  -29.2750   18.0550 C   0  0  0  0  0  2  0  0  0  0  0  0
  -23.4060  -30.5540   20.2020 C   0  0  0  0  0  2  0  0  0  0  0  0
  -25.0800  -30.9940   21.9300 N   0  0  0  0  0  0  0  0  0  0  0  0
  -24.4500  -31.4570   24.0760 O   0  0  0  0  0  0  0  0  0  0  0  0
  -24.3260  -28.5370   22.1810 C   0  0  0  0  0  3  0  0  0  0  0  0
  -23.5810  -27.1830   22.0210 N   0  0  0  0  0  0  0  0  0  0  0  0
  -25.1640  -28.5690   23.0200 O   0  0  0  0  0  0  0  0  0  0  0  0
  -24.2950  -26.5000   22.2490 H   0  0  0  0  0  0  0  0  0  0  0  0
  -19.4360  -25.6410   22.0930 C   0  0  0  0  0  0  0  0  0  0  0  0
  -22.0860  -26.3160   22.2870 C   0  0  0  0  0  3  0  0  0  0  0  0
  -22.3170  -25.0680   21.5160 C   0  0  0  0  0  2  0  0  0  0  0  0
  -21.2190  -24.7000   20.5590 C   0  0  0  0  0  2  0  0  0  0  0  0
  -19.9040  -24.4700   21.2790 C   0  0  0  0  0  2  0  0  0  0  0  0
  -20.3890  -26.5720   22.6250 C   0  0  0  0  0  0  0  0  0  0  0  0
  -19.6530  -27.5100   23.4860 C   0  0  0  0  0  3  0  0  0  0  0  0
  -18.2480  -27.6290   23.6430 C   0  0  0  0  0  3  0  0  0  0  0  0
  -17.4100  -26.6990   23.0430 C   0  0  0  0  0  3  0  0  0  0  0  0
  -18.0250  -25.6910   22.3000 C   0  0  0  0  0  3  0  0  0  0  0  0
  -26.5980  -32.2890   23.4140 C   0  0  0  0  0  3  0  0  0  0  0  0
  -27.6250  -31.4060   24.2140 C   0  0  1  0  0  0  0  0  0  0  0  0
  -27.0460  -30.7850   25.5060 C   0  0  0  0  0  1  0  0  0  0  0  0
  -28.2050  -30.2580   23.3550 C   0  0  0  0  0  1  0  0  0  0  0  0
  -28.8370  -32.2820   24.5860 C   0  0  0  0  0  1  0  0  0  0  0  0
  -26.2670  -33.5200   24.1350 N   0  0  0  0  0  0  0  0  0  0  0  0
  -26.2600  -34.7360   23.5750 C   0  0  0  0  0  0  0  0  0  0  0  0
  -26.5840  -34.9310   22.3990 O   0  0  0  0  0  0  0  0  0  0  0  0
  -25.9440  -33.4240   25.0860 H   0  0  0  0  0  0  0  0  0  0  0  0
  -24.4160  -36.3620   24.1020 C   0  0  0  0  0  1  0  0  0  0  0  0
  -25.8440  -35.9210   24.4620 C   0  0  0  0  0  3  0  0  0  0  0  0
  -28.0870  -36.8060   24.9250 C   0  0  0  0  0  1  0  0  0  0  0  0
  -26.7650  -37.0720   24.3630 N   0  0  0  0  0  0  0  0  0  0  0  0
  -26.3780  -37.8860   24.8340 H   0  0  0  0  0  0  0  0  0  0  0  0
  -27.9800  -21.6240   20.3090 C   0  0  0  0  0  2  0  0  0  0  0  0
  -28.1340  -19.8380   19.8890 C   0  0  0  0  0  2  0  0  0  0  0  0
  -29.5570  -18.7560   19.4090 C   0  0  0  0  0  2  0  0  0  0  0  0
  -31.0450  -16.0860   19.3830 C   0  0  0  0  0  0  0  0  0  0  0  0
  -31.6170  -13.5200   19.0750 C   0  0  0  0  0  2  0  0  0  0  0  0
  -30.7990  -12.8080   17.9560 C   0  0  0  0  0  2  0  0  0  0  0  0
  -29.3670  -12.4860   18.4250 C   0  0  0  0  0  2  0  0  0  0  0  0
  -28.7630  -13.6770   19.2050 C   0  0  0  0  0  3  0  0  0  0  0  0
  -29.6930  -14.1680   20.3190 C   0  0  0  0  0  2  0  0  0  0  0  0
  -30.8460  -14.7050   19.6290 N   0  0  0  0  0  0  0  0  0  0  0  0
  -32.2000  -16.3000   18.9470 O   0  0  0  0  0  0  0  0  0  0  0  0
  -29.9350  -17.1010   19.5430 N   0  0  0  0  0  0  0  0  0  0  0  0
  -29.1220  -16.6050   19.8810 H   0  0  0  0  0  0  0  0  0  0  0  0
  -26.4940  -14.3280   20.1310 C   0  0  0  0  0  0  0  0  0  0  0  0
  -25.4250  -13.5820   20.5390 C   0  0  0  0  0  0  0  0  0  0  0  0
  -25.8150  -12.2150   20.3840 C   0  0  0  0  0  0  0  0  0  0  0  0
  -27.4510  -13.4120   19.7400 N   0  0  0  0  0  0  0  0  0  0  0  0
  -27.0670  -12.1320   19.9610 N   0  0  0  0  0  0  0  0  0  0  0  0
  -25.0440  -10.9800   20.5520 C   0  0  0  0  0  0  0  0  0  0  0  0
  -25.3960  -10.0160   21.5220 C   0  0  0  0  0  3  0  0  0  0  0  0
  -24.6260   -8.8440   21.6730 C   0  0  0  0  0  3  0  0  0  0  0  0
  -23.4910   -8.6300   20.8530 C   0  0  0  0  0  0  0  0  0  0  0  0
  -23.1610   -9.5830   19.8750 C   0  0  0  0  0  3  0  0  0  0  0  0
  -23.9320  -10.7470   19.7210 C   0  0  0  0  0  3  0  0  0  0  0  0
  -22.6970   -7.5110   20.9130 O   0  0  0  0  0  0  0  0  0  0  0  0
  -22.3510   -6.9380   22.1090 C   0  0  0  0  0  0  0  0  0  0  0  0
  -21.6780   -7.6620   23.1160 C   0  0  0  0  0  3  0  0  0  0  0  0
  -21.2790   -7.0140   24.3020 C   0  0  0  0  0  3  0  0  0  0  0  0
  -21.5450   -5.6440   24.4790 C   0  0  0  0  0  0  0  0  0  0  0  0
  -22.2110   -4.9190   23.4750 C   0  0  0  0  0  3  0  0  0  0  0  0
  -22.6110   -5.5650   22.2920 C   0  0  0  0  0  0  0  0  0  0  0  0
  -23.2340   -4.8580   21.3190 F   0  0  0  0  0  0  0  0  0  0  0  0
  -21.1550   -5.0180   25.6150 F   0  0  0  0  0  0  0  0  0  0  0  0
  -24.0860  -14.1100   20.9500 C   0  0  0  0  0  0  0  0  0  0  0  0
  -23.4100  -13.4180   21.8600 N   0  0  0  0  0  0  0  0  0  0  0  0
  -23.6520  -15.1690   20.4990 O   0  0  0  0  0  0  0  0  0  0  0  0
  -23.7780  -12.5600   22.2430 H   0  0  0  0  0  0  0  0  0  0  0  0
  -22.5110  -13.7510   22.1790 H   0  0  0  0  0  0  0  0  0  0  0  0
  -26.7260  -15.6980   20.0350 N   0  0  0  0  0  0  0  0  0  0  0  0
  -25.9960  -16.3730   20.2360 H   0  0  0  0  0  0  0  0  0  0  0  0
  -27.5270  -16.1120   19.5780 H   0  0  0  0  0  0  0  0  0  0  0  0
  1  2  1  0
  2  3  2  0
  2 10  1  0
  3  7  1  0
  4  6  2  0
  5  4  1  0
  5  1  2  0
  6  9  1  0
  6  3  1  0
  8  5  1  0
 10 11  1  0
 14 13  1  0
 14 12  1  0
 14 15  1  6
 16 17  1  0
 17 14  1  0
 19 18  1  0
 20 31  2  0
 21 26  1  0
 21 19  1  0
 22 30  1  0
 22 32  1  0
 23 28  1  0
 23 25  1  0
 23 29  1  0
 24 30  1  0
 25 26  1  0
 25 24  1  0
 27 28  1  0
 27 21  1  0
 29 22  1  0
 30 20  1  0
 32 34  1  0
 33 32  1  0
 33 35  1  0
 34 10  1  0
 36 45  2  0
 36 41  1  0
 37 33  1  0
 37 41  1  0
 38 37  1  0
 39 40  1  0
 39 38  1  0
 40 36  1  0
 41 42  2  0
 42 43  1  0
 44 43  2  0
 45 44  1  0
 46 20  1  0
 46 51  1  0
 46 47  1  0
 47 50  1  1
 47 48  1  0
 49 47  1  0
 51 54  1  0
 52 51  1  0
 52 56  1  0
 53 52  2  0
 56 55  1  0
 58 56  1  0
 58 59  1  0
 58 57  1  0
 60  4  1  0
 61 60  1  0
 62 71  1  0
 62 61  1  0
 63 71  1  0
 63 69  1  0
 64 69  1  0
 65 66  1  0
 65 64  1  0
 67 66  1  0
 67 76  1  0
 67 68  1  0
 69 68  1  0
 70 63  2  0
 71 72  1  0
 73 74  2  0
 74 93  1  0
 75 74  1  0
 75 78  1  0
 76 77  1  0
 76 73  1  0
 77 75  2  0
 78 79  1  0
 79 80  2  0
 81 84  1  0
 81 80  1  0
 82 81  2  0
 83 82  1  0
 83 78  2  0
 84 85  1  0
 85 90  2  0
 85 86  1  0
 86 87  2  0
 87 88  1  0
 88 92  1  0
 89 88  2  0
 90 89  1  0
 91 90  1  0
 93 94  1  0
 94 97  1  0
 94 96  1  0
 95 93  2  0
 98 73  1  0
 98 99  1  0
100 98  1  0
M  ISO  4  18 101  19 101  63 100  71 100
M  END
>  <TORSDO>  (75) 
F 25

>  <SCORE>  (75) 
-7.168

>  <name>  (75) 
75

>  <ligand_id>  (75) 
75

>  <original_smiles>  (75) 
[H]c1c([H])c([H])c2c(c1[H])C([H])([H])C([H])([H])C([H])([H])C2([H])N([H])C(=O)C1([H])N(C(=O)C([H])(N([H])C(=O)C([H])(N([H])C([H])([H])[H])C([H])([H])[H])C(C([H])([H])[H])(C([H])([H])[H])C([H])([H])[H])C([H])([H])c2c([H])c(OC([H])([H])C([H])(C([H])([H])[H])[N+]([H])(C([H])([H])[H])C([H])([H])C([H])([H])C([H])([H])c3c([H])c(Cl)c(C([H])([H])C([H])([H])C([H])([H])N([H])C(=O)N4C([H])([H])C([H])([H])C([H])([H])C([H])(n5nc(-c6c([H])c([H])c(Oc7c([H])c([H])c(F)c([H])c7F)c([H])c6[H])c(C(=O)N([H])[H])c5N([H])[H])C4([H])[H])c(Cl)c3C([H])([H])[H])c([H])c([H])c2C1([H])[H]

>  <smiles>  (75) 
[H]c1c([H])c([H])c2c(c1[H])C([H])([H])C([H])([H])C([H])([H])C2([H])N([H])C(=O)C1([H])N(C(=O)C([H])(N([H])C(=O)C([H])(N([H])C([H])([H])[H])C([H])([H])[H])C(C([H])([H])[H])(C([H])([H])[H])C([H])([H])[H])C([H])([H])c2c([H])c(OC([H])([H])C([H])(C([H])([H])[H])[N+]([H])(C([H])([H])[H])C([H])([H])C([H])([H])C([H])([H])c3c([H])c(Cl)c(C([H])([H])C([H])([H])C([H])([H])N([H])C(=O)N4C([H])([H])C([H])([H])C([H])([H])C([H])(n5nc(-c6c([H])c([H])c(Oc7c([H])c([H])c(F)c([H])c7F)c([H])c6[H])c(C(=O)N([H])[H])c5N([H])[H])C4([H])[H])c(Cl)c3C([H])([H])[H])c([H])c([H])c2C1([H])[H]

$$$$
76:0:0
     RDKit          3D

101110  0  0  1  0  0  0  0  0999 V2000
  -35.9380  -26.5990   12.8640 C   0  0  0  0  0  2  0  0  0  0  0  0
  -35.1250  -25.3490   12.4720 C   0  0  0  0  0  2  0  0  0  0  0  0
  -33.5550  -27.1120   11.5780 C   0  0  0  0  0  2  0  0  0  0  0  0
  -36.1420  -27.5820   11.6850 C   0  0  0  0  0  3  0  0  0  0  0  0
  -34.7230  -28.0820   11.2430 C   0  0  0  0  0  3  0  0  0  0  0  0
  -33.9000  -25.6580   11.6740 N   0  0  2  0  0  4  0  0  0  0  0  0
  -34.1720  -25.4040   10.7350 H   0  0  0  0  0  0  0  0  0  0  0  0
  -37.1470  -27.8910    9.3740 C   0  0  0  0  0  3  0  0  0  0  0  0
  -38.9360  -25.7750    9.5330 C   0  0  0  0  0  3  0  0  0  0  0  0
  -37.2050  -27.1900   10.6060 C   0  0  0  0  0  0  0  0  0  0  0  0
  -37.8830  -27.5100    8.2360 C   0  0  0  0  0  0  0  0  0  0  0  0
  -38.8110  -26.4580    8.3120 C   0  0  0  0  0  0  0  0  0  0  0  0
  -38.1050  -26.0680   10.6340 C   0  0  0  0  0  0  0  0  0  0  0  0
  -39.6100  -26.0090    7.1010 C   0  0  0  0  0  1  0  0  0  0  0  0
  -38.1860  -24.8800   11.8830 Cl  0  0  0  0  0  0  0  0  0  0  0  0
  -37.5380  -28.1660    6.9220 C   0  0  0  0  0  2  0  0  0  0  0  0
  -36.2400  -27.5620    4.9380 C   0  0  0  0  0  0  0  0  0  0  0  0
  -34.5940  -26.9320    3.2290 C   0  0  0  0  0  2  0  0  0  0  0  0
  -33.1800  -26.9670    3.8380 C   0  0  0  0  0  2  0  0  0  0  0  0
  -32.8370  -25.6060    4.4650 C   0  0  0  0  0  2  0  0  0  0  0  0
  -33.9390  -25.1050    5.4320 C   0  0  0  0  0  3  0  0  0  0  0  0
  -35.3310  -25.2030    4.7660 C   0  0  0  0  0  2  0  0  0  0  0  0
  -35.5330  -26.5900    4.3050 N   0  0  0  0  0  0  0  0  0  0  0  0
  -36.2730  -28.7370    4.5680 O   0  0  0  0  0  0  0  0  0  0  0  0
  -36.8680  -27.2060    6.0550 N   0  0  0  0  0  0  0  0  0  0  0  0
  -36.8150  -26.2410    6.3550 H   0  0  0  0  0  0  0  0  0  0  0  0
  -32.9760  -23.3260    7.0290 C   0  0  0  0  0  0  0  0  0  0  0  0
  -32.9350  -21.9550    6.9520 C   0  0  0  0  0  0  0  0  0  0  0  0
  -33.5870  -21.6030    5.7340 C   0  0  0  0  0  0  0  0  0  0  0  0
  -33.6530  -23.7440    5.8960 N   0  0  0  0  0  0  0  0  0  0  0  0
  -34.0610  -22.6940    5.1360 N   0  0  0  0  0  0  0  0  0  0  0  0
  -33.7480  -20.2930    5.0790 C   0  0  0  0  0  0  0  0  0  0  0  0
  -35.0010  -19.6500    5.0190 C   0  0  0  0  0  3  0  0  0  0  0  0
  -35.1390  -18.3950    4.3890 C   0  0  0  0  0  3  0  0  0  0  0  0
  -34.0050  -17.7660    3.8150 C   0  0  0  0  0  0  0  0  0  0  0  0
  -32.7610  -18.4160    3.8590 C   0  0  0  0  0  3  0  0  0  0  0  0
  -32.6320  -19.6700    4.4850 C   0  0  0  0  0  3  0  0  0  0  0  0
  -34.0440  -16.5600    3.1590 O   0  0  0  0  0  0  0  0  0  0  0  0
  -34.1900  -15.3780    3.8370 C   0  0  0  0  0  0  0  0  0  0  0  0
  -33.1270  -14.7880    4.5560 C   0  0  0  0  0  3  0  0  0  0  0  0
  -33.3010  -13.5360    5.1750 C   0  0  0  0  0  3  0  0  0  0  0  0
  -34.5390  -12.8710    5.0820 C   0  0  0  0  0  0  0  0  0  0  0  0
  -35.6040  -13.4550    4.3660 C   0  0  0  0  0  3  0  0  0  0  0  0
  -35.4270  -14.7040    3.7450 C   0  0  0  0  0  0  0  0  0  0  0  0
  -36.4430  -15.2550    3.0430 F   0  0  0  0  0  0  0  0  0  0  0  0
  -34.7100  -11.6630    5.6630 F   0  0  0  0  0  0  0  0  0  0  0  0
  -32.2420  -21.0300    7.9040 C   0  0  0  0  0  0  0  0  0  0  0  0
  -32.8310  -19.8680    8.1760 N   0  0  0  0  0  0  0  0  0  0  0  0
  -31.1860  -21.3500    8.4530 O   0  0  0  0  0  0  0  0  0  0  0  0
  -33.7150  -19.6170    7.7490 H   0  0  0  0  0  0  0  0  0  0  0  0
  -32.4110  -19.2350    8.8400 H   0  0  0  0  0  0  0  0  0  0  0  0
  -32.4780  -24.2410    7.9480 N   0  0  0  0  0  0  0  0  0  0  0  0
  -31.9580  -23.9520    8.7730 H   0  0  0  0  0  0  0  0  0  0  0  0
  -32.5390  -25.2490    7.8320 H   0  0  0  0  0  0  0  0  0  0  0  0
  -34.2020  -30.6120   10.8060 C   0  0  0  0  0  1  0  0  0  0  0  0
  -34.4180  -29.5030   11.8400 C   0  0  0  0  0  2  0  0  0  0  0  0
  -31.4450  -25.6600   12.3250 C   0  0  0  0  0  1  0  0  0  0  0  0
  -32.7000  -24.8100   12.0070 C   0  0  0  0  0  3  0  0  0  0  0  0
  -32.9650  -23.7780   13.1490 C   0  0  0  0  0  2  0  0  0  0  0  0
  -32.2920  -22.3880   13.0170 C   0  0  0  0  0  2  0  0  0  0  0  0
  -32.8750  -21.5200   12.0370 O   0  0  0  0  0  0  0  0  0  0  0  0
  -32.7820  -14.9740    9.1810 C   0  0  0  0  0  0  0  0  0  0  0  0
  -32.1930  -20.3510   11.8060 C   0  0  0  0  0  0  0  0  0  0  0  0
  -30.6040  -15.8940    9.8990 C   0  0  0  0  0  3  0  0  0  0  0  0
  -30.7050  -18.0020   11.3280 C   0  0  0  0  0  0  0  0  0  0  0  0
  -32.7720  -16.6280   11.0410 C   0  0  0  0  0  2  0  0  0  0  0  0
  -32.1050  -17.9600   11.3090 C   0  0  0  0  0  0  0  0  0  0  0  0
  -32.8590  -19.1330   11.5400 C   0  0  0  0  0  3  0  0  0  0  0  0
  -30.7870  -20.3590   11.8900 C   0  0  0  0  0  3  0  0  0  0  0  0
  -30.0370  -19.2030   11.6110 C   0  0  0  0  0  3  0  0  0  0  0  0
  -29.9720  -16.7080   11.0550 C   0  0  0  0  0  2  0  0  0  0  0  0
  -32.0970  -15.8200    9.9990 N   0  0  0  0  0  0  0  0  0  0  0  0
  -32.1900  -14.2340    8.3840 O   0  0  0  0  0  0  0  0  0  0  0  0
  -30.1060  -16.4730    8.5560 C   0  0  0  0  0  0  0  0  0  0  0  0
  -29.1660  -15.7650    7.9110 N   0  0  0  0  0  0  0  0  0  0  0  0
  -30.5480  -17.5400    8.1230 O   0  0  0  0  0  0  0  0  0  0  0  0
  -28.8610  -14.8970    8.3280 H   0  0  0  0  0  0  0  0  0  0  0  0
  -27.1400  -14.5050    5.1980 C   0  0  0  0  0  0  0  0  0  0  0  0
  -28.5250  -16.1350    6.6500 C   0  0  0  0  0  3  0  0  0  0  0  0
  -27.1970  -16.8860    6.8960 C   0  0  0  0  0  2  0  0  0  0  0  0
  -25.9760  -15.9600    6.9100 C   0  0  0  0  0  2  0  0  0  0  0  0
  -25.8520  -15.2140    5.5780 C   0  0  0  0  0  2  0  0  0  0  0  0
  -28.3930  -14.9290    5.7130 C   0  0  0  0  0  0  0  0  0  0  0  0
  -29.5560  -14.2150    5.3540 C   0  0  0  0  0  3  0  0  0  0  0  0
  -29.4830  -13.1010    4.4970 C   0  0  0  0  0  3  0  0  0  0  0  0
  -28.2410  -12.6970    3.9750 C   0  0  0  0  0  3  0  0  0  0  0  0
  -27.0730  -13.3990    4.3240 C   0  0  0  0  0  3  0  0  0  0  0  0
  -34.3400  -14.8780    9.2240 C   0  0  0  0  0  3  0  0  0  0  0  0
  -34.7110  -13.5120    8.8290 N   0  0  0  0  0  0  0  0  0  0  0  0
  -34.8600  -12.4880    9.6790 C   0  0  0  0  0  0  0  0  0  0  0  0
  -34.7700  -12.6160   10.9020 O   0  0  0  0  0  0  0  0  0  0  0  0
  -34.7500  -13.3230    7.8380 H   0  0  0  0  0  0  0  0  0  0  0  0
  -34.3600  -10.0290    9.8420 C   0  0  0  0  0  1  0  0  0  0  0  0
  -35.1530  -11.1000    9.0760 C   0  0  0  0  0  3  0  0  0  0  0  0
  -37.2650  -11.0900    7.8240 C   0  0  0  0  0  1  0  0  0  0  0  0
  -36.5910  -10.7530    9.0740 N   0  0  0  0  0  0  0  0  0  0  0  0
  -36.7240   -9.7600    9.2470 H   0  0  0  0  0  0  0  0  0  0  0  0
  -35.0520  -15.9430    8.3030 C   0  0  1  0  0  0  0  0  0  0  0  0
  -34.0930  -16.6840    7.3440 C   0  0  0  0  0  1  0  0  0  0  0  0
  -35.7750  -17.0090    9.1580 C   0  0  0  0  0  1  0  0  0  0  0  0
  -36.1460  -15.2510    7.4540 C   0  0  0  0  0  1  0  0  0  0  0  0
  2  1  1  0
  3  6  1  0
  4 10  1  0
  4  1  1  0
  5  3  1  0
  5  4  1  0
  5 56  1  0
  6 58  1  0
  6  2  1  0
  6  7  1  6
  8 10  1  0
  9 13  1  0
 10 13  2  0
 11 12  1  0
 11  8  2  0
 12  9  2  0
 13 15  1  0
 14 12  1  0
 16 11  1  0
 17 25  1  0
 18 19  1  0
 18 23  1  0
 19 20  1  0
 21 20  1  0
 21 30  1  0
 22 21  1  0
 23 22  1  0
 23 17  1  0
 24 17  2  0
 25 26  1  0
 25 16  1  0
 27 52  1  0
 28 27  2  0
 28 47  1  0
 29 28  1  0
 30 27  1  0
 31 29  2  0
 31 30  1  0
 32 29  1  0
 33 32  1  0
 34 33  2  0
 35 36  2  0
 35 34  1  0
 36 37  1  0
 37 32  2  0
 38 35  1  0
 38 39  1  0
 39 40  1  0
 40 41  2  0
 42 41  1  0
 42 46  1  0
 43 42  2  0
 44 39  2  0
 44 43  1  0
 45 44  1  0
 47 48  1  0
 47 49  2  0
 48 51  1  0
 50 48  1  0
 52 53  1  0
 54 52  1  0
 55 56  1  0
 58 57  1  0
 58 59  1  0
 60 59  1  0
 61 60  1  0
 62 72  1  0
 63 69  1  0
 63 61  1  0
 64 74  1  0
 64 72  1  0
 64 71  1  0
 65 70  1  0
 66 67  1  0
 67 65  2  0
 67 68  1  0
 68 63  2  0
 70 69  2  0
 71 65  1  0
 72 66  1  0
 73 62  2  0
 75 77  1  0
 75 74  1  0
 76 74  2  0
 78 82  1  0
 78 83  1  0
 79 80  1  0
 79 75  1  0
 80 81  1  0
 82 81  1  0
 83 79  1  0
 84 83  2  0
 85 84  1  0
 86 87  1  0
 86 85  2  0
 87 78  2  0
 88 62  1  0
 89 88  1  0
 89 90  1  0
 90 91  2  0
 92 89  1  0
 94 90  1  0
 94 93  1  0
 95 96  1  0
 96 94  1  0
 96 97  1  0
 98100  1  1
 98 88  1  0
 99 98  1  0
101 98  1  0
M  ISO  4  17 100  25 100  60 101  61 101
M  END
>  <TORSDO>  (76) 
F 22

>  <SCORE>  (76) 
-1.671

>  <name>  (76) 
76

>  <ligand_id>  (76) 
76

>  <original_smiles>  (76) 
[H]c1c([H])c([H])c2c(c1[H])C([H])([H])C([H])([H])C([H])([H])C2([H])N([H])C(=O)C1([H])N(C(=O)C([H])(N([H])C(=O)C([H])(N([H])C([H])([H])[H])C([H])([H])[H])C(C([H])([H])[H])(C([H])([H])[H])C([H])([H])[H])C([H])([H])c2c([H])c(OC([H])([H])C([H])([H])C([H])(C([H])([H])[H])[N+]3([H])C([H])([H])C([H])([H])C([H])(c4c([H])c(C([H])([H])N([H])C(=O)N5C([H])([H])C([H])([H])C([H])([H])C([H])(n6nc(-c7c([H])c([H])c(Oc8c([H])c([H])c(F)c([H])c8F)c([H])c7[H])c(C(=O)N([H])[H])c6N([H])[H])C5([H])[H])c(C([H])([H])[H])c([H])c4Cl)C([H])(C([H])([H])C([H])([H])[H])C3([H])[H])c([H])c([H])c2C1([H])[H]

>  <smiles>  (76) 
[H]c1c([H])c([H])c2c(c1[H])C([H])([H])C([H])([H])C([H])([H])C2([H])N([H])C(=O)C1([H])N(C(=O)C([H])(N([H])C(=O)C([H])(N([H])C([H])([H])[H])C([H])([H])[H])C(C([H])([H])[H])(C([H])([H])[H])C([H])([H])[H])C([H])([H])c2c([H])c(OC([H])([H])C([H])([H])C([H])(C([H])([H])[H])[N+]3([H])C([H])([H])C([H])([H])C([H])(c4c([H])c(C([H])([H])N([H])C(=O)N5C([H])([H])C([H])([H])C([H])([H])C([H])(n6nc(-c7c([H])c([H])c(Oc8c([H])c([H])c(F)c([H])c8F)c([H])c7[H])c(C(=O)N([H])[H])c6N([H])[H])C5([H])[H])c(C([H])([H])[H])c([H])c4Cl)C([H])(C([H])([H])C([H])([H])[H])C3([H])[H])c([H])c([H])c2C1([H])[H]

$$$$
77:0:0
     RDKit          3D

 96104  0  0  1  0  0  0  0  0999 V2000
  -30.2920  -21.8090   19.3000 N   0  0  0  0  0  4  0  0  0  0  0  0
  -30.3150  -21.9580   20.2970 H   0  0  0  0  0  0  0  0  0  0  0  0
  -29.3760  -21.4570   19.0760 H   0  0  0  0  0  0  0  0  0  0  0  0
  -30.2610  -22.9900   17.0920 C   0  0  0  0  0  1  0  0  0  0  0  0
  -30.5160  -23.1070   18.6130 C   0  0  0  0  0  3  0  0  0  0  0  0
  -29.6370  -24.2250   19.2170 C   0  0  0  0  0  2  0  0  0  0  0  0
  -30.1680  -25.6390   18.8990 C   0  0  0  0  0  2  0  0  0  0  0  0
  -29.0830  -26.7200   18.8710 C   0  0  0  0  0  2  0  0  0  0  0  0
  -28.4820  -26.8260   20.1510 O   0  0  0  0  0  0  0  0  0  0  0  0
  -24.6190  -31.9050   23.2580 C   0  0  0  0  0  0  0  0  0  0  0  0
  -27.3060  -27.5290   20.1590 C   0  0  0  0  0  0  0  0  0  0  0  0
  -23.4230  -30.5020   21.6050 C   0  0  0  0  0  3  0  0  0  0  0  0
  -24.8910  -28.9810   20.1790 C   0  0  0  0  0  0  0  0  0  0  0  0
  -25.9420  -30.8890   21.4110 C   0  0  0  0  0  2  0  0  0  0  0  0
  -26.0400  -29.5200   20.7730 C   0  0  0  0  0  0  0  0  0  0  0  0
  -27.2490  -28.7960   20.7710 C   0  0  0  0  0  3  0  0  0  0  0  0
  -26.1440  -26.9820   19.5780 C   0  0  0  0  0  3  0  0  0  0  0  0
  -24.9340  -27.7060   19.5840 C   0  0  0  0  0  3  0  0  0  0  0  0
  -23.6410  -29.8290   20.2230 C   0  0  0  0  0  2  0  0  0  0  0  0
  -24.6790  -31.1130   22.1510 N   0  0  0  0  0  0  0  0  0  0  0  0
  -23.5370  -32.1660   23.8000 O   0  0  0  0  0  0  0  0  0  0  0  0
  -22.7790  -29.4730   22.5600 C   0  0  0  0  0  0  0  0  0  0  0  0
  -21.4550  -29.2870   22.4350 N   0  0  0  0  0  0  0  0  0  0  0  0
  -23.4670  -28.8430   23.3690 O   0  0  0  0  0  0  0  0  0  0  0  0
  -20.9630  -29.8480   21.7540 H   0  0  0  0  0  0  0  0  0  0  0  0
  -18.0830  -28.0920   22.9350 C   0  0  0  0  0  0  0  0  0  0  0  0
  -20.6420  -28.3450   23.2020 C   0  0  0  0  0  3  0  0  0  0  0  0
  -20.7410  -26.9180   22.6140 C   0  0  0  0  0  2  0  0  0  0  0  0
  -19.6360  -26.6060   21.6000 C   0  0  0  0  0  2  0  0  0  0  0  0
  -18.2560  -26.7490   22.2490 C   0  0  0  0  0  2  0  0  0  0  0  0
  -19.2040  -28.8490   23.3690 C   0  0  0  0  0  0  0  0  0  0  0  0
  -18.9900  -30.1080   23.9700 C   0  0  0  0  0  3  0  0  0  0  0  0
  -17.6860  -30.6100   24.1440 C   0  0  0  0  0  3  0  0  0  0  0  0
  -16.5790  -29.8510   23.7280 C   0  0  0  0  0  3  0  0  0  0  0  0
  -16.7790  -28.5940   23.1290 C   0  0  0  0  0  3  0  0  0  0  0  0
  -25.9030  -32.5390   23.8820 C   0  0  0  0  0  3  0  0  0  0  0  0
  -25.5940  -33.9380   24.2000 N   0  0  0  0  0  0  0  0  0  0  0  0
  -25.9340  -34.9850   23.4350 C   0  0  0  0  0  0  0  0  0  0  0  0
  -26.6120  -34.8740   22.4090 O   0  0  0  0  0  0  0  0  0  0  0  0
  -24.9960  -34.1000   24.9970 H   0  0  0  0  0  0  0  0  0  0  0  0
  -24.2150  -36.7780   23.0440 C   0  0  0  0  0  1  0  0  0  0  0  0
  -25.4420  -36.3760   23.8780 C   0  0  0  0  0  3  0  0  0  0  0  0
  -27.5670  -37.2590   24.7340 C   0  0  0  0  0  1  0  0  0  0  0  0
  -26.4790  -37.4270   23.7750 N   0  0  0  0  0  0  0  0  0  0  0  0
  -26.0720  -38.3480   23.9150 H   0  0  0  0  0  0  0  0  0  0  0  0
  -26.4170  -31.7740   25.1620 C   0  0  1  0  0  0  0  0  0  0  0  0
  -25.3200  -31.5430   26.2270 C   0  0  0  0  0  1  0  0  0  0  0  0
  -27.0020  -30.3950   24.7760 C   0  0  0  0  0  1  0  0  0  0  0  0
  -27.5640  -32.5710   25.8250 C   0  0  0  0  0  1  0  0  0  0  0  0
  -31.2920  -20.7630   18.9970 C   0  0  0  0  0  2  0  0  0  0  0  0
  -31.1260  -17.7370   21.4060 C   0  0  0  0  0  3  0  0  0  0  0  0
  -30.0400  -18.5800   18.9570 C   0  0  0  0  0  3  0  0  0  0  0  0
  -31.4790  -19.0020   20.8820 C   0  0  0  0  0  0  0  0  0  0  0  0
  -30.9320  -19.4290   19.6440 C   0  0  0  0  0  0  0  0  0  0  0  0
  -30.2560  -16.8790   20.6950 C   0  0  0  0  0  0  0  0  0  0  0  0
  -29.7060  -17.3130   19.4660 C   0  0  0  0  0  0  0  0  0  0  0  0
  -32.4840  -19.8590   21.6390 C   0  0  0  0  0  1  0  0  0  0  0  0
  -28.6490  -16.3200   18.5310 Cl  0  0  0  0  0  0  0  0  0  0  0  0
  -30.7000  -14.5180   20.8280 C   0  0  0  0  0  0  0  0  0  0  0  0
  -30.4460  -12.3190   19.7660 C   0  0  0  0  0  2  0  0  0  0  0  0
  -29.5840  -12.4990   18.5000 C   0  0  0  0  0  2  0  0  0  0  0  0
  -28.0850  -12.3750   18.8420 C   0  0  0  0  0  2  0  0  0  0  0  0
  -27.6720  -13.2380   20.0660 C   0  0  0  0  0  3  0  0  0  0  0  0
  -28.6660  -13.0760   21.2390 C   0  0  0  0  0  2  0  0  0  0  0  0
  -30.0230  -13.3430   20.7340 N   0  0  0  0  0  0  0  0  0  0  0  0
  -31.8650  -14.6590   20.4510 O   0  0  0  0  0  0  0  0  0  0  0  0
  -29.9690  -15.5800   21.1950 N   0  0  0  0  0  0  0  0  0  0  0  0
  -29.0100  -15.3850   21.4320 H   0  0  0  0  0  0  0  0  0  0  0  0
  -25.2410  -13.8560   20.6420 C   0  0  0  0  0  0  0  0  0  0  0  0
  -24.1550  -13.0890   20.9670 C   0  0  0  0  0  0  0  0  0  0  0  0
  -24.6170  -11.7370   20.9700 C   0  0  0  0  0  0  0  0  0  0  0  0
  -26.2950  -12.9720   20.4740 N   0  0  0  0  0  0  0  0  0  0  0  0
  -25.9180  -11.6930   20.7260 N   0  0  0  0  0  0  0  0  0  0  0  0
  -23.8830  -10.4770   21.1310 C   0  0  0  0  0  0  0  0  0  0  0  0
  -24.2750   -9.5090   22.0830 C   0  0  0  0  0  3  0  0  0  0  0  0
  -23.5430   -8.3120   22.2320 C   0  0  0  0  0  3  0  0  0  0  0  0
  -22.4010   -8.0740   21.4290 C   0  0  0  0  0  0  0  0  0  0  0  0
  -22.0260   -9.0300   20.4690 C   0  0  0  0  0  3  0  0  0  0  0  0
  -22.7600  -10.2190   20.3170 C   0  0  0  0  0  3  0  0  0  0  0  0
  -21.6410   -6.9300   21.4870 O   0  0  0  0  0  0  0  0  0  0  0  0
  -21.5510   -6.1840   22.6350 C   0  0  0  0  0  0  0  0  0  0  0  0
  -21.0760   -6.7300   23.8460 C   0  0  0  0  0  3  0  0  0  0  0  0
  -20.9340   -5.9090   24.9820 C   0  0  0  0  0  3  0  0  0  0  0  0
  -21.2580   -4.5400   24.9060 C   0  0  0  0  0  0  0  0  0  0  0  0
  -21.7280   -3.9940   23.7000 C   0  0  0  0  0  3  0  0  0  0  0  0
  -21.8710   -4.8130   22.5670 C   0  0  0  0  0  0  0  0  0  0  0  0
  -22.3020   -4.2760   21.4000 F   0  0  0  0  0  0  0  0  0  0  0  0
  -21.1170   -3.7490   25.9950 F   0  0  0  0  0  0  0  0  0  0  0  0
  -22.7450  -13.5680   21.1640 C   0  0  0  0  0  0  0  0  0  0  0  0
  -21.9720  -12.8770   21.9960 N   0  0  0  0  0  0  0  0  0  0  0  0
  -22.3350  -14.5930   20.6190 O   0  0  0  0  0  0  0  0  0  0  0  0
  -22.3120  -12.0490   22.4590 H   0  0  0  0  0  0  0  0  0  0  0  0
  -21.0230  -13.1800   22.1680 H   0  0  0  0  0  0  0  0  0  0  0  0
  -25.4150  -15.2240   20.4550 N   0  0  0  0  0  0  0  0  0  0  0  0
  -24.6320  -15.8680   20.4910 H   0  0  0  0  0  0  0  0  0  0  0  0
  -26.2590  -15.6520   20.0950 H   0  0  0  0  0  0  0  0  0  0  0  0
  1  2  1  0
  3  1  1  0
  5  4  1  0
  5  6  1  0
  5  1  1  0
  7  6  1  0
  8  7  1  0
  8  9  1  0
  9 11  1  0
 10 21  2  0
 11 16  1  0
 12 20  1  0
 12 22  1  0
 13 19  1  0
 13 15  1  0
 14 20  1  0
 15 14  1  0
 16 15  2  0
 17 18  1  0
 17 11  2  0
 18 13  2  0
 19 12  1  0
 20 10  1  0
 22 24  2  0
 23 22  1  0
 25 23  1  0
 26 35  2  0
 26 31  1  0
 27 23  1  0
 27 31  1  0
 28 27  1  0
 29 30  1  0
 29 28  1  0
 30 26  1  0
 31 32  2  0
 32 33  1  0
 34 33  2  0
 35 34  1  0
 36 10  1  0
 36 37  1  0
 36 46  1  0
 37 40  1  0
 38 42  1  0
 38 37  1  0
 39 38  2  0
 42 41  1  0
 44 42  1  0
 44 45  1  0
 44 43  1  0
 46 49  1  1
 46 47  1  0
 48 46  1  0
 50  1  1  0
 50 54  1  0
 52 56  2  0
 52 54  1  0
 53 51  1  0
 53 57  1  0
 54 53  2  0
 55 67  1  0
 55 51  2  0
 56 55  1  0
 58 56  1  0
 59 67  1  0
 60 65  1  0
 61 62  1  0
 61 60  1  0
 63 62  1  0
 63 72  1  0
 63 64  1  0
 65 59  1  0
 65 64  1  0
 66 59  2  0
 67 68  1  0
 69 70  2  0
 70 71  1  0
 70 89  1  0
 71 74  1  0
 72 69  1  0
 72 73  1  0
 73 71  2  0
 74 75  1  0
 75 76  2  0
 77 80  1  0
 77 76  1  0
 78 77  2  0
 79 78  1  0
 79 74  2  0
 80 81  1  0
 81 82  1  0
 82 83  2  0
 84 83  1  0
 84 88  1  0
 85 84  2  0
 86 81  2  0
 86 85  1  0
 87 86  1  0
 89 90  1  0
 90 93  1  0
 90 92  1  0
 91 89  2  0
 94 95  1  0
 94 69  1  0
 96 94  1  0
M  ISO  4   8 101   9 101  59 100  67 100
M  END
>  <TORSDO>  (77) 
F 22

>  <SCORE>  (77) 
-13.008

>  <name>  (77) 
77

>  <ligand_id>  (77) 
77

>  <original_smiles>  (77) 
[H]c1c([H])c([H])c2c(c1[H])C([H])([H])C([H])([H])C([H])([H])C2([H])N([H])C(=O)C1([H])N(C(=O)C([H])(N([H])C(=O)C([H])(N([H])C([H])([H])[H])C([H])([H])[H])C(C([H])([H])[H])(C([H])([H])[H])C([H])([H])[H])C([H])([H])c2c([H])c(OC([H])([H])C([H])([H])C([H])([H])C([H])(C([H])([H])[H])[N+]([H])([H])C([H])([H])c3c([H])c(Cl)c(N([H])C(=O)N4C([H])([H])C([H])([H])C([H])([H])C([H])(n5nc(-c6c([H])c([H])c(Oc7c([H])c([H])c(F)c([H])c7F)c([H])c6[H])c(C(=O)N([H])[H])c5N([H])[H])C4([H])[H])c([H])c3C([H])([H])[H])c([H])c([H])c2C1([H])[H]

>  <smiles>  (77) 
[H]c1c([H])c([H])c2c(c1[H])C([H])([H])C([H])([H])C([H])([H])C2([H])N([H])C(=O)C1([H])N(C(=O)C([H])(N([H])C(=O)C([H])(N([H])C([H])([H])[H])C([H])([H])[H])C(C([H])([H])[H])(C([H])([H])[H])C([H])([H])[H])C([H])([H])c2c([H])c(OC([H])([H])C([H])([H])C([H])([H])C([H])(C([H])([H])[H])[N+]([H])([H])C([H])([H])c3c([H])c(Cl)c(N([H])C(=O)N4C([H])([H])C([H])([H])C([H])([H])C([H])(n5nc(-c6c([H])c([H])c(Oc7c([H])c([H])c(F)c([H])c7F)c([H])c6[H])c(C(=O)N([H])[H])c5N([H])[H])C4([H])[H])c([H])c3C([H])([H])[H])c([H])c([H])c2C1([H])[H]

$$$$
78:0:0
     RDKit          3D

 98107  0  0  1  0  0  0  0  0999 V2000
  -31.4550  -24.8680   18.1650 N   0  0  0  0  0  0  0  0  0  0  0  0
  -29.6750  -25.9340   19.6800 C   0  0  0  0  0  3  0  0  0  0  0  0
  -29.0320  -26.1360   20.9750 C   0  0  0  0  0  0  0  0  0  0  0  0
  -30.5230  -23.7170   20.2530 C   0  0  0  0  0  0  0  0  0  0  0  0
  -29.8950  -23.8880   21.5280 C   0  0  0  0  0  0  0  0  0  0  0  0
  -30.5020  -24.7770   19.2890 C   0  0  0  0  0  0  0  0  0  0  0  0
  -29.1810  -25.0640   21.8730 C   0  0  0  0  0  0  0  0  0  0  0  0
  -31.2700  -22.4100   19.9980 C   0  0  0  0  0  2  0  0  0  0  0  0
  -29.9880  -22.8150   22.6120 C   0  0  0  0  0  1  0  0  0  0  0  0
  -28.5870  -25.1380   23.0870 F   0  0  0  0  0  0  0  0  0  0  0  0
  -28.0640  -27.3640   21.3790 C   0  0  0  0  0  2  0  0  0  0  0  0
  -26.4220  -29.3720   20.7500 C   0  0  0  0  0  0  0  0  0  0  0  0
  -23.9940  -29.9930   20.8500 C   0  0  0  0  0  2  0  0  0  0  0  0
  -23.2000  -28.8000   21.4300 C   0  0  0  0  0  2  0  0  0  0  0  0
  -22.7970  -27.8280   20.3060 C   0  0  0  0  0  2  0  0  0  0  0  0
  -23.9820  -27.4830   19.3660 C   0  0  0  0  0  3  0  0  0  0  0  0
  -24.7520  -28.7490   18.9230 C   0  0  0  0  0  2  0  0  0  0  0  0
  -25.1840  -29.4520   20.1390 N   0  0  0  0  0  0  0  0  0  0  0  0
  -26.6730  -30.1310   21.6900 O   0  0  0  0  0  0  0  0  0  0  0  0
  -27.2630  -28.3000   20.4440 N   0  0  0  0  0  0  0  0  0  0  0  0
  -27.0220  -27.8570   19.5700 H   0  0  0  0  0  0  0  0  0  0  0  0
  -23.7000  -25.3130   18.0310 C   0  0  0  0  0  0  0  0  0  0  0  0
  -23.0650  -25.0360   16.8510 C   0  0  0  0  0  0  0  0  0  0  0  0
  -22.5530  -26.2810   16.3760 C   0  0  0  0  0  0  0  0  0  0  0  0
  -23.5560  -26.6760   18.2270 N   0  0  0  0  0  0  0  0  0  0  0  0
  -22.9120  -27.2680   17.1880 N   0  0  0  0  0  0  0  0  0  0  0  0
  -21.6920  -26.5820   15.2240 C   0  0  0  0  0  0  0  0  0  0  0  0
  -22.2260  -27.0820   14.0150 C   0  0  0  0  0  3  0  0  0  0  0  0
  -21.3810  -27.3460   12.9150 C   0  0  0  0  0  3  0  0  0  0  0  0
  -19.9910  -27.1050   13.0140 C   0  0  0  0  0  0  0  0  0  0  0  0
  -19.4620  -26.6280   14.2260 C   0  0  0  0  0  3  0  0  0  0  0  0
  -20.3030  -26.3710   15.3220 C   0  0  0  0  0  3  0  0  0  0  0  0
  -19.0910  -27.3550   12.0060 O   0  0  0  0  0  0  0  0  0  0  0  0
  -19.1930  -26.7460   10.7820 C   0  0  0  0  0  0  0  0  0  0  0  0
  -18.9250  -25.3710   10.6100 C   0  0  0  0  0  3  0  0  0  0  0  0
  -18.9750  -24.8000    9.3220 C   0  0  0  0  0  3  0  0  0  0  0  0
  -19.2820  -25.6010    8.2070 C   0  0  0  0  0  0  0  0  0  0  0  0
  -19.5430  -26.9720    8.3760 C   0  0  0  0  0  3  0  0  0  0  0  0
  -19.4960  -27.5430    9.6590 C   0  0  0  0  0  0  0  0  0  0  0  0
  -19.7280  -28.8700    9.8150 F   0  0  0  0  0  0  0  0  0  0  0  0
  -19.3220  -25.0550    6.9700 F   0  0  0  0  0  0  0  0  0  0  0  0
  -22.8600  -23.6760   16.2500 C   0  0  0  0  0  0  0  0  0  0  0  0
  -23.0610  -23.5500   14.9410 N   0  0  0  0  0  0  0  0  0  0  0  0
  -22.5620  -22.7060   16.9440 O   0  0  0  0  0  0  0  0  0  0  0  0
  -23.3260  -24.3420   14.3750 H   0  0  0  0  0  0  0  0  0  0  0  0
  -22.9510  -22.6470   14.5020 H   0  0  0  0  0  0  0  0  0  0  0  0
  -24.3630  -24.5230   18.9640 N   0  0  0  0  0  0  0  0  0  0  0  0
  -24.4190  -23.5140   18.8740 H   0  0  0  0  0  0  0  0  0  0  0  0
  -24.7290  -24.8600   19.8450 H   0  0  0  0  0  0  0  0  0  0  0  0
  -32.4980  -24.5270   15.8200 C   0  0  0  0  0  1  0  0  0  0  0  0
  -31.3290  -25.1540   16.6210 C   0  0  0  0  0  3  0  0  0  0  0  0
  -31.2650  -26.6310   15.9200 C   0  0  0  0  0  2  0  0  0  0  0  0
  -30.2210  -26.9910   14.8630 O   0  0  0  0  0  0  0  0  0  0  0  0
  -26.2330  -26.2750    8.8440 C   0  0  0  0  0  0  0  0  0  0  0  0
  -30.1450  -26.4850   13.5380 C   0  0  0  0  0  0  0  0  0  0  0  0
  -28.1070  -24.6910    9.1240 C   0  0  0  0  0  3  0  0  0  0  0  0
  -29.8350  -25.2920   10.9300 C   0  0  0  0  0  0  0  0  0  0  0  0
  -28.2440  -27.0440   10.1380 C   0  0  0  0  0  2  0  0  0  0  0  0
  -29.1530  -26.4770   11.2320 C   0  0  0  0  0  0  0  0  0  0  0  0
  -29.3210  -27.0800   12.5200 C   0  0  0  0  0  3  0  0  0  0  0  0
  -30.8550  -25.3280   13.1550 C   0  0  0  0  0  3  0  0  0  0  0  0
  -30.6990  -24.7300   11.8860 C   0  0  0  0  0  3  0  0  0  0  0  0
  -29.5970  -24.6660    9.5660 C   0  0  0  0  0  2  0  0  0  0  0  0
  -27.4670  -26.0230    9.3760 N   0  0  0  0  0  0  0  0  0  0  0  0
  -25.6490  -25.4350    8.1440 O   0  0  0  0  0  0  0  0  0  0  0  0
  -27.3580  -23.5190    9.8000 C   0  0  0  0  0  0  0  0  0  0  0  0
  -27.4270  -22.3220    9.1940 N   0  0  0  0  0  0  0  0  0  0  0  0
  -26.7510  -23.6910   10.8600 O   0  0  0  0  0  0  0  0  0  0  0  0
  -27.9290  -22.2640    8.3190 H   0  0  0  0  0  0  0  0  0  0  0  0
  -26.2200  -19.0580    8.1900 C   0  0  0  0  0  0  0  0  0  0  0  0
  -26.8350  -21.0760    9.6860 C   0  0  0  0  0  3  0  0  0  0  0  0
  -27.9080  -20.1530   10.3070 C   0  0  0  0  0  2  0  0  0  0  0  0
  -28.4870  -19.1420    9.3110 C   0  0  0  0  0  2  0  0  0  0  0  0
  -27.3770  -18.2480    8.7500 C   0  0  0  0  0  2  0  0  0  0  0  0
  -25.9740  -20.3890    8.6200 C   0  0  0  0  0  0  0  0  0  0  0  0
  -24.9030  -21.1060    8.0450 C   0  0  0  0  0  3  0  0  0  0  0  0
  -24.0900  -20.5170    7.0600 C   0  0  0  0  0  3  0  0  0  0  0  0
  -24.3300  -19.1950    6.6480 C   0  0  0  0  0  3  0  0  0  0  0  0
  -25.3890  -18.4670    7.2160 C   0  0  0  0  0  3  0  0  0  0  0  0
  -25.5090  -27.6370    9.0690 C   0  0  0  0  0  3  0  0  0  0  0  0
  -25.0950  -28.1470    7.7530 N   0  0  0  0  0  0  0  0  0  0  0  0
  -25.9090  -28.7630    6.8840 C   0  0  0  0  0  0  0  0  0  0  0  0
  -27.0870  -29.0240    7.1420 O   0  0  0  0  0  0  0  0  0  0  0  0
  -24.1600  -27.9170    7.4540 H   0  0  0  0  0  0  0  0  0  0  0  0
  -25.3910  -27.9480    4.5600 C   0  0  0  0  0  1  0  0  0  0  0  0
  -25.3270  -29.1550    5.5100 C   0  0  0  0  0  3  0  0  0  0  0  0
  -25.5080  -31.5990    5.3630 C   0  0  0  0  0  1  0  0  0  0  0  0
  -26.0110  -30.3120    4.8900 N   0  0  0  0  0  0  0  0  0  0  0  0
  -25.9180  -30.2870    3.8780 H   0  0  0  0  0  0  0  0  0  0  0  0
  -24.2660  -27.5200   10.0330 C   0  0  1  0  0  0  0  0  0  0  0  0
  -23.0490  -26.8040    9.3980 C   0  0  0  0  0  1  0  0  0  0  0  0
  -24.6430  -26.7530   11.3210 C   0  0  0  0  0  1  0  0  0  0  0  0
  -23.8200  -28.9330   10.4780 C   0  0  0  0  0  1  0  0  0  0  0  0
  -31.6300  -22.3310   18.2630 C   0  0  0  0  0  2  0  0  0  0  0  0
  -32.3340  -23.6940   18.4760 C   0  0  0  0  0  3  0  0  0  0  0  0
  -33.1930  -23.8640   19.7650 C   0  0  0  0  0  2  0  0  0  0  0  0
  -33.8410  -26.2260   20.4150 C   0  0  0  0  0  1  0  0  0  0  0  0
  -34.2760  -24.9530   19.6750 C   0  0  0  0  0  2  0  0  0  0  0  0
  1 95  1  0
  1  6  1  0
  2  3  1  0
  3 11  1  0
  3  7  2  0
  4  5  2  0
  5  7  1  0
  5  9  1  0
  6  2  2  0
  6  4  1  0
  7 10  1  0
  8  4  1  0
 12 19  2  0
 13 14  1  0
 15 14  1  0
 16 25  1  0
 16 15  1  0
 17 16  1  0
 17 18  1  0
 18 12  1  0
 18 13  1  0
 20 12  1  0
 20 11  1  0
 21 20  1  0
 22 25  1  0
 22 47  1  0
 23 22  2  0
 24 23  1  0
 24 26  2  0
 26 25  1  0
 27 32  1  0
 27 24  1  0
 28 27  2  0
 29 30  2  0
 29 28  1  0
 30 31  1  0
 31 32  2  0
 33 30  1  0
 34 33  1  0
 35 34  1  0
 36 35  2  0
 37 38  2  0
 37 36  1  0
 38 39  1  0
 39 40  1  0
 39 34  2  0
 41 37  1  0
 42 23  1  0
 42 44  2  0
 43 42  1  0
 45 43  1  0
 46 43  1  0
 47 49  1  0
 48 47  1  0
 51 50  1  0
 51  1  1  0
 52 51  1  0
 53 52  1  0
 54 64  1  0
 55 53  1  0
 56 64  1  0
 56 63  1  0
 56 66  1  0
 57 59  2  0
 57 62  1  0
 58 59  1  0
 59 60  1  0
 60 55  2  0
 61 55  1  0
 62 61  2  0
 63 57  1  0
 64 58  1  0
 65 54  2  0
 66 68  2  0
 67 66  1  0
 69 67  1  0
 70 75  1  0
 70 74  1  0
 71 67  1  0
 71 72  1  0
 73 72  1  0
 74 73  1  0
 75 71  1  0
 76 75  2  0
 77 76  1  0
 78 77  2  0
 78 79  1  0
 79 70  2  0
 80 54  1  0
 80 90  1  0
 81 80  1  0
 82 83  2  0
 82 81  1  0
 84 81  1  0
 86 85  1  0
 86 82  1  0
 88 87  1  0
 88 86  1  0
 89 88  1  0
 90 93  1  1
 90 92  1  0
 91 90  1  0
 94 95  1  0
 94  8  1  0
 95 96  1  0
 98 96  1  0
 98 97  1  0
M  ISO  4  12 100  20 100  52 101  53 101
M  END
>  <TORSDO>  (78) 
F 23

>  <SCORE>  (78) 
-5.999

>  <name>  (78) 
78

>  <ligand_id>  (78) 
78

>  <original_smiles>  (78) 
[H]c1c([H])c([H])c2c(c1[H])C([H])([H])C([H])([H])C([H])([H])C2([H])N([H])C(=O)C1([H])N(C(=O)C([H])(N([H])C(=O)C([H])(N([H])C([H])([H])[H])C([H])([H])[H])C(C([H])([H])[H])(C([H])([H])[H])C([H])([H])[H])C([H])([H])c2c([H])c(OC([H])([H])C([H])(N(c3c([H])c(C([H])([H])N([H])C(=O)N4C([H])([H])C([H])([H])C([H])([H])C([H])(n5nc(-c6c([H])c([H])c(Oc7c([H])c([H])c(F)c([H])c7F)c([H])c6[H])c(C(=O)N([H])[H])c5N([H])[H])C4([H])[H])c(F)c(C([H])([H])[H])c3C([H])([H])[H])C([H])(C([H])([H])[H])C([H])([H])C([H])([H])C([H])([H])[H])C([H])([H])[H])c([H])c([H])c2C1([H])[H]

>  <smiles>  (78) 
[H]c1c([H])c([H])c2c(c1[H])C([H])([H])C([H])([H])C([H])([H])C2([H])N([H])C(=O)C1([H])N(C(=O)C([H])(N([H])C(=O)C([H])(N([H])C([H])([H])[H])C([H])([H])[H])C(C([H])([H])[H])(C([H])([H])[H])C([H])([H])[H])C([H])([H])c2c([H])c(OC([H])([H])C([H])(N(c3c([H])c(C([H])([H])N([H])C(=O)N4C([H])([H])C([H])([H])C([H])([H])C([H])(n5nc(-c6c([H])c([H])c(Oc7c([H])c([H])c(F)c([H])c7F)c([H])c6[H])c(C(=O)N([H])[H])c5N([H])[H])C4([H])[H])c(F)c(C([H])([H])[H])c3C([H])([H])[H])C([H])(C([H])([H])[H])C([H])([H])C([H])([H])C([H])([H])[H])C([H])([H])[H])c([H])c([H])c2C1([H])[H]

$$$$
79:0:0
     RDKit          3D

101109  0  0  1  0  0  0  0  0999 V2000
  -26.7770  -22.6860   21.2350 C   0  0  0  0  0  0  0  0  0  0  0  0
  -26.4700  -22.2340   19.9200 C   0  0  0  0  0  0  0  0  0  0  0  0
  -28.5800  -20.9560   19.8870 C   0  0  0  0  0  0  0  0  0  0  0  0
  -27.9510  -22.2300   21.8700 C   0  0  0  0  0  0  0  0  0  0  0  0
  -27.3850  -21.3810   19.2460 C   0  0  0  0  0  0  0  0  0  0  0  0
  -28.8420  -21.3660   21.2130 C   0  0  0  0  0  0  0  0  0  0  0  0
  -25.1970  -22.7070   19.2170 C   0  0  0  0  0  1  0  0  0  0  0  0
  -28.2450  -22.6810   23.1150 F   0  0  0  0  0  0  0  0  0  0  0  0
  -27.0890  -20.9210   17.5990 Cl  0  0  0  0  0  0  0  0  0  0  0  0
  -30.2780  -20.8410   22.0310 Cl  0  0  0  0  0  0  0  0  0  0  0  0
  -29.5640  -20.1990   19.2250 N   0  0  0  0  0  0  0  0  0  0  0  0
  -30.4520  -20.2640   19.7130 H   0  0  0  0  0  0  0  0  0  0  0  0
  -29.2220  -18.8210   18.9010 C   0  0  0  0  0  2  0  0  0  0  0  0
  -30.4890  -17.9630   18.8980 C   0  0  0  0  0  2  0  0  0  0  0  0
  -30.8780  -17.4310   20.2980 C   0  0  0  0  0  2  0  0  0  0  0  0
  -31.1170  -15.0020   19.9100 C   0  0  0  0  0  0  0  0  0  0  0  0
  -30.8420  -12.6980   19.0990 C   0  0  0  0  0  2  0  0  0  0  0  0
  -29.8710  -12.6780   17.9040 C   0  0  0  0  0  2  0  0  0  0  0  0
  -28.4120  -12.5710   18.3900 C   0  0  0  0  0  2  0  0  0  0  0  0
  -28.0720  -13.6020   19.5000 C   0  0  0  0  0  3  0  0  0  0  0  0
  -29.1500  -13.5860   20.6060 C   0  0  0  0  0  2  0  0  0  0  0  0
  -30.4620  -13.8190   19.9720 N   0  0  0  0  0  0  0  0  0  0  0  0
  -32.1750  -15.1660   19.2950 O   0  0  0  0  0  0  0  0  0  0  0  0
  -30.4810  -16.0360   20.4690 N   0  0  0  0  0  0  0  0  0  0  0  0
  -29.6220  -15.8400   20.9640 H   0  0  0  0  0  0  0  0  0  0  0  0
  -25.7560  -14.2860   20.4010 C   0  0  0  0  0  0  0  0  0  0  0  0
  -24.6720  -13.5440   20.7870 C   0  0  0  0  0  0  0  0  0  0  0  0
  -25.0530  -12.1770   20.6340 C   0  0  0  0  0  0  0  0  0  0  0  0
  -26.7350  -13.3700   20.0440 N   0  0  0  0  0  0  0  0  0  0  0  0
  -26.3150  -12.0930   20.2370 N   0  0  0  0  0  0  0  0  0  0  0  0
  -24.2730  -10.9410   20.7870 C   0  0  0  0  0  0  0  0  0  0  0  0
  -24.6960   -9.9010   21.6430 C   0  0  0  0  0  3  0  0  0  0  0  0
  -23.9190   -8.7320   21.7860 C   0  0  0  0  0  3  0  0  0  0  0  0
  -22.7040   -8.5940   21.0730 C   0  0  0  0  0  0  0  0  0  0  0  0
  -22.2980   -9.6250   20.2070 C   0  0  0  0  0  3  0  0  0  0  0  0
  -23.0740  -10.7850   20.0610 C   0  0  0  0  0  3  0  0  0  0  0  0
  -21.8980   -7.4830   21.1310 O   0  0  0  0  0  0  0  0  0  0  0  0
  -21.7790   -6.7390   22.2770 C   0  0  0  0  0  0  0  0  0  0  0  0
  -21.3410   -7.3100   23.4930 C   0  0  0  0  0  3  0  0  0  0  0  0
  -21.1640   -6.4950   24.6280 C   0  0  0  0  0  3  0  0  0  0  0  0
  -21.4160   -5.1130   24.5500 C   0  0  0  0  0  0  0  0  0  0  0  0
  -21.8460   -4.5420   23.3410 C   0  0  0  0  0  3  0  0  0  0  0  0
  -22.0230   -5.3540   22.2060 C   0  0  0  0  0  0  0  0  0  0  0  0
  -22.4180   -4.7960   21.0360 F   0  0  0  0  0  0  0  0  0  0  0  0
  -21.2390   -4.3290   25.6390 F   0  0  0  0  0  0  0  0  0  0  0  0
  -23.3230  -14.0720   21.1890 C   0  0  0  0  0  0  0  0  0  0  0  0
  -22.6250  -13.3610   22.0660 N   0  0  0  0  0  0  0  0  0  0  0  0
  -22.9010  -15.1460   20.7590 O   0  0  0  0  0  0  0  0  0  0  0  0
  -22.9810  -12.4910   22.4340 H   0  0  0  0  0  0  0  0  0  0  0  0
  -21.7220  -13.6920   22.3760 H   0  0  0  0  0  0  0  0  0  0  0  0
  -25.9890  -15.6520   20.3040 N   0  0  0  0  0  0  0  0  0  0  0  0
  -25.2770  -16.3430   20.5170 H   0  0  0  0  0  0  0  0  0  0  0  0
  -26.8450  -16.0630   19.9530 H   0  0  0  0  0  0  0  0  0  0  0  0
  -25.9060  -23.6860   22.0060 C   0  0  0  0  0  2  0  0  0  0  0  0
  -26.6970  -24.7860   22.6130 N   0  0  0  0  0  4  0  0  0  0  0  0
  -27.4310  -24.3800   23.1710 H   0  0  0  0  0  0  0  0  0  0  0  0
  -26.0640  -25.2410   23.2560 H   0  0  0  0  0  0  0  0  0  0  0  0
  -27.2130  -25.8480   21.7070 C   0  0  0  0  0  3  0  0  0  0  0  0
  -28.4260  -25.4460   20.8260 C   0  0  0  0  0  3  0  0  0  0  0  0
  -29.0930  -26.6050   20.0430 C   0  0  0  0  0  2  0  0  0  0  0  0
  -28.3570  -26.9900   18.8760 O   0  0  0  0  0  0  0  0  0  0  0  0
  -24.8770  -31.5340   23.1170 C   0  0  0  0  0  0  0  0  0  0  0  0
  -27.2290  -27.7320   19.1120 C   0  0  0  0  0  0  0  0  0  0  0  0
  -23.5190  -30.3970   21.3860 C   0  0  0  0  0  3  0  0  0  0  0  0
  -24.8340  -29.1330   19.6050 C   0  0  0  0  0  0  0  0  0  0  0  0
  -26.0080  -30.8300   21.0170 C   0  0  0  0  0  2  0  0  0  0  0  0
  -26.0380  -29.5800   20.1670 C   0  0  0  0  0  0  0  0  0  0  0  0
  -27.2390  -28.8790   19.9360 C   0  0  0  0  0  3  0  0  0  0  0  0
  -26.0250  -27.3190   18.5110 C   0  0  0  0  0  3  0  0  0  0  0  0
  -24.8180  -27.9930   18.7780 C   0  0  0  0  0  3  0  0  0  0  0  0
  -23.5980  -29.9490   19.9050 C   0  0  0  0  0  2  0  0  0  0  0  0
  -24.8230  -30.9270   21.8980 N   0  0  0  0  0  0  0  0  0  0  0  0
  -23.8550  -31.6930   23.7970 O   0  0  0  0  0  0  0  0  0  0  0  0
  -22.9620  -29.2270   22.2260 C   0  0  0  0  0  0  0  0  0  0  0  0
  -21.6400  -29.0030   22.1390 N   0  0  0  0  0  0  0  0  0  0  0  0
  -23.7150  -28.5300   22.9120 O   0  0  0  0  0  0  0  0  0  0  0  0
  -21.0990  -29.6180   21.5490 H   0  0  0  0  0  0  0  0  0  0  0  0
  -18.3730  -27.5150   22.5330 C   0  0  0  0  0  0  0  0  0  0  0  0
  -20.9090  -27.9330   22.8160 C   0  0  0  0  0  3  0  0  0  0  0  0
  -21.1110  -26.5850   22.0920 C   0  0  0  0  0  2  0  0  0  0  0  0
  -20.0230  -26.2850   21.0550 C   0  0  0  0  0  2  0  0  0  0  0  0
  -18.6410  -26.2600   21.7160 C   0  0  0  0  0  2  0  0  0  0  0  0
  -19.4410  -28.3070   23.0330 C   0  0  0  0  0  0  0  0  0  0  0  0
  -19.1390  -29.4770   23.7630 C   0  0  0  0  0  3  0  0  0  0  0  0
  -17.8070  -29.8630   23.9950 C   0  0  0  0  0  3  0  0  0  0  0  0
  -16.7540  -29.0680   23.5100 C   0  0  0  0  0  3  0  0  0  0  0  0
  -17.0380  -27.8980   22.7860 C   0  0  0  0  0  3  0  0  0  0  0  0
  -26.2170  -32.0740   23.7070 C   0  0  0  0  0  3  0  0  0  0  0  0
  -26.8240  -31.1490   24.8360 C   0  0  1  0  0  0  0  0  0  0  0  0
  -25.8240  -30.7950   25.9610 C   0  0  0  0  0  1  0  0  0  0  0  0
  -27.3370  -29.8170   24.2370 C   0  0  0  0  0  1  0  0  0  0  0  0
  -28.0440  -31.8450   25.4850 C   0  0  0  0  0  1  0  0  0  0  0  0
  -25.9560  -33.4240   24.2230 N   0  0  0  0  0  0  0  0  0  0  0  0
  -26.2690  -34.5580   23.5780 C   0  0  0  0  0  0  0  0  0  0  0  0
  -26.8840  -34.5740   22.5070 O   0  0  0  0  0  0  0  0  0  0  0  0
  -25.4040  -33.4870   25.0650 H   0  0  0  0  0  0  0  0  0  0  0  0
  -24.5710  -36.4170   23.5260 C   0  0  0  0  0  1  0  0  0  0  0  0
  -25.8340  -35.8880   24.2240 C   0  0  0  0  0  3  0  0  0  0  0  0
  -28.0270  -36.6190   25.0550 C   0  0  0  0  0  1  0  0  0  0  0  0
  -26.8850  -36.9270   24.1980 N   0  0  0  0  0  0  0  0  0  0  0  0
  -26.5070  -37.8270   24.4820 H   0  0  0  0  0  0  0  0  0  0  0  0
  1  4  1  0
  1 54  1  0
  2  1  2  0
  3  6  1  0
  4  8  1  0
  5  3  2  0
  5  2  1  0
  6  4  2  0
  6 10  1  0
  7  2  1  0
  9  5  1  0
 11 12  1  0
 11  3  1  0
 13 11  1  0
 14 13  1  0
 14 15  1  0
 15 24  1  0
 16 22  1  0
 16 24  1  0
 17 22  1  0
 18 19  1  0
 18 17  1  0
 20 19  1  0
 20 29  1  0
 20 21  1  0
 22 21  1  0
 23 16  2  0
 24 25  1  0
 26 27  2  0
 27 46  1  0
 28 31  1  0
 28 27  1  0
 29 30  1  0
 29 26  1  0
 30 28  2  0
 31 32  1  0
 32 33  2  0
 34 37  1  0
 34 33  1  0
 35 34  2  0
 36 35  1  0
 36 31  2  0
 37 38  1  0
 38 39  1  0
 39 40  2  0
 41 40  1  0
 41 45  1  0
 42 41  2  0
 43 38  2  0
 43 42  1  0
 44 43  1  0
 46 47  1  0
 47 50  1  0
 47 49  1  0
 48 46  2  0
 51 26  1  0
 51 52  1  0
 53 51  1  0
 54 55  1  0
 55 56  1  0
 55 57  1  0
 58 55  1  0
 59 58  2  0
 60 59  1  0
 61 63  1  0
 61 60  1  0
 62 73  2  0
 63 68  1  0
 64 72  1  0
 64 74  1  0
 65 71  1  0
 65 67  1  0
 66 72  1  0
 67 66  1  0
 68 67  2  0
 69 70  1  0
 69 63  2  0
 70 65  2  0
 71 64  1  0
 72 62  1  0
 74 76  2  0
 75 74  1  0
 77 75  1  0
 78 87  2  0
 78 83  1  0
 79 75  1  0
 79 83  1  0
 80 79  1  0
 81 82  1  0
 81 80  1  0
 82 78  1  0
 83 84  2  0
 84 85  1  0
 86 85  2  0
 87 86  1  0
 88 62  1  0
 88 93  1  0
 88 89  1  0
 89 92  1  1
 89 90  1  0
 91 89  1  0
 93 96  1  0
 94 93  1  0
 94 98  1  0
 95 94  2  0
 98 97  1  0
100 98  1  0
100101  1  0
100 99  1  0
M  ISO  4  16 100  24 100  60 101  61 101
M  END
>  <TORSDO>  (79) 
F 25

>  <SCORE>  (79) 
-10.132

>  <name>  (79) 
79

>  <ligand_id>  (79) 
79

>  <original_smiles>  (79) 
[H]c1c([H])c([H])c2c(c1[H])C([H])([H])C([H])([H])C([H])([H])C2([H])N([H])C(=O)C1([H])N(C(=O)C([H])(N([H])C(=O)C([H])(N([H])C([H])([H])[H])C([H])([H])[H])C(C([H])([H])[H])(C([H])([H])[H])C([H])([H])[H])C([H])([H])c2c([H])c(OC([H])([H])C([H])([H])C([H])([H])[N+]([H])([H])C([H])([H])c3c(F)c(Cl)c(N([H])C([H])([H])C([H])([H])C([H])([H])N([H])C(=O)N4C([H])([H])C([H])([H])C([H])([H])C([H])(n5nc(-c6c([H])c([H])c(Oc7c([H])c([H])c(F)c([H])c7F)c([H])c6[H])c(C(=O)N([H])[H])c5N([H])[H])C4([H])[H])c(Cl)c3C([H])([H])[H])c([H])c([H])c2C1([H])[H]

>  <smiles>  (79) 
[H]c1c([H])c([H])c2c(c1[H])C([H])([H])C([H])([H])C([H])([H])C2([H])N([H])C(=O)C1([H])N(C(=O)C([H])(N([H])C(=O)C([H])(N([H])C([H])([H])[H])C([H])([H])[H])C(C([H])([H])[H])(C([H])([H])[H])C([H])([H])[H])C([H])([H])c2c([H])c(OC([H])([H])C([H])([H])C([H])([H])[N+]([H])([H])C([H])([H])c3c(F)c(Cl)c(N([H])C([H])([H])C([H])([H])C([H])([H])N([H])C(=O)N4C([H])([H])C([H])([H])C([H])([H])C([H])(n5nc(-c6c([H])c([H])c(Oc7c([H])c([H])c(F)c([H])c7F)c([H])c6[H])c(C(=O)N([H])[H])c5N([H])[H])C4([H])[H])c(Cl)c3C([H])([H])[H])c([H])c([H])c2C1([H])[H]

$$$$
80:0:0
     RDKit          3D

 99107  0  0  1  0  0  0  0  0999 V2000
  -32.6160  -22.0660   21.1230 C   0  0  0  0  0  3  0  0  0  0  0  0
  -31.9680  -23.1150   20.4430 C   0  0  0  0  0  0  0  0  0  0  0  0
  -31.0420  -22.8300   19.3950 C   0  0  0  0  0  0  0  0  0  0  0  0
  -31.5350  -20.4200   19.6920 C   0  0  0  0  0  0  0  0  0  0  0  0
  -32.4050  -20.7320   20.7580 C   0  0  0  0  0  0  0  0  0  0  0  0
  -30.8400  -21.4640   19.0260 C   0  0  0  0  0  0  0  0  0  0  0  0
  -32.3290  -24.5300   20.8690 C   0  0  0  0  0  1  0  0  0  0  0  0
  -33.2390  -19.4900   21.6290 Cl  0  0  0  0  0  0  0  0  0  0  0  0
  -29.7670  -21.0300   17.7330 Cl  0  0  0  0  0  0  0  0  0  0  0  0
  -30.8230  -24.0930   17.1840 C   0  0  0  0  0  1  0  0  0  0  0  0
  -30.3470  -23.9880   18.6440 C   0  0  0  0  0  3  0  0  0  0  0  0
  -28.8010  -24.0340   18.7700 C   0  0  0  0  0  2  0  0  0  0  0  0
  -28.2450  -24.2950   20.1860 C   0  0  0  0  0  2  0  0  0  0  0  0
  -28.5660  -25.6890   20.7540 C   0  0  0  0  0  2  0  0  0  0  0  0
  -28.3320  -26.7040   19.7910 O   0  0  0  0  0  0  0  0  0  0  0  0
  -24.5860  -31.7000   23.1920 C   0  0  0  0  0  0  0  0  0  0  0  0
  -27.1500  -27.3800   19.9190 C   0  0  0  0  0  0  0  0  0  0  0  0
  -23.3370  -30.3600   21.5250 C   0  0  0  0  0  3  0  0  0  0  0  0
  -24.7550  -28.8540   20.0350 C   0  0  0  0  0  0  0  0  0  0  0  0
  -25.8560  -30.7190   21.2920 C   0  0  0  0  0  2  0  0  0  0  0  0
  -25.9220  -29.3670   20.6170 C   0  0  0  0  0  0  0  0  0  0  0  0
  -27.1230  -28.6330   20.5630 C   0  0  0  0  0  3  0  0  0  0  0  0
  -25.9740  -26.8650   19.3410 C   0  0  0  0  0  3  0  0  0  0  0  0
  -24.7710  -27.5970   19.4010 C   0  0  0  0  0  3  0  0  0  0  0  0
  -23.5170  -29.7170   20.1230 C   0  0  0  0  0  2  0  0  0  0  0  0
  -24.6120  -30.9390   22.0620 N   0  0  0  0  0  0  0  0  0  0  0  0
  -23.5180  -31.9630   23.7600 O   0  0  0  0  0  0  0  0  0  0  0  0
  -22.6980  -29.3150   22.4650 C   0  0  0  0  0  0  0  0  0  0  0  0
  -21.3700  -29.1440   22.3510 N   0  0  0  0  0  0  0  0  0  0  0  0
  -23.3900  -28.6600   23.2490 O   0  0  0  0  0  0  0  0  0  0  0  0
  -20.8730  -29.7250   21.6910 H   0  0  0  0  0  0  0  0  0  0  0  0
  -17.9970  -27.9600   22.8550 C   0  0  0  0  0  0  0  0  0  0  0  0
  -20.5600  -28.1880   23.1030 C   0  0  0  0  0  3  0  0  0  0  0  0
  -20.6440  -26.7750   22.4800 C   0  0  0  0  0  2  0  0  0  0  0  0
  -19.5270  -26.4930   21.4710 C   0  0  0  0  0  2  0  0  0  0  0  0
  -18.1550  -26.6290   22.1370 C   0  0  0  0  0  2  0  0  0  0  0  0
  -19.1270  -28.6990   23.2940 C   0  0  0  0  0  0  0  0  0  0  0  0
  -18.9280  -29.9460   23.9240 C   0  0  0  0  0  3  0  0  0  0  0  0
  -17.6290  -30.4540   24.1210 C   0  0  0  0  0  3  0  0  0  0  0  0
  -16.5130  -29.7110   23.6980 C   0  0  0  0  0  3  0  0  0  0  0  0
  -16.6980  -28.4660   23.0720 C   0  0  0  0  0  3  0  0  0  0  0  0
  -25.8900  -32.2980   23.8080 C   0  0  0  0  0  3  0  0  0  0  0  0
  -25.6150  -33.7000   24.1480 N   0  0  0  0  0  0  0  0  0  0  0  0
  -25.9740  -34.7490   23.3940 C   0  0  0  0  0  0  0  0  0  0  0  0
  -26.6430  -34.6350   22.3640 O   0  0  0  0  0  0  0  0  0  0  0  0
  -25.0230  -33.8650   24.9490 H   0  0  0  0  0  0  0  0  0  0  0  0
  -24.2910  -36.5830   23.0440 C   0  0  0  0  0  1  0  0  0  0  0  0
  -25.5180  -36.1450   23.8590 C   0  0  0  0  0  3  0  0  0  0  0  0
  -27.6690  -36.9710   24.7040 C   0  0  0  0  0  1  0  0  0  0  0  0
  -26.5770  -37.1730   23.7570 N   0  0  0  0  0  0  0  0  0  0  0  0
  -26.1920  -38.1020   23.9080 H   0  0  0  0  0  0  0  0  0  0  0  0
  -26.4010  -31.5050   25.0730 C   0  0  1  0  0  0  0  0  0  0  0  0
  -25.3110  -31.2790   26.1470 C   0  0  0  0  0  1  0  0  0  0  0  0
  -26.9540  -30.1200   24.6620 C   0  0  0  0  0  1  0  0  0  0  0  0
  -27.5720  -32.2700   25.7340 C   0  0  0  0  0  1  0  0  0  0  0  0
  -31.4110  -18.9680   19.2370 C   0  0  0  0  0  2  0  0  0  0  0  0
  -30.4440  -18.1870   20.0390 N   0  0  0  0  0  4  0  0  0  0  0  0
  -29.5510  -18.6540   20.0510 H   0  0  0  0  0  0  0  0  0  0  0  0
  -30.7910  -18.1400   20.9860 H   0  0  0  0  0  0  0  0  0  0  0  0
  -30.2590  -16.8000   19.5530 C   0  0  0  0  0  2  0  0  0  0  0  0
  -28.9170  -15.7800   21.4310 C   0  0  0  0  0  1  0  0  0  0  0  0
  -31.3580  -16.0490   21.7520 C   0  0  0  0  0  1  0  0  0  0  0  0
  -30.2700  -15.7210   20.6880 C   0  0  2  0  0  0  0  0  0  0  0  0
  -30.7120  -14.3730   20.0070 C   0  0  0  0  0  0  0  0  0  0  0  0
  -30.3400  -12.1870   18.9240 C   0  0  0  0  0  2  0  0  0  0  0  0
  -29.3440  -12.3440   17.7550 C   0  0  0  0  0  2  0  0  0  0  0  0
  -27.8890  -12.2060   18.2480 C   0  0  0  0  0  2  0  0  0  0  0  0
  -27.6070  -13.0660   19.5090 C   0  0  0  0  0  3  0  0  0  0  0  0
  -28.7180  -12.8460   20.5600 C   0  0  0  0  0  2  0  0  0  0  0  0
  -30.0040  -13.2020   19.9450 N   0  0  0  0  0  0  0  0  0  0  0  0
  -31.7800  -14.4630   19.3950 O   0  0  0  0  0  0  0  0  0  0  0  0
  -25.2370  -13.6710   20.3090 C   0  0  0  0  0  0  0  0  0  0  0  0
  -24.1980  -12.8990   20.7560 C   0  0  0  0  0  0  0  0  0  0  0  0
  -24.6730  -11.5510   20.7390 C   0  0  0  0  0  0  0  0  0  0  0  0
  -26.2810  -12.7940   20.0560 N   0  0  0  0  0  0  0  0  0  0  0  0
  -25.9470  -11.5150   20.3680 N   0  0  0  0  0  0  0  0  0  0  0  0
  -23.9720  -10.2880   20.9990 C   0  0  0  0  0  0  0  0  0  0  0  0
  -24.4240   -9.3820   21.9820 C   0  0  0  0  0  3  0  0  0  0  0  0
  -23.7250   -8.1810   22.2270 C   0  0  0  0  0  3  0  0  0  0  0  0
  -22.5570   -7.8780   21.4890 C   0  0  0  0  0  0  0  0  0  0  0  0
  -22.1230   -8.7720   20.4930 C   0  0  0  0  0  3  0  0  0  0  0  0
  -22.8240   -9.9640   20.2470 C   0  0  0  0  0  3  0  0  0  0  0  0
  -21.8270   -6.7240   21.6410 O   0  0  0  0  0  0  0  0  0  0  0  0
  -21.7560   -6.0700   22.8450 C   0  0  0  0  0  0  0  0  0  0  0  0
  -21.2770   -6.7050   24.0120 C   0  0  0  0  0  3  0  0  0  0  0  0
  -21.1580   -5.9750   25.2110 C   0  0  0  0  0  3  0  0  0  0  0  0
  -21.5050   -4.6110   25.2430 C   0  0  0  0  0  0  0  0  0  0  0  0
  -21.9760   -3.9760   24.0800 C   0  0  0  0  0  3  0  0  0  0  0  0
  -22.0990   -4.7030   22.8850 C   0  0  0  0  0  0  0  0  0  0  0  0
  -22.5330   -4.0810   21.7620 F   0  0  0  0  0  0  0  0  0  0  0  0
  -21.3810   -3.9070   26.3920 F   0  0  0  0  0  0  0  0  0  0  0  0
  -22.8110  -13.3710   21.0840 C   0  0  0  0  0  0  0  0  0  0  0  0
  -22.1340  -12.6920   22.0040 N   0  0  0  0  0  0  0  0  0  0  0  0
  -22.3370  -14.3770   20.5600 O   0  0  0  0  0  0  0  0  0  0  0  0
  -22.5320  -11.8800   22.4520 H   0  0  0  0  0  0  0  0  0  0  0  0
  -21.2050  -12.9920   22.2640 H   0  0  0  0  0  0  0  0  0  0  0  0
  -25.3750  -15.0350   20.0770 N   0  0  0  0  0  0  0  0  0  0  0  0
  -24.6000  -15.6790   20.1960 H   0  0  0  0  0  0  0  0  0  0  0  0
  -26.1860  -15.4670   19.6540 H   0  0  0  0  0  0  0  0  0  0  0  0
  2  7  1  0
  2  1  2  0
  3  2  1  0
  4  5  2  0
  5  1  1  0
  5  8  1  0
  6  3  2  0
  6  4  1  0
  9  6  1  0
 11 10  1  0
 11 12  1  0
 11  3  1  0
 12 13  1  0
 13 14  1  0
 15 17  1  0
 15 14  1  0
 16 27  2  0
 17 22  1  0
 18 26  1  0
 18 28  1  0
 19 25  1  0
 19 21  1  0
 20 26  1  0
 21 20  1  0
 22 21  2  0
 23 24  1  0
 23 17  2  0
 24 19  2  0
 25 18  1  0
 26 16  1  0
 28 30  2  0
 29 28  1  0
 31 29  1  0
 32 41  2  0
 32 37  1  0
 33 29  1  0
 33 37  1  0
 34 33  1  0
 35 36  1  0
 35 34  1  0
 36 32  1  0
 37 38  2  0
 38 39  1  0
 40 39  2  0
 41 40  1  0
 42 16  1  0
 42 43  1  0
 42 52  1  0
 43 46  1  0
 44 48  1  0
 44 43  1  0
 45 44  2  0
 48 47  1  0
 50 48  1  0
 50 51  1  0
 50 49  1  0
 52 55  1  1
 52 53  1  0
 54 52  1  0
 56  4  1  0
 56 57  1  0
 57 58  1  0
 57 59  1  0
 60 57  1  0
 60 63  1  0
 63 61  1  1
 63 62  1  0
 64 63  1  0
 65 70  1  0
 66 67  1  0
 66 65  1  0
 68 67  1  0
 68 75  1  0
 68 69  1  0
 70 64  1  0
 70 69  1  0
 71 64  2  0
 72 73  2  0
 73 92  1  0
 74 73  1  0
 74 77  1  0
 75 72  1  0
 75 76  1  0
 76 74  2  0
 77 78  1  0
 78 79  2  0
 80 83  1  0
 80 79  1  0
 81 80  2  0
 82 81  1  0
 82 77  2  0
 83 84  1  0
 84 89  2  0
 84 85  1  0
 85 86  2  0
 86 87  1  0
 87 91  1  0
 88 87  2  0
 89 88  1  0
 90 89  1  0
 92 93  1  0
 93 96  1  0
 93 95  1  0
 94 92  2  0
 97 98  1  0
 97 72  1  0
 99 97  1  0
M  ISO  4  14 101  15 101  63 100  64 100
M  END
>  <TORSDO>  (80) 
F 24

>  <SCORE>  (80) 
-10.949

>  <name>  (80) 
80

>  <ligand_id>  (80) 
80

>  <original_smiles>  (80) 
[H]c1c([H])c([H])c2c(c1[H])C([H])([H])C([H])([H])C([H])([H])C2([H])N([H])C(=O)C1([H])N(C(=O)C([H])(N([H])C(=O)C([H])(N([H])C([H])([H])[H])C([H])([H])[H])C(C([H])([H])[H])(C([H])([H])[H])C([H])([H])[H])C([H])([H])c2c([H])c(OC([H])([H])C([H])([H])C([H])([H])C([H])(c3c(Cl)c(C([H])([H])[N+]([H])([H])C([H])([H])C(C(=O)N4C([H])([H])C([H])([H])C([H])([H])C([H])(n5nc(-c6c([H])c([H])c(Oc7c([H])c([H])c(F)c([H])c7F)c([H])c6[H])c(C(=O)N([H])[H])c5N([H])[H])C4([H])[H])(C([H])([H])[H])C([H])([H])[H])c(Cl)c([H])c3C([H])([H])[H])C([H])([H])[H])c([H])c([H])c2C1([H])[H]

>  <smiles>  (80) 
[H]c1c([H])c([H])c2c(c1[H])C([H])([H])C([H])([H])C([H])([H])C2([H])N([H])C(=O)C1([H])N(C(=O)C([H])(N([H])C(=O)C([H])(N([H])C([H])([H])[H])C([H])([H])[H])C(C([H])([H])[H])(C([H])([H])[H])C([H])([H])[H])C([H])([H])c2c([H])c(OC([H])([H])C([H])([H])C([H])([H])C([H])(c3c(Cl)c(C([H])([H])[N+]([H])([H])C([H])([H])C(C(=O)N4C([H])([H])C([H])([H])C([H])([H])C([H])(n5nc(-c6c([H])c([H])c(Oc7c([H])c([H])c(F)c([H])c7F)c([H])c6[H])c(C(=O)N([H])[H])c5N([H])[H])C4([H])[H])(C([H])([H])[H])C([H])([H])[H])c(Cl)c([H])c3C([H])([H])[H])C([H])([H])[H])c([H])c([H])c2C1([H])[H]

$$$$
81:0:0
     RDKit          3D

101109  0  0  1  0  0  0  0  0999 V2000
  -28.8530  -21.5470   19.3320 C   0  0  0  0  0  3  0  0  0  0  0  0
  -26.6910  -20.4430   18.3890 C   0  0  0  0  0  1  0  0  0  0  0  0
  -27.3810  -21.7550   18.8150 C   0  0  2  0  0  0  0  0  0  0  0  0
  -27.3280  -22.8490   17.4010 Cl  0  0  0  0  0  0  0  0  0  0  0  0
  -26.3300  -22.3980   20.1150 Cl  0  0  0  0  0  0  0  0  0  0  0  0
  -29.4970  -22.7240   20.0370 N   0  0  0  0  0  4  0  0  0  0  0  0
  -29.0450  -22.7420   20.9380 H   0  0  0  0  0  0  0  0  0  0  0  0
  -30.4530  -22.4640   20.2180 H   0  0  0  0  0  0  0  0  0  0  0  0
  -30.9110  -24.6570   19.2780 C   0  0  0  0  0  1  0  0  0  0  0  0
  -29.4750  -24.1540   19.5260 C   0  0  0  0  0  3  0  0  0  0  0  0
  -28.7520  -25.1300   20.5230 C   0  0  0  0  0  2  0  0  0  0  0  0
  -28.8530  -26.5410   20.1870 O   0  0  0  0  0  0  0  0  0  0  0  0
  -24.7240  -31.5670   23.1730 C   0  0  0  0  0  0  0  0  0  0  0  0
  -27.6710  -27.2600   20.1510 C   0  0  0  0  0  0  0  0  0  0  0  0
  -23.6540  -30.1620   21.4440 C   0  0  0  0  0  3  0  0  0  0  0  0
  -25.2300  -28.7040   20.0640 C   0  0  0  0  0  0  0  0  0  0  0  0
  -26.1740  -30.6100   21.3810 C   0  0  0  0  0  2  0  0  0  0  0  0
  -26.3420  -29.2530   20.7170 C   0  0  0  0  0  0  0  0  0  0  0  0
  -27.5680  -28.5430   20.7510 C   0  0  0  0  0  3  0  0  0  0  0  0
  -26.5420  -26.7340   19.4870 C   0  0  0  0  0  3  0  0  0  0  0  0
  -25.3270  -27.4440   19.4450 C   0  0  0  0  0  3  0  0  0  0  0  0
  -23.9550  -29.5190   20.0640 C   0  0  0  0  0  2  0  0  0  0  0  0
  -24.8660  -30.7940   22.0570 N   0  0  0  0  0  0  0  0  0  0  0  0
  -23.6080  -31.7860   23.6620 O   0  0  0  0  0  0  0  0  0  0  0  0
  -22.9920  -29.0980   22.3500 C   0  0  0  0  0  0  0  0  0  0  0  0
  -21.6700  -28.9160   22.1970 N   0  0  0  0  0  0  0  0  0  0  0  0
  -23.6670  -28.4410   23.1470 O   0  0  0  0  0  0  0  0  0  0  0  0
  -21.1840  -29.5010   21.5320 H   0  0  0  0  0  0  0  0  0  0  0  0
  -18.2830  -27.7400   22.6510 C   0  0  0  0  0  0  0  0  0  0  0  0
  -20.8460  -27.9420   22.9140 C   0  0  0  0  0  3  0  0  0  0  0  0
  -20.9230  -26.5490   22.2450 C   0  0  0  0  0  2  0  0  0  0  0  0
  -19.8090  -26.3080   21.2230 C   0  0  0  0  0  2  0  0  0  0  0  0
  -18.4340  -26.4330   21.8870 C   0  0  0  0  0  2  0  0  0  0  0  0
  -19.4170  -28.4550   23.1180 C   0  0  0  0  0  0  0  0  0  0  0  0
  -19.2240  -29.6820   23.7900 C   0  0  0  0  0  3  0  0  0  0  0  0
  -17.9290  -30.1920   24.0000 C   0  0  0  0  0  3  0  0  0  0  0  0
  -16.8090  -29.4720   23.5480 C   0  0  0  0  0  3  0  0  0  0  0  0
  -16.9870  -28.2470   22.8790 C   0  0  0  0  0  3  0  0  0  0  0  0
  -25.9530  -32.2320   23.8680 C   0  0  0  0  0  3  0  0  0  0  0  0
  -25.5830  -33.6160   24.1910 N   0  0  0  0  0  0  0  0  0  0  0  0
  -25.9080  -34.6840   23.4490 C   0  0  0  0  0  0  0  0  0  0  0  0
  -26.6180  -34.6110   22.4420 O   0  0  0  0  0  0  0  0  0  0  0  0
  -24.9560  -33.7470   24.9710 H   0  0  0  0  0  0  0  0  0  0  0  0
  -24.1240  -36.4100   23.0480 C   0  0  0  0  0  1  0  0  0  0  0  0
  -25.3560  -36.0500   23.8950 C   0  0  0  0  0  3  0  0  0  0  0  0
  -27.4240  -37.0170   24.7990 C   0  0  0  0  0  1  0  0  0  0  0  0
  -26.3500  -37.1430   23.8160 N   0  0  0  0  0  0  0  0  0  0  0  0
  -25.9020  -38.0450   23.9500 H   0  0  0  0  0  0  0  0  0  0  0  0
  -26.4240  -31.4650   25.1640 C   0  0  1  0  0  0  0  0  0  0  0  0
  -25.2810  -31.1750   26.1650 C   0  0  0  0  0  1  0  0  0  0  0  0
  -27.0790  -30.1160   24.7880 C   0  0  0  0  0  1  0  0  0  0  0  0
  -27.5040  -32.2910   25.8990 C   0  0  0  0  0  1  0  0  0  0  0  0
  -29.8110  -20.7320   18.3390 C   0  0  0  0  0  3  0  0  0  0  0  0
  -30.7470  -20.7830   15.9550 C   0  0  0  0  0  1  0  0  0  0  0  0
  -31.9750  -22.0710   17.7190 C   0  0  0  0  0  1  0  0  0  0  0  0
  -30.5870  -21.5620   17.2740 C   0  0  0  0  0  3  0  0  0  0  0  0
  -31.6430  -20.1540   19.9730 C   0  0  0  0  0  1  0  0  0  0  0  0
  -30.7350  -19.7100   18.9120 N   0  0  0  0  0  0  0  0  0  0  0  0
  -31.5840  -14.8220   19.4110 C   0  0  0  0  0  0  0  0  0  0  0  0
  -31.1830  -12.5330   18.5160 C   0  0  0  0  0  2  0  0  0  0  0  0
  -30.1440  -12.5750   17.3760 C   0  0  0  0  0  2  0  0  0  0  0  0
  -28.7050  -12.5080   17.9290 C   0  0  0  0  0  2  0  0  0  0  0  0
  -28.4730  -13.4890   19.1080 C   0  0  0  0  0  3  0  0  0  0  0  0
  -29.6110  -13.3440   20.1350 C   0  0  0  0  0  2  0  0  0  0  0  0
  -30.8800  -13.6420   19.4500 N   0  0  0  0  0  0  0  0  0  0  0  0
  -32.6240  -14.8900   18.7430 O   0  0  0  0  0  0  0  0  0  0  0  0
  -28.9700  -17.9380   21.2120 C   0  0  0  0  0  2  0  0  0  0  0  0
  -29.3030  -16.5160   21.6860 C   0  0  0  0  0  2  0  0  0  0  0  0
  -28.9370  -18.1170   19.6810 C   0  0  0  0  0  2  0  0  0  0  0  0
  -30.7460  -16.0550   21.3900 C   0  0  0  0  0  2  0  0  0  0  0  0
  -31.4420  -17.3200   19.4350 C   0  0  0  0  0  2  0  0  0  0  0  0
  -30.2970  -18.2850   18.9680 C   0  0  0  0  0  3  0  0  0  0  0  0
  -31.0330  -15.9670   19.9420 N   0  0  0  0  0  0  0  0  0  0  0  0
  -26.2220  -14.2430   20.1030 C   0  0  0  0  0  0  0  0  0  0  0  0
  -25.1420  -13.5410   20.5660 C   0  0  0  0  0  0  0  0  0  0  0  0
  -25.4840  -12.1610   20.4290 C   0  0  0  0  0  0  0  0  0  0  0  0
  -27.1610  -13.2960   19.7230 N   0  0  0  0  0  0  0  0  0  0  0  0
  -26.7240  -12.0350   19.9710 N   0  0  0  0  0  0  0  0  0  0  0  0
  -24.6790  -10.9530   20.6490 C   0  0  0  0  0  0  0  0  0  0  0  0
  -25.0180  -10.0120   21.6470 C   0  0  0  0  0  3  0  0  0  0  0  0
  -24.2190   -8.8670   21.8520 C   0  0  0  0  0  3  0  0  0  0  0  0
  -23.0640   -8.6560   21.0610 C   0  0  0  0  0  0  0  0  0  0  0  0
  -22.7430   -9.5850   20.0550 C   0  0  0  0  0  3  0  0  0  0  0  0
  -23.5440  -10.7200   19.8480 C   0  0  0  0  0  3  0  0  0  0  0  0
  -22.2430   -7.5600   21.1720 O   0  0  0  0  0  0  0  0  0  0  0  0
  -21.9770   -6.9800   22.3860 C   0  0  0  0  0  0  0  0  0  0  0  0
  -21.4060   -7.7100   23.4520 C   0  0  0  0  0  3  0  0  0  0  0  0
  -21.0860   -7.0570   24.6590 C   0  0  0  0  0  3  0  0  0  0  0  0
  -21.3280   -5.6770   24.8010 C   0  0  0  0  0  0  0  0  0  0  0  0
  -21.8920   -4.9490   23.7390 C   0  0  0  0  0  3  0  0  0  0  0  0
  -22.2140   -5.5990   22.5340 C   0  0  0  0  0  0  0  0  0  0  0  0
  -22.7380   -4.8880   21.5070 F   0  0  0  0  0  0  0  0  0  0  0  0
  -21.0140   -5.0490   25.9580 F   0  0  0  0  0  0  0  0  0  0  0  0
  -23.8300  -14.1140   21.0190 C   0  0  0  0  0  0  0  0  0  0  0  0
  -23.1850  -13.4760   21.9890 N   0  0  0  0  0  0  0  0  0  0  0  0
  -23.3930  -15.1620   20.5460 O   0  0  0  0  0  0  0  0  0  0  0  0
  -23.5530  -12.6280   22.3920 H   0  0  0  0  0  0  0  0  0  0  0  0
  -22.3100  -13.8400   22.3350 H   0  0  0  0  0  0  0  0  0  0  0  0
  -26.4720  -15.6010   19.9540 N   0  0  0  0  0  0  0  0  0  0  0  0
  -25.7820  -16.3090   20.1850 H   0  0  0  0  0  0  0  0  0  0  0  0
  -27.3200  -15.9850   19.5580 H   0  0  0  0  0  0  0  0  0  0  0  0
  1  3  1  0
  1  6  1  0
  3  2  1  6
  3  5  1  0
  4  3  1  0
  6  8  1  0
  6  7  1  0
 10  9  1  0
 10  6  1  0
 10 11  1  0
 12 11  1  0
 13 24  2  0
 14 12  1  0
 14 19  1  0
 15 23  1  0
 15 25  1  0
 16 18  1  0
 17 23  1  0
 18 19  2  0
 18 17  1  0
 20 14  2  0
 21 20  1  0
 21 16  2  0
 22 16  1  0
 22 15  1  0
 23 13  1  0
 25 27  2  0
 26 25  1  0
 28 26  1  0
 29 38  2  0
 29 34  1  0
 30 26  1  0
 30 34  1  0
 31 30  1  0
 32 33  1  0
 32 31  1  0
 33 29  1  0
 34 35  2  0
 35 36  1  0
 37 36  2  0
 38 37  1  0
 39 13  1  0
 39 40  1  0
 39 49  1  0
 40 43  1  0
 41 45  1  0
 41 40  1  0
 42 41  2  0
 45 44  1  0
 47 45  1  0
 47 48  1  0
 47 46  1  0
 49 52  1  1
 49 50  1  0
 51 49  1  0
 53 56  1  0
 53 58  1  0
 53  1  1  0
 54 56  1  0
 56 55  1  0
 58 57  1  0
 59 65  1  0
 59 73  1  0
 60 65  1  0
 61 62  1  0
 61 60  1  0
 63 62  1  0
 63 77  1  0
 63 64  1  0
 65 64  1  0
 66 59  2  0
 67 68  1  0
 69 67  1  0
 70 68  1  0
 71 73  1  0
 72 58  1  0
 72 71  1  0
 72 69  1  0
 73 70  1  0
 74 75  2  0
 75 94  1  0
 76 75  1  0
 76 79  1  0
 77 78  1  0
 77 74  1  0
 78 76  2  0
 79 80  1  0
 80 81  2  0
 82 85  1  0
 82 81  1  0
 83 82  2  0
 84 83  1  0
 84 79  2  0
 85 86  1  0
 86 91  2  0
 86 87  1  0
 87 88  2  0
 88 89  1  0
 89 93  1  0
 90 89  2  0
 91 90  1  0
 92 91  1  0
 94 95  1  0
 95 98  1  0
 95 97  1  0
 96 94  2  0
 99 74  1  0
 99100  1  0
101 99  1  0
M  ISO  4  11 101  12 101  59 100  73 100
M  END
>  <TORSDO>  (81) 
F 23

>  <SCORE>  (81) 
-10.376

>  <name>  (81) 
81

>  <ligand_id>  (81) 
81

>  <original_smiles>  (81) 
[H]c1c([H])c([H])c2c(c1[H])C([H])([H])C([H])([H])C([H])([H])C2([H])N([H])C(=O)C1([H])N(C(=O)C([H])(N([H])C(=O)C([H])(N([H])C([H])([H])[H])C([H])([H])[H])C(C([H])([H])[H])(C([H])([H])[H])C([H])([H])[H])C([H])([H])c2c([H])c(OC([H])([H])C([H])(C([H])([H])[H])[N+]([H])([H])C([H])(C(Cl)(Cl)C([H])([H])[H])C([H])(N(C([H])([H])[H])C3([H])C([H])([H])N(C(=O)N4C([H])([H])C([H])([H])C([H])([H])C([H])(n5nc(-c6c([H])c([H])c(Oc7c([H])c([H])c(F)c([H])c7F)c([H])c6[H])c(C(=O)N([H])[H])c5N([H])[H])C4([H])[H])C([H])([H])C([H])([H])C([H])([H])C3([H])[H])C([H])(C([H])([H])[H])C([H])([H])[H])c([H])c([H])c2C1([H])[H]

>  <smiles>  (81) 
[H]c1c([H])c([H])c2c(c1[H])C([H])([H])C([H])([H])C([H])([H])C2([H])N([H])C(=O)C1([H])N(C(=O)C([H])(N([H])C(=O)C([H])(N([H])C([H])([H])[H])C([H])([H])[H])C(C([H])([H])[H])(C([H])([H])[H])C([H])([H])[H])C([H])([H])c2c([H])c(OC([H])([H])C([H])(C([H])([H])[H])[N+]([H])([H])C([H])(C(Cl)(Cl)C([H])([H])[H])C([H])(N(C([H])([H])[H])C3([H])C([H])([H])N(C(=O)N4C([H])([H])C([H])([H])C([H])([H])C([H])(n5nc(-c6c([H])c([H])c(Oc7c([H])c([H])c(F)c([H])c7F)c([H])c6[H])c(C(=O)N([H])[H])c5N([H])[H])C4([H])[H])C([H])([H])C([H])([H])C([H])([H])C3([H])[H])C([H])(C([H])([H])[H])C([H])([H])[H])c([H])c([H])c2C1([H])[H]

$$$$
82:0:0
     RDKit          3D

109118  0  0  1  0  0  0  0  0999 V2000
  -24.6180  -21.7080   17.2770 C   0  0  0  0  0  3  0  0  0  0  0  0
  -25.2260  -21.2030   18.4400 C   0  0  0  0  0  0  0  0  0  0  0  0
  -25.0780  -23.3960   19.5080 C   0  0  0  0  0  0  0  0  0  0  0  0
  -24.5670  -23.9360   18.2990 C   0  0  0  0  0  0  0  0  0  0  0  0
  -25.3820  -22.0250   19.5740 C   0  0  0  0  0  0  0  0  0  0  0  0
  -24.2850  -23.0700   17.2070 C   0  0  0  0  0  0  0  0  0  0  0  0
  -25.3530  -24.2530   20.7390 C   0  0  0  0  0  1  0  0  0  0  0  0
  -25.9440  -21.5150   20.6980 F   0  0  0  0  0  0  0  0  0  0  0  0
  -23.6210  -23.6640   15.7280 Cl  0  0  0  0  0  0  0  0  0  0  0  0
  -25.8410  -19.8200   18.4450 C   0  0  0  0  0  2  0  0  0  0  0  0
  -26.8000  -19.7200   19.5650 N   0  0  0  0  0  4  0  0  0  0  0  0
  -26.9860  -18.7300   19.6710 H   0  0  0  0  0  0  0  0  0  0  0  0
  -26.3180  -20.0230   20.4020 H   0  0  0  0  0  0  0  0  0  0  0  0
  -28.2670  -21.5920   20.3500 C   0  0  0  0  0  1  0  0  0  0  0  0
  -28.1450  -20.3500   19.4310 C   0  0  0  0  0  3  0  0  0  0  0  0
  -31.0490  -18.5190   21.2230 C   0  0  0  0  0  2  0  0  0  0  0  0
  -30.5130  -19.7120   20.4020 C   0  0  0  0  0  2  0  0  0  0  0  0
  -28.7260  -18.1330   20.5990 C   0  0  0  0  0  2  0  0  0  0  0  0
  -29.8000  -17.7190   21.6370 C   0  0  0  0  0  3  0  0  0  0  0  0
  -29.2470  -19.2390   19.6330 C   0  0  1  0  0  0  0  0  0  0  0  0
  -30.7630  -15.3750   21.1370 C   0  0  0  0  0  0  0  0  0  0  0  0
  -30.5380  -13.6580   19.3950 C   0  0  0  0  0  2  0  0  0  0  0  0
  -29.6160  -14.2250   18.2980 C   0  0  0  0  0  2  0  0  0  0  0  0
  -28.1150  -14.0660   18.6600 C   0  0  0  0  0  2  0  0  0  0  0  0
  -27.7680  -14.3820   20.1400 C   0  0  0  0  0  3  0  0  0  0  0  0
  -28.8180  -13.7770   21.1020 C   0  0  0  0  0  2  0  0  0  0  0  0
  -30.1490  -14.2560   20.6790 N   0  0  0  0  0  0  0  0  0  0  0  0
  -31.9220  -15.6880   20.8630 O   0  0  0  0  0  0  0  0  0  0  0  0
  -29.8860  -16.2470   21.6720 N   0  0  0  0  0  0  0  0  0  0  0  0
  -29.0380  -15.7940   21.9660 H   0  0  0  0  0  0  0  0  0  0  0  0
  -25.2500  -14.7480   20.6320 C   0  0  0  0  0  0  0  0  0  0  0  0
  -24.2430  -13.8630   20.8920 C   0  0  0  0  0  0  0  0  0  0  0  0
  -24.8530  -12.5700   20.9150 C   0  0  0  0  0  0  0  0  0  0  0  0
  -26.4050  -13.9850   20.4960 N   0  0  0  0  0  0  0  0  0  0  0  0
  -26.1610  -12.6730   20.7300 N   0  0  0  0  0  0  0  0  0  0  0  0
  -24.2640  -11.2370   21.0490 C   0  0  0  0  0  0  0  0  0  0  0  0
  -24.7610  -10.3050   21.9870 C   0  0  0  0  0  3  0  0  0  0  0  0
  -24.1700   -9.0290   22.1100 C   0  0  0  0  0  3  0  0  0  0  0  0
  -23.0680   -8.6770   21.2940 C   0  0  0  0  0  0  0  0  0  0  0  0
  -22.5890   -9.6040   20.3510 C   0  0  0  0  0  3  0  0  0  0  0  0
  -23.1830  -10.8700   20.2260 C   0  0  0  0  0  3  0  0  0  0  0  0
  -22.4450   -7.4530   21.3260 O   0  0  0  0  0  0  0  0  0  0  0  0
  -22.1960   -6.8040   22.5080 C   0  0  0  0  0  0  0  0  0  0  0  0
  -21.5110   -7.4280   23.5750 C   0  0  0  0  0  3  0  0  0  0  0  0
  -21.2170   -6.6990   24.7440 C   0  0  0  0  0  3  0  0  0  0  0  0
  -21.5970   -5.3480   24.8470 C   0  0  0  0  0  0  0  0  0  0  0  0
  -22.2790   -4.7250   23.7850 C   0  0  0  0  0  3  0  0  0  0  0  0
  -22.5730   -5.4520   22.6200 C   0  0  0  0  0  0  0  0  0  0  0  0
  -23.2080   -4.8410   21.5910 F   0  0  0  0  0  0  0  0  0  0  0  0
  -21.3100   -4.6450   25.9670 F   0  0  0  0  0  0  0  0  0  0  0  0
  -22.7820  -14.1790   21.0360 C   0  0  0  0  0  0  0  0  0  0  0  0
  -22.0780  -13.4640   21.9060 N   0  0  0  0  0  0  0  0  0  0  0  0
  -22.2640  -15.1010   20.4050 O   0  0  0  0  0  0  0  0  0  0  0  0
  -22.4990  -12.7190   22.4410 H   0  0  0  0  0  0  0  0  0  0  0  0
  -21.0980  -13.6630   22.0410 H   0  0  0  0  0  0  0  0  0  0  0  0
  -25.2700  -16.1360   20.5020 N   0  0  0  0  0  0  0  0  0  0  0  0
  -24.4430  -16.6210   20.8260 H   0  0  0  0  0  0  0  0  0  0  0  0
  -26.1190  -16.6190   20.7580 H   0  0  0  0  0  0  0  0  0  0  0  0
  -31.0860  -18.1470   18.0920 C   0  0  0  0  0  1  0  0  0  0  0  0
  -28.7420  -17.7920   17.4080 C   0  0  0  0  0  1  0  0  0  0  0  0
  -29.6900  -18.7510   18.1790 C   0  0  0  0  0  3  0  0  0  0  0  0
  -24.3840  -25.4410   18.1260 C   0  0  0  0  0  2  0  0  0  0  0  0
  -25.5780  -26.0150   17.4720 N   0  0  0  0  0  4  0  0  0  0  0  0
  -25.4420  -27.0130   17.4120 H   0  0  0  0  0  0  0  0  0  0  0  0
  -25.6000  -25.6540   16.5310 H   0  0  0  0  0  0  0  0  0  0  0  0
  -26.8830  -25.7750   18.1230 C   0  0  0  0  0  2  0  0  0  0  0  0
  -28.0850  -25.9020   17.1450 C   0  0  0  0  0  2  0  0  0  0  0  0
  -28.7670  -27.2880   17.0220 C   0  0  0  0  0  2  0  0  0  0  0  0
  -27.9460  -28.2840   16.4180 O   0  0  0  0  0  0  0  0  0  0  0  0
  -24.7260  -28.8970   22.7540 C   0  0  0  0  0  0  0  0  0  0  0  0
  -26.8150  -28.5890   17.1240 C   0  0  0  0  0  0  0  0  0  0  0  0
  -23.2600  -28.9640   20.7640 C   0  0  0  0  0  3  0  0  0  0  0  0
  -24.4460  -29.1930   18.5170 C   0  0  0  0  0  0  0  0  0  0  0  0
  -25.6960  -29.7240   20.6150 C   0  0  0  0  0  2  0  0  0  0  0  0
  -25.6830  -29.2700   19.1730 C   0  0  0  0  0  0  0  0  0  0  0  0
  -26.8720  -28.9410   18.4880 C   0  0  0  0  0  3  0  0  0  0  0  0
  -25.5760  -28.5950   16.4580 C   0  0  0  0  0  3  0  0  0  0  0  0
  -24.3850  -28.8430   17.1590 C   0  0  0  0  0  3  0  0  0  0  0  0
  -23.2190  -29.5430   19.3240 C   0  0  0  0  0  2  0  0  0  0  0  0
  -24.5900  -29.1640   21.4250 N   0  0  0  0  0  0  0  0  0  0  0  0
  -23.7600  -28.5240   23.4330 O   0  0  0  0  0  0  0  0  0  0  0  0
  -22.8240  -27.4850   20.7060 C   0  0  0  0  0  0  0  0  0  0  0  0
  -21.5150  -27.2570   20.5340 N   0  0  0  0  0  0  0  0  0  0  0  0
  -23.6570  -26.5800   20.7800 O   0  0  0  0  0  0  0  0  0  0  0  0
  -20.8990  -28.0570   20.4690 H   0  0  0  0  0  0  0  0  0  0  0  0
  -18.3450  -25.6050   20.0150 C   0  0  0  0  0  0  0  0  0  0  0  0
  -20.8800  -25.9450   20.4140 C   0  0  0  0  0  3  0  0  0  0  0  0
  -21.0750  -25.3670   18.9940 C   0  0  0  0  0  2  0  0  0  0  0  0
  -19.9230  -25.7220   18.0480 C   0  0  0  0  0  2  0  0  0  0  0  0
  -18.6070  -25.1520   18.5870 C   0  0  0  0  0  2  0  0  0  0  0  0
  -19.4140  -25.9920   20.8700 C   0  0  0  0  0  0  0  0  0  0  0  0
  -19.1210  -26.4400   22.1750 C   0  0  0  0  0  3  0  0  0  0  0  0
  -17.7940  -26.5080   22.6350 C   0  0  0  0  0  3  0  0  0  0  0  0
  -16.7400  -26.1050   21.7960 C   0  0  0  0  0  3  0  0  0  0  0  0
  -17.0170  -25.6470   20.4940 C   0  0  0  0  0  3  0  0  0  0  0  0
  -26.0940  -29.0650   23.4820 C   0  0  0  0  0  3  0  0  0  0  0  0
  -26.4700  -27.8320   24.3920 C   0  0  1  0  0  0  0  0  0  0  0  0
  -25.3560  -27.4470   25.3940 C   0  0  0  0  0  1  0  0  0  0  0  0
  -26.7750  -26.5870   23.5240 C   0  0  0  0  0  1  0  0  0  0  0  0
  -27.7600  -28.1410   25.1900 C   0  0  0  0  0  1  0  0  0  0  0  0
  -26.0240  -30.3000   24.2710 N   0  0  0  0  0  0  0  0  0  0  0  0
  -26.7150  -31.4140   24.0000 C   0  0  0  0  0  0  0  0  0  0  0  0
  -27.5480  -31.4830   23.0900 O   0  0  0  0  0  0  0  0  0  0  0  0
  -25.3190  -30.3380   24.9940 H   0  0  0  0  0  0  0  0  0  0  0  0
  -25.6540  -33.6940   24.0690 C   0  0  0  0  0  1  0  0  0  0  0  0
  -26.4420  -32.6510   24.8770 C   0  0  0  0  0  3  0  0  0  0  0  0
  -28.3360  -32.4320   26.4240 C   0  0  0  0  0  1  0  0  0  0  0  0
  -27.6700  -33.2650   25.4250 N   0  0  0  0  0  0  0  0  0  0  0  0
  -27.4650  -34.1640   25.8540 H   0  0  0  0  0  0  0  0  0  0  0  0
  1  2  1  0
  2 10  1  0
  2  5  2  0
  3  5  1  0
  3  7  1  0
  4  3  2  0
  5  8  1  0
  6  1  2  0
  6  4  1  0
  9  6  1  0
 10 11  1  0
 11 12  1  0
 11 13  1  0
 15 11  1  0
 20 15  1  6
 15 14  1  0
 16 19  1  0
 17 16  1  0
 18 19  1  0
 19 29  1  0
 20 61  1  0
 20 17  1  0
 20 18  1  0
 21 29  1  0
 22 27  1  0
 23 24  1  0
 23 22  1  0
 25 24  1  0
 25 34  1  0
 25 26  1  0
 27 26  1  0
 27 21  1  0
 28 21  2  0
 29 30  1  0
 31 32  2  0
 32 33  1  0
 32 51  1  0
 33 36  1  0
 34 31  1  0
 34 35  1  0
 35 33  2  0
 36 37  1  0
 37 38  2  0
 39 42  1  0
 39 38  1  0
 40 39  2  0
 41 40  1  0
 41 36  2  0
 42 43  1  0
 43 48  2  0
 43 44  1  0
 44 45  2  0
 45 46  1  0
 46 50  1  0
 47 46  2  0
 48 47  1  0
 49 48  1  0
 51 52  1  0
 52 55  1  0
 52 54  1  0
 53 51  2  0
 56 31  1  0
 56 58  1  0
 56 57  1  0
 59 61  1  0
 60 61  1  0
 62  4  1  0
 63 66  1  0
 63 62  1  0
 64 63  1  0
 65 63  1  0
 67 66  1  0
 68 67  1  0
 69 68  1  0
 69 71  1  0
 70 81  2  0
 71 76  1  0
 72 82  1  0
 72 80  1  0
 73 75  1  0
 73 79  1  0
 74 80  1  0
 75 74  1  0
 76 75  2  0
 77 71  2  0
 77 78  1  0
 78 73  2  0
 79 72  1  0
 80 70  1  0
 82 84  2  0
 83 82  1  0
 85 83  1  0
 86 95  2  0
 86 91  1  0
 87 83  1  0
 87 91  1  0
 88 87  1  0
 89 90  1  0
 89 88  1  0
 90 86  1  0
 91 92  2  0
 92 93  1  0
 94 93  2  0
 95 94  1  0
 96 70  1  0
 96101  1  0
 96 97  1  0
 97100  1  1
 97 98  1  0
 99 97  1  0
101104  1  0
102101  1  0
102106  1  0
103102  2  0
106105  1  0
106108  1  0
108109  1  0
108107  1  0
M  ISO  4  21 100  29 100  68 101  69 101
M  END
>  <TORSDO>  (82) 
F 26

>  <SCORE>  (82) 
-6.681

>  <name>  (82) 
82

>  <ligand_id>  (82) 
82

>  <original_smiles>  (82) 
[H]c1c([H])c([H])c2c(c1[H])C([H])([H])C([H])([H])C([H])([H])C2([H])N([H])C(=O)C1([H])N(C(=O)C([H])(N([H])C(=O)C([H])(N([H])C([H])([H])[H])C([H])([H])[H])C(C([H])([H])[H])(C([H])([H])[H])C([H])([H])[H])C([H])([H])c2c([H])c(OC([H])([H])C([H])([H])C([H])([H])[N+]([H])([H])C([H])([H])c3c(Cl)c([H])c(C([H])([H])[N+]([H])([H])C([H])(C([H])([H])[H])C4(C([H])(C([H])([H])[H])C([H])([H])[H])C([H])([H])C([H])([H])C([H])(N([H])C(=O)N5C([H])([H])C([H])([H])C([H])([H])C([H])(n6nc(-c7c([H])c([H])c(Oc8c([H])c([H])c(F)c([H])c8F)c([H])c7[H])c(C(=O)N([H])[H])c6N([H])[H])C5([H])[H])C4([H])[H])c(F)c3C([H])([H])[H])c([H])c([H])c2C1([H])[H]

>  <smiles>  (82) 
[H]c1c([H])c([H])c2c(c1[H])C([H])([H])C([H])([H])C([H])([H])C2([H])N([H])C(=O)C1([H])N(C(=O)C([H])(N([H])C(=O)C([H])(N([H])C([H])([H])[H])C([H])([H])[H])C(C([H])([H])[H])(C([H])([H])[H])C([H])([H])[H])C([H])([H])c2c([H])c(OC([H])([H])C([H])([H])C([H])([H])[N+]([H])([H])C([H])([H])c3c(Cl)c([H])c(C([H])([H])[N+]([H])([H])C([H])(C([H])([H])[H])C4(C([H])(C([H])([H])[H])C([H])([H])[H])C([H])([H])C([H])([H])C([H])(N([H])C(=O)N5C([H])([H])C([H])([H])C([H])([H])C([H])(n6nc(-c7c([H])c([H])c(Oc8c([H])c([H])c(F)c([H])c8F)c([H])c7[H])c(C(=O)N([H])[H])c6N([H])[H])C5([H])[H])C4([H])[H])c(F)c3C([H])([H])[H])c([H])c([H])c2C1([H])[H]

$$$$
83:0:0
     RDKit          3D

 95103  0  0  1  0  0  0  0  0999 V2000
  -30.3560  -20.0380   22.5460 C   0  0  0  0  0  0  0  0  0  0  0  0
  -30.2410  -18.8170   20.4110 C   0  0  0  0  0  0  0  0  0  0  0  0
  -29.5940  -21.3210   20.5620 C   0  0  0  0  0  0  0  0  0  0  0  0
  -30.4510  -18.8400   21.8000 C   0  0  0  0  0  0  0  0  0  0  0  0
  -29.9460  -21.2580   21.9360 C   0  0  0  0  0  0  0  0  0  0  0  0
  -29.8420  -20.0840   19.8040 C   0  0  0  0  0  0  0  0  0  0  0  0
  -30.6810  -19.9620   24.0360 C   0  0  0  0  0  1  0  0  0  0  0  0
  -30.7610  -17.6920   22.4490 F   0  0  0  0  0  0  0  0  0  0  0  0
  -29.8580  -22.6970   22.9040 Cl  0  0  0  0  0  0  0  0  0  0  0  0
  -29.6480  -20.1270   18.0770 Cl  0  0  0  0  0  0  0  0  0  0  0  0
  -27.4660  -21.9830   19.6720 C   0  0  0  0  0  1  0  0  0  0  0  0
  -28.7970  -22.4500   20.0630 N   0  0  0  0  0  0  0  0  0  0  0  0
  -30.4990  -24.0790   19.1540 C   0  0  0  0  0  1  0  0  0  0  0  0
  -29.1000  -23.9300   19.7660 C   0  0  0  0  0  3  0  0  0  0  0  0
  -28.5630  -25.1670   20.6990 C   0  0  0  0  0  2  0  0  0  0  0  0
  -28.6930  -26.5930   20.2090 O   0  0  0  0  0  0  0  0  0  0  0  0
  -24.7340  -31.8090   23.3430 C   0  0  0  0  0  0  0  0  0  0  0  0
  -27.5710  -27.4500   20.1840 C   0  0  0  0  0  0  0  0  0  0  0  0
  -23.6310  -30.4340   21.6210 C   0  0  0  0  0  3  0  0  0  0  0  0
  -25.1730  -29.0130   20.1580 C   0  0  0  0  0  0  0  0  0  0  0  0
  -26.1620  -30.8560   21.5180 C   0  0  0  0  0  2  0  0  0  0  0  0
  -26.3100  -29.5140   20.7980 C   0  0  0  0  0  0  0  0  0  0  0  0
  -27.5210  -28.7500   20.7890 C   0  0  0  0  0  3  0  0  0  0  0  0
  -26.4200  -27.0210   19.4960 C   0  0  0  0  0  3  0  0  0  0  0  0
  -25.2310  -27.7820   19.4870 C   0  0  0  0  0  3  0  0  0  0  0  0
  -23.9020  -29.8380   20.2200 C   0  0  0  0  0  2  0  0  0  0  0  0
  -24.8590  -31.0570   22.2140 N   0  0  0  0  0  0  0  0  0  0  0  0
  -23.6260  -32.0100   23.8650 O   0  0  0  0  0  0  0  0  0  0  0  0
  -22.9850  -29.3480   22.5130 C   0  0  0  0  0  0  0  0  0  0  0  0
  -21.6820  -29.0960   22.3160 N   0  0  0  0  0  0  0  0  0  0  0  0
  -23.6560  -28.7470   23.3520 O   0  0  0  0  0  0  0  0  0  0  0  0
  -21.2060  -29.6180   21.5940 H   0  0  0  0  0  0  0  0  0  0  0  0
  -18.3540  -27.7540   22.6360 C   0  0  0  0  0  0  0  0  0  0  0  0
  -20.8760  -28.1270   23.0600 C   0  0  0  0  0  3  0  0  0  0  0  0
  -21.0780  -26.7060   22.4880 C   0  0  0  0  0  2  0  0  0  0  0  0
  -20.0670  -26.3510   21.3910 C   0  0  0  0  0  2  0  0  0  0  0  0
  -18.6280  -26.4530   21.8880 C   0  0  0  0  0  2  0  0  0  0  0  0
  -19.4110  -28.5520   23.1540 C   0  0  0  0  0  0  0  0  0  0  0  0
  -19.1050  -29.7750   23.7850 C   0  0  0  0  0  3  0  0  0  0  0  0
  -17.7700  -30.1980   23.9220 C   0  0  0  0  0  3  0  0  0  0  0  0
  -16.7230  -29.4000   23.4240 C   0  0  0  0  0  3  0  0  0  0  0  0
  -17.0210  -28.1860   22.7860 C   0  0  0  0  0  3  0  0  0  0  0  0
  -25.9720  -32.4610   24.0320 C   0  0  0  0  0  3  0  0  0  0  0  0
  -26.4520  -31.6790   25.3180 C   0  0  1  0  0  0  0  0  0  0  0  0
  -25.3160  -31.3820   26.3250 C   0  0  0  0  0  1  0  0  0  0  0  0
  -27.0900  -30.3250   24.9330 C   0  0  0  0  0  1  0  0  0  0  0  0
  -27.5520  -32.4910   26.0380 C   0  0  0  0  0  1  0  0  0  0  0  0
  -25.6080  -33.8440   24.3680 N   0  0  0  0  0  0  0  0  0  0  0  0
  -25.9520  -34.9170   23.6440 C   0  0  0  0  0  0  0  0  0  0  0  0
  -26.6660  -34.8460   22.6430 O   0  0  0  0  0  0  0  0  0  0  0  0
  -24.9600  -33.9660   25.1310 H   0  0  0  0  0  0  0  0  0  0  0  0
  -24.1970  -36.6720   23.2320 C   0  0  0  0  0  1  0  0  0  0  0  0
  -25.4110  -36.2880   24.0930 C   0  0  0  0  0  3  0  0  0  0  0  0
  -27.4780  -37.2050   25.0400 C   0  0  0  0  0  1  0  0  0  0  0  0
  -26.4260  -37.3600   24.0410 N   0  0  0  0  0  0  0  0  0  0  0  0
  -26.0010  -38.2740   24.1710 H   0  0  0  0  0  0  0  0  0  0  0  0
  -30.4810  -17.4470   19.6030 C   0  0  0  0  0  2  0  0  0  0  0  0
  -31.0450  -14.8920   20.0510 C   0  0  0  0  0  0  0  0  0  0  0  0
  -30.6830  -12.6040   19.1250 C   0  0  0  0  0  2  0  0  0  0  0  0
  -29.7450  -12.7660   17.9070 C   0  0  0  0  0  2  0  0  0  0  0  0
  -28.2740  -12.6590   18.3550 C   0  0  0  0  0  2  0  0  0  0  0  0
  -27.9740  -13.5150   19.6150 C   0  0  0  0  0  3  0  0  0  0  0  0
  -29.0760  -13.3880   20.6930 C   0  0  0  0  0  2  0  0  0  0  0  0
  -30.3720  -13.6880   20.0690 N   0  0  0  0  0  0  0  0  0  0  0  0
  -32.2220  -14.9380   19.6830 O   0  0  0  0  0  0  0  0  0  0  0  0
  -30.3020  -16.0470   20.2070 N   0  0  0  0  0  0  0  0  0  0  0  0
  -29.3940  -15.8850   20.6130 H   0  0  0  0  0  0  0  0  0  0  0  0
  -25.6410  -14.1290   20.4870 C   0  0  0  0  0  0  0  0  0  0  0  0
  -24.5800  -13.3790   20.8850 C   0  0  0  0  0  0  0  0  0  0  0  0
  -24.9990  -12.0160   20.7890 C   0  0  0  0  0  0  0  0  0  0  0  0
  -26.6480  -13.2390   20.1610 N   0  0  0  0  0  0  0  0  0  0  0  0
  -26.2670  -11.9550   20.4010 N   0  0  0  0  0  0  0  0  0  0  0  0
  -24.2420  -10.7710   20.9740 C   0  0  0  0  0  0  0  0  0  0  0  0
  -24.6580   -9.7910   21.9020 C   0  0  0  0  0  3  0  0  0  0  0  0
  -23.9110   -8.6080   22.0820 C   0  0  0  0  0  3  0  0  0  0  0  0
  -22.7340   -8.3910   21.3250 C   0  0  0  0  0  0  0  0  0  0  0  0
  -22.3340   -9.3570   20.3850 C   0  0  0  0  0  3  0  0  0  0  0  0
  -23.0820  -10.5330   20.2070 C   0  0  0  0  0  3  0  0  0  0  0  0
  -21.9520   -7.2640   21.4090 O   0  0  0  0  0  0  0  0  0  0  0  0
  -21.8460   -6.5510   22.5750 C   0  0  0  0  0  0  0  0  0  0  0  0
  -21.3460   -7.1330   23.7590 C   0  0  0  0  0  3  0  0  0  0  0  0
  -21.1910   -6.3450   24.9170 C   0  0  0  0  0  3  0  0  0  0  0  0
  -21.5230   -4.9780   24.8900 C   0  0  0  0  0  0  0  0  0  0  0  0
  -22.0220   -4.3990   23.7110 C   0  0  0  0  0  3  0  0  0  0  0  0
  -22.1810   -5.1830   22.5560 C   0  0  0  0  0  0  0  0  0  0  0  0
  -22.6380   -4.6170   21.4130 F   0  0  0  0  0  0  0  0  0  0  0  0
  -21.3620   -4.2200   26.0010 F   0  0  0  0  0  0  0  0  0  0  0  0
  -23.2100  -13.8790   21.2400 C   0  0  0  0  0  0  0  0  0  0  0  0
  -22.5170  -13.1830   22.1230 N   0  0  0  0  0  0  0  0  0  0  0  0
  -22.7810  -14.9340   20.7680 O   0  0  0  0  0  0  0  0  0  0  0  0
  -22.8960  -12.3330   22.5190 H   0  0  0  0  0  0  0  0  0  0  0  0
  -21.6070  -13.5040   22.4220 H   0  0  0  0  0  0  0  0  0  0  0  0
  -25.8210  -15.5040   20.3470 N   0  0  0  0  0  0  0  0  0  0  0  0
  -25.0620  -16.1490   20.5390 H   0  0  0  0  0  0  0  0  0  0  0  0
  -26.6680  -15.9460   20.0290 H   0  0  0  0  0  0  0  0  0  0  0  0
  1  7  1  0
  2  4  1  0
  3  5  2  0
  4  8  1  0
  4  1  2  0
  5  1  1  0
  5  9  1  0
  6  2  2  0
  6  3  1  0
 10  6  1  0
 11 12  1  0
 12  3  1  0
 14 13  1  0
 14 12  1  0
 14 15  1  0
 16 15  1  0
 17 28  2  0
 18 16  1  0
 18 23  1  0
 19 27  1  0
 19 29  1  0
 20 26  1  0
 20 22  1  0
 21 27  1  0
 22 21  1  0
 23 22  2  0
 24 18  2  0
 25 24  1  0
 25 20  2  0
 26 19  1  0
 27 17  1  0
 29 31  2  0
 30 29  1  0
 32 30  1  0
 33 42  2  0
 33 38  1  0
 34 30  1  0
 34 38  1  0
 35 34  1  0
 36 37  1  0
 36 35  1  0
 37 33  1  0
 38 39  2  0
 39 40  1  0
 41 40  2  0
 42 41  1  0
 43 17  1  0
 43 48  1  0
 43 44  1  0
 44 47  1  1
 44 45  1  0
 46 44  1  0
 48 51  1  0
 49 53  1  0
 49 48  1  0
 50 49  2  0
 53 52  1  0
 55 53  1  0
 55 56  1  0
 55 54  1  0
 57 66  1  0
 57  2  1  0
 58 64  1  0
 58 66  1  0
 59 64  1  0
 60 61  1  0
 60 59  1  0
 62 61  1  0
 62 71  1  0
 62 63  1  0
 64 63  1  0
 65 58  2  0
 66 67  1  0
 68 69  2  0
 69 88  1  0
 70 69  1  0
 70 73  1  0
 71 72  1  0
 71 68  1  0
 72 70  2  0
 73 74  1  0
 74 75  2  0
 76 79  1  0
 76 75  1  0
 77 76  2  0
 78 77  1  0
 78 73  2  0
 79 80  1  0
 80 81  1  0
 81 82  2  0
 83 82  1  0
 83 87  1  0
 84 83  2  0
 85 80  2  0
 85 84  1  0
 86 85  1  0
 88 89  1  0
 89 92  1  0
 89 91  1  0
 90 88  2  0
 93 68  1  0
 93 94  1  0
 95 93  1  0
M  ISO  4  15 101  16 101  58 100  66 100
M  END
>  <TORSDO>  (83) 
F 20

>  <SCORE>  (83) 
-13.123

>  <name>  (83) 
83

>  <ligand_id>  (83) 
83

>  <original_smiles>  (83) 
[H]c1c([H])c([H])c2c(c1[H])C([H])([H])C([H])([H])C([H])([H])C2([H])N([H])C(=O)C1([H])N(C(=O)C([H])(N([H])C(=O)C([H])(N([H])C([H])([H])[H])C([H])([H])[H])C(C([H])([H])[H])(C([H])([H])[H])C([H])([H])[H])C([H])([H])c2c([H])c(OC([H])([H])C([H])(N(c3c(Cl)c(C([H])([H])[H])c(F)c(C([H])([H])N([H])C(=O)N4C([H])([H])C([H])([H])C([H])([H])C([H])(n5nc(-c6c([H])c([H])c(Oc7c([H])c([H])c(F)c([H])c7F)c([H])c6[H])c(C(=O)N([H])[H])c5N([H])[H])C4([H])[H])c3Cl)C([H])([H])[H])C([H])([H])[H])c([H])c([H])c2C1([H])[H]

>  <smiles>  (83) 
[H]c1c([H])c([H])c2c(c1[H])C([H])([H])C([H])([H])C([H])([H])C2([H])N([H])C(=O)C1([H])N(C(=O)C([H])(N([H])C(=O)C([H])(N([H])C([H])([H])[H])C([H])([H])[H])C(C([H])([H])[H])(C([H])([H])[H])C([H])([H])[H])C([H])([H])c2c([H])c(OC([H])([H])C([H])(N(c3c(Cl)c(C([H])([H])[H])c(F)c(C([H])([H])N([H])C(=O)N4C([H])([H])C([H])([H])C([H])([H])C([H])(n5nc(-c6c([H])c([H])c(Oc7c([H])c([H])c(F)c([H])c7F)c([H])c6[H])c(C(=O)N([H])[H])c5N([H])[H])C4([H])[H])c3Cl)C([H])([H])[H])C([H])([H])[H])c([H])c([H])c2C1([H])[H]

$$$$
84:0:0
     RDKit          3D

 91 99  0  0  1  0  0  0  0  0999 V2000
  -28.8030  -20.7110   21.1600 C   0  0  0  0  0  3  0  0  0  0  0  0
  -28.8840  -21.1710   19.8460 C   0  0  0  0  0  0  0  0  0  0  0  0
  -30.2960  -19.1880   19.3230 C   0  0  0  0  0  0  0  0  0  0  0  0
  -29.7960  -20.5950   18.9100 C   0  0  0  0  0  0  0  0  0  0  0  0
  -30.2330  -18.9780   20.7400 C   0  0  0  0  0  0  0  0  0  0  0  0
  -27.8570  -22.2380   19.4860 C   0  0  0  0  0  1  0  0  0  0  0  0
  -29.5330  -19.7060   21.6190 N   0  0  0  0  0  0  0  0  0  0  0  0
  -31.1560  -17.7580   21.5520 Cl  0  0  0  0  0  0  0  0  0  0  0  0
  -30.9410  -17.8350   18.5630 C   0  0  0  0  0  2  0  0  0  0  0  0
  -31.6530  -15.1310   19.1860 C   0  0  0  0  0  0  0  0  0  0  0  0
  -31.6310  -12.5910   18.9190 C   0  0  0  0  0  2  0  0  0  0  0  0
  -30.6580  -12.1470   17.8020 C   0  0  0  0  0  2  0  0  0  0  0  0
  -29.2180  -12.0240   18.3390 C   0  0  0  0  0  2  0  0  0  0  0  0
  -28.8140  -13.2360   19.2240 C   0  0  0  0  0  3  0  0  0  0  0  0
  -29.9000  -13.5840   20.2600 C   0  0  0  0  0  2  0  0  0  0  0  0
  -31.1250  -13.8730   19.5030 N   0  0  0  0  0  0  0  0  0  0  0  0
  -32.8400  -15.1450   18.8400 O   0  0  0  0  0  0  0  0  0  0  0  0
  -30.8130  -16.2980   19.0740 N   0  0  0  0  0  0  0  0  0  0  0  0
  -29.8690  -16.0750   19.3510 H   0  0  0  0  0  0  0  0  0  0  0  0
  -26.6070  -14.0480   20.2260 C   0  0  0  0  0  0  0  0  0  0  0  0
  -25.5020  -13.3810   20.6800 C   0  0  0  0  0  0  0  0  0  0  0  0
  -25.7960  -11.9890   20.5530 C   0  0  0  0  0  0  0  0  0  0  0  0
  -27.5060  -13.0680   19.8410 N   0  0  0  0  0  0  0  0  0  0  0  0
  -27.0370  -11.8220   20.1060 N   0  0  0  0  0  0  0  0  0  0  0  0
  -24.9480  -10.8120   20.7670 C   0  0  0  0  0  0  0  0  0  0  0  0
  -25.1800   -9.9220   21.8370 C   0  0  0  0  0  3  0  0  0  0  0  0
  -24.3360   -8.8080   22.0380 C   0  0  0  0  0  3  0  0  0  0  0  0
  -23.2440   -8.5790   21.1700 C   0  0  0  0  0  0  0  0  0  0  0  0
  -23.0330   -9.4530   20.0900 C   0  0  0  0  0  3  0  0  0  0  0  0
  -23.8750  -10.5580   19.8870 C   0  0  0  0  0  3  0  0  0  0  0  0
  -22.3860   -7.5110   21.2740 O   0  0  0  0  0  0  0  0  0  0  0  0
  -21.9070   -7.0890   22.4870 C   0  0  0  0  0  0  0  0  0  0  0  0
  -21.1570   -7.9350   23.3330 C   0  0  0  0  0  3  0  0  0  0  0  0
  -20.6250   -7.4320   24.5380 C   0  0  0  0  0  3  0  0  0  0  0  0
  -20.8360   -6.0870   24.8960 C   0  0  0  0  0  0  0  0  0  0  0  0
  -21.5770   -5.2430   24.0530 C   0  0  0  0  0  3  0  0  0  0  0  0
  -22.1070   -5.7410   22.8510 C   0  0  0  0  0  0  0  0  0  0  0  0
  -22.8010   -4.9150   22.0310 F   0  0  0  0  0  0  0  0  0  0  0  0
  -20.3160   -5.6040   26.0500 F   0  0  0  0  0  0  0  0  0  0  0  0
  -24.2010  -14.0020   21.0990 C   0  0  0  0  0  0  0  0  0  0  0  0
  -23.5030  -13.3860   22.0480 N   0  0  0  0  0  0  0  0  0  0  0  0
  -23.8210  -15.0660   20.6160 O   0  0  0  0  0  0  0  0  0  0  0  0
  -23.8240  -12.5260   22.4670 H   0  0  0  0  0  0  0  0  0  0  0  0
  -22.6260  -13.7840   22.3550 H   0  0  0  0  0  0  0  0  0  0  0  0
  -26.9130  -15.3980   20.0800 N   0  0  0  0  0  0  0  0  0  0  0  0
  -26.2220  -16.1190   20.2640 H   0  0  0  0  0  0  0  0  0  0  0  0
  -27.7320  -15.7590   19.6130 H   0  0  0  0  0  0  0  0  0  0  0  0
  -29.9730  -21.4940   17.7530 O   0  0  0  0  0  0  0  0  0  0  0  0
  -30.1510  -23.0780   17.8100 C   0  0  0  0  0  3  0  0  0  0  0  0
  -29.1190  -24.3970   17.3990 C   0  0  0  0  0  3  0  0  0  0  0  0
  -29.2740  -25.9570   17.6630 O   0  0  0  0  0  0  0  0  0  0  0  0
  -25.9440  -29.7290   23.0970 C   0  0  0  0  0  0  0  0  0  0  0  0
  -28.1940  -26.8190   18.1200 C   0  0  0  0  0  0  0  0  0  0  0  0
  -24.5550  -28.9270   21.2260 C   0  0  0  0  0  3  0  0  0  0  0  0
  -25.8140  -28.2050   19.1000 C   0  0  0  0  0  0  0  0  0  0  0  0
  -27.0270  -29.5300   20.8220 C   0  0  0  0  0  2  0  0  0  0  0  0
  -27.0600  -28.5080   19.6690 C   0  0  0  0  0  0  0  0  0  0  0  0
  -28.2450  -27.8350   19.1690 C   0  0  0  0  0  3  0  0  0  0  0  0
  -26.9120  -26.6480   17.5520 C   0  0  0  0  0  3  0  0  0  0  0  0
  -25.7550  -27.3010   18.0290 C   0  0  0  0  0  3  0  0  0  0  0  0
  -24.5670  -28.8620   19.6740 C   0  0  0  0  0  2  0  0  0  0  0  0
  -25.8700  -29.4010   21.7720 N   0  0  0  0  0  0  0  0  0  0  0  0
  -24.9530  -29.6550   23.8400 O   0  0  0  0  0  0  0  0  0  0  0  0
  -24.1180  -27.5520   21.7940 C   0  0  0  0  0  0  0  0  0  0  0  0
  -22.8520  -27.1610   21.5560 N   0  0  0  0  0  0  0  0  0  0  0  0
  -24.9160  -26.8530   22.4200 O   0  0  0  0  0  0  0  0  0  0  0  0
  -22.2490  -27.7960   21.0500 H   0  0  0  0  0  0  0  0  0  0  0  0
  -19.8980  -25.0830   21.2490 C   0  0  0  0  0  0  0  0  0  0  0  0
  -22.2560  -25.8820   21.9550 C   0  0  0  0  0  3  0  0  0  0  0  0
  -22.7920  -24.7200   21.0880 C   0  0  0  0  0  2  0  0  0  0  0  0
  -21.9100  -24.4170   19.8710 C   0  0  0  0  0  2  0  0  0  0  0  0
  -20.4940  -24.0440   20.3160 C   0  0  0  0  0  2  0  0  0  0  0  0
  -20.7230  -25.9570   22.0070 C   0  0  0  0  0  0  0  0  0  0  0  0
  -20.1150  -26.9250   22.8340 C   0  0  0  0  0  3  0  0  0  0  0  0
  -18.7120  -27.0220   22.9170 C   0  0  0  0  0  3  0  0  0  0  0  0
  -17.9010  -26.1460   22.1760 C   0  0  0  0  0  3  0  0  0  0  0  0
  -18.4950  -25.1780   21.3450 C   0  0  0  0  0  3  0  0  0  0  0  0
  -27.2700  -30.2280   23.7430 C   0  0  0  0  0  3  0  0  0  0  0  0
  -27.9700  -29.1400   24.6480 C   0  0  1  0  0  0  0  0  0  0  0  0
  -27.0290  -28.4910   25.6890 C   0  0  0  0  0  1  0  0  0  0  0  0
  -28.5620  -28.0050   23.7820 C   0  0  0  0  0  1  0  0  0  0  0  0
  -29.1560  -29.7780   25.4090 C   0  0  0  0  0  1  0  0  0  0  0  0
  -26.9610  -31.4280   24.5370 N   0  0  0  0  0  0  0  0  0  0  0  0
  -27.2170  -32.6870   24.1540 C   0  0  0  0  0  0  0  0  0  0  0  0
  -27.8070  -32.9610   23.1060 O   0  0  0  0  0  0  0  0  0  0  0  0
  -26.4280  -31.2870   25.3810 H   0  0  0  0  0  0  0  0  0  0  0  0
  -25.4600  -34.4540   24.5250 C   0  0  0  0  0  1  0  0  0  0  0  0
  -26.7460  -33.8250   25.0820 C   0  0  0  0  0  3  0  0  0  0  0  0
  -28.9090  -34.4340   26.0720 C   0  0  0  0  0  1  0  0  0  0  0  0
  -27.7610  -34.8790   25.2880 N   0  0  0  0  0  0  0  0  0  0  0  0
  -27.3520  -35.6850   25.7570 H   0  0  0  0  0  0  0  0  0  0  0  0
  1  7  1  0
  2  1  2  0
  3  5  1  0
  4  3  2  0
  4  2  1  0
  5  8  1  0
  5  7  2  0
  6  2  1  0
  9 18  1  0
  9  3  1  0
 10 16  1  0
 11 16  1  0
 12 13  1  0
 12 11  1  0
 14 13  1  0
 14 23  1  0
 14 15  1  0
 16 15  1  0
 17 10  2  0
 18 10  1  0
 18 19  1  0
 20 21  2  0
 21 40  1  0
 22 21  1  0
 22 25  1  0
 23 24  1  0
 23 20  1  0
 24 22  2  0
 25 26  1  0
 26 27  2  0
 28 31  1  0
 28 27  1  0
 29 28  2  0
 30 29  1  0
 30 25  2  0
 31 32  1  0
 32 37  2  0
 32 33  1  0
 33 34  2  0
 34 35  1  0
 35 39  1  0
 36 35  2  0
 37 36  1  0
 38 37  1  0
 40 41  1  0
 41 44  1  0
 41 43  1  0
 42 40  2  0
 45 20  1  0
 45 46  1  0
 47 45  1  0
 48 49  1  0
 48  4  1  0
 50 51  1  0
 50 49  2  0
 51 53  1  0
 52 63  2  0
 53 58  1  0
 54 62  1  0
 54 64  1  0
 55 57  1  0
 55 61  1  0
 56 62  1  0
 57 56  1  0
 58 57  2  0
 59 60  1  0
 59 53  2  0
 60 55  2  0
 61 54  1  0
 62 52  1  0
 64 66  2  0
 65 64  1  0
 67 65  1  0
 68 77  2  0
 68 73  1  0
 69 65  1  0
 69 73  1  0
 70 69  1  0
 71 72  1  0
 71 70  1  0
 72 68  1  0
 73 74  2  0
 74 75  1  0
 76 75  2  0
 77 76  1  0
 78 52  1  0
 78 83  1  0
 78 79  1  0
 79 82  1  1
 79 80  1  0
 81 79  1  0
 83 86  1  0
 84 83  1  0
 84 88  1  0
 85 84  2  0
 88 87  1  0
 88 90  1  0
 90 91  1  0
 90 89  1  0
M  ISO  4  10 100  18 100  50 101  51 101
M  END
>  <TORSDO>  (84) 
F 20

>  <SCORE>  (84) 
-8.501

>  <name>  (84) 
84

>  <ligand_id>  (84) 
84

>  <original_smiles>  (84) 
[H]c1nc(Cl)c(C([H])([H])N([H])C(=O)N2C([H])([H])C([H])([H])C([H])([H])C([H])(n3nc(-c4c([H])c([H])c(Oc5c([H])c([H])c(F)c([H])c5F)c([H])c4[H])c(C(=O)N([H])[H])c3N([H])[H])C2([H])[H])c(OC([H])([H])C([H])([H])Oc2c([H])c([H])c3c(c2[H])C([H])([H])N(C(=O)C([H])(N([H])C(=O)C([H])(N([H])C([H])([H])[H])C([H])([H])[H])C(C([H])([H])[H])(C([H])([H])[H])C([H])([H])[H])C([H])(C(=O)N([H])C2([H])c4c([H])c([H])c([H])c([H])c4C([H])([H])C([H])([H])C2([H])[H])C3([H])[H])c1C([H])([H])[H]

>  <smiles>  (84) 
[H]c1nc(Cl)c(C([H])([H])N([H])C(=O)N2C([H])([H])C([H])([H])C([H])([H])C([H])(n3nc(-c4c([H])c([H])c(Oc5c([H])c([H])c(F)c([H])c5F)c([H])c4[H])c(C(=O)N([H])[H])c3N([H])[H])C2([H])[H])c(OC([H])([H])C([H])([H])Oc2c([H])c([H])c3c(c2[H])C([H])([H])N(C(=O)C([H])(N([H])C(=O)C([H])(N([H])C([H])([H])[H])C([H])([H])[H])C(C([H])([H])[H])(C([H])([H])[H])C([H])([H])[H])C([H])(C(=O)N([H])C2([H])c4c([H])c([H])c([H])c([H])c4C([H])([H])C([H])([H])C2([H])[H])C3([H])[H])c1C([H])([H])[H]

$$$$
85:0:0
     RDKit          3D

 91 99  0  0  1  0  0  0  0  0999 V2000
  -28.4240  -20.2110   20.9260 C   0  0  0  0  0  3  0  0  0  0  0  0
  -28.9820  -18.9010   20.9550 C   0  0  0  0  0  3  0  0  0  0  0  0
  -28.9150  -21.2190   20.0570 C   0  0  0  0  0  0  0  0  0  0  0  0
  -30.0590  -18.5400   20.1120 C   0  0  0  0  0  0  0  0  0  0  0  0
  -29.9850  -20.8620   19.2000 C   0  0  0  0  0  0  0  0  0  0  0  0
  -30.5610  -19.5610   19.2430 C   0  0  0  0  0  0  0  0  0  0  0  0
  -30.5840  -22.0170   18.0570 Cl  0  0  0  0  0  0  0  0  0  0  0  0
  -31.9280  -19.2620   18.2160 Cl  0  0  0  0  0  0  0  0  0  0  0  0
  -28.1840  -22.5870   19.9390 C   0  0  0  0  0  2  0  0  0  0  0  0
  -28.8960  -23.9520   20.3130 C   0  0  0  0  0  2  0  0  0  0  0  0
  -28.0710  -25.1710   19.7620 C   0  0  0  0  0  2  0  0  0  0  0  0
  -28.3120  -26.5690   20.1620 O   0  0  0  0  0  0  0  0  0  0  0  0
  -24.5950  -31.9290   23.2090 C   0  0  0  0  0  0  0  0  0  0  0  0
  -27.2010  -27.4230   20.0960 C   0  0  0  0  0  0  0  0  0  0  0  0
  -23.3860  -30.5250   21.5800 C   0  0  0  0  0  3  0  0  0  0  0  0
  -24.8330  -29.0140   20.1210 C   0  0  0  0  0  0  0  0  0  0  0  0
  -25.9190  -30.8730   21.3690 C   0  0  0  0  0  2  0  0  0  0  0  0
  -26.0040  -29.5020   20.7150 C   0  0  0  0  0  0  0  0  0  0  0  0
  -27.1900  -28.7140   20.7060 C   0  0  0  0  0  3  0  0  0  0  0  0
  -26.0120  -27.0090   19.4470 C   0  0  0  0  0  3  0  0  0  0  0  0
  -24.8380  -27.7730   19.4770 C   0  0  0  0  0  3  0  0  0  0  0  0
  -23.5870  -29.8670   20.1920 C   0  0  0  0  0  2  0  0  0  0  0  0
  -24.6540  -31.1250   22.1090 N   0  0  0  0  0  0  0  0  0  0  0  0
  -23.5140  -32.1940   23.7540 O   0  0  0  0  0  0  0  0  0  0  0  0
  -22.7500  -29.4920   22.5390 C   0  0  0  0  0  0  0  0  0  0  0  0
  -21.4280  -29.2900   22.4150 N   0  0  0  0  0  0  0  0  0  0  0  0
  -23.4420  -28.8750   23.3540 O   0  0  0  0  0  0  0  0  0  0  0  0
  -20.9270  -29.8370   21.7290 H   0  0  0  0  0  0  0  0  0  0  0  0
  -18.0660  -28.0650   22.9390 C   0  0  0  0  0  0  0  0  0  0  0  0
  -20.6240  -28.3430   23.1890 C   0  0  0  0  0  3  0  0  0  0  0  0
  -20.7330  -26.9150   22.6030 C   0  0  0  0  0  2  0  0  0  0  0  0
  -19.6230  -26.5880   21.5970 C   0  0  0  0  0  2  0  0  0  0  0  0
  -18.2460  -26.7200   22.2560 C   0  0  0  0  0  2  0  0  0  0  0  0
  -19.1820  -28.8340   23.3620 C   0  0  0  0  0  0  0  0  0  0  0  0
  -18.9570  -30.0950   23.9590 C   0  0  0  0  0  3  0  0  0  0  0  0
  -17.6490  -30.5840   24.1380 C   0  0  0  0  0  3  0  0  0  0  0  0
  -16.5480  -29.8100   23.7320 C   0  0  0  0  0  3  0  0  0  0  0  0
  -16.7570  -28.5530   23.1380 C   0  0  0  0  0  3  0  0  0  0  0  0
  -25.8780  -32.5710   23.8180 C   0  0  0  0  0  3  0  0  0  0  0  0
  -26.3970  -31.8170   25.1040 C   0  0  1  0  0  0  0  0  0  0  0  0
  -25.3010  -31.5850   26.1700 C   0  0  0  0  0  1  0  0  0  0  0  0
  -26.9890  -30.4380   24.7270 C   0  0  0  0  0  1  0  0  0  0  0  0
  -27.5420  -32.6260   25.7570 C   0  0  0  0  0  1  0  0  0  0  0  0
  -25.5670  -33.9720   24.1280 N   0  0  0  0  0  0  0  0  0  0  0  0
  -25.8650  -35.0110   23.3360 C   0  0  0  0  0  0  0  0  0  0  0  0
  -26.5010  -34.8920   22.2860 O   0  0  0  0  0  0  0  0  0  0  0  0
  -24.9930  -34.1390   24.9420 H   0  0  0  0  0  0  0  0  0  0  0  0
  -24.1000  -36.7750   23.0160 C   0  0  0  0  0  1  0  0  0  0  0  0
  -25.3800  -36.4040   23.7810 C   0  0  0  0  0  3  0  0  0  0  0  0
  -27.5310  -37.3430   24.5060 C   0  0  0  0  0  1  0  0  0  0  0  0
  -26.3930  -37.4660   23.5990 N   0  0  0  0  0  0  0  0  0  0  0  0
  -25.9790  -38.3850   23.7330 H   0  0  0  0  0  0  0  0  0  0  0  0
  -30.7880  -17.1600   20.2250 C   0  0  0  0  0  2  0  0  0  0  0  0
  -30.7360  -14.6760   20.0410 C   0  0  0  0  0  0  0  0  0  0  0  0
  -30.3500  -12.4830   18.9760 C   0  0  0  0  0  2  0  0  0  0  0  0
  -29.3610  -12.6590   17.8070 C   0  0  0  0  0  2  0  0  0  0  0  0
  -27.9160  -12.5040   18.3150 C   0  0  0  0  0  2  0  0  0  0  0  0
  -27.6310  -13.3600   19.5800 C   0  0  0  0  0  3  0  0  0  0  0  0
  -28.7460  -13.2170   20.6400 C   0  0  0  0  0  2  0  0  0  0  0  0
  -30.0210  -13.5120   19.9810 N   0  0  0  0  0  0  0  0  0  0  0  0
  -31.8890  -14.7270   19.6110 O   0  0  0  0  0  0  0  0  0  0  0  0
  -30.0980  -15.8370   20.3780 N   0  0  0  0  0  0  0  0  0  0  0  0
  -29.1400  -15.8060   20.6920 H   0  0  0  0  0  0  0  0  0  0  0  0
  -25.2930  -13.9530   20.4570 C   0  0  0  0  0  0  0  0  0  0  0  0
  -24.2420  -13.1780   20.8640 C   0  0  0  0  0  0  0  0  0  0  0  0
  -24.6900  -11.8230   20.7710 C   0  0  0  0  0  0  0  0  0  0  0  0
  -26.3130  -13.0740   20.1380 N   0  0  0  0  0  0  0  0  0  0  0  0
  -25.9610  -11.7850   20.3880 N   0  0  0  0  0  0  0  0  0  0  0  0
  -23.9640  -10.5610   20.9660 C   0  0  0  0  0  0  0  0  0  0  0  0
  -24.4040   -9.5900   21.8920 C   0  0  0  0  0  3  0  0  0  0  0  0
  -23.6770   -8.3930   22.0760 C   0  0  0  0  0  3  0  0  0  0  0  0
  -22.4970   -8.1590   21.3300 C   0  0  0  0  0  0  0  0  0  0  0  0
  -22.0750   -9.1170   20.3920 C   0  0  0  0  0  3  0  0  0  0  0  0
  -22.8030  -10.3050   20.2080 C   0  0  0  0  0  3  0  0  0  0  0  0
  -21.7410   -7.0150   21.4250 O   0  0  0  0  0  0  0  0  0  0  0  0
  -21.6550   -6.3040   22.5940 C   0  0  0  0  0  0  0  0  0  0  0  0
  -21.1330   -6.8710   23.7770 C   0  0  0  0  0  3  0  0  0  0  0  0
  -20.9980   -6.0830   24.9360 C   0  0  0  0  0  3  0  0  0  0  0  0
  -21.3750   -4.7250   24.9140 C   0  0  0  0  0  0  0  0  0  0  0  0
  -21.8890   -4.1580   23.7360 C   0  0  0  0  0  3  0  0  0  0  0  0
  -22.0250   -4.9440   22.5780 C   0  0  0  0  0  0  0  0  0  0  0  0
  -22.5020   -4.3860   21.4410 F   0  0  0  0  0  0  0  0  0  0  0  0
  -21.2380   -3.9650   26.0260 F   0  0  0  0  0  0  0  0  0  0  0  0
  -22.8680  -13.6570   21.2290 C   0  0  0  0  0  0  0  0  0  0  0  0
  -22.1860  -12.9430   22.1170 N   0  0  0  0  0  0  0  0  0  0  0  0
  -22.4110  -14.7000   20.7640 O   0  0  0  0  0  0  0  0  0  0  0  0
  -22.5740  -12.1030   22.5190 H   0  0  0  0  0  0  0  0  0  0  0  0
  -21.2640  -13.2440   22.4040 H   0  0  0  0  0  0  0  0  0  0  0  0
  -25.4600  -15.3270   20.3050 N   0  0  0  0  0  0  0  0  0  0  0  0
  -24.6980  -15.9810   20.4530 H   0  0  0  0  0  0  0  0  0  0  0  0
  -26.2950  -15.7630   19.9340 H   0  0  0  0  0  0  0  0  0  0  0  0
  1  2  1  0
  3  1  2  0
  4 53  1  0
  4  2  2  0
  5  6  2  0
  5  3  1  0
  6  4  1  0
  7  5  1  0
  8  6  1  0
  9  3  1  0
  9 10  1  0
 11 12  1  0
 11 10  1  0
 13 24  2  0
 14 12  1  0
 14 19  1  0
 15 23  1  0
 15 25  1  0
 16 22  1  0
 16 18  1  0
 17 23  1  0
 18 17  1  0
 19 18  2  0
 20 21  1  0
 20 14  2  0
 21 16  2  0
 22 15  1  0
 23 13  1  0
 25 27  2  0
 26 25  1  0
 28 26  1  0
 29 38  2  0
 29 34  1  0
 30 26  1  0
 30 34  1  0
 31 30  1  0
 32 33  1  0
 32 31  1  0
 33 29  1  0
 34 35  2  0
 35 36  1  0
 37 36  2  0
 38 37  1  0
 39 13  1  0
 39 44  1  0
 39 40  1  0
 40 43  1  1
 40 41  1  0
 42 40  1  0
 44 47  1  0
 45 49  1  0
 45 44  1  0
 46 45  2  0
 49 48  1  0
 51 52  1  0
 51 49  1  0
 51 50  1  0
 53 62  1  0
 54 62  1  0
 55 60  1  0
 56 57  1  0
 56 55  1  0
 58 57  1  0
 58 67  1  0
 58 59  1  0
 60 54  1  0
 60 59  1  0
 61 54  2  0
 62 63  1  0
 64 65  2  0
 65 84  1  0
 66 65  1  0
 66 69  1  0
 67 68  1  0
 67 64  1  0
 68 66  2  0
 69 70  1  0
 70 71  2  0
 72 75  1  0
 72 71  1  0
 73 72  2  0
 74 73  1  0
 74 69  2  0
 75 76  1  0
 76 77  1  0
 77 78  2  0
 79 78  1  0
 79 83  1  0
 80 79  2  0
 81 76  2  0
 81 80  1  0
 82 81  1  0
 84 85  1  0
 85 88  1  0
 85 87  1  0
 86 84  2  0
 89 90  1  0
 89 64  1  0
 91 89  1  0
M  ISO  4  11 101  12 101  54 100  62 100
M  END
>  <TORSDO>  (85) 
F 20

>  <SCORE>  (85) 
-13.362

>  <name>  (85) 
85

>  <ligand_id>  (85) 
85

>  <original_smiles>  (85) 
[H]c1c([H])c([H])c2c(c1[H])C([H])([H])C([H])([H])C([H])([H])C2([H])N([H])C(=O)C1([H])N(C(=O)C([H])(N([H])C(=O)C([H])(N([H])C([H])([H])[H])C([H])([H])[H])C(C([H])([H])[H])(C([H])([H])[H])C([H])([H])[H])C([H])([H])c2c([H])c(OC([H])([H])C([H])([H])C([H])([H])c3c([H])c([H])c(C([H])([H])N([H])C(=O)N4C([H])([H])C([H])([H])C([H])([H])C([H])(n5nc(-c6c([H])c([H])c(Oc7c([H])c([H])c(F)c([H])c7F)c([H])c6[H])c(C(=O)N([H])[H])c5N([H])[H])C4([H])[H])c(Cl)c3Cl)c([H])c([H])c2C1([H])[H]

>  <smiles>  (85) 
[H]c1c([H])c([H])c2c(c1[H])C([H])([H])C([H])([H])C([H])([H])C2([H])N([H])C(=O)C1([H])N(C(=O)C([H])(N([H])C(=O)C([H])(N([H])C([H])([H])[H])C([H])([H])[H])C(C([H])([H])[H])(C([H])([H])[H])C([H])([H])[H])C([H])([H])c2c([H])c(OC([H])([H])C([H])([H])C([H])([H])c3c([H])c([H])c(C([H])([H])N([H])C(=O)N4C([H])([H])C([H])([H])C([H])([H])C([H])(n5nc(-c6c([H])c([H])c(Oc7c([H])c([H])c(F)c([H])c7F)c([H])c6[H])c(C(=O)N([H])[H])c5N([H])[H])C4([H])[H])c(Cl)c3Cl)c([H])c([H])c2C1([H])[H]

$$$$
86:0:0
     RDKit          3D

 94102  0  0  1  0  0  0  0  0999 V2000
  -29.2380  -22.1530   21.3620 C   0  0  0  0  0  3  0  0  0  0  0  0
  -29.6570  -20.7310   21.3550 C   0  0  0  0  0  0  0  0  0  0  0  0
  -28.6410  -22.9350   20.2880 C   0  0  0  0  0  0  0  0  0  0  0  0
  -29.5180  -19.7910   20.2510 C   0  0  0  0  0  0  0  0  0  0  0  0
  -28.5080  -22.0030   19.1620 C   0  0  0  0  0  0  0  0  0  0  0  0
  -28.9100  -20.5570   19.1620 C   0  0  0  0  0  0  0  0  0  0  0  0
  -28.6460  -19.6250   17.7250 Cl  0  0  0  0  0  0  0  0  0  0  0  0
  -27.8780  -22.5490   17.8710 C   0  0  1  0  0  0  0  0  0  0  0  0
  -26.6860  -21.9800   17.6730 F   0  0  0  0  0  0  0  0  0  0  0  0
  -27.6900  -23.8670   17.8760 F   0  0  0  0  0  0  0  0  0  0  0  0
  -28.6590  -22.3000   16.8190 F   0  0  0  0  0  0  0  0  0  0  0  0
  -31.8070  -20.5760   22.6850 C   0  0  0  0  0  1  0  0  0  0  0  0
  -30.3170  -20.2180   22.6240 C   0  0  0  0  0  2  0  0  0  0  0  0
  -30.2550  -18.2190   20.1080 C   0  0  0  0  0  2  0  0  0  0  0  0
  -30.5920  -15.3750   20.1920 C   0  0  0  0  0  0  0  0  0  0  0  0
  -30.5640  -12.9300   19.3720 C   0  0  0  0  0  2  0  0  0  0  0  0
  -29.6350  -12.7070   18.1540 C   0  0  0  0  0  2  0  0  0  0  0  0
  -28.1940  -12.4340   18.6160 C   0  0  0  0  0  2  0  0  0  0  0  0
  -27.7430  -13.4170   19.7250 C   0  0  0  0  0  3  0  0  0  0  0  0
  -28.7990  -13.5960   20.8370 C   0  0  0  0  0  2  0  0  0  0  0  0
  -30.0240  -14.0780   20.1810 N   0  0  0  0  0  0  0  0  0  0  0  0
  -31.8050  -15.3850   19.9470 O   0  0  0  0  0  0  0  0  0  0  0  0
  -29.8390  -16.6360   20.2710 N   0  0  0  0  0  0  0  0  0  0  0  0
  -28.8530  -16.4930   20.4280 H   0  0  0  0  0  0  0  0  0  0  0  0
  -25.3880  -13.9630   20.5400 C   0  0  0  0  0  0  0  0  0  0  0  0
  -24.3320  -13.1770   20.9090 C   0  0  0  0  0  0  0  0  0  0  0  0
  -24.7950  -11.8280   20.8300 C   0  0  0  0  0  0  0  0  0  0  0  0
  -26.4240  -13.0930   20.2520 N   0  0  0  0  0  0  0  0  0  0  0  0
  -26.0800  -11.8010   20.4940 N   0  0  0  0  0  0  0  0  0  0  0  0
  -24.0690  -10.5610   20.9970 C   0  0  0  0  0  0  0  0  0  0  0  0
  -24.4540   -9.6110   21.9680 C   0  0  0  0  0  3  0  0  0  0  0  0
  -23.7260   -8.4110   22.1240 C   0  0  0  0  0  3  0  0  0  0  0  0
  -22.5990   -8.1540   21.3080 C   0  0  0  0  0  0  0  0  0  0  0  0
  -22.2330   -9.0940   20.3280 C   0  0  0  0  0  3  0  0  0  0  0  0
  -22.9610  -10.2850   20.1710 C   0  0  0  0  0  3  0  0  0  0  0  0
  -21.8470   -7.0040   21.3720 O   0  0  0  0  0  0  0  0  0  0  0  0
  -21.6560   -6.3330   22.5520 C   0  0  0  0  0  0  0  0  0  0  0  0
  -20.9890   -6.9260   23.6470 C   0  0  0  0  0  3  0  0  0  0  0  0
  -20.7520   -6.1770   24.8160 C   0  0  0  0  0  3  0  0  0  0  0  0
  -21.1730   -4.8360   24.8920 C   0  0  0  0  0  0  0  0  0  0  0  0
  -21.8320   -4.2420   23.8020 C   0  0  0  0  0  3  0  0  0  0  0  0
  -22.0700   -4.9880   22.6340 C   0  0  0  0  0  0  0  0  0  0  0  0
  -22.6870   -4.4050   21.5780 F   0  0  0  0  0  0  0  0  0  0  0  0
  -20.9390   -4.1140   26.0130 F   0  0  0  0  0  0  0  0  0  0  0  0
  -22.9410  -13.6490   21.2170 C   0  0  0  0  0  0  0  0  0  0  0  0
  -22.2290  -12.9340   22.0800 N   0  0  0  0  0  0  0  0  0  0  0  0
  -22.4960  -14.6860   20.7270 O   0  0  0  0  0  0  0  0  0  0  0  0
  -22.6020  -12.0950   22.4960 H   0  0  0  0  0  0  0  0  0  0  0  0
  -21.2960  -13.2320   22.3300 H   0  0  0  0  0  0  0  0  0  0  0  0
  -25.5470  -15.3380   20.3970 N   0  0  0  0  0  0  0  0  0  0  0  0
  -24.7770  -15.9840   20.5330 H   0  0  0  0  0  0  0  0  0  0  0  0
  -26.3750  -15.7840   20.0260 H   0  0  0  0  0  0  0  0  0  0  0  0
  -27.8870  -24.4850   20.5110 C   0  0  0  0  0  2  0  0  0  0  0  0
  -28.2580  -26.0480   20.2490 O   0  0  0  0  0  0  0  0  0  0  0  0
  -24.6580  -31.9650   23.2120 C   0  0  0  0  0  0  0  0  0  0  0  0
  -27.2390  -27.1270   20.2090 C   0  0  0  0  0  0  0  0  0  0  0  0
  -23.4600  -30.5360   21.6070 C   0  0  0  0  0  3  0  0  0  0  0  0
  -24.9110  -28.9510   20.1790 C   0  0  0  0  0  0  0  0  0  0  0  0
  -26.0190  -30.7950   21.4180 C   0  0  0  0  0  2  0  0  0  0  0  0
  -26.1010  -29.3830   20.7770 C   0  0  0  0  0  0  0  0  0  0  0  0
  -27.2620  -28.4920   20.7700 C   0  0  0  0  0  3  0  0  0  0  0  0
  -26.0190  -26.8460   19.5530 C   0  0  0  0  0  3  0  0  0  0  0  0
  -24.8930  -27.7010   19.5440 C   0  0  0  0  0  3  0  0  0  0  0  0
  -23.6790  -29.8470   20.2330 C   0  0  0  0  0  2  0  0  0  0  0  0
  -24.7340  -31.1260   22.1310 N   0  0  0  0  0  0  0  0  0  0  0  0
  -23.5710  -32.2430   23.7470 O   0  0  0  0  0  0  0  0  0  0  0  0
  -22.7980  -29.5360   22.5900 C   0  0  0  0  0  0  0  0  0  0  0  0
  -21.4820  -29.2920   22.4360 N   0  0  0  0  0  0  0  0  0  0  0  0
  -23.4740  -28.9800   23.4590 O   0  0  0  0  0  0  0  0  0  0  0  0
  -20.9890  -29.7940   21.7120 H   0  0  0  0  0  0  0  0  0  0  0  0
  -18.1770  -27.8560   22.8490 C   0  0  0  0  0  0  0  0  0  0  0  0
  -20.6910  -28.3400   23.2220 C   0  0  0  0  0  3  0  0  0  0  0  0
  -20.9320  -26.8890   22.7450 C   0  0  0  0  0  2  0  0  0  0  0  0
  -19.9140  -26.4200   21.7000 C   0  0  0  0  0  2  0  0  0  0  0  0
  -18.4920  -26.4900   22.2640 C   0  0  0  0  0  2  0  0  0  0  0  0
  -19.2090  -28.7300   23.2840 C   0  0  0  0  0  0  0  0  0  0  0  0
  -18.8590  -30.0010   23.7910 C   0  0  0  0  0  3  0  0  0  0  0  0
  -17.5120  -30.4020   23.8650 C   0  0  0  0  0  3  0  0  0  0  0  0
  -16.4950  -29.5270   23.4450 C   0  0  0  0  0  3  0  0  0  0  0  0
  -16.8270  -28.2570   22.9440 C   0  0  0  0  0  3  0  0  0  0  0  0
  -25.9290  -32.6320   23.8190 C   0  0  0  0  0  3  0  0  0  0  0  0
  -26.4790  -31.8730   25.0890 C   0  0  1  0  0  0  0  0  0  0  0  0
  -25.3960  -31.5620   26.1480 C   0  0  0  0  0  1  0  0  0  0  0  0
  -27.1400  -30.5340   24.6900 C   0  0  0  0  0  1  0  0  0  0  0  0
  -27.5820  -32.7210   25.7670 C   0  0  0  0  0  1  0  0  0  0  0  0
  -25.5880  -34.0220   24.1660 N   0  0  0  0  0  0  0  0  0  0  0  0
  -25.8800  -35.0950   23.4180 C   0  0  0  0  0  0  0  0  0  0  0  0
  -26.5290  -35.0190   22.3710 O   0  0  0  0  0  0  0  0  0  0  0  0
  -25.0070  -34.1520   24.9820 H   0  0  0  0  0  0  0  0  0  0  0  0
  -24.1140  -36.8660   23.1230 C   0  0  0  0  0  1  0  0  0  0  0  0
  -25.3760  -36.4680   23.9060 C   0  0  0  0  0  3  0  0  0  0  0  0
  -27.4990  -37.3900   24.7280 C   0  0  0  0  0  1  0  0  0  0  0  0
  -26.3870  -37.5420   23.7930 N   0  0  0  0  0  0  0  0  0  0  0  0
  -25.9640  -38.4520   23.9530 H   0  0  0  0  0  0  0  0  0  0  0  0
  2  1  1  0
  2 13  1  0
  3 53  1  0
  3  1  2  0
  4  2  2  0
  5  6  2  0
  5  3  1  0
  6  4  1  0
  7  6  1  0
  8 10  1  1
  8  5  1  0
  9  8  1  0
 11  8  1  0
 13 12  1  0
 14  4  1  0
 14 23  1  0
 15 23  1  0
 16 21  1  0
 17 18  1  0
 17 16  1  0
 19 18  1  0
 19 28  1  0
 19 20  1  0
 21 15  1  0
 21 20  1  0
 22 15  2  0
 23 24  1  0
 25 26  2  0
 26 45  1  0
 27 26  1  0
 27 30  1  0
 28 29  1  0
 28 25  1  0
 29 27  2  0
 30 31  1  0
 31 32  2  0
 33 36  1  0
 33 32  1  0
 34 33  2  0
 35 34  1  0
 35 30  2  0
 36 37  1  0
 37 42  2  0
 37 38  1  0
 38 39  2  0
 39 40  1  0
 40 44  1  0
 41 40  2  0
 42 41  1  0
 43 42  1  0
 45 46  1  0
 46 49  1  0
 46 48  1  0
 47 45  2  0
 50 51  1  0
 50 25  1  0
 52 50  1  0
 54 53  1  0
 55 66  2  0
 56 54  1  0
 56 61  1  0
 57 65  1  0
 57 67  1  0
 58 64  1  0
 58 60  1  0
 59 65  1  0
 60 59  1  0
 61 60  2  0
 62 56  2  0
 63 62  1  0
 63 58  2  0
 64 57  1  0
 65 55  1  0
 67 69  2  0
 68 67  1  0
 70 68  1  0
 71 80  2  0
 71 76  1  0
 72 68  1  0
 72 76  1  0
 73 72  1  0
 74 75  1  0
 74 73  1  0
 75 71  1  0
 76 77  2  0
 77 78  1  0
 79 78  2  0
 80 79  1  0
 81 55  1  0
 81 86  1  0
 81 82  1  0
 82 85  1  1
 82 83  1  0
 84 82  1  0
 86 89  1  0
 87 91  1  0
 87 86  1  0
 88 87  2  0
 91 90  1  0
 93 91  1  0
 93 94  1  0
 93 92  1  0
M  ISO  4  15 100  23 100  53 101  54 101
M  END
>  <TORSDO>  (86) 
F 20

>  <SCORE>  (86) 
-14.838

>  <name>  (86) 
86

>  <ligand_id>  (86) 
86

>  <original_smiles>  (86) 
[H]c1c([H])c([H])c2c(c1[H])C([H])([H])C([H])([H])C([H])([H])C2([H])N([H])C(=O)C1([H])N(C(=O)C([H])(N([H])C(=O)C([H])(N([H])C([H])([H])[H])C([H])([H])[H])C(C([H])([H])[H])(C([H])([H])[H])C([H])([H])[H])C([H])([H])c2c([H])c(OC([H])([H])c3c([H])c(C([H])([H])C([H])([H])[H])c(C([H])([H])N([H])C(=O)N4C([H])([H])C([H])([H])C([H])([H])C([H])(n5nc(-c6c([H])c([H])c(Oc7c([H])c([H])c(F)c([H])c7F)c([H])c6[H])c(C(=O)N([H])[H])c5N([H])[H])C4([H])[H])c(Cl)c3C(F)(F)F)c([H])c([H])c2C1([H])[H]

>  <smiles>  (86) 
[H]c1c([H])c([H])c2c(c1[H])C([H])([H])C([H])([H])C([H])([H])C2([H])N([H])C(=O)C1([H])N(C(=O)C([H])(N([H])C(=O)C([H])(N([H])C([H])([H])[H])C([H])([H])[H])C(C([H])([H])[H])(C([H])([H])[H])C([H])([H])[H])C([H])([H])c2c([H])c(OC([H])([H])c3c([H])c(C([H])([H])C([H])([H])[H])c(C([H])([H])N([H])C(=O)N4C([H])([H])C([H])([H])C([H])([H])C([H])(n5nc(-c6c([H])c([H])c(Oc7c([H])c([H])c(F)c([H])c7F)c([H])c6[H])c(C(=O)N([H])[H])c5N([H])[H])C4([H])[H])c(Cl)c3C(F)(F)F)c([H])c([H])c2C1([H])[H]

$$$$
87:0:0
     RDKit          3D

 96104  0  0  1  0  0  0  0  0999 V2000
  -30.7190  -18.5450   20.1700 C   0  0  0  0  0  3  0  0  0  0  0  0
  -30.8560  -18.0900   21.4980 C   0  0  0  0  0  0  0  0  0  0  0  0
  -30.6080  -19.0080   22.5560 C   0  0  0  0  0  0  0  0  0  0  0  0
  -30.3130  -20.8460   20.9260 C   0  0  0  0  0  0  0  0  0  0  0  0
  -30.4500  -19.8990   19.8780 C   0  0  0  0  0  0  0  0  0  0  0  0
  -30.3600  -20.3780   22.2640 C   0  0  0  0  0  0  0  0  0  0  0  0
  -30.6560  -18.5460   24.0090 C   0  0  0  0  0  1  0  0  0  0  0  0
  -30.3560  -20.3700   18.2170 Cl  0  0  0  0  0  0  0  0  0  0  0  0
  -30.1590  -21.5190   23.5560 Cl  0  0  0  0  0  0  0  0  0  0  0  0
  -31.4290  -16.6800   21.7360 C   0  0  0  0  0  2  0  0  0  0  0  0
  -31.2550  -14.5620   20.4100 C   0  0  0  0  0  0  0  0  0  0  0  0
  -30.8610  -12.4280   19.2240 C   0  0  0  0  0  2  0  0  0  0  0  0
  -29.9260  -12.6350   18.0160 C   0  0  0  0  0  2  0  0  0  0  0  0
  -28.4490  -12.5500   18.4470 C   0  0  0  0  0  2  0  0  0  0  0  0
  -28.1380  -13.4170   19.6960 C   0  0  0  0  0  3  0  0  0  0  0  0
  -29.1810  -13.1740   20.8090 C   0  0  0  0  0  2  0  0  0  0  0  0
  -30.5140  -13.4330   20.2420 N   0  0  0  0  0  0  0  0  0  0  0  0
  -32.3600  -14.7140   19.8810 O   0  0  0  0  0  0  0  0  0  0  0  0
  -30.7030  -15.5360   21.1610 N   0  0  0  0  0  0  0  0  0  0  0  0
  -29.7720  -15.3640   21.5100 H   0  0  0  0  0  0  0  0  0  0  0  0
  -25.7650  -14.1210   20.3970 C   0  0  0  0  0  0  0  0  0  0  0  0
  -24.6670  -13.3930   20.7660 C   0  0  0  0  0  0  0  0  0  0  0  0
  -25.0740  -12.0240   20.7420 C   0  0  0  0  0  0  0  0  0  0  0  0
  -26.7750  -13.1980   20.1730 N   0  0  0  0  0  0  0  0  0  0  0  0
  -26.3620  -11.9320   20.4390 N   0  0  0  0  0  0  0  0  0  0  0  0
  -24.2980  -10.7920   20.9340 C   0  0  0  0  0  0  0  0  0  0  0  0
  -24.6760   -9.8230   21.8910 C   0  0  0  0  0  3  0  0  0  0  0  0
  -23.9020   -8.6550   22.0700 C   0  0  0  0  0  3  0  0  0  0  0  0
  -22.7380   -8.4480   21.2930 C   0  0  0  0  0  0  0  0  0  0  0  0
  -22.3810   -9.4040   20.3270 C   0  0  0  0  0  3  0  0  0  0  0  0
  -23.1540  -10.5640   20.1450 C   0  0  0  0  0  3  0  0  0  0  0  0
  -21.9420   -7.3330   21.3800 O   0  0  0  0  0  0  0  0  0  0  0  0
  -21.8070   -6.6350   22.5520 C   0  0  0  0  0  0  0  0  0  0  0  0
  -21.3360   -7.2490   23.7350 C   0  0  0  0  0  3  0  0  0  0  0  0
  -21.1460   -6.4800   24.8990 C   0  0  0  0  0  3  0  0  0  0  0  0
  -21.4120   -5.0990   24.8840 C   0  0  0  0  0  0  0  0  0  0  0  0
  -21.8750   -4.4830   23.7070 C   0  0  0  0  0  3  0  0  0  0  0  0
  -22.0680   -5.2500   22.5440 C   0  0  0  0  0  0  0  0  0  0  0  0
  -22.4930   -4.6490   21.4060 F   0  0  0  0  0  0  0  0  0  0  0  0
  -21.2220   -4.3570   26.0010 F   0  0  0  0  0  0  0  0  0  0  0  0
  -23.2880  -13.9260   21.0310 C   0  0  0  0  0  0  0  0  0  0  0  0
  -22.5370  -13.2740   21.9130 N   0  0  0  0  0  0  0  0  0  0  0  0
  -22.8860  -14.9560   20.4920 O   0  0  0  0  0  0  0  0  0  0  0  0
  -22.8760  -12.4400   22.3690 H   0  0  0  0  0  0  0  0  0  0  0  0
  -21.6120  -13.6130   22.1330 H   0  0  0  0  0  0  0  0  0  0  0  0
  -25.9860  -15.4830   20.2140 N   0  0  0  0  0  0  0  0  0  0  0  0
  -25.2510  -16.1730   20.3270 H   0  0  0  0  0  0  0  0  0  0  0  0
  -26.8590  -15.8840   19.8940 H   0  0  0  0  0  0  0  0  0  0  0  0
  -30.2150  -22.3620   20.6370 C   0  0  0  0  0  2  0  0  0  0  0  0
  -27.8250  -22.5160   19.9690 C   0  0  0  0  0  1  0  0  0  0  0  0
  -28.8770  -22.9670   20.9140 N   0  0  2  0  0  4  0  0  0  0  0  0
  -28.6320  -22.5450   21.8020 H   0  0  0  0  0  0  0  0  0  0  0  0
  -27.7530  -24.7630   22.2230 C   0  0  0  0  0  1  0  0  0  0  0  0
  -28.8810  -24.4470   21.2210 C   0  0  0  0  0  3  0  0  0  0  0  0
  -28.8810  -25.3910   19.9710 C   0  0  0  0  0  2  0  0  0  0  0  0
  -28.7900  -26.8040   20.2850 O   0  0  0  0  0  0  0  0  0  0  0  0
  -24.6820  -31.8220   23.2460 C   0  0  0  0  0  0  0  0  0  0  0  0
  -27.5840  -27.4860   20.2150 C   0  0  0  0  0  0  0  0  0  0  0  0
  -23.5930  -30.4200   21.5270 C   0  0  0  0  0  3  0  0  0  0  0  0
  -25.1520  -28.9520   20.1430 C   0  0  0  0  0  0  0  0  0  0  0  0
  -26.1170  -30.8480   21.4530 C   0  0  0  0  0  2  0  0  0  0  0  0
  -26.2710  -29.4910   20.7900 C   0  0  0  0  0  0  0  0  0  0  0  0
  -27.4890  -28.7680   20.8180 C   0  0  0  0  0  3  0  0  0  0  0  0
  -26.4370  -26.9700   19.5660 C   0  0  0  0  0  3  0  0  0  0  0  0
  -25.2320  -27.6950   19.5280 C   0  0  0  0  0  3  0  0  0  0  0  0
  -23.8860  -29.7780   20.1460 C   0  0  0  0  0  2  0  0  0  0  0  0
  -24.8120  -31.0430   22.1350 N   0  0  0  0  0  0  0  0  0  0  0  0
  -23.5680  -32.0550   23.7390 O   0  0  0  0  0  0  0  0  0  0  0  0
  -22.9270  -29.3610   22.4360 C   0  0  0  0  0  0  0  0  0  0  0  0
  -21.6060  -29.1760   22.2720 N   0  0  0  0  0  0  0  0  0  0  0  0
  -23.5960  -28.7110   23.2450 O   0  0  0  0  0  0  0  0  0  0  0  0
  -21.1300  -29.7530   21.5940 H   0  0  0  0  0  0  0  0  0  0  0  0
  -18.2240  -27.9640   22.6700 C   0  0  0  0  0  0  0  0  0  0  0  0
  -20.7780  -28.2060   22.9890 C   0  0  0  0  0  3  0  0  0  0  0  0
  -20.8900  -26.8010   22.3530 C   0  0  0  0  0  2  0  0  0  0  0  0
  -19.8020  -26.5240   21.3130 C   0  0  0  0  0  2  0  0  0  0  0  0
  -18.4090  -26.6440   21.9420 C   0  0  0  0  0  2  0  0  0  0  0  0
  -19.3370  -28.7050   23.1490 C   0  0  0  0  0  0  0  0  0  0  0  0
  -19.1110  -29.9440   23.7880 C   0  0  0  0  0  3  0  0  0  0  0  0
  -17.8050  -30.4400   23.9550 C   0  0  0  0  0  3  0  0  0  0  0  0
  -16.7050  -29.6930   23.4950 C   0  0  0  0  0  3  0  0  0  0  0  0
  -16.9160  -28.4570   22.8570 C   0  0  0  0  0  3  0  0  0  0  0  0
  -25.9190  -32.4780   23.9350 C   0  0  0  0  0  3  0  0  0  0  0  0
  -25.5630  -33.8670   24.2520 N   0  0  0  0  0  0  0  0  0  0  0  0
  -25.9100  -34.9270   23.5120 C   0  0  0  0  0  0  0  0  0  0  0  0
  -26.6340  -34.8410   22.5150 O   0  0  0  0  0  0  0  0  0  0  0  0
  -24.9250  -34.0060   25.0220 H   0  0  0  0  0  0  0  0  0  0  0  0
  -24.1610  -36.6820   23.0760 C   0  0  0  0  0  1  0  0  0  0  0  0
  -25.3700  -36.3040   23.9450 C   0  0  0  0  0  3  0  0  0  0  0  0
  -27.4430  -37.2320   24.8760 C   0  0  0  0  0  1  0  0  0  0  0  0
  -26.3820  -37.3790   23.8830 N   0  0  0  0  0  0  0  0  0  0  0  0
  -25.9490  -38.2890   24.0180 H   0  0  0  0  0  0  0  0  0  0  0  0
  -26.3840  -31.7110   25.2340 C   0  0  1  0  0  0  0  0  0  0  0  0
  -25.2440  -31.4460   26.2430 C   0  0  0  0  0  1  0  0  0  0  0  0
  -27.0170  -30.3470   24.8670 C   0  0  0  0  0  1  0  0  0  0  0  0
  -27.4830  -32.5250   25.9570 C   0  0  0  0  0  1  0  0  0  0  0  0
  1  2  1  0
  2 10  1  0
  2  3  2  0
  3  7  1  0
  4  6  2  0
  5  1  2  0
  5  4  1  0
  6  3  1  0
  6  9  1  0
  8  5  1  0
 11 19  1  0
 12 17  1  0
 13 14  1  0
 13 12  1  0
 15 14  1  0
 15 24  1  0
 15 16  1  0
 17 11  1  0
 17 16  1  0
 18 11  2  0
 19 20  1  0
 19 10  1  0
 21 22  2  0
 22 41  1  0
 23 22  1  0
 23 26  1  0
 24 21  1  0
 24 25  1  0
 25 23  2  0
 26 27  1  0
 27 28  2  0
 29 32  1  0
 29 28  1  0
 30 29  2  0
 31 30  1  0
 31 26  2  0
 32 33  1  0
 33 34  1  0
 34 35  2  0
 36 35  1  0
 36 40  1  0
 37 36  2  0
 38 33  2  0
 38 37  1  0
 39 38  1  0
 41 42  1  0
 42 45  1  0
 42 44  1  0
 43 41  2  0
 46 47  1  0
 46 21  1  0
 48 46  1  0
 49 51  1  0
 49  4  1  0
 50 51  1  0
 51 54  1  0
 51 52  1  1
 54 53  1  0
 55 56  1  0
 55 54  1  0
 57 68  2  0
 58 56  1  0
 58 63  1  0
 59 67  1  0
 59 69  1  0
 60 66  1  0
 60 62  1  0
 61 67  1  0
 62 63  2  0
 62 61  1  0
 64 58  2  0
 65 64  1  0
 65 60  2  0
 66 59  1  0
 67 57  1  0
 69 71  2  0
 70 69  1  0
 72 70  1  0
 73 82  2  0
 73 78  1  0
 74 70  1  0
 74 78  1  0
 75 74  1  0
 76 77  1  0
 76 75  1  0
 77 73  1  0
 78 79  2  0
 79 80  1  0
 81 80  2  0
 82 81  1  0
 83 57  1  0
 83 84  1  0
 83 93  1  0
 84 87  1  0
 85 89  1  0
 85 84  1  0
 86 85  2  0
 89 88  1  0
 91 89  1  0
 91 92  1  0
 91 90  1  0
 93 96  1  1
 93 94  1  0
 95 93  1  0
M  ISO  4  11 100  19 100  55 101  56 101
M  END
>  <TORSDO>  (87) 
F 21

>  <SCORE>  (87) 
-12.413

>  <name>  (87) 
87

>  <ligand_id>  (87) 
87

>  <original_smiles>  (87) 
[H]c1c([H])c([H])c2c(c1[H])C([H])([H])C([H])([H])C([H])([H])C2([H])N([H])C(=O)C1([H])N(C(=O)C([H])(N([H])C(=O)C([H])(N([H])C([H])([H])[H])C([H])([H])[H])C(C([H])([H])[H])(C([H])([H])[H])C([H])([H])[H])C([H])([H])c2c([H])c(OC([H])([H])C([H])(C([H])([H])[H])[N+]([H])(C([H])([H])[H])C([H])([H])c3c(Cl)c([H])c(C([H])([H])N([H])C(=O)N4C([H])([H])C([H])([H])C([H])([H])C([H])(n5nc(-c6c([H])c([H])c(Oc7c([H])c([H])c(F)c([H])c7F)c([H])c6[H])c(C(=O)N([H])[H])c5N([H])[H])C4([H])[H])c(C([H])([H])[H])c3Cl)c([H])c([H])c2C1([H])[H]

>  <smiles>  (87) 
[H]c1c([H])c([H])c2c(c1[H])C([H])([H])C([H])([H])C([H])([H])C2([H])N([H])C(=O)C1([H])N(C(=O)C([H])(N([H])C(=O)C([H])(N([H])C([H])([H])[H])C([H])([H])[H])C(C([H])([H])[H])(C([H])([H])[H])C([H])([H])[H])C([H])([H])c2c([H])c(OC([H])([H])C([H])(C([H])([H])[H])[N+]([H])(C([H])([H])[H])C([H])([H])c3c(Cl)c([H])c(C([H])([H])N([H])C(=O)N4C([H])([H])C([H])([H])C([H])([H])C([H])(n5nc(-c6c([H])c([H])c(Oc7c([H])c([H])c(F)c([H])c7F)c([H])c6[H])c(C(=O)N([H])[H])c5N([H])[H])C4([H])[H])c(C([H])([H])[H])c3Cl)c([H])c([H])c2C1([H])[H]

$$$$
89:0:0
     RDKit          3D

 91 99  0  0  1  0  0  0  0  0999 V2000
  -28.9550  -22.5920   21.1470 C   0  0  0  0  0  0  0  0  0  0  0  0
  -29.3740  -21.4960   20.2780 C   0  0  0  0  0  0  0  0  0  0  0  0
  -28.6360  -23.7470   20.4220 C   0  0  0  0  0  0  0  0  0  0  0  0
  -29.2560  -22.0350   19.0180 C   0  0  0  0  0  0  0  0  0  0  0  0
  -28.8860  -22.4930   22.6520 C   0  0  0  0  0  1  0  0  0  0  0  0
  -29.5710  -21.3890   17.7020 C   0  0  0  0  0  1  0  0  0  0  0  0
  -28.6040  -24.2610   17.9590 C   0  0  0  0  0  1  0  0  0  0  0  0
  -28.8220  -23.3750   19.0940 N   0  0  0  0  0  0  0  0  0  0  0  0
  -30.0040  -20.0770   20.6720 C   0  0  0  0  0  2  0  0  0  0  0  0
  -29.4140  -18.6180   20.2920 C   0  0  0  0  0  3  0  0  0  0  0  0
  -30.3710  -17.3470   20.6130 C   0  0  0  0  0  3  0  0  0  0  0  0
  -30.6380  -14.7640   20.2470 C   0  0  0  0  0  0  0  0  0  0  0  0
  -30.4110  -12.5030   19.2130 C   0  0  0  0  0  2  0  0  0  0  0  0
  -29.4550  -12.5850   18.0030 C   0  0  0  0  0  2  0  0  0  0  0  0
  -27.9940  -12.4060   18.4580 C   0  0  0  0  0  2  0  0  0  0  0  0
  -27.6370  -13.2870   19.6850 C   0  0  0  0  0  3  0  0  0  0  0  0
  -28.7120  -13.1960   20.7900 C   0  0  0  0  0  2  0  0  0  0  0  0
  -29.9980  -13.5480   20.1750 N   0  0  0  0  0  0  0  0  0  0  0  0
  -31.8210  -14.8590   19.9130 O   0  0  0  0  0  0  0  0  0  0  0  0
  -29.8890  -15.9020   20.5010 N   0  0  0  0  0  0  0  0  0  0  0  0
  -28.9130  -15.7390   20.7000 H   0  0  0  0  0  0  0  0  0  0  0  0
  -25.2550  -13.8630   20.4420 C   0  0  0  0  0  0  0  0  0  0  0  0
  -24.2010  -13.0820   20.8260 C   0  0  0  0  0  0  0  0  0  0  0  0
  -24.6720  -11.7340   20.7900 C   0  0  0  0  0  0  0  0  0  0  0  0
  -26.3020  -12.9900   20.1930 N   0  0  0  0  0  0  0  0  0  0  0  0
  -25.9590  -11.7050   20.4660 N   0  0  0  0  0  0  0  0  0  0  0  0
  -23.9570  -10.4660   20.9880 C   0  0  0  0  0  0  0  0  0  0  0  0
  -24.3960   -9.5100   21.9310 C   0  0  0  0  0  3  0  0  0  0  0  0
  -23.6800   -8.3080   22.1160 C   0  0  0  0  0  3  0  0  0  0  0  0
  -22.5110   -8.0540   21.3600 C   0  0  0  0  0  0  0  0  0  0  0  0
  -22.0930   -8.9990   20.4060 C   0  0  0  0  0  3  0  0  0  0  0  0
  -22.8090  -10.1920   20.2190 C   0  0  0  0  0  3  0  0  0  0  0  0
  -21.7660   -6.9030   21.4540 O   0  0  0  0  0  0  0  0  0  0  0  0
  -21.7090   -6.1760   22.6160 C   0  0  0  0  0  0  0  0  0  0  0  0
  -21.2380   -6.7370   23.8240 C   0  0  0  0  0  3  0  0  0  0  0  0
  -21.1320   -5.9350   24.9780 C   0  0  0  0  0  3  0  0  0  0  0  0
  -21.4850   -4.5740   24.9250 C   0  0  0  0  0  0  0  0  0  0  0  0
  -21.9500   -4.0130   23.7220 C   0  0  0  0  0  3  0  0  0  0  0  0
  -22.0580   -4.8110   22.5710 C   0  0  0  0  0  0  0  0  0  0  0  0
  -22.4860   -4.2610   21.4090 F   0  0  0  0  0  0  0  0  0  0  0  0
  -21.3760   -3.8000   26.0320 F   0  0  0  0  0  0  0  0  0  0  0  0
  -22.8030  -13.5490   21.1130 C   0  0  0  0  0  0  0  0  0  0  0  0
  -22.0890  -12.8430   21.9820 N   0  0  0  0  0  0  0  0  0  0  0  0
  -22.3540  -14.5750   20.6020 O   0  0  0  0  0  0  0  0  0  0  0  0
  -22.4670  -12.0130   22.4150 H   0  0  0  0  0  0  0  0  0  0  0  0
  -21.1510  -13.1350   22.2180 H   0  0  0  0  0  0  0  0  0  0  0  0
  -25.4080  -15.2340   20.2580 N   0  0  0  0  0  0  0  0  0  0  0  0
  -24.6350  -15.8820   20.3680 H   0  0  0  0  0  0  0  0  0  0  0  0
  -26.2410  -15.6740   19.8890 H   0  0  0  0  0  0  0  0  0  0  0  0
  -28.0510  -25.1330   20.9310 C   0  0  0  0  0  2  0  0  0  0  0  0
  -28.3200  -26.4090   20.1980 O   0  0  0  0  0  0  0  0  0  0  0  0
  -24.6170  -31.8880   23.2370 C   0  0  0  0  0  0  0  0  0  0  0  0
  -27.2430  -27.3210   20.1780 C   0  0  0  0  0  0  0  0  0  0  0  0
  -23.4220  -30.4890   21.5920 C   0  0  0  0  0  3  0  0  0  0  0  0
  -24.8810  -28.9460   20.1630 C   0  0  0  0  0  0  0  0  0  0  0  0
  -25.9630  -30.8110   21.4150 C   0  0  0  0  0  2  0  0  0  0  0  0
  -26.0510  -29.4320   20.7630 C   0  0  0  0  0  0  0  0  0  0  0  0
  -27.2400  -28.6320   20.7580 C   0  0  0  0  0  3  0  0  0  0  0  0
  -26.0530  -26.9000   19.5500 C   0  0  0  0  0  3  0  0  0  0  0  0
  -24.8860  -27.6880   19.5450 C   0  0  0  0  0  3  0  0  0  0  0  0
  -23.6420  -29.8180   20.2110 C   0  0  0  0  0  2  0  0  0  0  0  0
  -24.6850  -31.0810   22.1380 N   0  0  0  0  0  0  0  0  0  0  0  0
  -23.5310  -32.1610   23.7690 O   0  0  0  0  0  0  0  0  0  0  0  0
  -22.7590  -29.4690   22.5480 C   0  0  0  0  0  0  0  0  0  0  0  0
  -21.4340  -29.2850   22.4170 N   0  0  0  0  0  0  0  0  0  0  0  0
  -23.4370  -28.8470   23.3700 O   0  0  0  0  0  0  0  0  0  0  0  0
  -20.9450  -29.8400   21.7290 H   0  0  0  0  0  0  0  0  0  0  0  0
  -18.0600  -28.0750   22.9150 C   0  0  0  0  0  0  0  0  0  0  0  0
  -20.6180  -28.3420   23.1840 C   0  0  0  0  0  3  0  0  0  0  0  0
  -20.7230  -26.9120   22.6040 C   0  0  0  0  0  2  0  0  0  0  0  0
  -19.6220  -26.5910   21.5880 C   0  0  0  0  0  2  0  0  0  0  0  0
  -18.2400  -26.7300   22.2330 C   0  0  0  0  0  2  0  0  0  0  0  0
  -19.1760  -28.8390   23.3470 C   0  0  0  0  0  0  0  0  0  0  0  0
  -18.9540  -30.0990   23.9440 C   0  0  0  0  0  3  0  0  0  0  0  0
  -17.6490  -30.5960   24.1130 C   0  0  0  0  0  3  0  0  0  0  0  0
  -16.5460  -29.8300   23.6970 C   0  0  0  0  0  3  0  0  0  0  0  0
  -16.7530  -28.5710   23.1040 C   0  0  0  0  0  3  0  0  0  0  0  0
  -25.8940  -32.5250   23.8630 C   0  0  0  0  0  3  0  0  0  0  0  0
  -26.3990  -31.7650   25.1510 C   0  0  1  0  0  0  0  0  0  0  0  0
  -25.2960  -31.5380   26.2100 C   0  0  0  0  0  1  0  0  0  0  0  0
  -26.9860  -30.3840   24.7780 C   0  0  0  0  0  1  0  0  0  0  0  0
  -27.5430  -32.5680   25.8150 C   0  0  0  0  0  1  0  0  0  0  0  0
  -25.5840  -33.9270   24.1790 N   0  0  0  0  0  0  0  0  0  0  0  0
  -25.9280  -34.9750   23.4180 C   0  0  0  0  0  0  0  0  0  0  0  0
  -26.6110  -34.8620   22.3960 O   0  0  0  0  0  0  0  0  0  0  0  0
  -24.9800  -34.0870   24.9720 H   0  0  0  0  0  0  0  0  0  0  0  0
  -24.2190  -36.7770   23.0220 C   0  0  0  0  0  1  0  0  0  0  0  0
  -25.4400  -36.3670   23.8610 C   0  0  0  0  0  3  0  0  0  0  0  0
  -27.5610  -37.2440   24.7370 C   0  0  0  0  0  1  0  0  0  0  0  0
  -26.4810  -37.4140   23.7670 N   0  0  0  0  0  0  0  0  0  0  0  0
  -26.0780  -38.3370   23.9020 H   0  0  0  0  0  0  0  0  0  0  0  0
  1  5  1  0
  2  9  1  0
  2  1  1  0
  3 50  1  0
  3  1  2  0
  4  8  1  0
  4  2  2  0
  6  4  1  0
  7  8  1  0
  8  3  1  0
 10 11  2  0
 10  9  1  0
 12 20  1  0
 13 18  1  0
 14 15  1  0
 14 13  1  0
 16 15  1  0
 16 25  1  0
 16 17  1  0
 18 12  1  0
 18 17  1  0
 19 12  2  0
 20 11  1  0
 20 21  1  0
 22 23  2  0
 23 42  1  0
 24 23  1  0
 24 27  1  0
 25 22  1  0
 25 26  1  0
 26 24  2  0
 27 28  1  0
 28 29  2  0
 30 33  1  0
 30 29  1  0
 31 30  2  0
 32 31  1  0
 32 27  2  0
 33 34  1  0
 34 35  1  0
 35 36  2  0
 37 36  1  0
 37 41  1  0
 38 37  2  0
 39 34  2  0
 39 38  1  0
 40 39  1  0
 42 43  1  0
 43 46  1  0
 43 45  1  0
 44 42  2  0
 47 48  1  0
 47 22  1  0
 49 47  1  0
 51 50  1  0
 52 63  2  0
 53 51  1  0
 53 58  1  0
 54 62  1  0
 54 64  1  0
 55 61  1  0
 55 57  1  0
 56 62  1  0
 57 56  1  0
 58 57  2  0
 59 53  2  0
 60 59  1  0
 60 55  2  0
 61 54  1  0
 62 52  1  0
 64 66  2  0
 65 64  1  0
 67 65  1  0
 68 77  2  0
 68 73  1  0
 69 65  1  0
 69 73  1  0
 70 69  1  0
 71 72  1  0
 71 70  1  0
 72 68  1  0
 73 74  2  0
 74 75  1  0
 76 75  2  0
 77 76  1  0
 78 52  1  0
 78 83  1  0
 78 79  1  0
 79 82  1  1
 79 80  1  0
 81 79  1  0
 83 86  1  0
 84 88  1  0
 84 83  1  0
 85 84  2  0
 88 87  1  0
 90 88  1  0
 90 91  1  0
 90 89  1  0
M  ISO  4  12 100  20 100  50 101  51 101
M  END
>  <TORSDO>  (88) 
F 20

>  <SCORE>  (88) 
-13.758

>  <name>  (88) 
89

>  <ligand_id>  (88) 
89

>  <original_smiles>  (88) 
[H]c1c([H])c([H])c2c(c1[H])C([H])([H])C([H])([H])C([H])([H])C2([H])N([H])C(=O)C1([H])N(C(=O)C([H])(N([H])C(=O)C([H])(N([H])C([H])([H])[H])C([H])([H])[H])C(C([H])([H])[H])(C([H])([H])[H])C([H])([H])[H])C([H])([H])c2c([H])c(OC([H])([H])c3c(C([H])([H])[H])c(C([H])([H])C([H])([H])C([H])([H])N([H])C(=O)N4C([H])([H])C([H])([H])C([H])([H])C([H])(n5nc(-c6c([H])c([H])c(Oc7c([H])c([H])c(F)c([H])c7F)c([H])c6[H])c(C(=O)N([H])[H])c5N([H])[H])C4([H])[H])c(C([H])([H])[H])n3C([H])([H])[H])c([H])c([H])c2C1([H])[H]

>  <smiles>  (88) 
[H]c1c([H])c([H])c2c(c1[H])C([H])([H])C([H])([H])C([H])([H])C2([H])N([H])C(=O)C1([H])N(C(=O)C([H])(N([H])C(=O)C([H])(N([H])C([H])([H])[H])C([H])([H])[H])C(C([H])([H])[H])(C([H])([H])[H])C([H])([H])[H])C([H])([H])c2c([H])c(OC([H])([H])c3c(C([H])([H])[H])c(C([H])([H])C([H])([H])C([H])([H])N([H])C(=O)N4C([H])([H])C([H])([H])C([H])([H])C([H])(n5nc(-c6c([H])c([H])c(Oc7c([H])c([H])c(F)c([H])c7F)c([H])c6[H])c(C(=O)N([H])[H])c5N([H])[H])C4([H])[H])c(C([H])([H])[H])n3C([H])([H])[H])c([H])c([H])c2C1([H])[H]

$$$$
90:0:0
     RDKit          3D

 89 97  0  0  1  0  0  0  0  0999 V2000
  -29.4290  -20.6890   20.5970 C   0  0  0  0  0  0  0  0  0  0  0  0
  -30.1200  -20.5540   21.8440 C   0  0  0  0  0  0  0  0  0  0  0  0
  -28.9960  -22.2570   20.6400 C   0  0  0  0  0  0  0  0  0  0  0  0
  -30.1690  -21.6980   22.5390 C   0  0  0  0  0  0  0  0  0  0  0  0
  -29.5160  -24.0770   22.4050 C   0  0  0  0  0  1  0  0  0  0  0  0
  -29.5510  -22.7160   21.8670 N   0  0  0  0  0  0  0  0  0  0  0  0
  -30.8800  -19.1200   22.4450 Cl  0  0  0  0  0  0  0  0  0  0  0  0
  -30.9370  -21.8990   24.0740 Cl  0  0  0  0  0  0  0  0  0  0  0  0
  -29.5770  -18.9640   19.7850 C   0  0  0  0  0  2  0  0  0  0  0  0
  -30.3870  -15.8260   20.0680 C   0  0  0  0  0  0  0  0  0  0  0  0
  -30.4930  -13.2420   19.3350 C   0  0  0  0  0  2  0  0  0  0  0  0
  -29.5940  -12.7950   18.1440 C   0  0  0  0  0  2  0  0  0  0  0  0
  -28.1810  -12.4390   18.6190 C   0  0  0  0  0  2  0  0  0  0  0  0
  -27.6790  -13.4570   19.6700 C   0  0  0  0  0  3  0  0  0  0  0  0
  -28.7220  -13.8190   20.7590 C   0  0  0  0  0  2  0  0  0  0  0  0
  -29.8810  -14.4440   20.0770 N   0  0  0  0  0  0  0  0  0  0  0  0
  -31.6010  -15.7620   19.7870 O   0  0  0  0  0  0  0  0  0  0  0  0
  -29.6280  -17.1990   20.1890 N   0  0  0  0  0  0  0  0  0  0  0  0
  -28.7130  -16.9620   20.5420 H   0  0  0  0  0  0  0  0  0  0  0  0
  -25.3510  -13.9840   20.5350 C   0  0  0  0  0  0  0  0  0  0  0  0
  -24.2990  -13.2030   20.9200 C   0  0  0  0  0  0  0  0  0  0  0  0
  -24.7540  -11.8500   20.8340 C   0  0  0  0  0  0  0  0  0  0  0  0
  -26.3770  -13.1100   20.2270 N   0  0  0  0  0  0  0  0  0  0  0  0
  -26.0360  -11.8160   20.4750 N   0  0  0  0  0  0  0  0  0  0  0  0
  -24.0180  -10.5900   21.0160 C   0  0  0  0  0  0  0  0  0  0  0  0
  -24.4590   -9.6010   21.9250 C   0  0  0  0  0  3  0  0  0  0  0  0
  -23.7230   -8.4090   22.1030 C   0  0  0  0  0  3  0  0  0  0  0  0
  -22.5310   -8.1960   21.3700 C   0  0  0  0  0  0  0  0  0  0  0  0
  -22.1080   -9.1710   20.4490 C   0  0  0  0  0  3  0  0  0  0  0  0
  -22.8440  -10.3540   20.2710 C   0  0  0  0  0  3  0  0  0  0  0  0
  -21.7680   -7.0560   21.4550 O   0  0  0  0  0  0  0  0  0  0  0  0
  -21.7190   -6.3020   22.6010 C   0  0  0  0  0  0  0  0  0  0  0  0
  -21.2790   -6.8430   23.8290 C   0  0  0  0  0  3  0  0  0  0  0  0
  -21.1820   -6.0190   24.9680 C   0  0  0  0  0  3  0  0  0  0  0  0
  -21.5120   -4.6550   24.8790 C   0  0  0  0  0  0  0  0  0  0  0  0
  -21.9450   -4.1120   23.6570 C   0  0  0  0  0  3  0  0  0  0  0  0
  -22.0440   -4.9340   22.5210 C   0  0  0  0  0  0  0  0  0  0  0  0
  -22.4430   -4.4030   21.3400 F   0  0  0  0  0  0  0  0  0  0  0  0
  -21.4100   -3.8600   25.9700 F   0  0  0  0  0  0  0  0  0  0  0  0
  -22.9150  -13.6830   21.2430 C   0  0  0  0  0  0  0  0  0  0  0  0
  -22.2040  -12.9750   22.1130 N   0  0  0  0  0  0  0  0  0  0  0  0
  -22.4740  -14.7220   20.7540 O   0  0  0  0  0  0  0  0  0  0  0  0
  -22.5760  -12.1370   22.5370 H   0  0  0  0  0  0  0  0  0  0  0  0
  -21.2750  -13.2790   22.3610 H   0  0  0  0  0  0  0  0  0  0  0  0
  -25.5210  -15.3570   20.3840 N   0  0  0  0  0  0  0  0  0  0  0  0
  -24.7720  -16.0220   20.5470 H   0  0  0  0  0  0  0  0  0  0  0  0
  -26.3570  -15.7870   20.0110 H   0  0  0  0  0  0  0  0  0  0  0  0
  -28.1140  -23.7960   19.9870 C   0  0  0  0  0  2  0  0  0  0  0  0
  -28.1410  -25.5370   20.3680 O   0  0  0  0  0  0  0  0  0  0  0  0
  -24.6570  -31.8650   23.2390 C   0  0  0  0  0  0  0  0  0  0  0  0
  -27.1760  -26.7640   20.2430 C   0  0  0  0  0  0  0  0  0  0  0  0
  -23.4590  -30.4580   21.6150 C   0  0  0  0  0  3  0  0  0  0  0  0
  -24.9020  -28.8100   20.1870 C   0  0  0  0  0  0  0  0  0  0  0  0
  -26.0360  -30.6000   21.4760 C   0  0  0  0  0  2  0  0  0  0  0  0
  -26.0970  -29.1630   20.8220 C   0  0  0  0  0  0  0  0  0  0  0  0
  -27.2110  -28.1670   20.8230 C   0  0  0  0  0  3  0  0  0  0  0  0
  -25.9490  -26.6320   19.5400 C   0  0  0  0  0  3  0  0  0  0  0  0
  -24.8690  -27.5700   19.5210 C   0  0  0  0  0  3  0  0  0  0  0  0
  -23.6920  -29.7570   20.2430 C   0  0  0  0  0  2  0  0  0  0  0  0
  -24.7420  -31.0090   22.1620 N   0  0  0  0  0  0  0  0  0  0  0  0
  -23.5670  -32.1670   23.7530 O   0  0  0  0  0  0  0  0  0  0  0  0
  -22.7490  -29.4860   22.5950 C   0  0  0  0  0  0  0  0  0  0  0  0
  -21.4190  -29.3200   22.4690 N   0  0  0  0  0  0  0  0  0  0  0  0
  -23.4070  -28.8800   23.4450 O   0  0  0  0  0  0  0  0  0  0  0  0
  -20.9350  -29.8600   21.7660 H   0  0  0  0  0  0  0  0  0  0  0  0
  -18.0490  -28.0480   22.9560 C   0  0  0  0  0  0  0  0  0  0  0  0
  -20.5980  -28.3830   23.2480 C   0  0  0  0  0  3  0  0  0  0  0  0
  -20.7420  -26.9410   22.7070 C   0  0  0  0  0  2  0  0  0  0  0  0
  -19.6620  -26.5720   21.6830 C   0  0  0  0  0  2  0  0  0  0  0  0
  -18.2680  -26.6940   22.3060 C   0  0  0  0  0  2  0  0  0  0  0  0
  -19.1420  -28.8480   23.3840 C   0  0  0  0  0  0  0  0  0  0  0  0
  -18.8800  -30.1100   23.9590 C   0  0  0  0  0  3  0  0  0  0  0  0
  -17.5580  -30.5740   24.1100 C   0  0  0  0  0  3  0  0  0  0  0  0
  -16.4800  -29.7730   23.6950 C   0  0  0  0  0  3  0  0  0  0  0  0
  -16.7270  -28.5120   23.1240 C   0  0  0  0  0  3  0  0  0  0  0  0
  -25.9240  -32.5170   23.8730 C   0  0  0  0  0  3  0  0  0  0  0  0
  -25.6050  -33.9220   24.2010 N   0  0  0  0  0  0  0  0  0  0  0  0
  -25.9350  -34.9820   23.4510 C   0  0  0  0  0  0  0  0  0  0  0  0
  -26.5950  -34.8820   22.4150 O   0  0  0  0  0  0  0  0  0  0  0  0
  -25.0150  -34.0740   25.0050 H   0  0  0  0  0  0  0  0  0  0  0  0
  -24.1950  -36.7820   23.1550 C   0  0  0  0  0  1  0  0  0  0  0  0
  -25.4630  -36.3770   23.9240 C   0  0  0  0  0  3  0  0  0  0  0  0
  -27.6170  -37.2760   24.6900 C   0  0  0  0  0  1  0  0  0  0  0  0
  -26.4910  -37.4300   23.7740 N   0  0  0  0  0  0  0  0  0  0  0  0
  -26.0870  -38.3520   23.9210 H   0  0  0  0  0  0  0  0  0  0  0  0
  -26.4230  -31.7640   25.1690 C   0  0  1  0  0  0  0  0  0  0  0  0
  -25.3180  -31.5520   26.2300 C   0  0  0  0  0  1  0  0  0  0  0  0
  -27.0060  -30.3760   24.8180 C   0  0  0  0  0  1  0  0  0  0  0  0
  -27.5720  -32.5660   25.8290 C   0  0  0  0  0  1  0  0  0  0  0  0
  1  3  2  0
  1  2  1  0
  2  7  1  0
  2  4  2  0
  3  6  1  0
  4  8  1  0
  6  5  1  0
  6  4  1  0
  9 18  1  0
  9  1  1  0
 10 16  1  0
 10 18  1  0
 11 16  1  0
 12 13  1  0
 12 11  1  0
 14 13  1  0
 14 23  1  0
 14 15  1  0
 16 15  1  0
 17 10  2  0
 18 19  1  0
 20 21  2  0
 21 40  1  0
 22 21  1  0
 22 25  1  0
 23 24  1  0
 23 20  1  0
 24 22  2  0
 25 26  1  0
 26 27  2  0
 28 31  1  0
 28 27  1  0
 29 28  2  0
 30 29  1  0
 30 25  2  0
 31 32  1  0
 32 33  1  0
 33 34  2  0
 35 34  1  0
 35 39  1  0
 36 35  2  0
 37 32  2  0
 37 36  1  0
 38 37  1  0
 40 41  1  0
 41 44  1  0
 41 43  1  0
 42 40  2  0
 45 20  1  0
 45 46  1  0
 47 45  1  0
 48 49  1  0
 48  3  1  0
 50 61  2  0
 51 49  1  0
 51 56  1  0
 52 60  1  0
 52 62  1  0
 53 59  1  0
 53 55  1  0
 54 60  1  0
 55 56  2  0
 55 54  1  0
 57 51  2  0
 58 57  1  0
 58 53  2  0
 59 52  1  0
 60 50  1  0
 62 64  2  0
 63 62  1  0
 65 63  1  0
 66 75  2  0
 66 71  1  0
 67 63  1  0
 67 71  1  0
 68 67  1  0
 69 70  1  0
 69 68  1  0
 70 66  1  0
 71 72  2  0
 72 73  1  0
 74 73  2  0
 75 74  1  0
 76 50  1  0
 76 77  1  0
 76 86  1  0
 77 80  1  0
 78 82  1  0
 78 77  1  0
 79 78  2  0
 82 81  1  0
 84 85  1  0
 84 82  1  0
 84 83  1  0
 86 89  1  1
 86 87  1  0
 88 86  1  0
M  ISO  4  10 100  18 100  48 101  49 101
M  END
>  <TORSDO>  (89) 
F 18

>  <SCORE>  (89) 
-16.865

>  <name>  (89) 
90

>  <ligand_id>  (89) 
90

>  <original_smiles>  (89) 
[H]c1c([H])c([H])c2c(c1[H])C([H])([H])C([H])([H])C([H])([H])C2([H])N([H])C(=O)C1([H])N(C(=O)C([H])(N([H])C(=O)C([H])(N([H])C([H])([H])[H])C([H])([H])[H])C(C([H])([H])[H])(C([H])([H])[H])C([H])([H])[H])C([H])([H])c2c([H])c(OC([H])([H])c3c(C([H])([H])N([H])C(=O)N4C([H])([H])C([H])([H])C([H])([H])C([H])(n5nc(-c6c([H])c([H])c(Oc7c([H])c([H])c(F)c([H])c7F)c([H])c6[H])c(C(=O)N([H])[H])c5N([H])[H])C4([H])[H])c(Cl)c(Cl)n3C([H])([H])[H])c([H])c([H])c2C1([H])[H]

>  <smiles>  (89) 
[H]c1c([H])c([H])c2c(c1[H])C([H])([H])C([H])([H])C([H])([H])C2([H])N([H])C(=O)C1([H])N(C(=O)C([H])(N([H])C(=O)C([H])(N([H])C([H])([H])[H])C([H])([H])[H])C(C([H])([H])[H])(C([H])([H])[H])C([H])([H])[H])C([H])([H])c2c([H])c(OC([H])([H])c3c(C([H])([H])N([H])C(=O)N4C([H])([H])C([H])([H])C([H])([H])C([H])(n5nc(-c6c([H])c([H])c(Oc7c([H])c([H])c(F)c([H])c7F)c([H])c6[H])c(C(=O)N([H])[H])c5N([H])[H])C4([H])[H])c(Cl)c(Cl)n3C([H])([H])[H])c([H])c([H])c2C1([H])[H]

$$$$
91:0:0
     RDKit          3D

103111  0  0  1  0  0  0  0  0999 V2000
  -29.2510  -23.2240   23.5620 C   0  0  0  0  0  3  0  0  0  0  0  0
  -28.5230  -23.6700   22.4440 C   0  0  0  0  0  0  0  0  0  0  0  0
  -30.5200  -21.6650   22.1600 C   0  0  0  0  0  0  0  0  0  0  0  0
  -30.2270  -22.2230   23.4330 C   0  0  0  0  0  0  0  0  0  0  0  0
  -28.7080  -23.0260   21.1960 C   0  0  0  0  0  0  0  0  0  0  0  0
  -29.7130  -22.0420   21.0500 C   0  0  0  0  0  0  0  0  0  0  0  0
  -31.0360  -21.7060   24.8710 Cl  0  0  0  0  0  0  0  0  0  0  0  0
  -27.7460  -23.4720   19.8250 Cl  0  0  0  0  0  0  0  0  0  0  0  0
  -29.9500  -21.3310   19.4860 Cl  0  0  0  0  0  0  0  0  0  0  0  0
  -33.0670  -21.4340   22.0420 C   0  0  0  0  0  1  0  0  0  0  0  0
  -31.7100  -20.7070   21.9790 C   0  0  0  0  0  3  0  0  0  0  0  0
  -31.6450  -19.5470   22.9000 N   0  0  0  0  0  4  0  0  0  0  0  0
  -32.5060  -19.0240   22.8520 H   0  0  0  0  0  0  0  0  0  0  0  0
  -31.5740  -19.9110   23.8390 H   0  0  0  0  0  0  0  0  0  0  0  0
  -30.5170  -18.6180   22.6610 C   0  0  0  0  0  2  0  0  0  0  0  0
  -30.9640  -17.2400   22.1270 C   0  0  0  0  0  2  0  0  0  0  0  0
  -31.3610  -17.2130   20.6370 C   0  0  0  0  0  2  0  0  0  0  0  0
  -32.0420  -15.9030   20.2210 C   0  0  0  0  0  2  0  0  0  0  0  0
  -31.0390  -13.9560   19.0510 C   0  0  0  0  0  0  0  0  0  0  0  0
  -30.6130  -11.5760   18.6120 C   0  0  0  0  0  2  0  0  0  0  0  0
  -29.5380  -11.3200   17.5460 C   0  0  0  0  0  2  0  0  0  0  0  0
  -28.1430  -11.2910   18.1910 C   0  0  0  0  0  2  0  0  0  0  0  0
  -27.8790  -12.5350   19.0780 C   0  0  0  0  0  3  0  0  0  0  0  0
  -29.0500  -12.7880   20.0570 C   0  0  0  0  0  2  0  0  0  0  0  0
  -30.3150  -12.8390   19.2990 N   0  0  0  0  0  0  0  0  0  0  0  0
  -31.7880  -14.0830   18.0780 O   0  0  0  0  0  0  0  0  0  0  0  0
  -31.0770  -14.8130   20.0780 N   0  0  0  0  0  0  0  0  0  0  0  0
  -30.5080  -14.5830   20.8790 H   0  0  0  0  0  0  0  0  0  0  0  0
  -25.7420  -13.4150   20.2180 C   0  0  0  0  0  0  0  0  0  0  0  0
  -24.6540  -12.7700   20.7460 C   0  0  0  0  0  0  0  0  0  0  0  0
  -24.9080  -11.3740   20.5890 C   0  0  0  0  0  0  0  0  0  0  0  0
  -26.6000  -12.4180   19.7810 N   0  0  0  0  0  0  0  0  0  0  0  0
  -26.1090  -11.1820   20.0550 N   0  0  0  0  0  0  0  0  0  0  0  0
  -24.0560  -10.2100   20.8640 C   0  0  0  0  0  0  0  0  0  0  0  0
  -24.4590   -9.1940   21.7590 C   0  0  0  0  0  3  0  0  0  0  0  0
  -23.6140   -8.0940   22.0220 C   0  0  0  0  0  3  0  0  0  0  0  0
  -22.3500   -8.0040   21.3930 C   0  0  0  0  0  0  0  0  0  0  0  0
  -21.9630   -9.0060   20.4860 C   0  0  0  0  0  3  0  0  0  0  0  0
  -22.8070  -10.0980   20.2210 C   0  0  0  0  0  3  0  0  0  0  0  0
  -21.4740   -6.9590   21.5670 O   0  0  0  0  0  0  0  0  0  0  0  0
  -21.4120   -6.2630   22.7470 C   0  0  0  0  0  0  0  0  0  0  0  0
  -21.1290   -6.8990   23.9750 C   0  0  0  0  0  3  0  0  0  0  0  0
  -21.0050   -6.1340   25.1530 C   0  0  0  0  0  3  0  0  0  0  0  0
  -21.1550   -4.7350   25.1030 C   0  0  0  0  0  0  0  0  0  0  0  0
  -21.4330   -4.1000   23.8800 C   0  0  0  0  0  3  0  0  0  0  0  0
  -21.5580   -4.8610   22.7050 C   0  0  0  0  0  0  0  0  0  0  0  0
  -21.8040   -4.2410   21.5260 F   0  0  0  0  0  0  0  0  0  0  0  0
  -21.0300   -3.9990   26.2320 F   0  0  0  0  0  0  0  0  0  0  0  0
  -23.4060  -13.4120   21.2820 C   0  0  0  0  0  0  0  0  0  0  0  0
  -22.7710  -12.7890   22.2680 N   0  0  0  0  0  0  0  0  0  0  0  0
  -23.0130  -14.4990   20.8580 O   0  0  0  0  0  0  0  0  0  0  0  0
  -23.1040  -11.9060   22.6290 H   0  0  0  0  0  0  0  0  0  0  0  0
  -21.9390  -13.1990   22.6680 H   0  0  0  0  0  0  0  0  0  0  0  0
  -26.0650  -14.7590   20.0580 N   0  0  0  0  0  0  0  0  0  0  0  0
  -25.4300  -15.5060   20.3180 H   0  0  0  0  0  0  0  0  0  0  0  0
  -26.9090  -15.0940   19.6120 H   0  0  0  0  0  0  0  0  0  0  0  0
  -27.6090  -24.8840   22.5950 C   0  0  0  0  0  2  0  0  0  0  0  0
  -28.2760  -26.1410   22.1720 N   0  0  0  0  0  4  0  0  0  0  0  0
  -28.6690  -26.5830   22.9890 H   0  0  0  0  0  0  0  0  0  0  0  0
  -27.5530  -26.7520   21.8250 H   0  0  0  0  0  0  0  0  0  0  0  0
  -29.3430  -25.9990   21.1440 C   0  0  0  0  0  2  0  0  0  0  0  0
  -29.5710  -27.2820   20.3360 C   0  0  0  0  0  2  0  0  0  0  0  0
  -28.6090  -27.2840   19.2820 O   0  0  0  0  0  0  0  0  0  0  0  0
  -24.5800  -31.6700   23.2150 C   0  0  0  0  0  0  0  0  0  0  0  0
  -27.4040  -27.8940   19.5120 C   0  0  0  0  0  0  0  0  0  0  0  0
  -23.3970  -30.3850   21.4570 C   0  0  0  0  0  3  0  0  0  0  0  0
  -24.8910  -29.1440   19.8080 C   0  0  0  0  0  0  0  0  0  0  0  0
  -25.8690  -30.9750   21.2040 C   0  0  0  0  0  2  0  0  0  0  0  0
  -26.0270  -29.6990   20.4090 C   0  0  0  0  0  0  0  0  0  0  0  0
  -27.2840  -29.0830   20.2670 C   0  0  0  0  0  3  0  0  0  0  0  0
  -26.2540  -27.3390   18.9150 C   0  0  0  0  0  3  0  0  0  0  0  0
  -24.9950  -27.9540   19.0620 C   0  0  0  0  0  3  0  0  0  0  0  0
  -23.5900  -29.8860   20.0000 C   0  0  0  0  0  2  0  0  0  0  0  0
  -24.6340  -31.0180   22.0190 N   0  0  0  0  0  0  0  0  0  0  0  0
  -23.5110  -31.7920   23.8280 O   0  0  0  0  0  0  0  0  0  0  0  0
  -22.8720  -29.2090   22.3080 C   0  0  0  0  0  0  0  0  0  0  0  0
  -21.5910  -28.8550   22.1100 N   0  0  0  0  0  0  0  0  0  0  0  0
  -23.6150  -28.6190   23.0970 O   0  0  0  0  0  0  0  0  0  0  0  0
  -21.0510  -29.3910   21.4460 H   0  0  0  0  0  0  0  0  0  0  0  0
  -18.4480  -27.0840   22.2590 C   0  0  0  0  0  0  0  0  0  0  0  0
  -20.8910  -27.7550   22.7710 C   0  0  0  0  0  3  0  0  0  0  0  0
  -21.2880  -26.3940   22.1520 C   0  0  0  0  0  2  0  0  0  0  0  0
  -20.3450  -25.9420   21.0330 C   0  0  0  0  0  2  0  0  0  0  0  0
  -18.9090  -25.8200   21.5530 C   0  0  0  0  0  2  0  0  0  0  0  0
  -19.3790  -28.0000   22.8160 C   0  0  0  0  0  0  0  0  0  0  0  0
  -18.8980  -29.1780   23.4280 C   0  0  0  0  0  3  0  0  0  0  0  0
  -17.5170  -29.4450   23.4920 C   0  0  0  0  0  3  0  0  0  0  0  0
  -16.5990  -28.5270   22.9540 C   0  0  0  0  0  3  0  0  0  0  0  0
  -17.0640  -27.3490   22.3420 C   0  0  0  0  0  3  0  0  0  0  0  0
  -25.8510  -32.3140   23.8570 C   0  0  0  0  0  3  0  0  0  0  0  0
  -26.3830  -31.5260   25.1160 C   0  0  1  0  0  0  0  0  0  0  0  0
  -25.2820  -31.1900   26.1500 C   0  0  0  0  0  1  0  0  0  0  0  0
  -27.0440  -30.1950   24.6870 C   0  0  0  0  0  1  0  0  0  0  0  0
  -27.4760  -32.3540   25.8340 C   0  0  0  0  0  1  0  0  0  0  0  0
  -25.5110  -33.6970   24.2120 N   0  0  0  0  0  0  0  0  0  0  0  0
  -25.8700  -34.7740   23.4990 C   0  0  0  0  0  0  0  0  0  0  0  0
  -26.5940  -34.7090   22.5020 O   0  0  0  0  0  0  0  0  0  0  0  0
  -24.8790  -33.8250   24.9890 H   0  0  0  0  0  0  0  0  0  0  0  0
  -24.1490  -36.5600   23.0960 C   0  0  0  0  0  1  0  0  0  0  0  0
  -25.3430  -36.1420   23.9690 C   0  0  0  0  0  3  0  0  0  0  0  0
  -27.4170  -37.0100   24.9500 C   0  0  0  0  0  1  0  0  0  0  0  0
  -26.3700  -37.2050   23.9520 N   0  0  0  0  0  0  0  0  0  0  0  0
  -25.9480  -38.1160   24.1110 H   0  0  0  0  0  0  0  0  0  0  0  0
  2 57  1  0
  2  1  2  0
  3  4  2  0
  4  1  1  0
  4  7  1  0
  5  2  1  0
  6  5  2  0
  6  3  1  0
  8  5  1  0
  9  6  1  0
 11 10  1  0
 11  3  1  0
 11 12  1  0
 12 14  1  0
 13 12  1  0
 15 12  1  0
 16 15  1  0
 17 16  1  0
 18 17  1  0
 19 25  1  0
 19 27  1  0
 20 25  1  0
 21 22  1  0
 21 20  1  0
 23 22  1  0
 23 32  1  0
 23 24  1  0
 25 24  1  0
 26 19  2  0
 27 18  1  0
 27 28  1  0
 29 30  2  0
 30 49  1  0
 31 30  1  0
 31 34  1  0
 32 33  1  0
 32 29  1  0
 33 31  2  0
 34 35  1  0
 35 36  2  0
 37 40  1  0
 37 36  1  0
 38 37  2  0
 39 38  1  0
 39 34  2  0
 40 41  1  0
 41 42  1  0
 42 43  2  0
 44 43  1  0
 44 48  1  0
 45 44  2  0
 46 41  2  0
 46 45  1  0
 47 46  1  0
 49 50  1  0
 50 52  1  0
 50 53  1  0
 51 49  2  0
 54 29  1  0
 54 55  1  0
 56 54  1  0
 58 57  1  0
 58 59  1  0
 60 58  1  0
 61 58  1  0
 62 61  1  0
 63 65  1  0
 63 62  1  0
 64 75  2  0
 65 70  1  0
 66 74  1  0
 66 76  1  0
 67 73  1  0
 67 69  1  0
 68 74  1  0
 69 68  1  0
 70 69  2  0
 71 72  1  0
 71 65  2  0
 72 67  2  0
 73 66  1  0
 74 64  1  0
 76 78  2  0
 77 76  1  0
 79 77  1  0
 80 89  2  0
 80 85  1  0
 81 77  1  0
 81 85  1  0
 82 81  1  0
 83 84  1  0
 83 82  1  0
 84 80  1  0
 85 86  2  0
 86 87  1  0
 88 87  2  0
 89 88  1  0
 90 64  1  0
 90 95  1  0
 90 91  1  0
 91 94  1  1
 91 92  1  0
 93 91  1  0
 95 98  1  0
 96100  1  0
 96 95  1  0
 97 96  2  0
100 99  1  0
102100  1  0
102103  1  0
102101  1  0
M  ISO  4  19 100  27 100  62 101  63 101
M  END
>  <TORSDO>  (90) 
F 26

>  <SCORE>  (90) 
-9.515

>  <name>  (90) 
91

>  <ligand_id>  (90) 
91

>  <original_smiles>  (90) 
[H]c1c([H])c([H])c2c(c1[H])C([H])([H])C([H])([H])C([H])([H])C2([H])N([H])C(=O)C1([H])N(C(=O)C([H])(N([H])C(=O)C([H])(N([H])C([H])([H])[H])C([H])([H])[H])C(C([H])([H])[H])(C([H])([H])[H])C([H])([H])[H])C([H])([H])c2c([H])c(OC([H])([H])C([H])([H])[N+]([H])([H])C([H])([H])c3c([H])c(Cl)c(C([H])(C([H])([H])[H])[N+]([H])([H])C([H])([H])C([H])([H])C([H])([H])C([H])([H])N([H])C(=O)N4C([H])([H])C([H])([H])C([H])([H])C([H])(n5nc(-c6c([H])c([H])c(Oc7c([H])c([H])c(F)c([H])c7F)c([H])c6[H])c(C(=O)N([H])[H])c5N([H])[H])C4([H])[H])c(Cl)c3Cl)c([H])c([H])c2C1([H])[H]

>  <smiles>  (90) 
[H]c1c([H])c([H])c2c(c1[H])C([H])([H])C([H])([H])C([H])([H])C2([H])N([H])C(=O)C1([H])N(C(=O)C([H])(N([H])C(=O)C([H])(N([H])C([H])([H])[H])C([H])([H])[H])C(C([H])([H])[H])(C([H])([H])[H])C([H])([H])[H])C([H])([H])c2c([H])c(OC([H])([H])C([H])([H])[N+]([H])([H])C([H])([H])c3c([H])c(Cl)c(C([H])(C([H])([H])[H])[N+]([H])([H])C([H])([H])C([H])([H])C([H])([H])C([H])([H])N([H])C(=O)N4C([H])([H])C([H])([H])C([H])([H])C([H])(n5nc(-c6c([H])c([H])c(Oc7c([H])c([H])c(F)c([H])c7F)c([H])c6[H])c(C(=O)N([H])[H])c5N([H])[H])C4([H])[H])c(Cl)c3Cl)c([H])c([H])c2C1([H])[H]

$$$$
92:0:0
     RDKit          3D

 98106  0  0  1  0  0  0  0  0999 V2000
  -28.5970  -21.9640   19.7110 C   0  0  0  0  0  3  0  0  0  0  0  0
  -29.6200  -20.9980   17.7450 C   0  0  0  0  0  3  0  0  0  0  0  0
  -28.9840  -20.8250   18.9870 C   0  0  0  0  0  0  0  0  0  0  0  0
  -28.8630  -23.2320   19.1740 C   0  0  0  0  0  0  0  0  0  0  0  0
  -29.8460  -22.3070   17.2680 C   0  0  0  0  0  0  0  0  0  0  0  0
  -29.4830  -23.3980   17.9860 N   0  0  0  0  0  0  0  0  0  0  0  0
  -30.5300  -22.5630   15.9180 C   0  0  1  0  0  0  0  0  0  0  0  0
  -30.7810  -21.4250   15.2650 F   0  0  0  0  0  0  0  0  0  0  0  0
  -29.7430  -23.3240   15.1520 F   0  0  0  0  0  0  0  0  0  0  0  0
  -31.6880  -23.2010   16.1130 F   0  0  0  0  0  0  0  0  0  0  0  0
  -28.7830  -19.4480   19.5750 C   0  0  0  0  0  2  0  0  0  0  0  0
  -30.0500  -19.0150   20.1810 N   0  0  0  0  0  4  0  0  0  0  0  0
  -30.3620  -19.7470   20.7990 H   0  0  0  0  0  0  0  0  0  0  0  0
  -30.7230  -18.9350   19.4370 H   0  0  0  0  0  0  0  0  0  0  0  0
  -29.9550  -17.7420   20.9160 C   0  0  0  0  0  2  0  0  0  0  0  0
  -31.3370  -17.1980   21.3210 C   0  0  0  0  0  2  0  0  0  0  0  0
  -31.2750  -15.8700   22.1040 C   0  0  0  0  0  2  0  0  0  0  0  0
  -30.7520  -14.2250   20.2750 C   0  0  0  0  0  0  0  0  0  0  0  0
  -30.2390  -12.2550   18.8840 C   0  0  0  0  0  2  0  0  0  0  0  0
  -29.2280  -12.5580   17.7640 C   0  0  0  0  0  2  0  0  0  0  0  0
  -27.7850  -12.4130   18.2790 C   0  0  0  0  0  2  0  0  0  0  0  0
  -27.5480  -13.1940   19.5960 C   0  0  0  0  0  3  0  0  0  0  0  0
  -28.6520  -12.8750   20.6300 C   0  0  0  0  0  2  0  0  0  0  0  0
  -29.9660  -13.1510   20.0160 N   0  0  0  0  0  0  0  0  0  0  0  0
  -31.6880  -14.5820   19.5530 O   0  0  0  0  0  0  0  0  0  0  0  0
  -30.4960  -14.8210   21.4460 N   0  0  0  0  0  0  0  0  0  0  0  0
  -29.7400  -14.4190   21.9800 H   0  0  0  0  0  0  0  0  0  0  0  0
  -25.1890  -13.8200   20.4220 C   0  0  0  0  0  0  0  0  0  0  0  0
  -24.1340  -13.0550   20.8380 C   0  0  0  0  0  0  0  0  0  0  0  0
  -24.5810  -11.6990   20.7760 C   0  0  0  0  0  0  0  0  0  0  0  0
  -26.2150  -12.9320   20.1360 N   0  0  0  0  0  0  0  0  0  0  0  0
  -25.8530  -11.6500   20.4030 N   0  0  0  0  0  0  0  0  0  0  0  0
  -23.8550  -10.4420   20.9960 C   0  0  0  0  0  0  0  0  0  0  0  0
  -24.3200   -9.4710   21.9100 C   0  0  0  0  0  3  0  0  0  0  0  0
  -23.5940   -8.2780   22.1160 C   0  0  0  0  0  3  0  0  0  0  0  0
  -22.3890   -8.0480   21.4100 C   0  0  0  0  0  0  0  0  0  0  0  0
  -21.9440   -9.0080   20.4840 C   0  0  0  0  0  3  0  0  0  0  0  0
  -22.6700  -10.1930   20.2760 C   0  0  0  0  0  3  0  0  0  0  0  0
  -21.6320   -6.9070   21.5270 O   0  0  0  0  0  0  0  0  0  0  0  0
  -21.6300   -6.1610   22.6780 C   0  0  0  0  0  0  0  0  0  0  0  0
  -21.2640   -6.7140   23.9240 C   0  0  0  0  0  3  0  0  0  0  0  0
  -21.2070   -5.8950   25.0700 C   0  0  0  0  0  3  0  0  0  0  0  0
  -21.5040   -4.5220   24.9690 C   0  0  0  0  0  0  0  0  0  0  0  0
  -21.8630   -3.9680   23.7290 C   0  0  0  0  0  3  0  0  0  0  0  0
  -21.9220   -4.7850   22.5860 C   0  0  0  0  0  0  0  0  0  0  0  0
  -22.2470   -4.2420   21.3890 F   0  0  0  0  0  0  0  0  0  0  0  0
  -21.4420   -3.7350   26.0680 F   0  0  0  0  0  0  0  0  0  0  0  0
  -22.7560  -13.5410   21.1860 C   0  0  0  0  0  0  0  0  0  0  0  0
  -22.0670  -12.8440   22.0810 N   0  0  0  0  0  0  0  0  0  0  0  0
  -22.2990  -14.5740   20.6970 O   0  0  0  0  0  0  0  0  0  0  0  0
  -22.4470  -12.0050   22.4930 H   0  0  0  0  0  0  0  0  0  0  0  0
  -21.1440  -13.1490   22.3550 H   0  0  0  0  0  0  0  0  0  0  0  0
  -25.3600  -15.1920   20.2480 N   0  0  0  0  0  0  0  0  0  0  0  0
  -24.6130  -15.8580   20.4070 H   0  0  0  0  0  0  0  0  0  0  0  0
  -26.2050  -15.6200   19.8910 H   0  0  0  0  0  0  0  0  0  0  0  0
  -28.5250  -24.4690   19.9900 C   0  0  0  0  0  2  0  0  0  0  0  0
  -28.6930  -25.8020   19.2470 C   0  0  0  0  0  2  0  0  0  0  0  0
  -28.4440  -26.8720   20.1480 O   0  0  0  0  0  0  0  0  0  0  0  0
  -24.5700  -31.9100   23.2530 C   0  0  0  0  0  0  0  0  0  0  0  0
  -27.2160  -27.4920   20.1640 C   0  0  0  0  0  0  0  0  0  0  0  0
  -23.3510  -30.4980   21.6220 C   0  0  0  0  0  3  0  0  0  0  0  0
  -24.7980  -28.9480   20.2060 C   0  0  0  0  0  0  0  0  0  0  0  0
  -25.8710  -30.8660   21.4080 C   0  0  0  0  0  2  0  0  0  0  0  0
  -25.9530  -29.4910   20.7830 C   0  0  0  0  0  0  0  0  0  0  0  0
  -27.1590  -28.7660   20.7650 C   0  0  0  0  0  3  0  0  0  0  0  0
  -26.0380  -26.9390   19.6100 C   0  0  0  0  0  3  0  0  0  0  0  0
  -24.8310  -27.6660   19.6300 C   0  0  0  0  0  3  0  0  0  0  0  0
  -23.5530  -29.8040   20.2490 C   0  0  0  0  0  2  0  0  0  0  0  0
  -24.6170  -31.1060   22.1540 N   0  0  0  0  0  0  0  0  0  0  0  0
  -23.4920  -32.1870   23.7940 O   0  0  0  0  0  0  0  0  0  0  0  0
  -22.7050  -29.4850   22.5930 C   0  0  0  0  0  0  0  0  0  0  0  0
  -21.3820  -29.3000   22.4650 N   0  0  0  0  0  0  0  0  0  0  0  0
  -23.3910  -28.8670   23.4120 O   0  0  0  0  0  0  0  0  0  0  0  0
  -20.8900  -29.8520   21.7760 H   0  0  0  0  0  0  0  0  0  0  0  0
  -18.0150  -28.0920   22.9510 C   0  0  0  0  0  0  0  0  0  0  0  0
  -20.5680  -28.3650   23.2390 C   0  0  0  0  0  3  0  0  0  0  0  0
  -20.6830  -26.9280   22.6810 C   0  0  0  0  0  2  0  0  0  0  0  0
  -19.5910  -26.5870   21.6620 C   0  0  0  0  0  2  0  0  0  0  0  0
  -18.2030  -26.7340   22.2920 C   0  0  0  0  0  2  0  0  0  0  0  0
  -19.1260  -28.8640   23.3810 C   0  0  0  0  0  0  0  0  0  0  0  0
  -18.8990  -30.1350   23.9520 C   0  0  0  0  0  3  0  0  0  0  0  0
  -17.5910  -30.6320   24.1000 C   0  0  0  0  0  3  0  0  0  0  0  0
  -16.4920  -29.8550   23.6920 C   0  0  0  0  0  3  0  0  0  0  0  0
  -16.7060  -28.5880   23.1220 C   0  0  0  0  0  3  0  0  0  0  0  0
  -25.8620  -32.5380   23.8650 C   0  0  0  0  0  3  0  0  0  0  0  0
  -25.5600  -33.9380   24.1930 N   0  0  0  0  0  0  0  0  0  0  0  0
  -25.8920  -34.9860   23.4280 C   0  0  0  0  0  0  0  0  0  0  0  0
  -26.5590  -34.8790   22.3950 O   0  0  0  0  0  0  0  0  0  0  0  0
  -24.9710  -34.0960   24.9970 H   0  0  0  0  0  0  0  0  0  0  0  0
  -24.1640  -36.7780   23.0710 C   0  0  0  0  0  1  0  0  0  0  0  0
  -25.4050  -36.3760   23.8830 C   0  0  0  0  0  3  0  0  0  0  0  0
  -27.5430  -37.2550   24.7070 C   0  0  0  0  0  1  0  0  0  0  0  0
  -26.4350  -37.4310   23.7720 N   0  0  0  0  0  0  0  0  0  0  0  0
  -26.0280  -38.3470   23.9330 H   0  0  0  0  0  0  0  0  0  0  0  0
  -26.3920  -31.7670   25.1340 C   0  0  1  0  0  0  0  0  0  0  0  0
  -25.3090  -31.5260   26.2130 C   0  0  0  0  0  1  0  0  0  0  0  0
  -26.9720  -30.3900   24.7350 C   0  0  0  0  0  1  0  0  0  0  0  0
  -27.5490  -32.5590   25.7870 C   0  0  0  0  0  1  0  0  0  0  0  0
  2  3  1  0
  3 11  1  0
  3  1  2  0
  4  1  1  0
  4 56  1  0
  5  2  2  0
  5  6  1  0
  6  4  2  0
  7 10  1  1
  7  5  1  0
  8  7  1  0
  9  7  1  0
 11 12  1  0
 12 13  1  0
 12 15  1  0
 14 12  1  0
 15 16  1  0
 16 17  1  0
 18 26  1  0
 19 24  1  0
 20 21  1  0
 20 19  1  0
 22 21  1  0
 22 31  1  0
 22 23  1  0
 24 18  1  0
 24 23  1  0
 25 18  2  0
 26 27  1  0
 26 17  1  0
 28 29  2  0
 29 48  1  0
 30 29  1  0
 30 33  1  0
 31 32  1  0
 31 28  1  0
 32 30  2  0
 33 34  1  0
 34 35  2  0
 36 39  1  0
 36 35  1  0
 37 36  2  0
 38 37  1  0
 38 33  2  0
 39 40  1  0
 40 41  1  0
 41 42  2  0
 43 42  1  0
 43 47  1  0
 44 43  2  0
 45 40  2  0
 45 44  1  0
 46 45  1  0
 48 49  1  0
 49 52  1  0
 49 51  1  0
 50 48  2  0
 53 54  1  0
 53 28  1  0
 55 53  1  0
 57 56  1  0
 57 58  1  0
 58 60  1  0
 59 70  2  0
 60 65  1  0
 61 69  1  0
 61 71  1  0
 62 68  1  0
 62 64  1  0
 63 69  1  0
 64 63  1  0
 65 64  2  0
 66 67  1  0
 66 60  2  0
 67 62  2  0
 68 61  1  0
 69 59  1  0
 71 73  2  0
 72 71  1  0
 74 72  1  0
 75 84  2  0
 75 80  1  0
 76 72  1  0
 76 80  1  0
 77 76  1  0
 78 79  1  0
 78 77  1  0
 79 75  1  0
 80 81  2  0
 81 82  1  0
 83 82  2  0
 84 83  1  0
 85 59  1  0
 85 86  1  0
 85 95  1  0
 86 89  1  0
 87 91  1  0
 87 86  1  0
 88 87  2  0
 91 90  1  0
 93 91  1  0
 93 94  1  0
 93 92  1  0
 95 98  1  1
 95 96  1  0
 97 95  1  0
M  ISO  4  18 100  26 100  57 101  58 101
M  END
>  <TORSDO>  (91) 
F 24

>  <SCORE>  (91) 
-12.211

>  <name>  (91) 
92

>  <ligand_id>  (91) 
92

>  <original_smiles>  (91) 
[H]c1c([H])c([H])c2c(c1[H])C([H])([H])C([H])([H])C([H])([H])C2([H])N([H])C(=O)C1([H])N(C(=O)C([H])(N([H])C(=O)C([H])(N([H])C([H])([H])[H])C([H])([H])[H])C(C([H])([H])[H])(C([H])([H])[H])C([H])([H])[H])C([H])([H])c2c([H])c(OC([H])([H])C([H])([H])c3nc(C(F)(F)F)c([H])c(C([H])([H])[N+]([H])([H])C([H])([H])C([H])([H])C([H])([H])N([H])C(=O)N4C([H])([H])C([H])([H])C([H])([H])C([H])(n5nc(-c6c([H])c([H])c(Oc7c([H])c([H])c(F)c([H])c7F)c([H])c6[H])c(C(=O)N([H])[H])c5N([H])[H])C4([H])[H])c3[H])c([H])c([H])c2C1([H])[H]

>  <smiles>  (91) 
[H]c1c([H])c([H])c2c(c1[H])C([H])([H])C([H])([H])C([H])([H])C2([H])N([H])C(=O)C1([H])N(C(=O)C([H])(N([H])C(=O)C([H])(N([H])C([H])([H])[H])C([H])([H])[H])C(C([H])([H])[H])(C([H])([H])[H])C([H])([H])[H])C([H])([H])c2c([H])c(OC([H])([H])C([H])([H])c3nc(C(F)(F)F)c([H])c(C([H])([H])[N+]([H])([H])C([H])([H])C([H])([H])C([H])([H])N([H])C(=O)N4C([H])([H])C([H])([H])C([H])([H])C([H])(n5nc(-c6c([H])c([H])c(Oc7c([H])c([H])c(F)c([H])c7F)c([H])c6[H])c(C(=O)N([H])[H])c5N([H])[H])C4([H])[H])c3[H])c([H])c([H])c2C1([H])[H]

$$$$
93:0:0
     RDKit          3D

 96104  0  0  1  0  0  0  0  0999 V2000
  -29.4740  -24.7340   20.5360 C   0  0  0  0  0  0  0  0  0  0  0  0
  -30.3760  -24.4330   21.6150 C   0  0  0  0  0  0  0  0  0  0  0  0
  -29.0630  -26.0190   20.8010 C   0  0  0  0  0  0  0  0  0  0  0  0
  -31.4030  -23.3500   21.8180 C   0  0  0  0  0  1  0  0  0  0  0  0
  -29.8260  -27.7040   22.5950 C   0  0  0  0  0  1  0  0  0  0  0  0
  -30.4100  -25.4090   22.5050 N   0  0  0  0  0  0  0  0  0  0  0  0
  -29.6860  -26.4130   21.9750 N   0  0  0  0  0  0  0  0  0  0  0  0
  -29.1290  -24.0870   19.3210 N   0  0  0  0  0  0  0  0  0  0  0  0
  -28.7270  -24.6730   18.5970 H   0  0  0  0  0  0  0  0  0  0  0  0
  -30.4520  -22.1960   18.5500 C   0  0  0  0  0  1  0  0  0  0  0  0
  -28.0400  -22.5210   17.9100 C   0  0  0  0  0  1  0  0  0  0  0  0
  -29.0720  -22.6530   19.0530 C   0  0  2  0  0  0  0  0  0  0  0  0
  -28.5700  -21.8380   20.2890 C   0  0  0  0  0  2  0  0  0  0  0  0
  -28.4190  -20.2960   20.1250 C   0  0  0  0  0  2  0  0  0  0  0  0
  -29.6560  -19.3970   20.3870 C   0  0  0  0  0  2  0  0  0  0  0  0
  -29.2830  -17.8940   20.3220 C   0  0  0  0  0  2  0  0  0  0  0  0
  -30.4380  -16.9260   20.6760 C   0  0  0  0  0  2  0  0  0  0  0  0
  -30.6530  -14.4980   20.1140 C   0  0  0  0  0  0  0  0  0  0  0  0
  -30.3160  -12.3230   19.0160 C   0  0  0  0  0  2  0  0  0  0  0  0
  -29.3500  -12.5180   17.8270 C   0  0  0  0  0  2  0  0  0  0  0  0
  -27.8900  -12.3700   18.2950 C   0  0  0  0  0  2  0  0  0  0  0  0
  -27.5730  -13.2180   19.5580 C   0  0  0  0  0  3  0  0  0  0  0  0
  -28.6600  -13.0310   20.6400 C   0  0  0  0  0  2  0  0  0  0  0  0
  -29.9720  -13.3260   20.0350 N   0  0  0  0  0  0  0  0  0  0  0  0
  -31.7490  -14.6760   19.5760 O   0  0  0  0  0  0  0  0  0  0  0  0
  -30.0010  -15.5230   20.6880 N   0  0  0  0  0  0  0  0  0  0  0  0
  -29.1150  -15.3190   21.1290 H   0  0  0  0  0  0  0  0  0  0  0  0
  -25.1770  -13.7950   20.3000 C   0  0  0  0  0  0  0  0  0  0  0  0
  -24.1300  -13.0090   20.7100 C   0  0  0  0  0  0  0  0  0  0  0  0
  -24.6170  -11.6690   20.7010 C   0  0  0  0  0  0  0  0  0  0  0  0
  -26.2360  -12.9290   20.0740 N   0  0  0  0  0  0  0  0  0  0  0  0
  -25.9040  -11.6450   20.3740 N   0  0  0  0  0  0  0  0  0  0  0  0
  -23.9210  -10.3970   20.9400 C   0  0  0  0  0  0  0  0  0  0  0  0
  -24.3830   -9.4890   21.9180 C   0  0  0  0  0  3  0  0  0  0  0  0
  -23.6950   -8.2780   22.1530 C   0  0  0  0  0  3  0  0  0  0  0  0
  -22.5300   -7.9690   21.4110 C   0  0  0  0  0  0  0  0  0  0  0  0
  -22.0860   -8.8690   20.4270 C   0  0  0  0  0  3  0  0  0  0  0  0
  -22.7700  -10.0740   20.1930 C   0  0  0  0  0  3  0  0  0  0  0  0
  -21.8120   -6.8060   21.5450 O   0  0  0  0  0  0  0  0  0  0  0  0
  -21.7670   -6.1190   22.7330 C   0  0  0  0  0  0  0  0  0  0  0  0
  -21.2840   -6.7120   23.9190 C   0  0  0  0  0  3  0  0  0  0  0  0
  -21.1950   -5.9500   25.0990 C   0  0  0  0  0  3  0  0  0  0  0  0
  -21.5710   -4.5920   25.0920 C   0  0  0  0  0  0  0  0  0  0  0  0
  -22.0380   -3.9980   23.9060 C   0  0  0  0  0  3  0  0  0  0  0  0
  -22.1350   -4.7600   22.7290 C   0  0  0  0  0  0  0  0  0  0  0  0
  -22.5670   -4.1800   21.5840 F   0  0  0  0  0  0  0  0  0  0  0  0
  -21.4760   -3.8540   26.2210 F   0  0  0  0  0  0  0  0  0  0  0  0
  -22.7310  -13.4650   21.0000 C   0  0  0  0  0  0  0  0  0  0  0  0
  -22.0430  -12.7750   21.9030 N   0  0  0  0  0  0  0  0  0  0  0  0
  -22.2620  -14.4680   20.4710 O   0  0  0  0  0  0  0  0  0  0  0  0
  -22.4400  -11.9620   22.3500 H   0  0  0  0  0  0  0  0  0  0  0  0
  -21.1080  -13.0640   22.1480 H   0  0  0  0  0  0  0  0  0  0  0  0
  -25.3030  -15.1600   20.0810 N   0  0  0  0  0  0  0  0  0  0  0  0
  -24.5200  -15.8000   20.1680 H   0  0  0  0  0  0  0  0  0  0  0  0
  -26.1450  -15.6110   19.7440 H   0  0  0  0  0  0  0  0  0  0  0  0
  -28.4390  -26.8720   19.9310 O   0  0  0  0  0  0  0  0  0  0  0  0
  -24.6150  -31.9120   23.2800 C   0  0  0  0  0  0  0  0  0  0  0  0
  -27.2380  -27.5240   20.1370 C   0  0  0  0  0  0  0  0  0  0  0  0
  -23.3880  -30.5590   21.6080 C   0  0  0  0  0  3  0  0  0  0  0  0
  -24.8260  -29.0280   20.1550 C   0  0  0  0  0  0  0  0  0  0  0  0
  -25.9080  -30.9100   21.3980 C   0  0  0  0  0  2  0  0  0  0  0  0
  -25.9820  -29.5460   20.7480 C   0  0  0  0  0  0  0  0  0  0  0  0
  -27.1860  -28.8110   20.7190 C   0  0  0  0  0  3  0  0  0  0  0  0
  -26.0620  -27.0180   19.5390 C   0  0  0  0  0  3  0  0  0  0  0  0
  -24.8620  -27.7650   19.5350 C   0  0  0  0  0  3  0  0  0  0  0  0
  -23.5860  -29.8970   20.2180 C   0  0  0  0  0  2  0  0  0  0  0  0
  -24.6550  -31.1390   22.1560 N   0  0  0  0  0  0  0  0  0  0  0  0
  -23.5380  -32.1810   23.8330 O   0  0  0  0  0  0  0  0  0  0  0  0
  -22.7300  -29.5250   22.5510 C   0  0  0  0  0  0  0  0  0  0  0  0
  -21.4060  -29.3480   22.4110 N   0  0  0  0  0  0  0  0  0  0  0  0
  -23.4060  -28.8840   23.3600 O   0  0  0  0  0  0  0  0  0  0  0  0
  -20.9210  -29.9120   21.7270 H   0  0  0  0  0  0  0  0  0  0  0  0
  -18.0260  -28.1530   22.8560 C   0  0  0  0  0  0  0  0  0  0  0  0
  -20.5820  -28.4000   23.1580 C   0  0  0  0  0  3  0  0  0  0  0  0
  -20.6880  -26.9800   22.5560 C   0  0  0  0  0  2  0  0  0  0  0  0
  -19.5950  -26.6770   21.5260 C   0  0  0  0  0  2  0  0  0  0  0  0
  -18.2070  -26.8150   22.1590 C   0  0  0  0  0  2  0  0  0  0  0  0
  -19.1420  -28.9040   23.3100 C   0  0  0  0  0  0  0  0  0  0  0  0
  -18.9190  -30.1590   23.9200 C   0  0  0  0  0  3  0  0  0  0  0  0
  -17.6150  -30.6590   24.0810 C   0  0  0  0  0  3  0  0  0  0  0  0
  -16.5120  -29.9040   23.6450 C   0  0  0  0  0  3  0  0  0  0  0  0
  -16.7190  -28.6510   23.0370 C   0  0  0  0  0  3  0  0  0  0  0  0
  -25.9100  -32.5110   23.9090 C   0  0  0  0  0  3  0  0  0  0  0  0
  -25.6290  -33.9130   24.2470 N   0  0  0  0  0  0  0  0  0  0  0  0
  -25.9940  -34.9630   23.4990 C   0  0  0  0  0  0  0  0  0  0  0  0
  -26.6710  -34.8510   22.4750 O   0  0  0  0  0  0  0  0  0  0  0  0
  -25.0300  -34.0760   25.0430 H   0  0  0  0  0  0  0  0  0  0  0  0
  -24.3110  -36.7960   23.1400 C   0  0  0  0  0  1  0  0  0  0  0  0
  -25.5320  -36.3570   23.9620 C   0  0  0  0  0  3  0  0  0  0  0  0
  -27.6720  -37.1890   24.8330 C   0  0  0  0  0  1  0  0  0  0  0  0
  -26.5870  -37.3870   23.8750 N   0  0  0  0  0  0  0  0  0  0  0  0
  -26.1980  -38.3140   24.0230 H   0  0  0  0  0  0  0  0  0  0  0  0
  -26.4100  -31.7180   25.1800 C   0  0  1  0  0  0  0  0  0  0  0  0
  -25.3080  -31.4870   26.2390 C   0  0  0  0  0  1  0  0  0  0  0  0
  -26.9720  -30.3360   24.7700 C   0  0  0  0  0  1  0  0  0  0  0  0
  -27.5670  -32.4890   25.8550 C   0  0  0  0  0  1  0  0  0  0  0  0
  1  3  2  0
  1  2  1  0
  2  4  1  0
  2  6  2  0
  3  7  1  0
  7  6  1  0
  7  5  1  0
  8  1  1  0
  9  8  1  0
 12 10  1  6
 11 12  1  0
 12  8  1  0
 12 13  1  0
 14 13  1  0
 14 15  1  0
 16 15  1  0
 16 17  1  0
 17 26  1  0
 18 26  1  0
 19 24  1  0
 20 21  1  0
 20 19  1  0
 22 21  1  0
 22 31  1  0
 22 23  1  0
 24 18  1  0
 24 23  1  0
 25 18  2  0
 26 27  1  0
 28 29  2  0
 29 48  1  0
 30 29  1  0
 30 33  1  0
 31 28  1  0
 31 32  1  0
 32 30  2  0
 33 34  1  0
 34 35  2  0
 36 39  1  0
 36 35  1  0
 37 36  2  0
 38 37  1  0
 38 33  2  0
 39 40  1  0
 40 41  1  0
 41 42  2  0
 43 42  1  0
 43 47  1  0
 44 43  2  0
 45 40  2  0
 45 44  1  0
 46 45  1  0
 48 49  1  0
 49 52  1  0
 49 51  1  0
 50 48  2  0
 53 54  1  0
 53 28  1  0
 55 53  1  0
 56 58  1  0
 56  3  1  0
 57 68  2  0
 58 63  1  0
 59 67  1  0
 59 69  1  0
 60 66  1  0
 60 62  1  0
 61 67  1  0
 62 61  1  0
 63 62  2  0
 64 58  2  0
 65 64  1  0
 65 60  2  0
 66 59  1  0
 67 57  1  0
 69 71  2  0
 70 69  1  0
 72 70  1  0
 73 82  2  0
 73 78  1  0
 74 70  1  0
 74 78  1  0
 75 74  1  0
 76 77  1  0
 76 75  1  0
 77 73  1  0
 78 79  2  0
 79 80  1  0
 81 80  2  0
 82 81  1  0
 83 57  1  0
 83 84  1  0
 83 93  1  0
 84 87  1  0
 85 89  1  0
 85 84  1  0
 86 85  2  0
 89 88  1  0
 91 89  1  0
 91 92  1  0
 91 90  1  0
 93 96  1  1
 93 94  1  0
 95 93  1  0
M  ISO  4   3 101  18 100  26 100  56 101
M  END
>  <TORSDO>  (92) 
F 23

>  <SCORE>  (92) 
-11.993

>  <name>  (92) 
93

>  <ligand_id>  (92) 
93

>  <original_smiles>  (92) 
[H]c1c([H])c([H])c2c(c1[H])C([H])([H])C([H])([H])C([H])([H])C2([H])N([H])C(=O)C1([H])N(C(=O)C([H])(N([H])C(=O)C([H])(N([H])C([H])([H])[H])C([H])([H])[H])C(C([H])([H])[H])(C([H])([H])[H])C([H])([H])[H])C([H])([H])c2c([H])c(Oc3c(N([H])C(C([H])([H])[H])(C([H])([H])[H])C([H])([H])C([H])([H])C([H])([H])C([H])([H])C([H])([H])N([H])C(=O)N4C([H])([H])C([H])([H])C([H])([H])C([H])(n5nc(-c6c([H])c([H])c(Oc7c([H])c([H])c(F)c([H])c7F)c([H])c6[H])c(C(=O)N([H])[H])c5N([H])[H])C4([H])[H])c(C([H])([H])[H])nn3C([H])([H])[H])c([H])c([H])c2C1([H])[H]

>  <smiles>  (92) 
[H]c1c([H])c([H])c2c(c1[H])C([H])([H])C([H])([H])C([H])([H])C2([H])N([H])C(=O)C1([H])N(C(=O)C([H])(N([H])C(=O)C([H])(N([H])C([H])([H])[H])C([H])([H])[H])C(C([H])([H])[H])(C([H])([H])[H])C([H])([H])[H])C([H])([H])c2c([H])c(Oc3c(N([H])C(C([H])([H])[H])(C([H])([H])[H])C([H])([H])C([H])([H])C([H])([H])C([H])([H])C([H])([H])N([H])C(=O)N4C([H])([H])C([H])([H])C([H])([H])C([H])(n5nc(-c6c([H])c([H])c(Oc7c([H])c([H])c(F)c([H])c7F)c([H])c6[H])c(C(=O)N([H])[H])c5N([H])[H])C4([H])[H])c(C([H])([H])[H])nn3C([H])([H])[H])c([H])c([H])c2C1([H])[H]

$$$$
94:0:0
     RDKit          3D

 95103  0  0  1  0  0  0  0  0999 V2000
  -28.3030  -21.8690   19.4030 C   0  0  0  0  0  1  0  0  0  0  0  0
  -28.7450  -22.2510   21.8260 C   0  0  0  0  0  1  0  0  0  0  0  0
  -29.3450  -22.4010   20.4130 C   0  0  2  0  0  0  0  0  0  0  0  0
  -30.4760  -24.0390   18.7720 C   0  0  0  0  0  1  0  0  0  0  0  0
  -30.6390  -24.5330   21.1890 C   0  0  0  0  0  1  0  0  0  0  0  0
  -29.6850  -23.9850   20.1010 C   0  0  2  0  0  0  0  0  0  0  0  0
  -28.4300  -25.0190   19.9540 C   0  0  0  0  0  2  0  0  0  0  0  0
  -28.5920  -26.5060   20.0120 O   0  0  0  0  0  0  0  0  0  0  0  0
  -24.6980  -31.7100   23.2000 C   0  0  0  0  0  0  0  0  0  0  0  0
  -27.4440  -27.3330   19.9770 C   0  0  0  0  0  0  0  0  0  0  0  0
  -23.5430  -30.3800   21.4680 C   0  0  0  0  0  3  0  0  0  0  0  0
  -25.0420  -28.9190   19.9960 C   0  0  0  0  0  0  0  0  0  0  0  0
  -26.0820  -30.7380   21.3490 C   0  0  0  0  0  2  0  0  0  0  0  0
  -26.1950  -29.3960   20.6310 C   0  0  0  0  0  0  0  0  0  0  0  0
  -27.3960  -28.6210   20.6030 C   0  0  0  0  0  3  0  0  0  0  0  0
  -26.2580  -26.9050   19.3320 C   0  0  0  0  0  3  0  0  0  0  0  0
  -25.0780  -27.6810   19.3340 C   0  0  0  0  0  3  0  0  0  0  0  0
  -23.7890  -29.7720   20.0620 C   0  0  0  0  0  2  0  0  0  0  0  0
  -24.7910  -30.9580   22.0630 N   0  0  0  0  0  0  0  0  0  0  0  0
  -23.6000  -31.9470   23.7260 O   0  0  0  0  0  0  0  0  0  0  0  0
  -22.8720  -29.3150   22.3680 C   0  0  0  0  0  0  0  0  0  0  0  0
  -21.5470  -29.1410   22.2180 N   0  0  0  0  0  0  0  0  0  0  0  0
  -23.5420  -28.6460   23.1570 O   0  0  0  0  0  0  0  0  0  0  0  0
  -21.0660  -29.7330   21.5550 H   0  0  0  0  0  0  0  0  0  0  0  0
  -18.1660  -27.9170   22.6300 C   0  0  0  0  0  0  0  0  0  0  0  0
  -20.7220  -28.1620   22.9270 C   0  0  0  0  0  3  0  0  0  0  0  0
  -20.8290  -26.7660   22.2660 C   0  0  0  0  0  2  0  0  0  0  0  0
  -19.7320  -26.5050   21.2310 C   0  0  0  0  0  2  0  0  0  0  0  0
  -18.3450  -26.6120   21.8740 C   0  0  0  0  0  2  0  0  0  0  0  0
  -19.2810  -28.6530   23.1090 C   0  0  0  0  0  0  0  0  0  0  0  0
  -19.0590  -29.8770   23.7760 C   0  0  0  0  0  3  0  0  0  0  0  0
  -17.7520  -30.3650   23.9650 C   0  0  0  0  0  3  0  0  0  0  0  0
  -16.6510  -29.6260   23.4990 C   0  0  0  0  0  3  0  0  0  0  0  0
  -16.8590  -28.4030   22.8380 C   0  0  0  0  0  3  0  0  0  0  0  0
  -25.9610  -32.3230   23.8800 C   0  0  0  0  0  3  0  0  0  0  0  0
  -26.4430  -31.5100   25.1440 C   0  0  1  0  0  0  0  0  0  0  0  0
  -25.3210  -31.2390   26.1730 C   0  0  0  0  0  1  0  0  0  0  0  0
  -27.0360  -30.1460   24.7260 C   0  0  0  0  0  1  0  0  0  0  0  0
  -27.5750  -32.2830   25.8590 C   0  0  0  0  0  1  0  0  0  0  0  0
  -25.6360  -33.7080   24.2520 N   0  0  0  0  0  0  0  0  0  0  0  0
  -25.9540  -34.7870   23.5260 C   0  0  0  0  0  0  0  0  0  0  0  0
  -26.6210  -34.7230   22.4900 O   0  0  0  0  0  0  0  0  0  0  0  0
  -25.0400  -33.8330   25.0580 H   0  0  0  0  0  0  0  0  0  0  0  0
  -24.1870  -36.5580   23.2580 C   0  0  0  0  0  1  0  0  0  0  0  0
  -25.4540  -36.1550   24.0300 C   0  0  0  0  0  3  0  0  0  0  0  0
  -27.5910  -37.0590   24.8340 C   0  0  0  0  0  1  0  0  0  0  0  0
  -26.4650  -37.2290   23.9190 N   0  0  0  0  0  0  0  0  0  0  0  0
  -26.0470  -38.1390   24.0960 H   0  0  0  0  0  0  0  0  0  0  0  0
  -30.5370  -21.5010   20.3270 O   0  0  0  0  0  0  0  0  0  0  0  0
  -30.5430  -17.8120   19.3380 C   0  0  0  0  0  3  0  0  0  0  0  0
  -30.5750  -17.9380   21.7260 C   0  0  0  0  0  3  0  0  0  0  0  0
  -30.5400  -19.2440   19.2590 C   0  0  0  0  0  0  0  0  0  0  0  0
  -30.5140  -17.1190   20.5730 C   0  0  0  0  0  0  0  0  0  0  0  0
  -30.5020  -20.0770   20.4260 C   0  0  0  0  0  0  0  0  0  0  0  0
  -30.6300  -19.3630   21.6610 C   0  0  0  0  0  0  0  0  0  0  0  0
  -30.6230  -19.8590   17.8710 C   0  0  0  0  0  1  0  0  0  0  0  0
  -30.9720  -20.1830   23.1440 Cl  0  0  0  0  0  0  0  0  0  0  0  0
  -30.9750  -14.6370   20.0510 C   0  0  0  0  0  0  0  0  0  0  0  0
  -30.6530  -12.3810   19.0360 C   0  0  0  0  0  2  0  0  0  0  0  0
  -29.6530  -12.5100   17.8650 C   0  0  0  0  0  2  0  0  0  0  0  0
  -28.2080  -12.3590   18.3750 C   0  0  0  0  0  2  0  0  0  0  0  0
  -27.9230  -13.2470   19.6160 C   0  0  0  0  0  3  0  0  0  0  0  0
  -29.0400  -13.1070   20.6770 C   0  0  0  0  0  2  0  0  0  0  0  0
  -30.3250  -13.4260   20.0310 N   0  0  0  0  0  0  0  0  0  0  0  0
  -32.0450  -14.7980   19.4600 O   0  0  0  0  0  0  0  0  0  0  0  0
  -30.3610  -15.6660   20.7050 N   0  0  0  0  0  0  0  0  0  0  0  0
  -29.6180  -15.3720   21.3190 H   0  0  0  0  0  0  0  0  0  0  0  0
  -25.6010  -13.8680   20.5260 C   0  0  0  0  0  0  0  0  0  0  0  0
  -24.5400  -13.1040   20.9280 C   0  0  0  0  0  0  0  0  0  0  0  0
  -24.9560  -11.7440   20.7920 C   0  0  0  0  0  0  0  0  0  0  0  0
  -26.6000  -12.9760   20.1740 N   0  0  0  0  0  0  0  0  0  0  0  0
  -26.2210  -11.6890   20.3910 N   0  0  0  0  0  0  0  0  0  0  0  0
  -24.2080  -10.4930   20.9730 C   0  0  0  0  0  0  0  0  0  0  0  0
  -24.6380   -9.4990   21.8820 C   0  0  0  0  0  3  0  0  0  0  0  0
  -23.8920   -8.3120   22.0520 C   0  0  0  0  0  3  0  0  0  0  0  0
  -22.7030   -8.1110   21.3110 C   0  0  0  0  0  0  0  0  0  0  0  0
  -22.2950   -9.0880   20.3860 C   0  0  0  0  0  3  0  0  0  0  0  0
  -23.0410  -10.2660   20.2170 C   0  0  0  0  0  3  0  0  0  0  0  0
  -21.9240   -6.9810   21.3940 O   0  0  0  0  0  0  0  0  0  0  0  0
  -21.8060   -6.2730   22.5630 C   0  0  0  0  0  0  0  0  0  0  0  0
  -21.3140   -6.8650   23.7460 C   0  0  0  0  0  3  0  0  0  0  0  0
  -21.1430   -6.0840   24.9050 C   0  0  0  0  0  3  0  0  0  0  0  0
  -21.4510   -4.7100   24.8810 C   0  0  0  0  0  0  0  0  0  0  0  0
  -21.9340   -4.1170   23.7010 C   0  0  0  0  0  3  0  0  0  0  0  0
  -22.1080   -4.8960   22.5450 C   0  0  0  0  0  0  0  0  0  0  0  0
  -22.5540   -4.3150   21.4040 F   0  0  0  0  0  0  0  0  0  0  0  0
  -21.2760   -3.9570   25.9930 F   0  0  0  0  0  0  0  0  0  0  0  0
  -23.1800  -13.5950   21.3360 C   0  0  0  0  0  0  0  0  0  0  0  0
  -22.5200  -12.8730   22.2320 N   0  0  0  0  0  0  0  0  0  0  0  0
  -22.7220  -14.6490   20.8950 O   0  0  0  0  0  0  0  0  0  0  0  0
  -22.9140  -12.0130   22.5900 H   0  0  0  0  0  0  0  0  0  0  0  0
  -21.6110  -13.1670   22.5590 H   0  0  0  0  0  0  0  0  0  0  0  0
  -25.8100  -15.2390   20.4140 N   0  0  0  0  0  0  0  0  0  0  0  0
  -25.1070  -15.9340   20.6420 H   0  0  0  0  0  0  0  0  0  0  0  0
  -26.6790  -15.6480   20.0950 H   0  0  0  0  0  0  0  0  0  0  0  0
  3  1  1  6
  3  2  1  0
  6  4  1  6
  6  3  1  0
  6  5  1  0
  7  8  1  0
  7  6  1  0
  9 20  2  0
 10  8  1  0
 10 15  1  0
 11 19  1  0
 11 21  1  0
 12 18  1  0
 12 14  1  0
 13 19  1  0
 14 13  1  0
 15 14  2  0
 16 17  1  0
 16 10  2  0
 17 12  2  0
 18 11  1  0
 19  9  1  0
 21 23  2  0
 22 21  1  0
 24 22  1  0
 25 34  2  0
 25 30  1  0
 26 22  1  0
 26 30  1  0
 27 26  1  0
 28 29  1  0
 28 27  1  0
 29 25  1  0
 30 31  2  0
 31 32  1  0
 33 32  2  0
 34 33  1  0
 35  9  1  0
 35 40  1  0
 35 36  1  0
 36 39  1  1
 36 37  1  0
 38 36  1  0
 40 43  1  0
 41 45  1  0
 41 40  1  0
 42 41  2  0
 45 44  1  0
 47 45  1  0
 47 48  1  0
 47 46  1  0
 49  3  1  0
 49 54  1  0
 50 53  1  0
 52 50  2  0
 52 54  1  0
 53 66  1  0
 53 51  2  0
 54 55  2  0
 55 51  1  0
 55 57  1  0
 56 52  1  0
 58 66  1  0
 59 64  1  0
 60 61  1  0
 60 59  1  0
 62 61  1  0
 62 71  1  0
 62 63  1  0
 64 58  1  0
 64 63  1  0
 65 58  2  0
 66 67  1  0
 68 69  2  0
 69 88  1  0
 70 69  1  0
 70 73  1  0
 71 72  1  0
 71 68  1  0
 72 70  2  0
 73 74  1  0
 74 75  2  0
 76 79  1  0
 76 75  1  0
 77 76  2  0
 78 77  1  0
 78 73  2  0
 79 80  1  0
 80 81  1  0
 81 82  2  0
 83 82  1  0
 83 87  1  0
 84 83  2  0
 85 80  2  0
 85 84  1  0
 86 85  1  0
 88 89  1  0
 89 92  1  0
 89 91  1  0
 90 88  2  0
 93 68  1  0
 93 94  1  0
 95 93  1  0
M  ISO  4   7 101   8 101  58 100  66 100
M  END
>  <TORSDO>  (93) 
F 20

>  <SCORE>  (93) 
-13.665

>  <name>  (93) 
94

>  <ligand_id>  (93) 
94

>  <original_smiles>  (93) 
[H]c1c([H])c([H])c2c(c1[H])C([H])([H])C([H])([H])C([H])([H])C2([H])N([H])C(=O)C1([H])N(C(=O)C([H])(N([H])C(=O)C([H])(N([H])C([H])([H])[H])C([H])([H])[H])C(C([H])([H])[H])(C([H])([H])[H])C([H])([H])[H])C([H])([H])c2c([H])c(OC([H])([H])C(C([H])([H])[H])(C([H])([H])[H])C(Oc3c(Cl)c([H])c(N([H])C(=O)N4C([H])([H])C([H])([H])C([H])([H])C([H])(n5nc(-c6c([H])c([H])c(Oc7c([H])c([H])c(F)c([H])c7F)c([H])c6[H])c(C(=O)N([H])[H])c5N([H])[H])C4([H])[H])c([H])c3C([H])([H])[H])(C([H])([H])[H])C([H])([H])[H])c([H])c([H])c2C1([H])[H]

>  <smiles>  (93) 
[H]c1c([H])c([H])c2c(c1[H])C([H])([H])C([H])([H])C([H])([H])C2([H])N([H])C(=O)C1([H])N(C(=O)C([H])(N([H])C(=O)C([H])(N([H])C([H])([H])[H])C([H])([H])[H])C(C([H])([H])[H])(C([H])([H])[H])C([H])([H])[H])C([H])([H])c2c([H])c(OC([H])([H])C(C([H])([H])[H])(C([H])([H])[H])C(Oc3c(Cl)c([H])c(N([H])C(=O)N4C([H])([H])C([H])([H])C([H])([H])C([H])(n5nc(-c6c([H])c([H])c(Oc7c([H])c([H])c(F)c([H])c7F)c([H])c6[H])c(C(=O)N([H])[H])c5N([H])[H])C4([H])[H])c([H])c3C([H])([H])[H])(C([H])([H])[H])C([H])([H])[H])c([H])c([H])c2C1([H])[H]

$$$$
95:0:0
     RDKit          3D

 95103  0  0  1  0  0  0  0  0999 V2000
  -30.0410  -20.2060   17.4750 C   0  0  0  0  0  1  0  0  0  0  0  0
  -29.7660  -19.7930   18.9420 C   0  0  0  0  0  3  0  0  0  0  0  0
  -32.2160  -17.1910   19.7390 C   0  0  0  0  0  2  0  0  0  0  0  0
  -31.8570  -18.3950   18.8740 C   0  0  0  0  0  2  0  0  0  0  0  0
  -30.6750  -18.5740   20.9550 C   0  0  0  0  0  2  0  0  0  0  0  0
  -31.1410  -17.1050   20.8410 C   0  0  0  0  0  3  0  0  0  0  0  0
  -30.9660  -19.2740   19.6710 N   0  0  2  0  0  4  0  0  0  0  0  0
  -31.5230  -20.0820   19.9130 H   0  0  0  0  0  0  0  0  0  0  0  0
  -30.6360  -14.7100   20.5930 C   0  0  0  0  0  0  0  0  0  0  0  0
  -30.2360  -12.6200   19.3640 C   0  0  0  0  0  2  0  0  0  0  0  0
  -29.2680  -12.7870   18.1860 C   0  0  0  0  0  2  0  0  0  0  0  0
  -27.8150  -12.5790   18.6600 C   0  0  0  0  0  2  0  0  0  0  0  0
  -27.4730  -13.3300   19.9720 C   0  0  0  0  0  3  0  0  0  0  0  0
  -28.5940  -13.2170   21.0350 C   0  0  0  0  0  2  0  0  0  0  0  0
  -29.8470  -13.6130   20.3800 N   0  0  0  0  0  0  0  0  0  0  0  0
  -31.8500  -14.6030   20.4440 O   0  0  0  0  0  0  0  0  0  0  0  0
  -30.1310  -15.9930   20.6670 N   0  0  0  0  0  0  0  0  0  0  0  0
  -25.0820  -13.8100   20.7830 C   0  0  0  0  0  0  0  0  0  0  0  0
  -24.0580  -12.9720   21.1310 C   0  0  0  0  0  0  0  0  0  0  0  0
  -24.5890  -11.6490   21.0400 C   0  0  0  0  0  0  0  0  0  0  0  0
  -26.1610  -12.9850   20.4940 N   0  0  0  0  0  0  0  0  0  0  0  0
  -25.8730  -11.6830   20.7190 N   0  0  0  0  0  0  0  0  0  0  0  0
  -23.9350  -10.3460   21.1830 C   0  0  0  0  0  0  0  0  0  0  0  0
  -24.3870   -9.4020   22.1300 C   0  0  0  0  0  3  0  0  0  0  0  0
  -23.7330   -8.1600   22.2660 C   0  0  0  0  0  3  0  0  0  0  0  0
  -22.6150   -7.8570   21.4530 C   0  0  0  0  0  0  0  0  0  0  0  0
  -22.1850   -8.7920   20.4960 C   0  0  0  0  0  3  0  0  0  0  0  0
  -22.8400  -10.0260   20.3580 C   0  0  0  0  0  3  0  0  0  0  0  0
  -21.9320   -6.6670   21.4970 O   0  0  0  0  0  0  0  0  0  0  0  0
  -21.8160   -5.9500   22.6610 C   0  0  0  0  0  0  0  0  0  0  0  0
  -21.2180   -6.4970   23.8170 C   0  0  0  0  0  3  0  0  0  0  0  0
  -21.0580   -5.7000   24.9680 C   0  0  0  0  0  3  0  0  0  0  0  0
  -21.4820   -4.3580   24.9610 C   0  0  0  0  0  0  0  0  0  0  0  0
  -22.0720   -3.8120   23.8090 C   0  0  0  0  0  3  0  0  0  0  0  0
  -22.2360   -4.6050   22.6610 C   0  0  0  0  0  0  0  0  0  0  0  0
  -22.7880   -4.0680   21.5460 F   0  0  0  0  0  0  0  0  0  0  0  0
  -21.3180   -3.5900   26.0640 F   0  0  0  0  0  0  0  0  0  0  0  0
  -22.6420  -13.3680   21.4330 C   0  0  0  0  0  0  0  0  0  0  0  0
  -21.9710  -12.6160   22.2970 N   0  0  0  0  0  0  0  0  0  0  0  0
  -22.1380  -14.3760   20.9400 O   0  0  0  0  0  0  0  0  0  0  0  0
  -22.3950  -11.8000   22.7150 H   0  0  0  0  0  0  0  0  0  0  0  0
  -21.0210  -12.8580   22.5420 H   0  0  0  0  0  0  0  0  0  0  0  0
  -25.1650  -15.1940   20.6730 N   0  0  0  0  0  0  0  0  0  0  0  0
  -24.3460  -15.7780   20.8030 H   0  0  0  0  0  0  0  0  0  0  0  0
  -25.9820  -15.7240   20.4030 H   0  0  0  0  0  0  0  0  0  0  0  0
  -28.7350  -16.4050   20.3980 C   0  0  0  0  0  2  0  0  0  0  0  0
  -28.5060  -16.7690   18.9040 C   0  0  0  0  0  2  0  0  0  0  0  0
  -27.1220  -17.3390   18.5220 C   0  0  0  0  0  2  0  0  0  0  0  0
  -26.5820  -18.6440   19.6130 Cl  0  0  0  0  0  0  0  0  0  0  0  0
  -29.0400  -20.9220   19.7050 C   0  0  0  0  0  2  0  0  0  0  0  0
  -29.7040  -22.3030   19.6240 C   0  0  0  0  0  2  0  0  0  0  0  0
  -28.9600  -23.3140   20.4980 C   0  0  0  0  0  2  0  0  0  0  0  0
  -29.1480  -24.7470   19.9990 C   0  0  0  0  0  2  0  0  0  0  0  0
  -28.3620  -25.7450   20.8410 C   0  0  0  0  0  2  0  0  0  0  0  0
  -28.3540  -26.9810   20.1430 O   0  0  0  0  0  0  0  0  0  0  0  0
  -24.5600  -32.0500   23.3000 C   0  0  0  0  0  0  0  0  0  0  0  0
  -27.1650  -27.6570   20.1790 C   0  0  0  0  0  0  0  0  0  0  0  0
  -23.3230  -30.6480   21.6770 C   0  0  0  0  0  3  0  0  0  0  0  0
  -24.7550  -29.1110   20.2300 C   0  0  0  0  0  0  0  0  0  0  0  0
  -25.8360  -31.0270   21.4270 C   0  0  0  0  0  2  0  0  0  0  0  0
  -25.9170  -29.6570   20.7890 C   0  0  0  0  0  0  0  0  0  0  0  0
  -27.1260  -28.9390   20.7580 C   0  0  0  0  0  3  0  0  0  0  0  0
  -25.9910  -27.1070   19.6190 C   0  0  0  0  0  3  0  0  0  0  0  0
  -24.7830  -27.8320   19.6450 C   0  0  0  0  0  3  0  0  0  0  0  0
  -23.5070  -29.9610   20.2960 C   0  0  0  0  0  2  0  0  0  0  0  0
  -24.5920  -31.2550   22.1940 N   0  0  0  0  0  0  0  0  0  0  0  0
  -23.4900  -32.3190   23.8620 O   0  0  0  0  0  0  0  0  0  0  0  0
  -22.6920  -29.6270   22.6500 C   0  0  0  0  0  0  0  0  0  0  0  0
  -21.3720  -29.4200   22.5230 N   0  0  0  0  0  0  0  0  0  0  0  0
  -23.3870  -29.0220   23.4700 O   0  0  0  0  0  0  0  0  0  0  0  0
  -20.8720  -29.9600   21.8300 H   0  0  0  0  0  0  0  0  0  0  0  0
  -18.0240  -28.1490   23.0020 C   0  0  0  0  0  0  0  0  0  0  0  0
  -20.5700  -28.4770   23.3020 C   0  0  0  0  0  3  0  0  0  0  0  0
  -20.7170  -27.0390   22.7540 C   0  0  0  0  0  2  0  0  0  0  0  0
  -19.6360  -26.6670   21.7330 C   0  0  0  0  0  2  0  0  0  0  0  0
  -18.2430  -26.7910   22.3570 C   0  0  0  0  0  2  0  0  0  0  0  0
  -19.1180  -28.9470   23.4310 C   0  0  0  0  0  0  0  0  0  0  0  0
  -18.8610  -30.2170   23.9920 C   0  0  0  0  0  3  0  0  0  0  0  0
  -17.5430  -30.6910   24.1310 C   0  0  0  0  0  3  0  0  0  0  0  0
  -16.4630  -29.8900   23.7180 C   0  0  0  0  0  3  0  0  0  0  0  0
  -16.7050  -28.6220   23.1600 C   0  0  0  0  0  3  0  0  0  0  0  0
  -25.8580  -32.6790   23.8980 C   0  0  0  0  0  3  0  0  0  0  0  0
  -26.3930  -31.9120   25.1690 C   0  0  1  0  0  0  0  0  0  0  0  0
  -25.3160  -31.6800   26.2550 C   0  0  0  0  0  1  0  0  0  0  0  0
  -26.9700  -30.5340   24.7700 C   0  0  0  0  0  1  0  0  0  0  0  0
  -27.5560  -32.7080   25.8080 C   0  0  0  0  0  1  0  0  0  0  0  0
  -25.5600  -34.0800   24.2220 N   0  0  0  0  0  0  0  0  0  0  0  0
  -25.8880  -35.1250   23.4500 C   0  0  0  0  0  0  0  0  0  0  0  0
  -26.5440  -35.0100   22.4110 O   0  0  0  0  0  0  0  0  0  0  0  0
  -24.9800  -34.2430   25.0320 H   0  0  0  0  0  0  0  0  0  0  0  0
  -24.1610  -36.9160   23.1030 C   0  0  0  0  0  1  0  0  0  0  0  0
  -25.4120  -36.5180   23.9010 C   0  0  0  0  0  3  0  0  0  0  0  0
  -27.5620  -37.4020   24.6930 C   0  0  0  0  0  1  0  0  0  0  0  0
  -26.4460  -37.5660   23.7650 N   0  0  0  0  0  0  0  0  0  0  0  0
  -26.0460  -38.4890   23.9090 H   0  0  0  0  0  0  0  0  0  0  0  0
  2  1  1  0
  2  7  1  0
  2 50  1  0
  3  6  1  0
  4  7  1  0
  4  3  1  0
  6 17  1  0
  6  5  1  0
  7  8  1  1
  7  5  1  0
  9 17  1  0
 10 15  1  0
 11 12  1  0
 11 10  1  0
 13 12  1  0
 13 21  1  0
 13 14  1  0
 15  9  1  0
 15 14  1  0
 16  9  2  0
 18 19  2  0
 19 38  1  0
 20 19  1  0
 20 23  1  0
 21 22  1  0
 21 18  1  0
 22 20  2  0
 23 24  1  0
 24 25  2  0
 26 29  1  0
 26 25  1  0
 27 26  2  0
 28 27  1  0
 28 23  2  0
 29 30  1  0
 30 35  2  0
 30 31  1  0
 31 32  2  0
 33 32  1  0
 33 37  1  0
 34 33  2  0
 35 34  1  0
 36 35  1  0
 38 39  1  0
 39 42  1  0
 39 41  1  0
 40 38  2  0
 43 18  1  0
 43 44  1  0
 45 43  1  0
 46 17  1  0
 47 46  1  0
 48 47  1  0
 48 49  1  0
 51 50  1  0
 51 52  1  0
 53 52  1  0
 53 54  1  0
 55 57  1  0
 55 54  1  0
 56 67  2  0
 57 62  1  0
 58 66  1  0
 58 68  1  0
 59 65  1  0
 59 61  1  0
 60 66  1  0
 61 60  1  0
 62 61  2  0
 63 64  1  0
 63 57  2  0
 64 59  2  0
 65 58  1  0
 66 56  1  0
 68 70  2  0
 69 68  1  0
 71 69  1  0
 72 81  2  0
 72 77  1  0
 73 69  1  0
 73 77  1  0
 74 73  1  0
 75 76  1  0
 75 74  1  0
 76 72  1  0
 77 78  2  0
 78 79  1  0
 80 79  2  0
 81 80  1  0
 82 56  1  0
 82 87  1  0
 82 83  1  0
 83 86  1  1
 83 84  1  0
 85 83  1  0
 87 90  1  0
 88 92  1  0
 88 87  1  0
 89 88  2  0
 92 91  1  0
 94 92  1  0
 94 95  1  0
 94 93  1  0
M  ISO  4   9 100  17 100  54 101  55 101
M  END
>  <TORSDO>  (94) 
F 25

>  <SCORE>  (94) 
-11.731

>  <name>  (94) 
95

>  <ligand_id>  (94) 
95

>  <original_smiles>  (94) 
[H]c1c([H])c([H])c2c(c1[H])C([H])([H])C([H])([H])C([H])([H])C2([H])N([H])C(=O)C1([H])N(C(=O)C([H])(N([H])C(=O)C([H])(N([H])C([H])([H])[H])C([H])([H])[H])C(C([H])([H])[H])(C([H])([H])[H])C([H])([H])[H])C([H])([H])c2c([H])c(OC([H])([H])C([H])([H])C([H])([H])C([H])([H])C([H])([H])C([H])(C([H])([H])[H])[N+]3([H])C([H])([H])C([H])([H])C([H])(N(C(=O)N4C([H])([H])C([H])([H])C([H])([H])C([H])(n5nc(-c6c([H])c([H])c(Oc7c([H])c([H])c(F)c([H])c7F)c([H])c6[H])c(C(=O)N([H])[H])c5N([H])[H])C4([H])[H])C([H])([H])C([H])([H])C([H])([H])Cl)C3([H])[H])c([H])c([H])c2C1([H])[H]

>  <smiles>  (94) 
[H]c1c([H])c([H])c2c(c1[H])C([H])([H])C([H])([H])C([H])([H])C2([H])N([H])C(=O)C1([H])N(C(=O)C([H])(N([H])C(=O)C([H])(N([H])C([H])([H])[H])C([H])([H])[H])C(C([H])([H])[H])(C([H])([H])[H])C([H])([H])[H])C([H])([H])c2c([H])c(OC([H])([H])C([H])([H])C([H])([H])C([H])([H])C([H])([H])C([H])(C([H])([H])[H])[N+]3([H])C([H])([H])C([H])([H])C([H])(N(C(=O)N4C([H])([H])C([H])([H])C([H])([H])C([H])(n5nc(-c6c([H])c([H])c(Oc7c([H])c([H])c(F)c([H])c7F)c([H])c6[H])c(C(=O)N([H])[H])c5N([H])[H])C4([H])[H])C([H])([H])C([H])([H])C([H])([H])Cl)C3([H])[H])c([H])c([H])c2C1([H])[H]

$$$$
96:0:0
     RDKit          3D

 90 98  0  0  1  0  0  0  0  0999 V2000
  -28.9600  -21.3160   17.9280 C   0  0  0  0  0  3  0  0  0  0  0  0
  -28.7970  -22.7560   19.9540 C   0  0  0  0  0  0  0  0  0  0  0  0
  -29.4520  -19.9970   19.9900 C   0  0  0  0  0  0  0  0  0  0  0  0
  -28.7240  -22.5700   18.5570 C   0  0  0  0  0  0  0  0  0  0  0  0
  -29.2970  -20.0990   18.5860 C   0  0  0  0  0  0  0  0  0  0  0  0
  -29.1750  -21.3970   20.6240 C   0  0  0  0  0  0  0  0  0  0  0  0
  -28.3780  -23.6220   17.7760 F   0  0  0  0  0  0  0  0  0  0  0  0
  -29.5620  -18.7080   17.5940 Cl  0  0  0  0  0  0  0  0  0  0  0  0
  -29.3010  -21.4470   22.3450 Cl  0  0  0  0  0  0  0  0  0  0  0  0
  -30.0560  -18.4510   20.6250 C   0  0  0  0  0  2  0  0  0  0  0  0
  -30.6650  -15.5080   20.3300 C   0  0  0  0  0  0  0  0  0  0  0  0
  -30.7060  -13.0260   19.5100 C   0  0  0  0  0  2  0  0  0  0  0  0
  -29.8200  -12.7280   18.2730 C   0  0  0  0  0  2  0  0  0  0  0  0
  -28.3670  -12.4440   18.6940 C   0  0  0  0  0  2  0  0  0  0  0  0
  -27.8700  -13.4450   19.7640 C   0  0  0  0  0  3  0  0  0  0  0  0
  -28.8890  -13.6680   20.9010 C   0  0  0  0  0  2  0  0  0  0  0  0
  -30.1110  -14.1910   20.2660 N   0  0  0  0  0  0  0  0  0  0  0  0
  -31.9010  -15.4930   20.2220 O   0  0  0  0  0  0  0  0  0  0  0  0
  -29.8860  -16.7890   20.3220 N   0  0  0  0  0  0  0  0  0  0  0  0
  -28.9070  -16.5630   20.2400 H   0  0  0  0  0  0  0  0  0  0  0  0
  -25.4870  -14.0030   20.4700 C   0  0  0  0  0  0  0  0  0  0  0  0
  -24.4190  -13.2290   20.8230 C   0  0  0  0  0  0  0  0  0  0  0  0
  -24.8890  -11.8790   20.8150 C   0  0  0  0  0  0  0  0  0  0  0  0
  -26.5350  -13.1280   20.2550 N   0  0  0  0  0  0  0  0  0  0  0  0
  -26.1870  -11.8450   20.5330 N   0  0  0  0  0  0  0  0  0  0  0  0
  -24.1590  -10.6180   20.9990 C   0  0  0  0  0  0  0  0  0  0  0  0
  -24.5580   -9.6640   21.9620 C   0  0  0  0  0  3  0  0  0  0  0  0
  -23.8250   -8.4700   22.1340 C   0  0  0  0  0  3  0  0  0  0  0  0
  -22.6790   -8.2200   21.3420 C   0  0  0  0  0  0  0  0  0  0  0  0
  -22.2990   -9.1620   20.3700 C   0  0  0  0  0  3  0  0  0  0  0  0
  -23.0330  -10.3470   20.1950 C   0  0  0  0  0  3  0  0  0  0  0  0
  -21.9200   -7.0770   21.4230 O   0  0  0  0  0  0  0  0  0  0  0  0
  -21.8200   -6.3610   22.5890 C   0  0  0  0  0  0  0  0  0  0  0  0
  -21.3060   -6.9330   23.7730 C   0  0  0  0  0  3  0  0  0  0  0  0
  -21.1540   -6.1420   24.9290 C   0  0  0  0  0  3  0  0  0  0  0  0
  -21.5050   -4.7800   24.9010 C   0  0  0  0  0  0  0  0  0  0  0  0
  -22.0130   -4.2070   23.7220 C   0  0  0  0  0  3  0  0  0  0  0  0
  -22.1650   -4.9950   22.5680 C   0  0  0  0  0  0  0  0  0  0  0  0
  -22.6340   -4.4320   21.4280 F   0  0  0  0  0  0  0  0  0  0  0  0
  -21.3530   -4.0170   26.0100 F   0  0  0  0  0  0  0  0  0  0  0  0
  -23.0140  -13.7060   21.0500 C   0  0  0  0  0  0  0  0  0  0  0  0
  -22.2660  -13.0220   21.9090 N   0  0  0  0  0  0  0  0  0  0  0  0
  -22.5900  -14.7230   20.5030 O   0  0  0  0  0  0  0  0  0  0  0  0
  -22.6240  -12.2010   22.3740 H   0  0  0  0  0  0  0  0  0  0  0  0
  -21.3230  -13.3260   22.1050 H   0  0  0  0  0  0  0  0  0  0  0  0
  -25.6470  -15.3730   20.2810 N   0  0  0  0  0  0  0  0  0  0  0  0
  -24.8710  -16.0200   20.3630 H   0  0  0  0  0  0  0  0  0  0  0  0
  -26.4870  -15.8100   19.9250 H   0  0  0  0  0  0  0  0  0  0  0  0
  -28.2550  -24.3330   20.5570 C   0  0  0  0  0  2  0  0  0  0  0  0
  -28.4090  -25.9300   20.0880 O   0  0  0  0  0  0  0  0  0  0  0  0
  -24.6980  -31.8710   23.1090 C   0  0  0  0  0  0  0  0  0  0  0  0
  -27.3740  -27.0210   20.1080 C   0  0  0  0  0  0  0  0  0  0  0  0
  -23.5490  -30.4610   21.4530 C   0  0  0  0  0  3  0  0  0  0  0  0
  -25.0420  -28.8810   20.0450 C   0  0  0  0  0  0  0  0  0  0  0  0
  -26.1150  -30.7120   21.3350 C   0  0  0  0  0  2  0  0  0  0  0  0
  -26.2200  -29.3010   20.6770 C   0  0  0  0  0  0  0  0  0  0  0  0
  -27.3830  -28.3960   20.6760 C   0  0  0  0  0  3  0  0  0  0  0  0
  -26.1590  -26.7610   19.4350 C   0  0  0  0  0  3  0  0  0  0  0  0
  -25.0390  -27.6320   19.4030 C   0  0  0  0  0  3  0  0  0  0  0  0
  -23.8080  -29.7850   20.0790 C   0  0  0  0  0  2  0  0  0  0  0  0
  -24.8090  -31.0430   22.0190 N   0  0  0  0  0  0  0  0  0  0  0  0
  -23.5970  -32.1380   23.6190 O   0  0  0  0  0  0  0  0  0  0  0  0
  -22.8620  -29.4490   22.4080 C   0  0  0  0  0  0  0  0  0  0  0  0
  -21.5350  -29.2620   22.2710 N   0  0  0  0  0  0  0  0  0  0  0  0
  -23.5290  -28.8330   23.2420 O   0  0  0  0  0  0  0  0  0  0  0  0
  -21.0480  -29.8110   21.5760 H   0  0  0  0  0  0  0  0  0  0  0  0
  -18.1700  -27.9880   22.7460 C   0  0  0  0  0  0  0  0  0  0  0  0
  -20.7220  -28.3050   23.0290 C   0  0  0  0  0  3  0  0  0  0  0  0
  -20.8560  -26.8780   22.4470 C   0  0  0  0  0  2  0  0  0  0  0  0
  -19.7680  -26.5400   21.4220 C   0  0  0  0  0  2  0  0  0  0  0  0
  -18.3790  -26.6500   22.0580 C   0  0  0  0  0  2  0  0  0  0  0  0
  -19.2700  -28.7730   23.1880 C   0  0  0  0  0  0  0  0  0  0  0  0
  -19.0180  -30.0210   23.7950 C   0  0  0  0  0  3  0  0  0  0  0  0
  -17.7010  -30.4890   23.9620 C   0  0  0  0  0  3  0  0  0  0  0  0
  -16.6160  -29.7040   23.5340 C   0  0  0  0  0  3  0  0  0  0  0  0
  -16.8520  -28.4550   22.9330 C   0  0  0  0  0  3  0  0  0  0  0  0
  -25.9480  -32.5380   23.7590 C   0  0  0  0  0  3  0  0  0  0  0  0
  -25.5950  -33.9260   24.1050 N   0  0  0  0  0  0  0  0  0  0  0  0
  -25.9140  -35.0050   23.3780 C   0  0  0  0  0  0  0  0  0  0  0  0
  -26.5980  -34.9370   22.3540 O   0  0  0  0  0  0  0  0  0  0  0  0
  -24.9860  -34.0500   24.9010 H   0  0  0  0  0  0  0  0  0  0  0  0
  -24.1630  -36.7850   23.0380 C   0  0  0  0  0  1  0  0  0  0  0  0
  -25.3970  -36.3760   23.8610 C   0  0  0  0  0  3  0  0  0  0  0  0
  -27.4960  -37.2840   24.7560 C   0  0  0  0  0  1  0  0  0  0  0  0
  -26.4130  -37.4500   23.7910 N   0  0  0  0  0  0  0  0  0  0  0  0
  -25.9870  -38.3600   23.9440 H   0  0  0  0  0  0  0  0  0  0  0  0
  -26.4580  -31.7740   25.0450 C   0  0  1  0  0  0  0  0  0  0  0  0
  -25.3520  -31.5120   26.0950 C   0  0  0  0  0  1  0  0  0  0  0  0
  -27.0740  -30.4080   24.6680 C   0  0  0  0  0  1  0  0  0  0  0  0
  -27.5820  -32.5890   25.7260 C   0  0  0  0  0  1  0  0  0  0  0  0
  1  4  2  0
  1  5  1  0
  2 49  1  0
  2  6  2  0
  3  6  1  0
  3 10  1  0
  4  2  1  0
  5  3  2  0
  6  9  1  0
  7  4  1  0
  8  5  1  0
 12 17  1  0
 13 14  1  0
 13 12  1  0
 15 14  1  0
 15 24  1  0
 15 16  1  0
 17 11  1  0
 17 16  1  0
 18 11  2  0
 19 11  1  0
 19 10  1  0
 20 19  1  0
 21 22  2  0
 22 41  1  0
 23 22  1  0
 23 26  1  0
 24 21  1  0
 24 25  1  0
 25 23  2  0
 26 27  1  0
 27 28  2  0
 29 32  1  0
 29 28  1  0
 30 29  2  0
 31 30  1  0
 31 26  2  0
 32 33  1  0
 33 34  1  0
 34 35  2  0
 36 35  1  0
 36 40  1  0
 37 36  2  0
 38 33  2  0
 38 37  1  0
 39 38  1  0
 41 42  1  0
 42 45  1  0
 42 44  1  0
 43 41  2  0
 46 47  1  0
 46 21  1  0
 48 46  1  0
 50 52  1  0
 50 49  1  0
 51 62  2  0
 52 57  1  0
 53 61  1  0
 53 63  1  0
 54 60  1  0
 54 56  1  0
 55 61  1  0
 56 55  1  0
 57 56  2  0
 58 52  2  0
 59 58  1  0
 59 54  2  0
 60 53  1  0
 61 51  1  0
 63 65  2  0
 64 63  1  0
 66 64  1  0
 67 76  2  0
 67 72  1  0
 68 64  1  0
 68 72  1  0
 69 68  1  0
 70 71  1  0
 70 69  1  0
 71 67  1  0
 72 73  2  0
 73 74  1  0
 75 74  2  0
 76 75  1  0
 77 51  1  0
 77 78  1  0
 77 87  1  0
 78 81  1  0
 79 83  1  0
 79 78  1  0
 80 79  2  0
 83 82  1  0
 85 83  1  0
 85 86  1  0
 85 84  1  0
 87 90  1  1
 87 88  1  0
 89 87  1  0
M  ISO  4  11 100  19 100  49 101  50 101
M  END
>  <TORSDO>  (95) 
F 18

>  <SCORE>  (95) 
-16.695

>  <name>  (95) 
96

>  <ligand_id>  (95) 
96

>  <original_smiles>  (95) 
[H]c1c([H])c([H])c2c(c1[H])C([H])([H])C([H])([H])C([H])([H])C2([H])N([H])C(=O)C1([H])N(C(=O)C([H])(N([H])C(=O)C([H])(N([H])C([H])([H])[H])C([H])([H])[H])C(C([H])([H])[H])(C([H])([H])[H])C([H])([H])[H])C([H])([H])c2c([H])c(OC([H])([H])c3c(F)c([H])c(Cl)c(C([H])([H])N([H])C(=O)N4C([H])([H])C([H])([H])C([H])([H])C([H])(n5nc(-c6c([H])c([H])c(Oc7c([H])c([H])c(F)c([H])c7F)c([H])c6[H])c(C(=O)N([H])[H])c5N([H])[H])C4([H])[H])c3Cl)c([H])c([H])c2C1([H])[H]

>  <smiles>  (95) 
[H]c1c([H])c([H])c2c(c1[H])C([H])([H])C([H])([H])C([H])([H])C2([H])N([H])C(=O)C1([H])N(C(=O)C([H])(N([H])C(=O)C([H])(N([H])C([H])([H])[H])C([H])([H])[H])C(C([H])([H])[H])(C([H])([H])[H])C([H])([H])[H])C([H])([H])c2c([H])c(OC([H])([H])c3c(F)c([H])c(Cl)c(C([H])([H])N([H])C(=O)N4C([H])([H])C([H])([H])C([H])([H])C([H])(n5nc(-c6c([H])c([H])c(Oc7c([H])c([H])c(F)c([H])c7F)c([H])c6[H])c(C(=O)N([H])[H])c5N([H])[H])C4([H])[H])c3Cl)c([H])c([H])c2C1([H])[H]

$$$$
